#------------------------------------------------------------------------------
#$Date: 2019-11-09 07:41:52 +0200 (Sat, 09 Nov 2019) $
#$Revision: 225414 $
#$URL: file:///home/coder/svn-repositories/cod/cif/2/10/85/2108517.cif $
#------------------------------------------------------------------------------
#
# This file is available in the Crystallography Open Database (COD),
# http://www.crystallography.net/. The original data for this entry
# were provided by IUCr Journals, http://journals.iucr.org/.
#
# The file may be used within the scientific community so long as
# proper attribution is given to the journal article from which the
# data were obtained.
#
data_2108517
loop_
_publ_author_name
'Medviediev, Volodymyr'
'Daszkiewicz, Marek'
_publ_section_title
;
 Structural, theoretic and spectroscopic analysis of
 2-methyl-5-nitroaniline salts with various inorganic acids
;
_journal_issue                   6
_journal_name_full               'Acta Crystallographica Section B'
_journal_page_first
;
;
_journal_paper_doi               10.1107/S2052520619012472
_journal_volume                  75
_journal_year                    2019
_chemical_formula_moiety         'C7 H9 N2 O2, N O3'
_chemical_formula_sum            'C7 H9 N3 O5'
_chemical_formula_weight         215.17
_space_group_crystal_system      monoclinic
_space_group_IT_number           11
_space_group_name_Hall           '-P 2yb'
_space_group_name_H-M_alt        'P 1 21/m 1'
_atom_sites_solution_hydrogens   mixed
_atom_sites_solution_primary     dual
_audit_creation_date             2018-06-21
_audit_creation_method
;
Olex2 1.2
(compiled 2018.05.29 svn.r3508 for OlexSys, GUI svn.r5506)
;
_cell_angle_alpha                90
_cell_angle_beta                 98.712(3)
_cell_angle_gamma                90
_cell_formula_units_Z            2
_cell_length_a                   8.1234(3)
_cell_length_b                   6.6252(2)
_cell_length_c                   8.5799(3)
_cell_measurement_reflns_used    6221
_cell_measurement_temperature    295(1)
_cell_measurement_theta_max      29.4240
_cell_measurement_theta_min      3.2150
_cell_volume                     456.44(3)
_computing_cell_refinement       'CrysAlisPro 1.171.38.43 (Rigaku OD, 2015)'
_computing_data_collection       'CrysAlisPro 1.171.38.43 (Rigaku OD, 2015)'
_computing_data_reduction        'CrysAlisPro 1.171.38.43 (Rigaku OD, 2015)'
_computing_molecular_graphics    'Olex2 (Dolomanov et al., 2009)'
_computing_publication_material  'Olex2 (Dolomanov et al., 2009)'
_computing_structure_refinement  'ShelXL (Sheldrick, 2015)'
_computing_structure_solution    'ShelXT (Sheldrick, 2015)'
_diffrn_ambient_temperature      295(1)
_diffrn_detector                 'CCD plate'
_diffrn_detector_area_resol_mean 10.6249
_diffrn_detector_type            Atlas
_diffrn_measured_fraction_theta_full 0.999
_diffrn_measured_fraction_theta_max 0.998
_diffrn_measurement_details
;
List of Runs (angles in degrees, time in seconds):

  # Type    Start    End  Width  t~exp~   \w     \q     \k     \f   Frames
--------------------------------------------------------------------------
  1  \w     35.00 104.75   0.75   15.00    --   14.80 178.00   0.00   93
  2  \w    -76.00 104.00   0.75   15.00    --   14.80   0.00-180.00  240
  3  \w   -107.00  73.75   0.75   15.00    --  -15.89   0.00 120.00  241
  4  \w    -25.00  56.75   0.75   15.00    --   14.80 -99.00 150.00  109
  5  \w    -25.00  26.00   0.75   15.00    --  -15.89 -99.00  90.00   68
  6  \w   -106.00 -33.25   0.75   15.00    --  -15.89 178.00 -90.00   97
  7  \w    -92.00  13.75   0.75   15.00    --  -15.89 -57.00 -30.00  141
  8  \w    -25.00  26.00   0.75   15.00    --  -15.89 -99.00-180.00   68
  9  \w    -25.00  26.00   0.75   15.00    --  -15.89 -99.00 -90.00   68
 10  \w    -25.00  56.75   0.75   15.00    --   14.80 -99.00-150.00  109
 11  \w    -25.00  26.00   0.75   15.00    --  -15.89 -99.00-150.00   68
 12  \w    -25.00  26.00   0.75   15.00    --  -15.89 -99.00  30.00   68
 13  \w    -25.00  26.00   0.75   15.00    --  -15.89 -99.00 120.00   68
 14  \w    -51.00  66.00   0.75   15.00    --  -15.89  77.00 -30.00  156
 15  \w   -106.00 -33.25   0.75   15.00    --  -15.89 178.00 150.00   97
 16  \w    -25.00  56.75   0.75   15.00    --   14.80 -99.00  90.00  109
;
_diffrn_measurement_device       'four-circle diffractometer'
_diffrn_measurement_device_type  'Xcalibur, Atlas'
_diffrn_measurement_method       '\w scans'
_diffrn_orient_matrix_type
'CrysAlisPro convention (1999,Acta A55,543-557)'
_diffrn_orient_matrix_UB_11      0.0772075000
_diffrn_orient_matrix_UB_12      -0.0186824000
_diffrn_orient_matrix_UB_13      0.0485705000
_diffrn_orient_matrix_UB_21      -0.0346751000
_diffrn_orient_matrix_UB_22      -0.0860973000
_diffrn_orient_matrix_UB_23      0.0318868000
_diffrn_orient_matrix_UB_31      0.0253405000
_diffrn_orient_matrix_UB_32      -0.0607680000
_diffrn_orient_matrix_UB_33      -0.0601764000
_diffrn_radiation_monochromator  graphite
_diffrn_radiation_probe          x-ray
_diffrn_radiation_type           MoK\a
_diffrn_radiation_wavelength     0.71073
_diffrn_reflns_av_R_equivalents  0.0234
_diffrn_reflns_av_unetI/netI     0.0110
_diffrn_reflns_Laue_measured_fraction_full 0.999
_diffrn_reflns_Laue_measured_fraction_max 0.998
_diffrn_reflns_limit_h_max       10
_diffrn_reflns_limit_h_min       -10
_diffrn_reflns_limit_k_max       8
_diffrn_reflns_limit_k_min       -8
_diffrn_reflns_limit_l_max       11
_diffrn_reflns_limit_l_min       -11
_diffrn_reflns_number            16584
_diffrn_reflns_point_group_measured_fraction_full 0.999
_diffrn_reflns_point_group_measured_fraction_max 0.998
_diffrn_reflns_theta_full        25.242
_diffrn_reflns_theta_max         28.697
_diffrn_reflns_theta_min         2.401
_diffrn_source                   'fine-focus sealed X-ray tube'
_diffrn_source_type              'Enhance (Mo) X-ray Source'
_exptl_absorpt_coefficient_mu    0.135
_exptl_absorpt_correction_T_max  1.00000
_exptl_absorpt_correction_T_min  0.94516
_exptl_absorpt_correction_type   multi-scan
_exptl_absorpt_process_details
;
CrysAlisPro 1.171.38.43 (Rigaku Oxford Diffraction, 2015)
Empirical absorption correction using spherical harmonics,
 implemented in SCALE3 ABSPACK scaling algorithm.
;
_exptl_crystal_colour            'clear light yellow'
_exptl_crystal_colour_lustre     clear
_exptl_crystal_colour_modifier   light
_exptl_crystal_colour_primary    yellow
_exptl_crystal_density_diffrn    1.566
_exptl_crystal_description       plate
_exptl_crystal_F_000             224
_exptl_crystal_size_max          0.365
_exptl_crystal_size_mid          0.337
_exptl_crystal_size_min          0.061
_refine_diff_density_max         0.269
_refine_diff_density_min         -0.235
_refine_diff_density_rms         0.050
_refine_ls_extinction_method     none
_refine_ls_goodness_of_fit_ref   1.090
_refine_ls_hydrogen_treatment    mixed
_refine_ls_matrix_type           full
_refine_ls_number_parameters     102
_refine_ls_number_reflns         1273
_refine_ls_number_restraints     0
_refine_ls_restrained_S_all      1.090
_refine_ls_R_factor_all          0.0502
_refine_ls_R_factor_gt           0.0410
_refine_ls_shift/su_max          <0.001
_refine_ls_shift/su_mean         <0.001
_refine_ls_structure_factor_coef Fsqd
_refine_ls_weighting_details
'w=1/[\s^2^(Fo^2^)+(0.0616P)^2^+0.1128P] where P=(Fo^2^+2Fc^2^)/3'
_refine_ls_weighting_scheme      calc
_refine_ls_wR_factor_gt          0.1105
_refine_ls_wR_factor_ref         0.1186
_reflns_Friedel_coverage         0.000
_reflns_number_gt                1078
_reflns_number_total             1273
_reflns_threshold_expression     'I > 2\s(I)'
_cod_data_source_file            aw5028sup1.cif
_cod_data_source_block           3
_cod_database_code               2108517
_shelx_shelxl_version_number     2018/1
_shelx_space_group_comment
;
The symmetry employed for this shelxl refinement is uniquely defined
by the following loop, which should always be used as a source of
symmetry information in preference to the above space-group names.
They are only intended as comments.
;
_shelx_estimated_absorpt_t_max   0.992
_shelx_estimated_absorpt_t_min   0.952
_reflns_odcompleteness_completeness 100.00
_reflns_odcompleteness_iscentric 1
_reflns_odcompleteness_theta     27.50
_olex2_refinement_description
;
1. Fixed Uiso
 At 1.2 times of:
  All C(H) groups
2.a Aromatic/amide H refined with riding coordinates:
 C3(H3), C4(H4), C6(H6)
;
_shelx_res_file
;
TITL v313_3_a.res in P2(1)/m
    v313_3.res
    created by SHELXL-2018/1 at 11:29:08 on 09-Apr-2018
REM Old TITL V313_3 in P21/m #11
REM SHELXT solution in P2(1)/m
REM R1 0.165, Rweak 0.016, Alpha 0.021, Orientation as input
REM Formula found by SHELXT: C8 N3 O4
CELL 0.71073 8.1234 6.6252 8.5799 90 98.712 90
ZERR 2 0.0003 0.0002 0.0003 0 0.003 0
LATT 1
SYMM -X,0.5+Y,-Z
SFAC C H N O
UNIT 14 18 6 10
EQIV $1 +X,0.5-Y,+Z
EQIV $2 1-X,-Y,1-Z

L.S. 8
PLAN  20
SIZE 0.061 0.337 0.365
TEMP 21.9(10)
HTAB N1 O3
HTAB N1 O3_$1
HTAB N1 O3_$2
BOND $H
conf
list 4
fmap 2
acta
SHEL 10 0.74
OMIT 1 0 0
REM <olex2.extras>
REM <HklSrc "%.\\V313_3.hkl">
REM </olex2.extras>

WGHT    0.061600    0.112800
FVAR       0.91806
O1    4    0.501110    0.250000   -0.286750    10.50000    0.04751    0.09655 =
         0.02217    0.00000    0.01108    0.00000
O2    4    0.679656    0.250000   -0.075866    10.50000    0.02670    0.08037 =
         0.03994    0.00000    0.00809    0.00000
O3    4    0.708689    0.089362    0.455701    11.00000    0.06334    0.04110 =
         0.03760   -0.00138    0.00687   -0.00695
O4    4    0.895103    0.250000    0.614042    10.50000    0.04582    0.09504 =
         0.04741    0.00000   -0.01537    0.00000
N1    3    0.357222    0.250000    0.374246    10.50000    0.02909    0.04253 =
         0.01892    0.00000    0.00141    0.00000
N2    3    0.537412    0.250000   -0.143459    10.50000    0.03186    0.03522 =
         0.02543    0.00000    0.00801    0.00000
N3    3    0.774994    0.250000    0.511880    10.50000    0.03066    0.04422 =
         0.02536    0.00000    0.00633    0.00000
C1    1    0.314447    0.250000    0.202182    10.50000    0.02705    0.02825 =
         0.01892    0.00000    0.00186    0.00000
C2    1    0.147351    0.250000    0.134354    10.50000    0.02408    0.03496 =
         0.02539    0.00000    0.00309    0.00000
C3    1    0.112407    0.250000   -0.030488    10.50000    0.02243    0.05289 =
         0.02719    0.00000   -0.00210    0.00000
AFIX  43
H3    2    0.002018    0.250000   -0.079124    10.50000   -1.20000
AFIX   0
C4    1    0.238109    0.250000   -0.122945    10.50000    0.03172    0.04786 =
         0.01980    0.00000   -0.00029    0.00000
AFIX  43
H4    2    0.213289    0.250000   -0.232379    10.50000   -1.20000
AFIX   0
C5    1    0.401110    0.250000   -0.048662    10.50000    0.02578    0.02977 =
         0.02217    0.00000    0.00540    0.00000
C6    1    0.443292    0.250000    0.114477    10.50000    0.02271    0.02913 =
         0.02248    0.00000    0.00013    0.00000
AFIX  43
H6    2    0.553894    0.250000    0.162506    10.50000   -1.20000
AFIX   0
C7    1    0.010872    0.250000    0.234291    10.50000    0.02567    0.06433 =
         0.03318    0.00000    0.00834    0.00000
H1A   2    0.466078    0.250000    0.399999    10.50000    0.04752
H1B   2    0.321007    0.136612    0.418153    11.00000    0.05360
H7A   2   -0.088150    0.250000    0.181577    10.50000    0.07520
H7B   2    0.017625    0.136443    0.307478    11.00000    0.06673
HKLF 4




REM  v313_3_a.res in P2(1)/m
REM R1 =  0.0410 for    1078 Fo > 4sig(Fo)  and  0.0502 for all    1273 data
REM    102 parameters refined using      0 restraints

END

WGHT      0.0616      0.1128

REM Highest difference peak  0.269,  deepest hole -0.235,  1-sigma level  0.050
Q1    1   0.3751  0.2500  0.1582  10.50000  0.05    0.27
Q2    1   0.4231  0.2500  0.0334  10.50000  0.05    0.26
Q3    1   0.2354  0.2500  0.1701  10.50000  0.05    0.24
Q4    1   0.1296  0.2500  0.0577  10.50000  0.05    0.23
Q5    1   0.8034  0.0369  0.4900  11.00000  0.05    0.22
Q6    1   0.3189  0.2500 -0.0809  10.50000  0.05    0.21
Q7    1   0.4620  0.2500 -0.0907  10.50000  0.05    0.21
Q8    1   0.6607  0.0728  0.4979  11.00000  0.05    0.19
Q9    1   0.1818  0.2500 -0.0590  10.50000  0.05    0.19
Q10   1   0.0850  0.2500  0.1815  10.50000  0.05    0.17
Q11   1   0.3321  0.2500  0.2732  10.50000  0.05    0.14
Q12   1   0.7174 -0.0001  0.5326  11.00000  0.05    0.13
Q13   1  -0.0798  0.1524  0.1701  11.00000  0.05    0.12
Q14   1   0.8619  0.1178  0.6277  11.00000  0.05    0.12
Q15   1   0.7584  0.0284  0.3879  11.00000  0.05    0.11
Q16   1   0.5152  0.1742 -0.2407  11.00000  0.05    0.11
Q17   1   0.5095  0.2500  0.1360  10.50000  0.05    0.10
Q18   1   0.7981  0.0571  0.7477  11.00000  0.05    0.09
Q19   1   0.8799  0.0202  0.4475  11.00000  0.05    0.09
Q20   1   0.9272  0.0655  0.5543  11.00000  0.05    0.09
;
_shelx_res_checksum              44429
_shelx_hkl_file
;
   0   0  -1   -0.16    0.16
   0   0  -1    0.05    0.11
   0   0  -2  608.23    5.15
   0   0  -2  603.30    4.39
   0   0  -2  596.32    5.34
   0   0  -2  604.02    5.09
   0   0   2  599.09    5.20
   0   0   2  608.10    5.08
   0   0   2  591.93    5.34
   0   0  -2  618.33    5.23
   0   0   2  601.20    4.43
   0   0   2  593.06    4.34
   0   0   2  595.60    5.40
   0   0   2  604.46    5.23
   0   0   2  612.06    5.12
   0   0  -2  585.02    5.35
   0   0   2  589.61    5.09
   0   0  -2  591.85    4.37
   0   0  -2  583.53    5.01
   0   0  -3  482.62    5.93
   0   0  -3  482.04    4.86
   0   0   3  473.39    5.62
   0   0   3  481.43    5.58
   0   0   3  485.61    5.78
   0   0   3  495.17    4.90
   0   0   3  476.88    4.88
   0   0  -3  490.18    5.93
   0   0   3  479.17    5.72
   0   0  -3  487.22    5.67
   0   0   3  485.17    5.97
   0   0  -3  483.67    4.85
   0   0  -3  486.95    5.72
   0   0  -3  475.84    5.56
   0   0   3  484.92    6.02
   0   0  -3  492.86    5.61
   0   0   3  491.31    5.66
   0   0   4   81.74    2.89
   0   0  -4   82.83    2.89
   0   0   4   80.92    2.71
   0   0   4   79.17    2.67
   0   0  -4   82.10    2.70
   0   0  -4   79.05    2.32
   0   0   4   77.57    2.30
   0   0  -4   83.30    2.75
   0   0  -4   80.50    2.87
   0   0   4   77.63    2.32
   0   0   4   81.86    2.79
   0   0   4   80.09    2.83
   0   0  -4   81.29    2.76
   0   0  -4   79.21    2.69
   0   0  -4   74.30    2.25
   0   0   4   79.63    2.72
   0   0  -5   84.98    3.16
   0   0  -5   84.29    2.69
   0   0   5   84.31    3.20
   0   0  -5   84.49    3.08
   0   0  -5   85.75    3.24
   0   0   5   80.93    3.25
   0   0  -5   85.72    3.31
   0   0   5   79.39    3.04
   0   0   5   81.73    2.65
   0   0   5   82.45    2.68
   0   0   5   85.24    3.15
   0   0   5   85.28    3.32
   0   0   5   81.34    3.09
   0   0   5   80.64    3.28
   0   0  -5   84.61    3.32
   0   0  -5   83.71    2.67
   0   0   6   13.43    1.63
   0   0  -6   14.01    1.26
   0   0  -6   13.35    1.28
   0   0   6   12.89    1.77
   0   0   6   13.71    1.31
   0   0  -6   15.20    1.73
   0   0  -6   13.14    1.56
   0   0  -6   11.52    1.52
   0   0  -6   13.06    1.26
   0   0  -7    0.41    0.66
   0   0   7    0.91    1.12
   0   0   7    1.86    1.21
   0   0  -7    0.54    0.65
   0   0  -7    0.92    1.09
   0   0   7    1.12    0.81
   0   0  -7    0.19    1.16
   0   0  -7    1.16    0.76
   0   0  -7    0.67    0.94
   0   0  -8   31.90    2.20
   0   0  -8   31.15    2.62
   0   0   8   36.72    3.07
   0   0  -8   30.49    2.66
   0   0   8   36.75    2.37
   0   0  -8   34.15    2.70
   0   0   8   33.22    2.77
   0   0  -9    3.18    1.06
   0   0   9    1.57    1.30
   0   0   9    1.28    1.10
   0   0   9    3.80    1.09
   0   0  -9    1.88    0.97
   0   0  -9    2.89    1.29
   0   0  -9    1.03    0.99
   0   0 -10    2.87    1.43
   0   0 -10    1.89    0.84
   0   0  10    2.12    0.90
   0   0 -10    0.96    1.24
   0   0  10    1.49    1.23
   0   0 -10    0.51    1.07
   0   0  10    3.33    1.74
   0   0 -11    3.67    1.50
   0   0 -11    5.44    1.63
   0   0  11    2.08    1.25
   0   0  11    7.04    2.19
   0   0 -11    7.78    1.96
   0  -1   0    3.12    0.36
   0  -1   0    4.41    0.37
   0  -1   0    3.35    0.41
   0   1   0    3.31    0.37
   0   1   0    3.38    0.37
   0   1   0    4.49    0.51
   0   1   0    4.12    0.52
   0  -1   0    5.31    0.42
   0  -1   0    4.01    0.46
   0  -1   0    2.92    0.41
   0  -1   0    4.44    0.40
   0  -1  -1    0.42    0.41
   0   1  -1    0.48    0.29
   0  -1  -1   -0.02    0.30
   0  -1  -1    0.21    0.34
   0   1  -1   -0.05    0.22
   0   1   1    0.00    0.40
   0   1   1    0.00    0.29
   0  -1   1    0.24    0.30
   0   1   1   -0.25    0.46
   0   1   1    1.55    0.41
   0   1   1    0.58    0.43
   0   1  -1   -0.17    0.25
   0  -1  -1    0.08    0.30
   0   1  -1    0.04    0.43
   0   1   1    0.00    0.22
   0  -1  -1   -0.41    0.42
   0  -1  -1    0.38    0.45
   0   1   1   -0.08    0.20
   0   1   1   -0.04    0.34
   0  -1  -1    0.25    0.20
   0   1   1    0.35    0.26
   0   1  -1    0.23    0.31
   0  -1  -1    0.16    0.21
   0   1   1    0.21    0.33
   0  -1   1    0.11    0.42
   0   1   1    0.29    0.32
   0  -1   1   -0.03    0.25
   0   1   1   -0.48    0.52
   0  -1  -2  175.75    3.20
   0  -1   2  177.58    3.09
   0  -1  -2  177.46    3.17
   0  -1  -2  171.63    1.98
   0   1   2  172.26    3.23
   0   1   2  174.68    3.23
   0   1   2  172.90    3.12
   0  -1  -2  171.27    3.17
   0   1   2  177.26    2.02
   0   1   2  168.85    2.93
   0   1  -2  163.82    2.98
   0   1  -2  175.18    2.75
   0   1  -2  171.02    3.04
   0   1   2  175.82    3.14
   0  -1  -2  174.18    2.95
   0   1  -2  175.01    2.77
   0  -1   2  167.76    3.03
   0   1  -2  170.56    2.93
   0   1   2  174.49    3.12
   0   1   2  173.90    3.20
   0   1   2  177.33    2.91
   0   1   2  169.51    1.97
   0  -1   2  170.38    2.71
   0  -1  -2  174.97    3.12
   0  -1  -2  169.15    3.06
   0  -1   2  168.88    2.71
   0  -1  -2  178.10    3.27
   0  -1  -2  170.06    1.97
   0   1   2  170.13    2.74
   0  -1  -3  198.10    2.65
   0   1  -3  205.03    3.69
   0  -1  -3  201.17    3.54
   0  -1  -3  204.98    3.78
   0   1  -3  205.93    3.69
   0  -1   3  198.26    3.74
   0   1   3  201.80    4.06
   0   1   3  203.88    2.69
   0   1  -3  194.44    3.68
   0   1  -3  194.64    3.71
   0   1   3  201.43    4.06
   0  -1   3  192.30    3.49
   0   1  -3  191.09    3.61
   0   1   3  197.96    3.52
   0   1   3  192.45    3.69
   0   1  -3  197.57    3.90
   0  -1   3  200.26    3.37
   0  -1   3  189.04    3.66
   0  -1  -3  199.45    4.03
   0   1   3  198.89    3.99
   0   1   3  201.40    3.94
   0  -1   3  200.56    3.69
   0  -1  -3  199.61    3.88
   0  -1  -3  209.98    4.08
   0  -1   3  198.49    3.65
   0   1   3  202.17    3.82
   0  -1  -3  197.35    2.64
   0   1   3  198.91    4.05
   0  -1  -3  198.22    2.61
   0  -1  -3  201.13    4.00
   0  -1  -3  203.30    4.02
   0   1   3  208.66    4.10
   0   1  -4  967.99    4.70
   0   1  -4  973.76    9.49
   0   1  -4  985.68    9.80
   0  -1  -4  943.98    6.78
   0  -1  -4  978.16    9.01
   0  -1  -4  951.04    6.90
   0  -1  -4  988.73   10.27
   0  -1   4  947.22    9.07
   0   1   4  972.71    7.04
   0   1   4  974.81   10.04
   0   1   4  963.39    8.99
   0  -1  -4  965.87    9.39
   0   1  -4  986.28    9.21
   0   1   4  978.74   10.12
   0   1  -4 1001.97   10.09
   0  -1   4  961.86    9.09
   0  -1   4  966.46    9.51
   0  -1   4  958.24    8.82
   0  -1  -4  944.99    6.89
   0   1   4  941.51    5.43
   0   1   4  965.60   10.17
   0  -1   4  964.75    9.03
   0  -1  -4  997.66   10.01
   0   1   4  962.11   10.16
   0   1  -4  988.20    9.28
   0   1   4  970.69    9.44
   0  -1   4  965.56    9.47
   0   1   4  968.45    9.75
   0   1  -4  986.05    9.52
   0  -1  -4  975.72   10.21
   0  -1  -4  986.28    9.67
   0   1   4  986.51    9.79
   0   1   4  979.15   10.29
   0   1  -4 1004.57    9.29
   0  -1   5   49.35    2.33
   0  -1   5   45.24    2.28
   0   1   5   49.99    2.51
   0  -1  -5   47.84    1.79
   0   1  -5   51.07    2.51
   0   1  -5   47.85    2.28
   0  -1  -5   45.94    1.77
   0   1   5   45.45    1.79
   0   1   5   46.45    2.60
   0  -1  -5   48.46    2.31
   0  -1  -5   47.73    1.80
   0   1  -5   49.71    2.43
   0  -1   5   45.88    2.51
   0   1  -5   46.61    2.26
   0   1   5   46.12    2.48
   0  -1   5   50.12    2.46
   0  -1   5   45.21    2.24
   0   1  -5   45.34    2.39
   0   1  -5   45.79    2.49
   0  -1  -5   49.25    2.49
   0   1   5   44.64    1.12
   0  -1  -5   46.75    2.42
   0   1   5   44.90    2.25
   0   1   5   48.90    2.62
   0  -1   5   48.83    2.46
   0  -1  -5   47.74    2.61
   0  -1   5   47.68    2.32
   0  -1  -5   46.63    2.49
   0   1   5   45.50    2.43
   0  -1   5   48.95    2.50
   0   1   5   47.02    2.49
   0   1  -5   48.74    2.48
   0  -1   6    1.24    0.88
   0  -1  -6    0.10    0.53
   0   1  -6    0.45    0.73
   0  -1  -6    0.10    0.86
   0  -1  -6    0.47    0.51
   0   1  -6    0.00    0.92
   0   1   6    0.09    0.86
   0  -1   6    2.13    1.22
   0   1  -6   -0.02    0.60
   0  -1   6    0.31    0.89
   0  -1  -6    0.70    0.59
   0   1   6   -0.68    1.08
   0   1   6    0.48    0.63
   0  -1  -6    0.87    0.92
   0   1   6    1.76    1.04
   0   1  -6   -0.34    1.00
   0   1  -6   -0.17    1.00
   0  -1  -6    0.07    1.03
   0  -1  -6    0.23    1.00
   0  -1   6    0.44    0.62
   0  -1  -7    8.60    1.05
   0  -1   7    8.54    1.50
   0   1  -7    7.69    1.26
   0  -1  -7    7.02    0.98
   0  -1  -7    8.86    1.56
   0  -1  -7    7.39    1.39
   0  -1   7    6.44    1.18
   0   1   7    7.63    1.09
   0   1  -7    7.95    1.39
   0   1  -7    7.09    1.49
   0  -1  -7    4.98    1.35
   0   1   7    8.13    1.65
   0  -1  -7    8.21    1.58
   0   1   7    9.14    1.67
   0  -1   7    7.34    1.71
   0   1   7    8.95    1.51
   0   1  -7    6.10    1.37
   0  -1  -7    6.34    0.97
   0  -1  -8   98.37    4.47
   0  -1  -8   91.98    4.65
   0   1  -8   92.34    3.96
   0  -1   8   97.42    4.67
   0   1  -8   91.88    4.25
   0   1   8   90.86    3.35
   0  -1   8   92.93    4.02
   0   1   8   95.51    4.79
   0  -1  -8   90.02    3.34
   0  -1  -8   95.48    4.43
   0  -1  -8   96.07    3.36
   0   1   8   93.36    4.65
   0   1  -8   94.33    4.55
   0   1  -8   89.94    4.40
   0  -1   8   95.63    4.39
   0  -1   9   -0.91    1.20
   0   1  -9   -1.71    1.30
   0  -1  -9    0.50    0.95
   0  -1   9    1.12    0.93
   0   1   9    0.50    1.32
   0  -1  -9    0.68    0.97
   0   1  -9    0.26    0.76
   0   1  -9    2.94    1.37
   0   1   9   -1.04    1.39
   0  -1  -9   -0.35    0.67
   0  -1   9    1.13    1.40
   0   1  -9    0.41    0.88
   0   1   9   -0.13    0.61
   0  -1  -9   -0.05    1.23
   0  -1 -10    5.25    1.58
   0  -1 -10    4.52    1.65
   0   1 -10    4.45    1.61
   0   1 -10    3.96    1.38
   0  -1  10    8.13    2.10
   0   1 -10    8.17    1.91
   0  -1  10    4.26    1.28
   0   1  10    4.20    1.76
   0  -1 -10    4.88    1.48
   0   1  10    4.36    1.61
   0  -1  10    2.47    1.24
   0   1 -10    3.59    1.13
   0  -1 -11    1.50    1.33
   0  -1  11    0.92    1.24
   0  -1 -11    0.91    1.21
   0   1 -11    1.64    1.25
   0   1 -11    3.07    1.40
   0   1  11    5.63    2.15
   0   1 -11    1.82    1.45
   0  -2   0 9738.59   20.99
   0   2   0 9815.36   22.29
   0   2   0 9822.00   22.35
   0   2   0 9715.41   12.97
   0   2   0 9769.27   22.24
   0  -2   0 9724.31   22.14
   0   2   0 9920.83   25.26
   0  -2   0 9955.29   25.67
   0  -2   0 9999.00   25.19
   0  -2  -1 1067.28    6.49
   0   2  -1 1050.08    8.23
   0   2  -1 1042.10    6.28
   0  -2   1 1089.04    6.29
   0  -2  -1 1072.07    8.13
   0  -2  -1 1081.41    8.47
   0   2   1 1081.05    7.28
   0  -2  -1 1068.51    6.55
   0   2  -1 1061.11    4.13
   0   2  -1 1071.75    4.15
   0   2   1 1071.19    8.68
   0  -2   1 1077.56    6.67
   0  -2  -1 1060.66    7.18
   0  -2  -1 1088.80    6.46
   0  -2   1 1059.90    8.21
   0  -2   1 1073.86    8.25
   0   2   1 1058.86    6.53
   0   2   1 1076.82    8.68
   0   2   1 1066.74    7.96
   0  -2  -1 1053.71    8.48
   0   2   1 1078.02    8.19
   0   2   1 1075.54    6.44
   0  -2  -1 1060.73    7.90
   0   2   1 1068.13    6.44
   0   2  -1 1078.37    6.65
   0   2   1 1071.71    8.56
   0  -2  -1 1065.49    8.67
   0   2  -1 1097.79    8.37
   0  -2  -1 1074.51    6.62
   0  -2   2   19.51    0.92
   0   2  -2   18.41    0.88
   0   2   2   19.29    1.30
   0   2   2   20.73    1.31
   0   2   2   19.29    1.40
   0   2   2   17.65    1.18
   0   2  -2   17.85    1.28
   0   2   2   19.79    1.36
   0   2   2   17.22    1.36
   0  -2   2   20.10    1.37
   0   2  -2   20.82    1.35
   0  -2  -2   18.35    1.37
   0   2   2   18.06    0.85
   0   2   2   17.15    1.31
   0  -2  -2   18.53    1.19
   0   2  -2   19.78    0.90
   0   2   2   18.58    0.97
   0  -2  -2   18.07    1.31
   0   2   2   18.25    1.19
   0  -2  -2   19.56    0.85
   0  -2   2   18.28    1.27
   0  -2  -2   16.69    0.81
   0  -2  -2   20.79    1.23
   0   2   2   18.37    1.17
   0  -2  -2   18.32    0.84
   0  -2  -2   18.94    1.30
   0  -2   3    6.68    0.63
   0  -2  -3    7.10    1.05
   0  -2   3    8.48    0.92
   0   2   3    6.99    0.93
   0   2  -3    7.84    1.01
   0  -2   3    7.02    0.93
   0  -2   3    9.08    0.91
   0  -2   3    7.38    0.67
   0   2   3    7.27    1.09
   0  -2   3    7.91    1.03
   0   2   3    8.56    1.07
   0   2   3    7.51    0.59
   0   2  -3    6.70    0.74
   0   2   3   11.24    1.22
   0   2   3    7.77    1.00
   0   2   3    7.44    0.98
   0  -2  -3    6.84    0.85
   0  -2  -3    7.29    1.02
   0   2   3    8.62    1.07
   0  -2  -3    7.37    1.01
   0   2   3    6.57    0.80
   0   2   3    6.71    0.84
   0   2   3    8.78    0.96
   0   2  -3    7.31    0.99
   0  -2  -3    7.79    0.98
   0   2  -3    7.41    0.76
   0   2   3    6.88    1.00
   0  -2  -3    7.24    0.92
   0  -2  -3    7.01    0.55
   0   2   3    6.98    0.56
   0  -2  -3    7.41    0.58
   0   2   4  247.65    5.37
   0   2   4  241.91    5.49
   0  -2   4  237.35    5.17
   0  -2   4  225.93    5.06
   0  -2  -4  232.88    3.15
   0   2   4  239.07    5.42
   0   2  -4  248.30    5.25
   0   2  -4  239.37    4.54
   0   2  -4  239.22    4.92
   0  -2   4  239.28    4.58
   0   2  -4  232.99    5.11
   0  -2  -4  252.31    5.37
   0   2   4  236.67    5.35
   0   2   4  235.38    4.93
   0   2   4  236.99    5.45
   0   2  -4  245.32    4.60
   0  -2  -4  237.39    3.23
   0  -2  -4  243.49    5.38
   0   2   4  229.77    4.56
   0  -2   4  240.99    4.06
   0   2   4  247.83    4.94
   0   2   4  248.29    5.37
   0  -2  -4  254.43    5.37
   0   2   4  241.16    5.38
   0   2   4  236.83    3.29
   0  -2  -4  239.21    5.01
   0  -2   4  244.33    4.63
   0   2   4  243.12    5.33
   0   2  -5   21.77    1.75
   0   2  -5   20.97    1.67
   0  -2  -5   20.29    1.87
   0   2   5   22.25    1.71
   0  -2   5   17.93    1.64
   0  -2  -5   20.19    1.85
   0  -2   5   18.45    1.51
   0   2   5   18.62    1.08
   0  -2  -5   20.41    1.76
   0  -2   5   20.78    1.72
   0   2   5   16.67    1.80
   0   2   5   16.83    1.73
   0  -2  -5   19.49    1.08
   0  -2   5   19.99    1.47
   0   2  -5   19.59    1.68
   0   2  -5   19.89    1.06
   0   2   5   21.52    1.74
   0  -2  -5   18.59    1.05
   0  -2  -5   19.47    1.08
   0   2  -5   18.93    1.71
   0   2   5   23.26    2.06
   0  -2   5   22.37    1.75
   0   2   5   20.87    1.72
   0  -2  -6    2.30    1.10
   0   2  -6    2.21    0.42
   0   2   6    3.01    1.40
   0   2   6    2.11    1.00
   0  -2   6    3.05    1.32
   0  -2  -6    1.90    1.12
   0   2   6    1.58    0.51
   0   2  -6    2.23    1.21
   0  -2  -6    0.25    1.10
   0  -2  -6    1.92    0.54
   0   2  -6    0.90    0.98
   0  -2  -6    2.17    0.56
   0   2  -6    2.18    1.01
   0  -2  -6    2.32    0.54
   0   2   6    2.19    0.52
   0   2   6    0.49    1.19
   0   2  -6    0.92    0.90
   0  -2   6    3.02    0.94
   0  -2   6    1.47    0.97
   0  -2  -7    9.04    1.65
   0  -2   7    7.50    1.37
   0   2  -7    6.53    1.29
   0  -2  -7    7.48    1.40
   0   2   7    3.49    1.28
   0   2   7    6.42    1.41
   0  -2  -7    4.72    0.71
   0   2   7    6.85    0.64
   0  -2   7    4.17    1.14
   0  -2  -7    5.92    0.78
   0   2   7    6.50    0.89
   0   2   7    6.51    0.64
   0   2  -7    7.76    1.42
   0  -2  -7    6.21    0.79
   0   2  -7    7.42    1.38
   0   2   7    9.44    1.84
   0  -2   7    8.22    1.66
   0   2  -7    6.10    1.48
   0  -2  -7    7.10    1.44
   0   2  -8   76.15    4.03
   0   2   8   76.40    4.38
   0   2  -8   75.31    3.87
   0   2   8   74.56    4.34
   0  -2  -8   81.99    4.51
   0  -2   8   77.58    3.80
   0   2   8   73.49    3.76
   0  -2   8   74.31    3.87
   0  -2   8   75.38    4.11
   0  -2  -8   80.65    2.75
   0   2  -8   74.44    3.91
   0   2  -8   76.60    4.26
   0  -2  -8   77.75    4.07
   0  -2  -8   74.18    4.17
   0   2   8   78.96    2.81
   0   2  -9   19.14    2.43
   0  -2  -9   18.26    2.29
   0   2  -9   21.07    2.38
   0  -2  -9   21.65    2.53
   0  -2   9   17.19    2.11
   0   2   9   20.24    2.72
   0   2   9   15.95    2.29
   0   2  -9   18.36    2.28
   0  -2   9   21.27    2.28
   0   2  -9   21.18    2.23
   0   2   9   25.59    2.56
   0   2  10    2.89    1.76
   0   2 -10    1.41    1.16
   0  -2 -10    4.79    1.67
   0   2  10    4.85    1.80
   0   2  10    1.18    1.33
   0   2 -10    3.64    1.49
   0   2 -10    2.25    1.34
   0  -2  10    2.72    1.29
   0   2 -10    3.24    1.54
   0  -2  10    0.71    0.96
   0  -2 -10    2.72    1.23
   0   2 -11   25.19    2.86
   0   2 -11   20.82    2.80
   0  -2  11   22.15    2.66
   0   2 -11   24.08    3.09
   0  -2  11   21.32    2.61
   0   2 -11   25.41    2.77
   0  -2 -11   25.40    2.94
   0   3   0    0.36    0.73
   0  -3   0    0.01    0.45
   0  -3   0    0.28    0.32
   0  -3   0   -0.05    0.79
   0   3   0    0.37    0.21
   0  -3   0    0.03    0.53
   0  -3   0   -0.21    0.57
   0   3   0    0.19    0.20
   0   3   0    0.30    0.54
   0  -3   0    0.13    0.59
   0  -3   0    0.12    0.51
   0   3   0    0.14    0.42
   0  -3   0    1.01    0.59
   0   3   0   -0.11    0.58
   0   3   0    0.08    0.42
   0   3   0    0.08    0.81
   0  -3   1   70.13    1.43
   0   3   1   68.22    2.15
   0   3  -1   67.36    2.49
   0   3   1   66.23    2.37
   0  -3   1   65.74    1.98
   0   3  -1   67.82    2.54
   0   3   1   66.39    2.74
   0  -3   1   67.09    2.51
   0   3   1   67.21    1.79
   0  -3  -1   64.74    2.05
   0   3  -1   66.36    2.14
   0   3   1   68.62    2.53
   0  -3   1   68.29    2.70
   0  -3  -1   66.67    2.70
   0   3   1   64.53    2.10
   0   3  -1   64.47    2.01
   0  -3  -1   67.24    1.81
   0  -3  -1   67.44    2.48
   0  -3  -1   64.95    2.39
   0  -3   1   68.85    2.54
   0  -3  -1   64.68    2.09
   0  -3  -1   65.49    2.60
   0   3   1   64.32    2.10
   0  -3  -1   68.31    2.66
   0  -3   1   65.24    1.24
   0   3   1   61.67    1.11
   0   3   1   58.98    2.54
   0   3   1   67.82    1.79
   0   3   1   64.93    2.71
   0  -3   1   63.95    2.71
   0  -3  -1   66.06    2.12
   0  -3  -2   25.65    1.81
   0   3   2   25.09    1.87
   0   3   2   25.40    1.40
   0   3  -2   24.34    0.91
   0   3  -2   27.11    1.76
   0  -3   2   24.04    1.69
   0  -3   2   22.76    1.21
   0  -3  -2   26.01    1.77
   0   3   2   23.54    1.81
   0   3   2   23.55    1.60
   0   3  -2   24.92    0.91
   0   3   2   23.87    1.61
   0   3   2   24.81    1.40
   0   3   2   24.28    1.08
   0  -3  -2   23.20    1.20
   0  -3  -2   24.67    1.70
   0   3   2   23.12    1.20
   0   3  -2   23.48    1.27
   0  -3  -2   22.62    1.18
   0   3   2   25.02    1.68
   0   3  -2   25.73    1.73
   0  -3   2   25.32    1.69
   0  -3  -2   23.00    1.34
   0   3   2   24.68    1.81
   0  -3  -2   23.98    1.20
   0  -3  -2   23.77    1.51
   0   3   2   21.57    1.46
   0  -3   2   25.29    1.23
   0   3   3  491.63    7.66
   0   3   3  478.82    7.66
   0   3  -3  482.39    5.10
   0   3   3  490.72    5.87
   0  -3  -3  489.72    6.89
   0   3   3  493.12    7.79
   0   3   3  478.64    7.73
   0   3  -3  492.90    7.72
   0   3   3  484.51    6.86
   0  -3  -3  470.00    4.88
   0   3   3  479.60    7.28
   0   3   3  470.98    4.94
   0  -3  -3  481.92    7.78
   0  -3  -3  485.06    4.95
   0  -3   3  480.14    4.01
   0  -3  -3  494.28    7.67
   0   3   3  488.14    7.94
   0  -3  -3  491.78    7.31
   0   3  -3  493.52    5.17
   0   3   3  493.95    7.94
   0   3   3  476.89    6.81
   0  -3  -3  476.74    4.96
   0  -3   3  477.30    5.25
   0  -3   3  489.27    7.73
   0   3  -3  481.13    7.63
   0  -3   3  484.10    5.41
   0   3   3  485.33    7.22
   0  -3   3  493.08    7.77
   0  -3  -4   30.10    2.09
   0  -3  -4   29.07    2.17
   0   3   4   28.51    1.93
   0  -3  -4   29.43    1.23
   0  -3   4   30.45    1.86
   0   3   4   31.15    1.81
   0   3  -4   29.39    1.60
   0   3   4   29.00    1.80
   0  -3   4   32.22    2.19
   0   3   4   31.19    2.09
   0   3   4   30.77    2.36
   0  -3  -4   28.82    1.20
   0   3   4   28.72    2.12
   0  -3   4   24.85    1.29
   0  -3  -4   30.00    2.28
   0   3   4   29.44    1.23
   0   3  -4   30.85    2.18
   0   3   4   27.67    2.21
   0  -3  -4   31.06    1.26
   0   3  -4   30.30    1.63
   0  -3   4   31.55    1.35
   0   3   4   30.83    2.03
   0  -3  -5  262.29    3.66
   0  -3   5  262.64    4.31
   0   3  -5  274.29    5.43
   0   3   5  256.87    5.60
   0   3   5  265.50    6.43
   0  -3   5  265.09    4.58
   0  -3  -5  261.82    6.12
   0  -3  -5  279.10    6.74
   0   3  -5  264.73    6.11
   0  -3  -5  264.30    3.66
   0   3   5  275.98    3.84
   0  -3   5  258.35    6.42
   0  -3  -5  284.24    6.59
   0   3   5  268.65    6.73
   0   3  -5  273.31    6.58
   0   3   5  260.88    6.75
   0   3   5  261.40    6.56
   0   3  -5  273.71    5.42
   0  -3  -5  265.58    6.71
   0   3   5  277.81    5.99
   0  -3  -6   91.85    4.15
   0   3   6   95.84    2.41
   0  -3  -6   93.68    4.28
   0  -3  -6   88.72    2.24
   0   3  -6   91.81    4.15
   0  -3  -6   99.38    4.13
   0   3   6   91.17    3.67
   0   3  -6   95.44    3.63
   0   3   6   93.94    4.33
   0  -3  -6   95.79    2.30
   0  -3   6   96.20    3.22
   0  -3   6   93.55    2.82
   0   3  -6   94.86    2.83
   0   3  -6   94.12    3.91
   0   3   6   92.36    4.23
   0  -3   6   89.51    4.09
   0  -3  -6   92.59    2.26
   0   3   6   88.56    4.29
   0   3   7   91.44    4.64
   0  -3  -7   87.94    4.47
   0   3  -7  100.79    4.12
   0  -3   7   98.70    3.63
   0  -3  -7   91.18    4.23
   0   3  -7   90.48    4.58
   0   3   7   92.67    2.49
   0   3   7   94.91    4.64
   0  -3   7   94.98    4.44
   0   3  -7   95.10    4.20
   0   3   7   87.62    3.87
   0  -3  -7   94.12    2.39
   0   3   7   97.46    4.84
   0   3  -7   96.02    4.41
   0   3  -7   95.51    2.60
   0  -3  -7   90.84    4.53
   0  -3  -7   91.03    2.40
   0  -3  -8   11.85    1.93
   0  -3   8   13.14    1.91
   0   3  -8   13.53    2.09
   0   3   8   14.08    2.30
   0   3   8   11.87    1.70
   0  -3   8   10.31    1.35
   0  -3  -8   12.66    2.06
   0  -3  -8   12.83    1.97
   0   3  -8   19.09    2.20
   0   3  -8   15.32    1.92
   0   3   8   13.40    2.24
   0   3   8   14.70    2.26
   0   3  -8   13.72    1.94
   0  -3   9    7.17    1.37
   0   3  -9    8.37    1.66
   0   3  -9   10.19    1.95
   0   3   9   10.51    2.08
   0  -3  -9    9.20    1.83
   0   3  -9    7.24    1.59
   0   3   9   12.51    1.85
   0  -3  -9    8.46    1.70
   0  -3  -9   10.93    2.06
   0  -3   9    9.38    1.78
   0   3  -9    7.91    1.55
   0   3   9    8.34    1.97
   0   3   9   10.30    2.14
   0  -3  10    4.26    1.48
   0   3  10    6.18    1.56
   0   3 -10    6.00    1.70
   0   3 -10    4.79    1.56
   0  -3 -10    8.64    1.90
   0   3 -10    7.67    1.79
   0   3 -10    6.29    1.63
   0  -3 -10    9.48    2.29
   0   3  10    4.33    1.81
   0   3  10    3.41    1.45
   0   3  10    6.86    2.19
   0   3 -11   -0.39    1.17
   0  -3 -11    0.69    1.18
   0   3 -11    1.07    1.19
   0  -3  11    0.38    1.04
   0   3 -11   -1.60    1.21
   0  -4   0 1866.96   15.68
   0  -4   0 1850.33   13.93
   0  -4   0 1848.59   13.94
   0   4   0 1809.38   15.92
   0   4   0 1844.72   14.06
   0   4   0 1842.02   13.86
   0  -4   0 1847.95   15.95
   0  -4   0 1852.67   12.98
   0   4   0 1826.77   13.87
   0   4   0 1821.01   13.08
   0  -4   0 1795.42    9.92
   0  -4   0 1814.45   13.60
   0   4   1  350.79    5.76
   0  -4  -1  371.95    5.86
   0  -4   1  361.62    7.06
   0   4   1  362.55    4.35
   0   4  -1  364.47    6.60
   0  -4  -1  365.48    5.37
   0  -4  -1  370.93    5.89
   0  -4  -1  367.15    6.28
   0  -4   1  345.85    2.69
   0   4   1  354.24    5.35
   0  -4   1  363.73    5.42
   0   4  -1  348.12    5.41
   0   4   1  370.67    5.89
   0  -4   1  364.77    6.62
   0  -4  -1  366.79    6.49
   0   4   1  344.62    7.07
   0   4   1  373.09    6.37
   0   4   1  365.15    7.18
   0   4  -1  360.64    5.85
   0  -4   1  359.20    3.44
   0   4   1  363.00    6.66
   0  -4   1  366.39    6.60
   0   4   1  371.29    4.41
   0   4  -1  368.17    6.61
   0  -4  -1  368.91    7.16
   0  -4   1  360.38    7.29
   0  -4   1  357.07    5.90
   0  -4  -2    8.94    1.28
   0  -4   2    8.50    1.59
   0   4   2    6.76    1.35
   0   4  -2    9.81    1.37
   0   4  -2    7.40    0.43
   0  -4   2    8.26    0.91
   0   4   2    9.23    1.62
   0  -4   2    8.27    0.71
   0   4   2    9.42    1.02
   0  -4  -2    7.91    0.95
   0   4   2    7.58    1.27
   0   4   2    7.84    0.61
   0  -4  -2    8.11    0.95
   0  -4  -2    7.51    1.01
   0  -4  -2    8.99    0.95
   0   4  -2    7.19    0.41
   0  -4  -2    9.13    1.02
   0  -4   2    7.04    1.23
   0   4   2    7.76    0.91
   0   4   2    7.63    0.88
   0   4  -2    9.53    1.10
   0   4   2    7.81    1.14
   0   4   2    5.82    1.06
   0  -4  -2    7.96    1.35
   0   4  -3    6.84    0.64
   0  -4  -3    5.19    0.75
   0  -4   3    7.33    0.91
   0   4   3    6.20    0.97
   0  -4  -3    5.28    1.11
   0  -4   3    7.97    1.48
   0   4   3    5.91    0.79
   0  -4  -3    6.65    0.82
   0  -4  -3    6.18    0.79
   0   4   3    6.05    1.14
   0   4   3    6.53    0.79
   0  -4  -3    5.77    1.27
   0   4  -3    5.54    1.21
   0   4   3    4.53    0.82
   0  -4  -3    7.13    1.09
   0   4   3    5.47    1.37
   0   4   3    6.46    1.42
   0   4  -3    5.79    0.58
   0  -4   3    6.77    0.86
   0  -4  -3    7.88    1.12
   0  -4   4   79.24    2.95
   0  -4   4   82.19    1.71
   0   4   4   80.99    2.84
   0   4  -4   80.17    2.45
   0   4   4   80.32    2.34
   0  -4  -4   81.97    2.32
   0  -4  -4   82.89    3.78
   0   4   4   84.75    3.67
   0   4  -4   83.79    3.85
   0  -4   4   79.86    3.80
   0  -4  -4   84.90    3.42
   0   4  -4   83.59    2.48
   0  -4   4   78.64    2.46
   0  -4  -4   85.19    3.97
   0   4   4   82.26    3.42
   0  -4  -4   80.48    2.32
   0  -4   4   82.84    2.57
   0  -4  -4   86.87    2.38
   0   4   4   80.71    3.97
   0   4   4   83.52    3.96
   0  -4  -5    5.66    1.21
   0   4   5    6.20    1.50
   0  -4   5    7.72    0.78
   0   4   5    7.32    1.58
   0  -4  -5    6.66    1.44
   0   4   5    6.67    0.74
   0  -4  -5    5.53    1.42
   0   4   5    5.97    1.14
   0  -4   5    6.82    0.83
   0   4  -5    6.41    0.95
   0  -4   5    8.09    1.46
   0   4   5    7.72    1.15
   0  -4   5    6.64    1.03
   0   4  -5    7.37    1.01
   0  -4  -5    6.78    0.71
   0   4   5    8.49    1.88
   0   4   5    8.04    1.52
   0   4  -5    6.90    1.51
   0  -4  -5    7.17    0.72
   0  -4  -5    7.60    0.75
   0  -4  -6    1.09    0.99
   0  -4  -6    0.40    0.33
   0  -4  -6    0.21    0.27
   0  -4   6    1.58    0.84
   0   4   6    0.26    1.15
   0   4   6    1.70    1.29
   0  -4   6   -0.33    0.54
   0   4  -6    3.13    1.13
   0   4  -6    0.37    0.60
   0   4  -6    0.48    0.71
   0   4  -6   -0.52    0.99
   0   4   6    0.59    1.13
   0   4  -6    0.73    0.66
   0  -4  -6    0.49    0.32
   0   4   6    0.34    0.80
   0  -4   6    0.22    1.07
   0   4   6    0.87    1.04
   0  -4  -6    0.38    0.89
   0  -4   7    5.28    1.44
   0   4   7    4.77    1.41
   0   4   7    4.64    1.56
   0  -4  -7    7.50    1.52
   0  -4  -7    7.31    1.74
   0   4   7    6.20    1.30
   0  -4   7    3.09    0.78
   0   4   7    6.90    1.86
   0   4  -7    4.98    1.33
   0   4  -7    4.95    1.41
   0   4   7    3.00    1.37
   0   4  -7    5.06    1.09
   0   4  -7    5.70    0.94
   0   4   8   45.76    3.80
   0  -4   8   46.89    3.57
   0   4  -8   50.12    3.86
   0   4  -8   50.55    3.16
   0  -4  -8   47.39    3.73
   0   4   8   52.09    3.96
   0   4  -8   44.40    3.26
   0   4   8   44.67    3.61
   0   4   8   49.38    3.87
   0   4  -8   46.71    3.58
   0   4   8   47.47    3.20
   0  -4  -8   52.38    3.82
   0   4   9    7.70    1.85
   0  -4  -9   10.01    2.06
   0   4  -9    9.21    1.67
   0   4  -9    8.13    2.00
   0   4  -9    7.37    1.66
   0   4   9    7.20    1.57
   0   4   9    8.86    2.16
   0  -4  -9   10.10    2.12
   0  -4   9   12.17    2.21
   0   4   9   11.65    2.21
   0   4   9    8.60    2.13
   0   4  -9   11.14    1.99
   0   4 -10    0.05    1.02
   0   4 -10    1.72    1.22
   0  -4  10    5.13    1.61
   0   4  10    4.17    1.92
   0  -4 -10    4.32    1.78
   0   5   0   -0.47    0.87
   0  -5   0    0.56    0.46
   0  -5   0   -1.13    0.93
   0   5   0    0.15    0.78
   0  -5   0    0.08    0.74
   0   5   0    0.19    0.18
   0   5   0    0.28    0.92
   0  -5   0   -0.15    0.72
   0   5   0   -0.08    0.18
   0   5   1    2.62    1.59
   0   5  -1    0.05    0.87
   0  -5  -1   -0.18    1.07
   0  -5  -1    1.24    0.74
   0   5   1    0.28    0.77
   0   5  -1    1.04    0.82
   0  -5  -1    0.43    0.61
   0   5  -1    3.22    1.10
   0   5   1    1.25    1.02
   0  -5  -1    1.03    0.75
   0  -5  -1    0.80    0.90
   0   5   1   -0.03    0.51
   0  -5   1    0.67    0.75
   0  -5   1    0.39    0.91
   0  -5  -1    0.93    0.51
   0  -5  -1    0.34    0.87
   0  -5   1    0.41    0.92
   0   5   1    0.37    0.42
   0  -5   1   -1.47    1.39
   0  -5  -2    4.83    0.94
   0  -5   2    5.32    0.61
   0   5   2    5.29    0.83
   0  -5  -2    5.18    0.96
   0   5   2    6.91    1.09
   0   5   2    4.27    0.77
   0  -5   2    3.79    1.59
   0   5  -2    8.29    1.44
   0   5  -2    6.40    1.13
   0  -5  -2    6.12    0.99
   0  -5  -2    6.41    1.33
   0  -5   2    7.56    1.45
   0   5   2    3.96    1.34
   0  -5  -2    5.40    1.33
   0  -5   2    6.51    0.99
   0   5   2    7.69    1.27
   0  -5   2    5.70    0.58
   0  -5   2    5.98    1.29
   0   5   2    4.30    1.16
   0  -5  -3   23.71    1.59
   0   5  -3   23.53    2.24
   0   5   3   21.83    1.58
   0   5   3   24.49    1.77
   0  -5   3   24.11    2.66
   0  -5  -3   22.32    1.71
   0  -5  -3   19.93    2.23
   0  -5  -3   23.73    1.58
   0  -5   3   23.14    1.42
   0   5   3   23.51    2.15
   0  -5  -3   23.83    1.62
   0  -5   3   22.84    2.14
   0   5   3   24.24    2.59
   0  -5  -3   22.86    2.15
   0   5  -3   18.32    0.62
   0   5   3   24.00    1.73
   0   5   3   22.27    1.19
   0   5   3   20.37    2.30
   0  -5   3   22.45    1.52
   0   5   4   64.66    3.12
   0   5  -4   66.05    3.75
   0   5   4   67.47    3.92
   0  -5  -4   65.93    3.12
   0  -5  -4   63.68    2.38
   0  -5  -4   60.47    3.48
   0   5   4   65.72    3.97
   0  -5  -4   62.56    2.33
   0   5  -4   66.58    1.89
   0   5   4   62.94    2.40
   0  -5  -4   63.77    3.74
   0  -5   4   62.86    3.66
   0  -5   4   63.38    2.65
   0   5   4   60.04    2.35
   0  -5  -4   69.18    2.44
   0   5   4   66.61    3.53
   0  -5   4   66.11    2.45
   0  -5  -5    9.98    0.89
   0   5   5   12.22    1.88
   0   5  -5   10.69    1.76
   0  -5   5   12.38    1.95
   0   5  -5   10.85    1.04
   0   5   5    9.98    1.49
   0  -5  -5   10.79    1.80
   0  -5  -5   10.41    1.84
   0   5   5    9.33    1.74
   0   5   5   12.75    1.05
   0   5   5   10.03    1.38
   0  -5  -5   12.03    1.62
   0  -5   5   10.82    1.12
   0   5   5    9.61    1.87
   0   5   6   -0.58    0.74
   0   5  -6    0.01    0.57
   0   5  -6    1.16    0.87
   0   5   6    0.01    1.37
   0   5  -6    0.91    1.26
   0   5   6    0.98    1.08
   0  -5   6   -0.10    0.54
   0   5  -6    1.47    1.29
   0   5   6    1.12    1.08
   0  -5  -6    1.24    1.00
   0  -5  -6    0.35    0.90
   0   5   6    1.74    1.37
   0  -5   6   -0.73    0.96
   0  -5  -6   -1.39    1.20
   0  -5  -7   11.87    1.90
   0  -5  -7   10.61    1.93
   0  -5   7   12.73    2.10
   0   5   7   15.06    2.31
   0   5   7   11.18    1.67
   0   5   7   11.32    1.92
   0   5  -7    9.19    1.88
   0   5  -7   12.74    1.99
   0   5   7   11.63    2.22
   0   5  -7    9.35    1.36
   0   5   7    7.38    1.73
   0   5   8   27.58    3.25
   0   5   8   25.06    3.04
   0   5   8   25.08    2.99
   0   5  -8   24.02    2.68
   0   5  -8   26.65    2.97
   0   5  -8   29.40    3.26
   0   5   8   21.78    2.28
   0  -5  -8   26.03    2.99
   0  -5   8   23.61    2.83
   0   5   8   27.39    2.97
   0  -5  -8   30.13    3.16
   0   5  -9    1.91    1.30
   0  -5   9    0.76    1.24
   0   5   9    1.83    1.61
   0   5   9    1.99    1.70
   0  -5  -9    2.76    1.49
   0   5   9    4.16    1.77
   0   5  -9    1.50    1.24
   0   5  -9    2.26    1.64
   0   5   9    2.86    1.72
   0   5 -10    2.86    1.41
   0  -6   0  705.10   10.02
   0  -6   0  700.32   10.77
   0   6   0  702.24   10.81
   0   6   0  687.36   10.86
   0  -6   0  703.42   12.48
   0  -6   0  702.74   10.67
   0   6   1    3.88    1.60
   0   6  -1    5.21    1.27
   0   6   1    3.19    1.12
   0  -6   1    2.13    0.93
   0  -6   1    1.21    1.22
   0   6   1    3.61    1.04
   0  -6   1    2.00    0.94
   0   6   1    3.37    0.51
   0  -6   1    3.40    0.90
   0   6  -1    4.94    1.26
   0  -6  -1    6.13    1.63
   0   6   1    2.72    0.50
   0  -6  -1    2.84    1.12
   0  -6  -1    3.25    0.93
   0  -6  -2   28.47    2.45
   0   6   2   29.43    2.94
   0  -6  -2   27.84    2.07
   0  -6   2   24.79    2.36
   0  -6   2   30.13    2.91
   0   6   2   26.37    1.55
   0   6   2   27.73    2.08
   0  -6  -2   26.40    2.58
   0   6  -2   27.03    2.51
   0  -6   2   25.29    2.07
   0   6   2   23.41    2.36
   0  -6   2   27.77    1.88
   0   6  -2   26.26    2.04
   0   6  -3   46.41    3.32
   0  -6   3   47.10    3.32
   0   6   3   42.24    3.21
   0  -6  -3   50.18    2.51
   0   6   3   44.27    2.43
   0   6   3   45.44    3.43
   0  -6   3   48.27    3.65
   0  -6  -3   50.44    3.57
   0   6   3   48.24    2.43
   0  -6   3   47.65    2.77
   0  -6   3   46.99    2.28
   0   6   3   51.37    3.90
   0  -6   3   46.34    1.74
   0   6  -3   48.12    2.59
   0  -6  -3   46.52    3.15
   0   6   4    4.67    1.11
   0  -6  -4    3.94    1.52
   0   6  -4    4.19    1.43
   0   6   4    4.04    0.87
   0  -6   4    6.03    0.99
   0  -6   4    7.56    1.62
   0  -6  -4    6.38    1.27
   0   6   4    5.41    1.64
   0   6   4    9.76    2.17
   0   6   4    3.35    1.19
   0  -6  -4    6.46    1.59
   0  -6  -4    4.54    0.82
   0  -6   4    3.74    0.82
   0  -6   4    7.35    1.99
   0  -6  -5    3.17    1.34
   0  -6  -5    5.22    1.26
   0  -6   5    4.46    1.71
   0   6   5    3.92    1.15
   0   6   5    5.18    1.47
   0   6   5    4.38    1.50
   0  -6   5    4.71    1.33
   0  -6  -5    3.21    1.34
   0   6   5    1.27    1.33
   0   6  -5    4.54    1.37
   0  -6  -6    0.75    0.83
   0   6   6    1.16    1.49
   0   6  -6    0.48    0.81
   0   6   6   -0.17    0.91
   0   6   6   -1.15    1.46
   0   6   6   -0.37    0.96
   0  -6  -6    0.08    1.11
   0   6   6    1.31    1.26
   0  -6   6    1.87    1.43
   0   6  -6    2.67    1.48
   0  -6  -6    0.45    1.17
   0   6  -7    0.79    1.31
   0   6  -7    0.22    1.31
   0  -6  -7    1.91    1.28
   0   6   7    1.87    1.55
   0   6   7    0.25    0.81
   0  -6  -7    0.52    1.08
   0   6   7    0.96    1.53
   0   6   7    0.64    1.13
   0  -6   7   -0.29    1.01
   0   6   7    1.62    1.52
   0   6  -7   -0.10    0.72
   0   6   8    8.73    2.03
   0  -6   8    5.03    1.61
   0  -6  -8    6.37    1.79
   0   6  -8    5.89    1.69
   0   6   8    6.77    2.09
   0   6   8    8.25    2.34
   0  -6  -8    7.54    1.86
   0   6   9    0.23    1.27
   0  -6  -9   -2.35    1.50
   0   6  -9    0.44    1.23
   0   7   0    0.31    0.97
   0  -7   0    0.16    1.32
   0   7   0    0.35    0.90
   0  -7   0   -0.06    0.85
   0  -7   0   -0.47    0.87
   0   7  -1    6.23    1.45
   0  -7   1    4.75    1.18
   0   7  -1    4.89    1.32
   0  -7   1    5.85    1.42
   0  -7  -1    3.37    1.09
   0  -7  -1    4.80    1.57
   0  -7   1    5.40    1.40
   0   7   1    6.01    1.30
   0   7   1    5.03    1.46
   0  -7  -1    4.13    1.24
   0  -7   1    9.90    2.03
   0  -7   2    4.91    1.44
   0   7  -2    4.41    1.28
   0   7   2    1.85    1.23
   0   7   2    5.12    1.19
   0  -7  -2    5.91    1.26
   0   7  -2    5.48    1.48
   0  -7  -2    4.58    1.65
   0  -7   2    0.17    1.54
   0   7   2    3.07    1.85
   0  -7  -2    4.26    1.29
   0  -7   2    2.66    0.94
   0  -7   2    4.69    1.04
   0  -7  -3    0.13    1.31
   0   7   3    2.27    1.39
   0   7   3   -0.39    1.24
   0   7  -3    2.54    1.09
   0  -7   3    3.35    1.13
   0  -7  -3    0.55    0.66
   0  -7  -3    1.67    1.09
   0   7   3    2.96    1.02
   0  -7   3   -1.07    1.60
   0  -7   3    1.88    1.33
   0   7  -3    3.10    1.05
   0  -7  -4   21.73    2.74
   0   7   4   22.27    2.74
   0  -7  -4   21.02    2.47
   0   7   4   28.10    3.34
   0  -7   4   20.11    2.58
   0   7  -4   23.69    2.74
   0  -7   4   21.45    2.17
   0  -7   4   19.71    2.78
   0   7   4   21.21    2.81
   0   7  -5    2.43    1.49
   0  -7  -5    1.81    1.23
   0  -7   5    1.38    1.11
   0   7   5    3.19    2.00
   0   7   5    0.84    1.67
   0   7   5   -0.04    1.32
   0  -7  -5    0.68    1.27
   0  -7   5    3.60    1.78
   0   7  -6   -0.15    1.20
   0  -7  -6    2.09    1.34
   0   7  -6    0.40    1.06
   0  -7   6    1.22    1.20
   0   7   6    2.03    1.47
   0   7   6    0.18    1.36
   0   7   6    2.27    1.91
   0  -7  -6    1.62    1.50
   0  -7   6    5.72    2.29
   0   7   6    1.94    1.43
   0   7   7    5.11    1.88
   0   7  -7    6.46    1.89
   0  -8   0   87.91    5.41
   0   8   0   82.65    4.57
   0  -8   0   85.11    4.50
   0  -8   0   83.49    4.56
   0   8   0   80.74    4.53
   0   8  -1   11.41    1.98
   0   8   1   12.95    2.17
   0  -8   1   15.75    2.19
   0   8   1   13.69    1.89
   0   8  -1   14.26    2.06
   0  -8  -1   13.58    1.87
   0  -8   1   11.71    2.31
   0  -8   1   15.83    2.05
   0  -8  -1   10.61    2.14
   0  -8  -1   12.76    1.85
   0   8   2    2.54    1.52
   0  -8   2    0.57    0.98
   0  -8  -2   -1.12    1.11
   0  -8   2    0.78    1.18
   0   8  -2    0.29    1.00
   0  -8  -2    1.03    1.24
   0  -8  -2   -0.25    0.74
   0  -8   2    0.82    1.35
   0  -8  -3    3.98    1.61
   0   8   3    7.36    2.06
   0  -8   3    4.14    1.51
   0  -8  -3    2.49    1.31
   0   8  -3    6.01    1.59
   0  -8   3    0.80    1.69
   0   8   4    9.41    2.55
   0  -8  -4    9.38    2.18
   0  -8   4    7.85    1.94
   0  -8  -4    6.60    1.81
   0   8  -4    5.42    1.72
   0  -8   4    4.29    1.73
   0   8   4    3.71    1.53
   0  -8  -5   -1.14    1.03
   0   8  -6   -0.12    1.19
   0   9   0    0.86    1.32
   0  -9   0    0.55    1.02
   0   9   0    1.43    1.25
   0   9  -1    2.18    1.43
   0   9   1    2.10    1.41
   0  -9   1    1.63    1.30
   0  -9  -2   -0.75    1.27
   0  -9   2    0.08    1.22
   0   9   2    1.31    1.41
   0   9  -2   -0.03    1.14
   0  -9  -3    4.96    1.61
   1   0 -11    3.42    1.45
  -1   0  11   -0.99    1.67
   1   0 -11    3.04    1.55
   1   0 -11   -0.22    1.31
  -1   0  11    2.96    1.85
   1   0 -10   19.33    2.54
   1   0 -10   20.24    2.43
  -1   0  10   20.82    2.67
   1   0 -10   17.78    2.49
  -1   0  10   19.60    2.72
  -1   0   9    1.56    1.25
  -1   0   9    0.83    1.26
   1   0  -9   -0.53    0.90
  -1   0   9    0.18    0.62
   1   0  -9    0.52    1.12
   1   0  -9    1.23    0.71
   1   0  -9    1.39    1.00
  -1   0   8    7.40    1.62
   1   0  -8    8.09    1.49
   1   0  -8    7.42    1.08
   1   0  -8    7.35    1.57
   1   0  -8    8.10    1.65
  -1   0   8    8.93    1.22
  -1   0   8    8.32    1.56
   1   0  -7  194.27    5.99
   1   0  -7  193.49    5.82
   1   0  -7  200.59    4.67
  -1   0   7  194.19    4.64
  -1   0   7  196.62    5.97
   1   0  -7  194.73    5.96
  -1   0   7  185.43    4.54
  -1   0   7  191.39    5.84
   1   0  -7  197.98    4.62
  -1   0   7  198.50    6.15
  -1   0   6  152.03    4.79
  -1   0   6  156.39    4.84
  -1   0   6  156.04    3.78
   1   0  -6  159.99    3.82
  -1   0   6  159.85    3.84
   1   0  -6  163.74    4.91
  -1   0   6  162.31    4.48
   1   0  -6  167.55    5.07
   1   0  -6  161.11    4.95
   1   0  -6  157.57    3.79
  -1   0   6  149.92    4.86
   1   0  -5   13.36    1.39
  -1   0   5   12.98    1.39
  -1   0   5   14.77    1.52
  -1   0   5   14.32    1.49
   1   0  -5   12.81    1.03
  -1   0   5   14.41    1.44
  -1   0   5   12.69    1.04
   1   0  -5   13.09    1.42
  -1   0   5   13.48    1.27
   1   0  -5   15.13    1.57
  -1   0   5   12.82    1.08
   1   0  -5   13.95    1.10
  -1   0   5   14.65    1.46
  -1   0   5   16.60    1.59
  -1   0   5   16.86    1.62
  -1   0   5   13.99    1.38
   1   0  -5   15.91    1.57
   1   0  -4  163.29    4.02
  -1   0   4  166.70    4.11
  -1   0   4  162.24    3.96
  -1   0   4  161.92    3.97
   1   0  -4  166.08    4.02
  -1   0   4  157.82    3.47
  -1   0   4  157.33    3.00
  -1   0   4  165.35    4.02
  -1   0   4  166.62    4.07
   1   0  -4  160.12    3.03
   1   0  -4  163.99    3.92
  -1   0   4  158.70    3.99
  -1   0   4  156.57    2.99
   1   0  -4  163.99    3.06
   1   0  -4  158.65    4.02
  -1   0   4  160.83    4.06
   1   0  -3   21.80    1.40
  -1   0   3   22.43    1.40
   1   0  -3   22.51    1.34
  -1   0   3   21.19    1.33
  -1   0   3   22.25    1.16
   1   0  -3   21.59    1.40
  -1   0   3   24.61    1.44
  -1   0   3   23.09    1.42
  -1   0   3   22.08    1.00
  -1   0   3   22.67    1.40
  -1   0   3   23.39    1.43
   1   0  -3   22.68    1.40
   1   0  -3   23.28    1.04
  -1   0   3   20.78    0.97
   1   0  -3   20.97    1.35
   1   0  -3   21.42    0.63
  -1   0   3   22.15    0.65
  -1   0   3   23.54    1.42
   1   0  -3   22.40    1.02
   1   0  -2    8.80    0.73
   1   0  -2    8.12    0.80
  -1   0   2    8.32    0.59
   1   0  -2    8.45    0.87
  -1   0   2    8.59    0.79
   1   0  -2    9.25    0.95
  -1   0   2    9.36    0.90
   1   0  -2    7.95    0.84
   1   0  -2    8.13    0.48
  -1   0   2    9.10    0.79
  -1   0   2    8.12    0.68
  -1   0   2    9.37    0.53
   1   0  -2   10.57    0.97
   1   0  -2    8.56    0.60
  -1   0   2    9.31    0.86
   1   0  -2    7.98    0.58
  -1   0   2    7.84    0.59
  -1   0   2    8.92    0.88
  -1   0   1  132.09    2.11
  -1   0   1  140.54    2.07
   1   0  -1  127.14    1.98
  -1   0   1  121.29    1.67
   1   0  -1  132.00    1.94
   1   0  -1  119.36    1.66
  -1   0   0    7.28    0.55
   1   0   0    0.12    0.20
   1   0   1  735.51    3.44
   1   0   1  721.20    5.09
   1   0   1  742.20    5.15
  -1   0  -1  734.14    3.40
  -1   0  -1  731.24    5.08
  -1   0  -1  715.96    4.40
   1   0   1  720.94    4.30
  -1   0  -1  741.11    4.31
  -1   0  -1  732.94    5.11
  -1   0  -2   24.77    1.23
  -1   0  -2   25.12    1.16
  -1   0  -2   22.74    0.85
   1   0   2   23.03    1.24
  -1   0  -2   23.10    1.29
  -1   0  -2   21.69    1.06
  -1   0  -2   23.26    0.98
  -1   0  -2   24.06    1.10
   1   0   2   24.74    1.21
  -1   0  -2   24.84    1.38
  -1   0  -2   23.03    1.13
   1   0   2   23.15    0.87
  -1   0  -2   22.36    1.14
   1   0   2   22.67    0.98
  -1   0  -2   23.45    1.04
   1   0   2   23.81    1.10
  -1   0  -3   22.67    1.29
  -1   0  -3   20.78    1.37
  -1   0  -3   20.10    1.40
  -1   0  -3   20.26    1.16
   1   0   3   23.71    1.56
  -1   0  -3   19.45    1.14
   1   0   3   19.52    1.23
   1   0   3   19.55    1.28
  -1   0  -3   21.56    1.24
   1   0   3   22.04    1.21
   1   0   3   19.63    1.18
  -1   0  -3   23.99    1.28
  -1   0  -3   21.12    1.25
  -1   0  -3   21.23    0.81
   1   0   3   23.04    1.50
  -1   0  -3   20.64    1.21
  -1   0  -3   21.93    1.33
   1   0   3   19.93    0.82
  -1   0  -4    2.56    0.56
   1   0   4    2.25    0.73
   1   0   4    3.36    0.98
  -1   0  -4    3.68    0.88
  -1   0  -4    2.08    0.65
  -1   0  -4    2.15    0.67
  -1   0  -4    3.56    0.78
   1   0   4    3.31    0.64
  -1   0  -4    4.11    0.39
  -1   0  -4    3.44    0.67
  -1   0  -4    3.09    0.69
   1   0   4    3.79    0.69
   1   0   4    3.10    0.37
   1   0   4    4.21    0.91
   1   0   4    4.98    0.83
  -1   0  -4    2.77    0.67
  -1   0  -4    3.49    0.86
  -1   0  -4    3.37    0.69
  -1   0  -5  743.18    9.43
  -1   0  -5  748.59    8.86
   1   0   5  722.54    9.07
  -1   0  -5  723.25    8.49
  -1   0  -5  724.36    8.88
   1   0   5  719.08    9.41
   1   0   5  715.95    9.93
   1   0   5  733.40    8.66
  -1   0  -5  724.36    9.82
  -1   0  -5  743.36    8.74
  -1   0  -5  739.21    8.50
  -1   0  -5  719.71    8.56
  -1   0  -5  726.08    8.93
   1   0   5  734.71    8.79
  -1   0  -6  102.79    3.54
  -1   0  -6  105.11    3.86
  -1   0  -6  107.21    3.77
   1   0   6  106.00    3.65
  -1   0  -6  108.12    3.60
   1   0   6  109.21    4.42
   1   0   6  102.27    3.99
  -1   0  -6  108.97    4.27
  -1   0  -6  108.87    3.61
  -1   0  -6  107.45    3.91
   1   0   7   20.29    2.18
  -1   0  -7   23.15    2.09
  -1   0  -7   23.07    2.03
  -1   0  -7   20.00    1.85
   1   0   7   21.52    1.88
  -1   0  -7   23.57    2.28
   1   0   7   23.87    2.57
  -1   0  -8   13.60    1.96
  -1   0  -8   12.70    1.79
   1   0   8   13.80    1.65
   1   0   8   16.37    2.35
  -1   0  -8   12.64    1.64
  -1   0  -8   13.71    1.58
   1   0   8   11.88    1.78
   1   0   9   27.62    2.36
  -1   0  -9   29.63    2.93
  -1   0  -9   29.26    2.72
  -1   0  -9   25.33    2.24
   1   0   9   29.35    2.96
  -1   0  -9   26.04    2.49
  -1   0 -10   12.10    1.95
   1   0  10   10.49    2.06
  -1   0 -10   11.89    2.12
  -1   0 -10    9.04    1.60
  -1   0 -10   12.21    2.00
   1   0  10   11.33    1.70
  -1   0 -11   11.66    2.03
  -1   0 -11   12.99    2.20
   1   0  11   10.39    2.15
   1  -1 -11    4.03    1.51
  -1  -1  11    1.02    1.26
   1   1 -11    5.62    1.64
   1   1 -11    3.30    1.54
   1  -1 -11    4.85    1.64
  -1   1  11    1.46    1.58
  -1  -1  11    4.07    1.91
  -1   1  11    2.60    1.68
   1  -1 -11    1.68    1.39
   1   1 -11    5.79    1.72
   1  -1 -10    0.07    1.00
   1   1 -10    0.30    1.13
  -1   1  10   -0.04    1.25
   1   1 -10   -0.14    0.99
  -1  -1  10    1.20    1.24
   1  -1 -10    1.56    1.44
   1   1 -10    1.25    1.36
  -1  -1  10   -0.73    0.81
   1  -1 -10   -0.31    0.95
  -1  -1  10    1.07    1.37
  -1   1  10   -1.13    1.45
   1   1 -10    1.38    0.86
   1  -1  -9    9.13    1.84
  -1  -1   9    5.94    1.23
   1   1  -9    7.78    1.75
  -1   1   9    5.17    0.89
  -1   1   9    7.53    1.74
  -1  -1   9    8.21    1.68
   1  -1  -9    6.02    1.41
  -1  -1   9    8.31    1.80
   1  -1  -9    5.72    0.94
   1   1  -9    6.62    1.35
  -1   1   9    6.72    1.69
  -1   1   9    6.37    1.75
   1  -1  -9    7.69    1.76
   1   1  -9    6.47    1.61
   1   1  -9    5.46    1.49
   1   1  -8    0.62    0.99
   1   1  -8    0.87    1.08
  -1  -1   8    4.04    1.42
   1  -1  -8    1.30    0.56
   1   1  -8    0.62    0.75
   1  -1  -8    1.87    1.17
  -1  -1   8    0.50    0.89
  -1   1   8   -0.12    1.17
  -1   1   8    0.93    0.58
   1  -1  -8    1.49    0.59
   1  -1  -8    1.39    0.62
  -1   1   8    0.52    0.95
  -1  -1   8    1.77    0.92
  -1   1   8    1.09    1.17
   1   1  -8    0.64    0.92
   1  -1  -8    0.43    0.91
   1  -1  -8    1.62    1.11
   1   1  -7    1.07    1.17
   1  -1  -7    1.12    0.50
   1  -1  -7    2.38    1.11
  -1  -1   7    1.42    1.13
   1  -1  -7    0.97    0.46
   1  -1  -7    2.24    1.15
  -1   1   7   -0.77    1.45
   1  -1  -7    1.47    0.62
  -1   1   7    1.69    0.66
  -1   1   7    1.20    1.22
   1   1  -7    1.54    0.98
   1   1  -7    1.99    1.21
  -1  -1   7    0.13    1.13
   1   1  -7    1.25    0.77
   1  -1  -7   -0.06    1.31
  -1  -1   7    1.29    0.89
  -1   1   7    1.42    1.15
   1  -1  -6  105.97    4.13
   1   1  -6  101.53    4.07
  -1   1   6  103.28    3.91
  -1  -1   6  105.67    3.87
   1   1  -6  106.89    3.56
  -1  -1   6  103.12    3.98
   1   1  -6  104.60    3.53
   1   1  -6  110.03    4.06
   1  -1  -6  103.38    2.58
   1  -1  -6  105.99    4.05
  -1   1   6  103.38    2.62
  -1  -1   6  103.67    3.51
   1  -1  -6  103.90    2.60
  -1   1   6  106.92    4.26
  -1   1   6  109.18    4.25
   1  -1  -6  110.26    4.30
  -1  -1   6  108.86    3.60
   1  -1  -6  107.07    2.63
   1   1  -6  113.59    4.12
   1  -1  -5   22.24    1.08
  -1   1   5   20.31    1.86
   1   1  -5   19.25    1.72
  -1  -1   5   21.04    1.54
   1  -1  -5   21.79    1.80
   1  -1  -5   20.09    1.80
  -1   1   5   24.80    1.84
  -1   1   5   21.05    1.68
  -1   1   5   20.07    1.74
  -1   1   5   21.80    1.79
  -1  -1   5   23.60    1.77
   1   1  -5   19.86    1.64
   1  -1  -5   23.24    1.82
   1   1  -5   19.87    1.47
  -1  -1   5   21.40    1.62
  -1  -1   5   20.13    1.65
   1   1  -5   22.13    1.69
  -1   1   5   22.15    1.75
   1  -1  -5   21.65    1.06
  -1  -1   5   23.55    1.84
  -1   1   5   20.70    0.82
  -1   1   5   21.28    1.06
   1  -1  -5   23.77    1.86
  -1  -1   5   21.17    1.55
   1   1  -5   19.53    0.60
   1   1  -5   23.84    1.83
  -1   1   5   20.73    1.72
  -1   1   5   22.62    1.82
   1   1  -5   22.69    1.57
  -1   1   5   23.80    1.87
  -1  -1   5   19.04    1.61
   1  -1  -5   23.87    1.75
   1  -1  -5   21.45    1.05
   1   1  -4  514.19    6.52
  -1  -1   4  509.90    6.49
  -1   1   4  506.40    7.37
  -1   1   4  514.15    7.26
  -1   1   4  526.11    7.47
  -1  -1   4  495.04    6.41
   1  -1  -4  515.90    4.06
   1  -1  -4  510.76    7.25
   1   1  -4  533.56    7.31
   1  -1  -4  506.17    7.17
   1  -1  -4  518.05    7.47
  -1   1   4  507.05    6.97
   1  -1  -4  507.28    4.01
   1  -1  -4  514.44    4.03
  -1  -1   4  504.79    6.78
  -1   1   4  518.06    4.27
   1   1  -4  504.62    3.77
  -1   1   4  531.03    7.29
  -1   1   4  504.96    7.22
   1   1  -4  527.37    6.87
  -1   1   4  522.71    7.41
  -1   1   4  522.27    4.12
   1  -1  -4  512.02    7.27
   1   1  -4  501.65    7.32
   1   1  -4  520.00    7.11
  -1   1   4  502.81    7.35
  -1  -1   4  517.39    6.85
  -1   1   4  525.16    7.08
  -1  -1   4  508.71    7.17
  -1   1   4  505.99    7.42
   1   1  -4  527.37    6.55
   1  -1  -3  836.15    8.08
  -1   1   3  806.74    7.80
   1  -1  -3  830.89    8.15
   1  -1  -3  787.08    3.55
   1   1  -3  816.88    7.27
  -1   1   3  794.73    8.16
  -1   1   3  814.36    8.09
  -1  -1   3  808.31    7.22
  -1   1   3  817.11    8.05
   1   1  -3  826.67    7.44
  -1   1   3  815.76    8.10
   1   1  -3  800.17    7.88
  -1  -1   3  806.79    7.34
   1   1  -3  800.62    7.35
   1  -1  -3  814.66    8.19
   1   1  -3  813.96    8.20
  -1   1   3  810.70    8.17
  -1  -1   3  808.82    7.42
  -1  -1   3  809.67    7.85
  -1   1   3  804.79    8.03
   1  -1  -3  804.04    7.69
  -1   1   3  817.52    7.85
   1   1  -3  811.42    7.99
  -1   1   3  810.92    5.51
  -1  -1   3  794.36    7.18
  -1   1   3  818.64    7.90
   1  -1  -3  791.32    8.01
   1   1  -3  807.32    5.13
  -1   1   3  787.50    3.62
   1  -1  -2 1926.14   10.97
   1  -1  -2 1951.83   10.53
  -1   1   2 1977.35   10.71
  -1  -1   2 1919.86    8.95
  -1   1   2 1964.58   10.63
  -1   1   2 1943.11   10.61
   1   1  -2 1941.04    9.92
   1  -1  -2 1936.25   10.57
  -1   1   2 1921.27   10.76
  -1  -1   2 1928.36    8.95
   1  -1  -2 1961.48   10.62
   1  -1  -2 1930.94   10.77
  -1   1   2 1961.63   10.69
  -1  -1   2 1975.27   10.38
  -1   1   2 1979.88   10.23
  -1  -1   2 1953.34   10.02
   1   1  -2 1971.13   10.30
   1   1  -2 1984.40   10.29
  -1   1   2 1950.72   10.93
  -1   1   2 1965.79    8.60
   1  -1  -2 1951.83   10.59
   1   1  -2 1941.53   10.53
   1  -1  -2 1928.77   10.12
   1   1  -2 1985.67    8.32
   1   1  -2 1975.64    9.02
  -1  -1   2 1939.57   10.35
  -1   1   1  429.18    4.25
  -1  -1   1  432.49    4.37
   1   1  -1  430.62    3.96
  -1  -1   1  439.39    3.71
  -1   1   1  439.07    4.45
   1  -1  -1  434.30    4.43
  -1   1   1  442.29    2.48
   1   1  -1  433.47    3.65
  -1   1   1  425.54    4.07
   1   1  -1  436.01    4.38
   1  -1  -1  430.91    4.18
  -1   1   1  434.93    4.04
   1  -1  -1  438.60    3.94
   1  -1  -1  440.09    4.26
  -1   1   1  433.89    4.31
  -1   1   1  428.88    4.07
   1  -1  -1  430.98    4.44
   1   1  -1  430.96    4.01
   1   1  -1  436.82    4.40
   1  -1  -1  425.92    3.86
  -1  -1   1  435.65    3.14
  -1   1   1  429.83    4.52
  -1   1   1  434.75    3.92
  -1  -1   1  445.02    4.43
  -1   1   1  429.17    4.45
  -1   1   1  438.88    4.21
  -1   1   1  439.06    3.98
  -1   1   1  431.94    2.47
   1  -1   0   25.57    0.94
  -1  -1   0   26.27    0.95
  -1   1   0   24.38    1.06
  -1   1   0   25.21    1.07
   1  -1   0   25.03    1.03
  -1   1   0   24.58    0.91
  -1   1   0   26.00    1.13
  -1   1   0   25.51    1.09
   1   1   0   24.71    0.90
  -1   1   0   24.93    0.97
   1   1   0   24.94    0.92
   1  -1   0   27.30    0.94
   1  -1   0   25.86    1.07
   1  -1   0   25.17    0.96
   1   1   0   25.49    0.80
  -1  -1   0   25.23    0.89
  -1  -1   0   27.81    1.16
  -1  -1   0   27.25    1.07
  -1  -1   0   25.24    0.81
   1   1   0   26.17    1.06
   1  -1   0   23.04    0.81
   1   1   0   25.29    1.05
  -1   1   0   24.48    0.90
  -1   1   0   24.96    1.05
  -1  -1   0   24.82    1.03
   1   1   0   26.93    1.06
   1  -1   0   26.75    1.12
   1  -1   0   26.71    1.07
  -1   1   0   26.16    0.87
  -1  -1  -1 2214.34    9.39
  -1  -1  -1 2257.66    9.92
   1  -1   1 2228.00    9.84
   1   1   1 2256.37   10.59
  -1   1  -1 2285.81    9.54
  -1   1  -1 2270.66   10.29
   1   1   1 2259.22   10.08
  -1  -1  -1 2213.67    9.47
  -1   1  -1 2270.43   10.16
   1  -1   1 2231.43   10.23
   1   1   1 2217.62    9.44
  -1   1  -1 2274.72    6.66
  -1  -1  -1 2237.50    9.40
   1   1   1 2231.81    6.89
   1  -1   1 2205.07    9.45
   1   1   1 2212.06    9.43
   1   1   1 2216.70    9.51
  -1  -1  -1 2211.19   10.34
   1   1   1 2190.40    9.50
  -1  -1  -1 2242.63   10.55
  -1   1  -2    2.38    0.49
   1   1   2    2.02    0.59
   1   1   2    3.22    0.83
   1   1   2    1.99    0.38
  -1  -1  -2    2.00    0.68
  -1  -1  -2    1.17    0.47
   1  -1   2    2.21    0.38
  -1   1  -2    1.72    0.52
  -1   1  -2    2.40    0.42
   1   1   2    2.46    0.44
   1  -1   2    1.98    0.52
  -1  -1  -2    2.05    0.36
  -1   1  -2    2.26    0.43
   1  -1   2    2.03    0.63
  -1  -1  -2    1.61    0.62
   1   1   2    2.42    0.57
   1  -1   2    2.15    0.51
   1   1   2    2.29    0.65
   1   1   2    2.98    0.75
   1   1   2    1.45    0.48
   1   1   2    3.06    0.50
  -1  -1  -2    1.96    0.46
   1   1   2    3.12    0.56
  -1  -1  -2    1.54    0.49
  -1   1  -2    3.22    0.67
  -1  -1  -2    2.52    0.50
   1   1   2    0.95    0.56
  -1   1  -2    2.57    0.68
   1   1   2    2.25    0.80
  -1   1  -2    2.89    0.76
  -1  -1  -2    2.19    0.44
   1   1   3  153.70    2.66
  -1  -1  -3  160.23    3.07
   1   1   3  160.66    3.74
  -1   1  -3  160.55    2.57
  -1   1  -3  159.03    3.08
  -1   1  -3  165.79    3.64
  -1  -1  -3  164.10    3.82
  -1  -1  -3  154.84    3.01
   1   1   3  157.69    3.67
   1   1   3  158.77    3.42
   1   1   3  160.27    3.78
   1   1   3  163.70    2.90
  -1   1  -3  158.60    3.56
   1   1   3  154.79    3.78
  -1  -1  -3  162.85    3.75
   1   1   3  156.28    3.06
   1  -1   3  159.63    3.09
  -1  -1  -3  155.46    2.83
   1  -1   3  158.28    2.90
  -1   1  -3  164.35    3.60
   1  -1   3  153.35    3.54
   1   1   3  155.76    3.07
  -1   1  -3  157.98    3.60
   1  -1   3  162.00    3.66
  -1   1  -3  158.26    3.06
   1   1   3  157.82    3.07
   1   1   3  161.03    3.72
  -1  -1  -3  164.16    3.81
  -1  -1  -3  155.98    3.63
  -1  -1  -3  154.44    3.04
   1   1   4    0.85    0.34
   1   1   4    1.05    0.61
   1   1   4    1.15    0.56
  -1   1  -4    0.67    0.58
  -1  -1  -4    0.71    0.45
   1  -1   4    1.16    0.61
   1  -1   4    1.04    0.60
  -1  -1  -4    1.41    0.56
  -1   1  -4    0.54    0.62
   1   1   4    0.50    0.60
   1  -1   4    0.22    0.43
   1  -1   4    1.31    0.69
   1   1   4   -0.43    0.74
  -1   1  -4    1.32    0.62
  -1  -1  -4    0.71    0.68
  -1  -1  -4    1.75    0.67
   1   1   4    0.73    0.64
   1   1   4    0.67    0.60
   1   1   4    2.15    0.65
   1   1   4    0.75    0.56
  -1  -1  -4    0.85    0.43
  -1   1  -4    1.54    0.53
  -1   1  -4    1.43    0.63
  -1  -1  -4    1.79    0.62
  -1  -1  -4    1.80    0.72
   1   1   4    1.06    0.83
  -1  -1  -4    1.26    0.57
  -1   1  -4    0.09    0.53
  -1  -1  -4    0.69    0.44
  -1   1  -4    0.95    0.72
  -1   1  -4    1.32    0.34
  -1  -1  -4    1.27    0.69
  -1   1  -5  187.78    4.42
   1   1   5  185.59    4.95
   1   1   5  174.39    4.95
   1   1   5  181.89    2.84
  -1  -1  -5  177.64    3.97
  -1   1  -5  188.43    4.93
  -1  -1  -5  180.29    4.20
  -1   1  -5  185.50    4.66
   1   1   5  178.48    4.44
  -1  -1  -5  184.08    4.01
  -1  -1  -5  187.17    5.13
  -1   1  -5  188.52    4.95
   1  -1   5  183.12    4.38
   1   1   5  178.39    4.01
  -1  -1  -5  179.81    4.82
  -1   1  -5  184.64    2.54
  -1   1  -5  179.46    4.69
   1  -1   5  177.13    4.62
   1   1   5  177.01    4.57
   1  -1   5  178.65    4.26
  -1   1  -5  179.38    4.77
   1  -1   5  176.66    4.37
  -1  -1  -5  176.61    3.91
   1  -1   5  185.88    4.74
   1   1   5  180.52    4.24
   1   1   5  179.40    5.11
  -1   1  -5  178.49    4.63
  -1  -1  -5  179.62    4.38
  -1  -1  -5  185.24    4.64
  -1  -1  -6   56.91    2.82
  -1   1  -6   60.98    2.88
  -1   1  -6   57.01    3.04
  -1  -1  -6   56.02    2.44
   1   1   6   62.38    2.64
  -1  -1  -6   60.21    2.75
   1  -1   6   62.32    2.87
  -1   1  -6   62.15    3.19
  -1   1  -6   58.38    2.93
   1   1   6   62.63    3.38
   1  -1   6   57.01    2.82
   1  -1   6   55.55    2.89
  -1  -1  -6   62.14    3.16
  -1  -1  -6   58.38    2.92
   1   1   6   56.75    1.46
  -1  -1  -6   60.38    2.59
  -1  -1  -6   57.50    2.53
   1   1   6   63.77    3.52
  -1  -1  -6   62.39    3.39
  -1  -1  -7   25.38    1.85
   1   1   7   24.77    2.43
   1   1   7   32.26    2.93
  -1   1  -7   27.73    2.23
  -1  -1  -7   25.67    2.23
  -1   1  -7   25.92    2.26
  -1   1  -7   26.17    2.12
  -1  -1  -7   29.17    2.39
  -1  -1  -7   24.48    1.83
  -1  -1  -7   29.71    2.64
  -1  -1  -7   28.58    2.26
   1  -1   7   25.21    2.17
  -1   1  -7   26.75    2.39
   1  -1   7   25.68    2.20
   1   1   7   25.88    1.90
  -1  -1  -7   24.83    1.83
   1   1   8   50.83    2.80
  -1  -1  -8   46.45    3.06
  -1   1  -8   50.90    3.13
  -1   1  -8   49.47    3.10
  -1  -1  -8   45.52    3.15
  -1  -1  -8   51.98    3.56
   1  -1   8   45.10    3.01
  -1   1  -8   48.17    3.39
  -1  -1  -8   46.25    3.04
   1  -1   8   45.51    3.07
  -1  -1  -8   49.19    2.66
   1   1   8   47.55    3.58
   1   1   8   45.36    3.34
  -1   1  -8   42.92    3.05
   1  -1   9    5.14    1.42
   1   1   9    7.39    2.06
  -1  -1  -9    5.31    1.39
  -1   1  -9    4.00    1.22
  -1  -1  -9    5.13    1.39
  -1   1  -9    2.69    1.10
  -1   1  -9    6.76    1.62
  -1  -1  -9    2.21    1.19
   1  -1   9    2.75    1.28
  -1   1  -9    3.66    1.21
   1   1   9    4.93    1.66
   1   1   9    6.24    1.30
  -1  -1  -9    4.61    1.09
  -1   1 -10    0.66    0.95
  -1   1 -10    0.32    1.05
   1   1  10   -0.87    1.14
  -1   1 -10    1.58    1.10
  -1  -1 -10   -0.87    0.96
  -1  -1 -10    0.89    1.07
   1  -1  10   -0.40    1.00
   1  -1  10   -0.82    1.15
  -1   1 -10   -0.93    1.01
  -1   1 -11   44.20    3.59
  -1   1 -11   45.64    4.07
  -1  -1 -11   36.72    3.39
   1   1  11   37.66    3.90
   1  -1  11   40.02    3.69
  -1   1 -11   37.95    3.16
  -1   1 -11   40.44    3.67
   1  -1  11   34.02    3.06
   1  -2 -11    1.43    1.45
   1   2 -11   -0.14    1.15
  -1  -2  11   -1.70    1.57
   1   2 -11    0.20    1.17
   1   2 -11    1.63    1.22
   1   2 -11    0.11    1.18
  -1  -2  11   -0.33    1.00
   1  -2 -10   34.10    3.41
  -1   2  10   30.30    3.22
  -1   2  10   34.31    3.18
   1   2 -10   34.67    3.21
  -1  -2  10   32.71    2.84
  -1  -2  10   36.28    3.39
   1   2 -10   33.68    3.19
   1   2 -10   33.19    2.91
  -1  -2  10   33.16    3.00
   1   2 -10   32.09    3.29
   1  -2 -10   35.44    3.33
  -1   2  10   34.99    3.58
   1  -2  -9    9.23    1.78
   1   2  -9    8.91    1.58
  -1  -2   9   10.74    1.69
  -1   2   9   11.05    2.13
   1   2  -9   10.09    1.82
  -1   2   9    8.86    1.85
  -1  -2   9   11.90    2.01
   1  -2  -9   10.87    1.88
  -1   2   9   13.18    1.98
   1   2  -9   10.32    1.76
   1  -2  -9    8.41    1.91
  -1  -2   9    7.42    1.43
   1   2  -9    8.88    1.78
   1   2  -8   11.72    1.84
   1  -2  -8   15.07    2.09
   1   2  -8   13.27    1.82
  -1   2   8   14.41    2.10
   1   2  -8   13.48    1.74
  -1   2   8   14.28    1.02
   1  -2  -8   10.41    1.83
   1  -2  -8   12.24    0.91
  -1  -2   8   11.85    1.71
  -1  -2   8   12.58    1.75
   1   2  -8   14.84    1.93
  -1   2   8   14.39    2.17
  -1   2   8   11.87    1.80
   1  -2  -8   13.85    2.03
  -1  -2   8   11.69    1.83
  -1   2   7   12.33    0.85
  -1   2   7   10.42    1.56
  -1   2   7   11.19    1.78
  -1   2   7   11.06    1.77
   1  -2  -7   12.79    1.88
   1  -2  -7   12.36    0.84
  -1  -2   7   10.82    1.57
   1  -2  -7   11.56    0.81
  -1  -2   7   10.92    1.51
   1  -2  -7   12.28    0.84
  -1  -2   7   10.40    1.52
  -1   2   7   11.20    0.83
   1   2  -7   11.66    1.75
   1   2  -7   10.65    1.71
  -1   2   7   11.91    0.81
   1   2  -7   16.57    1.87
   1  -2  -7   14.48    1.92
   1  -2  -7   13.70    1.82
   1   2  -7   12.55    1.67
   1  -2  -7   10.67    1.70
   1  -2  -6   -0.83    1.07
   1   2  -6   -0.37    0.87
   1  -2  -6    0.35    0.26
   1  -2  -6    1.09    0.91
   1  -2  -6    1.46    0.34
  -1   2   6    0.48    0.32
   1   2  -6   -1.20    1.21
   1   2  -6    1.10    0.89
  -1   2   6   -0.15    0.41
  -1   2   6    1.64    1.12
   1  -2  -6    0.84    1.20
  -1   2   6    0.51    1.08
   1   2  -6    0.39    0.31
   1  -2  -6    0.46    1.09
  -1   2   6   -0.21    1.12
  -1  -2   6   -0.35    1.02
   1  -2  -6    0.09    0.25
   1   2  -6    0.04    1.09
  -1  -2   6    0.39    0.79
  -1  -2   6    0.43    0.80
   1   2  -5   86.66    3.72
   1  -2  -5   94.73    3.72
   1   2  -5   88.28    2.20
   1   2  -5   87.50    3.40
  -1   2   5   87.53    3.41
   1   2  -5   87.23    3.34
  -1  -2   5   88.52    3.13
   1   2  -5   88.99    3.14
   1  -2  -5   80.08    1.37
  -1   2   5   77.18    1.44
  -1   2   5   87.05    2.40
  -1   2   5   85.71    3.34
  -1  -2   5   88.44    3.12
  -1  -2   5   80.57    3.25
   1  -2  -5   85.59    3.54
   1  -2  -5   80.56    1.35
  -1  -2   5   81.73    3.27
   1  -2  -5   91.38    3.61
   1  -2  -5   85.47    3.54
  -1   2   5   87.58    3.65
  -1   2   5   90.40    3.70
  -1  -2   5   86.69    3.40
   1   2  -5   88.64    3.49
  -1  -2   4   10.49    1.19
  -1   2   4   10.12    1.27
  -1  -2   4   10.00    1.21
   1  -2  -4    8.69    1.23
  -1   2   4    9.69    1.17
   1   2  -4   10.76    1.31
  -1  -2   4    9.01    0.95
  -1  -2   4    8.84    1.07
  -1   2   4    8.61    1.06
  -1   2   4    8.80    1.21
  -1   2   4   10.42    1.24
   1   2  -4    9.94    1.22
   1  -2  -4    9.97    1.23
   1   2  -4   11.68    1.11
   1  -2  -4   11.53    1.34
   1  -2  -4    9.86    1.36
  -1  -2   4    9.75    0.60
  -1   2   4   10.17    1.23
  -1   2   4    8.55    1.24
  -1   2   4   10.64    1.24
  -1  -2   4    9.78    1.00
  -1   2   4    9.72    1.25
   1   2  -4   11.65    1.38
  -1   2   4    9.40    1.19
   1   2  -4   10.10    1.18
  -1   2   4   10.07    1.34
   1   2  -3  180.54    4.13
   1  -2  -3  176.26    4.09
  -1  -2   3  178.48    3.70
  -1   2   3  182.06    4.20
   1   2  -3  180.41    4.14
   1  -2  -3  184.04    3.72
   1  -2  -3  172.49    4.12
  -1  -2   3  178.16    3.18
  -1   2   3  174.40    4.06
  -1   2   3  177.25    4.08
   1   2  -3  178.05    3.18
   1  -2  -3  175.21    4.20
  -1   2   3  178.87    4.24
  -1  -2   3  170.11    4.05
  -1  -2   3  176.01    3.18
  -1  -2   3  176.08    4.09
  -1   2   3  173.99    3.68
  -1   2   3  180.13    4.08
  -1   2   3  169.98    4.15
  -1   2   3  180.61    4.14
  -1   2   3  175.18    4.25
   1  -2  -3  177.39    4.08
  -1   2   3  184.82    4.28
   1   2  -3  175.81    4.10
   1  -2  -3  176.83    4.17
  -1   2   3  173.45    4.15
   1  -2  -2    5.30    0.95
  -1   2   2    4.52    0.68
   1  -2  -2    4.84    0.33
  -1   2   2    4.69    0.77
  -1  -2   2    5.01    0.87
  -1   2   2    4.95    0.79
  -1  -2   2    4.97    0.48
  -1  -2   2    4.68    0.60
  -1   2   2    4.44    0.94
   1  -2  -2    4.36    0.75
  -1   2   2    4.62    0.82
   1  -2  -2    6.17    1.01
  -1   2   2    4.52    0.80
  -1   2   2    5.29    0.95
  -1   2   2    5.25    0.75
   1   2  -2    4.91    0.75
   1  -2  -2    4.62    0.75
   1  -2  -2    5.23    0.66
   1  -2  -2    4.55    0.34
  -1   2   2    4.12    0.72
  -1   2   2    4.84    0.73
  -1  -2   2    4.88    0.78
   1   2  -2    4.77    0.87
  -1   2   2    4.31    0.33
  -1  -2   2    5.24    0.50
   1   2  -2    4.74    0.47
   1  -2  -1   73.08    2.39
   1  -2  -1   74.11    2.00
  -1   2   1   77.67    2.43
  -1  -2   1   79.41    2.33
   1  -2  -1   75.13    2.34
  -1  -2   1   76.60    1.51
  -1   2   1   82.26    2.41
  -1   2   1   75.44    2.39
  -1  -2   1   75.70    2.36
  -1   2   1   74.84    1.66
   1   2  -1   73.95    1.29
  -1   2   1   76.59    2.41
   1  -2  -1   74.26    1.62
  -1  -2   1   75.98    2.36
  -1   2   1   74.64    1.64
  -1   2   1   77.27    1.91
   1  -2  -1   75.21    2.22
  -1   2   1   70.55    1.72
   1   2  -1   74.91    2.35
   1   2  -1   76.67    2.35
  -1   2   1   74.77    2.27
   1  -2  -1   75.11    1.63
   1   2  -1   79.28    1.49
  -1  -2   1   77.94    2.36
   1  -2  -1   74.90    2.30
  -1   2   1   75.51    2.01
  -1   2   1   75.61    2.04
   1  -2  -1   75.90    1.72
  -1   2   0  231.37    3.87
  -1   2   0  235.50    2.34
  -1  -2   0  236.34    3.84
   1   2   0  232.91    1.98
   1  -2   0  240.18    2.90
  -1   2   0  238.04    3.48
   1  -2   0  233.05    3.76
   1   2   0  232.15    3.81
   1  -2   0  234.68    2.87
  -1  -2   0  234.89    3.77
   1   2   0  233.23    3.05
  -1   2   0  229.98    2.93
   1  -2   0  229.53    3.64
   1   2   0  229.66    3.78
  -1  -2   0  231.20    4.06
  -1  -2   0  230.92    3.79
   1  -2   0  235.40    3.85
  -1  -2   0  226.24    1.97
  -1   2   0  231.20    3.78
  -1   2   0  227.55    2.88
  -1  -2   0  239.75    2.14
  -1  -2   0  235.27    2.13
   1  -2   0  235.80    3.45
   1  -2   0  235.41    4.12
  -1  -2   0  228.81    3.77
  -1   2   0  234.04    4.13
  -1   2   0  227.66    4.04
   1  -2   0  237.50    3.47
  -1  -2   0  229.55    3.82
  -1   2   0  237.50    3.49
   1   2   0  233.05    3.87
   1  -2   0  234.07    4.03
  -1  -2  -1 1133.74    9.24
  -1  -2  -1 1099.47    7.93
  -1  -2  -1 1094.97    8.64
   1   2   1 1116.50    8.57
   1  -2   1 1129.12    8.66
  -1  -2  -1 1126.67    8.56
  -1  -2  -1 1111.18    9.05
  -1   2  -1 1124.59    8.67
   1   2   1 1103.96    6.87
   1   2   1 1108.85    9.21
  -1  -2  -1 1062.89    6.75
   1   2   1 1114.70    8.72
   1  -2   1 1075.50    8.03
  -1   2  -1 1116.02    8.62
   1  -2   1 1114.74    8.57
   1   2   1 1134.72    9.25
  -1  -2  -1 1108.33    8.31
   1  -2   1 1085.09    8.08
   1   2   1 1106.67    6.86
  -1  -2  -1 1097.06    7.87
   1   2   1 1093.79    7.89
   1   2   1 1099.17    7.97
  -1   2  -1 1113.04    8.17
  -1  -2  -1 1067.05    6.76
   1  -2   1 1105.39    7.25
   1   2   2  204.83    4.30
   1  -2   2  201.40    3.60
   1   2   2  202.23    3.42
  -1  -2  -2  202.39    3.40
  -1  -2  -2  204.31    4.27
   1   2   2  202.29    4.06
  -1   2  -2  211.01    4.19
   1   2   2  206.66    3.75
  -1  -2  -2  205.85    4.20
   1   2   2  203.07    3.42
   1   2   2  199.26    4.23
   1  -2   2  193.22    4.04
  -1  -2  -2  207.51    3.74
   1  -2   2  207.44    4.19
  -1   2  -2  209.08    4.19
  -1  -2  -2  216.62    3.79
  -1  -2  -2  207.36    4.11
  -1  -2  -2  202.05    3.43
  -1   2  -2  211.37    3.74
   1   2   2  202.23    3.39
   1   2   2  200.69    4.15
   1   2   2  199.98    3.70
   1   2   2  202.01    4.11
  -1  -2  -2  202.57    4.07
   1   2   3  188.83    3.65
  -1   2  -3  194.62    4.44
   1   2   3  195.93    4.62
  -1   2  -3  198.60    3.90
   1   2   3  188.24    3.27
  -1  -2  -3  190.56    4.48
  -1  -2  -3  194.58    3.72
   1   2   3  191.47    4.30
   1   2   3  186.93    3.43
  -1  -2  -3  193.27    4.21
  -1   2  -3  178.02    3.45
   1  -2   3  195.57    2.90
   1   2   3  195.77    4.30
   1   2   3  189.48    4.51
  -1   2  -3  194.28    4.43
   1   2   3  187.83    4.47
   1  -2   3  192.82    4.44
  -1  -2  -3  187.87    3.44
  -1   2  -3  196.59    3.86
   1   2   3  195.19    4.49
  -1  -2  -3  194.24    4.47
   1   2   3  197.17    4.29
  -1  -2  -3  201.32    4.56
  -1  -2  -3  199.64    4.31
  -1  -2  -3  183.14    3.41
   1  -2   3  190.30    4.43
   1   2   3  189.23    3.69
   1   2   3  192.87    3.51
  -1  -2  -4  307.68    6.22
  -1  -2  -4  314.26    5.34
   1   2   4  306.70    6.25
   1   2   4  327.16    6.48
   1   2   4  300.08    5.22
  -1   2  -4  313.52    5.62
   1   2   4  312.76    6.23
   1   2   4  314.32    6.16
   1   2   4  299.52    4.70
  -1  -2  -4  304.10    4.66
  -1   2  -4  308.94    5.59
  -1  -2  -4  318.27    6.14
   1   2   4  313.14    4.71
  -1   2  -4  310.44    6.09
   1  -2   4  296.04    4.63
   1   2   4  317.11    6.02
  -1  -2  -4  317.35    6.18
  -1  -2  -4  305.61    4.65
  -1   2  -4  315.57    5.32
   1   2   4  297.85    4.77
  -1  -2  -4  316.56    6.33
   1  -2   4  303.03    4.54
   1   2   4  317.22    6.40
   1  -2   4  316.70    6.22
  -1   2  -4  315.19    4.52
   1  -2   4  295.34    5.94
   1   2   4  313.44    6.18
  -1   2  -4  314.24    6.12
   1   2   4  318.98    4.84
  -1  -2  -5   98.38    2.86
  -1   2  -5   96.99    2.49
  -1  -2  -5   92.26    3.73
  -1   2  -5  103.32    3.67
   1  -2   5   92.74    2.98
   1  -2   5   97.14    3.70
   1   2   5  100.51    2.98
  -1  -2  -5   94.68    2.79
  -1  -2  -5   99.23    3.41
  -1   2  -5   96.56    3.70
   1   2   5   96.91    3.99
  -1   2  -5   98.54    3.34
  -1  -2  -5  104.04    3.97
   1   2   5   93.89    2.65
  -1  -2  -5   96.12    2.85
  -1   2  -5   98.02    3.54
   1   2   5   99.83    3.97
   1   2   5   91.83    3.03
   1  -2   5   93.30    3.02
   1   2   5   99.32    3.89
   1   2   5   96.47    3.34
  -1   2  -6   -0.07    0.88
   1  -2   6    1.12    0.97
  -1   2  -6    0.07    1.02
  -1  -2  -6    1.50    1.12
  -1  -2  -6    0.62    1.11
   1   2   6    0.34    0.64
  -1  -2  -6    0.18    0.83
   1   2   6   -0.28    0.82
  -1  -2  -6    0.20    0.48
   1  -2   6    0.48    0.65
  -1   2  -6    0.33    0.41
  -1  -2  -6    0.96    0.69
  -1   2  -6    1.71    1.03
   1   2   6    3.12    1.45
   1  -2   6   -0.14    0.77
   1   2   6   -2.09    1.52
   1   2   6   -0.47    1.21
  -1   2  -6    1.24    0.94
  -1  -2  -6    0.20    0.56
   1   2   6    0.82    0.49
  -1  -2  -7    3.03    1.13
   1   2   7    3.18    1.23
  -1  -2  -7    2.26    0.69
   1  -2   7    2.75    1.05
  -1   2  -7    3.25    0.43
  -1   2  -7    2.29    1.06
   1   2   7    2.76    0.54
  -1  -2  -7    3.87    1.31
  -1   2  -7    2.76    0.98
  -1  -2  -7    3.81    0.79
   1   2   7    5.41    1.64
  -1  -2  -7    2.61    1.06
   1   2   7    4.78    1.13
   1   2   7    1.70    0.70
  -1  -2  -7    3.07    0.73
  -1   2  -7    3.98    1.08
   1  -2   7    2.87    0.89
   1   2   7    1.35    1.18
  -1   2  -7    2.38    1.26
  -1   2  -8   43.86    3.07
  -1  -2  -8   47.61    2.47
   1   2   8   46.00    3.46
  -1  -2  -8   46.35    3.06
  -1   2  -8   50.94    3.42
   1   2   8   51.51    3.76
  -1  -2  -8   50.98    3.65
   1  -2   8   45.51    3.21
  -1   2  -8   47.61    3.09
   1   2   8   50.74    2.63
   1   2   8   45.36    3.52
  -1   2  -8   46.75    3.35
  -1  -2  -8   48.17    3.46
   1  -2   8   43.81    2.91
  -1   2  -9    8.14    1.60
  -1   2  -9    7.52    1.60
   1  -2   9    8.81    1.57
   1  -2   9    6.48    1.52
   1   2   9   10.22    2.24
   1   2   9    8.67    1.87
  -1  -2  -9    6.23    1.52
  -1  -2  -9    8.67    1.65
  -1   2  -9    7.14    1.59
  -1  -2  -9   12.19    2.17
   1   2   9   10.58    2.10
  -1   2  -9    8.86    1.62
  -1  -2 -10   12.32    2.24
   1  -2  10   15.38    2.19
   1   2  10   13.10    2.46
   1   2  10   15.78    2.60
   1  -2  10   10.87    1.93
  -1  -2 -10   14.60    2.13
  -1   2 -10   10.20    1.85
  -1   2 -10    9.68    1.89
  -1   2 -10   11.21    2.07
  -1   2 -10   11.24    2.09
  -1   2 -11    7.42    1.84
  -1   2 -11    8.81    1.78
   1  -2  11    9.97    2.07
  -1  -2 -11   10.68    2.04
  -1   2 -11    7.44    1.72
  -1   2 -11    6.85    1.87
   1  -2  11    5.17    1.57
   1   3 -11   13.68    2.32
   1   3 -11   16.45    2.55
   1  -3 -11   17.87    2.59
   1   3 -11   16.87    2.42
  -1   3  11   24.11    3.04
  -1  -3  11   16.23    2.45
  -1   3  10    5.23    1.49
  -1  -3  10    7.82    1.77
  -1   3  10    7.44    2.07
  -1   3  10    6.78    2.11
   1   3 -10    9.01    1.85
   1   3 -10    9.13    1.88
   1   3 -10    8.22    1.71
  -1  -3  10    7.50    1.61
   1  -3 -10    9.97    2.13
  -1   3  10    6.05    1.96
   1  -3 -10    9.48    2.08
   1   3 -10    7.66    1.68
   1   3  -9   14.83    2.37
   1   3  -9   18.29    2.16
  -1   3   9   14.71    2.33
  -1   3   9   14.77    2.10
   1   3  -9   16.81    2.19
   1   3  -9   16.62    2.27
  -1   3   9   18.25    2.62
  -1  -3   9   15.40    2.10
  -1  -3   9   17.34    1.95
  -1   3   9   14.87    2.40
   1  -3  -9   19.33    2.52
   1  -3  -9   20.01    2.52
  -1  -3   8    7.27    1.47
   1   3  -8    8.42    1.61
  -1   3   8    7.34    1.75
   1   3  -8   10.41    1.76
  -1  -3   8    8.54    1.64
  -1  -3   8    8.56    1.44
   1   3  -8    8.04    1.80
   1   3  -8    7.85    1.49
   1  -3  -8    6.95    1.59
  -1   3   8    8.17    1.89
   1  -3  -8   10.68    1.99
   1  -3  -8    7.68    1.76
  -1   3   8    4.77    1.50
  -1   3   8   10.28    1.73
   1  -3  -7    2.28    1.31
  -1   3   7   -0.33    0.85
   1  -3  -7    2.62    1.23
  -1  -3   7    2.02    1.02
   1   3  -7    0.64    0.83
  -1   3   7    1.40    1.27
   1  -3  -7    1.70    1.04
  -1  -3   7    2.04    1.06
  -1   3   7    0.60    0.46
  -1  -3   7    0.29    0.67
   1   3  -7    0.51    0.40
  -1   3   7    0.05    1.21
   1   3  -7    1.04    0.43
   1   3  -7    1.32    0.91
  -1   3   7   -1.02    1.41
   1   3  -7    1.06    1.04
   1   3  -7    1.50    0.87
   1   3  -6   66.96    3.01
   1   3  -6   64.76    3.47
   1  -3  -6   62.80    3.49
   1   3  -6   63.13    3.64
  -1   3   6   65.89    3.66
  -1  -3   6   67.09    3.03
   1  -3  -6   67.22    3.68
  -1  -3   6   64.48    2.80
  -1   3   6   58.90    3.21
  -1  -3   6   61.87    3.41
  -1  -3   6   63.25    2.94
  -1   3   6   63.69    3.72
   1  -3  -6   69.81    3.69
  -1   3   6   62.61    2.56
  -1   3   6   64.25    3.64
   1   3  -6   62.86    2.33
  -1  -3   6   57.48    1.62
   1   3  -6   63.05    3.40
  -1  -3   5    3.25    0.42
   1   3  -5    5.66    1.42
  -1   3   5    2.15    1.02
  -1   3   5    5.31    1.48
  -1   3   5    4.20    0.95
   1   3  -5    2.82    1.13
   1  -3  -5    4.50    1.35
  -1   3   5    2.89    1.03
  -1   3   5    4.38    1.26
   1  -3  -5    4.21    1.36
  -1  -3   5    4.29    1.05
   1   3  -5    2.82    0.81
   1  -3  -5    2.24    1.08
  -1   3   5    4.77    1.44
  -1  -3   5    4.23    0.94
   1  -3  -5    2.88    1.11
  -1  -3   5    3.05    1.05
  -1   3   4   10.46    1.36
   1  -3  -4   11.34    1.43
  -1   3   4   11.19    1.46
  -1   3   4    8.97    1.09
  -1   3   4    9.99    1.29
  -1  -3   4   11.35    1.02
  -1  -3   4   11.46    1.06
  -1   3   4    9.34    1.48
  -1  -3   4    9.64    1.36
   1   3  -4   10.62    1.40
   1  -3  -4   10.25    1.33
  -1  -3   4   10.88    0.75
  -1  -3   4   11.49    1.24
   1  -3  -4    9.88    1.54
   1   3  -4   10.38    0.97
  -1   3   4   11.58    1.62
  -1   3   3    1.69    0.69
  -1  -3   3    1.97    0.46
   1  -3  -3    0.95    0.26
   1   3  -3    0.04    0.61
  -1   3   3    1.70    0.68
   1   3  -3    1.07    0.40
  -1   3   3    0.91    0.95
  -1  -3   3    0.75    0.46
  -1   3   3    0.71    0.27
  -1   3   3    1.24    0.74
   1  -3  -3    1.52    0.31
   1  -3  -3    1.05    0.83
  -1   3   3    1.27    0.64
  -1  -3   3    1.51    0.45
  -1  -3   3    1.28    0.28
   1  -3  -3    0.84    0.65
  -1   3   3    1.00    0.74
   1  -3  -3    1.12    0.28
  -1   3   3    0.69    0.66
   1  -3  -3    0.13    0.62
  -1   3   3    2.34    1.03
   1  -3  -3    0.39    0.68
  -1   3   3    1.44    0.55
  -1  -3   3    2.38    0.84
  -1   3   3    0.50    0.69
  -1   3   3    0.38    0.78
   1   3  -3    1.59    0.76
  -1  -3   3    0.96    0.72
   1  -3  -2   43.42    2.19
  -1   3   2   39.64    1.38
  -1  -3   2   38.71    2.17
  -1  -3   2   41.69    1.14
   1   3  -2   42.96    2.22
   1  -3  -2   40.76    1.92
  -1   3   2   43.64    1.59
  -1   3   2   41.06    2.02
  -1   3   2   40.90    2.22
   1  -3  -2   40.09    2.15
  -1   3   2   39.88    2.24
   1   3  -2   41.55    1.35
   1  -3  -2   42.73    1.38
   1  -3  -2   39.78    2.00
   1   3  -2   43.55    2.23
  -1   3   2   42.88    1.92
  -1   3   2   41.44    1.90
  -1  -3   2   43.96    2.24
   1  -3  -2   42.25    1.39
   1  -3  -2   41.43    2.16
  -1   3   2   45.06    2.40
   1  -3  -2   44.25    1.58
   1  -3  -2   46.03    2.37
  -1   3   2   44.51    2.27
  -1   3   2   41.08    2.24
  -1   3   2   41.29    2.30
  -1  -3   2   41.32    1.45
  -1   3   2   41.43    1.41
   1  -3  -1   70.30    1.65
  -1   3   1   68.37    2.58
  -1  -3   1   70.71    1.74
  -1   3   1   67.38    2.67
   1  -3  -1   70.15    2.33
  -1   3   1   66.38    2.62
  -1  -3   1   68.58    2.65
   1  -3  -1   65.19    2.71
  -1   3   1   67.70    2.78
   1   3  -1   68.90    2.02
  -1   3   1   67.58    2.05
   1  -3  -1   72.12    2.08
  -1   3   1   68.65    2.07
   1  -3  -1   69.82    2.57
  -1  -3   1   75.05    2.71
   1   3  -1   69.00    2.65
  -1   3   1   68.72    2.06
  -1  -3   1   71.00    2.66
   1   3  -1   66.67    2.58
   1  -3  -1   65.00    2.00
   1   3  -1   66.38    1.74
  -1  -3   1   70.52    2.75
  -1  -3   1   68.44    1.29
   1  -3  -1   69.32    2.58
  -1   3   1   67.03    2.81
   1  -3  -1   73.45    2.78
  -1   3   1   67.00    2.32
  -1   3   1   66.78    1.68
  -1   3   1   66.56    1.98
   1  -3   0  604.13    4.70
   1  -3   0  600.58    6.03
   1  -3   0  620.89    8.11
   1   3   0  598.59    6.04
  -1   3   0  591.36    7.90
   1  -3   0  615.47    7.92
  -1  -3   0  610.51    7.67
   1  -3   0  607.85    7.09
   1   3   0  603.65    7.69
   1  -3   0  600.47    6.68
  -1  -3   0  622.00    7.39
  -1   3   0  611.26    4.43
  -1  -3   0  626.88    7.33
  -1   3   0  597.59    7.30
  -1   3   0  617.94    7.20
  -1  -3   0  609.92    6.14
  -1  -3   0  602.46    7.53
  -1  -3   0  596.89    7.17
   1   3   0  605.81    7.25
  -1   3   0  614.12    6.79
   1  -3   0  602.79    7.36
  -1   3   0  610.93    6.83
  -1  -3   0  586.49    3.35
  -1   3   0  599.57    8.04
   1  -3   0  604.41    6.72
   1   3   0  598.30    7.59
  -1  -3   0  613.70    7.55
  -1  -3   0  619.29    8.03
   1  -3   1   49.91    2.03
   1  -3   1   48.72    1.63
   1   3   1   48.47    2.52
  -1  -3  -1   51.34    2.05
  -1  -3  -1   51.93    1.57
  -1  -3  -1   47.56    2.27
   1   3   1   50.70    1.57
   1  -3   1   52.27    2.55
   1   3   1   47.17    2.25
  -1   3  -1   50.19    2.19
   1   3   1   47.53    1.09
   1  -3   1   51.17    2.18
  -1  -3  -1   50.67    1.56
  -1  -3  -1   50.11    2.35
   1   3   1   51.42    2.05
  -1  -3  -1   50.46    2.24
  -1  -3  -1   48.51    2.02
   1  -3   1   49.91    2.42
   1   3   1   48.08    2.31
   1  -3   1   51.55    2.19
   1   3   1   52.75    1.61
  -1  -3  -1   50.16    2.01
  -1   3  -1   49.45    2.19
  -1  -3  -1   50.71    2.41
  -1  -3  -1   48.88    2.02
   1   3   1   51.14    2.06
   1  -3   1   48.03    1.63
   1  -3   1   47.87    2.02
  -1   3  -1   48.78    2.08
   1  -3   1   48.73    2.19
  -1  -3  -2  154.12    3.43
  -1  -3  -2  152.96    3.42
  -1  -3  -2  158.45    3.95
  -1  -3  -2  159.77    4.28
   1  -3   2  149.43    4.06
   1   3   2  155.43    4.34
   1  -3   2  157.07    3.58
   1  -3   2  154.08    3.53
   1   3   2  155.71    3.39
   1   3   2  157.62    4.23
   1  -3   2  158.75    4.14
  -1  -3  -2  154.65    4.16
   1   3   2  162.55    3.48
  -1   3  -2  155.85    4.13
  -1   3  -2  158.51    4.17
   1   3   2  152.64    3.96
  -1  -3  -2  157.47    4.25
  -1  -3  -2  161.08    3.43
  -1  -3  -2  160.85    3.52
  -1  -3  -2  156.53    3.41
   1   3   2  151.03    4.31
   1   3   2  154.33    3.62
   1   3   2  154.33    3.46
   1   3   2  151.47    4.11
   1   3   2  162.19    4.03
  -1  -3  -3  166.27    4.60
  -1  -3  -3  163.49    4.66
   1   3   3  164.78    4.71
   1   3   3  166.60    4.12
   1  -3   3  163.01    4.56
   1   3   3  162.75    4.69
  -1  -3  -3  158.50    3.45
   1   3   3  164.69    4.06
  -1   3  -3  162.81    4.53
  -1   3  -3  165.18    3.52
  -1  -3  -3  172.09    4.13
   1   3   3  158.39    3.47
   1   3   3  160.23    3.88
   1   3   3  161.42    4.52
  -1  -3  -3  164.14    4.45
   1  -3   3  160.89    3.83
  -1  -3  -3  165.82    3.56
   1  -3   3  155.99    4.46
   1   3   3  164.96    3.56
  -1  -3  -3  167.89    4.68
   1   3   3  168.98    4.57
   1   3   3  160.93    4.51
   1  -3   3  154.01    3.64
  -1  -3  -3  172.16    4.14
   1   3   3  172.26    4.73
  -1   3  -3  165.49    3.52
   1  -3   4   -0.15    0.61
  -1   3  -4   -0.56    0.73
   1   3   4   -0.13    0.63
  -1  -3  -4   -0.77    0.81
  -1  -3  -4    0.19    0.44
  -1   3  -4   -0.34    0.78
  -1  -3  -4   -0.92    0.73
   1   3   4   -1.29    1.20
   1   3   4    0.89    0.61
  -1   3  -4   -0.31    0.54
   1   3   4   -0.28    0.88
   1   3   4   -0.45    0.90
   1   3   4   -0.40    0.81
  -1  -3  -4   -0.04    0.94
   1   3   4    0.08    0.46
   1  -3   4   -1.18    1.01
  -1   3  -4    0.15    0.66
  -1  -3  -4   -0.24    0.43
   1   3   4    1.09    0.60
   1   3   4   -0.07    1.08
  -1  -3  -4   -0.06    0.96
   1  -3   4    0.45    0.44
   1   3   4   -0.12    0.55
  -1  -3  -5   82.89    2.68
  -1  -3  -5   86.57    3.74
  -1   3  -5   80.33    3.74
   1   3   5   83.11    2.98
   1   3   5   83.77    3.95
  -1   3  -5   87.22    3.31
  -1  -3  -5   89.19    4.01
   1   3   5   88.01    4.04
   1   3   5   85.53    3.78
   1  -3   5   84.07    3.00
  -1   3  -5   86.79    3.35
   1  -3   5   84.38    3.84
  -1  -3  -5   84.59    2.68
   1  -3   5   88.37    2.57
   1   3   5   82.42    3.02
  -1   3  -5   85.41    2.92
  -1   3  -5   84.20    3.34
   1   3   5   85.13    2.76
   1   3   5   81.55    3.24
   1  -3   5   78.92    2.80
   1   3   5   88.16    2.74
   1  -3   6   51.96    2.55
  -1  -3  -6   50.16    2.18
   1  -3   6   53.08    2.61
  -1   3  -6   51.72    2.84
  -1  -3  -6   47.00    2.10
   1   3   6   49.13    3.32
   1   3   6   50.51    2.24
   1   3   6   52.15    3.31
  -1  -3  -6   52.14    2.24
  -1   3  -6   54.09    2.25
   1  -3   6   51.59    2.35
  -1  -3  -6   47.86    3.13
   1   3   6   47.40    2.32
  -1  -3  -6   51.99    2.89
   1  -3   6   49.33    3.14
  -1   3  -6   55.27    3.30
   1   3   6   51.57    3.40
   1   3   6   51.00    2.59
  -1   3  -6   50.58    2.79
  -1  -3  -6   50.99    3.28
  -1   3  -7   51.20    3.10
   1   3   7   51.94    3.58
  -1  -3  -7   48.65    2.98
   1   3   7   48.42    3.52
  -1  -3  -7   53.04    3.52
   1   3   7   48.73    2.74
   1  -3   7   49.39    3.37
  -1  -3  -7   51.79    2.31
  -1  -3  -7   55.10    3.63
  -1   3  -7   51.31    3.05
  -1   3  -7   49.11    3.44
   1   3   7   51.07    3.57
  -1   3  -7   47.91    3.31
   1  -3   7   52.76    2.68
  -1   3  -7   53.23    2.09
   1   3   7   49.64    2.34
   1  -3   8    3.98    1.45
  -1  -3  -8    2.61    1.09
  -1   3  -8    5.15    1.42
   1   3   8    6.20    1.84
  -1   3  -8    5.36    1.75
   1  -3   8    4.24    1.14
  -1   3  -8    4.60    1.21
  -1  -3  -8    4.36    1.47
   1   3   8    6.87    1.39
  -1  -3  -8    1.39    1.05
   1   3   8    4.75    1.72
  -1   3  -8    3.43    1.25
   1   3   8    3.86    1.53
  -1  -3  -8    3.66    0.78
   1   3   9   28.08    3.20
  -1   3  -9   29.59    3.07
   1  -3   9   27.80    2.41
  -1  -3  -9   32.30    3.26
  -1   3  -9   27.34    2.72
  -1  -3  -9   29.58    2.81
   1   3   9   31.46    3.22
  -1   3  -9   26.81    2.56
   1  -3   9   29.91    3.01
   1   3   9   30.67    3.33
  -1   3  -9   27.26    2.90
  -1  -3  -9   33.32    3.26
  -1   3 -10    6.27    1.71
  -1  -3 -10    5.32    1.85
   1   3  10   11.66    2.51
  -1   3 -10    7.65    1.73
  -1  -3 -10    9.08    1.99
  -1   3 -10    6.85    1.68
  -1   3 -10    5.74    1.65
  -1  -3 -10    7.53    1.73
   1  -3  10    5.47    1.55
   1   3  10    6.19    1.99
   1   3  10    9.13    2.30
   1  -3  11    5.56    1.70
  -1   3 -11    7.74    1.98
   1  -4 -10   17.00    2.64
   1   4 -10   14.30    2.26
  -1  -4  10   19.43    2.63
   1   4 -10   18.34    2.53
  -1   4  10   15.93    2.34
  -1   4  10   15.16    2.64
  -1   4   9    5.81    1.70
   1  -4  -9    6.49    1.71
  -1   4   9    4.49    1.67
   1  -4  -9    6.10    1.80
  -1   4   9    8.58    2.15
  -1  -4   9    8.50    1.84
   1   4  -9    5.93    1.36
  -1   4   9    5.14    1.81
   1   4  -9    5.53    1.45
   1   4  -9    7.15    1.72
  -1   4   9    8.46    1.74
   1   4  -9    6.04    1.86
   1   4  -8   15.92    2.37
  -1  -4   8   11.70    1.43
   1   4  -8   12.38    1.93
   1   4  -8   13.72    2.01
  -1   4   8    9.13    1.67
  -1   4   8   12.01    2.15
   1   4  -8   13.91    1.75
  -1  -4   8   12.92    2.03
   1  -4  -8   15.05    2.26
  -1   4   8   10.32    2.08
   1  -4  -8   14.36    2.20
  -1   4   8    9.42    1.64
  -1   4   8   15.20    2.42
  -1  -4   7    0.66    0.90
   1   4  -7    2.05    1.40
   1   4  -7    0.97    1.08
  -1   4   7    1.31    1.26
   1  -4  -7   -0.47    0.91
  -1   4   7    0.57    1.31
  -1   4   7    2.79    1.62
  -1  -4   7    1.53    0.66
   1  -4  -7   -0.63    0.99
  -1   4   7    0.56    0.97
   1   4  -7    0.06    0.70
  -1  -4   7    0.43    0.62
  -1   4   7    0.47    0.63
  -1   4   7   -1.97    1.45
   1   4  -7   -1.43    1.11
  -1  -4   6    3.13    0.75
   1   4  -6    2.94    0.76
   1   4  -6    4.43    1.31
   1  -4  -6    3.63    1.37
   1  -4  -6    1.62    1.09
  -1   4   6    2.26    1.33
  -1   4   6    4.42    1.35
  -1   4   6    2.51    1.27
  -1   4   6    4.60    1.21
   1   4  -6    4.02    1.44
  -1   4   6    2.50    1.10
   1  -4  -6    4.24    1.31
  -1  -4   6    4.47    0.70
  -1  -4   6    2.64    1.13
   1  -4  -5   34.71    2.66
  -1   4   5   28.10    2.69
   1  -4  -5   29.58    2.59
   1  -4  -5   29.19    2.35
   1   4  -5   30.09    1.67
  -1   4   5   29.40    2.66
  -1  -4   5   29.17    1.23
   1   4  -5   27.63    2.46
  -1  -4   5   29.25    2.53
  -1   4   5   27.41    1.99
  -1   4   5   31.88    2.61
  -1   4   5   31.05    2.50
  -1   4   5   29.91    2.28
   1   4  -4    6.77    0.73
   1  -4  -4    4.74    1.19
  -1  -4   4    5.73    0.55
   1  -4  -4    4.88    1.41
  -1   4   4    8.99    1.77
  -1   4   4    5.91    0.56
   1  -4  -4    5.69    0.52
  -1   4   4    7.18    1.08
   1  -4  -4    7.64    1.25
   1   4  -4    7.27    1.42
   1  -4  -4    5.97    0.54
   1  -4  -4    5.14    0.50
  -1   4   4    7.69    1.57
  -1   4   4    5.75    1.28
  -1  -4   4    5.95    0.97
  -1   4   4    5.56    1.22
  -1  -4   4    5.66    1.23
  -1   4   3   35.08    2.61
  -1  -4   3   39.80    1.76
  -1  -4   3   39.38    1.29
   1  -4  -3   38.79    1.50
   1  -4  -3   36.20    2.57
  -1   4   3   40.18    2.19
  -1  -4   3   38.69    2.58
  -1   4   3   42.62    2.83
   1   4  -3   40.76    2.56
   1  -4  -3   37.56    2.43
   1  -4  -3   42.01    2.30
  -1   4   3   38.28    2.53
  -1   4   3   38.95    2.22
   1  -4  -3   36.99    1.48
   1  -4  -3   39.18    2.50
  -1   4   3   37.10    1.75
  -1   4   3   40.08    1.55
   1   4  -3   42.63    1.60
  -1   4   3   38.78    2.30
   1  -4  -3   41.46    1.52
   1  -4  -2   -0.01    0.42
   1  -4  -2    0.22    0.71
   1  -4  -2    0.14    0.40
  -1   4   2   -1.71    1.14
   1  -4  -2    0.51    0.47
  -1   4   2   -0.09    0.66
  -1  -4   2    0.65    1.16
   1   4  -2    0.32    0.51
  -1   4   2    0.15    0.43
  -1  -4   2    0.04    0.38
  -1  -4   2    0.06    0.34
   1  -4  -2    1.16    0.82
  -1   4   2    0.27    0.53
  -1   4   2   -0.24    0.54
   1   4  -2    0.68    0.78
  -1   4   2   -2.25    1.36
  -1   4   2    0.56    0.42
  -1  -4   2   -0.14    0.75
  -1   4   2   -0.51    0.73
  -1   4   2   -0.04    0.44
  -1   4   2    0.33    0.94
   1  -4  -2   -0.20    1.01
   1  -4  -1   11.85    1.41
  -1   4   1   12.93    1.83
   1   4  -1   11.14    1.12
  -1   4   1   12.61    1.15
  -1  -4   1   11.58    1.33
  -1  -4   1   12.31    1.47
  -1   4   1   10.65    0.71
  -1   4   1   10.61    1.59
   1   4  -1   12.04    1.41
   1  -4  -1   10.76    1.04
  -1   4   1   11.13    0.97
   1  -4  -1   10.06    1.43
  -1   4   1    9.54    1.21
   1  -4  -1   10.41    1.14
   1   4  -1   10.64    1.25
  -1  -4   1   10.46    1.32
   1  -4  -1   10.88    1.06
  -1  -4   1   10.08    0.88
  -1   4   1   11.23    0.98
  -1   4   1   11.02    1.08
   1  -4  -1   11.58    1.37
   1   4  -1    7.45    0.80
  -1  -4   1   10.92    1.37
  -1  -4   1    9.95    1.47
  -1   4   1   12.76    1.50
  -1   4   1   13.17    1.44
   1  -4  -1   11.29    0.67
  -1   4   0   61.19    2.67
  -1   4   0   57.89    1.79
   1  -4   0   60.12    3.03
   1   4   0   63.72    3.04
  -1   4   0   57.14    2.71
   1   4   0   58.13    2.26
   1  -4   0   62.71    2.36
  -1  -4   0   60.10    2.79
   1  -4   0   59.12    2.57
   1   4   0   57.75    2.64
   1  -4   0   58.37    1.45
  -1  -4   0   61.10    2.85
  -1  -4   0   62.11    2.98
  -1   4   0   62.26    2.57
  -1   4   0   58.91    1.62
  -1  -4   0   57.35    2.11
  -1   4   0   59.87    2.52
  -1  -4   0   60.66    2.66
   1  -4   0   58.12    2.80
   1  -4   0   59.80    2.48
   1  -4   0   60.98    2.53
  -1  -4   0   65.78    2.83
   1   4   0   60.42    2.98
  -1  -4   0   60.48    2.71
  -1   4  -1  331.70    6.28
  -1  -4  -1  321.04    6.45
   1   4   1  327.83    6.81
   1  -4   1  320.67    6.18
   1  -4   1  325.73    6.21
  -1  -4  -1  326.71    5.86
   1  -4   1  325.77    4.96
   1   4   1  307.76    6.51
   1  -4   1  330.00    7.08
  -1  -4  -1  332.98    4.03
   1  -4   1  317.86    5.70
  -1  -4  -1  321.88    5.82
  -1  -4  -1  320.57    6.64
  -1   4  -1  321.20    6.21
  -1  -4  -1  331.89    5.56
   1   4   1  328.95    5.81
  -1  -4  -1  321.15    5.90
   1  -4   1  319.22    4.04
  -1   4  -1  318.76    5.92
   1  -4   1  328.25    6.46
  -1   4  -1  332.79    5.86
   1   4   1  314.62    5.79
   1   4   2   60.88    1.57
   1   4   2   58.54    3.17
  -1   4  -2   62.44    2.67
  -1  -4  -2   61.91    2.25
   1   4   2   58.12    2.46
   1  -4   2   60.63    2.55
   1  -4   2   62.07    2.21
  -1  -4  -2   62.32    2.51
   1  -4   2   60.69    2.17
  -1   4  -2   60.73    1.86
  -1  -4  -2   58.36    2.99
  -1  -4  -2   60.52    2.68
   1   4   2   58.49    2.20
   1  -4   2   57.92    2.87
   1  -4   2   61.04    3.34
   1   4   2   60.75    2.80
   1   4   2   58.90    2.22
  -1   4  -2   63.51    3.00
   1  -4   2   58.36    2.47
  -1  -4  -2   58.75    3.04
  -1  -4  -2   62.23    2.49
   1   4   2   60.26    3.04
  -1  -4  -2   59.81    2.49
   1   4   3   52.77    2.30
  -1  -4  -3   51.22    2.95
   1   4   3   57.85    2.71
   1  -4   3   48.35    2.29
   1   4   3   52.58    1.94
  -1  -4  -3   54.02    2.30
   1   4   3   54.58    3.10
  -1   4  -3   52.98    1.97
  -1  -4  -3   56.12    3.10
   1  -4   3   54.18    2.40
   1   4   3   52.47    2.42
  -1  -4  -3   54.77    2.46
  -1  -4  -3   54.08    2.30
   1  -4   3   50.17    2.88
  -1   4  -3   56.80    3.06
   1   4   3   51.47    2.86
   1   4   3   51.67    3.12
  -1  -4  -3   52.98    2.29
  -1   4  -3   55.59    2.01
   1   4   3   53.51    2.47
   1   4   4  162.99    5.43
   1  -4   4  163.81    4.18
   1   4   4  164.98    4.79
   1  -4   4  177.60    4.46
   1   4   4  175.49    5.47
  -1  -4  -4  173.66    4.01
  -1   4  -4  171.96    4.77
  -1  -4  -4  173.16    5.57
  -1  -4  -4  173.53    4.88
   1   4   4  164.76    4.15
  -1  -4  -4  166.97    5.48
   1   4   4  168.28    4.08
  -1   4  -4  177.47    4.07
  -1  -4  -4  166.53    3.92
   1   4   4  168.66    4.00
  -1   4  -4  186.71    5.70
   1   4   4  171.07    4.80
  -1  -4  -4  168.30    3.96
   1  -4   4  172.49    5.51
  -1   4  -4  168.77    3.98
   1   4   4  162.07    5.65
   1  -4   5   25.28    1.97
   1   4   5   22.27    1.74
   1  -4   5   21.96    1.65
   1   4   5   23.54    2.25
  -1  -4  -5   21.30    2.25
  -1  -4  -5   19.36    2.19
  -1   4  -5   26.37    2.22
   1   4   5   20.78    1.46
   1   4   5   27.58    2.66
  -1   4  -5   23.85    2.36
  -1  -4  -5   23.18    2.06
  -1  -4  -5   19.92    1.41
   1  -4   5   24.14    2.34
   1   4   5   20.95    2.41
  -1   4  -5   21.66    1.80
   1   4   5   21.34    1.79
  -1   4  -5   24.63    1.80
  -1   4  -5   22.51    1.72
   1   4   5   23.57    2.45
  -1  -4  -5   21.03    1.45
   1  -4   6    1.94    0.61
   1   4   6    0.65    1.26
  -1  -4  -6    1.28    0.87
  -1  -4  -6    1.60    0.54
   1  -4   6    2.85    0.78
   1   4   6    1.33    1.08
   1  -4   6    0.60    1.03
   1   4   6    1.08    0.56
   1   4   6    1.46    0.55
  -1  -4  -6    1.47    1.03
  -1   4  -6    0.50    0.69
  -1   4  -6    0.74    0.96
   1   4   6    2.00    1.14
  -1   4  -6    1.76    0.74
   1   4   6    1.45    0.81
  -1   4  -6    2.27    1.11
   1   4   6    3.21    1.43
   1   4   7    2.23    1.36
   1   4   7    2.01    0.95
  -1  -4  -7    3.06    1.36
  -1  -4  -7    2.19    0.66
   1   4   7    1.77    1.50
  -1   4  -7    1.99    1.07
   1  -4   7    2.33    1.22
   1  -4   7    1.81    0.73
  -1  -4  -7   -0.18    1.02
   1   4   7    1.32    1.43
  -1   4  -7    1.76    0.94
  -1   4  -7   -0.62    1.09
  -1   4  -7    0.36    0.60
   1   4   7    0.40    1.25
   1   4   8   29.23    3.11
  -1   4  -8   34.61    3.38
  -1   4  -8   26.01    2.45
   1   4   8   25.75    3.03
  -1  -4  -8   28.53    2.99
   1   4   8   29.45    2.45
   1  -4   8   24.87    2.75
  -1   4  -8   23.97    2.72
   1   4   8   30.80    3.25
  -1  -4  -8   27.35    2.87
   1   4   8   31.35    3.09
  -1   4  -8   29.27    2.56
  -1  -4  -9    3.07    1.65
   1   4   9    6.32    2.12
   1  -4   9    1.79    1.35
  -1   4  -9    5.25    1.46
  -1  -4  -9    2.83    1.35
   1   4   9    3.48    1.68
  -1   4  -9    4.58    1.73
   1   4   9    4.05    1.78
  -1   4  -9    3.84    1.54
   1   4   9    0.59    1.49
  -1   4  -9    0.69    1.10
   1  -4  10    6.02    1.62
  -1   4 -10    6.96    1.96
  -1   4 -10    5.01    1.48
  -1   4 -10    5.56    1.61
   1   5  -9   -1.10    1.38
   1  -5  -9    2.59    1.62
  -1   5   9    1.49    1.41
   1   5  -9    1.72    1.24
  -1  -5   9    1.47    1.52
  -1   5   9    2.52    2.10
   1  -5  -9    1.86    1.45
  -1   5   9    0.01    1.02
   1   5  -9    0.68    1.20
  -1   5   9   -1.37    1.57
  -1   5   9    0.17    1.48
  -1   5   8    3.76    1.76
  -1  -5   8    0.83    1.20
   1   5  -8   -1.00    1.32
   1   5  -8    0.10    1.19
   1  -5  -8   -0.22    1.22
  -1   5   8    1.92    1.44
  -1   5   8    0.44    1.48
   1   5  -8    0.83    1.15
  -1   5   8   -0.14    1.26
  -1   5   8    2.90    1.28
   1  -5  -8    1.73    1.35
   1   5  -7    0.77    1.16
  -1   5   7    1.81    1.51
  -1   5   7    2.49    1.60
  -1  -5   7    0.27    1.09
  -1   5   7    0.37    0.70
  -1   5   7   -0.86    1.32
  -1   5   7    1.51    1.07
   1  -5  -7    0.03    1.05
  -1   5   7   -2.08    1.54
   1  -5  -7   -0.88    0.98
   1   5  -7   -0.33    0.92
   1  -5  -6    8.12    1.58
  -1  -5   6    8.94    1.70
   1  -5  -6    8.19    1.88
  -1   5   6    8.25    1.49
  -1   5   6    5.57    1.40
  -1   5   6    6.40    1.46
  -1   5   6    6.94    1.81
   1  -5  -6    7.67    1.57
   1   5  -6    6.76    1.59
  -1   5   6    8.24    1.87
   1   5  -6    7.79    1.01
   1   5  -6   10.34    1.95
   1   5  -5    4.14    0.62
   1  -5  -5    4.85    1.33
  -1  -5   5    3.76    1.20
  -1   5   5    3.82    1.20
   1   5  -5    4.81    1.44
  -1  -5   5    3.85    0.45
  -1   5   5    2.38    1.23
   1  -5  -5    6.24    1.56
   1  -5  -5    5.22    1.22
  -1   5   5    4.96    1.22
  -1  -5   5    4.19    0.57
  -1   5   5    8.02    1.85
   1  -5  -4   36.38    2.70
   1  -5  -4   43.28    3.17
   1  -5  -4   39.01    2.54
  -1   5   4   38.44    2.64
  -1  -5   4   40.31    1.39
  -1   5   4   40.12    3.12
  -1   5   4   39.87    1.63
   1   5  -4   40.06    3.02
  -1   5   4   41.58    2.61
  -1  -5   4   37.85    2.00
   1  -5  -4   38.37    1.55
   1  -5  -4   38.43    1.58
  -1   5   4   38.11    2.95
  -1   5   4   43.05    3.28
  -1   5   4   36.33    1.95
   1  -5  -4   42.27    1.62
  -1  -5   4   42.62    3.10
   1  -5  -3   26.63    2.22
   1  -5  -3   22.44    1.42
   1  -5  -3   23.69    2.24
  -1  -5   3   22.41    1.30
  -1   5   3   21.13    2.40
   1  -5  -3   23.21    2.43
   1   5  -3   24.53    1.55
  -1  -5   3   27.21    2.50
  -1   5   3   22.22    1.76
  -1   5   3   23.77    2.32
  -1   5   3   21.80    2.44
  -1   5   3   23.27    1.94
  -1   5   3   23.98    1.40
  -1   5   3   23.24    1.47
  -1   5   3   22.53    1.77
   1   5  -3   23.86    2.30
  -1  -5   3   24.67    1.23
  -1  -5   3   23.38    1.11
   1  -5  -3   22.89    1.43
   1  -5  -3   24.22    1.48
  -1  -5   3   27.91    2.80
  -1   5   2  117.58    4.80
   1  -5  -2  122.60    4.46
  -1   5   2  115.23    3.64
  -1   5   2  116.70    4.61
   1  -5  -2  120.41    4.86
   1   5  -2  114.91    4.51
  -1  -5   2  110.83    1.78
  -1  -5   2  118.69    4.86
  -1   5   2  116.09    4.85
   1   5  -2  113.33    3.35
  -1  -5   2  114.37    2.53
  -1  -5   2  122.00    2.99
   1  -5  -2  115.34    4.10
  -1   5   2  118.19    3.49
   1  -5  -2  117.29    3.41
   1  -5  -2  115.49    3.39
   1  -5  -2  120.64    3.52
  -1   5   2  111.04    2.30
  -1   5   2  119.41    3.44
  -1  -5   2  119.41    4.55
  -1   5   2  116.14    3.37
   1   5  -1   47.75    2.16
  -1   5   1   50.02    1.99
  -1   5   1   51.76    2.14
   1  -5  -1   47.16    3.08
  -1   5   1   47.15    2.90
   1   5  -1   49.32    2.89
  -1   5   1   47.47    2.44
   1   5  -1   46.68    2.40
   1  -5  -1   45.89    2.65
  -1  -5   1   48.25    2.82
  -1  -5   1   46.97    1.84
  -1   5   1   47.50    2.44
   1  -5  -1   48.19    2.43
  -1   5   1   45.54    1.89
   1  -5  -1   48.52    2.40
  -1   5   1   56.04    3.48
  -1  -5   1   50.26    2.92
   1  -5  -1   51.33    2.65
  -1  -5   1   46.29    2.98
  -1  -5   0   13.06    1.91
   1   5   0   13.49    1.40
  -1  -5   0   11.78    1.52
   1  -5   0   10.74    1.48
  -1   5   0   11.02    1.61
  -1   5   0   12.81    0.91
   1  -5   0   13.35    1.49
  -1   5   0   14.38    1.54
   1  -5   0   11.47    1.78
   1  -5   0   14.83    1.43
  -1  -5   0   12.70    1.17
   1   5   0   12.33    1.41
  -1  -5   0   12.75    1.63
   1   5   0   11.56    1.50
   1  -5   1  134.29    4.52
   1  -5   1  128.71    2.36
   1   5   1  142.02    5.12
  -1  -5  -1  135.69    4.94
  -1   5  -1  133.04    4.39
  -1  -5  -1  132.66    4.66
  -1  -5  -1  135.17    3.88
  -1  -5  -1  137.06    4.30
  -1   5  -1  135.31    2.48
   1  -5   1  130.40    4.09
  -1   5  -1  138.90    4.63
   1  -5   1  125.75    3.64
   1   5   1  129.36    4.12
   1  -5   1  130.82    5.11
   1   5   1  131.31    4.25
  -1   5  -1  135.18    4.25
   1  -5   2    0.34    0.55
  -1   5  -2    0.32    0.38
   1   5   2   -0.19    0.70
  -1  -5  -2    0.16    0.62
  -1   5  -2    0.44    0.98
  -1   5  -2    0.36    0.89
  -1  -5  -2    0.69    0.66
  -1   5  -2    0.15    0.40
   1  -5   2   -0.43    0.86
  -1  -5  -2   -0.23    0.98
  -1  -5  -2    0.03    0.56
  -1  -5  -2    1.47    1.10
   1   5   2    0.55    1.22
   1  -5   2    0.30    0.73
  -1  -5  -2    0.44    0.75
   1  -5   2   -2.54    1.64
   1  -5   2   -0.17    0.86
   1   5   3    4.79    1.05
   1   5   3    4.47    1.81
   1   5   3    2.37    0.85
   1  -5   3    3.49    0.94
   1   5   3    1.37    1.37
   1  -5   3    3.73    1.28
   1  -5   3    1.05    0.78
  -1  -5  -3    1.19    0.64
   1  -5   3    1.97    0.90
   1   5   3    2.84    1.04
  -1  -5  -3    2.41    1.04
  -1   5  -3    1.39    0.47
  -1  -5  -3    2.14    0.81
  -1  -5  -3    1.11    0.64
   1   5   3    2.39    0.51
  -1   5  -3    1.24    1.00
  -1  -5  -3    1.96    1.31
   1  -5   3    0.04    0.72
  -1  -5  -3    2.21    0.86
   1  -5   3    7.31    1.94
  -1   5  -3    2.13    0.53
   1   5   4   10.88    1.77
   1   5   4   10.30    1.87
   1   5   4    9.48    1.01
   1  -5   4    8.82    1.27
   1  -5   4   10.89    1.45
   1   5   4    8.40    1.13
  -1   5  -4    9.38    0.99
  -1   5  -4   10.20    1.02
  -1  -5  -4    9.65    1.60
  -1  -5  -4    9.88    1.16
   1   5   4    9.56    1.44
  -1  -5  -4    8.96    1.62
  -1   5  -4   10.09    1.67
   1   5   4   10.24    1.70
  -1  -5  -4    8.25    1.03
   1  -5   4    8.23    1.60
  -1  -5  -4    9.73    1.20
   1  -5   4    9.17    1.21
  -1  -5  -4   11.34    1.44
   1  -5   5   26.43    2.61
  -1   5  -5   22.99    1.64
   1   5   5   21.42    2.54
  -1  -5  -5   23.36    2.11
   1   5   5   20.42    1.79
   1   5   5   20.52    2.34
   1  -5   5   21.45    1.77
   1   5   5   19.98    1.53
   1   5   5   23.20    2.61
  -1  -5  -5   21.38    2.41
  -1  -5  -5   22.21    1.62
  -1   5  -5   21.93    2.46
  -1  -5  -5   22.31    2.47
  -1   5  -5   20.91    2.00
   1   5   5   21.93    2.13
  -1   5  -6    6.97    1.17
   1   5   6    4.07    1.52
  -1  -5  -6    7.12    1.70
  -1   5  -6    6.59    1.53
   1   5   6    6.63    1.77
   1   5   6    5.24    1.15
  -1  -5  -6    4.34    0.78
   1  -5   6    3.10    0.93
  -1  -5  -6    7.29    1.47
  -1   5  -6    5.38    1.18
   1   5   6    6.73    1.55
   1  -5   6    6.93    1.63
   1   5   6    6.88    1.77
  -1   5  -6    5.15    1.53
  -1  -5  -6    3.26    1.20
   1   5   7    2.28    1.46
  -1  -5  -7    3.91    1.40
  -1   5  -7    4.36    1.31
   1   5   7    6.09    1.78
   1   5   7    4.45    1.62
  -1   5  -7    3.91    0.94
  -1  -5  -7    4.32    1.44
  -1   5  -7    7.75    1.74
   1   5   7    5.15    1.73
   1  -5   7    3.26    1.42
  -1   5  -7    3.64    1.02
   1   5   7    4.70    1.14
  -1  -5  -8   12.78    2.24
   1   5   8   11.94    2.34
   1  -5   8   15.96    2.48
  -1  -5  -8   16.15    2.36
   1   5   8   15.76    2.57
  -1   5  -8   16.42    2.39
   1   5   8   15.31    2.60
  -1   5  -8   11.84    1.84
   1   5   8   13.04    2.20
  -1   5  -9    2.27    1.28
  -1  -5  -9    5.35    1.96
   1  -5   9    4.45    1.74
   1  -6  -9   -0.94    1.29
  -1   6   9    3.87    1.76
   1   6  -8    1.39    1.57
   1  -6  -8    2.23    1.21
  -1   6   8    2.58    1.84
  -1   6   8   -0.51    1.41
   1   6  -8    1.30    1.27
   1   6  -8    0.28    1.16
   1  -6  -8    1.35    1.22
  -1   6   8    1.53    1.18
  -1   6   8   -0.66    1.39
  -1   6   8    1.20    1.27
  -1  -6   8    1.33    1.38
  -1   6   8    4.65    2.11
   1  -6  -7    9.48    1.99
   1  -6  -7   14.14    2.25
  -1   6   7   11.82    1.95
   1   6  -7   10.75    1.97
  -1   6   7    8.22    1.97
  -1  -6   7   13.94    2.40
  -1   6   7    8.37    2.11
  -1   6   7   14.61    2.06
   1   6  -7   12.50    2.17
  -1   6   7   10.08    2.23
  -1   6   7   11.24    2.13
  -1   6   7    9.44    1.62
   1  -6  -7   13.51    2.32
  -1   6   6   11.03    2.29
   1  -6  -6    9.78    2.01
  -1   6   6    8.93    1.96
   1  -6  -6    6.21    1.53
  -1   6   6    6.52    1.43
  -1  -6   6    9.41    1.96
  -1   6   6    9.88    1.93
   1   6  -6    4.57    1.44
  -1   6   6    7.00    1.78
  -1   6   6    9.17    1.68
   1  -6  -6    8.22    1.65
  -1  -6   5   10.73    2.37
  -1   6   5    6.17    1.18
   1  -6  -5    9.11    1.93
  -1   6   5    4.44    1.73
   1  -6  -5    8.48    1.60
   1   6  -5    8.31    1.78
  -1   6   5    7.36    1.57
  -1   6   5    8.47    1.88
  -1   6   5    4.79    1.43
  -1  -6   5    9.99    1.89
   1  -6  -4    8.05    0.93
  -1   6   4   10.11    1.42
  -1  -6   4    9.07    1.82
  -1   6   4   10.77    2.07
  -1   6   4    7.81    1.77
  -1   6   4   14.96    2.39
   1   6  -4   10.91    1.90
   1  -6  -4   10.13    1.87
  -1   6   4    9.16    1.51
  -1   6   4    9.13    1.01
  -1  -6   4   10.65    2.05
   1  -6  -4    7.86    1.51
  -1  -6   3    1.76    1.14
  -1   6   3   -0.19    1.17
   1  -6  -3    1.29    0.66
  -1   6   3    0.02    0.78
  -1   6   3    0.96    0.75
   1   6  -3    2.01    0.77
   1  -6  -3    0.12    0.89
   1   6  -3    0.11    0.98
  -1   6   3    2.78    1.60
  -1   6   3    0.09    0.54
  -1  -6   3    1.93    1.32
  -1  -6   3    0.53    0.94
  -1  -6   3    0.32    0.30
   1  -6  -3   -0.27    1.09
  -1   6   3    0.72    1.51
   1  -6  -2    1.18    1.00
  -1   6   2    3.78    1.51
  -1   6   2    3.05    1.27
  -1  -6   2    2.88    1.12
  -1   6   2    2.54    0.83
   1   6  -2    1.48    0.70
   1  -6  -2    2.08    0.92
  -1   6   2    2.73    0.70
   1   6  -2    2.05    1.20
  -1  -6   2    0.24    1.23
  -1  -6   2    0.66    1.07
  -1   6   2    3.70    1.09
   1  -6  -2    0.91    1.17
   1  -6  -2    2.48    0.83
   1   6  -1    1.09    0.63
  -1  -6   1    3.48    1.53
  -1  -6   1    0.80    0.87
  -1   6   1    1.50    0.45
   1   6  -1    3.13    1.08
   1  -6  -1    3.72    1.48
   1   6  -1    1.71    0.90
   1  -6  -1    0.96    0.91
  -1   6   1    2.71    0.98
   1  -6  -1    0.30    0.76
   1  -6  -1    1.23    0.74
  -1   6   1    2.30    0.58
  -1  -6   1    1.88    0.58
  -1  -6   1    1.89    1.06
  -1   6   1    1.88    1.28
  -1  -6   0   33.33    2.58
   1  -6   0   33.23    2.42
  -1   6   0   33.74    2.68
   1  -6   0   36.41    3.09
   1   6   0   32.36    2.46
  -1  -6   0   32.37    2.49
  -1   6   0   33.31    1.29
   1  -6   0   30.03    2.30
  -1  -6   0   32.70    1.88
  -1   6   0   27.60    2.22
   1   6   0   30.77    2.37
  -1  -6   0   32.10    2.88
   1  -6   0   33.87    2.24
  -1   6   0   33.55    1.29
   1   6   1   26.59    2.74
   1  -6   1   19.50    2.32
  -1   6  -1   22.48    2.10
  -1   6  -1   18.42    0.73
  -1  -6  -1   20.98    1.72
  -1  -6  -1   22.86    2.24
   1   6   1   20.12    2.10
   1   6   1   20.22    1.97
  -1  -6  -1   22.24    2.02
   1  -6   1   24.03    2.00
  -1   6  -1   21.08    2.07
   1  -6   1   19.52    2.01
   1  -6   1   23.00    1.86
  -1  -6  -1   20.55    2.37
  -1   6  -2    5.96    1.40
  -1  -6  -2    5.77    1.15
   1  -6   2    7.72    1.26
   1  -6   2    5.76    0.64
   1   6   2    9.18    1.93
   1  -6   2    5.86    0.99
   1  -6   2    4.54    1.54
  -1  -6  -2    4.29    1.17
  -1  -6  -2    5.96    1.42
   1   6   2    5.63    1.19
  -1   6  -2    6.97    1.37
   1  -6   2    5.78    1.43
   1  -6   3   12.84    2.24
   1  -6   3   14.46    1.97
   1   6   3   10.14    1.35
   1   6   3   12.66    2.20
  -1  -6  -3   12.17    1.33
  -1  -6  -3   11.22    1.78
  -1  -6  -3   13.45    2.04
   1   6   3   10.42    2.07
   1  -6   3   10.05    1.37
  -1   6  -3   11.69    1.78
   1  -6   3   12.83    1.17
  -1  -6  -3   12.77    1.51
   1  -6   3    8.67    1.17
   1  -6   4    6.87    1.07
   1   6   4    4.97    1.48
  -1   6  -4    7.84    1.66
  -1  -6  -4    8.07    1.70
  -1  -6  -4    7.98    1.78
   1   6   4   12.35    2.47
   1  -6   4    8.44    1.26
  -1  -6  -4    7.53    1.19
   1   6   4    8.58    1.37
   1   6   4    5.41    0.99
   1  -6   4    9.72    2.14
  -1  -6  -4    8.96    1.24
   1  -6   4    8.25    1.22
   1  -6   4    9.83    1.71
   1  -6   5   49.69    2.69
   1  -6   5   51.05    4.15
  -1  -6  -5   46.24    2.40
   1   6   5   49.15    3.11
   1   6   5   47.64    4.05
  -1  -6  -5   44.96    3.59
  -1   6  -5   44.34    3.13
   1  -6   5   44.60    2.78
  -1  -6  -5   47.85    3.04
   1  -6   5   41.20    3.44
   1   6   5   47.82    3.78
   1   6   5   46.25    2.76
  -1   6  -5   44.62    3.56
  -1  -6  -5   51.99    3.78
   1  -6   6    6.37    1.28
   1   6   6    9.23    1.96
  -1  -6  -6    7.43    1.45
   1   6   6    9.93    1.78
  -1   6  -6    4.15    1.53
  -1  -6  -6    9.41    1.91
   1   6   6    9.75    2.02
   1  -6   6    4.06    1.38
  -1   6  -6    6.99    1.40
  -1  -6  -6    9.50    2.02
   1   6   6    9.47    2.24
  -1   6  -6   10.19    1.80
   1   6   7   11.32    2.41
   1   6   7    7.84    2.10
  -1   6  -7    5.24    1.28
   1   6   7    5.81    2.09
  -1  -6  -7    3.96    1.49
   1   6   7    7.99    1.81
  -1  -6  -7    5.56    1.57
  -1   6  -7    5.70    1.56
   1  -6   7    6.79    1.85
  -1   6  -7    6.20    1.60
  -1  -6  -8    3.75    1.55
  -1   6  -8    0.99    1.24
   1  -7  -7    2.48    1.34
  -1   7   7   -0.40    1.19
  -1   7   7    0.05    1.07
  -1   7   7    1.17    1.10
  -1   7   6   -1.56    1.64
   1  -7  -6    1.31    1.51
  -1   7   6   -0.07    1.49
  -1  -7   6    1.68    1.71
  -1   7   6   -0.92    1.44
   1   7  -6   -0.13    1.36
  -1   7   6   -0.08    1.01
  -1   7   6   -0.49    1.35
   1  -7  -6    0.11    1.11
  -1  -7   6    2.11    1.68
  -1  -7   5    2.65    1.88
   1  -7  -5    4.08    1.47
  -1   7   5    2.88    1.23
  -1   7   5    1.68    1.55
  -1   7   5    1.51    1.44
   1   7  -5    2.72    1.48
  -1  -7   5    0.92    1.05
   1  -7  -5    2.50    1.34
  -1   7   5    4.71    1.76
  -1   7   4   17.50    2.55
   1   7  -4   13.46    2.13
  -1   7   4   19.40    2.94
   1  -7  -4   15.50    2.12
  -1  -7   4   16.99    2.13
  -1  -7   4   15.53    2.34
  -1  -7   4   13.84    2.43
  -1   7   4   16.80    2.58
  -1   7   4   16.93    2.09
   1  -7  -4   15.96    2.46
  -1  -7   3    6.27    1.76
   1  -7  -3    6.98    1.74
  -1   7   3   10.06    2.45
  -1   7   3    6.84    1.73
   1   7  -3    6.08    1.61
   1  -7  -3    7.61    1.52
  -1  -7   3    6.55    1.62
   1  -7  -3    5.72    0.99
  -1  -7   3    6.16    1.49
  -1  -7   2   33.77    3.28
  -1  -7   2   30.16    2.63
  -1   7   2   31.96    3.01
  -1   7   2   39.36    3.68
   1  -7  -2   31.94    2.66
   1   7  -2   33.07    3.02
  -1   7   2   33.80    2.47
  -1  -7   2   31.01    2.92
   1  -7  -2   34.48    2.42
   1  -7  -2   31.29    3.18
   1   7  -2   34.12    2.46
   1  -7  -1   26.87    2.43
  -1  -7   1   24.99    2.45
   1   7  -1   27.40    2.67
   1  -7  -1   23.93    2.23
   1  -7  -1   26.24    2.92
   1  -7  -1   25.62    2.24
  -1   7   1   24.94    2.25
  -1  -7   1   23.63    2.36
  -1  -7   1   28.52    2.94
  -1   7   1   24.76    2.57
   1   7  -1   26.52    2.32
   1  -7   0    2.34    1.01
   1   7   0    3.12    1.22
  -1   7   0    1.15    1.13
   1  -7   0    3.71    1.01
  -1   7   0    4.27    1.16
  -1  -7   0    4.64    1.32
  -1  -7   0    5.01    1.35
   1  -7   0    4.55    1.65
   1  -7   0    3.32    1.14
   1   7   0    3.95    1.29
  -1  -7   0    1.15    1.18
  -1  -7  -1   38.05    3.29
  -1  -7  -1   39.21    3.15
   1   7   1   34.61    2.88
   1  -7   1   37.76    2.51
   1   7   1   33.64    2.75
  -1  -7  -1   45.15    3.08
  -1   7  -1   35.98    2.92
   1  -7   1   37.81    2.92
   1  -7   1   38.50    3.50
   1  -7   1   41.29    2.78
  -1   7  -1   36.99    2.91
   1  -7   2   -0.25    1.53
   1  -7   2    0.51    0.86
  -1  -7  -2   -0.71    0.99
   1   7   2    2.73    1.89
  -1   7  -2    0.56    1.06
  -1  -7  -2    1.24    1.26
   1   7   2   -0.77    1.16
   1   7   2   -0.78    0.87
  -1   7  -2   -1.61    1.19
   1  -7   2    1.18    0.82
  -1  -7  -2    0.93    0.88
   1  -7   2    1.00    1.00
  -1  -7  -3    0.00    1.07
   1  -7   3    0.39    1.43
   1   7   3    0.17    1.01
   1   7   3   -0.30    1.51
   1   7   3    0.09    0.79
  -1  -7  -3   -1.05    1.03
  -1   7  -3   -0.07    0.92
  -1  -7  -3    0.66    0.80
   1  -7   3    0.23    0.70
   1  -7   3    0.21    1.03
   1  -7   4    6.39    1.61
  -1   7  -4    3.16    1.40
  -1  -7  -4    5.29    1.52
   1   7   4    8.96    2.49
  -1   7  -4    3.45    1.42
   1  -7   4    5.02    1.94
  -1  -7  -4    3.34    1.45
   1   7   4    4.06    1.60
  -1  -7  -5    5.00    1.72
   1  -7   5    5.10    1.60
   1   7   5    4.43    1.74
   1   7   5    7.15    2.16
  -1   7  -5    3.69    1.48
  -1  -7  -5    3.15    1.40
  -1   7  -5    2.95    1.20
   1  -7   5    4.36    1.92
   1   7   6   -2.10    1.94
   1  -7   6    2.31    1.67
  -1   7  -6    0.85    1.24
  -1  -7  -6   -0.99    1.30
   1  -7   6    3.58    2.29
  -1  -7  -6    0.79    1.26
   1   7   6    2.21    1.84
  -1   7  -6    0.99    1.04
  -1   7  -7    1.56    1.30
  -1   8   6   -0.23    1.09
   1  -8  -5    0.66    1.01
  -1   8   4    3.02    2.02
  -1  -8   4   -0.11    1.18
   1   8  -4    1.48    1.45
   1  -8  -4   -0.43    1.08
   1  -8  -4    1.74    1.37
  -1  -8   4   -2.72    1.91
  -1   8   4    2.96    1.64
  -1  -8   3    1.39    1.75
  -1  -8   3   -0.32    1.01
  -1   8   3    5.43    2.33
  -1  -8   3   -0.42    1.10
   1   8  -3    2.20    1.34
  -1   8   3    1.98    1.32
   1  -8  -3    3.41    1.65
   1  -8  -3    0.98    1.16
   1  -8  -2    1.46    1.21
   1  -8  -2   -0.66    1.13
  -1   8   2    1.46    1.42
  -1  -8   2    0.90    1.62
  -1  -8   2    0.12    1.11
  -1  -8   2   -0.41    0.98
   1   8  -2    0.39    1.02
  -1  -8   1   -0.56    1.20
  -1  -8   1    1.31    1.12
   1   8  -1    0.18    1.15
  -1   8   1   -0.08    1.37
   1   8  -1   -1.41    1.10
   1  -8  -1    1.64    1.06
   1  -8  -1   -0.14    0.90
  -1   8   1    2.09    1.13
   1  -8  -1   -0.18    1.26
  -1  -8   1    0.99    1.30
   1  -8   0    8.12    2.14
  -1  -8   0    6.15    1.50
   1  -8   0    5.02    1.33
  -1  -8   0    8.50    1.85
   1   8   0    7.43    1.68
  -1   8   0    5.39    1.63
  -1   8   0    5.98    1.42
   1  -8   0    3.69    1.12
   1  -8   0    5.17    1.43
   1   8   0    3.94    1.50
  -1  -8   0    4.16    1.68
   1   8   1   13.58    1.94
  -1  -8  -1   15.20    2.07
   1  -8   1   17.06    2.74
   1   8   1   16.12    2.27
  -1   8  -1   15.00    2.19
   1  -8   1   12.70    1.97
  -1   8  -1   12.66    2.04
  -1  -8  -1   13.58    2.11
   1  -8   1   14.45    1.85
  -1  -8  -1   17.22    2.63
   1  -8   2   -0.34    1.06
  -1  -8  -2   -0.56    0.92
  -1  -8  -2    1.55    1.27
  -1  -8  -2   -0.05    1.28
  -1   8  -2   -1.84    1.05
   1   8   2    0.52    0.94
   1  -8   2    2.98    1.71
   1   8   2   -2.66    1.44
  -1   8  -2   -0.24    1.08
   1   8   3    4.45    1.89
  -1  -8  -3    3.40    1.64
  -1  -8  -3   -0.68    1.12
  -1   8  -3    1.70    1.19
   1   8   3   -1.53    1.44
  -1   8  -3   -0.70    1.18
   1  -8   3    0.34    1.48
   1  -8   3    2.40    1.42
  -1  -8  -4   16.02    2.61
   1   8   4   15.45    2.85
  -1  -8  -4   16.81    2.56
   1   8   4   13.13    2.38
  -1   8  -4   14.77    2.46
  -1   8  -4   15.23    2.33
   1  -8   4   15.06    2.42
  -1   8  -5    0.58    1.11
  -1   8  -6    0.89    1.23
  -1   9   2   -0.50    1.28
   1   9  -1    0.19    1.19
  -1   9   1   -0.06    1.32
  -1  -9   1   -0.55    1.14
  -1   9   0   13.00    2.37
   1   9   0   10.60    2.04
  -1  -9   0   12.58    2.17
   1  -9   0   13.42    2.14
  -1  -9   0   14.64    2.25
   1  -9   1    0.64    1.17
   1   9   1    0.14    1.30
  -1   9  -1   -1.76    1.27
   1  -9   2    2.98    1.55
  -1  -9  -2    1.39    1.25
   1   9   2    0.78    1.29
  -1   9  -2    2.17    1.39
   2   0 -11   24.07    2.99
  -2   0  11   22.09    3.06
  -2   0  11   22.74    2.91
   2   0 -11   21.64    2.88
   2   0 -11   20.91    2.84
   2   0 -10   -0.76    1.14
  -2   0  10    1.71    1.34
  -2   0  10   -0.99    1.39
   2   0 -10    0.65    1.25
   2   0 -10   -0.10    1.14
  -2   0   9    2.57    1.38
   2   0  -9    3.57    0.99
  -2   0   9    1.49    0.75
  -2   0   9   -0.79    1.32
   2   0  -9    1.79    1.21
   2   0  -9    2.22    1.22
   2   0  -9    0.98    1.10
   2   0  -8    7.80    1.51
  -2   0   8    8.26    1.77
   2   0  -8    9.87    1.17
   2   0  -8   10.73    1.83
   2   0  -8    9.64    1.14
   2   0  -8    9.07    1.71
  -2   0   8    9.79    1.78
  -2   0   8    7.66    1.56
  -2   0   8    9.12    1.15
  -2   0   8    8.22    1.07
   2   0  -7  143.75    5.19
   2   0  -7  133.19    5.08
   2   0  -7  137.46    5.05
  -2   0   7  136.94    5.11
  -2   0   7  136.75    5.14
   2   0  -7  133.82    3.67
   2   0  -7  142.76    3.78
  -2   0   7  132.35    3.68
  -2   0   7  133.18    5.05
  -2   0   7  130.09    3.67
  -2   0   6  100.76    4.05
   2   0  -6  104.73    2.99
  -2   0   6  100.96    3.48
  -2   0   6   98.94    2.93
   2   0  -6  102.22    4.07
   2   0  -6  105.95    3.01
   2   0  -6  102.81    4.15
  -2   0   6  105.25    3.01
   2   0  -6  106.11    4.10
  -2   0   6   99.12    4.02
   2   0  -5   53.19    2.68
   2   0  -5   50.67    2.67
  -2   0   5   48.84    2.59
  -2   0   5   47.45    1.86
  -2   0   5   46.48    2.17
   2   0  -5   49.35    1.89
  -2   0   5   49.30    2.57
   2   0  -5   48.12    2.65
  -2   0   5   45.01    2.54
   2   0  -5   50.35    1.91
  -2   0   5   47.35    1.87
   2   0  -5   48.35    2.56
   2   0  -5   47.37    1.27
  -2   0   5   47.48    1.30
  -2   0   5   50.15    2.63
   2   0  -4  176.23    4.33
   2   0  -4  169.59    4.32
  -2   0   4  174.18    3.62
  -2   0   4  166.11    4.22
   2   0  -4  172.19    4.27
  -2   0   4  169.13    3.29
  -2   0   4  171.97    4.32
  -2   0   4  168.90    4.29
   2   0  -4  168.34    4.21
   2   0  -4  170.05    4.22
  -2   0   4  167.46    3.12
  -2   0   4  177.40    4.32
  -2   0   4  172.19    3.16
   2   0  -4  170.18    3.15
   2   0  -4  163.65    3.08
   2   0  -4  173.63    2.63
  -2   0   4  171.61    2.66
  -2   0   4  167.65    4.19
  -2   0   4  173.30    4.36
  -2   0   4  175.26    4.30
  -2   0   3  691.58    7.59
   2   0  -3  662.02    7.29
   2   0  -3  675.55    7.63
  -2   0   3  693.47    7.58
  -2   0   3  666.23    5.66
  -2   0   3  686.94    7.44
   2   0  -3  675.58    7.58
  -2   0   3  704.45    7.74
   2   0  -3  678.64    6.21
  -2   0   3  668.48    5.69
   2   0  -3  692.04    7.52
  -2   0   3  669.98    5.69
   2   0  -3  681.27    5.65
  -2   0   3  699.17    5.89
   2   0  -3  691.10    5.48
  -2   0   3  681.43    5.54
  -2   0   3  684.76    6.32
   2   0  -3  692.65    7.61
  -2   0   3  686.97    7.60
  -2   0   2 3178.20   12.15
   2   0  -2 3212.88   13.94
   2   0  -2 3142.06   11.46
  -2   0   2 3092.52   14.29
  -2   0   2 3165.31   11.49
  -2   0   2 3163.61   14.05
  -2   0   2 3145.43   11.52
   2   0  -2 3174.19   11.47
  -2   0   2 3173.57   14.02
   2   0  -2 3186.98   13.91
  -2   0   2 3161.19   14.54
  -2   0   2 3232.75   11.75
   2   0  -2 3152.47   11.98
   2   0  -2 3122.58   14.41
  -2   0   2 3178.10   13.55
  -2   0   1  340.44    3.71
   2   0  -1  332.87    3.71
  -2   0   1  339.93    3.80
   2   0  -1  340.89    3.82
   2   0  -1  327.31    3.74
   2   0  -1  337.58    4.04
   2   0  -1  333.83    3.54
   2   0  -1  337.38    3.78
  -2   0   1  335.55    3.81
  -2   0   1  338.87    4.36
  -2   0   1  338.37    3.82
   2   0  -1  337.64    3.79
  -2   0   1  335.15    3.58
  -2   0   1  330.98    4.06
  -2   0   1  338.51    2.45
   2   0  -1  337.68    4.36
   2   0   0  113.49    2.43
  -2   0   0  113.20    2.37
   2   0   0  110.60    2.36
   2   0   0  113.64    2.55
  -2   0   0  108.42    2.52
  -2   0   0  111.81    2.36
   2   0   0  110.04    2.38
  -2   0   0  112.37    2.46
  -2   0   0  113.36    1.69
   2   0   1  978.98    7.89
   2   0   1  988.14    4.55
  -2   0  -1  970.45    6.12
  -2   0  -1  984.14    7.60
   2   0   1  980.80    7.66
  -2   0  -1  976.98    7.58
   2   0   1  974.69    7.64
  -2   0  -1  940.79    7.10
   2   0   2  362.50    4.50
   2   0   2  362.67    5.15
  -2   0  -2  376.68    4.54
  -2   0  -2  362.47    4.27
   2   0   2  353.48    4.31
  -2   0  -2  380.63    5.19
   2   0   2  360.82    3.38
  -2   0  -2  368.84    5.16
  -2   0  -2  372.41    5.05
   2   0   2  364.59    5.17
  -2   0  -3  347.39    4.55
  -2   0  -3  347.70    4.22
  -2   0  -3  345.26    4.83
   2   0   3  349.96    5.57
  -2   0  -3  352.62    4.45
  -2   0  -3  343.82    5.81
  -2   0  -3  352.47    5.53
   2   0   3  348.60    4.93
  -2   0  -3  358.44    5.56
  -2   0  -3  355.52    5.90
  -2   0  -3  345.74    4.55
   2   0   3  348.01    4.27
   2   0   3  349.75    5.58
  -2   0  -3  353.27    5.51
  -2   0  -3  353.62    5.52
   2   0   3  350.33    4.49
  -2   0  -4   18.29    1.37
   2   0   4   18.32    1.49
   2   0   4   19.69    1.64
  -2   0  -4   18.10    1.47
  -2   0  -4   19.06    1.26
  -2   0  -4   18.82    1.30
   2   0   4   17.50    1.36
  -2   0  -4   20.49    1.36
  -2   0  -4   20.43    1.54
  -2   0  -4   19.60    1.49
  -2   0  -4   16.82    1.52
  -2   0  -4   21.15    1.76
  -2   0  -4   19.10    1.47
   2   0   4   18.63    1.24
   2   0   4   17.89    1.07
  -2   0  -4   19.09    1.09
  -2   0  -5    4.99    0.99
  -2   0  -5    5.43    0.68
  -2   0  -5    4.76    1.01
  -2   0  -5    5.20    0.95
  -2   0  -5    4.47    0.88
   2   0   5    4.26    0.82
  -2   0  -5    4.17    0.95
   2   0   5    4.60    1.00
  -2   0  -5    5.70    1.02
  -2   0  -5    4.76    1.17
   2   0   5    5.29    1.23
   2   0   5    4.82    0.98
   2   0   5    4.61    0.60
  -2   0  -5    5.79    1.01
  -2   0  -6    9.17    1.38
  -2   0  -6   10.17    1.35
  -2   0  -6   11.65    1.82
  -2   0  -6   11.05    1.38
  -2   0  -6   10.04    1.35
   2   0   6   13.03    1.82
   2   0   6   11.01    0.80
   2   0   6   10.60    1.39
   2   0   6   11.61    1.40
  -2   0  -7   16.41    1.79
  -2   0  -7   17.53    1.84
  -2   0  -7   17.71    2.14
  -2   0  -7   15.04    1.74
   2   0   7   18.18    1.89
   2   0   7   15.86    2.00
  -2   0  -7   15.05    1.59
  -2   0  -8    2.56    1.12
  -2   0  -8    3.16    1.45
   2   0   8    0.35    1.27
  -2   0  -8    1.34    0.95
   2   0   8    2.06    0.95
  -2   0  -8    1.87    1.04
  -2   0  -9   21.85    2.38
   2   0   9   18.15    2.08
  -2   0  -9   22.01    2.66
  -2   0  -9   21.85    2.28
  -2   0  -9   19.82    2.17
   2   0   9   20.86    2.60
  -2   0 -10   -1.14    1.07
   2   0  10   -0.77    0.87
  -2   0 -10    1.14    1.50
  -2   0 -10   -0.50    0.88
   2   0  10   -0.91    1.18
  -2   0 -10    1.17    1.12
   2   0  11    3.47    1.78
  -2   0 -11    1.02    1.13
   2  -1 -11    3.07    1.46
  -2   1  11    2.53    1.35
  -2  -1  11   -0.88    1.38
   2   1 -11    3.99    1.50
   2   1 -11    4.49    1.67
  -2  -1  11    1.21    1.50
   2  -1 -11    1.28    1.20
   2  -1 -11    2.96    1.60
  -2   1  11    0.94    1.28
   2   1 -11    1.41    1.34
   2  -1 -10   46.22    3.88
   2  -1 -10   41.81    3.54
   2   1 -10   44.98    3.67
   2   1 -10   41.04    2.82
   2  -1 -10   44.22    3.65
   2   1 -10   45.96    3.67
  -2  -1  10   38.45    2.74
  -2   1  10   35.31    3.45
  -2  -1  10   42.65    3.62
  -2   1  10   43.13    3.63
  -2  -1  10   37.19    3.34
  -2   1  10   43.33    3.75
   2   1 -10   39.50    3.56
   2  -1  -9    5.10    1.48
   2   1  -9    8.62    1.80
  -2  -1   9    5.73    1.70
   2  -1  -9    6.30    1.61
  -2   1   9    4.89    1.65
   2   1  -9    6.18    1.25
  -2  -1   9    3.45    1.29
  -2   1   9    7.91    1.70
  -2   1   9    6.39    1.64
   2   1  -9    4.75    1.37
   2  -1  -9    8.14    1.81
   2   1  -9    6.81    1.51
  -2  -1   9    6.61    1.21
  -2  -1   8   31.60    2.26
   2  -1  -8   31.44    2.84
   2   1  -8   28.03    2.66
   2  -1  -8   31.46    2.75
  -2   1   8   32.81    2.91
  -2  -1   8   27.60    2.54
  -2  -1   8   31.75    2.67
   2  -1  -8   27.68    2.66
   2   1  -8   30.69    2.67
   2   1  -8   30.16    2.69
   2  -1  -8   33.11    1.67
  -2   1   8   28.02    2.60
   2   1  -8   31.58    2.23
  -2   1   8   29.51    1.61
  -2   1   8   31.63    2.81
   2  -1  -7  236.31    3.93
  -2   1   7  253.32    7.13
   2   1  -7  237.87    6.88
   2  -1  -7  244.19    6.87
  -2  -1   7  240.65    5.36
  -2   1   7  233.30    6.84
  -2  -1   7  240.54    6.65
   2   1  -7  247.32    6.76
   2  -1  -7  248.15    6.81
   2  -1  -7  249.68    4.05
   2  -1  -7  247.35    6.99
  -2   1   7  245.92    6.73
   2  -1  -7  250.69    4.04
   2   1  -7  245.28    5.69
  -2  -1   7  229.66    5.53
  -2  -1   7  237.62    6.45
  -2   1   7  244.92    4.07
   2   1  -7  246.19    6.57
  -2  -1   6    3.17    1.15
   2   1  -6    2.15    0.80
  -2   1   6    1.76    1.02
   2  -1  -6    3.00    0.52
  -2   1   6    1.69    1.15
  -2  -1   6    3.12    0.78
  -2   1   6    2.32    0.41
   2   1  -6    3.59    1.13
  -2   1   6    2.30    0.48
   2  -1  -6    3.12    1.07
   2   1  -6    4.87    1.21
  -2  -1   6    3.39    1.48
  -2   1   6    1.81    1.13
   2  -1  -6    3.83    1.20
   2  -1  -6    3.40    1.12
   2   1  -6    2.54    1.17
  -2   1   6    3.26    0.55
   2   1  -6    3.53    0.92
   2   1  -6    2.39    0.33
  -2  -1   6    2.75    0.77
   2  -1  -6    2.64    0.48
  -2  -1   6    2.31    0.87
   2   1  -5  127.72    3.57
   2  -1  -5  129.44    4.27
  -2   1   5  122.75    2.18
  -2  -1   5  131.87    3.99
   2   1  -5  125.22    4.19
   2  -1  -5  128.50    4.14
  -2   1   5  122.88    4.22
  -2   1   5  123.26    2.50
  -2  -1   5  125.70    3.57
  -2   1   5  130.05    3.97
  -2  -1   5  126.27    3.94
   2  -1  -5  130.00    4.30
   2   1  -5  127.88    3.90
   2   1  -5  125.55    3.54
   2  -1  -5  121.82    4.04
   2  -1  -5  126.65    2.21
  -2   1   5  122.42    4.06
  -2  -1   5  119.30    4.13
   2   1  -5  123.04    4.05
  -2  -1   5  121.26    2.98
  -2  -1   5  123.45    3.51
   2  -1  -5  125.09    2.20
  -2   1   5  124.19    2.21
   2   1  -5  127.12    2.34
  -2   1   5  127.71    4.09
  -2  -1   4    3.27    0.53
  -2  -1   4    1.52    0.69
   2  -1  -4    1.92    0.31
   2   1  -4    2.11    0.70
   2  -1  -4    2.70    0.88
  -2   1   4    3.02    0.81
  -2   1   4    1.56    0.67
   2  -1  -4    1.92    0.71
  -2   1   4    1.88    0.28
  -2  -1   4    2.65    0.91
   2   1  -4    2.04    0.84
   2   1  -4    2.49    0.65
   2   1  -4    2.37    0.86
  -2   1   4    3.17    0.82
   2  -1  -4    2.32    0.88
  -2   1   4    1.23    0.70
  -2  -1   4    1.65    0.66
  -2  -1   4    1.98    0.37
   2  -1  -4    1.99    0.85
   2   1  -4    2.19    0.57
  -2   1   4    1.97    0.74
  -2   1   4    1.69    0.45
   2   1  -4    2.15    0.74
  -2   1   4    2.69    0.78
  -2  -1   4    2.27    0.67
  -2   1   4    1.81    0.69
  -2   1   4    1.78    0.29
   2   1  -4    2.23    0.44
  -2   1   4    1.27    0.62
  -2   1   4    2.53    0.86
  -2  -1   4    2.24    0.62
  -2   1   4    1.87    0.70
  -2  -1   4    2.25    0.69
   2   1  -4    1.90    0.82
  -2   1   4    1.85    0.30
   2  -1  -4    1.82    0.77
   2  -1  -3  164.95    3.68
   2  -1  -3  173.10    4.07
  -2  -1   3  161.64    1.93
  -2   1   3  175.13    3.94
   2   1  -3  171.56    3.56
  -2   1   3  167.15    3.67
   2  -1  -3  171.03    3.89
  -2  -1   3  172.41    3.59
  -2  -1   3  169.01    3.57
  -2   1   3  178.38    3.90
   2   1  -3  168.81    3.79
   2   1  -3  172.67    3.56
  -2   1   3  170.76    4.01
  -2   1   3  174.57    3.99
  -2   1   3  173.96    3.88
  -2   1   3  166.94    3.62
   2  -1  -3  171.77    3.08
   2   1  -3  172.12    2.99
   2  -1  -3  165.53    1.85
  -2  -1   3  167.22    3.53
  -2   1   3  167.65    3.06
   2  -1  -3  166.93    3.80
  -2   1   3  161.81    3.85
  -2  -1   3  173.27    2.46
  -2  -1   3  167.71    3.82
   2  -1  -3  164.98    3.97
  -2   1   3  164.08    1.88
  -2   1   3  160.81    1.85
   2   1  -3  173.54    3.84
  -2   1   3  163.66    1.88
  -2   1   3  175.72    3.80
   2   1  -3  173.34    3.58
  -2  -1   3  169.08    3.00
  -2  -1   3  167.60    3.85
   2   1  -3  175.82    3.94
   2   1  -3  170.86    3.85
   2   1  -2  112.51    1.53
   2  -1  -2  113.03    2.85
  -2   1   2  109.87    2.82
   2   1  -2  111.52    2.72
  -2   1   2  114.55    2.82
   2   1  -2  116.44    2.74
  -2   1   2  113.83    2.92
  -2   1   2  113.82    2.96
  -2  -1   2  112.83    2.76
   2  -1  -2  111.40    1.63
  -2  -1   2  112.27    2.52
  -2   1   2  107.60    1.62
   2  -1  -2  114.55    2.99
  -2   1   2  115.75    2.72
   2   1  -2  110.67    2.70
  -2  -1   2  113.10    2.76
   2  -1  -2  108.80    2.73
   2   1  -2  113.98    2.67
  -2  -1   2  113.69    2.74
  -2  -1   2  111.45    2.70
   2  -1  -2  112.91    2.53
   2  -1  -2  109.23    2.64
   2  -1  -2  114.59    1.67
  -2   1   2  114.70    2.85
  -2   1   2  113.22    2.57
  -2   1   2  109.89    1.66
  -2  -1   2  110.72    2.71
  -2   1   2  113.89    2.59
   2   1  -2  117.06    2.54
   2   1  -2  112.33    1.60
  -2  -1   2  105.89    2.47
   2  -1  -2  107.25    2.52
  -2   1   2  109.57    2.66
   2  -1  -2  117.63    2.90
  -2   1   2  114.10    2.57
   2   1  -1  900.77    6.02
   2  -1  -1  908.23    7.24
   2  -1  -1  905.91    7.48
   2  -1  -1  899.63    7.46
  -2   1   1  911.46    7.36
   2  -1  -1  904.32    7.34
   2  -1  -1  910.32    6.25
   2  -1  -1  911.28    6.11
  -2   1   1  902.73    5.63
  -2   1   1  928.98    7.61
  -2   1   1  900.31    5.64
  -2   1   1  896.69    7.56
   2  -1  -1  919.41    5.67
   2   1  -1  902.65    7.18
  -2  -1   1  921.95    7.41
  -2   1   1  893.37    7.35
  -2   1   1  888.05    6.11
   2   1  -1  902.78    7.40
  -2  -1   1  919.66    7.37
   2   1  -1  906.67    6.83
   2   1  -1  903.84    6.02
   2  -1  -1  915.21    5.65
  -2  -1   1  882.68    5.98
  -2   1   1  900.17    6.23
  -2   1   1  891.86    7.18
  -2  -1   1  907.43    6.93
   2   1  -1  898.33    7.40
  -2  -1   1  907.33    7.24
  -2   1   1  898.83    6.13
  -2   1   1  899.79    6.33
   2  -1  -1  892.56    6.11
   2   1   0   31.55    0.92
   2   1   0   31.60    0.78
   2  -1   0   29.04    1.17
  -2  -1   0   31.69    0.80
  -2   1   0   29.28    0.84
   2  -1   0   30.02    1.47
   2   1   0   29.01    0.92
  -2   1   0   27.90    1.42
   2  -1   0   30.51    0.76
  -2  -1   0   29.60    0.87
   2   1   0   28.05    1.29
  -2   1   0   30.11    0.81
  -2  -1   0   33.56    1.36
  -2   1   0   32.75    1.68
   2  -1   0   31.00    1.30
  -2  -1   0   30.31    0.91
  -2   1   0   31.28    1.30
   2   1   0   29.86    1.44
   2  -1   0   34.28    1.65
  -2  -1   0   29.63    1.40
   2   1   0   29.84    0.77
   2  -1   0   30.54    1.39
  -2   1   0   26.84    1.21
   2  -1   0   28.78    1.26
  -2  -1   0   30.30    1.40
   2   1   0   29.25    1.44
  -2   1   0   30.04    1.41
   2  -1   0   30.42    1.24
   2   1   0   31.94    1.46
  -2  -1   0   31.57    1.48
  -2  -1   0   31.19    1.35
   2  -1   0   29.73    1.44
   2   1   1  236.15    3.94
   2   1   1  251.21    4.07
  -2   1  -1  254.33    4.08
  -2   1  -1  251.00    3.92
  -2  -1  -1  242.14    3.45
   2   1   1  245.46    3.52
   2   1   1  243.78    3.16
  -2   1  -1  252.63    4.03
  -2  -1  -1  241.07    4.01
   2  -1   1  246.20    4.16
  -2  -1  -1  252.08    4.00
   2   1   1  244.19    3.84
  -2  -1  -1  243.27    3.15
   2  -1   1  251.33    4.04
   2  -1   1  241.61    3.82
   2   1   1  247.64    3.93
  -2  -1  -1  248.26    3.88
  -2  -1  -1  244.74    3.99
  -2   1  -1  250.98    4.01
   2   1   2  462.47    3.47
   2   1   2  447.74    5.35
  -2  -1  -2  453.42    5.85
   2  -1   2  455.22    3.58
   2   1   2  455.04    5.35
  -2   1  -2  466.84    6.12
   2   1   2  452.96    5.90
   2   1   2  441.56    5.67
  -2  -1  -2  467.64    5.81
  -2  -1  -2  446.69    5.96
  -2  -1  -2  448.59    3.07
  -2   1  -2  455.37    5.96
   2  -1   2  467.36    6.17
  -2   1  -2  459.43    3.56
  -2  -1  -2  466.98    6.23
  -2   1  -2  452.80    5.01
  -2  -1  -2  454.77    5.72
   2   1   2  459.03    5.84
   2  -1   2  456.94    5.29
  -2   1  -2  468.86    5.40
  -2  -1  -2  467.44    5.99
   2   1   2  460.40    5.43
  -2   1  -2  454.61    6.10
  -2  -1  -2  460.94    3.48
  -2  -1  -2  469.47    5.45
  -2   1  -2  464.42    3.55
  -2   1  -3   54.44    2.41
   2   1   3   51.36    2.25
  -2  -1  -3   56.56    2.44
  -2  -1  -3   51.91    1.61
  -2  -1  -3   53.71    1.53
   2   1   3   54.19    2.20
  -2   1  -3   53.25    2.28
   2  -1   3   49.91    1.61
  -2   1  -3   51.47    2.28
   2   1   3   51.35    2.10
   2   1   3   52.59    1.95
  -2  -1  -3   52.42    2.22
  -2  -1  -3   51.26    2.31
   2   1   3   52.94    2.15
   2  -1   3   53.39    2.36
  -2   1  -3   52.44    2.33
  -2  -1  -3   51.09    2.10
   2  -1   3   52.18    1.85
  -2   1  -3   51.87    1.62
   2   1   3   54.20    2.23
  -2   1  -3   53.41    1.64
  -2   1  -3   52.12    1.96
  -2  -1  -3   54.04    2.39
  -2  -1  -3   48.80    2.09
   2   1   3   53.94    2.48
  -2   1  -3   52.60    1.87
  -2   1  -3   55.75    2.38
   2   1   3   53.24    1.92
  -2  -1  -3   52.93    1.87
   2   1   4  163.57    4.38
   2   1   4  157.76    4.24
   2   1   4  151.12    3.86
  -2   1  -4  158.73    4.34
  -2  -1  -4  157.71    3.21
  -2  -1  -4  153.73    3.35
   2   1   4  146.81    3.97
  -2   1  -4  155.58    3.14
  -2  -1  -4  145.36    3.80
  -2   1  -4  156.24    3.35
  -2  -1  -4  155.70    3.92
  -2   1  -4  156.26    4.30
  -2   1  -4  155.13    4.26
  -2  -1  -4  154.00    4.44
   2   1   4  150.79    3.75
  -2   1  -4  154.11    4.32
  -2   1  -4  154.48    3.32
  -2   1  -4  160.73    4.28
  -2   1  -4  158.23    3.84
  -2  -1  -4  155.75    4.43
  -2  -1  -4  159.24    4.44
   2   1   4  149.28    4.42
   2  -1   4  155.03    3.88
   2  -1   4  152.63    3.35
  -2  -1  -4  157.70    4.19
   2  -1   4  157.48    3.18
   2  -1   4  154.59    4.29
   2   1   4  153.92    3.92
   2   1   4  148.92    3.22
   2  -1   5   97.81    3.12
  -2  -1  -5  101.44    3.17
  -2   1  -5  106.24    3.63
  -2  -1  -5  105.39    3.46
  -2   1  -5  102.02    3.92
  -2  -1  -5   99.78    3.66
   2   1   5   97.65    3.36
  -2   1  -5  103.79    2.56
  -2  -1  -5   99.50    3.01
  -2  -1  -5  100.69    3.39
  -2   1  -5  106.13    3.52
   2  -1   5  101.41    3.78
   2   1   5  100.70    3.99
   2  -1   5  102.31    3.58
   2   1   5  103.50    3.47
  -2   1  -5   99.39    3.71
   2   1   5   96.27    2.59
  -2   1  -5  106.47    3.17
  -2  -1  -5   99.92    3.42
  -2   1  -5  105.70    3.67
  -2  -1  -5  100.11    4.01
  -2   1  -6    8.08    1.43
  -2  -1  -6    5.81    1.15
   2   1   6    5.33    0.72
   2  -1   6    4.97    1.00
   2   1   6    4.72    1.03
   2  -1   6    5.32    1.26
  -2  -1  -6    5.60    1.40
  -2   1  -6    6.88    1.10
  -2   1  -6    6.50    0.69
  -2  -1  -6    5.09    0.96
   2  -1   6    5.70    1.33
  -2   1  -6    7.45    1.61
   2   1   6    5.10    1.49
  -2   1  -6    5.38    1.25
  -2  -1  -6    6.13    1.12
  -2  -1  -6    5.42    1.27
   2   1   7    0.53    0.74
  -2  -1  -7    1.21    0.71
  -2   1  -7    1.47    0.84
  -2   1  -7    1.10    0.29
  -2  -1  -7   -0.03    0.97
  -2  -1  -7    0.70    0.86
  -2   1  -7    0.63    0.97
  -2   1  -7    0.10    0.87
   2   1   7    0.85    1.12
   2  -1   7    0.11    0.98
  -2   1  -7    1.59    0.98
   2   1   7    1.08    0.35
   2  -1   7    3.41    1.17
  -2  -1  -7    1.20    0.94
  -2  -1  -8   69.86    3.60
  -2  -1  -8   63.18    3.72
  -2   1  -8   70.15    4.17
  -2   1  -8   67.66    3.45
  -2  -1  -8   68.99    4.26
   2   1   8   70.43    4.28
   2  -1   8   65.89    3.77
   2   1   8   66.87    3.45
  -2   1  -8   64.08    3.68
  -2  -1  -8   63.16    3.29
   2  -1   8   65.74    3.80
  -2   1  -8   71.63    3.90
  -2  -1  -9   19.52    2.18
  -2   1  -9   19.83    2.33
  -2  -1  -9   18.35    2.48
  -2   1  -9   19.04    2.46
   2   1   9   17.10    1.95
  -2   1  -9   19.37    2.08
  -2  -1  -9   14.97    2.04
  -2  -1  -9   19.09    1.98
   2   1   9   17.33    2.39
   2  -1   9   18.03    2.30
  -2   1  -9   18.89    2.18
   2  -1   9   21.31    2.39
  -2  -1 -10    2.64    1.45
  -2   1 -10    1.27    1.34
   2  -1  10    0.75    1.14
  -2   1 -10   -0.35    1.04
  -2  -1 -10    0.80    0.90
   2   1  10    2.47    1.44
   2  -1  10    1.27    1.27
   2   1  10    0.33    1.18
  -2   1 -10    2.24    1.07
  -2   1 -10    2.37    1.58
  -2   1 -11    1.67    1.26
   2   1  11    1.69    1.54
   2  -1  11    4.39    1.95
   2  -1  11    1.60    1.17
  -2   1 -11    2.50    1.24
   2  -2 -11    3.54    1.37
  -2  -2  11    8.02    2.14
   2   2 -11    6.75    1.81
  -2   2  11    6.52    1.86
  -2  -2  11    4.45    1.53
   2   2 -11    5.63    1.67
  -2  -2  10    7.73    1.53
   2   2 -10    6.84    1.73
   2   2 -10    4.84    1.22
   2   2 -10    8.34    1.78
   2  -2 -10    7.93    1.80
  -2  -2  10    6.62    1.72
  -2   2  10    7.11    1.92
   2  -2 -10    8.43    1.90
   2  -2 -10    9.93    2.03
  -2   2  10   10.63    2.10
  -2  -2  10    5.03    1.54
  -2   2  10   11.79    2.36
   2   2 -10    8.70    1.81
   2   2  -9    0.49    1.26
   2   2  -9   -1.36    1.11
  -2   2   9   -0.23    1.35
  -2  -2   9    0.80    1.09
   2  -2  -9    1.26    1.35
   2  -2  -9   -0.34    1.22
   2   2  -9    2.29    1.11
   2   2  -9    1.01    0.90
  -2  -2   9    2.00    1.11
  -2   2   9   -0.49    1.06
  -2  -2   9    1.82    1.17
  -2   2   9    1.73    1.21
   2  -2  -9    0.29    1.14
   2   2  -8    1.53    1.18
  -2  -2   8    4.38    1.18
   2  -2  -8    4.82    1.54
  -2   2   8    6.00    1.58
  -2  -2   8    2.35    1.03
   2  -2  -8    4.48    1.38
   2   2  -8    3.95    1.24
   2   2  -8    3.56    1.11
  -2   2   8    4.05    1.28
  -2  -2   8    4.27    1.30
  -2   2   8    3.92    1.49
   2   2  -8    5.18    1.52
   2  -2  -8    3.18    1.21
  -2  -2   7   68.93    2.60
   2   2  -7   70.85    3.93
   2   2  -7   76.02    3.61
   2  -2  -7   78.18    4.12
   2  -2  -7   75.76    4.04
  -2   2   7   78.42    4.20
  -2   2   7   68.74    3.68
  -2  -2   7   73.21    3.52
   2   2  -7   72.09    3.47
   2  -2  -7   75.86    3.94
   2   2  -7   67.76    3.69
  -2   2   7   73.90    4.01
  -2   2   7   73.90    2.20
   2   2  -7   74.04    1.82
  -2  -2   7   70.73    3.51
   2  -2  -6   22.15    2.14
   2  -2  -6   24.03    2.23
   2   2  -6   22.47    1.20
  -2  -2   6   20.00    0.87
   2  -2  -6   25.22    2.32
  -2   2   6   21.95    2.19
  -2  -2   6   22.04    1.34
  -2  -2   6   22.98    1.96
   2   2  -6   24.88    1.97
  -2   2   6   24.26    2.21
  -2  -2   6   21.54    1.95
   2   2  -6   20.25    1.90
   2   2  -6   23.17    2.24
   2   2  -6   23.80    2.09
  -2   2   6   22.62    1.36
  -2   2   6   23.15    2.23
   2   2  -5    4.68    1.22
  -2  -2   5    3.19    0.90
  -2   2   5    2.47    1.00
   2  -2  -5    2.26    1.01
  -2  -2   5    1.54    0.43
   2  -2  -5    2.08    1.01
   2  -2  -5    2.05    1.07
   2  -2  -5    2.23    1.00
   2  -2  -5    3.23    1.17
   2   2  -5    2.88    0.82
   2   2  -5    2.14    0.81
  -2  -2   5    1.58    0.71
   2   2  -5    2.09    1.07
  -2   2   5    1.13    0.96
  -2   2   5    1.44    0.94
  -2  -2   5    2.64    0.89
  -2  -2   5    1.32    0.82
  -2   2   5    1.31    0.59
   2   2  -5    1.68    0.52
   2   2  -4    5.06    0.98
   2   2  -4    2.99    0.82
  -2   2   4    5.83    1.02
  -2   2   4    3.15    0.81
   2   2  -4    4.68    1.10
  -2  -2   4    3.12    0.83
  -2  -2   4    3.21    0.35
   2   2  -4    3.84    1.02
   2  -2  -4    3.67    0.98
   2  -2  -4    3.82    0.87
   2  -2  -4    3.27    0.93
   2   2  -4    3.97    0.82
   2   2  -4    4.36    0.84
  -2   2   4    2.13    0.75
  -2  -2   4    2.86    0.72
  -2   2   4    3.40    0.95
  -2   2   4    3.45    0.78
  -2   2   4    2.68    0.87
  -2  -2   4    5.12    0.98
   2  -2  -4    3.54    0.96
  -2   2   4    4.55    0.90
  -2   2   4    3.56    0.99
  -2   2   4    2.90    0.86
   2  -2  -4    3.19    1.02
   2   2  -4    4.68    0.68
  -2  -2   4    3.41    0.72
  -2   2   4    3.43    0.92
  -2   2   4    3.70    0.61
   2   2  -4    2.90    0.72
  -2  -2   4    3.76    0.78
   2  -2  -4    3.80    0.97
   2  -2  -4    3.92    0.99
  -2   2   3    0.25    0.50
   2  -2  -3    0.92    0.78
   2  -2  -3    0.39    0.58
  -2   2   3    0.49    0.62
   2  -2  -3    0.26    0.71
  -2   2   3    0.06    0.78
  -2   2   3   -0.08    0.49
   2  -2  -3    0.33    0.61
  -2   2   3   -0.25    0.71
  -2  -2   3   -1.09    0.72
  -2  -2   3    0.25    0.47
  -2   2   3   -0.02    0.68
  -2   2   3   -0.03    0.53
   2   2  -3    0.64    0.66
   2  -2  -3    0.19    0.71
  -2   2   3    0.47    0.59
  -2  -2   3    0.15    0.43
  -2   2   3   -0.37    0.54
   2  -2  -3    0.77    0.71
  -2  -2   3   -0.26    0.52
  -2   2   3    0.55    0.73
   2   2  -3    0.26    0.50
   2   2  -3    1.56    0.59
  -2   2   3    2.21    0.63
  -2  -2   3    0.18    0.48
   2   2  -3    0.26    0.42
   2  -2  -3   -0.44    0.79
   2   2  -3    0.82    0.62
  -2   2   2  273.69    5.16
   2  -2  -2  278.66    4.49
  -2   2   2  282.55    4.94
   2  -2  -2  275.78    4.43
  -2   2   2  281.38    4.90
  -2   2   2  278.86    5.11
  -2   2   2  274.54    2.69
   2  -2  -2  274.76    4.86
  -2   2   2  275.73    4.63
  -2   2   2  276.64    4.50
   2   2  -2  284.42    4.64
  -2   2   2  277.20    2.73
  -2   2   2  280.14    4.59
   2  -2  -2  285.67    5.16
  -2   2   2  286.65    4.94
   2   2  -2  270.16    4.96
  -2   2   2  281.09    2.73
   2   2  -2  275.47    4.51
  -2  -2   2  286.40    5.06
  -2   2   2  281.06    5.14
  -2   2   2  274.67    4.69
   2  -2  -2  278.28    2.68
  -2   2   2  281.95    4.73
  -2  -2   2  279.11    5.06
  -2  -2   2  284.64    4.26
  -2  -2   2  276.40    3.53
   2   2  -2  284.74    5.07
   2   2  -2  282.32    4.19
  -2   2   1  127.42    3.37
  -2  -2   1  131.28    3.29
  -2   2   1  126.01    2.82
  -2   2   1  124.66    2.50
  -2   2   1  124.42    2.83
  -2  -2   1  128.78    2.78
   2   2  -1  125.80    2.47
  -2   2   1  128.78    2.40
   2  -2  -1  133.59    3.36
   2  -2  -1  130.05    2.53
  -2   2   1  127.01    2.81
  -2   2   1  125.33    3.12
   2  -2  -1  126.71    3.07
   2   2  -1  123.34    3.25
   2   2  -1  128.72    2.62
   2  -2  -1  124.08    3.10
  -2   2   1  124.75    2.37
   2  -2  -1  122.29    3.28
  -2  -2   1  124.48    3.23
   2  -2  -1  126.83    2.38
  -2   2   1  127.60    3.20
   2  -2  -1  129.34    2.76
  -2   2   1  126.65    2.39
  -2  -2   1  124.89    2.83
   2   2  -1  128.50    3.16
  -2   2   1  127.91    3.31
  -2  -2   1  126.37    3.30
   2  -2  -1  125.00    2.82
  -2   2   1  127.60    3.19
  -2  -2   1  127.85    2.50
  -2   2   0  180.63    3.88
   2  -2   0  183.09    3.67
   2  -2   0  182.81    3.40
   2  -2   0  183.66    3.04
  -2  -2   0  183.48    2.89
  -2  -2   0  180.54    3.18
  -2  -2   0  184.00    3.83
   2   2   0  177.09    3.81
   2  -2   0  182.49    3.89
   2  -2   0  184.66    2.19
  -2   2   0  189.92    3.46
   2   2   0  180.12    3.22
   2   2   0  189.48    3.91
  -2  -2   0  180.43    3.81
  -2   2   0  181.83    2.22
   2   2   0  179.70    3.30
  -2   2   0  182.92    3.94
   2   2   0  188.00    2.90
   2   2   0  188.19    3.87
  -2  -2   0  183.70    3.81
   2  -2   0  184.77    3.40
  -2   2   0  180.27    3.33
   2  -2   0  184.72    3.35
  -2   2   0  176.05    3.78
  -2  -2   0  186.19    3.31
   2  -2   0  180.21    3.87
  -2   2   0  182.18    3.42
   2  -2   0  175.84    3.75
   2   2   1   40.70    1.71
   2   2   1   42.84    1.74
  -2  -2  -1   39.80    1.87
  -2   2  -1   38.78    1.86
   2  -2   1   39.79    1.99
  -2  -2  -1   42.43    1.74
   2   2   1   40.05    1.99
   2   2   1   40.90    1.88
   2  -2   1   38.43    1.85
   2   2   1   41.09    1.89
  -2  -2  -1   42.83    1.63
  -2  -2  -1   38.79    1.58
  -2  -2  -1   39.61    1.82
   2  -2   1   40.05    1.76
  -2   2  -1   40.18    1.81
   2  -2   1   41.46    1.86
  -2  -2  -1   41.31    1.94
   2   2   1   41.87    1.58
  -2  -2  -1   42.10    1.85
  -2   2  -1   41.64    1.87
   2   2   1   39.94    1.86
   2  -2   1   39.24    1.81
  -2  -2  -1   42.07    2.05
   2   2   2    5.62    0.81
   2   2   2    5.01    0.82
  -2   2  -2    5.35    0.89
   2   2   2    5.24    0.77
  -2   2  -2    4.41    0.80
   2  -2   2    4.73    0.84
   2  -2   2    4.22    0.96
  -2  -2  -2    5.84    0.90
  -2  -2  -2    5.36    0.80
  -2  -2  -2    5.01    0.84
  -2  -2  -2    4.84    0.77
   2   2   2    3.43    0.79
   2   2   2    7.09    1.12
   2   2   2    5.00    0.38
  -2  -2  -2    4.87    0.77
  -2  -2  -2    3.31    0.78
   2  -2   2    4.70    0.86
  -2  -2  -2    5.16    0.85
   2   2   2    5.17    0.79
   2   2   2    5.00    0.54
  -2   2  -2    5.01    0.51
  -2  -2  -2    6.51    0.96
   2  -2   2    6.80    1.00
  -2   2  -2    5.46    0.81
   2   2   2    4.48    0.72
   2   2   3   72.27    2.81
   2  -2   3   70.75    1.61
  -2   2  -3   74.72    2.03
   2   2   3   77.30    3.10
   2  -2   3   70.65    2.88
   2   2   3   72.13    2.70
   2   2   3   81.78    3.25
  -2  -2  -3   72.62    2.57
  -2  -2  -3   67.65    2.49
  -2  -2  -3   70.93    2.77
   2   2   3   71.22    2.02
  -2   2  -3   73.96    2.73
  -2  -2  -3   72.24    2.81
  -2   2  -3   75.51    2.76
   2   2   3   71.64    1.68
  -2  -2  -3   71.38    2.93
  -2   2  -3   72.16    2.90
   2  -2   3   75.62    2.97
  -2  -2  -3   67.50    2.86
  -2   2  -3   72.28    2.94
   2   2   3   75.72    2.66
  -2   2  -3   73.69    2.50
   2   2   3   71.94    2.56
  -2   2  -3   73.49    2.17
   2   2   3   74.87    2.89
   2   2   3   72.83    2.56
   2  -2   4    5.56    0.67
  -2   2  -4    7.07    0.83
   2   2   4    7.64    1.02
  -2  -2  -4    6.95    0.99
   2   2   4    8.86    1.49
   2  -2   4    6.76    1.20
   2   2   4    6.92    1.13
   2   2   4    7.79    1.11
  -2   2  -4    7.10    1.20
  -2   2  -4    7.18    1.08
  -2  -2  -4    6.39    1.16
  -2   2  -4    7.94    1.26
   2   2   4    6.93    1.26
   2   2   4    7.52    0.80
   2   2   4    7.74    1.05
   2   2   4    6.21    0.90
  -2  -2  -4    8.92    1.36
  -2  -2  -4    7.61    0.91
  -2   2  -4    5.93    0.82
  -2   2  -4    7.67    0.92
  -2  -2  -4    7.10    0.98
   2   2   4    5.73    0.77
   2   2   5    2.10    0.76
   2  -2   5    2.07    1.00
  -2  -2  -5    1.85    0.71
  -2  -2  -5    2.26    0.78
   2   2   5    0.52    1.02
  -2  -2  -5    0.95    0.64
   2  -2   5    1.29    0.61
  -2   2  -5    1.97    1.05
  -2  -2  -5    1.30    0.94
  -2  -2  -5    5.37    1.36
   2   2   5    2.20    0.72
   2   2   5    3.24    0.89
  -2   2  -5    1.83    0.78
   2   2   5    1.69    0.83
   2   2   5    2.37    1.30
   2  -2   5    2.68    0.95
  -2   2  -5    3.00    1.16
   2   2   5    1.48    0.72
  -2   2  -5    2.40    0.70
  -2  -2  -6    3.02    0.90
  -2  -2  -6    3.44    0.99
  -2   2  -6    4.40    1.02
   2   2   6    2.73    0.97
  -2  -2  -6    3.40    0.90
   2   2   6    2.84    0.92
  -2   2  -6    1.86    1.04
   2   2   6    1.18    1.19
   2   2   6    3.14    0.75
   2  -2   6    6.51    1.34
  -2  -2  -6    5.33    1.31
   2  -2   6    2.30    0.69
  -2  -2  -6    2.43    1.18
  -2   2  -6    3.77    0.71
  -2  -2  -6    2.44    0.74
   2   2   6    5.65    1.76
  -2   2  -6    1.13    0.90
   2  -2   6    4.00    1.24
  -2   2  -7   63.63    3.65
   2   2   7   62.20    3.72
  -2  -2  -7   63.25    3.17
  -2   2  -7   64.10    3.67
  -2  -2  -7   65.26    3.89
  -2   2  -7   62.61    3.10
   2  -2   7   65.25    3.70
   2   2   7   59.78    3.84
  -2  -2  -7   61.18    2.97
  -2   2  -7   67.06    3.71
   2   2   7   65.54    3.11
   2  -2   7   61.90    3.20
  -2   2  -7   65.72    2.10
  -2  -2  -7   56.57    3.48
  -2   2  -8   12.62    1.92
  -2  -2  -8   12.54    1.73
   2   2   8   12.28    1.56
  -2   2  -8   12.14    1.91
   2   2   8   10.33    1.84
  -2  -2  -8   13.65    1.98
  -2  -2  -8   12.92    2.08
  -2   2  -8    8.76    1.37
  -2  -2  -8   11.26    1.47
   2   2   8    9.63    2.02
   2  -2   8   12.97    1.80
  -2   2  -8   10.89    1.74
   2  -2   8   11.49    1.81
   2   2   9   -0.59    0.78
   2   2   9   -0.53    1.25
  -2  -2  -9    0.49    0.85
   2  -2   9   -0.05    0.92
  -2  -2  -9    0.43    0.88
  -2  -2  -9    1.13    1.00
  -2   2  -9    0.06    0.87
  -2   2  -9    1.06    1.02
  -2  -2  -9    0.46    1.23
  -2   2  -9    0.49    1.07
   2  -2   9    0.04    1.04
  -2   2  -9    1.42    1.22
   2   2   9    0.80    1.64
  -2   2 -10    6.85    1.65
  -2   2 -10    6.72    1.74
  -2  -2 -10    7.46    1.92
   2   2  10    5.39    1.66
  -2   2 -10    9.20    1.70
   2   2  10   12.29    2.51
  -2   2 -10    8.09    1.80
  -2  -2 -10    7.01    1.79
   2  -2  10   10.08    1.96
   2  -2  10   10.55    2.06
  -2  -2 -10    7.90    1.70
  -2   2 -11    7.80    2.01
   2  -2  11    7.69    1.86
  -2   2 -11    5.78    1.56
  -2   3  11    6.48    1.98
  -2  -3  11    7.65    1.93
   2   3 -11    6.41    1.67
   2   3 -11    4.74    1.51
  -2   3  11    4.64    1.49
  -2  -3  11    4.48    1.45
   2   3 -10    9.02    1.83
  -2  -3  10    6.61    1.53
  -2   3  10    7.67    2.05
  -2  -3  10    6.43    1.83
   2   3 -10    7.72    1.81
   2  -3 -10    7.07    1.76
  -2   3  10    5.56    1.56
  -2   3  10    7.04    2.03
  -2  -3  10    4.46    1.31
   2  -3 -10    8.57    2.09
  -2   3  10    6.95    2.08
   2   3 -10    4.60    1.90
   2   3 -10    8.93    1.97
  -2  -3   9    2.05    1.07
   2  -3  -9    3.32    1.48
  -2   3   9    0.63    1.14
  -2  -3   9    3.03    1.30
   2  -3  -9    3.05    1.48
   2   3  -9    5.94    1.52
   2   3  -9    3.33    1.37
   2   3  -9    3.86    1.40
   2   3  -9    3.27    1.24
  -2   3   9    4.50    1.53
  -2  -3   9    1.62    0.97
  -2   3   9    6.67    1.86
  -2   3   9    5.79    1.83
  -2   3   8   91.40    4.62
  -2   3   8   92.94    5.02
   2  -3  -8   95.43    4.98
   2   3  -8   91.57    4.21
  -2  -3   8   88.75    4.48
  -2   3   8   99.98    5.17
   2   3  -8   93.08    4.48
   2   3  -8   88.61    4.84
  -2  -3   8   88.08    4.06
  -2   3   8  100.10    5.16
   2   3  -8   87.65    4.57
  -2  -3   8   88.48    4.15
   2  -3  -8   96.24    4.96
   2   3  -7   39.77    3.10
   2  -3  -7   37.14    2.99
  -2   3   7   39.37    3.18
   2  -3  -7   39.79    3.09
  -2   3   7   37.86    3.06
   2   3  -7   42.47    3.08
  -2  -3   7   38.52    2.58
  -2   3   7   38.77    2.92
   2   3  -7   36.09    2.44
   2  -3  -7   40.67    3.07
  -2  -3   7   35.82    2.77
   2   3  -7   42.12    2.97
  -2   3   7   38.61    3.06
  -2   3   7   41.57    2.10
   2   3  -6   58.97    3.55
   2  -3  -6   57.92    3.51
  -2   3   6   54.89    3.37
  -2   3   6   57.94    2.56
  -2  -3   6   60.28    2.85
  -2   3   6   57.84    3.48
   2  -3  -6   56.67    3.41
  -2   3   6   57.85    3.46
   2   3  -6   59.95    2.84
  -2  -3   6   54.79    2.72
   2  -3  -6   55.23    3.33
  -2   3   6   58.82    3.31
  -2  -3   6   55.19    3.27
   2   3  -6   54.48    3.19
  -2   3   6   55.68    3.43
   2   3  -6   56.05    2.32
   2   3  -6   58.52    3.41
  -2  -3   6   55.61    1.58
   2  -3  -5  233.68    6.22
  -2   3   5  227.90    6.24
   2  -3  -5  236.41    6.14
  -2   3   5  227.98    6.22
   2  -3  -5  236.24    6.42
   2   3  -5  240.10    4.93
  -2  -3   5  225.84    4.76
   2   3  -5  237.07    6.37
  -2   3   5  228.24    6.25
   2  -3  -5  224.69    6.17
  -2   3   5  220.68    5.88
  -2  -3   5  230.10    6.09
   2   3  -5  242.07    6.17
  -2   3   5  233.40    6.18
  -2   3   5  233.13    5.05
  -2   3   5  235.25    6.22
  -2  -3   5  226.77    4.80
   2   3  -5  232.63    4.77
   2   3  -5  232.32    6.18
  -2   3   4   61.70    3.06
   2  -3  -4   62.73    2.70
  -2  -3   4   62.38    2.66
  -2   3   4   64.20    2.78
  -2   3   4   62.54    3.08
   2  -3  -4   68.02    3.15
  -2   3   4   61.21    3.10
  -2   3   4   64.90    3.20
  -2  -3   4   67.82    2.27
  -2  -3   4   63.34    2.20
   2  -3  -4   65.19    3.12
  -2  -3   4   66.32    3.23
   2  -3  -4   63.97    3.01
  -2   3   4   63.70    3.04
   2  -3  -4   63.90    3.17
  -2   3   4   65.23    2.71
   2   3  -4   59.70    2.99
   2   3  -4   64.52    2.25
   2   3  -4   65.51    2.59
  -2   3   3  207.09    5.28
   2  -3  -3  210.14    5.26
  -2   3   3  215.97    5.44
  -2  -3   3  211.37    3.21
  -2   3   3  203.81    4.40
  -2  -3   3  212.07    4.21
  -2  -3   3  212.07    5.28
  -2   3   3  207.41    5.09
  -2   3   3  216.25    5.18
   2  -3  -3  207.50    4.78
  -2   3   3  194.53    2.05
  -2  -3   3  217.48    3.24
   2  -3  -3  218.54    5.30
  -2   3   3  210.68    4.92
   2   3  -3  202.23    5.12
  -2   3   3  213.68    5.38
   2   3  -3  216.07    4.98
  -2   3   3  210.18    4.81
  -2   3   3  201.83    4.86
  -2   3   3  209.94    4.76
   2   3  -3  223.32    4.79
  -2   3   3  208.71    5.19
   2  -3  -3  213.17    4.40
   2  -3  -2   18.88    1.65
  -2   3   2   21.79    1.73
   2   3  -2   20.05    0.89
  -2  -3   2   18.19    0.76
  -2   3   2   17.51    1.60
  -2  -3   2   18.53    0.76
  -2  -3   2   19.92    1.15
   2  -3  -2   18.56    1.52
  -2   3   2   20.05    1.35
   2  -3  -2   18.71    1.24
   2   3  -2   19.52    1.13
  -2   3   2   18.23    0.95
   2   3  -2   19.15    1.64
  -2   3   2   17.30    1.55
  -2   3   2   18.39    0.97
   2  -3  -2   19.17    1.62
  -2   3   2   20.99    1.52
  -2   3   2   16.83    1.62
   2   3  -2   19.59    1.59
  -2  -3   2   20.80    1.76
  -2   3   2   18.58    1.64
  -2   3   2   18.85    1.55
   2  -3  -2   19.10    0.95
  -2   3   2   19.24    1.34
  -2   3   2   19.30    1.50
  -2   3   2   19.43    1.55
   2  -3  -2   18.20    0.93
  -2   3   2   17.25    1.31
  -2  -3   2   19.76    1.73
  -2  -3   2   20.81    1.61
  -2  -3   2   18.19    1.57
   2  -3  -2   19.12    1.36
   2   3  -2   20.83    1.54
   2  -3  -1  474.36    5.55
   2  -3  -1  478.83    5.57
   2   3  -1  475.52    4.33
  -2  -3   1  480.46    6.63
   2  -3  -1  479.28    7.28
  -2   3   1  478.96    5.68
   2  -3  -1  482.99    7.23
   2  -3  -1  486.77    6.59
  -2   3   1  470.36    7.23
  -2   3   1  467.80    6.58
  -2   3   1  475.79    7.26
   2  -3  -1  482.94    7.32
  -2   3   1  490.05    7.46
  -2   3   1  470.47    5.66
   2   3  -1  498.14    7.33
  -2  -3   1  481.00    7.22
  -2   3   1  471.96    5.57
  -2  -3   1  490.49    7.26
  -2   3   1  476.38    5.53
   2   3  -1  485.81    4.47
  -2   3   1  479.16    7.42
   2  -3  -1  447.38    5.29
  -2   3   1  472.28    7.13
  -2  -3   1  497.38    7.36
  -2   3   1  473.48    6.25
   2  -3  -1  470.39    5.49
   2  -3  -1  483.10    7.17
  -2  -3   1  480.39    6.80
  -2  -3   1  479.61    4.52
  -2  -3   0  153.63    4.00
   2   3   0  152.84    3.80
  -2   3   0  159.13    3.62
  -2  -3   0  156.02    3.81
   2  -3   0  161.97    4.20
   2  -3   0  157.52    4.03
   2  -3   0  153.50    3.58
  -2  -3   0  159.12    4.25
  -2   3   0  153.02    2.72
   2  -3   0  161.48    4.14
  -2  -3   0  159.48    2.45
   2  -3   0  159.46    2.71
  -2  -3   0  161.16    2.46
  -2  -3   0  157.82    4.30
  -2   3   0  161.33    4.11
  -2  -3   0  155.50    4.08
  -2  -3   0  154.16    3.72
   2   3   0  156.69    4.02
  -2   3   0  157.49    3.27
  -2   3   0  161.17    3.65
   2  -3   0  154.45    3.52
   2   3   0  160.84    2.43
  -2   3   0  159.21    4.20
   2   3   0  156.77    3.12
  -2  -3   0  157.85    4.06
   2  -3   0  157.28    3.60
  -2   3   0  161.09    4.18
   2   3   0  157.84    3.89
   2  -3   0  159.68    3.27
   2  -3   0  154.13    4.18
   2  -3   1  410.39    7.00
   2  -3   1  400.48    3.39
   2  -3   1  407.46    6.47
   2  -3   1  410.43    5.63
   2   3   1  407.42    6.36
   2   3   1  398.08    6.19
  -2  -3  -1  407.98    6.28
   2  -3   1  399.50    6.21
  -2  -3  -1  404.68    6.20
   2   3   1  404.13    6.99
  -2  -3  -1  399.93    6.76
   2  -3   1  393.45    5.78
   2  -3   1  400.82    6.44
  -2   3  -1  401.76    6.52
  -2  -3  -1  410.34    4.93
  -2  -3  -1  405.93    6.94
   2   3   1  403.05    6.42
   2   3   1  393.14    6.28
   2  -3   1  417.94    6.94
  -2  -3  -1  401.23    6.29
  -2   3  -1  413.82    6.39
  -2  -3  -1  406.06    6.36
  -2   3  -1  398.82    6.58
  -2  -3  -1  409.06    6.38
   2  -3   1  406.33    6.42
  -2  -3  -1  404.90    4.91
   2   3   1  409.92    6.73
  -2   3  -1  409.30    6.35
   2   3   1  404.12    4.39
   2   3   2    9.48    0.89
   2  -3   2   11.66    1.36
   2   3   2    9.72    1.40
   2   3   2   10.63    0.98
   2  -3   2    8.69    1.09
  -2  -3  -2    9.92    1.26
   2  -3   2    9.95    1.22
   2  -3   2    9.50    1.14
   2   3   2    8.78    1.23
  -2  -3  -2    9.64    1.09
   2  -3   2    7.85    0.48
  -2  -3  -2    8.07    1.09
  -2  -3  -2    9.61    1.06
   2  -3   2   11.92    1.34
  -2  -3  -2    9.46    1.20
   2   3   2    9.37    1.14
   2   3   2    8.94    1.09
  -2  -3  -2    9.45    1.10
  -2  -3  -2   10.03    1.21
  -2   3  -2   12.09    1.31
   2   3   2   10.92    1.22
  -2   3  -2    8.90    1.15
  -2   3  -2    8.51    1.12
  -2  -3  -2    7.74    0.99
   2   3   2   11.17    1.29
   2   3   3  112.99    3.89
  -2  -3  -3  112.73    4.04
   2   3   3  107.74    3.75
   2   3   3  106.37    3.93
   2  -3   3  113.96    3.61
  -2  -3  -3  114.03    3.54
  -2   3  -3  106.96    3.87
  -2  -3  -3  113.22    3.38
   2   3   3  109.84    3.38
  -2  -3  -3  109.75    3.51
   2   3   3  109.78    2.93
   2   3   3  111.05    2.39
   2  -3   3  102.62    1.91
   2  -3   3  102.78    3.78
  -2  -3  -3  111.90    3.38
  -2   3  -3  108.36    3.47
   2   3   3  110.31    3.37
   2   3   3  107.96    3.59
  -2  -3  -3  113.64    3.81
  -2  -3  -4   25.33    2.17
   2   3   4   25.95    2.19
  -2  -3  -4   28.57    2.11
   2  -3   4   28.54    2.03
   2   3   4   26.55    2.28
  -2   3  -4   27.70    1.93
  -2  -3  -4   24.73    2.10
  -2  -3  -4   27.50    1.77
   2   3   4   27.90    1.41
  -2   3  -4   30.81    1.91
   2  -3   4   26.71    2.17
   2   3   4   27.86    2.45
  -2  -3  -4   26.37    1.75
  -2   3  -4   27.71    2.24
   2   3   4   26.35    1.77
  -2   3  -4   29.50    1.87
   2   3   4   28.81    1.87
   2   3   4   27.52    1.66
   2   3   4   26.98    1.89
   2  -3   4   25.29    1.20
  -2   3  -4   27.88    1.97
  -2  -3  -5   10.33    1.24
   2   3   5   11.42    1.31
   2  -3   5    9.41    1.53
  -2  -3  -5   10.84    1.70
   2   3   5   12.58    2.01
   2   3   5   11.72    1.90
   2  -3   5   12.38    1.59
   2   3   5   10.59    1.26
  -2  -3  -5   10.32    1.28
   2  -3   5   10.31    1.01
   2   3   5    9.91    1.23
   2   3   5    8.10    0.99
  -2  -3  -5   11.64    1.67
  -2   3  -5   10.68    1.44
  -2   3  -5    9.32    1.58
  -2   3  -5   10.71    1.24
  -2   3  -5   10.20    1.29
   2   3   5    8.65    1.24
  -2  -3  -6   26.11    2.04
  -2  -3  -6   30.10    2.56
   2   3   6   31.36    2.68
   2  -3   6   24.51    1.62
  -2  -3  -6   31.15    2.67
   2   3   6   25.91    1.88
  -2  -3  -6   27.90    1.91
  -2   3  -6   27.76    2.33
   2   3   6   25.11    1.74
   2  -3   6   27.40    2.50
  -2  -3  -6   26.25    1.85
  -2   3  -6   25.43    1.94
   2   3   6   31.48    2.94
  -2   3  -6   26.45    2.44
  -2   3  -6   26.03    1.75
   2   3   6   24.74    1.83
   2   3   6   23.70    1.82
   2  -3   7   19.33    2.33
   2   3   7   22.18    2.56
  -2  -3  -7   21.33    2.39
  -2  -3  -7   24.46    2.56
  -2   3  -7   18.91    2.06
  -2   3  -7   21.32    1.97
   2   3   7   25.38    1.91
  -2   3  -7   23.17    2.42
   2   3   7   21.45    2.59
   2   3   7   20.85    1.83
  -2   3  -7   21.14    1.49
  -2  -3  -7   22.05    1.82
  -2  -3  -7   22.20    2.05
  -2   3  -8   55.32    3.86
  -2  -3  -8   55.96    3.95
   2   3   8   54.88    2.92
  -2   3  -8   55.10    3.24
  -2  -3  -8   50.78    3.78
  -2   3  -8   51.98    3.56
   2   3   8   52.96    3.92
   2  -3   8   64.34    4.18
  -2   3  -8   54.44    3.76
   2   3   8   55.95    4.17
  -2  -3  -8   52.96    2.83
  -2  -3  -8   58.18    3.35
  -2  -3  -9   12.35    2.22
  -2   3  -9   12.83    2.19
   2   3   9   14.17    2.28
   2  -3   9   13.64    2.25
  -2   3  -9   13.04    1.83
  -2   3  -9   13.22    2.23
   2   3   9   17.25    2.86
  -2  -3  -9   13.04    1.88
  -2   3  -9   12.92    2.06
  -2  -3  -9   15.41    2.40
  -2   3 -10   -0.79    1.21
   2   3  10    3.07    1.67
  -2  -3 -10    0.77    1.23
  -2   3 -10   -1.54    1.31
  -2   3 -10    0.93    1.34
   2  -3  10   -0.31    1.14
  -2  -4  10    3.99    1.57
  -2   4  10    7.44    1.91
  -2   4  10    5.59    1.84
   2   4 -10    5.82    1.82
   2  -4 -10    8.18    2.11
  -2   4  10    5.32    1.56
   2   4 -10    6.02    1.81
  -2   4   9    0.64    1.41
   2   4  -9   -0.16    1.35
   2   4  -9   -0.04    0.81
   2   4  -9    1.38    1.16
  -2   4   9   -0.48    1.51
   2   4  -9   -0.65    1.14
   2  -4  -9    0.33    1.18
  -2   4   9    0.44    1.21
  -2  -4   9    1.07    1.11
  -2   4   9    0.54    1.07
  -2   4   9    1.91    1.51
  -2   4   9   -0.77    1.42
  -2  -4   8    3.37    1.37
  -2   4   8   -0.71    1.44
   2  -4  -8    4.40    1.59
  -2   4   8    3.02    1.44
  -2   4   8    1.47    1.11
   2  -4  -8    3.90    1.45
  -2  -4   8    2.27    1.13
   2   4  -8    2.51    0.90
  -2   4   8    3.45    1.41
   2   4  -8    0.48    1.12
  -2   4   8    5.04    1.69
  -2  -4   8    3.27    1.06
  -2   4   8    2.89    1.33
   2   4  -8    2.06    1.23
   2   4  -8    2.54    1.22
   2   4  -7   31.79    3.00
  -2   4   7   30.49    2.85
   2  -4  -7   33.62    2.95
  -2   4   7   28.02    2.73
  -2  -4   7   34.32    2.32
  -2   4   7   29.54    2.71
   2   4  -7   27.10    2.60
  -2   4   7   32.04    3.03
  -2  -4   7   32.94    2.88
  -2  -4   7   30.08    2.20
  -2   4   7   31.42    2.95
   2  -4  -7   31.02    2.87
  -2   4   7   30.04    2.98
  -2   4   7   33.51    2.22
   2   4  -7   32.21    2.88
   2   4  -7   30.18    2.17
   2  -4  -6   11.90    1.82
  -2   4   6    9.75    1.80
  -2   4   6    9.37    1.72
  -2   4   6   12.45    1.89
   2  -4  -6   11.18    1.79
  -2  -4   6   12.48    1.35
   2   4  -6   10.22    1.68
   2   4  -6   10.23    1.20
   2  -4  -6   11.62    1.77
  -2  -4   6   11.15    1.83
  -2  -4   6    9.26    1.15
  -2   4   6    8.68    1.58
  -2   4   6   10.41    1.69
   2   4  -6   11.14    1.84
  -2   4   6   11.53    1.43
  -2   4   6    9.92    1.76
   2   4  -6   13.10    2.06
   2  -4  -5    1.03    1.01
  -2   4   5   -1.86    1.35
  -2   4   5    0.11    1.31
  -2   4   5    0.11    0.94
   2  -4  -5    0.48    0.93
  -2  -4   5    1.44    0.73
  -2  -4   5    0.19    0.91
   2   4  -5   -0.42    0.98
  -2  -4   5    0.79    0.59
  -2   4   5    1.16    1.11
  -2   4   5    0.17    0.69
   2  -4  -5    1.91    1.26
  -2   4   5    0.71    1.19
  -2   4   4    2.36    0.88
  -2   4   4    3.65    1.34
   2  -4  -4    2.10    0.78
  -2   4   4    4.00    1.54
  -2   4   4    4.07    1.34
   2   4  -4    1.98    1.07
   2  -4  -4    1.90    1.10
  -2  -4   4    3.44    0.63
  -2  -4   4    3.93    0.64
  -2   4   4    2.76    1.11
  -2   4   4    2.29    1.05
   2  -4  -4    4.66    1.34
  -2   4   4    2.90    1.07
  -2  -4   4    1.75    1.12
  -2  -4   4    2.93    0.78
   2  -4  -4    3.03    1.35
  -2  -4   3    1.64    1.02
   2  -4  -3    1.66    1.19
  -2   4   3   -2.31    1.57
  -2   4   3    0.45    1.30
  -2   4   3    1.99    0.73
  -2  -4   3    2.77    0.71
   2  -4  -3    2.12    0.67
  -2  -4   3    4.72    1.56
  -2   4   3    2.96    1.02
   2  -4  -3    2.54    0.46
  -2   4   3    2.39    0.46
   2  -4  -3    2.42    0.87
   2   4  -3    1.75    0.95
  -2   4   3    2.20    0.86
   2   4  -3    2.44    0.41
  -2   4   3    2.29    0.85
   2  -4  -3    1.90    0.42
   2  -4  -3    0.76    1.07
  -2   4   3    4.04    1.10
   2  -4  -3    2.21    0.42
  -2  -4   2   17.80    1.85
   2  -4  -2   15.35    1.16
   2   4  -2   17.34    1.11
  -2   4   2   17.09    1.53
  -2   4   2   16.80    1.16
  -2   4   2   16.74    1.80
  -2   4   2   17.72    1.92
  -2   4   2   18.01    1.50
   2   4  -2   17.65    1.75
   2  -4  -2   16.30    1.43
  -2   4   2   15.10    1.12
   2  -4  -2   17.26    1.13
   2  -4  -2   19.05    1.92
  -2   4   2   15.35    1.33
  -2   4   2   15.14    1.21
   2  -4  -2   14.93    1.66
  -2   4   2   14.09    1.79
  -2  -4   2   17.28    1.04
   2  -4  -2   15.97    1.14
  -2  -4   2   18.30    1.87
   2   4  -2   14.84    0.79
   2   4  -1   40.59    1.59
   2  -4  -1   41.64    2.48
  -2  -4   1   43.41    1.18
  -2   4   1   42.57    1.80
   2  -4  -1   44.51    2.71
  -2   4   1   47.22    2.69
   2  -4  -1   44.99    2.44
  -2  -4   1   45.95    2.49
  -2   4   1   47.10    2.85
   2  -4  -1   44.14    1.96
  -2  -4   1   44.77    2.54
  -2   4   1   45.04    2.64
  -2   4   1   43.02    2.08
   2   4  -1   48.22    2.67
  -2   4   1   46.44    2.12
  -2   4   1   46.71    1.84
  -2  -4   1   45.24    2.58
  -2   4   1   45.39    2.05
  -2   4   1   47.67    2.13
   2  -4  -1   46.15    1.82
   2  -4  -1   43.06    1.97
   2  -4  -1   43.48    2.00
   2   4   0   50.22    2.06
   2   4   0   50.01    2.71
  -2   4   0   50.63    2.69
  -2  -4   0   49.71    2.55
   2   4   0   45.93    2.54
   2  -4   0   46.04    2.77
   2  -4   0   52.10    2.52
  -2   4   0   43.12    2.53
  -2  -4   0   49.09    2.80
   2  -4   0   49.83    1.90
  -2  -4   0   49.25    1.23
   2   4   0   49.13    2.71
  -2   4   0   48.76    2.71
  -2  -4   0   48.95    2.61
   2  -4   0   45.35    2.49
  -2   4   0   47.14    2.31
  -2  -4   0   50.34    2.60
   2  -4   0   49.30    2.33
  -2   4   0   50.29    1.47
  -2   4   0   46.56    2.28
  -2  -4   0   46.24    2.25
   2  -4   0   50.80    2.35
   2  -4   0   47.68    1.85
  -2  -4   0   47.13    1.22
  -2  -4   0   48.58    2.64
   2   4   1   12.95    1.55
  -2  -4  -1   11.55    1.39
   2  -4   1   14.65    1.51
   2  -4   1   12.39    1.13
   2   4   1   12.39    1.23
  -2   4  -1   12.07    1.30
   2  -4   1   13.88    1.40
   2   4   1   12.67    1.57
   2  -4   1   13.37    1.45
  -2  -4  -1   11.98    1.31
   2  -4   1   12.96    0.92
   2  -4   1   11.72    1.49
  -2  -4  -1   13.11    0.96
  -2  -4  -1   14.81    1.02
   2   4   1   14.29    1.50
  -2  -4  -1   13.69    1.65
  -2  -4  -1   15.80    1.51
   2   4   1   13.25    0.73
   2  -4   1   13.82    1.48
  -2   4  -1   13.94    1.49
  -2  -4  -1   13.64    1.37
  -2  -4  -1   13.71    1.49
  -2   4  -1   15.56    1.71
  -2   4  -1   14.64    1.71
   2  -4   1   14.97    1.80
  -2  -4  -1   13.17    1.50
   2  -4   2    2.26    1.44
   2   4   2    0.03    0.52
   2   4   2    0.83    0.78
   2  -4   2    0.38    0.77
  -2  -4  -2   -0.12    0.60
   2   4   2    1.11    0.72
   2  -4   2    1.41    1.00
  -2   4  -2   -0.01    0.77
   2   4   2   -2.05    1.36
   2   4   2   -0.07    1.36
   2  -4   2    0.79    0.84
  -2  -4  -2    0.09    0.50
  -2  -4  -2    0.37    0.67
  -2  -4  -2    0.51    1.17
   2  -4   2   -0.50    0.43
  -2  -4  -2    0.33    0.63
   2   4   2    0.41    0.72
  -2   4  -2    0.28    0.78
   2  -4   2   -0.01    0.89
  -2  -4  -2    0.32    0.76
   2  -4   2   -0.88    0.80
  -2  -4  -2   -0.12    0.88
   2   4   3   14.07    1.35
   2  -4   3   15.29    1.59
   2   4   3   15.57    2.01
   2  -4   3   15.61    1.60
  -2  -4  -3   15.91    1.49
  -2  -4  -3   14.73    1.81
   2  -4   3   15.67    0.97
  -2   4  -3   16.76    1.46
   2   4   3   15.67    1.50
  -2  -4  -3   14.85    1.85
  -2   4  -3   18.67    1.59
  -2  -4  -3   13.35    1.39
   2   4   3   17.66    1.43
  -2  -4  -3   13.20    1.34
  -2  -4  -3   13.81    1.45
  -2   4  -3   16.90    1.85
   2   4   3   17.42    1.91
   2   4   3   14.96    1.50
  -2   4  -3   15.05    1.62
   2  -4   3   13.91    1.61
   2  -4   3   17.93    2.00
  -2  -4  -4    0.26    1.07
   2   4   4    0.66    0.72
  -2  -4  -4    0.60    0.67
   2  -4   4   -0.16    1.13
   2   4   4    0.47    0.68
  -2  -4  -4    0.37    0.60
   2   4   4    1.10    1.08
   2  -4   4    1.06    1.08
   2   4   4   -0.96    1.48
  -2   4  -4   -1.30    0.84
  -2  -4  -4    1.43    1.15
   2   4   4   -0.04    0.58
  -2  -4  -4    1.11    0.87
  -2   4  -4    0.47    1.06
   2  -4   4    0.22    0.37
  -2   4  -4    0.53    0.77
  -2   4  -4   -0.56    0.78
   2  -4   4    3.88    1.28
   2   4   4   -0.09    0.64
   2   4   5    0.53    1.28
   2  -4   5    0.73    0.43
   2   4   5    1.12    0.79
   2   4   5   -0.51    1.05
  -2  -4  -5    0.42    1.04
  -2  -4  -5   -0.18    0.54
  -2  -4  -5    1.22    0.90
  -2   4  -5    0.90    0.75
  -2   4  -5    1.41    0.99
  -2   4  -5    1.43    0.81
   2   4   5    0.65    0.66
   2   4   5    0.25    0.60
  -2   4  -5   -0.53    1.06
  -2  -4  -5    0.84    0.70
   2   4   5    2.32    1.42
   2  -4   5    0.80    1.06
   2   4   5    0.64    0.66
   2  -4   5    3.01    1.15
   2   4   6    4.13    1.61
  -2   4  -6    2.80    0.88
   2   4   6    1.99    0.74
   2   4   6    2.81    0.93
  -2  -4  -6    3.56    1.33
  -2  -4  -6    3.36    1.28
  -2   4  -6    5.08    1.15
   2  -4   6    1.73    1.12
  -2   4  -6    2.95    0.96
   2   4   6    3.18    0.84
  -2   4  -6    2.81    1.33
   2   4   6    5.97    1.82
   2   4   6    3.29    1.25
   2   4   7   27.58    2.81
   2  -4   7   25.18    2.78
  -2  -4  -7   25.01    2.73
   2   4   7   26.42    2.95
   2   4   7   31.73    3.19
  -2  -4  -7   28.06    2.75
  -2   4  -7   30.18    2.52
   2   4   7   27.56    2.04
  -2   4  -7   33.11    3.04
  -2   4  -7   26.51    2.23
  -2   4  -7   27.74    1.96
   2   4   7   29.53    2.10
  -2  -4  -7   27.21    1.98
   2  -4   8    8.36    1.84
  -2   4  -8   12.28    1.78
   2   4   8   11.31    2.10
   2   4   8   10.56    2.22
  -2  -4  -8    9.70    1.92
  -2   4  -8   14.07    2.32
  -2  -4  -8   13.98    2.30
  -2   4  -8   11.62    1.75
  -2   4  -8   11.54    2.07
   2   4   8   10.71    2.20
  -2  -4  -9   -2.60    1.51
   2  -4   9    2.43    1.45
  -2  -4  -9    2.23    1.46
   2   4   9    1.10    1.45
  -2   4  -9   -0.43    1.18
  -2   4  -9    1.32    1.37
  -2   4  -9   -0.69    0.99
   2   4   9    3.90    2.07
   2   4   9   -1.29    1.42
  -2   4  -9   -0.57    0.97
  -2   4 -10    6.30    1.55
  -2   5  10    6.89    1.95
   2   5  -9    0.94    1.37
  -2  -5   9    2.22    1.54
  -2   5   9    0.75    1.60
  -2   5   9   -0.90    1.54
  -2   5   9    0.76    1.41
   2  -5  -9    3.19    1.65
  -2   5   9    1.24    1.39
   2   5  -9    1.71    1.45
  -2   5   9    2.34    1.37
  -2   5   9    0.42    1.38
   2  -5  -9    1.45    1.30
   2   5  -9    0.94    1.31
  -2  -5   8   10.47    1.97
  -2   5   8   10.91    2.02
  -2   5   8   12.01    2.30
   2   5  -8   10.74    2.14
  -2   5   8   11.16    2.31
  -2   5   8    9.50    2.07
   2   5  -8    9.07    1.87
   2  -5  -8   12.68    2.17
   2   5  -8   13.08    2.09
  -2   5   8    8.17    1.83
   2  -5  -8   10.97    2.04
  -2   5   8   11.62    1.99
   2   5  -7   81.75    4.90
   2   5  -7   77.22    4.53
  -2   5   7   79.90    4.93
  -2   5   7   81.72    4.94
  -2   5   7   69.71    4.55
  -2   5   7   72.81    4.22
   2   5  -7   77.06    4.57
  -2  -5   7   73.40    4.51
  -2   5   7   71.58    4.45
  -2   5   7   73.95    3.70
  -2   5   7   77.30    4.50
   2  -5  -7   81.27    4.71
   2  -5  -7   78.90    4.54
  -2   5   6    5.41    1.89
  -2   5   6    4.48    1.67
  -2   5   6    4.04    1.33
  -2   5   6    3.20    1.00
   2  -5  -6    2.52    1.21
   2   5  -6    2.91    1.34
  -2   5   6    5.05    1.67
  -2   5   6    4.17    1.29
  -2  -5   6    2.32    1.33
  -2   5   6    4.01    1.34
   2  -5  -6    2.80    1.30
   2   5  -6    7.37    1.69
   2  -5  -5   15.92    2.24
  -2  -5   5   12.39    1.91
   2  -5  -5   13.65    1.81
  -2   5   5   13.53    1.98
  -2   5   5   16.46    2.24
  -2   5   5   15.83    1.93
   2   5  -5   12.36    1.86
  -2   5   5   17.92    2.42
  -2   5   5   14.64    1.93
  -2   5   5   13.15    1.71
  -2  -5   4    1.98    1.43
   2  -5  -4    0.86    0.30
  -2  -5   4    1.00    0.69
   2  -5  -4    2.05    1.12
  -2   5   4    0.88    0.76
  -2   5   4   -0.79    1.34
  -2   5   4    2.27    1.19
  -2   5   4    0.30    0.78
   2  -5  -4    0.59    0.89
   2   5  -4    0.42    0.84
  -2   5   4    1.54    1.09
  -2   5   4    1.18    0.92
  -2   5   4    1.89    1.03
   2  -5  -4    0.54    0.26
  -2   5   4    0.69    0.29
   2  -5  -4    0.69    1.08
  -2  -5   4    0.50    0.93
  -2  -5   3   17.28    1.16
  -2  -5   3   20.11    2.37
   2  -5  -3   17.99    2.04
   2  -5  -3   19.37    1.37
  -2   5   3   17.80    2.18
  -2   5   3   17.98    2.19
  -2   5   3   19.21    2.28
   2   5  -3   18.32    1.17
   2  -5  -3   18.75    1.86
  -2   5   3   15.36    1.58
   2   5  -3   14.78    1.86
  -2   5   3   16.76    1.18
   2  -5  -3   15.93    1.11
  -2   5   3   19.09    1.75
   2  -5  -3   18.27    1.24
   2  -5  -3   16.67    1.17
  -2   5   3   16.24    1.33
  -2  -5   3   16.68    2.07
   2  -5  -3   18.86    2.30
  -2   5   2    7.12    1.62
  -2  -5   2    2.66    1.27
  -2  -5   2    3.44    0.45
   2  -5  -2    3.72    1.37
   2  -5  -2    3.57    0.83
   2  -5  -2    4.60    1.23
  -2  -5   2    4.77    1.32
   2  -5  -2    4.88    1.10
  -2   5   2    6.91    2.02
  -2   5   2    5.72    1.78
  -2   5   2    4.83    0.84
   2   5  -2    3.35    1.23
   2   5  -2    4.77    0.86
  -2   5   2    3.83    0.88
   2   5  -2    4.91    0.72
  -2   5   2    2.78    0.88
  -2   5   2    3.68    0.87
  -2  -5   2    4.05    0.87
   2  -5  -2    4.08    0.78
  -2   5   2    3.78    0.80
   2  -5  -2    4.50    0.73
   2   5  -1   47.24    2.03
   2  -5  -1   52.18    3.03
  -2  -5   1   48.62    3.07
  -2  -5   1   50.51    3.09
  -2   5   1   49.70    3.12
   2  -5  -1   51.71    3.32
  -2   5   1   51.13    3.38
   2  -5  -1   50.05    2.44
   2   5  -1   47.25    2.36
   2   5  -1   48.09    2.99
  -2   5   1   48.10    1.85
  -2   5   1   50.92    2.30
  -2   5   1   47.13    2.41
   2  -5  -1   48.42    1.76
  -2  -5   1   50.96    3.06
  -2   5   1   48.81    2.46
   2  -5  -1   47.32    2.38
  -2   5   1   49.97    1.99
  -2  -5   1   50.25    2.31
   2  -5  -1   46.62    2.39
   2  -5   0    4.03    0.61
   2   5   0    5.65    0.94
  -2   5   0    5.55    0.89
   2   5   0    5.31    1.25
  -2   5   0    3.79    1.17
   2  -5   0    5.74    0.91
  -2  -5   0    3.90    1.34
   2  -5   0    5.61    1.29
  -2   5   0    3.90    1.01
   2  -5   0    7.62    1.80
  -2  -5   0    5.86    0.98
  -2   5   0    5.53    0.61
  -2  -5   0    5.59    1.23
   2  -5   0    4.36    0.99
  -2  -5   0    3.70    1.21
   2   5   1    8.77    1.25
   2  -5   1    6.90    1.23
   2  -5   1    9.38    1.49
  -2  -5  -1    7.16    1.37
   2   5   1   15.80    2.08
  -2   5  -1    7.80    1.56
   2  -5   1    6.64    1.69
  -2  -5  -1    8.90    0.79
   2  -5   1    8.05    0.93
  -2  -5  -1    7.69    1.63
  -2   5  -1    8.73    1.41
   2   5   1    6.40    1.30
  -2   5  -1    7.08    1.51
  -2  -5  -1    8.95    1.43
   2  -5   1    8.08    0.95
  -2  -5  -2   15.72    1.95
   2  -5   2   12.92    1.67
   2  -5   2   14.17    1.32
  -2   5  -2   19.20    2.07
  -2  -5  -2   16.00    1.95
   2   5   2   13.28    1.89
   2  -5   2   13.47    1.10
   2   5   2   13.29    1.57
   2  -5   2   15.18    1.75
  -2  -5  -2   14.87    1.25
  -2  -5  -2   16.19    1.68
   2   5   2   12.61    0.71
  -2   5  -2   14.35    1.80
   2  -5   2   13.33    2.15
  -2   5  -2   10.80    1.71
   2   5   2   13.58    0.70
   2  -5   3    2.97    1.60
   2  -5   3    0.64    0.95
   2   5   3    0.69    0.55
   2  -5   3    1.32    0.46
  -2   5  -3    1.84    0.70
   2   5   3    1.88    0.51
   2   5   3    1.12    1.30
   2   5   3    4.20    1.80
  -2  -5  -3    1.25    0.96
  -2  -5  -3    2.10    0.72
  -2   5  -3    1.82    0.76
  -2  -5  -3    2.50    0.90
  -2   5  -3    2.35    1.08
   2  -5   3    2.49    1.02
  -2  -5  -3    1.52    1.06
  -2   5  -3    0.50    0.93
   2  -5   3    1.32    0.83
   2   5   3    2.94    0.96
   2   5   4    9.48    1.17
   2  -5   4    7.21    1.33
   2  -5   4    7.67    1.33
   2   5   4    7.64    1.53
   2   5   4    5.99    1.64
  -2   5  -4    6.38    0.98
  -2  -5  -4    7.88    1.63
  -2  -5  -4    8.69    1.31
   2  -5   4    6.66    0.79
  -2   5  -4    6.50    1.00
   2   5   4    6.88    0.98
  -2  -5  -4    8.04    1.60
  -2   5  -4    7.34    1.52
   2   5   4    6.79    1.16
  -2  -5  -4    6.69    1.13
  -2   5  -4    7.73    1.39
   2  -5   4    9.59    1.71
   2  -5   5    3.77    1.08
   2   5   5    5.18    1.05
   2  -5   5    7.90    1.71
  -2  -5  -5    6.63    1.58
  -2  -5  -5    4.26    1.18
  -2   5  -5    3.84    0.97
  -2  -5  -5    5.60    1.50
   2   5   5    4.95    0.92
  -2   5  -5    4.47    1.38
  -2  -5  -5    5.60    1.08
  -2   5  -5    4.89    1.17
   2   5   5    2.45    1.50
   2   5   5    5.28    1.55
   2  -5   5    6.12    1.35
   2  -5   6    0.22    0.94
  -2  -5  -6    0.91    1.06
   2  -5   6    0.01    1.04
  -2  -5  -6    0.09    0.54
   2   5   6    0.81    1.17
  -2   5  -6    0.59    0.96
   2   5   6   -0.79    1.42
  -2  -5  -6    0.16    0.91
  -2   5  -6    1.09    1.21
  -2   5  -6    1.04    0.80
  -2   5  -6    0.54    0.83
   2   5   6    0.10    0.59
   2   5   7    1.14    1.35
   2  -5   7    1.49    1.13
   2   5   7   -0.87    1.60
  -2  -5  -7    1.68    1.19
  -2   5  -7    1.40    0.91
  -2   5  -7    1.33    0.95
  -2   5  -7    1.90    1.13
  -2  -5  -7    0.40    1.11
   2  -5   7    0.76    1.03
  -2   5  -7    1.14    0.74
   2  -5   8   10.72    2.10
   2   5   8    8.08    1.99
  -2  -5  -8   11.88    2.27
  -2   5  -8   11.28    1.76
  -2  -5  -8    8.49    1.84
  -2   5  -8   10.51    2.18
   2   5   8    7.49    1.99
  -2  -5  -9    4.31    1.52
  -2   6   9   -0.98    1.37
  -2   6   9    0.84    1.27
   2   6  -8    4.45    1.72
  -2   6   8   -1.75    1.96
  -2   6   8    2.02    1.58
   2  -6  -8    3.49    1.63
  -2   6   8    3.44    1.46
   2   6  -8    4.28    1.65
  -2   6   8    2.03    1.31
  -2   6   8    5.08    2.19
  -2   6   8    4.82    1.72
   2   6  -8    4.07    1.60
  -2  -6   8    2.09    1.28
  -2  -6   7   13.20    2.34
   2   6  -7   15.75    2.38
  -2   6   7   14.79    2.31
   2  -6  -7   15.85    2.55
  -2   6   7   16.16    2.62
   2  -6  -7   16.65    2.41
   2   6  -7   15.22    2.43
  -2   6   7   16.32    2.27
  -2   6   7   12.68    2.29
  -2   6   7   15.67    1.98
  -2   6   7   12.76    2.46
  -2   6   7   18.68    2.73
  -2   6   6   15.35    2.13
  -2   6   6   12.49    2.27
  -2   6   6   13.33    2.40
  -2   6   6   11.26    2.08
   2   6  -6   12.24    2.10
   2  -6  -6   11.81    1.98
  -2   6   6   13.37    2.03
  -2  -6   6   18.08    2.50
  -2   6   6   12.69    1.95
  -2   6   6   13.25    1.87
   2  -6  -6   14.89    2.31
  -2  -6   6   15.29    2.64
  -2  -6   5   11.71    2.28
  -2   6   5    8.75    1.92
   2  -6  -5    8.24    1.86
  -2   6   5    7.62    1.92
  -2  -6   5    9.04    1.81
  -2   6   5   10.07    1.98
   2  -6  -5    8.01    1.69
  -2   6   5    8.61    1.59
   2   6  -5    9.13    1.74
  -2   6   5    7.78    1.49
  -2   6   5   10.91    1.86
   2  -6  -4   14.24    2.23
  -2  -6   4   11.66    1.98
  -2   6   4   10.06    1.44
  -2   6   4   10.50    2.03
   2  -6  -4   10.68    1.77
  -2   6   4    7.27    1.86
  -2   6   4   12.59    1.67
  -2   6   4   10.37    2.01
  -2   6   4   13.85    1.99
   2   6  -4   13.24    1.97
  -2  -6   4   10.86    2.03
   2  -6  -3   30.71    2.80
  -2   6   3   27.22    2.91
  -2   6   3   25.93    2.85
  -2   6   3   25.82    2.02
  -2   6   3   28.53    2.78
   2   6  -3   25.55    1.62
  -2  -6   3   29.03    2.78
  -2   6   3   24.27    1.63
   2   6  -3   26.43    2.70
  -2  -6   3   28.26    2.72
   2  -6  -3   25.52    1.62
  -2   6   3   28.41    2.13
   2  -6  -3   26.58    2.27
   2  -6  -3   29.59    2.91
   2   6  -2   48.96    2.44
   2  -6  -2   48.44    3.21
  -2   6   2   50.82    3.72
  -2   6   2   48.20    3.45
   2  -6  -2   47.25    2.79
  -2  -6   2   47.64    3.27
   2   6  -2   44.68    3.24
   2  -6  -2   49.92    3.60
  -2   6   2   44.73    2.42
  -2  -6   2   46.83    3.25
   2  -6  -2   47.04    2.43
  -2   6   2   50.75    2.49
  -2   6   2   49.34    2.51
   2  -6  -2   47.21    2.43
  -2  -6   2   50.35    3.46
   2  -6  -1   19.13    2.31
   2  -6  -1   17.78    0.91
  -2  -6   1   17.68    2.05
   2   6  -1   17.20    1.66
   2  -6  -1   19.52    1.74
  -2   6   1   15.29    1.98
   2   6  -1   14.31    1.85
  -2  -6   1   18.24    2.11
  -2   6   1   15.29    1.60
  -2  -6   1   16.79    2.14
   2  -6  -1   17.23    1.64
  -2  -6   1   14.30    1.34
  -2   6   1   18.98    1.33
   2  -6  -1   20.19    2.13
  -2  -6   0   11.25    1.89
   2  -6   0   13.18    1.38
   2   6   0   10.82    1.67
   2  -6   0    8.40    1.66
   2   6   0   10.57    1.50
  -2   6   0   10.03    1.72
   2  -6   0   10.22    0.75
  -2  -6   0   10.50    1.68
  -2   6   0   10.39    1.42
  -2  -6   0    9.40    1.26
  -2  -6   0   10.24    1.59
   2  -6   0   12.42    1.74
   2  -6   0    9.94    1.44
   2   6   1   62.96    3.92
   2  -6   1   58.09    2.50
  -2  -6  -1   57.74    3.58
   2   6   1   51.76    3.17
   2  -6   1   54.55    3.75
  -2  -6  -1   58.18    3.32
   2  -6   1   51.28    3.13
  -2   6  -1   58.10    3.33
   2  -6   1   56.62    3.24
  -2   6  -1   58.13    3.64
  -2   6  -1   51.14    3.34
   2  -6   1   58.98    1.97
  -2  -6  -1   51.98    3.48
   2  -6   2    7.43    1.73
   2  -6   2    9.96    1.61
   2  -6   2    8.80    1.50
   2  -6   2   10.00    1.12
   2   6   2   10.65    1.61
   2   6   2   10.91    1.97
  -2   6  -2   10.96    1.72
   2  -6   2    9.58    1.06
  -2  -6  -2    9.99    1.81
  -2   6  -2   12.31    1.07
  -2  -6  -2    9.41    0.97
  -2  -6  -2   10.24    1.83
  -2   6  -2    9.25    1.60
  -2   6  -2    8.94    1.68
  -2  -6  -2    8.87    1.45
   2  -6   3    6.83    1.54
   2  -6   3    6.55    1.06
   2   6   3   10.16    1.47
   2   6   3    8.76    1.95
  -2   6  -3    7.23    1.49
  -2  -6  -3    8.67    1.80
   2  -6   3    7.18    0.89
  -2  -6  -3    8.90    1.17
  -2   6  -3    7.36    0.90
  -2   6  -3    6.87    1.54
  -2  -6  -3    7.48    1.31
   2  -6   3    7.18    1.36
   2  -6   3    8.45    1.93
  -2  -6  -3    8.98    1.80
   2   6   4   -0.81    1.47
   2  -6   4    1.59    1.16
   2   6   4    1.57    0.84
   2  -6   4    0.92    0.86
  -2  -6  -4    2.13    1.25
  -2  -6  -4    1.75    0.87
   2  -6   4    1.60    0.86
  -2   6  -4    1.63    1.22
  -2   6  -4    2.90    1.10
  -2  -6  -4    2.32    0.96
   2  -6   4    4.36    1.84
   2   6   4    1.50    1.47
  -2  -6  -4    0.59    0.98
   2  -6   5    6.73    2.26
   2   6   5    1.64    1.27
   2  -6   5    4.44    1.32
  -2  -6  -5    5.87    1.75
   2  -6   5    3.83    1.21
   2   6   5    2.62    1.57
   2   6   5    3.48    0.99
  -2  -6  -5    4.08    1.54
  -2   6  -5    2.59    1.02
  -2  -6  -5    3.07    1.08
  -2   6  -5    3.00    1.35
   2  -6   5    6.33    1.66
  -2  -6  -5    3.88    0.94
   2  -6   6    2.36    1.34
   2   6   6    4.06    1.77
  -2  -6  -6    2.28    1.43
  -2  -6  -6    4.34    1.24
  -2  -6  -6    3.43    1.61
  -2   6  -6    3.18    1.45
   2   6   6    6.63    2.03
   2  -6   6    1.24    1.13
  -2   6  -6    1.34    0.98
  -2   6  -6    2.61    1.18
   2  -6   7    0.27    1.23
   2   6   7   -0.16    1.22
  -2  -6  -7   -1.23    1.15
  -2  -6  -7    1.00    1.27
  -2   6  -7   -1.32    1.02
   2  -6   7   -0.06    1.26
  -2   6  -7   -0.27    1.29
   2   6   7   -0.59    1.46
  -2  -6  -8    1.20    1.19
   2  -7  -7   35.52    3.54
  -2   7   7   31.83    3.11
  -2   7   7   32.13    3.20
  -2   7   7   34.66    3.42
  -2   7   7   31.22    3.00
  -2  -7   6   -0.13    1.42
   2   7  -6    0.44    1.06
  -2   7   6    2.68    1.70
  -2   7   6   -0.48    1.75
  -2   7   6    5.58    2.15
  -2   7   6   -0.65    1.16
  -2   7   6    1.04    1.13
  -2   7   6    2.06    1.43
   2  -7  -6    1.05    1.30
  -2   7   6    0.23    1.01
  -2  -7   6    0.59    1.38
   2  -7  -6    1.84    1.11
   2  -7  -5    3.71    1.41
  -2  -7   5    0.77    1.26
   2   7  -5    1.52    1.30
  -2   7   5    0.72    1.70
  -2   7   5    2.47    1.91
   2  -7  -5    0.80    1.07
  -2   7   5    2.65    1.44
  -2   7   5    3.38    1.30
  -2  -7   5    3.74    1.74
  -2   7   5    2.62    1.24
  -2   7   5    2.62    1.21
   2  -7  -4    1.39    1.18
  -2   7   4    5.06    1.88
  -2   7   4    2.99    1.72
  -2   7   4    2.24    1.35
  -2  -7   4    4.04    1.51
  -2  -7   4    2.85    1.35
  -2  -7   4    3.50    1.53
  -2   7   4    4.03    1.29
   2  -7  -4    0.93    1.05
  -2   7   4    1.34    1.08
   2   7  -4    3.70    1.37
  -2   7   3    2.70    1.47
   2  -7  -3    2.75    1.32
   2  -7  -3    2.06    0.97
  -2   7   3    3.84    1.99
   2   7  -3    3.87    1.46
  -2   7   3    2.73    1.01
  -2   7   3    2.80    1.26
  -2  -7   3    2.92    1.30
  -2  -7   3   -1.55    1.51
   2  -7  -3    1.22    1.27
  -2  -7   3    3.66    1.40
   2  -7  -2    1.57    0.84
  -2  -7   2   -0.30    1.18
   2  -7  -2    0.39    1.10
  -2   7   2    0.74    1.20
   2   7  -2    0.25    0.94
  -2   7   2    0.07    0.81
   2  -7  -2   -1.29    0.95
  -2  -7   2   -0.49    1.03
  -2  -7   2    3.19    1.52
   2  -7  -2    1.19    1.34
   2   7  -2   -0.25    0.74
   2   7  -1    2.85    1.36
   2  -7  -1    4.13    1.65
  -2  -7   1    2.05    1.37
   2   7  -1    3.38    1.14
  -2   7   1    3.25    1.46
   2  -7  -1    3.04    1.05
  -2   7   1    2.11    0.94
  -2  -7   1    2.48    1.36
  -2  -7   1    3.11    1.20
   2  -7  -1    4.23    1.14
   2  -7  -1    3.74    1.26
   2  -7   0    0.68    1.33
   2  -7   0    2.75    1.04
  -2  -7   0   -1.22    1.15
   2   7   0    0.97    0.87
  -2   7   0    1.02    1.15
   2  -7   0   -0.10    0.77
  -2  -7   0   -0.19    1.09
  -2   7   0    1.04    1.04
  -2  -7   0    1.05    0.91
   2  -7   0    0.78    0.99
   2   7   0    1.48    1.15
  -2   7   0    0.58    1.18
   2  -7   1    0.63    1.00
  -2  -7  -1   -0.26    0.90
  -2  -7  -1   -2.16    1.40
   2   7   1    1.08    0.95
   2  -7   1    0.83    0.91
   2   7   1   -0.69    0.83
  -2   7  -1    1.66    1.14
   2  -7   1   -0.54    0.72
  -2  -7  -1   -0.51    1.09
  -2   7  -1    0.73    0.91
   2  -7   1   -0.79    1.40
  -2   7  -1    0.22    0.98
   2  -7   2    2.89    1.55
   2  -7   2    3.18    1.18
   2   7   2    3.86    1.18
   2   7   2    8.02    2.20
  -2   7  -2    6.62    1.68
  -2  -7  -2    5.82    1.61
  -2   7  -2    3.64    1.23
   2  -7   2    2.80    1.21
  -2   7  -2    4.77    1.42
  -2  -7  -2    4.45    1.27
  -2  -7  -2    2.44    1.28
   2  -7   3    3.49    1.32
   2   7   3    3.54    1.12
   2  -7   3    4.81    1.95
  -2  -7  -3    1.78    1.26
   2  -7   3    3.89    1.22
   2   7   3    1.41    1.52
  -2  -7  -3    4.23    1.65
  -2   7  -3    3.72    1.50
  -2   7  -3    1.36    1.13
  -2  -7  -3    2.78    1.04
   2  -7   4    4.78    1.57
  -2  -7  -4    6.92    1.78
   2  -7   4    6.37    1.31
   2   7   4    4.92    1.97
  -2  -7  -4    5.63    1.70
  -2   7  -4    5.42    1.64
  -2  -7  -4    5.71    1.15
   2  -7   4    3.66    1.78
  -2   7  -4    5.38    1.64
  -2  -7  -5    7.61    1.98
   2   7   5    2.48    1.73
   2   7   5    6.55    2.35
  -2  -7  -5    1.99    1.37
  -2   7  -5    1.33    1.26
   2  -7   5    6.10    1.84
   2  -7   5    3.03    1.77
  -2   7  -5    3.81    1.41
  -2  -7  -6   -0.03    1.22
   2   7   6    0.23    1.57
  -2   7  -6    2.25    1.27
  -2   7  -6    2.43    1.32
  -2   8   6    1.08    1.14
   2  -8  -5    0.76    1.16
  -2   8   5   -1.35    1.22
  -2  -8   4    0.94    1.26
  -2   8   4    2.07    1.67
  -2  -8   4   -1.03    1.65
   2   8  -4   -0.69    1.17
   2  -8  -4    1.38    1.08
  -2  -8   4    1.49    1.30
  -2   8   4   -0.34    1.09
  -2   8   3    0.15    1.46
  -2  -8   3    0.77    1.22
   2   8  -3    1.70    1.29
   2  -8  -3    0.88    1.07
  -2  -8   3   -0.60    1.19
  -2   8   3    0.96    1.14
  -2  -8   3    3.51    1.91
   2  -8  -3    0.11    1.20
   2  -8  -2    0.49    1.15
   2  -8  -2   -0.18    1.20
  -2  -8   2   -0.53    1.01
   2   8  -2   -0.33    1.23
   2  -8  -2   -0.60    0.96
  -2  -8   2   -0.73    1.29
  -2   8   2   -0.19    1.44
  -2   8   2    1.30    1.31
  -2  -8   2    2.10    1.57
  -2  -8   1   -0.28    1.25
   2   8  -1   -0.24    1.04
   2  -8  -1    0.78    1.22
  -2   8   1   -0.24    1.26
  -2   8   1   -0.02    0.79
  -2  -8   1   -1.23    1.30
  -2  -8   1   -1.18    1.32
   2  -8  -1   -0.19    0.91
   2  -8  -1   -0.95    1.40
  -2   8   1    1.19    1.31
   2  -8   0   -0.34    0.87
  -2  -8   0    1.44    1.26
   2   8   0    1.72    1.11
   2  -8   0    2.60    1.38
  -2  -8   0    1.75    1.46
   2   8   0    0.79    1.04
  -2   8   0   -1.15    1.49
  -2   8   0    0.21    0.94
   2  -8   0   -0.64    1.32
  -2   8   0    0.70    1.15
  -2  -8   0   -0.37    1.28
   2  -8   1    6.11    1.50
   2  -8   1    5.02    1.36
  -2  -8  -1    3.34    1.45
   2   8   1    5.72    1.49
   2   8   1    6.07    1.66
  -2   8  -1    3.08    1.23
  -2  -8  -1    6.06    1.80
  -2   8  -1    7.69    1.90
   2  -8   1    7.33    2.14
  -2   8  -1    6.40    1.79
  -2  -8  -1    5.32    1.56
   2  -8   2    1.22    1.26
   2  -8   2    1.12    1.52
  -2   8  -2    0.67    1.10
   2   8   2    0.62    0.96
   2   8   2   -0.41    1.18
  -2  -8  -2    0.70    1.19
  -2  -8  -2    1.51    1.25
  -2   8  -2   -0.50    0.99
   2  -8   2    1.43    1.00
  -2  -8  -2    4.62    1.83
   2  -8   3   -1.07    1.28
  -2   8  -3    0.88    1.18
   2   8   3    3.86    1.94
   2   8   3   -1.72    1.51
  -2  -8  -3    3.38    1.59
  -2   8  -3    1.93    1.43
  -2  -8  -3    0.52    1.29
   2  -8   3   -3.28    1.89
   2  -8   4    4.23    1.67
   2   8   4    2.15    1.57
  -2  -8  -4    0.39    1.27
  -2   8  -4    3.69    1.63
  -2   8  -4    1.33    1.26
   2   8   4    7.31    2.33
  -2  -8  -4    3.19    1.62
  -2   8  -5    0.01    1.36
  -2  -9   2   -0.45    1.27
   2   9  -1    2.39    1.62
  -2   9   1   -1.59    1.62
  -2  -9   1   -0.01    1.23
  -2  -9   0    1.23    1.17
  -2  -9   0    1.33    1.34
  -2   9   0    3.73    1.83
   2   9   0    3.44    1.50
  -2   9  -1    4.12    1.66
  -2  -9  -1   -0.05    1.13
  -2   9  -1    1.71    1.09
  -2  -9  -1   -1.30    1.36
   2  -9   1    1.68    1.16
   2  -9   2    0.98    1.08
   2   9   2    3.66    1.40
   3   0 -11   24.64    3.06
  -3   0  11   22.93    3.04
   3   0 -11   22.87    3.02
  -3   0  11   27.03    3.19
   3   0 -11   24.65    3.18
   3   0 -10   -0.90    1.20
   3   0 -10   -0.66    1.24
  -3   0  10    1.27    1.41
   3   0 -10   -0.34    1.12
  -3   0  10    0.08    1.11
   3   0  -9   49.58    3.75
  -3   0   9   50.25    2.84
  -3   0   9   51.07    3.80
   3   0  -9   49.29    3.64
   3   0  -9   53.41    2.59
  -3   0   9   51.04    3.85
  -3   0   9   51.13    2.56
  -3   0   9   49.16    3.73
   3   0  -9   51.33    3.77
   3   0  -8   92.45    4.72
  -3   0   8   92.50    3.54
  -3   0   8   92.98    4.66
   3   0  -8   93.65    4.64
   3   0  -8   98.64    4.79
   3   0  -8   92.12    3.22
  -3   0   8   90.32    4.61
  -3   0   8   90.72    3.21
  -3   0   8   92.19    4.64
  -3   0   7  508.35    7.13
  -3   0   7  557.79    7.97
  -3   0   7  548.59   10.35
   3   0  -7  568.61   10.46
   3   0  -7  556.08   10.33
  -3   0   7  532.64   10.24
  -3   0   7  533.77    7.27
   3   0  -7  568.77    7.43
   3   0  -7  544.69   10.36
  -3   0   6  495.42    7.68
  -3   0   6  495.74    6.96
   3   0  -6  508.97    9.21
  -3   0   6  490.19    9.04
   3   0  -6  523.97    9.35
   3   0  -6  508.33    6.58
  -3   0   6  488.23    9.04
  -3   0   6  490.67    6.54
  -3   0   6  481.65    6.48
   3   0  -6  500.01    5.23
  -3   0   6  476.06    6.53
   3   0  -6  492.17    9.11
  -3   0   6  501.16    5.35
   3   0  -6  497.79    9.00
  -3   0   5    1.10    0.46
   3   0  -5    1.66    1.04
  -3   0   5    0.31    0.65
   3   0  -5   -0.19    0.91
  -3   0   5    0.47    0.48
  -3   0   5    1.19    0.65
   3   0  -5    1.00    0.55
   3   0  -5    0.34    0.84
   3   0  -5    1.09    0.96
  -3   0   5   -1.72    1.21
  -3   0   5   -0.56    0.48
  -3   0   5    0.61    0.61
   3   0  -5    0.56    0.40
  -3   0   5    0.26    0.49
  -3   0   4   48.54    2.43
   3   0  -4   48.02    2.44
   3   0  -4   48.43    2.02
   3   0  -4   49.24    2.52
  -3   0   4   47.81    1.92
  -3   0   4   45.26    2.42
  -3   0   4   48.14    2.46
   3   0  -4   46.93    1.83
  -3   0   4   46.23    1.84
   3   0  -4   47.95    2.39
   3   0  -4   47.39    2.40
  -3   0   4   46.60    2.45
  -3   0   4   45.33    1.80
   3   0  -4   46.87    1.81
  -3   0   4   46.97    1.83
  -3   0   4   44.51    2.07
  -3   0   4   47.75    1.86
  -3   0   4   48.93    2.06
  -3   0   4   51.33    2.48
   3   0  -3  241.78    4.78
  -3   0   3  246.84    5.07
  -3   0   3  247.75    4.83
   3   0  -3  240.69    3.90
  -3   0   3  243.04    3.96
  -3   0   3  244.10    4.00
  -3   0   3  242.91    4.98
   3   0  -3  233.40    4.90
  -3   0   3  245.37    4.21
   3   0  -3  243.93    3.92
  -3   0   3  236.97    3.91
  -3   0   3  242.77    4.81
  -3   0   3  239.38    3.93
   3   0  -3  243.69    4.68
   3   0  -3  240.96    4.11
  -3   0   3  240.97    3.94
   3   0  -3  250.23    4.21
  -3   0   3  246.81    4.23
  -3   0   3  242.28    4.70
   3   0  -2    2.93    0.71
   3   0  -2    3.23    0.63
  -3   0   2    2.68    0.63
  -3   0   2    3.68    0.72
   3   0  -2    3.20    0.63
   3   0  -2    4.82    0.68
  -3   0   2    2.95    0.78
  -3   0   2    3.07    0.63
  -3   0   2    3.77    0.61
   3   0  -2    2.93    0.60
  -3   0   2    4.98    0.82
  -3   0   2    2.98    0.43
  -3   0   2    3.48    0.76
   3   0  -2    2.26    0.63
  -3   0   2    3.21    0.60
   3   0  -2    3.16    0.85
   3   0  -2    2.37    0.54
  -3   0   2    4.63    0.76
   3   0  -1   76.45    2.29
  -3   0   1   76.12    2.02
  -3   0   1   72.10    2.53
   3   0  -1   73.78    2.02
   3   0  -1   76.22    2.30
  -3   0   1   74.87    2.25
   3   0  -1   75.69    2.29
  -3   0   1   74.71    2.25
   3   0  -1   76.69    2.57
   3   0  -1   75.68    1.89
   3   0  -1   76.37    2.42
  -3   0   1   80.96    2.55
   3   0  -1   77.28    2.36
  -3   0   0   89.59    1.84
   3   0   0   94.00    2.85
  -3   0   0   91.84    2.83
   3   0   0   99.40    2.73
  -3   0   0   95.43    2.68
  -3   0   0   94.05    2.66
   3   0   0   93.07    2.66
   3   0   0   92.75    2.70
  -3   0   0   90.02    2.69
  -3   0   0   87.98    1.39
   3   0   0   92.83    1.61
   3   0   1  862.71    4.46
   3   0   1  868.53    8.98
  -3   0  -1  858.48    6.96
   3   0   1  901.29    8.69
  -3   0  -1  888.42    8.65
  -3   0  -1  910.24    8.69
   3   0   1  881.78    8.66
   3   0   1  876.18    8.33
  -3   0  -1  851.55    8.30
  -3   0  -1  873.62    8.92
   3   0   2  265.29    5.33
   3   0   2  264.19    5.10
  -3   0  -2  276.72    5.14
   3   0   2  269.50    2.72
   3   0   2  266.25    3.32
  -3   0  -2  268.73    5.09
  -3   0  -2  267.22    4.95
   3   0   2  270.28    5.16
   3   0   2  272.52    4.77
  -3   0  -2  274.89    4.75
  -3   0  -2  270.70    4.13
   3   0   3  206.01    4.80
   3   0   3  204.63    4.05
  -3   0  -3  204.50    4.82
   3   0   3  206.88    3.11
  -3   0  -3  206.56    4.81
  -3   0  -3  216.15    4.81
   3   0   3  197.25    4.75
   3   0   3  203.61    4.19
  -3   0  -3  202.38    4.13
  -3   0  -3  210.93    4.00
  -3   0  -4  298.34    4.81
  -3   0  -4  284.08    5.18
   3   0   4  280.52    5.28
  -3   0  -4  288.19    6.38
  -3   0  -4  286.72    4.84
   3   0   4  282.02    4.39
  -3   0  -4  289.69    6.00
   3   0   4  294.73    6.18
   3   0   4  284.62    4.95
  -3   0  -4  287.59    4.95
  -3   0  -4  290.44    6.09
  -3   0  -5  322.95    5.74
  -3   0  -5  327.42    7.40
  -3   0  -5  323.18    6.08
   3   0   5  328.78    6.30
  -3   0  -5  330.85    5.84
   3   0   5  325.38    6.96
   3   0   5  311.13    5.35
   3   0   5  319.10    5.25
  -3   0  -5  324.96    5.24
  -3   0  -5  334.17    7.04
  -3   0  -6   13.70    1.53
   3   0   6   15.24    1.87
  -3   0  -6   14.31    1.49
  -3   0  -6   13.45    1.69
   3   0   6   13.72    1.42
  -3   0  -6   13.86    1.86
   3   0   6   11.65    1.08
  -3   0  -6   13.30    1.13
  -3   0  -7    6.85    1.39
  -3   0  -7    4.81    1.11
   3   0   7    6.11    1.28
  -3   0  -7    5.36    1.18
  -3   0  -7    3.62    1.36
  -3   0  -8   15.08    1.78
  -3   0  -8   15.70    2.26
  -3   0  -8   15.52    1.90
   3   0   8   14.34    1.98
  -3   0  -8   16.23    2.03
  -3   0  -9   -0.67    0.86
   3   0   9   -0.38    0.87
  -3   0  -9    0.57    1.11
  -3   0  -9    1.77    1.02
   3   0  10    3.14    1.37
  -3   0 -10    2.85    1.50
  -3   0 -10    4.78    1.58
  -3   0 -10    4.80    1.39
   3   0  11    2.32    1.40
   3  -1 -11   22.47    3.00
   3   1 -11   20.24    2.90
   3  -1 -11   24.61    3.06
   3  -1 -11   22.88    3.00
  -3   1  11   20.75    2.98
  -3  -1  11   26.42    3.25
   3   1 -11   22.72    2.90
  -3   1  11   28.19    3.33
  -3  -1  11   19.43    2.74
  -3   1  11   24.22    3.13
   3   1 -11   19.19    2.71
   3  -1 -10    0.27    1.28
   3   1 -10   -0.21    0.79
   3  -1 -10    0.57    0.98
  -3   1  10   -0.15    1.02
  -3   1  10   -1.24    1.67
  -3  -1  10    0.01    1.22
   3  -1 -10   -0.35    1.06
   3   1 -10   -1.08    1.25
   3   1 -10    0.88    1.28
  -3   1  10    0.38    1.27
  -3  -1  10   -0.08    1.08
  -3   1  10    1.18    1.40
   3   1 -10    0.19    1.02
   3   1  -9   21.64    2.59
   3  -1  -9   20.71    2.45
  -3  -1   9   19.70    2.39
   3  -1  -9   19.33    2.48
  -3   1   9   21.31    2.72
   3  -1  -9   23.44    2.79
   3   1  -9   20.55    2.46
   3   1  -9   22.02    1.98
  -3  -1   9   19.71    1.89
  -3   1   9   19.41    2.45
  -3  -1   9   17.64    2.22
  -3   1   9   21.52    2.54
   3   1  -9   21.75    2.56
  -3   1   9   18.32    2.01
  -3  -1   8    4.80    1.07
   3   1  -8    5.79    1.58
  -3  -1   8    7.76    1.68
   3  -1  -8    4.82    1.34
  -3   1   8    6.15    0.73
   3  -1  -8    5.51    0.71
  -3   1   8    6.17    1.23
  -3  -1   8    5.76    0.86
  -3   1   8    5.32    1.61
   3   1  -8    6.45    1.13
   3  -1  -8    7.56    1.77
   3   1  -8    6.09    1.51
  -3   1   8    4.74    1.35
   3  -1  -8    9.74    1.83
  -3   1   8    4.76    1.40
   3   1  -8    6.17    1.52
   3  -1  -7   47.49    3.26
  -3  -1   7   47.14    2.36
  -3   1   7   50.60    2.81
  -3   1   7   49.06    1.76
  -3  -1   7   47.51    1.96
   3  -1  -7   51.79    3.31
  -3   1   7   51.48    3.40
   3   1  -7   48.72    3.20
  -3  -1   7   49.97    3.18
   3  -1  -7   51.13    3.39
   3   1  -7   54.46    3.22
   3  -1  -7   50.86    1.75
   3   1  -7   50.60    2.65
  -3   1   7   47.09    3.19
  -3  -1   7   51.57    3.45
  -3  -1   7   44.96    2.54
  -3   1   7   48.38    1.73
   3   1  -7   47.41    1.50
  -3   1   7   48.95    1.76
  -3   1   7   49.70    1.72
   3   1  -7   50.17    3.32
  -3   1   6    0.39    0.37
   3  -1  -6    1.47    1.03
   3  -1  -6    0.17    0.33
   3   1  -6    0.68    1.09
   3   1  -6    0.77    1.06
   3   1  -6    2.16    1.19
  -3   1   6   -0.34    0.87
  -3   1   6    0.30    1.08
  -3  -1   6   -1.41    1.14
  -3  -1   6    0.63    0.55
   3  -1  -6    0.17    0.84
   3   1  -6    0.82    1.06
  -3   1   6    0.90    0.95
  -3  -1   6    1.23    1.25
   3  -1  -6    0.09    1.06
  -3  -1   6    1.61    0.82
  -3  -1   6   -0.31    0.57
   3   1  -6    0.69    0.67
   3  -1  -6   -0.78    1.13
   3   1  -6   -0.28    0.37
   3   1  -6    0.25    0.68
  -3   1   6   -0.38    0.45
  -3   1   6    0.23    0.36
  -3  -1   6   -0.11    0.67
  -3   1   6    0.32    0.37
   3   1  -5   93.32    3.72
  -3  -1   5   91.82    3.53
  -3   1   5   86.60    1.98
   3   1  -5   94.09    3.78
  -3  -1   5   92.18    2.61
   3  -1  -5   95.56    3.78
   3  -1  -5   86.16    3.71
  -3  -1   5   94.40    3.79
  -3   1   5   91.87    3.50
  -3   1   5   86.98    3.65
   3  -1  -5   95.72    3.72
   3   1  -5   85.94    3.46
   3  -1  -5   88.34    3.77
  -3  -1   5   93.23    3.52
   3  -1  -5   94.31    2.04
   3   1  -5   96.46    3.22
  -3  -1   5   85.63    3.08
  -3   1   5   87.19    1.97
  -3  -1   5   92.08    3.17
  -3   1   5   90.61    3.44
  -3  -1   5   92.80    2.19
  -3   1   5   86.82    1.96
   3   1  -5   92.76    3.68
   3  -1  -5   90.75    2.61
   3   1  -5   87.95    2.50
  -3   1   5   92.91    2.67
  -3  -1   5   84.56    2.48
  -3   1   5   86.46    3.21
   3  -1  -5   94.03    3.43
  -3   1   4  669.41    9.24
  -3   1   4  704.46    8.68
   3  -1  -4  687.94    9.26
   3  -1  -4  671.10    8.35
   3   1  -4  683.50    6.07
  -3   1   4  673.53    9.15
   3   1  -4  687.28    9.01
  -3   1   4  666.45    8.13
  -3   1   4  681.25    9.07
  -3  -1   4  685.40    5.38
  -3  -1   4  669.73    6.15
   3  -1  -4  680.63    8.85
  -3   1   4  682.56    9.36
  -3  -1   4  681.61    8.59
  -3   1   4  681.86    8.32
   3  -1  -4  679.85    9.11
   3  -1  -4  688.60    5.23
  -3   1   4  684.20    9.35
  -3   1   4  665.15    5.24
  -3  -1   4  676.07    8.07
  -3  -1   4  694.39    9.22
   3   1  -4  700.57    8.99
  -3  -1   4  672.83    8.92
   3   1  -4  688.43    7.98
  -3   1   4  668.99    5.23
  -3  -1   4  664.25    8.00
  -3   1   4  690.74    8.92
  -3   1   4  681.67    5.29
   3  -1  -4  687.64    7.24
   3   1  -4  668.77    8.91
  -3   1   4  673.10    7.24
   3   1  -4  671.95    7.04
  -3  -1   4  675.64    8.04
  -3  -1   4  666.96    7.04
   3   1  -4  669.14    8.94
   3   1  -3  241.82    4.57
  -3  -1   3  252.53    3.49
  -3  -1   3  260.80    4.96
  -3   1   3  257.14    4.96
  -3   1   3  248.97    5.10
   3  -1  -3  237.40    4.73
   3   1  -3  247.61    3.35
   3   1  -3  241.68    4.98
   3  -1  -3  239.25    5.07
   3  -1  -3  245.76    5.11
  -3   1   3  254.96    5.24
   3   1  -3  245.73    3.10
  -3   1   3  257.02    4.97
  -3   1   3  247.59    4.79
   3  -1  -3  251.53    4.81
   3  -1  -3  250.43    3.24
  -3   1   3  245.62    5.27
  -3  -1   3  250.39    4.77
  -3  -1   3  243.65    4.64
  -3   1   3  246.73    3.27
   3   1  -3  250.18    4.83
  -3   1   3  246.21    5.09
   3   1  -3  244.77    4.78
  -3  -1   3  245.44    4.81
  -3  -1   3  243.18    4.62
  -3   1   3  247.23    4.76
  -3   1   3  238.98    3.20
   3  -1  -3  249.98    4.41
  -3   1   3  251.29    4.51
  -3  -1   3  243.95    4.63
   3  -1  -3  243.17    3.25
   3   1  -3  254.94    4.45
  -3   1   3  247.48    4.42
  -3  -1   3  243.34    4.36
   3   1  -3  246.58    4.91
  -3  -1   3  254.43    5.11
   3  -1  -2 2161.69   14.12
   3   1  -2 2134.48   12.98
  -3   1   2 2182.34   13.71
  -3   1   2 2218.92   13.92
   3  -1  -2 2173.87   10.36
   3   1  -2 2149.96   12.21
   3  -1  -2 2143.07   13.47
  -3   1   2 2149.34   14.30
  -3  -1   2 2161.33   13.67
   3   1  -2 2142.13   13.53
  -3   1   2 2170.36   11.01
   3   1  -2 2146.90    9.73
   3  -1  -2 2177.51   11.02
  -3  -1   2 2089.83   12.06
   3  -1  -2 2136.44   13.79
   3   1  -2 2134.99    9.90
   3  -1  -2 2184.88   13.39
  -3   1   2 2138.02   13.59
   3  -1  -2 2120.58   11.98
   3  -1  -2 2165.73   10.22
  -3   1   2 2162.73   10.38
   3   1  -2 2164.20   13.25
  -3  -1   2 2146.07   13.35
   3   1  -2 2156.39   12.31
  -3  -1   2 2167.33   12.43
  -3   1   2 2160.90   10.25
   3  -1  -2 2178.01   13.07
  -3  -1   2 2187.62   13.41
  -3   1   2 2071.95   12.96
   3   1  -2 2123.18   12.92
   3   1  -2 2138.23   13.31
  -3  -1   2 2148.34   13.01
  -3   1   2 2178.48   11.25
   3   1  -1  600.28    6.81
   3  -1  -1  592.00    7.08
   3   1  -1  602.22    5.28
   3  -1  -1  610.01    7.21
  -3  -1   1  576.93    3.53
   3  -1  -1  602.23    5.12
  -3   1   1  600.69    5.24
   3  -1  -1  621.11    7.17
   3  -1  -1  616.86    5.27
  -3   1   1  613.93    7.18
   3  -1  -1  602.27    5.98
  -3   1   1  610.44    6.03
  -3  -1   1  617.26    7.05
  -3   1   1  605.22    5.38
  -3  -1   1  597.87    6.83
   3   1  -1  593.12    5.43
  -3  -1   1  610.43    5.47
  -3   1   1  590.84    5.20
  -3   1   1  609.68    6.01
  -3   1   1  605.32    7.29
   3  -1  -1  604.28    6.04
  -3  -1   1  640.50    7.18
   3  -1  -1  602.59    6.99
  -3   1   1  586.83    7.00
   3   1  -1  600.99    7.01
   3   1  -1  601.84    7.01
   3   1  -1  612.53    7.00
  -3  -1   1  608.67    7.06
   3  -1  -1  599.17    5.18
  -3  -1   1  585.01    3.62
  -3   1   1  602.90    6.64
   3   1   0  242.35    2.28
   3  -1   0  241.80    3.38
  -3   1   0  250.80    4.72
  -3  -1   0  244.22    4.42
   3   1   0  245.56    4.37
   3   1   0  243.42    2.26
  -3  -1   0  247.41    3.63
   3  -1   0  245.92    4.23
   3  -1   0  248.52    4.64
  -3   1   0  253.81    4.29
   3   1   0  250.00    4.61
  -3  -1   0  244.45    4.52
  -3  -1   0  240.16    2.24
   3  -1   0  243.11    4.66
  -3  -1   0  251.63    2.67
  -3   1   0  249.43    4.23
  -3   1   0  239.75    2.35
   3  -1   0  250.21    4.26
  -3  -1   0  249.17    4.61
   3   1   0  247.05    4.59
   3  -1   0  241.43    4.45
   3  -1   0  237.75    3.29
  -3   1   0  249.12    4.60
   3   1   0  249.03    4.57
   3   1   0  229.84    2.28
  -3  -1   0  237.61    4.49
   3  -1   0  240.96    4.59
   3   1   1  625.77    7.36
   3  -1   1  610.36    7.69
  -3   1  -1  611.13    7.60
  -3  -1  -1  608.16    5.68
  -3   1  -1  610.32    4.19
   3  -1   1  631.65    7.35
  -3  -1  -1  601.10    7.02
  -3   1  -1  630.37    7.35
   3   1   1  611.09    7.40
  -3  -1  -1  633.07    7.52
  -3   1  -1  632.08    7.37
   3  -1   1  609.09    7.28
  -3  -1  -1  630.63    7.48
   3   1   1  616.92    7.48
   3  -1   1  631.89    7.29
  -3   1  -1  600.17    7.20
   3   1   1  617.23    7.29
  -3  -1  -1  618.13    7.24
   3   1   1  610.05    5.01
   3   1   1  597.42    5.81
  -3  -1  -1  627.21    7.30
   3   1   2   -0.03    0.62
   3   1   2    0.39    0.77
  -3   1  -2    0.35    0.49
  -3   1  -2    0.42    0.63
  -3  -1  -2    0.21    0.55
   3  -1   2   -0.74    0.64
  -3  -1  -2    0.40    0.51
   3   1   2    0.76    0.71
   3  -1   2    0.98    0.94
  -3   1  -2    1.23    0.81
   3   1   2    0.00    0.51
   3   1   2    0.39    0.64
  -3   1  -2   -0.01    0.29
  -3  -1  -2   -0.21    0.46
  -3  -1  -2   -1.50    0.75
  -3  -1  -2   -0.11    0.16
  -3  -1  -2    0.32    0.65
   3  -1   2    0.26    0.46
  -3   1  -2    0.32    0.62
   3   1   2    0.06    0.42
  -3  -1  -3   65.79    2.65
   3   1   3   68.06    2.79
   3   1   3   64.15    2.87
   3   1   3   64.45    2.39
   3   1   3   63.30    2.13
  -3   1  -3   61.40    1.80
  -3   1  -3   66.27    1.54
  -3  -1  -3   64.56    1.57
  -3   1  -3   65.46    2.84
   3  -1   3   63.47    1.87
   3   1   3   67.20    2.76
  -3  -1  -3   70.82    2.97
  -3  -1  -3   64.55    2.73
  -3  -1  -3   65.75    2.90
   3   1   3   62.97    2.45
  -3   1  -3   64.54    2.78
   3  -1   3   67.22    2.91
  -3   1  -3   63.17    2.42
  -3  -1  -3   69.34    2.95
  -3  -1  -3   66.56    2.72
   3   1   3   65.79    2.77
   3  -1   3   63.93    2.39
  -3   1  -3   65.17    2.44
   3   1   3   63.70    2.47
  -3  -1  -3   65.76    2.47
  -3   1  -3   67.96    2.90
  -3  -1  -3   65.24    1.60
   3  -1   3   63.97    2.98
   3   1   4    4.36    0.93
   3   1   4    3.99    0.99
  -3   1  -4    4.48    0.82
   3   1   4    5.64    1.07
  -3   1  -4    6.02    0.70
  -3   1  -4    3.96    0.67
  -3  -1  -4    5.47    1.06
  -3  -1  -4    4.13    1.00
  -3   1  -4    4.15    1.05
   3   1   4    4.96    0.98
   3  -1   4    4.43    0.72
   3   1   4    5.61    1.05
  -3  -1  -4    4.44    0.98
  -3  -1  -4    5.88    1.31
  -3   1  -4    6.93    1.43
   3   1   4    4.14    0.78
   3  -1   4    3.54    1.02
  -3  -1  -4    5.97    0.71
  -3   1  -4    6.13    1.00
   3  -1   4    4.80    0.80
  -3  -1  -4    4.77    0.68
  -3  -1  -4    5.26    0.84
   3   1   4    4.85    0.83
  -3  -1  -5   14.03    1.24
  -3   1  -5   14.43    1.73
   3  -1   5   16.87    1.84
   3   1   5   13.99    1.62
  -3  -1  -5   10.57    1.47
   3   1   5   14.48    1.59
  -3   1  -5   16.16    1.34
  -3   1  -5   13.68    1.16
  -3  -1  -5   15.21    1.66
  -3  -1  -5   10.83    1.57
  -3   1  -5   14.12    1.85
  -3  -1  -5   14.27    1.20
  -3   1  -5   14.70    1.50
  -3   1  -5   13.57    1.53
   3  -1   5   12.41    1.21
   3  -1   5   13.69    1.19
   3   1   5   13.22    1.22
  -3   1  -5   15.11    1.31
  -3  -1  -5   13.64    1.22
   3   1   5   14.16    1.36
  -3   1  -6    8.33    1.32
  -3  -1  -6    9.03    1.18
   3  -1   6    9.83    1.59
  -3   1  -6    7.98    1.48
   3   1   6    9.95    1.58
   3   1   6    8.10    1.45
  -3  -1  -6    9.84    1.47
  -3   1  -6    8.73    0.99
  -3   1  -6    8.04    1.04
  -3  -1  -6    8.76    1.67
  -3   1  -6    9.57    1.72
  -3  -1  -6    9.37    1.14
   3  -1   6   10.11    1.38
  -3  -1  -6   12.34    1.57
   3  -1   6    9.03    1.00
   3   1   6    8.75    1.03
   3  -1   7    4.62    1.29
  -3   1  -7    3.42    1.11
  -3  -1  -7    3.30    0.96
  -3  -1  -7    3.86    1.16
   3   1   7    3.19    1.14
  -3   1  -7    3.77    0.63
  -3   1  -7    5.18    1.38
  -3   1  -7    3.33    0.90
  -3  -1  -7    3.90    1.12
   3   1   7    2.89    1.11
  -3  -1  -7    4.23    1.46
  -3   1  -7    5.06    1.46
  -3  -1  -8    0.74    0.78
  -3   1  -8    0.30    0.87
  -3  -1  -8    0.36    0.84
   3  -1   8    0.86    1.05
   3   1   8    0.33    1.06
  -3  -1  -8    1.08    1.26
  -3  -1  -8    2.20    1.13
  -3   1  -8    0.40    0.98
   3   1   8    1.18    1.00
  -3   1  -8    0.39    1.00
  -3   1  -8    2.21    0.85
  -3  -1  -9    1.31    0.96
  -3  -1  -9    1.92    0.89
   3  -1   9    2.62    1.25
   3   1   9    1.11    1.00
  -3   1  -9    1.20    1.10
   3   1   9    0.88    1.18
  -3  -1  -9    3.82    1.38
  -3  -1  -9   -0.57    1.17
  -3   1  -9    2.01    1.26
  -3   1  -9    2.47    1.30
  -3   1  -9    1.50    0.83
   3   1  10   12.60    2.33
  -3  -1 -10   11.50    2.33
  -3   1 -10   11.00    2.26
   3  -1  10   12.35    2.07
  -3   1 -10   10.58    1.91
  -3   1 -10    9.21    1.95
  -3  -1 -10   10.82    1.82
  -3   1 -11    5.96    1.74
   3  -1  11    7.20    1.77
  -3  -2  11    5.96    1.80
   3   2 -11    7.16    1.80
  -3   2  11    8.04    1.97
  -3  -2  11    6.06    1.77
  -3   2  11    9.48    2.04
  -3  -2  10   10.63    1.65
   3  -2 -10   10.74    2.06
   3   2 -10   14.07    2.31
   3  -2 -10   10.26    2.11
  -3  -2  10   12.77    2.17
  -3   2  10    9.18    1.74
  -3   2  10   10.96    2.22
  -3  -2  10   10.81    2.01
   3   2 -10   11.47    1.81
   3  -2 -10   14.54    2.55
   3   2 -10    9.73    1.92
  -3   2  10   13.93    2.24
  -3   2  10   10.03    2.31
   3   2 -10   12.89    2.28
  -3  -2   9    3.57    1.13
   3  -2  -9    7.98    1.73
  -3  -2   9    4.18    1.35
  -3   2   9    1.84    0.96
   3   2  -9    2.96    1.08
  -3   2   9    5.46    1.75
   3  -2  -9    1.55    1.32
   3   2  -9    4.34    1.35
   3  -2  -9    3.95    1.36
  -3   2   9    4.11    1.41
  -3  -2   9    3.80    1.34
  -3   2   9    3.61    1.51
   3   2  -9    4.43    1.42
   3   2  -9    6.11    1.72
   3   2  -8    7.85    1.71
   3  -2  -8   12.69    1.91
   3   2  -8   10.29    1.84
  -3  -2   8    8.35    1.55
  -3   2   8   11.22    1.99
  -3   2   8    6.90    1.48
   3   2  -8   10.08    1.54
   3  -2  -8   13.38    2.05
   3  -2  -8    9.73    1.87
   3   2  -8   11.80    1.72
  -3   2   8    8.11    1.70
  -3   2   8    8.57    1.66
  -3  -2   8    8.43    1.41
   3   2  -7  743.84   12.50
   3  -2  -7  762.49   12.80
  -3  -2   7  747.24    7.80
   3  -2  -7  746.85   12.29
  -3   2   7  736.49   11.47
  -3   2   7  733.11   12.69
  -3  -2   7  730.83   11.24
   3  -2  -7  737.35   12.74
   3   2  -7  745.17   11.33
  -3   2   7  739.47   12.25
   3   2  -7  738.30   10.94
  -3  -2   7  712.39   10.90
  -3   2   7  725.67   12.65
   3   2  -7  750.83   12.29
  -3   2   7  746.35    8.00
   3   2  -7  749.87    7.22
   3  -2  -6  150.86    5.14
   3   2  -6  146.06    5.23
   3  -2  -6  148.59    5.38
   3  -2  -6  142.74    5.06
  -3   2   6  148.57    4.91
   3   2  -6  150.78    4.73
  -3   2   6  143.83    5.31
  -3  -2   6  147.23    4.67
   3  -2  -6  153.78    5.42
  -3   2   6  137.76    5.07
   3   2  -6  150.52    4.77
  -3  -2   6  144.55    4.74
   3   2  -6  145.09    5.18
  -3   2   6  155.56    3.85
   3   2  -6  145.89    3.48
  -3  -2   6  150.17    3.03
   3   2  -5   35.79    2.48
   3  -2  -5   37.48    2.49
   3  -2  -5   36.37    2.43
   3   2  -5   35.41    2.37
   3  -2  -5   40.20    2.70
   3  -2  -5   33.61    2.41
  -3   2   5   36.83    2.45
  -3  -2   5   34.51    2.15
   3  -2  -5   38.65    2.74
  -3  -2   5   37.56    2.22
  -3   2   5   38.19    2.57
   3   2  -5   35.38    2.32
  -3  -2   5   34.19    2.30
  -3   2   5   37.46    1.95
   3   2  -5   37.57    1.85
   3   2  -5   35.34    2.48
  -3  -2   5   34.34    1.22
  -3   2   4    0.96    0.72
   3  -2  -4    1.25    1.01
   3   2  -4    1.46    0.85
  -3  -2   4    1.26    0.79
  -3   2   4    0.66    0.76
   3  -2  -4    0.57    0.87
  -3  -2   4    2.45    0.90
   3  -2  -4    0.56    0.76
   3  -2  -4    1.18    0.86
   3   2  -4    0.89    0.86
  -3   2   4   -0.87    0.95
  -3   2   4    1.77    0.89
  -3   2   4    1.53    0.96
   3   2  -4    0.81    0.77
  -3   2   4    1.13    0.71
  -3  -2   4    0.71    0.60
  -3   2   4    0.90    0.76
  -3  -2   4    0.07    0.74
   3  -2  -4   -1.00    0.92
   3   2  -4    0.64    0.62
   3   2  -4    0.56    0.45
  -3   2   4    1.06    0.66
  -3  -2   4    0.82    0.73
   3   2  -4    3.86    1.19
   3   2  -3  122.12    3.58
   3  -2  -3  126.92    3.91
  -3  -2   3  130.96    3.64
   3  -2  -3  126.81    3.60
   3  -2  -3  120.10    3.68
   3   2  -3  126.26    3.52
  -3   2   3  126.85    3.64
  -3   2   3  125.77    3.90
  -3   2   3  121.79    3.53
  -3   2   3  132.48    3.99
  -3   2   3  119.65    3.51
  -3   2   3  123.50    3.92
  -3  -2   3  123.79    3.15
   3  -2  -3  123.86    3.59
  -3   2   3  118.93    1.93
   3   2  -3  126.78    3.79
  -3   2   3  123.44    3.93
  -3  -2   3  123.78    3.80
   3   2  -3  121.31    3.52
  -3   2   3  124.99    3.65
  -3   2   3  125.19    3.54
  -3  -2   3  123.85    3.79
  -3   2   3  118.48    1.85
   3  -2  -3  121.05    1.91
  -3   2   3  126.79    3.55
  -3  -2   3  126.05    3.82
  -3   2   3  124.48    1.94
   3   2  -3  127.46    3.45
  -3   2   3  129.44    3.83
   3   2  -2    3.69    0.77
  -3   2   2    2.60    0.46
  -3   2   2    2.18    0.44
   3   2  -2    2.59    0.35
  -3   2   2    2.74    0.76
  -3   2   2    2.55    0.46
   3   2  -2    1.75    0.67
   3  -2  -2    4.05    0.80
  -3  -2   2    3.28    0.74
  -3   2   2    3.13    0.83
  -3   2   2    3.44    0.72
   3   2  -2    2.99    0.88
  -3  -2   2    2.91    0.81
  -3   2   2    2.38    0.88
  -3   2   2    2.34    0.62
  -3  -2   2    1.37    0.70
  -3   2   2    2.54    0.77
  -3   2   2    2.20    0.60
   3  -2  -2    2.24    0.82
   3   2  -2    3.09    0.59
   3  -2  -2    3.08    0.76
  -3   2   2    2.34    0.78
  -3  -2   2    2.88    0.92
  -3   2   2    2.82    0.79
   3  -2  -2    3.31    0.79
  -3   2   2    2.39    0.75
   3  -2  -2    2.99    0.51
   3  -2  -2    1.99    0.79
  -3   2   2    3.37    0.80
   3   2  -2    3.77    0.69
  -3   2   1  256.28    5.25
   3   2  -1  259.82    3.84
  -3   2   1  261.55    5.14
   3  -2  -1  253.07    4.78
  -3   2   1  256.36    4.86
  -3  -2   1  255.80    4.37
  -3   2   1  254.30    5.26
   3   2  -1  255.85    4.35
  -3   2   1  253.74    3.99
  -3  -2   1  256.48    3.78
   3  -2  -1  251.58    4.40
  -3  -2   1  254.33    3.67
  -3   2   1  255.40    4.52
   3  -2  -1  264.29    5.23
  -3   2   1  257.58    3.68
   3   2  -1  252.30    3.72
  -3   2   1  261.52    4.09
   3   2  -1  254.76    5.08
  -3  -2   1  257.51    5.14
  -3   2   1  248.12    3.93
   3  -2  -1  251.42    4.01
  -3   2   1  259.72    4.64
   3  -2  -1  260.63    5.07
  -3   2   1  251.07    5.00
  -3  -2   1  257.76    5.12
   3   2  -1  251.33    5.10
  -3   2   1  255.44    4.05
   3   2  -1  264.17    5.06
  -3  -2   1  241.83    4.92
  -3   2   1  253.20    3.79
   3  -2  -1  264.10    5.23
   3  -2  -1  252.15    4.49
   3  -2   0   70.54    2.79
  -3  -2   0   69.58    1.91
  -3  -2   0   73.16    2.01
  -3   2   0   74.46    2.68
  -3  -2   0   70.31    2.34
   3   2   0   71.30    1.99
   3  -2   0   73.78    1.76
   3   2   0   73.25    2.35
  -3  -2   0   73.49    2.55
  -3   2   0   72.23    1.82
   3  -2   0   70.02    2.75
  -3   2   0   73.61    2.89
  -3   2   0   70.20    1.42
  -3   2   0   74.17    2.46
   3   2   0   74.55    2.80
  -3  -2   0   74.21    2.76
   3   2   0   71.33    1.50
   3  -2   0   72.71    2.49
  -3   2   0   71.63    2.39
   3  -2   0   70.86    2.43
   3  -2   0   75.22    2.80
  -3  -2   0   78.21    2.83
  -3   2   0   70.74    2.71
   3   2   0   68.92    2.72
  -3   2   0   73.14    2.44
   3  -2   0   71.21    2.61
   3   2   0   74.77    2.77
  -3  -2   0   74.69    2.77
   3   2   0   72.10    2.04
   3  -2   0   70.07    2.40
   3   2   1   37.65    0.90
   3   2   1   39.68    1.63
   3   2   1   37.83    1.85
  -3   2  -1   43.03    2.15
  -3  -2  -1   39.99    1.91
   3  -2   1   40.25    2.15
  -3   2  -1   40.63    2.01
  -3  -2  -1   39.25    2.20
   3   2   1   37.60    2.04
  -3  -2  -1   38.58    2.05
  -3  -2  -1   39.25    1.62
  -3   2  -1   40.37    2.00
   3  -2   1   42.23    2.09
  -3  -2  -1   44.83    2.20
   3  -2   1   40.44    2.08
  -3   2  -1   40.77    2.10
   3   2   1   40.18    2.13
   3   2   1   40.48    1.70
  -3   2  -1   40.16    2.03
   3   2   1   41.79    2.13
  -3  -2  -1   37.71    2.03
   3  -2   1   40.10    1.30
   3  -2   1   44.22    2.35
   3  -2   1   39.04    2.12
   3   2   2   17.79    0.63
  -3  -2  -2   19.55    1.35
   3   2   2   19.28    1.34
   3   2   2   20.67    1.62
   3   2   2   21.59    1.39
  -3  -2  -2   19.61    1.46
   3   2   2   23.52    1.66
   3  -2   2   22.09    1.69
  -3   2  -2   20.48    1.59
  -3  -2  -2   19.69    1.52
   3   2   2   19.38    1.58
   3  -2   2   20.02    1.73
  -3  -2  -2   17.86    1.57
  -3  -2  -2   19.50    1.55
  -3  -2  -2   21.29    1.59
  -3   2  -2   20.24    1.59
   3  -2   2   21.30    1.67
  -3  -2  -2   20.94    1.70
  -3   2  -2   21.02    1.23
  -3  -2  -2   17.43    1.46
   3  -2   2   21.05    1.54
   3   2   2   20.31    1.63
  -3   2  -2   20.62    1.57
  -3   2  -2   19.31    1.56
   3   2   2   21.95    1.58
  -3   2  -3    6.12    1.16
   3   2   3    7.68    0.61
   3  -2   3    5.27    1.03
   3   2   3    6.79    1.16
  -3  -2  -3    6.91    1.05
   3   2   3    6.45    1.12
   3   2   3    6.85    1.09
  -3  -2  -3    6.86    1.14
  -3  -2  -3    7.72    1.29
   3   2   3    9.02    1.42
  -3  -2  -3    7.51    1.29
   3   2   3    7.56    1.10
   3   2   3    6.49    1.02
  -3   2  -3    5.92    0.79
   3   2   3    5.48    1.01
   3  -2   3    6.92    0.96
  -3   2  -3    6.89    0.64
  -3  -2  -3    9.21    1.22
  -3   2  -3    8.17    1.13
   3  -2   3    6.76    1.31
  -3  -2  -4   17.12    1.12
   3   2   4   17.06    1.52
   3   2   4   19.60    1.85
   3  -2   4   17.11    1.77
   3   2   4   15.99    1.61
   3  -2   4   16.24    0.95
   3   2   4   17.60    1.63
  -3  -2  -4   15.89    1.76
  -3  -2  -4   17.59    1.62
  -3  -2  -4   17.20    1.79
  -3   2  -4   16.91    1.81
  -3   2  -4   18.63    1.22
  -3   2  -4   16.54    1.32
  -3  -2  -4   13.80    1.47
  -3   2  -4   17.24    1.77
  -3   2  -4   17.54    1.48
   3   2   4   17.74    1.53
   3   2   4   16.81    1.62
  -3  -2  -5  544.40    6.86
  -3  -2  -5  558.56    9.55
   3   2   5  538.13    9.11
   3   2   5  533.14    8.66
   3  -2   5  546.59    6.44
  -3  -2  -5  556.21    9.89
  -3   2  -5  536.78    9.43
  -3   2  -5  534.30    6.83
  -3   2  -5  551.56    7.86
   3  -2   5  535.43    9.75
   3   2   5  552.32    8.91
  -3   2  -5  551.42    9.73
  -3   2  -5  558.00    7.67
   3   2   5  527.87    7.78
   3  -2   6    0.24    0.91
   3   2   6    0.02    0.75
   3   2   6    1.57    1.17
   3   2   6    0.00    0.52
  -3  -2  -6    0.24    0.81
  -3   2  -6    0.36    0.58
   3  -2   6    0.29    0.68
  -3   2  -6    0.01    0.78
  -3  -2  -6    1.27    1.01
  -3   2  -6   -0.07    1.01
  -3   2  -6   -0.02    0.61
  -3  -2  -6   -0.26    0.55
  -3  -2  -6    0.36    0.79
   3  -2   7    1.57    1.04
  -3  -2  -7   -0.40    0.77
   3   2   7   -0.47    0.81
  -3   2  -7    0.39    0.42
  -3  -2  -7    0.49    0.97
  -3   2  -7   -0.06    0.68
  -3  -2  -7    0.34    1.14
  -3   2  -7   -1.87    0.97
  -3   2  -7    0.67    0.92
   3   2   7    0.32    1.04
  -3  -2  -7    0.61    0.63
  -3   2  -7    1.75    1.09
   3   2   8   14.77    2.15
  -3  -2  -8   17.86    1.82
  -3   2  -8   16.52    2.10
  -3   2  -8   16.13    2.21
  -3   2  -8   17.69    1.81
  -3  -2  -8   16.53    2.29
  -3  -2  -8   16.17    2.16
   3   2   8   18.06    2.04
   3  -2   8   17.32    2.28
  -3  -2  -8   18.95    1.98
  -3   2  -8   17.53    2.27
  -3  -2  -9    2.17    0.94
  -3   2  -9    1.52    1.16
   3  -2   9    0.72    1.27
   3   2   9    1.66    0.97
   3   2   9    1.27    1.37
  -3  -2  -9    1.83    1.13
  -3  -2  -9    1.82    1.09
  -3   2  -9    2.39    1.33
  -3   2  -9    1.98    1.33
  -3   2 -10    0.87    1.11
   3  -2  10   -1.23    1.31
   3   2  10   -0.88    1.43
  -3  -2 -10    1.22    1.27
  -3   2 -10    1.46    1.31
  -3   2 -10    1.34    1.34
  -3   3  11   25.49    3.04
  -3  -3  11   24.08    2.90
   3   3 -11   28.82    3.03
   3   3 -11   26.65    2.86
  -3  -3  11   25.80    2.90
  -3  -3  11   30.89    3.19
  -3   3  10    0.46    1.54
   3  -3 -10    1.20    1.44
   3   3 -10    2.41    1.07
  -3   3  10    4.85    1.62
  -3  -3  10    2.02    1.23
   3   3 -10    3.79    1.50
   3   3 -10    3.14    1.43
   3  -3 -10    2.83    1.53
  -3   3  10    2.06    1.31
  -3   3  10    2.12    1.35
   3   3 -10    3.71    1.70
  -3  -3  10    1.31    1.07
  -3   3  10    4.45    1.72
  -3  -3  10    2.39    1.20
   3   3  -9   15.97    2.38
   3  -3  -9   14.76    2.26
  -3   3   9   12.71    2.24
   3   3  -9   16.15    2.35
  -3   3   9   16.27    2.31
  -3   3   9   21.86    2.81
  -3  -3   9   15.89    2.11
   3   3  -9   20.39    2.30
   3  -3  -9   22.87    2.90
   3   3  -9   16.57    2.16
  -3   3   9   17.51    2.43
  -3  -3   9   16.97    2.10
  -3   3   9   20.22    2.73
  -3  -3   9   14.89    2.08
  -3  -3   8    4.38    1.33
   3  -3  -8    4.24    1.73
  -3   3   8    3.13    1.32
  -3   3   8    2.23    1.14
  -3   3   8    1.03    1.09
  -3   3   8    1.34    1.25
  -3  -3   8    2.70    1.12
   3   3  -8    3.73    1.20
   3   3  -8    2.75    1.06
   3  -3  -8    1.53    1.15
   3   3  -8    1.38    1.18
  -3   3   8    3.04    1.25
  -3   3   8    2.55    1.33
   3   3  -8    0.77    1.08
   3   3  -7   11.23    1.82
   3  -3  -7   13.05    2.10
  -3   3   7   11.66    1.91
  -3   3   7    9.76    1.71
  -3  -3   7   11.62    1.57
   3   3  -7   11.58    1.75
   3   3  -7   10.81    1.51
   3  -3  -7   15.46    2.17
   3   3  -7    9.62    1.68
  -3   3   7   12.51    1.91
  -3   3   7    9.36    1.76
  -3   3   7    9.16    1.62
  -3   3   7   11.48    1.78
  -3   3   7   11.04    1.27
  -3  -3   7   10.15    1.67
   3  -3  -6   47.17    3.28
  -3   3   6   46.20    3.17
  -3   3   6   41.35    2.94
  -3   3   6   48.38    3.26
  -3  -3   6   46.94    2.57
   3  -3  -6   49.10    3.27
   3  -3  -6   47.51    2.94
   3   3  -6   43.96    2.84
  -3   3   6   47.41    3.19
  -3  -3   6   41.92    2.88
  -3   3   6   49.28    3.27
  -3   3   6   43.41    3.07
  -3   3   6   48.04    2.48
   3   3  -6   45.26    2.27
   3   3  -6   46.65    3.18
   3   3  -6   46.01    3.13
   3   3  -5    4.61    0.96
   3   3  -5    6.55    1.48
  -3  -3   5    4.27    0.92
   3  -3  -5    5.29    1.19
   3  -3  -5    3.46    1.29
  -3   3   5    3.70    1.22
  -3   3   5    4.85    1.40
   3   3  -5    5.29    1.55
  -3   3   5    4.00    1.33
  -3   3   5    1.79    1.09
  -3  -3   5    4.88    0.97
   3   3  -5    3.11    1.14
  -3   3   5    2.99    1.27
  -3   3   5    5.21    1.36
  -3   3   5    4.53    0.99
   3  -3  -5    4.21    1.27
  -3  -3   5    5.90    1.46
   3   3  -4   39.30    2.54
   3  -3  -4   33.14    2.31
   3  -3  -4   33.17    2.39
  -3   3   4   34.45    2.23
  -3  -3   4   39.20    2.28
   3  -3  -4   31.64    2.15
  -3   3   4   34.56    2.44
  -3   3   4   34.55    2.37
   3  -3  -4   34.65    2.28
  -3   3   4   36.74    2.57
  -3  -3   4   33.35    1.75
  -3  -3   4   35.36    1.75
   3   3  -4   36.66    2.51
  -3  -3   4   29.86    2.28
  -3   3   4   34.77    2.17
   3   3  -4   34.19    2.05
   3   3  -4   32.13    2.07
   3  -3  -3  537.67    8.77
  -3   3   3  550.77    7.98
  -3  -3   3  533.19    7.28
   3   3  -3  545.44    7.14
  -3   3   3  526.75    8.82
  -3   3   3  525.42    8.34
   3  -3  -3  542.88    8.39
   3  -3  -3  536.20    7.69
  -3   3   3  548.91    8.27
  -3   3   3  520.56    4.26
  -3   3   3  531.96    8.43
  -3  -3   3  528.22    5.94
  -3   3   3  544.82    8.06
   3   3  -3  522.13    8.58
  -3  -3   3  536.49    8.75
  -3   3   3  512.32    4.23
   3   3  -3  547.64    7.91
  -3   3   3  531.33    4.29
   3  -3  -3  524.14    4.18
  -3   3   3  530.10    8.08
  -3   3   3  552.12    8.63
   3   3  -3  549.70    8.04
  -3   3   3  545.60    7.90
   3  -3  -3  531.90    7.62
  -3   3   2  137.24    3.79
   3  -3  -2  143.70    3.83
   3  -3  -2  140.27    4.04
   3  -3  -2  144.75    4.22
  -3   3   2  138.48    4.19
   3  -3  -2  138.61    4.36
  -3  -3   2  142.14    3.82
  -3  -3   2  135.96    3.67
  -3   3   2  140.12    3.81
   3  -3  -2  145.41    3.55
  -3   3   2  140.66    3.88
  -3   3   2  142.12    2.90
  -3   3   2  142.22    3.56
  -3   3   2  144.45    4.17
  -3  -3   2  139.93    3.41
  -3  -3   2  138.29    2.80
   3   3  -2  142.48    4.38
  -3  -3   2  139.64    4.40
   3   3  -2  139.73    3.32
   3   3  -2  142.56    3.65
  -3   3   2  128.88    2.76
   3  -3  -2  139.24    2.84
  -3   3   2  141.51    2.89
  -3   3   2  142.96    4.22
   3   3  -2  141.56    4.13
  -3   3   2  139.86    4.43
  -3   3   2  144.30    4.32
   3  -3  -1    1.33    0.87
   3   3  -1    1.55    0.68
  -3   3   1    1.99    0.70
  -3   3   1    3.27    0.97
   3   3  -1    1.19    0.77
  -3  -3   1    1.04    0.50
   3  -3  -1    2.26    0.89
  -3   3   1    1.88    0.99
   3  -3  -1    1.98    0.74
  -3   3   1    0.91    0.63
   3  -3  -1    1.13    0.49
  -3  -3   1    0.62    0.58
  -3   3   1    1.74    0.76
   3  -3  -1    1.83    0.71
  -3   3   1    0.91    0.90
   3  -3  -1    1.25    0.59
   3  -3  -1    1.24    0.46
   3  -3  -1    1.90    0.94
  -3  -3   1    0.46    0.68
  -3   3   1    1.77    0.54
  -3  -3   1    0.67    0.69
   3   3  -1    1.72    0.60
  -3  -3   1    0.42    0.66
  -3   3   1    1.99    0.82
  -3   3   1    1.42    0.51
  -3   3   1    1.26    0.48
  -3   3   1    1.63    0.58
  -3   3   1    1.62    0.88
  -3  -3   1    0.27    0.68
   3   3  -1    1.90    0.56
  -3  -3   0    0.12    0.47
   3  -3   0    1.14    0.62
   3  -3   0   -0.69    0.95
   3  -3   0   -0.13    0.74
  -3   3   0    1.70    0.73
   3  -3   0    1.12    0.76
   3   3   0    0.21    0.52
  -3   3   0    0.95    0.58
  -3  -3   0    0.30    0.50
  -3  -3   0    0.12    0.65
   3   3   0    1.29    0.71
   3  -3   0   -0.34    0.77
   3  -3   0    0.95    0.54
  -3  -3   0    1.43    0.90
   3   3   0    1.74    0.86
   3   3   0    0.25    0.69
   3   3   0    0.99    0.79
  -3   3   0    1.10    1.06
  -3  -3   0    1.50    0.75
   3   3   0    1.15    0.70
  -3   3   0    0.65    0.30
   3   3   0    1.06    0.46
   3  -3   0   -0.42    0.95
  -3   3   0    1.32    0.53
  -3   3   0    0.02    0.75
  -3  -3   0    0.29    0.62
  -3   3   0    0.99    0.62
   3  -3   1  407.01    6.62
   3  -3   1  422.46    7.36
   3   3   1  418.16    5.63
   3   3   1  410.26    6.24
   3  -3   1  423.28    7.17
  -3  -3  -1  427.98    7.18
   3  -3   1  418.96    5.54
   3  -3   1  433.40    7.42
  -3  -3  -1  422.68    6.35
  -3  -3  -1  415.52    7.57
  -3  -3  -1  418.47    5.85
   3   3   1  424.07    7.19
  -3  -3  -1  410.83    5.79
  -3  -3  -1  413.07    7.09
  -3   3  -1  422.39    6.91
   3  -3   1  410.32    6.83
  -3  -3  -1  416.45    7.15
  -3   3  -1  426.35    6.95
  -3  -3  -1  416.97    7.15
  -3   3  -1  411.08    7.16
   3   3   1  417.65    7.17
   3   3   1  425.37    7.35
   3  -3   1  421.51    6.95
   3   3   1  415.52    6.40
   3  -3   1  426.54    7.33
   3  -3   2    0.50    0.90
   3  -3   2    2.26    1.23
   3   3   2    0.42    0.40
   3   3   2    0.44    0.69
   3   3   2    0.66    0.74
  -3  -3  -2    1.42    0.81
   3   3   2   -0.84    0.80
  -3  -3  -2    0.72    0.73
   3   3   2    1.52    1.12
   3   3   2    0.79    0.78
  -3  -3  -2    0.51    0.61
   3  -3   2   -0.12    0.85
   3   3   2    0.71    0.67
  -3  -3  -2    1.02    0.66
  -3  -3  -2    0.06    1.11
  -3  -3  -2   -0.46    0.73
   3  -3   2    0.98    0.71
  -3   3  -2    0.22    0.36
  -3   3  -2    0.59    0.79
  -3   3  -2    0.31    0.66
  -3  -3  -2    0.31    0.76
   3   3   3   27.66    1.30
   3  -3   3   26.89    2.17
   3   3   3   31.25    2.16
   3   3   3   29.79    2.01
   3   3   3   27.34    2.25
   3   3   3   24.57    0.76
  -3  -3  -3   32.03    2.08
   3   3   3   31.34    2.12
  -3  -3  -3   28.39    2.28
  -3  -3  -3   30.20    2.07
  -3  -3  -3   27.69    1.96
   3  -3   3   28.71    2.24
  -3   3  -3   30.25    1.30
  -3   3  -3   30.23    2.31
  -3   3  -3   29.90    2.08
   3   3   3   27.90    2.05
  -3  -3  -3   29.69    2.03
   3   3   3   28.38    2.02
   3   3   4   13.84    1.58
   3  -3   4   14.17    1.78
   3   3   4   13.69    1.68
   3   3   4   14.95    1.61
   3   3   4   13.13    1.81
   3  -3   4   14.44    1.92
  -3  -3  -4   14.01    1.82
  -3  -3  -4   17.06    1.84
  -3   3  -4   15.56    1.87
  -3   3  -4   14.64    1.09
   3   3   4   15.46    1.12
  -3   3  -4   15.20    1.28
  -3   3  -4   13.85    1.76
  -3   3  -4   13.93    1.53
   3   3   5   45.22    2.09
   3   3   5   47.57    3.18
   3  -3   5   46.46    1.63
   3   3   5   48.10    2.67
  -3  -3  -5   47.64    3.06
  -3   3  -5   46.87    2.91
   3  -3   5   46.98    3.17
  -3   3  -5   50.52    2.30
  -3   3  -5   45.56    3.14
   3   3   5   46.04    2.70
  -3  -3  -5   46.24    3.12
  -3   3  -5   47.60    2.56
   3   3   6   57.08    3.58
   3   3   6   57.42    3.05
  -3  -3  -6   53.85    3.52
  -3  -3  -6   57.56    3.57
  -3   3  -6   55.63    3.33
  -3   3  -6   59.99    2.72
   3  -3   6   57.67    3.70
  -3   3  -6   53.27    3.51
   3   3   6   56.42    3.04
  -3   3  -6   56.73    2.74
  -3  -3  -7   36.39    3.13
   3   3   7   33.11    2.53
  -3  -3  -7   35.25    3.08
  -3   3  -7   31.76    2.73
  -3   3  -7   33.00    2.25
   3  -3   7   31.36    2.91
  -3   3  -7   38.42    3.15
  -3   3  -7   33.30    2.06
   3   3   7   36.79    3.18
  -3  -3  -7   29.16    2.31
   3  -3   8   10.09    2.01
  -3  -3  -8    8.24    1.41
   3   3   8    7.69    1.40
   3   3   8   10.40    2.01
  -3  -3  -8    9.45    1.84
  -3  -3  -8   10.08    1.88
  -3   3  -8   10.40    1.49
  -3   3  -8    9.00    1.77
  -3   3  -8    8.30    1.88
  -3   3  -8   11.62    2.04
   3  -3   9    4.59    1.61
  -3   3  -9    3.39    1.43
  -3  -3  -9    4.73    1.53
  -3  -3  -9    5.44    1.73
  -3   3  -9    5.31    1.62
   3   3   9    6.15    1.89
  -3   3  -9    2.63    1.23
  -3   3 -10   -1.67    1.54
   3   3  10    0.77    1.38
  -3   3 -10    1.60    1.40
  -3   4  10   10.19    2.24
   3   4 -10    9.94    1.93
  -3  -4  10    9.52    1.95
  -3   4  10    6.33    1.73
  -3  -4   9    0.08    0.96
   3   4  -9    2.12    1.51
  -3   4   9   -1.13    1.31
  -3   4   9    1.17    1.18
  -3   4   9    1.21    1.20
  -3  -4   9    2.22    1.15
   3   4  -9    0.62    0.99
  -3   4   9    1.42    1.41
   3  -4  -9    3.36    1.67
  -3  -4   9    0.73    0.98
   3   4  -9   -0.40    1.29
  -3   4   9   -0.05    1.08
  -3   4   9    1.07    1.37
   3   4  -8    4.68    1.56
   3   4  -8    3.18    1.43
  -3   4   8    5.49    1.66
  -3   4   8    2.44    1.30
  -3   4   8    4.39    1.55
  -3   4   8    4.29    1.46
  -3  -4   8    3.48    1.06
   3   4  -8    9.57    1.86
   3  -4  -8    4.26    1.66
  -3   4   8    3.75    1.43
  -3   4   8    5.01    1.60
  -3  -4   8    5.57    1.44
   3   4  -7  386.15    9.84
  -3   4   7  388.58    9.89
  -3   4   7  387.30    9.95
  -3   4   7  365.54    9.57
  -3   4   7  354.72    9.40
  -3  -4   7  383.66    7.44
  -3   4   7  367.00    9.35
   3   4  -7  374.26    9.28
  -3  -4   7  365.57    9.35
  -3   4   7  367.36    9.57
  -3   4   7  385.85    7.69
   3   4  -7  366.06    9.44
   3   4  -6   68.86    4.07
  -3   4   6   71.64    4.12
  -3   4   6   65.69    3.90
   3  -4  -6   68.25    3.87
  -3   4   6   68.10    4.03
  -3  -4   6   73.45    2.96
  -3  -4   6   68.59    2.89
  -3   4   6   67.44    3.85
   3   4  -6   70.02    3.96
  -3  -4   6   70.53    4.07
  -3   4   6   67.07    3.88
  -3   4   6   70.35    3.98
  -3   4   6   70.57    3.36
   3  -4  -6   72.16    4.08
   3   4  -6   66.68    3.94
   3   4  -5   18.53    2.18
   3  -4  -5   20.10    2.25
  -3   4   5   17.91    2.09
  -3   4   5   17.77    2.17
   3  -4  -5   17.79    1.77
   3  -4  -5   19.17    2.01
  -3   4   5   21.42    2.36
  -3  -4   5   16.72    1.30
  -3   4   5   17.74    2.07
   3   4  -5   16.24    2.04
  -3  -4   5   17.96    1.32
  -3  -4   5   20.93    2.30
  -3   4   5   17.93    1.96
  -3   4   5   17.59    1.82
   3  -4  -5   18.97    2.08
   3  -4  -4   -0.26    0.81
  -3   4   4    1.15    1.30
  -3  -4   4   -1.44    0.93
  -3   4   4    0.64    1.22
  -3  -4   4    0.10    0.51
   3  -4  -4    1.11    0.92
   3   4  -4    0.11    1.08
  -3  -4   4   -0.06    0.48
  -3   4   4   -0.66    1.04
   3  -4  -4    1.40    1.13
   3  -4  -4    0.28    1.09
  -3   4   4    0.87    0.92
  -3  -4   4    0.96    1.21
  -3   4   4    1.51    1.35
   3  -4  -3   52.62    3.15
  -3   4   3   51.98    2.57
  -3  -4   3   51.85    2.28
   3   4  -3   54.36    2.24
   3  -4  -3   50.99    2.47
   3  -4  -3   53.66    3.12
   3   4  -3   48.92    1.27
  -3   4   3   54.73    3.34
   3  -4  -3   50.82    2.63
  -3  -4   3   51.91    1.52
  -3   4   3   50.18    1.62
  -3  -4   3   51.17    1.52
  -3   4   3   45.36    2.93
   3   4  -3   52.55    3.15
  -3   4   3   50.47    1.63
  -3  -4   3   53.83    3.16
  -3   4   3   51.42    1.67
  -3   4   3   47.95    2.57
   3  -4  -3   55.39    1.68
  -3   4   3   51.60    2.92
  -3   4   3   50.29    2.94
  -3  -4   3   54.50    3.09
  -3   4   3   49.27    2.64
  -3   4   2    2.37    0.83
   3  -4  -2    2.44    0.65
  -3   4   2    2.63    0.68
  -3   4   2    3.99    1.40
   3  -4  -2    3.21    1.08
   3   4  -2    2.43    0.33
   3   4  -2    2.43    0.67
  -3  -4   2    2.83    1.07
  -3   4   2    2.39    1.26
   3  -4  -2    3.00    0.86
   3  -4  -2    4.22    0.96
   3   4  -2    2.53    1.06
  -3   4   2    2.17    1.06
  -3   4   2    3.42    0.84
  -3   4   2    1.82    0.83
  -3  -4   2    2.52    0.37
   3  -4  -2    1.43    1.00
   3   4  -2    5.01    1.10
  -3   4   2    2.75    0.77
  -3   4   2    3.71    1.18
  -3  -4   2    2.82    1.04
  -3   4   2    2.53    0.64
  -3   4   2    3.03    0.64
  -3  -4   2    3.94    1.18
  -3  -4   2    2.53    0.66
   3  -4  -1   71.96    3.41
  -3   4   1   74.16    2.83
   3   4  -1   78.23    2.20
  -3  -4   1   79.64    2.23
   3  -4  -1   78.77    2.50
   3   4  -1   82.69    2.19
   3  -4  -1   84.02    3.70
  -3  -4   1   81.39    3.21
  -3   4   1   86.45    3.85
   3  -4  -1   81.02    3.14
  -3   4   1   81.96    3.33
  -3   4   1   75.16    2.53
  -3  -4   1   80.88    1.77
  -3   4   1   81.48    3.15
  -3  -4   1   81.58    3.36
  -3  -4   1   80.90    1.76
   3   4  -1   85.32    3.67
  -3  -4   1   79.03    3.57
  -3   4   1   79.44    2.81
   3  -4  -1   81.16    2.84
  -3   4   1   81.14    2.84
  -3   4   1   81.34    3.61
   3  -4  -1   80.94    2.85
   3  -4  -1   80.78    2.82
  -3   4   1   78.02    3.62
   3  -4   0   46.38    2.79
   3   4   0   47.93    2.07
  -3   4   0   47.68    2.32
   3  -4   0   47.37    2.34
   3  -4   0   45.29    2.22
   3  -4   0   46.57    2.83
  -3   4   0   48.33    2.88
  -3  -4   0   49.08    3.03
  -3  -4   0   48.05    1.66
  -3  -4   0   51.66    1.72
   3   4   0   45.50    2.68
  -3  -4   0   45.65    2.77
  -3   4   0   49.04    2.46
  -3  -4   0   46.34    2.51
   3  -4   0   45.64    2.35
  -3  -4   0   48.55    2.56
  -3   4   0   48.71    2.42
   3  -4   0   49.33    1.66
  -3   4   0   48.68    2.84
  -3  -4   0   46.85    2.45
   3  -4   0   50.37    2.49
   3   4   0   49.01    1.67
   3   4   1    4.79    1.16
   3   4   1    5.51    1.33
   3  -4   1    4.58    1.06
   3  -4   1    4.60    0.40
   3  -4   1    5.81    1.24
   3   4   1    5.74    1.05
   3   4   1    6.01    0.83
  -3  -4  -1    5.45    1.19
   3  -4   1    3.77    0.90
   3   4   1    4.76    1.20
  -3  -4  -1    4.50    1.00
   3  -4   1    3.73    0.86
  -3   4  -1    6.39    1.47
  -3  -4  -1    3.95    0.71
  -3  -4  -1    4.32    1.39
  -3  -4  -1    4.78    0.77
  -3   4  -1    4.62    1.02
  -3  -4  -1    4.48    1.09
  -3   4  -1    3.23    1.04
   3  -4   1    8.95    1.72
   3  -4   2   40.52    2.60
   3   4   2   41.23    1.93
   3   4   2   41.48    2.54
   3  -4   2   44.26    2.37
   3   4   2   45.55    3.16
  -3  -4  -2   44.88    2.93
  -3  -4  -2   48.03    2.27
   3   4   2   45.06    2.67
  -3  -4  -2   48.97    2.31
  -3  -4  -2   43.36    2.62
   3  -4   2   40.94    2.59
   3  -4   2   47.29    3.09
  -3   4  -2   47.10    2.77
  -3   4  -2   45.96    2.79
   3  -4   2   43.48    2.46
   3   4   2   40.16    2.53
   3   4   2   44.34    2.02
   3   4   3   13.61    1.48
   3   4   3   13.35    1.78
  -3  -4  -3   13.63    1.93
   3   4   3   12.03    1.13
   3   4   3   15.25    2.20
  -3  -4  -3   13.25    1.48
  -3  -4  -3   13.33    1.60
   3   4   3   12.57    0.79
   3   4   3   11.21    1.51
  -3   4  -3   12.61    1.74
  -3   4  -3   10.34    1.48
   3  -4   3   11.05    1.80
   3   4   3    9.52    1.36
   3  -4   3   13.68    1.63
   3  -4   3   12.74    1.69
   3   4   4    9.09    1.80
   3   4   4    8.82    1.30
  -3  -4  -4    9.34    1.43
   3   4   4    9.10    1.50
   3  -4   4    8.77    1.53
   3   4   4    7.56    1.53
   3   4   4    7.46    1.25
  -3  -4  -4    9.75    1.61
   3  -4   4    7.88    1.47
  -3  -4  -4    9.44    1.75
   3  -4   4    9.15    1.69
  -3   4  -4    8.91    1.42
   3   4   4    8.82    0.70
   3   4   4    7.92    1.00
  -3   4  -4    8.68    1.55
  -3   4  -4    8.70    1.39
  -3  -4  -5  287.26    8.07
   3  -4   5  286.17    7.56
   3   4   5  279.16    7.89
   3   4   5  276.53    7.51
   3   4   5  289.61    6.74
  -3  -4  -5  293.35    7.41
  -3   4  -5  288.49    6.92
   3   4   5  287.90    4.21
   3  -4   5  271.51    7.80
  -3   4  -5  296.94    8.09
  -3   4  -5  296.68    6.88
   3   4   5  296.67    6.84
  -3   4  -5  293.81    6.01
   3  -4   6    1.24    1.18
   3   4   6   -1.05    1.12
   3   4   6   -0.78    1.53
   3   4   6   -0.72    0.77
  -3  -4  -6   -1.11    1.28
  -3  -4  -6    0.74    0.94
  -3   4  -6    0.83    0.87
  -3   4  -6   -0.34    0.71
  -3   4  -6    0.77    1.14
   3  -4   6    0.18    1.23
  -3   4  -6    0.21    0.71
   3   4   6    0.45    0.68
  -3   4  -7   -0.28    1.20
   3  -4   7    0.06    1.20
   3   4   7   -0.43    0.74
  -3   4  -7    0.33    0.70
   3   4   7   -0.09    1.37
   3   4   7    0.23    1.20
  -3  -4  -7   -0.32    1.13
  -3  -4  -7   -0.93    1.18
  -3   4  -7    0.98    1.11
   3   4   7    0.62    0.77
  -3   4  -7   -0.56    0.67
  -3   4  -8   10.56    2.05
   3  -4   8    7.05    1.89
  -3   4  -8    7.81    1.79
   3   4   8    9.52    2.11
   3   4   8    8.42    1.94
  -3  -4  -8    8.66    1.97
  -3  -4  -8    9.84    2.00
  -3   4  -8    6.59    1.72
  -3   4  -9    1.99    1.36
  -3   4  -9    2.73    1.62
   3  -4   9    1.60    1.18
   3   4   9    2.48    1.65
   3   4   9    2.85    1.45
  -3  -4  -9    3.75    1.69
  -3  -4  -9    1.96    1.20
  -3  -5   9    6.18    1.77
   3   5  -9    6.11    1.82
  -3   5   9   10.85    2.65
  -3   5   9    7.44    2.24
  -3   5   9    4.94    1.80
  -3   5   9    5.19    1.76
  -3   5   9    7.19    1.89
   3   5  -9    7.12    1.89
  -3   5   9    6.15    1.82
   3   5  -9    2.12    1.20
  -3  -5   8    0.58    1.24
   3   5  -8    2.10    1.48
  -3   5   8    1.86    1.53
  -3   5   8    0.63    1.37
  -3   5   8    0.23    1.16
   3   5  -8   -1.48    1.51
  -3   5   8    0.36    1.01
   3   5  -8    1.67    1.25
  -3   5   8   -0.20    1.10
  -3   5   8    0.93    1.35
   3   5  -7   13.73    2.36
   3   5  -7   15.73    2.33
  -3   5   7   14.01    2.33
  -3   5   7   18.40    2.60
  -3   5   7   16.57    2.51
   3  -5  -7   15.39    2.19
  -3   5   7   15.12    2.17
   3   5  -7   13.93    2.13
  -3   5   7   17.26    2.40
  -3   5   7   11.79    2.08
  -3   5   7   12.31    1.66
  -3  -5   7   15.20    2.40
   3   5  -6    7.34    1.66
   3  -5  -6    6.33    1.71
  -3  -5   6    7.37    1.73
   3   5  -6   11.87    2.12
   3  -5  -6    8.33    1.63
  -3   5   6    7.57    1.82
  -3   5   6   10.94    2.04
  -3   5   6   10.46    2.09
  -3   5   6    5.17    1.43
   3   5  -6    6.63    1.50
  -3   5   6    7.61    1.45
  -3   5   6    7.64    1.70
  -3   5   6    7.60    1.35
   3   5  -5    7.72    1.66
  -3   5   5    7.57    1.67
   3  -5  -5    6.41    1.20
  -3   5   5    4.76    1.48
   3  -5  -5    6.34    1.44
  -3   5   5    8.58    1.62
  -3   5   5    4.77    1.49
   3  -5  -5    8.21    1.64
  -3   5   5    6.28    1.34
  -3   5   5    6.34    1.29
   3  -5  -5    7.08    1.67
  -3  -5   5    8.05    1.69
   3  -5  -4   75.89    4.15
  -3   5   4   66.99    3.54
  -3  -5   4   68.15    2.82
   3  -5  -4   74.38    3.13
  -3   5   4   68.13    4.00
  -3  -5   4   66.53    3.94
  -3   5   4   67.40    4.05
  -3   5   4   61.15    1.42
   3   5  -4   69.34    4.00
  -3  -5   4   64.93    3.92
  -3   5   4   72.76    3.95
  -3   5   4   70.10    3.52
   3  -5  -4   67.82    3.95
  -3   5   4   68.79    3.69
   3  -5  -4   65.46    3.42
   3  -5  -3   29.36    2.55
  -3   5   3   26.22    1.89
  -3   5   3   28.80    2.68
   3  -5  -3   31.55    1.96
  -3  -5   3   27.78    1.61
  -3   5   3   28.69    2.68
   3   5  -3   29.98    1.32
   3  -5  -3   28.00    2.15
  -3   5   3   27.67    1.46
  -3   5   3   28.89    1.51
   3   5  -3   28.47    2.58
  -3  -5   3   24.76    2.39
  -3   5   3   28.20    1.50
  -3   5   3   28.41    2.48
   3  -5  -3   27.13    1.42
  -3   5   3   31.12    2.19
  -3   5   3   26.57    2.38
  -3  -5   3   28.16    2.48
   3  -5  -3   32.46    2.74
   3   5  -2  137.32    2.46
  -3  -5   2  147.90    2.94
  -3   5   2  143.12    3.98
   3  -5  -2  150.85    3.93
   3  -5  -2  154.21    5.60
  -3   5   2  149.81    5.66
   3   5  -2  151.24    3.62
  -3   5   2  153.08    5.65
   3  -5  -2  149.19    4.28
  -3   5   2  138.41    4.30
   3   5  -2  140.66    5.28
  -3   5   2  137.88    3.76
  -3  -5   2  150.02    5.53
  -3   5   2  145.28    3.86
   3  -5  -2  148.98    5.36
   3  -5  -2  144.68    3.77
  -3   5   2  152.75    4.13
  -3   5   2  141.80    5.27
   3  -5  -2  146.36    3.80
  -3   5   2  141.79    5.12
  -3  -5   2  145.63    5.10
   3   5  -1   31.92    1.64
   3  -5  -1   31.49    2.51
   3  -5  -1   29.01    1.76
  -3   5   1   31.50    1.91
  -3   5   1   31.72    2.69
   3  -5  -1   33.82    1.88
  -3   5   1   30.37    1.95
  -3  -5   1   34.13    2.85
  -3   5   1   29.65    2.05
   3   5  -1   35.09    2.74
  -3  -5   1   33.77    2.65
  -3   5   1   29.08    1.99
  -3  -5   1   32.43    2.47
   3  -5  -1   31.93    2.02
  -3   5   1   28.85    2.02
  -3   5   1   34.66    1.73
  -3  -5   1   29.58    2.08
  -3   5   1   32.49    2.62
   3  -5  -1   30.26    2.63
   3  -5  -1   31.77    2.06
   3  -5   0   37.11    2.72
   3   5   0   38.00    2.08
  -3  -5   0   37.22    2.62
   3  -5   0   40.14    1.77
   3  -5   0   40.36    2.08
   3  -5   0   38.97    3.02
  -3   5   0   33.75    2.66
  -3  -5   0   40.94    1.28
  -3  -5   0   38.17    2.92
   3   5   0   37.25    1.02
  -3  -5   0   40.51    1.29
   3   5   0   42.01    2.86
  -3  -5   0   42.82    2.93
   3  -5   0   36.92    2.38
  -3   5   0   43.45    2.58
  -3   5   0   39.16    1.41
  -3   5   0   38.16    2.83
   3   5   1   35.29    1.22
  -3  -5  -1   36.49    2.60
   3  -5   1   38.28    1.42
   3   5   1   37.53    2.78
   3  -5   1   37.88    2.15
  -3   5  -1   34.72    2.74
  -3  -5  -1   37.60    1.67
  -3  -5  -1   35.93    2.90
  -3  -5  -1   37.44    1.69
   3   5   1   35.62    2.63
  -3  -5  -1   35.99    2.65
   3  -5   1   37.27    2.56
  -3   5  -1   38.08    2.61
  -3   5  -1   33.63    2.67
   3  -5   1   39.29    2.96
   3  -5   1   34.72    2.64
   3  -5   2    8.67    1.49
   3  -5   2    8.65    1.72
   3   5   2    7.74    1.54
   3   5   2    9.69    1.27
  -3  -5  -2    7.26    1.31
   3   5   2    8.46    1.41
   3  -5   2    6.93    0.42
   3   5   2    9.69    0.91
  -3  -5  -2    7.68    0.99
  -3  -5  -2   11.09    1.23
  -3  -5  -2    7.06    1.56
  -3   5  -2    9.41    1.57
   3  -5   2    8.17    1.29
  -3  -5  -2    8.89    1.43
  -3   5  -2    9.52    1.61
   3  -5   2   11.53    1.71
   3  -5   3   10.05    2.02
   3  -5   3    4.05    1.20
   3   5   3    4.53    0.87
   3  -5   3    3.11    1.15
   3   5   3    5.86    1.31
   3   5   3    5.64    0.98
   3  -5   3    5.44    1.15
   3   5   3    4.61    1.37
   3   5   3    6.08    1.67
  -3  -5  -3    4.79    1.31
  -3  -5  -3    5.79    1.00
  -3   5  -3    6.25    1.37
  -3  -5  -3    5.28    1.20
  -3   5  -3    3.22    1.14
  -3  -5  -3    4.79    1.35
   3  -5   4   -1.35    1.12
   3  -5   4   -1.10    1.04
   3  -5   4   -0.44    0.99
   3   5   4   -0.40    0.77
  -3  -5  -4   -0.37    0.99
   3   5   4    1.44    1.19
  -3  -5  -4   -0.21    1.18
  -3  -5  -4   -0.32    0.70
   3   5   4    0.44    0.85
  -3   5  -4    1.02    0.92
   3   5   4   -0.20    0.37
  -3   5  -4   -0.45    0.98
   3   5   4    2.36    1.55
  -3  -5  -4    0.35    0.76
  -3   5  -4    0.06    0.81
   3   5   5    2.43    1.06
   3  -5   5    2.64    1.36
   3   5   5    3.11    1.13
   3  -5   5    2.71    1.29
   3   5   5    1.79    1.24
  -3   5  -5    4.31    1.18
   3   5   5    5.26    1.83
   3   5   5    4.03    1.09
  -3  -5  -5    3.62    1.28
  -3  -5  -5    1.05    0.96
  -3   5  -5    3.28    1.08
  -3   5  -5    3.20    1.34
  -3   5  -5    2.50    0.93
  -3  -5  -5    5.69    1.54
   3  -5   5    4.28    1.37
   3  -5   6    8.58    1.92
   3   5   6    6.63    1.41
   3  -5   6    4.62    1.55
   3   5   6    8.13    1.72
   3   5   6    6.86    1.86
   3   5   6    8.24    1.45
  -3   5  -6    7.12    1.26
  -3  -5  -6    7.02    1.75
  -3  -5  -6    7.87    1.53
  -3   5  -6    7.50    1.46
  -3   5  -6    7.80    1.82
  -3   5  -6    7.87    1.48
   3  -5   6    7.86    1.65
   3   5   6    5.80    1.19
   3  -5   7    0.35    1.11
   3   5   7    3.29    1.45
   3  -5   7    2.80    1.55
   3   5   7    1.05    1.42
   3   5   7   -1.10    1.39
  -3  -5  -7    1.29    1.31
  -3  -5  -7    2.24    1.36
  -3   5  -7    0.41    0.89
  -3   5  -7    1.13    1.18
   3  -5   7    1.73    1.24
  -3   5  -7    1.58    0.95
   3  -5   8    0.82    1.33
   3   5   8    0.02    1.42
  -3  -5  -8    1.41    1.33
  -3  -5  -8    0.86    1.16
   3  -5   8    1.13    1.55
   3   5   8   -3.33    1.77
   3  -5   9   -0.55    1.78
   3   6  -8   18.04    2.83
  -3   6   8   13.97    2.47
   3  -6  -8   16.36    2.51
  -3   6   8   11.36    2.14
  -3   6   8   17.60    2.55
  -3   6   8   13.59    2.34
   3   6  -7   66.94    4.74
   3  -6  -7   74.75    4.99
  -3   6   7   72.19    4.95
  -3   6   7   73.75    5.06
   3  -6  -7   68.81    4.57
  -3   6   7   74.61    5.14
   3   6  -7   70.12    4.75
  -3   6   7   64.24    4.40
  -3   6   7   65.79    4.47
   3   6  -7   69.70    4.71
  -3  -6   7   68.07    4.81
  -3   6   7   69.25    4.53
  -3   6   7   70.13    4.18
  -3   6   6   67.29    4.69
  -3   6   6   64.19    4.61
   3  -6  -6   74.62    4.47
  -3   6   6   66.87    4.14
   3  -6  -6   70.94    4.66
   3   6  -6   67.50    4.58
  -3  -6   6   76.02    4.87
  -3   6   6   67.44    4.19
  -3   6   6   68.61    4.12
  -3   6   6   63.75    4.54
  -3  -6   6   79.11    5.01
   3  -6  -5   -0.40    1.11
  -3  -6   5    1.56    1.35
  -3   6   5   -2.29    1.70
  -3   6   5   -0.96    1.39
  -3   6   5    2.12    1.49
   3   6  -5    1.00    1.05
   3  -6  -5    0.80    0.95
  -3   6   5    1.35    1.05
  -3   6   5    0.36    1.03
  -3   6   5   -0.82    0.99
  -3  -6   5    1.07    1.15
   3  -6  -5    2.94    1.58
   3  -6  -4    0.60    1.24
  -3  -6   4    0.55    1.34
  -3   6   4   -1.37    1.55
  -3   6   4    0.15    1.22
   3   6  -4    0.11    0.97
   3  -6  -4    0.96    1.30
  -3   6   4   -0.80    0.90
   3  -6  -4    1.50    1.12
  -3   6   4    2.95    1.53
  -3   6   4    2.34    1.19
  -3   6   4    1.12    1.19
  -3  -6   4    1.28    1.16
   3  -6  -3   16.75    2.26
  -3   6   3   22.73    2.66
   3  -6  -3   21.05    1.54
   3  -6  -3   20.51    2.37
  -3  -6   3   18.66    2.36
  -3   6   3   24.01    2.86
  -3   6   3   19.52    2.45
   3   6  -3   18.98    1.26
   3  -6  -3   19.85    1.92
  -3   6   3   21.35    2.03
   3   6  -3   19.57    2.35
  -3   6   3   20.13    1.50
  -3  -6   3   22.92    2.65
   3  -6  -3   19.09    1.43
  -3   6   3   21.20    1.89
  -3   6   3   17.96    2.22
   3  -6  -2   -0.01    0.57
   3  -6  -2    0.36    1.14
   3  -6  -2    0.70    0.54
  -3   6   2    5.29    1.86
   3   6  -2   -0.90    0.94
   3  -6  -2    0.40    0.69
  -3   6   2    0.64    0.70
  -3  -6   2    0.69    1.08
   3   6  -2   -0.33    0.55
  -3  -6   2    3.58    1.49
  -3   6   2    0.25    0.59
  -3   6   2    0.06    0.89
  -3   6   2   -1.47    1.31
  -3  -6   2    0.32    1.11
   3  -6  -2   -0.13    1.04
   3  -6  -1    1.89    1.25
   3  -6  -1    0.33    0.62
   3  -6  -1    0.11    0.45
   3   6  -1   -0.27    0.85
  -3   6   1    0.05    1.20
   3  -6  -1    0.79    1.09
   3  -6  -1    0.13    0.61
  -3  -6   1   -0.56    1.02
  -3   6   1    1.11    0.85
  -3   6   1   -0.22    0.46
  -3  -6   1    1.25    1.24
  -3   6   1    0.74    0.99
   3   6  -1    0.44    0.72
  -3  -6   1   -0.04    0.92
   3  -6   0    2.50    0.94
   3  -6   0    1.69    0.64
   3   6   0    1.82    1.13
   3  -6   0    2.46    1.40
  -3   6   0    1.24    1.18
   3  -6   0    2.09    0.70
   3  -6   0    4.67    1.43
  -3  -6   0    0.84    1.16
  -3   6   0    3.29    0.98
  -3   6   0    1.20    0.98
  -3  -6   0    3.29    1.21
  -3  -6   0    1.67    1.05
  -3   6  -1   49.39    3.42
   3  -6   1   52.92    3.38
  -3  -6  -1   49.37    3.35
   3  -6   1   51.88    2.40
   3  -6   1   54.50    2.00
  -3  -6  -1   47.53    3.43
  -3  -6  -1   53.55    1.68
   3   6   1   51.02    3.37
  -3  -6  -1   54.22    3.40
   3  -6   1   46.63    3.09
  -3   6  -1   52.86    3.25
  -3   6  -1   53.30    3.56
   3  -6   1   56.64    3.90
   3  -6   2    0.22    1.16
   3  -6   2    0.91    0.99
   3  -6   2    1.75    1.16
   3  -6   2   -0.09    0.68
   3   6   2    1.95    1.12
   3   6   2    2.17    1.45
  -3  -6  -2    1.97    1.28
  -3  -6  -2    1.09    1.24
  -3  -6  -2   -0.22    0.49
  -3   6  -2    1.39    1.06
  -3   6  -2    0.12    0.91
  -3  -6  -2    0.52    0.84
  -3  -6  -3    4.13    1.38
   3  -6   3    5.79    1.42
   3   6   3    6.14    1.36
   3  -6   3    3.11    1.39
  -3  -6  -3    3.40    1.32
  -3  -6  -3    6.41    1.08
  -3   6  -3    6.76    1.11
  -3   6  -3    5.04    1.39
  -3  -6  -3    4.72    1.22
  -3   6  -3    5.51    1.56
   3  -6   3    5.03    1.12
   3  -6   3    3.91    1.30
   3   6   3    7.58    1.88
   3  -6   4   37.25    2.87
   3  -6   4   37.35    2.68
   3  -6   4   39.90    3.69
   3   6   4   38.44    3.30
   3   6   4   41.43    3.73
  -3  -6  -4   40.95    3.52
   3   6   4   36.26    2.72
  -3  -6  -4   42.49    2.70
  -3  -6  -4   40.84    2.83
   3  -6   4   40.55    3.33
  -3   6  -4   39.10    3.31
  -3   6  -4   35.12    2.98
  -3  -6  -4   34.95    3.08
   3  -6   5   55.54    3.53
   3  -6   5   56.04    3.51
   3  -6   5   61.58    4.67
   3   6   5   54.20    3.92
   3   6   5   55.02    4.34
   3   6   5   57.58    3.37
  -3  -6  -5   64.10    3.62
  -3  -6  -5   60.63    3.43
  -3  -6  -5   60.27    4.34
   3  -6   5   49.97    3.92
  -3   6  -5   65.95    4.43
  -3   6  -5   56.19    3.71
  -3  -6  -5   58.79    4.09
   3  -6   6    6.94    1.51
   3   6   6    9.61    2.29
   3   6   6   10.74    2.41
  -3  -6  -6    8.71    1.97
   3  -6   6   11.02    2.01
  -3  -6  -6    7.98    1.59
  -3   6  -6    9.88    2.06
   3  -6   6    7.93    1.88
  -3   6  -6    8.32    1.66
   3  -6   6   14.82    2.79
   3   6   7    2.15    1.61
   3   6   7    1.15    1.62
  -3  -6  -7    2.39    1.39
   3  -6   7    0.49    1.22
  -3  -6  -8    1.87    1.15
  -3  -7   7   10.74    2.56
   3  -7  -7    6.53    1.76
  -3   7   7    6.96    1.97
  -3   7   7    6.05    1.73
  -3   7   7    5.46    1.64
  -3   7   7    3.33    1.26
  -3  -7   6    2.07    1.42
   3  -7  -6    3.98    1.83
  -3   7   6    1.87    1.77
  -3   7   6    3.45    1.60
  -3   7   6    4.13    1.86
   3   7  -6    2.18    1.31
   3  -7  -6    0.74    1.30
  -3   7   6    3.23    1.41
  -3   7   6    1.99    1.25
  -3   7   6    3.09    1.40
  -3  -7   6    3.38    1.55
  -3   7   5    6.02    1.96
  -3   7   5    4.90    1.90
  -3   7   5    7.61    2.12
   3   7  -5    6.51    1.73
   3  -7  -5    9.12    1.90
  -3   7   5    7.47    1.57
  -3  -7   5    6.98    1.89
  -3   7   5    5.82    1.50
  -3   7   5    3.89    1.50
  -3  -7   5    4.25    1.61
   3  -7  -5    7.22    1.93
  -3  -7   4   23.48    2.82
  -3   7   4   30.80    3.38
  -3   7   4   26.58    3.07
  -3   7   4   28.48    3.22
  -3   7   4   25.69    2.38
   3   7  -4   25.70    2.96
  -3  -7   4   25.08    2.93
   3  -7  -4   30.68    3.08
  -3   7   4   27.62    2.99
   3  -7  -4   23.24    2.43
   3  -7  -4   27.65    3.17
  -3  -7   3    2.14    1.24
   3  -7  -3    0.99    1.06
  -3   7   3    5.02    2.05
  -3   7   3    3.03    1.43
   3   7  -3    0.86    1.06
   3  -7  -3    2.88    1.01
  -3  -7   3    5.00    1.76
  -3   7   3    2.11    1.23
  -3  -7   3   -0.17    1.26
   3  -7  -3    3.31    1.39
   3  -7  -2   44.04    3.45
  -3  -7   2   40.52    3.39
  -3   7   2   45.55    3.76
   3  -7  -2   43.51    2.78
  -3  -7   2   47.69    3.75
   3   7  -2   47.88    3.75
  -3  -7   2   45.00    3.65
   3  -7  -2   39.55    2.50
  -3   7   2   39.97    3.50
   3  -7  -2   47.34    3.86
   3  -7  -1   11.20    1.53
   3  -7  -1   11.31    1.98
  -3  -7   1   11.25    1.98
  -3  -7   1   12.43    2.07
   3   7  -1   10.14    1.88
   3   7  -1   10.04    1.44
  -3   7   1    9.35    1.84
   3  -7  -1   11.02    1.41
  -3   7   1    9.70    1.52
  -3  -7   1    5.53    1.72
  -3   7   1   11.83    2.04
   3  -7  -1   10.73    2.17
   3  -7   0   18.50    2.66
   3  -7   0   14.89    1.86
   3  -7   0   17.87    2.19
  -3  -7   0   13.22    1.98
   3   7   0   12.58    2.03
   3   7   0   14.82    1.80
  -3   7   0   14.11    2.22
  -3  -7   0   15.05    2.16
  -3   7   0   15.09    1.93
  -3  -7   0   13.46    2.14
  -3   7   0   14.90    2.27
   3  -7   1    6.06    1.68
   3  -7   1    7.07    1.56
  -3  -7  -1    7.53    1.65
   3  -7   1    6.76    1.62
   3   7   1    6.42    1.54
  -3   7  -1   12.63    2.15
  -3  -7  -1    9.17    1.77
  -3   7  -1    4.37    1.22
  -3   7  -1    8.33    1.89
  -3  -7  -1    8.60    1.55
   3  -7   2    2.05    1.31
   3  -7   2    1.98    1.16
   3  -7   2    4.14    1.36
   3   7   2    4.31    1.92
  -3  -7  -2    5.88    1.63
  -3   7  -2    2.35    1.13
  -3   7  -2    3.21    1.44
  -3  -7  -2    2.23    1.18
   3   7   2    5.25    1.44
  -3  -7  -2    2.58    1.28
   3  -7   3    1.95    1.69
   3  -7   3    0.85    1.00
   3   7   3    1.48    0.88
   3  -7   3   -0.82    1.01
   3   7   3    0.62    1.45
  -3  -7  -3    0.04    1.08
  -3  -7  -3    0.17    1.05
  -3   7  -3    0.30    0.88
  -3   7  -3    0.26    1.11
  -3  -7  -3    0.11    0.89
   3  -7   4    2.02    1.34
   3  -7   4    2.20    1.29
   3  -7   4    0.90    0.99
   3   7   4    1.21    0.95
   3   7   4    1.63    1.48
  -3  -7  -4   -0.02    1.15
  -3   7  -4    0.96    0.97
  -3   7  -4    2.58    1.28
  -3  -7  -4    1.48    0.88
  -3  -7  -4    1.14    1.12
   3  -7   5    3.60    1.89
   3  -7   5   -0.76    1.15
   3   7   5   -0.35    1.52
  -3  -7  -5   -0.22    1.29
  -3  -7  -5   -1.62    1.37
  -3   7  -5    0.19    1.24
  -3   7  -5   -0.06    1.01
   3   7   6    0.48    1.43
  -3   7  -6    0.22    1.12
   3  -8  -6   12.25    2.15
   3  -8  -5    0.60    1.05
  -3  -8   5    4.05    1.74
  -3  -8   4   -0.39    1.59
  -3  -8   4    3.34    1.67
  -3   8   4    3.02    1.56
  -3  -8   3    7.35    2.11
   3  -8  -3    4.80    1.56
   3   8  -3    5.99    1.76
  -3   8   3    2.28    1.67
  -3  -8   3    5.70    1.78
   3  -8  -3    9.08    2.13
  -3   8   3    4.64    1.53
  -3  -8   3    5.22    1.68
  -3  -8   2    3.04    1.43
   3   8  -2   -1.44    1.29
  -3   8   2   -0.28    1.46
  -3  -8   2   -1.39    1.44
   3  -8  -2   -2.17    1.32
  -3   8   2   -0.08    1.21
   3  -8  -2   -0.01    1.36
  -3  -8   2   -0.63    1.07
   3  -8  -1    2.78    1.39
   3   8  -1    0.68    1.15
  -3   8   1    0.02    1.37
  -3  -8   1    1.21    1.10
  -3   8   1    2.44    1.51
  -3  -8   1    0.09    1.11
   3  -8  -1    1.48    1.62
  -3  -8   1   -0.72    1.24
   3  -8   0   -1.85    1.53
   3  -8   0   -3.12    1.48
   3   8   0   -0.36    1.15
   3   8   0    1.67    1.07
  -3   8   0    1.08    1.55
  -3   8   0    0.47    0.87
  -3  -8   0   -0.01    1.30
   3  -8   0   -0.50    0.99
  -3   8   0   -0.87    1.33
  -3  -8   0    1.44    1.27
  -3  -8   0    0.16    1.38
   3  -8   1    4.48    1.54
   3  -8   1    1.97    1.10
   3   8   1    3.70    1.36
   3   8   1    3.30    1.32
  -3   8  -1    7.98    2.01
  -3  -8  -1    3.02    1.53
  -3   8  -1    4.91    1.50
  -3   8  -1    1.41    1.39
   3  -8   1    5.43    1.91
  -3  -8  -1    8.24    1.88
  -3  -8  -1    4.67    1.64
   3   8   2    5.58    1.56
   3  -8   2    6.85    1.75
   3   8   2    5.89    1.61
  -3  -8  -2    7.07    1.98
  -3   8  -2    6.12    1.64
   3  -8   2    6.80    2.08
   3  -8   2    6.41    1.60
  -3   8  -2    4.74    1.72
  -3  -8  -2    6.43    1.68
  -3  -8  -2    5.70    1.83
   3  -8   3    1.67    1.25
  -3  -8  -3    0.52    0.88
   3   8   3    0.71    1.68
  -3   8  -3    1.40    1.31
  -3  -8  -3    2.06    1.36
  -3   8  -3    1.29    1.34
   3   8   4    5.42    2.00
  -3   8  -4    3.45    1.61
   3  -9  -1   -0.31    1.29
   3  -9   0    2.09    1.46
  -3   9   0    2.46    1.64
  -3  -9  -1    4.50    1.56
  -4   0  11    1.68    1.63
   4   0 -11    1.60    1.63
  -4   0  11   -0.02    1.17
   4   0 -10    0.91    1.19
  -4   0  10    1.15    1.43
   4   0 -10    0.81    1.14
   4   0 -10    2.58    1.42
  -4   0  10    2.70    1.53
  -4   0  10    0.90    1.30
   4   0  -9   11.53    2.07
  -4   0   9    9.97    2.01
  -4   0   9   11.56    1.48
   4   0  -9   11.74    2.03
   4   0  -9   11.06    2.00
  -4   0   9   13.49    2.26
  -4   0   9   12.61    2.06
  -4   0   8    0.12    0.52
   4   0  -8    0.17    1.12
  -4   0   8    0.57    0.69
  -4   0   8    0.07    1.23
   4   0  -8    0.56    1.10
  -4   0   8    1.72    1.46
   4   0  -8   -0.83    1.03
   4   0  -8    0.40    0.56
   4   0  -7    5.18    1.37
  -4   0   7    5.43    0.79
  -4   0   7    5.11    0.93
   4   0  -7    6.12    1.58
  -4   0   7    7.13    0.98
   4   0  -7    6.60    0.94
  -4   0   7    4.56    1.37
  -4   0   7    6.64    1.57
   4   0  -7    6.64    1.43
  -4   0   7    5.40    0.90
   4   0  -7    5.82    0.75
  -4   0   7    7.26    1.14
  -4   0   6  325.54    6.39
   4   0  -6  320.07    7.65
   4   0  -6  324.11    7.66
  -4   0   6  315.60    5.76
   4   0  -6  320.99    7.48
   4   0  -6  333.07    5.61
  -4   0   6  307.89    5.53
  -4   0   6  316.61    7.58
  -4   0   6  299.54    5.43
   4   0  -6  305.70    5.18
  -4   0   6  314.51    5.53
  -4   0   6  314.45    5.34
  -4   0   5  178.81    4.47
   4   0  -5  179.86    5.33
   4   0  -5  182.53    4.38
  -4   0   5  176.79    4.14
   4   0  -5  180.27    4.02
   4   0  -5  176.00    5.37
   4   0  -5  181.55    5.21
  -4   0   5  181.57    4.09
  -4   0   5  169.68    5.17
  -4   0   5  181.16    4.08
  -4   0   5  171.29    3.98
   4   0  -5  179.94    4.10
  -4   0   5  178.00    4.13
  -4   0   5  175.02    4.55
  -4   0   4  630.99    7.86
  -4   0   4  614.43    8.95
   4   0  -4  601.32    8.81
   4   0  -4  605.85    7.49
   4   0  -4  624.09    9.35
  -4   0   4  626.68    7.43
   4   0  -4  624.80    7.24
  -4   0   4  598.55    7.24
  -4   0   4  616.34    8.96
   4   0  -4  626.67    8.70
  -4   0   4  602.97    7.26
  -4   0   4  618.48    7.28
   4   0  -4  624.56    7.74
  -4   0   4  617.64    7.76
  -4   0   4  602.53    7.25
  -4   0   4  634.79    8.83
   4   0  -3  578.51    7.15
   4   0  -3  588.08    7.87
   4   0  -3  586.16    8.54
  -4   0   3  579.95    5.86
  -4   0   3  583.95    7.35
  -4   0   3  582.77    8.02
   4   0  -3  593.46    7.02
  -4   0   3  580.46    7.09
  -4   0   3  595.84    8.60
   4   0  -3  598.78    7.06
  -4   0   3  584.08    7.06
  -4   0   3  597.15    7.91
   4   0  -3  599.30    7.67
  -4   0   3  584.03    7.09
   4   0  -3  607.58    7.73
   4   0  -3  590.24    7.12
  -4   0   3  596.48    7.72
  -4   0   3  600.03    8.78
   4   0  -2  106.78    3.09
   4   0  -2  105.15    3.01
   4   0  -2  111.80    3.64
  -4   0   2  110.24    1.89
  -4   0   2  112.85    3.67
   4   0  -2  108.18    3.11
   4   0  -2  110.84    3.11
  -4   0   2  108.64    3.11
  -4   0   2  109.13    3.14
  -4   0   2  108.89    3.04
   4   0  -2  105.64    2.86
  -4   0   2  108.11    3.11
   4   0  -2  105.64    3.07
   4   0  -2  113.16    3.40
  -4   0   2  110.77    3.38
  -4   0   2  105.95    1.89
  -4   0   1   47.16    1.77
   4   0  -1   46.58    1.80
  -4   0   1   48.53    2.40
   4   0  -1   49.18    2.42
   4   0  -1   47.19    2.13
   4   0  -1   44.50    2.06
  -4   0   1   44.73    2.08
  -4   0   1   45.22    2.06
   4   0  -1   48.49    1.66
   4   0  -1   47.09    2.17
   4   0  -1   49.63    2.29
  -4   0   1   50.08    2.33
   4   0  -1   45.75    2.18
  -4   0   0   51.78    1.60
  -4   0   0   53.95    2.55
   4   0   0   52.12    2.52
  -4   0   0   51.44    1.15
   4   0   0   50.41    2.29
  -4   0   0   53.25    2.36
  -4   0   0   52.15    2.31
   4   0   0   54.08    2.38
   4   0   0   54.27    2.44
  -4   0   0   61.28    2.62
   4   0   0   53.98    1.40
  -4   0  -1  187.60    2.77
   4   0   1  189.36    4.82
  -4   0  -1  190.74    4.80
   4   0   1  193.82    4.64
  -4   0  -1  183.72    3.72
  -4   0  -1  193.14    4.64
  -4   0  -1  193.53    4.60
   4   0   1  183.61    4.57
   4   0   1  194.11    4.57
  -4   0  -1  192.97    4.60
   4   0   2   63.18    3.03
   4   0   2   62.65    1.60
  -4   0  -2   63.13    2.26
   4   0   2   62.18    2.82
  -4   0  -2   61.57    2.80
   4   0   2   59.47    1.19
  -4   0  -2   60.75    2.80
   4   0   2   65.83    2.94
   4   0   2   59.67    2.61
  -4   0  -2   62.10    2.67
   4   0   3  151.91    3.08
  -4   0  -3  152.12    3.67
   4   0   3  158.31    4.71
   4   0   3  151.32    2.42
  -4   0  -3  155.68    4.54
   4   0   3  153.42    4.66
   4   0   3  153.83    4.20
  -4   0  -3  150.57    4.13
   4   0   3  149.89    4.86
   4   0   4   11.48    1.77
   4   0   4   10.83    1.48
   4   0   4   10.13    1.06
   4   0   4   12.86    1.44
  -4   0  -4   11.20    1.23
  -4   0  -4   10.08    1.47
  -4   0  -4   11.51    1.79
   4   0   4   10.64    0.85
  -4   0  -4   11.21    1.06
   4   0   4   12.72    1.31
  -4   0  -4   11.61    1.31
  -4   0  -5  170.02    4.09
   4   0   5  182.56    6.15
   4   0   5  175.82    4.50
  -4   0  -5  177.21    4.65
   4   0   5  179.43    4.86
  -4   0  -5  180.38    5.91
  -4   0  -5  171.63    4.24
   4   0   5  174.11    5.61
   4   0   5  175.59    4.56
   4   0   5  168.82    3.76
  -4   0  -5  180.90    4.59
  -4   0  -5  176.43    5.54
  -4   0  -6  205.04    4.97
   4   0   6  193.23    5.29
  -4   0  -6  201.72    5.38
  -4   0  -6  198.72    6.62
  -4   0  -6  197.07    4.97
   4   0   6  195.04    6.21
   4   0   6  190.49    4.72
  -4   0  -6  205.96    6.35
  -4   0  -6  205.67    4.83
   4   0   6  190.30    4.49
  -4   0  -7   44.42    2.64
  -4   0  -7   41.93    2.72
  -4   0  -7   49.26    3.61
   4   0   7   41.54    2.82
   4   0   7   45.88    3.33
  -4   0  -7   43.00    3.09
  -4   0  -7   43.14    2.19
  -4   0  -8    0.11    0.76
   4   0   8    1.33    1.06
  -4   0  -8   -0.17    0.85
  -4   0  -8    0.73    1.22
  -4   0  -8    0.08    0.91
   4   0   8    0.45    0.93
   4   0   9   73.91    4.30
  -4   0  -9   83.16    5.25
   4   0   9   76.04    4.64
  -4   0  -9   69.24    4.34
   4   0  10   12.31    2.17
   4   0  10   15.69    2.36
  -4   0 -10   17.22    2.38
  -4  -1  11    2.44    1.61
   4   1 -11    6.27    1.85
  -4  -1  11    1.02    1.56
   4   1 -10    4.33    1.87
   4  -1 -10    1.48    1.39
   4  -1 -10    0.87    1.15
  -4   1  10    0.65    1.49
  -4  -1  10   -0.25    1.31
   4   1 -10    2.58    1.44
   4  -1 -10    0.65    1.29
  -4   1  10    0.46    1.25
   4   1 -10    0.08    1.12
  -4  -1  10   -0.65    1.18
  -4   1  10    0.48    1.16
  -4  -1   9    0.52    0.76
   4   1  -9    2.36    1.55
  -4   1   9    0.90    0.94
   4  -1  -9    1.06    1.33
   4   1  -9    0.96    0.83
  -4   1   9    0.16    1.23
   4   1  -9    1.90    1.31
   4  -1  -9    0.04    1.19
  -4   1   9    2.02    1.33
  -4  -1   9    1.10    1.09
  -4   1   9    1.07    1.08
   4   1  -9    1.29    1.08
   4  -1  -9   -1.02    1.30
   4   1  -8   17.06    2.23
   4   1  -8   16.06    2.17
  -4  -1   8   15.00    1.62
  -4  -1   8   16.59    1.28
  -4   1   8   16.60    1.84
   4  -1  -8   17.36    2.21
  -4   1   8   16.84    2.27
  -4  -1   8   15.16    2.04
   4  -1  -8   17.44    1.09
   4   1  -8   18.36    1.74
  -4   1   8   13.25    2.08
  -4  -1   8   18.78    2.45
   4  -1  -8   15.45    2.21
  -4  -1   7   20.68    1.64
   4   1  -7   25.65    2.51
   4  -1  -7   21.06    2.30
   4   1  -7   24.02    2.42
  -4   1   7   23.37    2.02
  -4  -1   7   24.68    1.42
  -4  -1   7   25.91    2.45
   4  -1  -7   24.75    2.43
  -4   1   7   23.84    2.44
   4  -1  -7   26.51    1.31
   4   1  -7   24.19    1.90
   4   1  -7   27.36    2.57
  -4  -1   7   25.43    2.00
  -4  -1   7   21.23    2.39
  -4   1   7   24.09    1.29
  -4   1   7   22.37    2.34
  -4   1   7   24.34    1.30
  -4   1   7   23.98    1.27
   4   1  -7   23.12    1.42
  -4   1   7   26.39    1.61
   4  -1  -7   22.05    2.35
   4   1  -6   14.90    1.87
   4  -1  -6   18.78    2.20
   4   1  -6   19.09    2.10
  -4  -1   6   17.10    1.21
   4   1  -6   14.32    1.83
  -4   1   6   15.93    1.72
  -4  -1   6   14.89    1.84
   4  -1  -6   15.79    1.03
   4  -1  -6   12.82    1.79
   4   1  -6   15.93    1.58
  -4  -1   6   15.55    1.60
  -4   1   6   14.27    1.02
  -4   1   6   18.43    2.18
  -4  -1   6   16.08    2.06
  -4  -1   6   17.55    1.66
  -4   1   6   13.77    1.00
  -4   1   6   15.20    1.05
   4  -1  -6   15.48    1.31
   4   1  -6   16.02    1.31
  -4   1   6   14.15    1.30
   4  -1  -6   17.16    1.84
  -4  -1   6   13.99    1.27
  -4  -1   6   13.92    1.27
   4  -1  -6   17.40    2.04
  -4  -1   5   24.57    1.51
   4  -1  -5   24.82    2.20
   4  -1  -5   26.05    2.29
   4   1  -5   26.11    2.27
  -4   1   5   24.41    1.88
  -4   1   5   25.79    2.03
   4  -1  -5   28.36    2.10
  -4  -1   5   29.42    1.47
   4   1  -5   26.58    1.51
   4  -1  -5   27.94    2.20
   4   1  -5   25.32    2.13
   4  -1  -5   27.15    1.32
   4   1  -5   24.53    1.79
  -4  -1   5   27.17    1.91
  -4   1   5   24.85    1.30
  -4   1   5   24.39    2.17
  -4  -1   5   25.99    2.21
  -4   1   5   25.92    1.31
  -4  -1   5   28.48    1.93
   4   1  -5   24.87    2.08
  -4   1   5   27.66    1.36
   4  -1  -5   26.52    1.69
  -4  -1   5   27.23    1.87
   4   1  -5   26.34    1.65
  -4   1   5   26.94    1.74
  -4  -1   5   27.14    1.74
  -4  -1   4   39.87    1.78
  -4  -1   4   39.40    2.37
  -4   1   4   35.97    2.21
   4   1  -4   36.91    2.26
   4  -1  -4   34.65    2.13
   4  -1  -4   37.04    2.44
   4   1  -4   35.88    2.32
  -4   1   4   35.93    2.15
   4  -1  -4   36.95    2.25
   4  -1  -4   36.55    1.54
  -4  -1   4   39.69    2.33
   4  -1  -4   35.07    2.34
   4   1  -4   35.77    2.07
  -4   1   4   34.65    1.52
  -4  -1   4   36.06    2.11
  -4   1   4   37.54    2.42
  -4   1   4   35.58    1.54
  -4  -1   4   34.78    2.23
  -4  -1   4   35.72    2.05
   4  -1  -4   36.37    1.97
   4   1  -4   39.29    2.34
  -4  -1   4   39.22    2.14
  -4   1   4   37.11    2.23
  -4   1   4   35.65    2.01
   4   1  -4   37.73    2.01
   4   1  -4   35.89    1.61
  -4  -1   4   36.36    2.00
  -4   1   4   38.68    2.05
  -4   1   3   30.46    1.93
  -4  -1   3   31.54    1.88
   4   1  -3   28.41    1.83
  -4   1   3   27.73    1.87
   4   1  -3   29.40    1.43
   4  -1  -3   29.36    1.92
   4  -1  -3   31.11    2.03
  -4  -1   3   30.71    2.11
   4  -1  -3   28.39    2.01
   4   1  -3   30.75    2.03
  -4   1   3   27.79    1.48
  -4   1   3   29.10    1.58
   4  -1  -3   31.77    1.90
   4   1  -3   29.00    1.40
  -4   1   3   30.55    1.98
   4  -1  -3   31.43    1.82
   4  -1  -3   29.54    1.45
  -4  -1   3   29.66    1.96
  -4   1   3   32.61    2.16
   4   1  -3   30.87    1.88
  -4   1   3   28.22    1.44
  -4  -1   3   31.92    1.93
  -4   1   3   29.38    2.02
   4   1  -3   29.87    1.83
  -4  -1   3   30.59    1.90
  -4  -1   3   29.44    1.87
  -4   1   3   30.21    1.48
   4  -1  -3   30.84    1.84
  -4  -1   3   31.12    1.89
  -4   1   3   29.36    1.76
   4  -1  -3   28.13    1.43
  -4   1   3   30.45    1.89
   4   1  -3   31.27    1.85
  -4  -1   3   30.69    1.87
  -4   1   3   31.27    2.14
   4   1  -3   28.36    1.90
  -4   1   2   82.22    3.08
  -4  -1   2   74.77    2.44
   4   1  -2   72.28    2.28
   4  -1  -2   72.49    2.85
   4   1  -2   75.23    2.43
  -4   1   2   73.61    2.73
  -4   1   2   73.15    3.05
  -4  -1   2   76.06    3.02
   4  -1  -2   71.88    2.98
   4   1  -2   71.42    2.90
  -4   1   2   71.57    2.06
   4  -1  -2   71.22    2.78
   4   1  -2   71.57    2.31
  -4   1   2   73.74    2.93
   4  -1  -2   72.19    2.37
   4  -1  -2   72.98    2.35
  -4   1   2   71.53    2.10
  -4   1   2   73.34    2.40
   4   1  -2   75.42    2.82
  -4  -1   2   72.64    2.81
  -4  -1   2   70.42    2.44
  -4   1   2   71.27    2.34
   4  -1  -2   70.50    2.35
  -4  -1   2   72.25    2.81
   4  -1  -2   76.31    2.86
  -4   1   2   72.87    2.86
  -4   1   2   73.57    2.38
   4   1  -2   74.95    2.84
   4   1  -2   77.20    2.88
  -4  -1   2   75.71    2.89
   4  -1  -2   72.14    2.02
   4  -1  -2   74.36    2.81
   4   1  -2   72.68    2.63
   4  -1  -1   -0.61    0.78
   4  -1  -1   -0.05    0.68
   4   1  -1    0.30    0.37
  -4   1   1   -0.19    0.46
  -4   1   1    0.16    0.47
  -4   1   1   -0.34    0.46
  -4   1   1   -0.03    0.75
  -4  -1   1    0.61    0.73
   4   1  -1   -0.56    0.87
   4  -1  -1    0.18    0.55
   4   1  -1    0.36    0.64
  -4  -1   1    0.33    0.63
   4  -1  -1    0.10    0.34
   4  -1  -1   -0.16    0.40
  -4  -1   1    0.55    0.53
   4  -1  -1    0.08    0.37
   4  -1  -1    0.19    0.61
  -4  -1   1    0.30    0.43
   4   1  -1   -0.70    0.72
  -4   1   1    0.55    0.44
   4  -1  -1   -0.30    0.47
  -4   1   1   -0.48    0.73
   4   1  -1    0.33    0.58
   4  -1  -1    0.91    0.59
  -4  -1   1    0.59    0.43
  -4  -1   1    0.32    0.70
   4  -1   0   91.20    3.34
  -4   1   0   86.16    2.63
  -4  -1   0   90.82    2.34
  -4  -1   0   89.51    3.15
   4  -1   0   90.00    3.30
   4  -1   0   86.93    2.09
   4  -1   0   90.02    3.25
   4  -1   0   89.34    2.98
   4   1   0   88.59    3.17
  -4   1   0   92.49    3.03
   4   1   0   90.97    3.20
  -4  -1   0   89.20    3.16
  -4  -1   0   88.99    1.92
  -4   1   0   92.54    3.01
   4  -1   0   89.60    3.01
  -4  -1   0   90.54    3.21
   4   1   0   90.00    3.20
   4  -1   0   86.46    3.10
  -4   1   0   88.47    3.21
   4   1   0   88.89    3.17
  -4  -1   0   85.93    3.14
  -4   1   0   86.97    3.33
   4  -1   0   88.53    2.14
  -4  -1  -1  197.44    4.81
   4  -1   1  205.39    5.06
   4   1   1  199.64    2.85
   4   1   1  197.81    4.82
  -4  -1  -1  199.51    3.37
  -4   1  -1  201.45    5.00
   4  -1   1  205.06    4.79
  -4   1  -1  195.23    3.08
  -4  -1  -1  196.88    4.51
  -4   1  -1  203.28    4.78
   4   1   1  195.21    4.76
  -4  -1  -1  201.46    4.85
  -4  -1  -1  196.96    2.25
  -4   1  -1  201.20    4.71
   4  -1   1  195.68    4.70
  -4  -1  -1  210.64    4.94
   4   1   1  202.53    4.90
   4  -1   1  206.69    4.82
  -4   1  -1  200.71    4.76
   4   1   1  205.03    4.84
  -4  -1  -1  209.03    4.85
   4   1   2  276.48    6.01
   4  -1   2  274.22    6.21
  -4   1  -2  287.50    6.04
   4   1   2  284.57    4.50
  -4   1  -2  280.62    3.65
  -4  -1  -2  280.38    5.47
   4   1   2  278.94    5.93
  -4  -1  -2  301.39    6.17
  -4  -1  -2  290.38    6.04
   4  -1   2  294.40    6.12
   4   1   2  285.59    6.08
   4  -1   2  290.26    5.76
  -4   1  -2  299.14    5.83
   4   1   2  297.29    5.89
  -4  -1  -2  284.62    5.72
   4   1   2  276.97    4.33
  -4  -1  -3   -0.12    0.20
   4  -1   3    0.10    0.85
   4   1   3    1.40    1.27
   4  -1   3    1.65    1.23
  -4   1  -3   -0.59    0.82
   4   1   3    0.78    0.75
   4   1   3    0.41    0.61
   4   1   3   -1.49    0.86
  -4   1  -3    0.06    0.44
   4   1   3    0.04    0.42
  -4  -1  -3    1.29    0.95
  -4  -1  -3    0.01    0.25
  -4   1  -3    0.93    0.84
   4  -1   3    0.07    0.59
   4   1   3   -0.57    0.65
  -4   1  -3   -0.19    0.71
   4   1   3    0.07    0.72
  -4  -1  -3    0.15    0.72
  -4  -1  -4   46.53    1.57
   4   1   4   46.66    3.06
   4  -1   4   52.31    3.30
   4   1   4   46.81    2.34
  -4   1  -4   48.45    1.94
  -4  -1  -4   46.79    2.55
   4   1   4   45.66    2.03
   4   1   4   47.57    2.80
  -4  -1  -4   46.52    2.96
  -4   1  -4   47.00    3.05
  -4  -1  -4   45.06    1.60
   4  -1   4   48.96    2.95
   4   1   4   45.54    2.77
   4  -1   4   45.27    2.38
   4   1   4   45.54    2.43
  -4   1  -4   46.54    2.46
  -4   1  -4   45.47    2.92
  -4  -1  -4   44.80    2.39
   4   1   4   48.83    2.56
   4   1   5  306.88    7.83
   4   1   5  298.65    7.13
   4   1   5  283.68    6.13
  -4   1  -5  297.64    5.32
  -4  -1  -5  283.40    6.52
   4  -1   5  286.54    5.43
  -4  -1  -5  287.75    7.47
  -4   1  -5  300.08    7.56
   4   1   5  287.38    5.52
   4  -1   5  303.94    7.93
  -4  -1  -5  297.52    4.73
  -4  -1  -5  296.68    4.75
   4  -1   5  285.49    7.30
   4   1   5  295.67    7.16
   4  -1   5  286.14    5.88
   4   1   5  280.48    5.95
  -4   1  -5  289.27    7.28
  -4   1  -5  295.36    5.95
  -4  -1  -5  297.61    6.00
  -4  -1  -6  309.84    5.59
  -4   1  -6  312.05    6.76
   4   1   6  295.97    6.88
  -4   1  -6  313.45    6.09
  -4  -1  -6  294.39    7.08
   4  -1   6  287.01    6.04
  -4  -1  -6  309.62    8.27
  -4   1  -6  306.66    8.17
  -4  -1  -6  307.70    5.50
   4  -1   6  297.33    7.92
   4   1   6  300.76    7.61
   4  -1   6  299.48    5.98
  -4   1  -6  296.65    7.76
  -4   1  -6  313.94    6.07
  -4  -1  -6  301.68    7.48
  -4  -1  -6  304.41    6.06
  -4   1  -7    1.58    1.06
  -4  -1  -7    2.17    1.00
  -4   1  -7    1.23    0.81
  -4  -1  -7    2.78    0.89
   4   1   7    1.64    1.10
   4  -1   7    2.18    1.12
   4   1   7    2.69    1.01
  -4  -1  -7    2.47    1.04
  -4  -1  -7    3.04    1.29
  -4   1  -7    1.04    1.20
  -4   1  -7    2.67    0.77
  -4  -1  -8   -0.51    0.89
  -4   1  -8    0.13    0.79
   4   1   8   -0.94    1.14
  -4  -1  -8    0.16    0.87
  -4  -1  -8    1.60    1.31
  -4   1  -8    0.87    1.37
   4  -1   8    0.60    1.11
   4   1   8    0.62    0.94
  -4   1  -8    2.74    1.33
  -4  -1  -9    5.40    1.55
   4  -1   9    7.48    1.64
   4   1   9    7.18    1.63
  -4   1  -9    7.01    1.62
   4   1   9    4.33    1.47
  -4  -1  -9    7.46    1.68
  -4  -1  -9   10.34    2.14
  -4   1  -9    9.57    2.09
  -4   1  -9   10.25    1.97
   4   1  10    6.84    1.73
   4   1  10    8.60    1.96
   4  -1  10    4.88    1.54
  -4   1 -10    6.91    1.87
  -4  -1 -10    7.16    1.70
  -4  -2  11    2.63    1.68
  -4  -2  11    4.75    1.68
   4  -2 -10    1.27    1.45
   4  -2 -10   -0.15    1.11
   4   2 -10   -0.16    0.83
  -4   2  10   -0.53    1.38
  -4  -2  10   -0.02    1.25
  -4  -2  10    0.46    0.85
  -4   2  10   -0.39    1.35
   4   2 -10    1.85    1.62
  -4  -2  10   -1.86    1.41
  -4   2  10   -0.50    1.24
  -4   2  10    2.49    1.32
   4   2 -10    3.12    1.48
  -4  -2   9    5.64    1.31
   4   2  -9    5.89    1.74
   4   2  -9    8.97    1.92
   4  -2  -9    5.65    1.60
  -4   2   9    5.92    1.46
   4  -2  -9    7.44    1.72
   4   2  -9    5.73    1.30
  -4   2   9    7.82    1.97
  -4  -2   9    6.37    1.57
  -4   2   9    6.19    1.66
  -4   2   9    5.74    1.67
   4   2  -8    3.05    1.31
   4  -2  -8    0.82    1.19
   4  -2  -8    2.64    1.29
   4   2  -8    5.91    1.66
  -4  -2   8    0.72    1.02
  -4   2   8    2.18    1.19
   4   2  -8    2.28    1.00
  -4   2   8   -0.36    1.30
  -4   2   8    0.01    1.15
  -4   2   8    0.06    1.26
  -4  -2   8    0.18    0.93
   4   2  -7   35.64    2.89
   4  -2  -7   30.76    2.82
   4  -2  -7   27.02    2.55
  -4   2   7   30.86    2.58
  -4   2   7   31.20    2.86
  -4  -2   7   35.34    2.65
   4  -2  -7   28.13    2.61
   4   2  -7   32.32    2.45
  -4   2   7   33.16    2.90
  -4  -2   7   33.46    2.51
   4   2  -7   30.12    2.63
   4   2  -7   31.82    1.83
  -4   2   7   32.31    1.95
  -4  -2   6   98.44    2.42
   4   2  -6  103.53    4.50
   4  -2  -6   98.00    4.62
   4  -2  -6  105.91    4.34
   4   2  -6  101.25    4.35
   4  -2  -6   98.26    4.32
  -4   2   6   96.26    4.14
  -4  -2   6   95.06    3.99
   4   2  -6   95.89    3.91
  -4   2   6  101.77    4.59
  -4  -2   6   97.05    4.06
   4   2  -6   97.48    4.40
  -4   2   6  103.59    3.52
   4  -2  -6  101.07    4.45
   4   2  -6   97.71    3.26
   4   2  -5    2.38    0.96
   4  -2  -5    3.07    1.26
   4  -2  -5    2.98    1.29
   4  -2  -5    4.10    1.22
   4  -2  -5    6.65    1.48
  -4   2   5    2.94    1.04
  -4   2   5    4.71    1.34
   4   2  -5    5.37    1.22
   4   2  -5    2.64    1.14
   4   2  -5    4.28    1.28
  -4   2   5    3.65    0.92
  -4   2   5    2.63    1.32
  -4   2   5    3.20    0.31
  -4   2   5    2.78    0.31
  -4  -2   5    4.30    1.13
   4   2  -5    2.99    0.78
   4   2  -4   73.76    3.22
   4  -2  -4   73.73    3.58
   4  -2  -4   71.35    3.33
   4   2  -4   67.25    1.57
  -4   2   4   70.59    3.02
   4  -2  -4   72.01    2.98
   4  -2  -4   74.98    3.37
  -4   2   4   67.67    2.96
   4  -2  -4   69.64    3.12
  -4   2   4   72.72    3.37
   4  -2  -4   72.91    1.73
  -4  -2   4   70.59    2.93
   4   2  -4   76.44    3.27
  -4   2   4   67.31    1.71
  -4  -2   4   69.25    3.19
  -4   2   4   67.69    3.31
  -4  -2   4   71.66    3.22
  -4   2   4   69.47    1.70
   4  -2  -4   72.47    2.99
  -4   2   4   66.65    2.90
   4   2  -4   75.25    2.99
   4   2  -4   72.86    3.35
   4   2  -4   71.41    3.20
   4   2  -3   73.95    1.74
   4  -2  -3   72.72    3.19
  -4   2   3   76.97    3.28
  -4  -2   3   77.18    3.14
   4  -2  -3   79.20    3.30
  -4   2   3   72.74    2.80
   4   2  -3   76.15    3.06
  -4   2   3   75.10    2.76
   4  -2  -3   72.92    2.86
  -4   2   3   71.00    3.21
   4   2  -3   74.63    1.88
  -4   2   3   74.81    2.91
   4  -2  -3   74.15    2.08
   4   2  -3   71.51    2.82
  -4  -2   3   73.43    2.82
  -4   2   3   73.05    2.08
   4   2  -3   74.79    3.15
  -4  -2   3   66.86    3.09
   4   2  -3   74.23    2.86
  -4   2   3   74.31    2.90
  -4  -2   3   74.32    2.91
   4  -2  -3   78.02    2.84
   4  -2  -3   76.89    3.07
   4  -2  -3   78.52    2.13
  -4   2   3   76.51    3.12
   4   2  -3   78.06    3.06
  -4  -2   3   76.19    3.07
  -4   2   3   77.17    2.89
   4   2  -2  371.62    4.49
  -4   2   2  367.26    7.06
   4   2  -2  371.41    5.54
   4  -2  -2  370.48    6.92
  -4   2   2  371.50    6.82
  -4   2   2  376.23    6.94
   4   2  -2  377.18    6.35
   4  -2  -2  369.34    6.71
   4  -2  -2  370.19    5.72
  -4   2   2  374.31    5.90
  -4   2   2  368.00    5.77
  -4  -2   2  364.95    4.54
  -4  -2   2  386.14    6.54
  -4   2   2  376.01    5.27
   4  -2  -2  370.48    6.90
  -4   2   2  367.44    5.65
  -4   2   2  371.93    7.01
  -4   2   2  371.95    5.22
   4   2  -2  364.81    6.77
  -4  -2   2  378.86    6.93
  -4   2   2  376.70    5.69
  -4  -2   2  382.33    6.95
   4   2  -2  377.26    5.62
  -4   2   2  369.87    5.11
   4  -2  -2  371.36    5.19
   4  -2  -2  392.56    6.85
  -4  -2   2  394.06    7.06
  -4   2   2  367.55    6.73
   4   2  -2  390.71    6.83
  -4  -2   2  377.43    6.77
  -4  -2   2  371.79    4.68
   4   2  -1   23.93    1.22
  -4   2   1   24.76    1.84
   4  -2  -1   25.54    1.91
  -4  -2   1   25.38    1.72
  -4   2   1   24.14    1.76
   4  -2  -1   22.53    1.85
  -4  -2   1   24.42    1.07
  -4   2   1   22.66    1.10
   4   2  -1   24.77    1.69
  -4  -2   1   25.45    1.12
   4  -2  -1   22.91    1.81
  -4   2   1   23.73    1.26
  -4   2   1   28.02    2.14
  -4   2   1   23.84    1.50
   4   2  -1   24.99    1.88
  -4   2   1   24.34    1.30
  -4  -2   1   24.34    1.82
   4   2  -1   24.30    1.23
  -4   2   1   23.11    1.47
   4  -2  -1   23.88    1.53
  -4  -2   1   22.55    1.76
   4  -2  -1   25.67    1.85
  -4   2   1   24.85    1.87
   4   2  -1   25.06    1.86
   4   2  -1   25.90    1.88
  -4  -2   1   22.98    1.80
  -4   2   1   23.73    1.51
   4  -2  -1   23.53    1.44
   4  -2  -1   25.48    1.54
  -4   2   1   25.47    1.60
  -4  -2   0    9.04    1.24
   4   2   0    8.72    0.56
  -4   2   0    9.39    1.11
   4  -2   0    8.22    1.37
  -4  -2   0    7.27    1.06
  -4   2   0    8.69    1.11
   4  -2   0    7.33    1.14
   4   2   0    9.77    1.24
   4  -2   0    9.63    1.18
   4  -2   0    8.53    0.96
   4   2   0    8.59    1.24
  -4  -2   0    7.57    0.99
  -4  -2   0   10.67    1.31
  -4   2   0    7.80    0.60
   4  -2   0    6.50    1.14
  -4   2   0    9.06    1.28
  -4   2   0    8.66    0.66
  -4   2   0    9.58    1.11
   4   2   0    9.30    1.26
  -4  -2   0    7.52    0.68
  -4  -2   0    8.26    1.11
   4  -2   0    8.09    1.10
  -4   2   0    9.00    1.20
   4  -2   0    7.84    1.03
   4   2   0    9.82    0.84
   4   2   0    8.37    1.16
   4  -2   1   42.59    2.46
   4   2   1   39.51    2.22
   4   2   1   41.02    1.64
   4  -2   1   40.16    2.01
   4  -2   1   43.68    2.63
   4  -2   1   36.92    0.96
  -4  -2  -1   37.39    1.96
  -4   2  -1   39.82    2.42
  -4   2  -1   39.39    2.25
  -4  -2  -1   39.49    2.37
   4   2   1   40.76    2.36
  -4  -2  -1   41.27    2.35
  -4   2  -1   41.27    2.26
   4  -2   1   38.98    2.23
   4  -2   1   39.48    2.27
   4   2   1   38.80    2.35
  -4   2  -1   38.97    2.32
   4   2   1   40.88    2.31
  -4   2  -1   43.13    2.31
  -4  -2  -1   39.44    2.35
  -4  -2  -1   38.85    1.57
   4   2   1   38.00    1.62
   4  -2   1   39.44    2.07
   4   2   2   38.39    1.86
   4  -2   2   39.39    2.54
   4   2   2   39.47    2.38
   4   2   2   36.85    1.78
   4   2   2   37.39    2.18
  -4  -2  -2   35.15    1.94
   4  -2   2   36.64    1.22
  -4  -2  -2   34.81    2.32
   4   2   2   34.63    2.27
   4  -2   2   34.40    2.28
   4  -2   2   38.36    2.23
   4   2   2   37.86    2.38
  -4   2  -2   35.33    2.26
  -4   2  -2   33.65    2.24
  -4  -2  -2   37.87    2.25
   4   2   3  155.36    4.14
   4  -2   3  150.51    5.05
   4   2   3  152.27    4.31
  -4  -2  -3  157.00    4.87
   4   2   3  155.63    4.79
  -4   2  -3  145.89    1.88
  -4  -2  -3  162.88    4.93
   4   2   3  157.46    4.82
   4  -2   3  154.55    4.95
  -4   2  -3  149.79    3.90
   4   2   3  155.21    4.84
  -4   2  -3  148.09    4.42
  -4   2  -3  154.20    4.88
  -4  -2  -3  156.69    4.58
   4   2   4   40.21    2.84
   4   2   4   41.53    2.49
   4  -2   4   45.92    3.16
   4   2   4   43.23    2.32
  -4  -2  -4   43.71    2.79
  -4   2  -4   43.78    1.42
   4   2   4   41.41    2.67
  -4  -2  -4   45.40    2.92
  -4   2  -4   37.76    2.11
   4  -2   4   39.01    2.80
   4   2   4   40.19    2.68
  -4   2  -4   40.94    2.76
  -4   2  -4   42.12    2.47
  -4  -2  -5  263.89    4.14
   4   2   5  270.99    7.29
   4  -2   5  254.98    7.40
  -4  -2  -5  248.43    6.68
   4   2   5  261.83    6.49
  -4   2  -5  271.16    4.19
   4   2   5  244.66    6.47
   4  -2   5  256.00    4.22
  -4  -2  -5  262.66    7.18
  -4   2  -5  248.78    6.92
   4  -2   5  265.66    7.33
   4   2   5  251.93    6.70
  -4   2  -5  256.72    7.13
  -4   2  -5  262.28    5.92
  -4  -2  -6   64.55    2.46
   4  -2   6   69.95    4.31
   4   2   6   61.13    3.43
   4   2   6   63.88    3.53
  -4   2  -6   63.44    2.41
  -4  -2  -6   61.81    3.60
  -4  -2  -6   67.12    3.98
  -4   2  -6   58.88    3.67
   4  -2   6   63.40    3.89
   4   2   6   57.11    3.39
  -4   2  -6   59.74    3.69
  -4   2  -6   63.41    2.94
  -4   2  -7    1.79    1.22
   4  -2   7    1.44    1.22
  -4  -2  -7    1.08    0.89
  -4   2  -7    0.79    0.55
   4   2   7    2.14    1.05
   4   2   7    2.21    1.17
  -4   2  -7    1.49    1.01
  -4  -2  -7    1.38    1.12
  -4  -2  -7    2.46    1.36
  -4   2  -7   -0.09    1.25
  -4   2  -7    0.15    0.52
  -4   2  -8   12.74    1.92
  -4  -2  -8   13.62    1.90
   4  -2   8   13.78    2.08
   4   2   8   12.93    1.89
   4   2   8   11.74    1.90
  -4  -2  -8   12.47    1.99
  -4  -2  -8   14.71    2.28
  -4   2  -8   18.09    2.47
  -4   2  -8   11.14    1.92
  -4   2  -9   36.17    3.10
   4   2   9   31.99    3.23
  -4  -2  -9   28.20    2.99
  -4  -2  -9   32.38    3.41
  -4   2  -9   35.10    3.45
   4  -2   9   37.34    3.57
  -4   2  -9   30.78    3.15
   4   2   9   32.21    2.99
  -4  -2  -9   30.69    2.84
   4   2  10   27.82    3.18
  -4  -2 -10   25.55    2.98
  -4   3  11   11.74    2.27
  -4  -3  11   13.70    2.33
  -4  -3  11   14.61    2.43
  -4  -3  10    9.42    1.82
   4   3 -10    8.50    1.88
   4  -3 -10    9.95    2.24
  -4   3  10    5.61    1.61
  -4   3  10    8.79    2.11
  -4   3  10    8.62    2.03
   4   3 -10    9.96    1.89
  -4   3  10    9.07    2.43
  -4  -3  10    9.69    1.98
  -4   3  10    8.09    2.06
  -4  -3  10    7.84    1.78
  -4   3  10    9.38    2.26
   4   3 -10    7.83    2.00
   4   3  -9    8.09    1.95
   4  -3  -9    9.58    2.03
  -4  -3   9    8.98    1.63
  -4   3   9    5.48    1.69
  -4   3   9    6.58    1.76
  -4   3   9    8.81    1.83
   4   3  -9    6.65    1.79
   4   3  -9    7.54    1.55
  -4   3   9    6.98    1.89
  -4  -3   9    7.28    1.51
  -4   3   9    6.26    1.52
  -4   3   9    7.73    1.88
  -4  -3   8    1.45    0.95
   4   3  -8    1.09    1.28
  -4   3   8    0.96    1.23
  -4   3   8    2.84    1.39
   4   3  -8    2.39    1.11
  -4   3   8    1.89    1.40
  -4  -3   8    1.94    1.11
  -4   3   8    1.68    1.14
   4   3  -8   -0.96    1.31
  -4   3   8    2.42    1.41
   4  -3  -8    2.36    1.49
  -4   3   8    0.74    1.07
   4   3  -7   -2.53    1.52
   4   3  -7    0.27    1.17
   4  -3  -7    0.20    1.00
  -4   3   7    3.65    1.45
   4  -3  -7   -0.74    1.26
  -4   3   7   -0.64    1.32
   4   3  -7    1.96    0.99
  -4   3   7    0.45    1.11
  -4   3   7   -1.06    1.26
  -4  -3   7    0.21    0.84
  -4   3   7    2.15    1.23
  -4   3   7   -0.07    1.09
  -4   3   7    1.02    0.66
  -4  -3   7    1.69    1.14
   4   3  -6   47.07    3.20
   4  -3  -6   56.72    3.74
   4  -3  -6   51.31    3.40
   4   3  -6   46.21    2.97
  -4   3   6   43.44    3.05
  -4   3   6   43.89    3.13
  -4   3   6   47.64    3.35
  -4  -3   6   49.37    2.74
  -4   3   6   48.32    3.26
   4   3  -6   44.28    3.02
  -4   3   6   52.52    3.47
  -4  -3   6   47.14    3.13
   4  -3  -6   44.02    2.99
  -4   3   6   46.36    2.62
   4   3  -6   44.78    3.15
   4   3  -5    1.86    0.95
   4  -3  -5    1.02    1.15
   4  -3  -5    2.17    1.05
   4   3  -5    3.73    1.16
  -4   3   5    0.19    1.00
  -4   3   5    1.39    1.02
  -4   3   5    2.29    1.29
   4   3  -5    3.49    1.20
  -4  -3   5    2.20    0.86
  -4  -3   5    2.20    0.86
  -4   3   5    1.98    1.06
   4   3  -5    2.85    1.40
  -4   3   5    1.54    0.87
  -4  -3   5    3.01    1.24
   4  -3  -5    2.21    0.92
   4   3  -4   14.57    1.67
   4  -3  -4    9.58    1.55
  -4   3   4   12.44    1.53
   4   3  -4   15.65    1.77
  -4   3   4   14.33    1.77
   4   3  -4   13.16    1.54
  -4  -3   4   13.61    1.33
  -4   3   4   10.30    0.58
  -4   3   4   11.19    0.57
  -4   3   4   10.93    0.58
   4  -3  -4   10.94    1.67
  -4  -3   4   13.12    1.81
  -4   3   4   14.31    1.93
  -4   3   4   12.46    1.55
   4  -3  -4   14.37    1.73
   4  -3  -3   32.36    2.46
  -4  -3   3   35.67    2.16
   4  -3  -3   31.87    2.26
   4   3  -3   33.30    2.07
   4  -3  -3   37.30    2.34
   4   3  -3   33.11    2.13
  -4   3   3   29.26    2.08
  -4   3   3   34.58    2.16
  -4   3   3   28.63    2.35
   4   3  -3   33.32    1.17
  -4   3   3   32.11    2.06
  -4   3   3   30.79    1.38
  -4  -3   3   34.39    1.81
  -4   3   3   31.69    2.08
   4   3  -3   29.88    2.33
  -4  -3   3   30.28    2.40
   4   3  -3   31.70    2.01
  -4   3   3   31.98    1.36
  -4   3   3   29.21    2.16
   4  -3  -3   32.67    1.40
  -4   3   3   32.79    1.40
  -4   3   3   33.84    2.34
  -4  -3   2    0.48    0.75
  -4   3   2    1.13    0.89
  -4   3   2    0.90    0.51
  -4   3   2    1.44    0.53
   4  -3  -2    0.32    0.50
   4   3  -2    2.19    0.91
   4  -3  -2    1.20    1.17
  -4   3   2    0.40    0.87
  -4  -3   2   -0.09    0.72
   4  -3  -2    1.27    0.89
   4   3  -2    1.10    0.76
   4  -3  -2    0.08    0.74
  -4   3   2   -1.01    1.21
  -4  -3   2    0.42    0.63
  -4   3   2    0.06    0.55
  -4   3   2   -1.12    1.07
  -4   3   2    0.50    0.66
   4   3  -2    1.36    1.08
   4   3  -2    0.62    0.60
  -4   3   2    1.20    1.07
  -4   3   2    0.76    0.49
  -4  -3   2    0.88    0.96
  -4   3   2    0.44    0.84
   4  -3  -2    1.23    0.87
   4   3  -1   52.51    2.05
   4  -3  -1   54.52    3.04
  -4   3   1   51.44    2.67
   4   3  -1   53.02    2.32
   4  -3  -1   51.83    2.53
  -4  -3   1   51.10    2.08
   4  -3  -1   54.42    2.67
  -4   3   1   48.95    2.11
  -4  -3   1   52.79    2.82
  -4   3   1   51.64    2.96
  -4   3   1   52.30    1.85
  -4   3   1   48.06    2.10
  -4   3   1   51.83    2.27
   4   3  -1   47.53    2.74
  -4  -3   1   53.65    2.90
   4   3  -1   52.14    1.95
  -4   3   1   54.82    2.32
   4  -3  -1   51.73    2.28
  -4   3   1   54.67    2.92
  -4   3   1   53.10    2.32
  -4  -3   1   51.43    2.35
   4  -3  -1   52.36    2.60
  -4  -3   1   53.81    2.18
   4  -3   0   19.26    1.71
   4  -3   0   20.94    2.01
  -4  -3   0   20.67    1.57
   4  -3   0   24.47    1.93
   4   3   0   20.13    1.54
  -4  -3   0   20.86    1.40
   4  -3   0   22.58    1.75
   4  -3   0   20.98    1.21
  -4   3   0   21.88    1.32
  -4   3   0   25.59    2.31
  -4   3   0   21.39    0.89
  -4   3   0   22.27    1.69
  -4  -3   0   23.59    1.49
   4   3   0   21.89    1.97
  -4   3   0   24.00    1.95
   4   3   0   21.33    0.98
  -4   3   0   22.82    1.68
   4  -3   0   25.99    1.82
  -4   3   0   25.42    2.05
  -4   3   0   25.41    1.78
   4   3   0   23.77    2.04
  -4  -3   0   23.96    1.91
   4  -3   1  425.72    8.15
   4  -3   1  438.67    7.71
   4   3   1  423.78    6.69
   4   3   1  420.25    6.38
   4  -3   1  436.24    7.49
   4   3   1  433.46    6.31
   4  -3   1  428.77    5.11
  -4  -3  -1  434.72    7.53
  -4  -3  -1  434.38    8.25
   4   3   1  436.01    8.02
   4  -3   1  424.51    7.54
  -4   3  -1  442.99    7.66
  -4   3  -1  436.73    8.01
   4   3   1  435.13    8.02
  -4  -3  -1  427.68    6.24
   4  -3   1  433.79    7.60
   4   3   2    1.09    0.89
   4  -3   2    1.34    1.12
   4   3   2    0.16    0.16
   4  -3   2    0.35    1.26
   4  -3   2    0.26    0.95
   4   3   2    1.02    1.06
   4   3   2    1.28    0.82
   4   3   2   -0.23    0.84
   4  -3   2    0.36    0.55
  -4  -3  -2   -0.24    0.78
   4  -3   2    0.23    0.98
  -4  -3  -2    0.42    0.71
  -4  -3  -2    0.24    1.16
  -4  -3  -2    1.36    0.93
  -4   3  -2   -0.19    0.84
   4   3   2    0.11    0.91
  -4   3  -2    0.57    0.84
   4   3   3   82.55    1.43
   4  -3   3   91.89    4.04
   4   3   3   90.12    3.50
   4   3   3   88.30    3.83
  -4  -3  -3   93.00    4.18
   4   3   3   84.37    3.70
  -4  -3  -3   94.33    3.80
   4  -3   3   92.92    4.10
  -4   3  -3   82.11    2.59
  -4   3  -3   94.59    4.10
   4   3   3   90.03    3.85
  -4   3  -3   85.98    3.70
  -4   3  -3   89.96    2.21
   4   3   3   90.44    3.49
   4   3   3   89.56    3.64
   4  -3   4  137.91    5.28
   4   3   4  145.62    5.00
   4   3   4  140.05    4.97
  -4  -3  -4  145.99    5.31
   4   3   4  134.12    4.77
  -4  -3  -4  142.59    5.03
  -4   3  -4  148.66    3.07
  -4   3  -4  145.07    3.63
   4  -3   4  139.79    5.25
  -4   3  -4  143.16    5.31
   4   3   4  139.87    4.91
  -4   3  -4  141.93    4.70
   4   3   4  145.00    4.68
   4   3   5  101.12    4.51
   4  -3   5  100.98    4.78
   4   3   5   98.71    4.36
   4   3   5  102.36    4.29
  -4  -3  -5  106.85    4.70
  -4   3  -5  105.97    4.60
  -4   3  -5  105.46    2.92
  -4   3  -5  100.81    3.32
   4  -3   5   98.25    4.69
  -4  -3  -5  104.05    4.72
  -4   3  -5  104.28    4.81
   4   3   5  104.28    4.38
   4   3   5   99.67    4.29
  -4   3  -5  110.51    4.15
   4   3   6  242.68    7.36
   4   3   6  228.50    7.03
  -4  -3  -6  224.06    7.20
   4   3   6  231.90    6.62
  -4   3  -6  246.78    4.93
  -4  -3  -6  230.98    7.37
  -4   3  -6  225.98    7.04
   4  -3   6  235.56    7.59
   4  -3   6  234.65    7.72
  -4   3  -6  235.22    7.52
   4   3   6  238.64    6.79
  -4   3  -6  236.45    6.02
   4  -3   7    1.47    1.50
   4  -3   7    0.63    1.08
  -4  -3  -7   -0.25    0.79
   4   3   7    0.97    0.91
   4   3   7    2.47    1.38
  -4  -3  -7    0.74    1.08
  -4  -3  -7    0.61    1.03
  -4   3  -7   -1.27    1.16
  -4   3  -7    0.64    1.20
  -4   3  -7    0.73    0.64
  -4   3  -8    1.47    1.19
  -4  -3  -8   -0.49    0.76
   4  -3   8    4.70    2.04
   4   3   8    1.16    0.92
   4   3   8    1.22    1.50
  -4  -3  -8   -1.03    1.24
  -4  -3  -8    0.02    1.28
  -4   3  -8    1.90    1.41
  -4   3  -8    1.27    1.22
   4  -3   8   -0.36    1.20
  -4   3  -9    1.03    1.05
   4  -3   9    3.43    1.58
   4  -3   9    5.04    2.22
   4   3   9    2.74    1.77
  -4  -3  -9    4.16    1.57
  -4  -3  -9    2.58    1.36
  -4   3  -9    0.98    1.31
  -4   3  -9    2.55    1.35
  -4  -4  10   -0.34    1.17
  -4   4  10    2.83    1.68
   4   4 -10   -0.60    1.15
   4   4  -9    2.75    1.56
  -4   4   9    1.40    1.33
  -4   4   9    1.24    1.28
  -4   4   9    4.16    1.55
   4   4  -9    2.16    1.34
  -4   4   9    3.13    1.59
  -4  -4   9    3.55    1.44
   4   4  -9   -0.26    1.51
  -4   4   9    1.18    1.28
  -4   4   9   -0.26    1.16
   4   4  -8    0.97    1.30
  -4   4   8    0.69    1.24
  -4   4   8    0.94    1.43
  -4   4   8    0.45    1.18
   4   4  -8    0.62    1.06
  -4   4   8    0.37    1.11
  -4  -4   8   -0.21    0.93
  -4   4   8    0.37    1.18
  -4   4   8   -0.56    1.11
   4   4  -8    0.35    1.10
  -4  -4   8   -0.26    1.06
   4   4  -7   21.00    2.51
   4  -4  -7   20.65    2.28
  -4   4   7   21.53    2.59
  -4   4   7   17.09    2.29
  -4   4   7   21.16    2.65
  -4  -4   7   18.83    1.78
   4   4  -7   19.13    2.31
  -4   4   7   21.11    2.54
  -4   4   7   21.39    2.53
   4   4  -7   20.91    2.55
  -4   4   7   20.84    2.51
  -4   4   7   22.65    2.11
  -4  -4   7   18.26    2.33
   4   4  -6   45.47    3.32
   4  -4  -6   47.47    3.45
  -4   4   6   47.09    3.43
  -4   4   6   47.08    3.33
  -4   4   6   46.09    3.59
  -4   4   6   40.48    3.22
  -4  -4   6   48.80    2.54
   4   4  -6   47.33    3.34
  -4   4   6   42.70    3.31
  -4  -4   6   43.70    3.33
  -4   4   6   43.12    3.16
  -4   4   6   48.50    2.97
   4   4  -6   45.47    3.39
   4  -4  -6   43.81    3.23
   4  -4  -6   49.35    3.18
   4   4  -5    1.07    1.10
   4  -4  -5    1.63    1.18
   4  -4  -5    0.28    0.82
  -4   4   5    1.52    1.16
  -4  -4   5    0.74    1.07
  -4   4   5   -0.59    0.94
  -4   4   5    1.81    1.28
   4   4  -5   -1.07    1.03
  -4  -4   5    0.63    0.65
  -4  -4   5    0.38    0.55
  -4   4   5   -0.32    0.94
  -4   4   5   -0.26    0.76
   4  -4  -5    0.37    0.98
   4   4  -4    8.84    1.52
   4  -4  -4    7.19    1.55
   4  -4  -4    7.05    1.27
   4   4  -4    7.27    1.14
  -4   4   4    5.64    1.40
  -4   4   4   11.50    1.74
  -4   4   4   12.87    2.07
   4   4  -4    8.59    1.63
  -4  -4   4    7.73    0.92
  -4   4   4    6.71    0.46
  -4  -4   4    7.99    0.94
  -4   4   4    6.79    0.44
  -4   4   4    6.98    0.47
  -4   4   4   11.28    1.71
  -4  -4   4    7.75    1.56
   4  -4  -4    8.46    1.60
   4  -4  -3   36.77    2.83
  -4  -4   3   35.67    2.14
   4  -4  -3   36.01    2.39
   4   4  -3   36.55    2.10
  -4   4   3   32.81    2.60
   4   4  -3   40.17    2.57
  -4   4   3   30.93    2.32
  -4   4   3   37.10    2.94
  -4   4   3   34.87    2.24
  -4   4   3   35.08    1.58
  -4  -4   3   39.17    1.73
   4   4  -3   39.10    2.87
  -4  -4   3   33.86    2.71
  -4   4   3   36.84    1.61
  -4   4   3   38.07    1.63
   4  -4  -3   38.96    1.62
  -4   4   3   35.93    2.57
   4  -4  -3   37.88    2.72
  -4  -4   3   36.40    2.48
   4  -4  -2  128.23    4.61
   4  -4  -2  127.53    4.85
   4   4  -2  122.49    2.14
  -4   4   2  121.52    4.14
   4  -4  -2  124.34    4.10
  -4  -4   2  118.79    3.99
   4   4  -2  128.45    3.52
  -4  -4   2  120.42    3.91
  -4   4   2  125.97    4.69
  -4   4   2  121.66    4.08
  -4   4   2  117.62    4.80
  -4   4   2  119.49    3.55
  -4   4   2  121.86    3.39
  -4  -4   2  123.69    2.92
   4   4  -2  122.52    4.78
  -4  -4   2  120.90    4.76
   4   4  -2  117.72    3.66
  -4   4   2  123.84    3.39
   4  -4  -2  123.86    3.38
  -4   4   2  123.79    3.37
  -4   4   2  124.36    4.66
  -4  -4   2  120.25    3.54
   4  -4  -1    2.85    0.79
   4  -4  -1    4.15    1.30
  -4   4   1    5.31    1.07
  -4  -4   1    3.41    0.84
   4   4  -1    5.11    0.77
   4  -4  -1    2.82    0.99
   4   4  -1    5.14    0.90
  -4  -4   1    5.16    1.14
   4   4  -1    5.25    1.30
  -4   4   1    4.73    1.15
   4  -4  -1    6.07    1.39
  -4   4   1    5.01    1.67
  -4   4   1    3.23    0.66
   4   4  -1    3.24    0.67
  -4   4   1    4.23    0.92
  -4  -4   1    4.99    1.27
  -4   4   1    4.25    1.32
  -4   4   1    5.53    0.95
  -4   4   1    3.96    0.89
  -4  -4   1    4.34    1.07
   4  -4   0    4.92    1.08
   4  -4   0    5.68    1.54
   4  -4   0    7.24    1.58
  -4  -4   0    3.54    0.91
   4  -4   0    7.45    1.31
   4   4   0    4.24    0.83
   4   4   0    6.09    1.45
   4  -4   0    3.93    0.81
  -4   4   0    5.03    1.18
  -4   4   0    6.97    1.64
  -4  -4   0    5.22    0.85
  -4  -4   0    7.55    1.71
  -4  -4   0    5.48    0.93
   4   4   0    4.76    0.70
  -4  -4   0    4.02    1.38
  -4   4   0    4.35    1.00
  -4   4   0    5.19    1.34
  -4  -4   0    3.13    0.89
   4   4   1   13.43    1.59
   4  -4   1   14.35    1.66
   4  -4   1    9.19    1.65
   4  -4   1   10.69    1.74
   4  -4   1   13.33    1.63
   4   4   1   11.80    1.66
   4  -4   1   13.39    1.30
   4   4   1   11.66    1.31
   4   4   1   15.28    1.72
   4   4   1   11.32    1.66
  -4  -4  -1   10.61    1.23
  -4  -4  -1   10.35    1.83
  -4  -4  -1   12.94    1.34
   4   4   1   11.56    0.68
  -4   4  -1   14.74    1.69
  -4   4  -1   13.15    1.72
  -4  -4  -1   11.21    1.36
   4   4   2    5.55    0.71
   4  -4   2    2.49    1.24
   4  -4   2    4.43    1.17
   4   4   2    2.86    1.22
   4  -4   2    2.26    1.19
   4   4   2    5.12    1.09
   4  -4   2    3.25    0.82
   4  -4   2    3.92    1.43
   4   4   2    3.20    1.17
   4   4   2    2.99    1.24
  -4  -4  -2    3.03    0.87
  -4  -4  -2    2.45    1.13
  -4  -4  -2    5.84    1.06
  -4   4  -2    3.81    0.57
  -4   4  -2    5.08    1.13
  -4   4  -2    4.80    1.24
  -4  -4  -2    3.99    1.02
   4  -4   3   56.49    3.46
   4   4   3   59.83    1.85
   4  -4   3   58.28    3.32
   4   4   3   58.98    2.91
   4   4   3   64.46    3.25
   4  -4   3   56.45    2.60
   4   4   3   58.92    3.66
  -4  -4  -3   61.01    3.67
   4   4   3   56.43    3.20
  -4  -4  -3   63.53    3.11
   4  -4   3   57.29    3.38
  -4   4  -3   56.48    1.69
  -4   4  -3   54.51    3.32
  -4   4  -3   55.95    3.22
   4   4   3   53.49    3.17
  -4  -4  -3   56.42    3.01
   4  -4   3   59.90    3.62
   4   4   4   16.64    1.86
   4   4   4   17.58    1.89
   4   4   4   19.46    2.05
   4  -4   4   17.85    2.22
   4   4   4   16.62    2.19
   4   4   4   16.72    1.90
  -4  -4  -4   22.07    2.43
  -4  -4  -4   18.39    1.92
   4  -4   4   21.26    2.37
   4  -4   4   19.02    2.13
  -4   4  -4   17.39    1.92
  -4   4  -4   20.59    2.26
  -4   4  -4   18.58    1.44
   4  -4   5  128.47    5.42
   4   4   5  129.85    4.98
   4  -4   5  127.59    5.45
   4   4   5  119.01    4.99
   4   4   5  119.81    5.36
  -4  -4  -5  127.65    5.59
   4   4   5  121.48    4.79
  -4  -4  -5  122.92    5.06
  -4   4  -5  118.55    4.84
   4  -4   5  121.78    5.50
  -4   4  -5  122.69    5.49
  -4   4  -5  123.65    3.59
  -4   4  -5  123.81    4.79
   4   4   5  122.59    4.87
   4   4   6   29.40    2.74
   4  -4   6   32.00    3.12
   4   4   6   29.44    2.76
   4   4   6   30.14    2.94
   4   4   6   26.21    2.41
  -4  -4  -6   23.90    2.64
  -4  -4  -6   31.89    2.90
  -4   4  -6   29.15    2.67
   4  -4   6   26.48    2.82
  -4   4  -6   28.16    2.90
   4   4   6   27.68    2.52
  -4   4  -6   26.60    2.27
   4  -4   7    0.46    1.12
   4   4   7    0.63    1.25
   4  -4   7   -0.54    1.30
   4   4   7   -0.16    1.07
   4   4   7    0.69    0.80
  -4  -4  -7   -0.72    1.28
  -4  -4  -7    0.02    1.08
  -4   4  -7    0.49    1.03
  -4   4  -7    2.17    1.44
   4   4   7    0.43    0.79
   4   4   7   -2.13    1.52
  -4   4  -7    1.79    0.95
   4  -4   8   11.58    2.19
   4  -4   8   10.56    2.40
   4   4   8   11.66    2.32
   4   4   8    9.00    2.06
   4   4   8    9.75    2.04
  -4  -4  -8   10.55    2.08
  -4  -4  -8   12.45    2.16
  -4   4  -8   13.40    2.23
  -4   4  -8    9.75    2.01
  -4   4  -9   15.03    2.55
   4   4   9   20.66    2.92
   4   4   9   14.17    2.54
  -4   4  -9   15.50    2.32
   4   4   9   17.22    2.70
  -4  -5   9    0.55    1.21
  -4   5   9    1.13    1.50
  -4   5   9   -1.24    1.42
   4   5  -9   -0.65    1.11
  -4   5   9   -2.37    1.33
  -4   5   9    2.69    1.82
  -4   5   9    0.85    1.14
  -4   5   9    0.84    1.28
   4   5  -8    1.32    1.41
  -4   5   8    2.37    1.67
  -4   5   8    2.99    1.56
  -4   5   8    1.32    1.41
  -4  -5   8   -0.64    1.26
   4   5  -8    0.17    1.10
  -4   5   8   -0.35    1.07
   4   5  -8    2.38    1.57
  -4   5   8    0.40    1.05
  -4   5   8    1.24    1.17
  -4   5   7   14.46    2.41
   4   5  -7   12.88    2.21
   4   5  -7   17.11    2.43
  -4   5   7   13.89    2.28
  -4  -5   7   12.15    2.04
   4   5  -7   11.69    2.07
  -4   5   7   15.29    2.34
  -4   5   7   14.83    2.44
  -4   5   7   13.44    2.20
  -4   5   7   14.64    2.28
  -4   5   7   11.90    1.67
   4   5  -6    2.69    1.42
   4   5  -6    6.03    1.85
   4  -5  -6    4.36    1.40
   4  -5  -6    2.15    1.13
  -4   5   6    2.55    1.35
  -4   5   6    1.39    1.18
  -4   5   6    4.36    1.65
   4   5  -6    3.23    1.25
  -4   5   6    1.73    1.03
  -4   5   6    2.55    1.24
  -4   5   6    4.45    1.49
  -4   5   6    4.11    1.20
  -4  -5   6    3.75    1.59
   4  -5  -6    2.57    1.24
  -4  -5   5   11.05    2.03
   4   5  -5   11.24    1.97
   4  -5  -5    9.62    1.89
   4  -5  -5    8.35    1.37
  -4   5   5    9.13    1.83
  -4   5   5    7.34    1.49
  -4   5   5   10.20    1.89
   4   5  -5    8.78    1.80
  -4   5   5    7.12    1.58
  -4   5   5    8.79    1.52
  -4   5   5   10.09    1.68
   4  -5  -5    7.12    1.67
  -4  -5   5    9.26    1.85
  -4  -5   4    6.57    1.63
   4  -5  -4    4.30    1.12
  -4   5   4    2.86    1.14
  -4   5   4    3.52    1.29
  -4  -5   4    5.18    1.43
  -4   5   4    5.09    1.59
   4   5  -4    4.79    1.47
  -4  -5   4    2.97    0.44
   4  -5  -4    4.57    1.46
  -4   5   4    4.05    1.10
  -4   5   4    6.13    1.41
   4  -5  -4    6.93    1.57
  -4  -5   3    0.49    1.03
   4  -5  -3    2.26    0.61
   4  -5  -3    2.06    1.24
  -4  -5   3    3.64    0.84
   4  -5  -3    2.44    0.89
  -4   5   3    2.63    1.30
  -4   5   3    3.81    1.28
   4   5  -3   -0.35    1.04
   4   5  -3    2.25    0.46
  -4   5   3    0.84    1.01
   4   5  -3    3.49    0.76
   4  -5  -3    2.05    0.76
  -4   5   3    3.15    0.64
  -4   5   3    3.11    1.02
  -4   5   3    2.78    1.13
  -4  -5   3    3.04    1.15
   4  -5  -3    5.57    1.49
   4   5  -2    7.80    0.61
   4  -5  -2    8.37    1.09
   4  -5  -2    7.02    1.68
   4   5  -2   10.56    1.02
  -4  -5   2    8.65    1.04
   4  -5  -2    9.25    1.29
  -4   5   2   11.02    1.99
  -4   5   2    7.78    1.56
   4   5  -2    8.58    1.67
  -4   5   2    7.49    1.65
  -4  -5   2    7.62    0.51
  -4  -5   2    7.56    0.51
  -4   5   2    7.33    1.05
  -4   5   2    9.34    1.18
  -4   5   2    5.25    0.94
  -4  -5   2    9.99    1.57
  -4   5   2    6.85    1.43
  -4  -5   2    8.31    1.68
  -4   5   2    6.93    1.02
   4  -5  -2   11.14    1.75
  -4   5   2    7.90    1.10
   4  -5  -1    1.57    1.10
  -4  -5   1    0.42    0.80
  -4   5   1   -0.01    0.81
   4  -5  -1    1.02    0.72
   4  -5  -1    0.72    1.17
   4   5  -1   -0.16    0.48
  -4  -5   1    0.29    0.46
   4  -5  -1    0.46    0.72
   4   5  -1    0.10    0.41
   4   5  -1    0.78    1.05
  -4   5   1   -0.05    1.24
  -4  -5   1    0.32    0.32
  -4   5   1    1.10    0.68
  -4  -5   1    2.65    1.39
  -4  -5   1    0.08    0.30
   4   5  -1    1.18    0.70
  -4   5   1   -0.21    0.48
  -4   5   1   -0.04    0.61
  -4  -5   1    0.12    0.95
  -4   5   1   -0.11    1.04
   4  -5   0    4.55    1.41
   4  -5   0    0.99    0.84
   4  -5   0    3.16    1.28
   4  -5   0    1.05    0.76
   4   5   0    1.98    0.54
   4   5   0    2.62    1.07
  -4   5   0    2.12    1.34
  -4  -5   0    1.60    0.50
   4   5   0    1.33    0.55
  -4  -5   0    1.44    1.06
  -4  -5   0    2.17    0.57
   4   5   0    3.07    0.73
  -4   5   0    2.44    0.56
  -4   5   0    1.92    0.74
  -4  -5   0    2.53    1.16
  -4   5   0    2.54    1.16
  -4  -5   0    1.75    0.93
   4  -5   1   36.64    2.82
   4  -5   1   37.13    2.99
   4  -5   1   36.35    2.40
   4   5   1   36.55    1.72
   4   5   1   34.94    2.64
  -4  -5  -1   38.62    3.09
  -4  -5  -1   39.70    1.98
  -4  -5  -1   38.19    1.95
   4   5   1   33.80    2.69
  -4  -5  -1   32.26    2.69
   4  -5   1   36.19    2.62
  -4   5  -1   33.60    1.07
  -4   5  -1   37.91    2.65
  -4   5  -1   34.26    2.79
  -4  -5  -1   36.46    2.54
   4   5   2   26.15    2.38
   4  -5   2   26.09    2.51
   4  -5   2   25.47    2.13
   4   5   2   27.34    1.68
   4  -5   2   28.18    2.68
  -4  -5  -2   26.47    2.60
   4   5   2   25.91    2.39
  -4  -5  -2   28.96    1.94
  -4  -5  -2   23.81    2.41
   4  -5   2   24.29    2.30
  -4   5  -2   25.15    2.36
  -4   5  -2   25.93    2.44
  -4  -5  -2   27.15    2.26
   4  -5   3    2.80    1.38
   4  -5   3    2.30    1.06
   4   5   3    4.18    1.23
   4  -5   3    3.26    1.32
   4   5   3    2.95    0.87
  -4  -5  -3    4.14    1.25
   4   5   3    3.00    1.14
  -4  -5  -3    2.61    1.19
  -4  -5  -3    2.93    0.90
   4  -5   3    6.47    1.37
  -4   5  -3    4.02    1.27
  -4  -5  -3    2.93    1.15
  -4   5  -3    3.50    1.15
   4  -5   4   19.72    2.62
   4  -5   4   18.89    2.33
   4  -5   4   27.61    2.59
   4   5   4   23.44    2.05
   4   5   4   18.68    2.19
   4   5   4   19.66    2.66
   4   5   4   19.84    2.10
  -4  -5  -4   21.35    2.08
  -4  -5  -4   22.50    2.63
  -4   5  -4   24.21    2.29
   4  -5   4   19.09    2.21
  -4  -5  -4   21.89    2.32
  -4   5  -4   24.61    2.57
   4   5   4   20.40    2.19
  -4   5  -4   17.64    2.12
   4  -5   5   92.96    4.76
   4   5   5   98.71    4.22
   4  -5   5   97.65    4.83
   4   5   5   95.72    4.86
   4   5   5  101.86    5.38
  -4  -5  -5   97.34    5.26
   4   5   5   89.78    4.32
  -4  -5  -5   92.63    4.47
  -4   5  -5   94.73    4.34
   4  -5   5   83.36    4.83
  -4   5  -5   95.48    5.12
  -4   5  -5   93.06    4.52
   4   5   5   93.82    4.47
   4  -5   6   63.21    4.09
   4   5   6   66.72    3.84
   4  -5   6   62.08    4.24
   4   5   6   61.21    4.13
   4   5   6   65.48    4.52
  -4  -5  -6   61.69    4.39
   4   5   6   61.52    3.68
  -4  -5  -6   65.81    4.08
  -4   5  -6   65.91    3.84
   4  -5   6   61.58    4.40
  -4   5  -6   64.90    4.46
  -4   5  -6   60.87    3.69
   4   5   6   62.14    3.70
   4  -5   7    2.69    1.66
   4  -5   7    0.38    1.14
   4   5   7    0.54    1.54
   4   5   7    2.35    1.70
   4  -5   7    2.53    1.77
  -4  -5  -7   -1.45    1.35
  -4  -5  -7   -0.86    1.09
  -4   5  -7   -1.38    1.30
  -4   5  -7   -0.77    1.21
   4  -5   8    2.60    1.68
   4  -5   8   -0.31    1.45
   4   5   8    1.80    1.69
   4   5   8    2.90    1.97
  -4  -5  -8    3.48    1.61
  -4   6   8   -0.67    1.60
  -4   6   8    0.44    1.33
  -4   6   8    1.41    1.33
  -4   6   8    3.10    1.49
   4   6  -7   -0.24    1.35
  -4   6   7   -3.14    2.05
  -4   6   7   -2.54    1.93
  -4  -6   7    6.09    2.26
  -4   6   7    8.48    2.50
   4   6  -7    1.28    1.04
  -4   6   7    0.48    1.20
  -4   6   7    2.32    1.43
  -4   6   7    2.06    1.34
   4   6  -7    4.58    1.79
  -4   6   7    2.22    1.14
   4  -6  -7    1.01    1.25
  -4  -6   7   -0.41    1.23
   4   6  -6   53.13    4.09
   4  -6  -6   61.06    4.40
  -4   6   6   51.22    4.12
  -4   6   6   53.78    4.14
  -4   6   6   54.67    4.43
  -4   6   6   52.02    3.84
   4   6  -6   52.92    4.09
  -4  -6   6   51.53    4.11
  -4   6   6   52.74    3.77
  -4   6   6   54.55    3.78
   4  -6  -6   50.86    4.05
  -4  -6   6   50.94    4.01
   4   6  -5    8.17    1.84
   4  -6  -5    5.66    1.59
  -4   6   5    5.23    1.80
  -4   6   5    7.71    1.90
  -4   6   5    6.60    1.91
   4   6  -5    4.01    1.38
   4  -6  -5    6.49    1.51
  -4   6   5    7.38    1.59
  -4  -6   5    7.54    1.85
   4  -6  -5    8.95    1.46
  -4   6   5    8.61    1.62
  -4   6   5    6.86    1.64
  -4  -6   5    7.15    1.76
   4  -6  -5    6.08    1.74
  -4  -6   4   23.34    2.57
   4  -6  -4   25.00    2.85
   4  -6  -4   21.76    1.92
  -4   6   4   25.49    2.91
   4  -6  -4   21.93    2.16
  -4   6   4   21.30    2.68
  -4   6   4   21.99    2.30
  -4   6   4   22.95    2.63
   4   6  -4   22.26    2.73
  -4   6   4   23.59    2.20
  -4   6   4   22.22    2.48
   4  -6  -4   21.26    2.59
  -4  -6   4   24.34    2.72
   4  -6  -3   76.53    4.51
   4  -6  -3   76.17    3.25
  -4  -6   3   70.88    4.08
  -4   6   3   79.18    4.75
  -4   6   3   72.92    4.19
   4  -6  -3   77.12    3.58
   4  -6  -3   77.73    4.54
  -4   6   3   76.99    4.71
   4   6  -3   76.48    4.53
  -4  -6   3   82.14    4.75
  -4   6   3   72.99    3.40
  -4   6   3   73.12    4.35
  -4  -6   2    2.95    1.27
   4  -6  -2    1.54    1.13
   4  -6  -2    1.24    1.19
   4  -6  -2    2.28    0.75
   4   6  -2    2.77    1.19
   4   6  -2    0.87    0.60
  -4   6   2    5.68    1.66
   4  -6  -2    3.20    0.89
  -4  -6   2    5.60    1.73
  -4   6   2    3.02    0.90
  -4   6   2    2.96    0.87
   4  -6  -2    2.19    0.79
  -4   6   2    2.37    1.28
  -4  -6   2    3.03    1.31
  -4  -6   1    7.38    1.50
   4  -6  -1    8.02    1.30
   4  -6  -1   11.22    1.93
   4  -6  -1    7.97    1.19
   4  -6  -1    4.51    1.48
   4   6  -1    8.26    1.61
  -4   6   1   10.54    1.96
   4  -6  -1   10.18    1.13
  -4  -6   1   10.01    1.94
  -4   6   1    9.43    1.41
  -4   6   1    9.46    1.77
  -4  -6   1    8.47    1.74
   4  -6   0    1.63    1.42
   4  -6   0    1.45    0.98
   4  -6   0    2.06    1.30
   4  -6   0    0.71    0.73
   4   6   0    0.25    0.93
  -4   6   0    1.79    1.51
  -4  -6   0    1.36    1.09
  -4   6   0    1.39    0.93
  -4   6   0   -0.59    1.01
  -4  -6   0    2.45    1.10
  -4  -6   0    0.59    0.94
   4  -6   1    7.65    1.46
   4  -6   1    7.88    1.65
   4  -6   1    8.75    1.32
   4   6   1    6.67    1.59
  -4  -6  -1    8.37    1.69
   4  -6   1    9.58    1.87
  -4   6  -1    8.85    1.53
  -4  -6  -1    6.43    1.57
  -4   6  -1    8.32    1.79
  -4  -6  -1    8.84    1.63
   4  -6   2    0.89    0.97
   4  -6   2    1.94    1.24
   4   6   2    0.15    0.90
   4  -6   2   -0.71    0.85
   4  -6   2    0.01    1.32
   4   6   2    0.54    1.24
  -4  -6  -2   -1.74    1.25
  -4   6  -2    0.00    1.05
  -4  -6  -2    1.24    1.09
  -4   6  -2    0.50    0.97
  -4  -6  -2    2.39    1.20
   4  -6   3    7.57    1.66
   4  -6   3    4.95    1.29
   4  -6   3    5.23    1.39
   4   6   3    4.63    1.67
   4  -6   3    4.30    1.62
  -4  -6  -3    6.07    1.63
  -4  -6  -3    5.06    1.00
  -4   6  -3    4.81    1.49
  -4  -6  -3    5.56    1.50
  -4   6  -3    4.46    1.44
   4   6   3    3.70    1.21
  -4  -6  -3    5.24    1.44
   4   6   4   -0.59    0.80
   4  -6   4   -0.11    1.05
   4  -6   4   -0.28    1.16
   4  -6   4   -0.31    0.97
   4  -6   4    3.75    1.68
   4   6   4    0.78    1.30
  -4  -6  -4   -1.33    1.33
  -4  -6  -4    0.05    0.74
  -4   6  -4    0.83    1.19
  -4  -6  -4    0.09    0.89
  -4   6  -4    1.25    1.11
  -4  -6  -4    0.15    1.04
   4  -6   5   18.44    2.84
   4   6   5   16.09    2.06
   4  -6   5   12.35    2.19
   4  -6   5   15.08    2.21
   4  -6   5   15.58    2.16
   4   6   5   11.80    2.02
   4   6   5   20.65    3.00
  -4  -6  -5   15.08    2.44
  -4  -6  -5   13.56    1.89
  -4   6  -5   12.73    2.25
  -4  -6  -5   14.30    2.00
  -4   6  -5   16.90    2.31
   4  -6   6   32.59    3.11
   4  -6   6   36.09    3.39
   4   6   6   35.78    3.50
   4   6   6   38.89    3.95
  -4  -6  -6   32.54    3.46
  -4  -6  -6   37.39    3.16
   4  -6   6   32.34    3.47
  -4   6  -6   34.75    3.55
  -4   6  -6   31.71    2.95
   4  -6   6   40.18    4.14
   4  -6   7    3.67    1.94
   4   6   7    4.10    1.84
  -4  -6  -7    3.35    1.47
  -4  -7   7    7.65    2.27
  -4   7   7    9.09    2.01
  -4   7   7    5.22    1.62
  -4   7   7    8.21    1.90
  -4  -7   6   -0.29    1.46
   4   7  -6    1.96    1.56
  -4   7   6    3.43    1.93
  -4   7   6    0.85    1.45
  -4   7   6   -0.93    1.27
  -4   7   6   -1.46    1.38
  -4   7   6   -1.73    1.15
  -4  -7   5    0.88    1.50
   4  -7  -5    2.97    1.60
  -4   7   5    7.80    2.18
  -4   7   5    4.33    1.93
   4   7  -5    2.26    1.49
  -4   7   5    0.82    1.70
   4  -7  -5    0.58    1.01
  -4   7   5    2.52    1.32
  -4   7   5    3.34    1.53
  -4  -7   5    5.30    1.73
   4  -7  -5    0.22    1.21
  -4  -7   4    0.15    1.34
   4  -7  -4   -0.41    1.24
  -4   7   4    0.54    1.58
  -4   7   4   -0.47    1.27
   4   7  -4    0.29    1.36
  -4   7   4    0.57    1.61
   4  -7  -4    2.12    1.01
  -4   7   4   -0.32    0.94
   4  -7  -4    1.53    1.25
  -4   7   4   -0.02    0.96
  -4  -7   4   -1.00    1.02
  -4  -7   3    0.80    1.25
   4  -7  -3   -2.38    1.60
  -4  -7   3    0.47    0.99
   4   7  -3   -0.27    1.06
  -4   7   3   -0.40    1.62
   4  -7  -3   -0.36    0.77
  -4   7   3   -0.91    1.07
  -4  -7   3    1.34    1.49
  -4   7   3    0.89    1.24
   4  -7  -3   -1.93    1.39
  -4  -7   2    7.56    1.74
   4  -7  -2    4.71    1.42
   4  -7  -2    3.72    1.49
   4   7  -2    3.83    1.50
  -4   7   2    5.61    1.97
  -4  -7   2    6.94    1.83
  -4   7   2    6.05    1.70
  -4  -7   2    4.74    1.54
   4  -7  -1    0.45    0.80
   4  -7  -1   -0.64    1.01
   4   7  -1   -0.31    1.16
   4   7  -1   -1.43    0.84
  -4   7   1   -1.29    1.51
  -4  -7   1    1.98    1.39
  -4   7   1    0.67    0.77
  -4   7   1    0.69    1.19
  -4  -7   1   -0.02    1.08
   4  -7  -1    1.33    1.26
  -4  -7   1    0.49    1.03
   4  -7   0    0.22    1.10
   4  -7   0    1.75    1.06
   4  -7   0    2.58    1.23
   4   7   0    0.89    1.02
  -4   7   0    2.97    1.69
  -4  -7   0    2.19    1.54
  -4   7   0    1.09    1.02
  -4   7   0    1.26    1.05
  -4  -7   0    2.60    1.35
  -4  -7   0    1.43    0.99
   4  -7   1    6.62    1.53
   4  -7   1    6.35    1.65
   4   7   1    4.96    1.53
  -4  -7  -1    2.49    1.35
  -4   7  -1    6.12    1.50
   4  -7   1    3.18    1.52
  -4   7  -1    2.92    1.51
  -4  -7  -1    4.06    1.38
  -4  -7  -1    4.69    1.69
   4  -7   2   10.94    2.30
   4  -7   2   10.77    1.99
   4  -7   2   12.93    2.09
   4   7   2   12.87    2.06
  -4  -7  -2   10.18    1.97
  -4   7  -2   13.52    2.13
  -4   7  -2   13.80    2.21
  -4  -7  -2   15.93    2.21
  -4  -7  -2   12.18    2.07
   4  -7   3    0.76    1.47
   4  -7   3    2.20    1.32
   4   7   3    0.53    0.88
   4   7   3    0.44    1.42
  -4  -7  -3    0.67    1.18
   4  -7   3   -0.58    1.23
  -4   7  -3    0.61    1.10
  -4  -7  -3    1.14    1.17
  -4   7  -3    4.38    1.47
  -4  -7  -3   -1.37    1.44
   4  -7   4    5.44    1.64
   4   7   4    7.04    1.67
   4  -7   4    9.67    1.93
   4   7   4    6.45    1.91
  -4  -7  -4    6.17    1.84
  -4   7  -4    5.70    1.83
  -4  -7  -4    5.02    1.36
  -4   7  -4    9.53    1.99
  -4  -7  -4    7.97    1.87
   4  -7   4    4.03    1.87
   4   7   5   35.72    3.59
  -4   7  -5   35.25    3.37
  -4  -7  -5   33.17    3.42
  -4   7  -6   16.45    2.49
  -4  -8   5   -1.64    1.99
  -4  -8   4    0.04    1.41
  -4  -8   4    1.49    1.41
  -4  -8   3    8.42    2.01
   4  -8  -3   13.99    2.47
  -4  -8   3   10.52    2.28
  -4  -8   2    4.94    1.59
   4  -8  -2    9.69    2.33
   4   8  -2    5.81    1.57
  -4   8   2    5.82    2.02
  -4  -8   2    7.62    1.95
   4  -8  -2    7.45    1.94
  -4  -8   2    6.77    2.03
  -4  -8   1   -1.74    1.23
  -4  -8   1   -2.95    1.63
   4   8  -1    0.28    1.11
  -4   8   1    0.20    1.41
  -4  -8   1   -1.47    1.35
   4  -8  -1    0.72    1.15
   4  -8  -1   -1.08    1.55
   4  -8   0    0.77    1.50
   4  -8   0    1.51    1.06
   4  -8   0    0.17    1.18
   4   8   0   -2.33    1.41
  -4   8   0    2.25    1.77
  -4  -8   0   -1.81    1.73
  -4  -8   0    1.94    1.48
  -4  -8   0    0.02    1.18
   4  -8   1    0.84    1.18
   4  -8   1    1.25    1.16
   4   8   1    0.75    1.01
   4   8   1   -0.06    1.05
  -4  -8  -1    0.28    1.15
  -4   8  -1    0.12    0.95
  -4  -8  -1    0.10    0.96
   4  -8   1    0.68    1.48
  -4  -8  -1    2.77    1.54
   4  -8   2   -0.94    1.16
   4  -8   2   -0.73    1.15
   4   8   2    0.53    1.15
  -4   8  -2    2.73    1.34
  -4  -8  -2   -1.02    1.09
  -4  -8  -2    1.11    1.09
  -4  -8  -3    4.43    1.63
  -4   8  -3    3.01    1.54
  -4  -8  -3    2.02    1.16
   4  -8   3   -0.57    1.28
   5   0 -10   -0.64    1.33
  -5   0  10    1.40    1.48
   5   0 -10    0.13    1.12
  -5   0  10    1.80    1.53
  -5   0  10    0.53    1.29
   5   0  -9   -0.22    1.26
  -5   0   9    0.02    1.15
   5   0  -9    0.82    1.14
  -5   0   9    0.59    1.25
   5   0  -8   49.77    3.71
   5   0  -8   51.33    3.77
  -5   0   8   45.82    2.58
  -5   0   8   45.88    3.61
   5   0  -8   58.04    3.86
   5   0  -8   51.01    2.53
  -5   0   8   55.83    3.92
  -5   0   8   48.00    2.48
   5   0  -7   14.58    2.03
   5   0  -7   13.54    2.02
  -5   0   7   14.43    1.48
  -5   0   7   15.20    2.13
   5   0  -7   14.08    1.33
  -5   0   7   12.85    1.33
  -5   0   7    9.77    1.76
   5   0  -7   12.72    1.91
   5   0  -7   13.63    1.31
  -5   0   7   13.88    1.36
   5   0  -6    1.55    0.81
   5   0  -6    2.07    1.10
   5   0  -6    2.21    0.74
   5   0  -6    3.30    1.36
  -5   0   6    2.35    0.75
  -5   0   6    1.53    0.89
  -5   0   6    2.13    0.79
  -5   0   6    1.28    1.02
   5   0  -6    0.92    0.86
   5   0  -6    2.39    0.76
  -5   0   6    1.91    0.74
  -5   0   6    2.72    0.91
   5   0  -5    0.53    0.99
  -5   0   5    0.50    0.70
   5   0  -5    0.27    0.74
   5   0  -5   -0.44    0.62
   5   0  -5   -0.99    1.08
  -5   0   5    0.55    0.70
  -5   0   5    2.21    1.02
  -5   0   5    1.11    0.71
  -5   0   5    0.82    0.97
  -5   0   5   -0.86    0.77
  -5   0   5    0.25    0.86
   5   0  -5   -0.47    0.64
  -5   0   5    0.31    0.77
   5   0  -5    0.55    0.92
  -5   0   4    4.40    0.99
  -5   0   4    5.74    1.16
   5   0  -4    4.34    1.12
   5   0  -4    4.76    1.13
   5   0  -4    2.51    0.87
   5   0  -4    3.20    0.82
  -5   0   4    3.85    0.76
   5   0  -4    2.55    1.05
   5   0  -4    3.54    0.80
  -5   0   4    3.05    0.81
  -5   0   4    3.41    1.18
  -5   0   4    4.19    0.92
  -5   0   4    1.79    0.67
   5   0  -4    4.67    0.95
  -5   0   3   52.80    2.56
   5   0  -3   54.79    2.51
   5   0  -3   51.94    2.54
   5   0  -3   56.15    3.03
  -5   0   3   55.83    1.71
   5   0  -3   53.40    2.45
   5   0  -3   57.77    2.59
  -5   0   3   53.86    2.50
  -5   0   3   54.43    2.69
   5   0  -3   59.10    2.60
  -5   0   3   53.08    2.46
   5   0  -3   55.03    2.53
  -5   0   3   55.04    2.72
  -5   0   3   53.96    1.72
  -5   0   2    1.47    0.66
   5   0  -2    0.63    0.72
   5   0  -2    0.69    0.65
   5   0  -2    0.52    0.75
  -5   0   2    0.48    0.22
  -5   0   2    1.09    0.63
   5   0  -2    1.38    0.86
  -5   0   2    1.19    0.72
   5   0  -2    1.52    0.75
  -5   0   2    0.52    0.22
   5   0  -2    0.21    0.66
   5   0  -2    1.22    0.62
  -5   0   2    0.53    0.64
  -5   0   2    0.81    0.76
   5   0  -1    0.15    0.64
  -5   0   1   -0.25    0.44
   5   0  -1    1.84    0.96
  -5   0   1    0.57    0.60
  -5   0   1    0.56    0.88
   5   0  -1    0.39    0.98
  -5   0   1    0.19    0.66
   5   0  -1    0.47    0.74
   5   0  -1    0.90    0.73
   5   0  -1    0.04    0.50
   5   0   0  355.87    7.11
  -5   0   0  332.65    2.93
   5   0   0  345.46    6.64
  -5   0   0  356.53    6.78
   5   0   0  352.77    3.87
   5   0   0  348.69    6.73
  -5   0   0  347.37    6.84
  -5   0  -1  117.36    2.40
   5   0   1  117.90    4.30
   5   0   1  113.18    4.02
  -5   0  -1  116.34    3.36
   5   0   1  117.58    4.11
   5   0   1  108.95    1.63
  -5   0  -1  117.09    4.02
   5   0   2   31.98    2.56
   5   0   2   32.02    2.31
  -5   0  -2   32.51    1.83
   5   0   2   33.31    2.37
  -5   0  -2   32.58    2.24
   5   0   3   15.99    2.16
   5   0   3   19.17    1.99
   5   0   3   16.61    1.03
  -5   0  -3   19.12    1.52
   5   0   3   16.12    0.66
  -5   0  -3   21.07    1.89
   5   0   3   19.04    1.93
  -5   0  -4    1.51    0.60
   5   0   4    1.74    1.39
   5   0   4    1.12    1.03
   5   0   4    1.16    0.69
  -5   0  -4    0.71    0.70
   5   0   4    1.69    0.43
  -5   0  -4    1.89    1.42
   5   0   4    2.22    1.17
  -5   0  -4    0.82    0.90
  -5   0  -5   26.37    1.59
   5   0   5   25.59    2.71
   5   0   5   24.70    1.72
  -5   0  -5   24.71    1.87
  -5   0  -5   26.69    2.63
  -5   0  -5   25.07    1.70
   5   0   5   22.23    2.27
  -5   0  -5   25.01    1.99
  -5   0  -5   21.88    2.29
  -5   0  -6    8.69    1.71
   5   0   6    9.45    1.89
   5   0   6    9.65    1.85
   5   0   6    9.58    1.34
  -5   0  -6   10.48    1.40
  -5   0  -6    9.60    1.80
  -5   0  -6   10.37    1.17
  -5   0  -6   10.33    1.35
   5   0   7   20.80    2.78
   5   0   7   23.18    2.12
  -5   0  -7   22.15    2.06
  -5   0  -7   23.06    2.79
   5   0   7   24.06    2.62
  -5   0  -7   19.42    2.48
  -5   0  -7   22.74    1.86
  -5   0  -8    7.71    1.72
   5   0   8    7.55    1.68
   5   0   8    6.05    1.41
  -5   0  -8    5.48    1.24
  -5   0  -8    7.78    1.96
   5   0   8    8.71    2.30
   5   0   9    2.21    1.49
  -5   0  -9   -0.02    1.15
  -5  -1  11    2.39    1.48
   5   1 -10    7.60    1.96
   5  -1 -10    6.50    1.92
   5  -1 -10    8.58    2.00
  -5   1  10    7.17    2.09
  -5  -1  10    4.60    1.65
  -5   1  10    8.63    2.18
   5   1 -10    6.47    1.79
  -5   1  10    7.22    2.00
  -5  -1   9   12.82    1.59
   5   1  -9   17.32    2.50
   5  -1  -9   15.48    2.30
   5   1  -9   15.07    1.72
  -5   1   9   14.13    1.80
   5  -1  -9   17.48    2.40
  -5   1   9   20.16    2.78
  -5  -1   9   15.82    2.38
  -5   1   9   14.35    2.34
  -5  -1   9   21.17    2.84
   5   1  -9   18.27    2.49
   5   1  -8   43.54    3.44
   5  -1  -8   41.51    3.45
   5  -1  -8   44.45    3.56
   5   1  -8   43.14    3.43
  -5   1   8   41.53    2.83
   5  -1  -8   39.76    3.21
  -5   1   8   43.61    3.55
  -5  -1   8   44.08    3.39
   5   1  -8   43.24    2.66
   5   1  -8   42.11    3.40
  -5   1   8   41.60    3.43
  -5  -1   8   41.64    3.42
  -5  -1   8   39.31    2.59
   5   1  -7   31.24    2.74
   5  -1  -7   31.46    2.93
   5  -1  -7   29.22    2.75
   5   1  -7   30.77    2.83
  -5   1   7   29.33    2.32
  -5   1   7   26.37    2.74
  -5  -1   7   29.69    2.64
   5  -1  -7   32.04    2.72
   5  -1  -7   26.90    1.43
   5   1  -7   30.25    2.16
   5   1  -7   29.92    2.72
  -5  -1   7   28.29    2.19
  -5  -1   7   31.16    2.82
  -5   1   7   28.82    1.53
  -5   1   7   25.26    2.55
  -5   1   7   31.11    2.06
  -5  -1   7   31.54    2.02
  -5  -1   6   75.49    2.91
   5   1  -6   74.01    3.85
   5  -1  -6   78.63    4.08
   5  -1  -6   79.53    3.60
   5  -1  -6   80.97    4.20
   5   1  -6   80.54    4.07
  -5   1   6   76.58    3.48
   5  -1  -6   79.96    3.92
   5  -1  -6   77.29    2.46
   5   1  -6   83.16    3.44
  -5  -1   6   76.63    3.40
  -5   1   6   76.41    2.52
  -5   1   6   77.20    4.05
  -5  -1   6   78.83    3.98
   5   1  -6   81.11    4.03
  -5   1   6   74.22    2.49
  -5   1   6   76.19    2.52
   5   1  -6   75.78    3.09
  -5   1   6   75.90    3.18
  -5  -1   6   77.60    3.15
  -5  -1   5    7.71    1.23
   5  -1  -5    8.70    0.94
   5   1  -5    8.46    1.49
   5  -1  -5    8.58    1.67
   5  -1  -5    7.87    1.33
   5   1  -5    7.46    1.02
  -5   1   5    9.50    1.02
   5  -1  -5    7.80    1.56
   5   1  -5    6.92    1.53
   5   1  -5    7.45    1.20
  -5   1   5    6.92    1.32
   5   1  -5    7.60    1.51
  -5   1   5    8.23    0.97
   5  -1  -5    6.90    1.41
  -5   1   5    9.07    1.72
  -5  -1   5    7.15    1.54
  -5   1   5    8.58    1.00
  -5  -1   5    7.77    1.31
  -5   1   5    8.83    1.30
  -5   1   5    8.80    1.28
   5   1  -4  104.65    3.83
   5  -1  -4  112.39    4.26
   5   1  -4  107.52    3.11
   5  -1  -4  104.41    3.87
   5   1  -4  106.87    4.25
  -5   1   4  106.75    3.23
  -5   1   4  103.19    3.21
   5  -1  -4  108.07    4.35
   5   1  -4  108.04    2.98
  -5   1   4  108.43    3.95
   5  -1  -4  112.92    3.90
   5  -1  -4  109.60    3.07
   5   1  -4  109.80    3.80
  -5  -1   4  101.97    3.75
  -5   1   4  104.64    3.11
  -5   1   4  104.56    4.16
  -5  -1   4  106.51    3.93
  -5   1   4  103.10    3.05
   5   1  -4  107.45    3.95
  -5   1   4  108.25    3.86
   5  -1  -4  105.71    3.08
  -5  -1   4  106.37    3.82
  -5  -1   3   44.28    2.30
   5   1  -3   37.97    1.93
   5   1  -3   37.17    2.12
   5  -1  -3   42.26    2.49
   5  -1  -3   40.96    2.50
   5   1  -3   41.85    2.65
   5  -1  -3   44.28    2.75
  -5   1   3   44.49    1.87
  -5  -1   3   42.51    1.46
   5  -1  -3   40.93    2.39
   5   1  -3   41.68    1.99
  -5   1   3   44.11    2.58
   5  -1  -3   40.89    1.98
   5  -1  -3   39.65    2.14
   5   1  -3   43.01    2.45
  -5   1   3   41.71    2.06
  -5  -1   3   40.79    2.40
  -5   1   3   44.21    2.55
  -5  -1   3   44.17    2.36
  -5   1   3   42.68    2.43
  -5   1   3   42.52    2.06
  -5  -1   3   41.49    2.38
   5  -1  -3   44.67    2.11
  -5   1   3   41.54    2.46
   5   1  -3   38.00    2.33
   5   1  -3   41.57    2.36
  -5  -1   3   41.64    2.44
  -5   1   3   42.27    2.21
  -5   1   3   42.36    1.87
   5  -1  -2    0.19    0.57
  -5   1   2    1.24    0.56
  -5  -1   2    1.63    0.65
   5   1  -2    1.61    0.60
   5   1  -2    1.40    0.76
   5  -1  -2    2.00    0.94
   5   1  -2    0.93    0.73
  -5   1   2    1.82    0.69
   5   1  -2    1.65    0.85
   5  -1  -2    0.80    1.06
   5   1  -2    0.93    0.90
  -5   1   2    1.29    0.66
   5  -1  -2    1.45    0.47
   5  -1  -2    1.61    0.69
  -5   1   2    1.61    0.56
   5   1  -2    0.95    0.88
  -5  -1   2    1.52    0.73
   5  -1  -2    3.15    0.99
   5   1  -2    1.68    0.72
   5  -1  -2    0.42    0.50
  -5  -1   2    1.62    0.80
  -5   1   2    1.22    0.65
  -5   1   2    2.45    0.74
  -5   1   2    0.65    0.81
  -5  -1   2    0.03    0.75
  -5  -1   1    1.33    0.43
  -5  -1   1    1.64    0.97
  -5   1   1    1.15    0.59
   5  -1  -1    0.76    0.84
   5   1  -1    1.72    0.54
   5   1  -1    2.58    0.96
  -5   1   1    1.31    0.62
  -5   1   1    1.86    0.75
  -5  -1   1    1.15    0.83
   5  -1  -1    1.26    0.98
   5   1  -1    1.66    0.99
   5  -1  -1    1.16    0.69
  -5   1   1    0.80    0.26
   5   1  -1    1.40    0.83
   5  -1  -1    1.22    0.45
  -5  -1   1    1.94    0.65
  -5   1   1    1.77    0.98
   5  -1  -1    1.81    0.74
   5  -1  -1    1.41    0.42
   5  -1   0   49.37    2.83
  -5   1   0   48.76    2.16
   5  -1   0   48.67    2.79
   5   1   0   49.88    2.76
   5  -1   0   48.13    1.58
   5  -1   0   48.49    2.53
   5   1   0   47.72    2.63
  -5   1   0   50.84    2.60
  -5  -1   0   50.62    1.70
  -5   1   0   47.43    2.50
   5  -1   0   48.85    2.55
   5   1   0   47.00    2.67
  -5   1   0   51.76    2.77
  -5  -1   0   47.67    2.70
   5  -1   0   49.45    1.63
   5  -1   1  229.52    6.01
   5   1   1  226.82    5.81
   5   1   1  227.37    2.84
  -5  -1  -1  214.92    3.62
   5  -1   1  232.24    5.69
  -5   1  -1  226.10    3.91
  -5  -1  -1  224.88    5.26
   5   1   1  230.83    5.80
  -5  -1  -1  231.83    3.00
   5   1   1  217.35    2.86
   5  -1   1  234.23    5.74
   5   1   1  231.72    5.83
  -5   1  -1  227.14    5.68
  -5  -1  -1  227.87    5.69
   5   1   2    8.24    1.38
   5  -1   2   12.25    1.95
   5   1   2   12.61    1.83
   5  -1   2   10.44    1.50
   5   1   2   13.29    1.64
  -5   1  -2   12.57    1.01
  -5  -1  -2   11.85    1.44
   5  -1   2   10.65    1.60
  -5   1  -2   11.17    1.53
   5   1   2   11.17    0.99
  -5  -1  -2   12.32    1.54
   5   1   3    5.41    1.20
   5   1   3    4.65    1.53
   5  -1   3    5.83    1.63
   5  -1   3    7.44    1.42
  -5   1  -3    6.31    1.42
   5   1   3    5.73    1.23
   5   1   3    6.63    0.78
   5   1   3    7.47    1.12
  -5  -1  -3    6.02    1.27
  -5   1  -3    6.32    0.82
  -5  -1  -3    8.76    1.37
  -5  -1  -3    5.60    0.51
  -5   1  -3    8.36    1.35
   5  -1   3    6.49    0.56
   5   1   3    7.49    1.04
   5   1   4   38.97    3.04
   5  -1   4   36.57    3.04
   5   1   4   35.51    2.02
   5   1   4   38.79    2.32
   5  -1   4   40.11    1.67
  -5   1  -4   38.66    1.81
  -5  -1  -4   41.48    2.56
   5   1   4   41.18    2.87
   5   1   4   36.65    1.78
  -5  -1  -4   40.80    3.05
  -5  -1  -4   39.54    1.42
   5  -1   4   39.59    2.91
   5   1   4   43.75    2.99
  -5   1  -4   38.46    2.48
  -5  -1  -4   36.73    2.41
  -5   1  -4   35.43    2.79
  -5  -1  -5   31.15    1.37
   5   1   5   31.66    2.93
   5  -1   5   30.47    2.84
   5  -1   5   30.77    1.77
   5   1   5   32.12    2.18
  -5   1  -5   33.77    1.89
  -5  -1  -5   31.35    2.37
   5   1   5   26.39    2.40
  -5  -1  -5   31.38    2.72
  -5   1  -5   33.37    2.91
   5   1   5   29.69    1.77
   5  -1   5   33.31    2.81
   5   1   5   30.86    2.64
  -5   1  -5   33.45    2.34
  -5   1  -5   32.61    2.82
  -5  -1  -5   30.64    2.26
  -5   1  -6   17.89    1.74
  -5   1  -6   18.48    2.29
  -5  -1  -6   14.84    1.62
   5   1   6   15.91    2.39
   5  -1   6   16.61    2.42
   5  -1   6   13.19    2.00
   5   1   6   16.51    2.09
  -5  -1  -6   14.45    1.94
   5  -1   6   15.47    1.52
   5   1   6   17.41    1.81
  -5   1  -6   15.66    1.48
  -5  -1  -6   14.29    1.78
  -5  -1  -6   14.48    2.13
  -5   1  -6   16.33    2.32
  -5   1  -6   13.35    1.58
  -5   1  -7   27.12    2.19
   5   1   7   21.86    2.81
   5  -1   7   25.16    3.04
   5  -1   7   21.26    1.95
   5   1   7   24.68    2.30
  -5  -1  -7   26.80    2.45
  -5  -1  -7   23.05    2.70
  -5   1  -7   21.98    2.62
   5  -1   7   25.09    2.76
   5   1   7   25.53    2.66
  -5   1  -7   26.22    2.79
  -5   1  -7   25.51    2.01
  -5  -1  -7   24.34    2.52
  -5  -1  -8    3.61    1.39
   5   1   8    7.53    2.11
   5  -1   8    6.11    2.04
   5  -1   8    7.45    1.78
   5   1   8    7.70    1.77
   5   1   8    6.58    1.45
  -5  -1  -8    7.45    1.54
  -5  -1  -8    8.30    2.08
  -5   1  -8    3.13    1.26
  -5   1  -8    6.53    1.69
  -5  -1  -9   13.40    2.15
   5   1   9   15.56    2.76
   5  -1   9   17.74    2.62
   5   1   9   17.58    2.45
  -5  -1  -9   16.02    2.13
  -5   1  -9   13.12    2.22
  -5  -2  11    6.96    1.81
  -5  -2  11    5.12    1.88
   5   2 -10    1.96    1.45
   5  -2 -10    6.07    1.85
   5  -2 -10    5.96    1.93
  -5   2  10    3.80    1.41
  -5   2  10    2.33    1.57
  -5  -2  10    5.11    1.66
  -5   2  10    3.18    1.65
  -5   2  10    3.57    1.57
   5   2 -10    3.92    1.62
  -5  -2   9    8.13    1.57
   5   2  -9    7.36    1.90
   5   2  -9   13.04    2.24
   5  -2  -9    9.57    2.19
   5  -2  -9    8.22    1.81
   5   2  -9   11.17    1.66
  -5   2   9   12.12    1.93
  -5   2   9    9.76    2.14
  -5  -2   9    9.51    1.90
  -5   2   9    9.65    2.00
  -5   2   9   12.66    2.28
   5   2  -8    9.44    1.86
   5  -2  -8    7.71    1.90
   5  -2  -8    7.46    1.58
   5  -2  -8   10.99    1.95
   5   2  -8    9.00    1.86
   5   2  -8    7.19    1.41
  -5   2   8    7.26    1.53
  -5   2   8    9.98    2.01
  -5  -2   8    6.07    1.43
  -5   2   8    8.96    1.89
  -5  -2   8    8.97    1.49
   5   2  -7    0.15    0.94
   5  -2  -7    0.59    1.12
   5  -2  -7   -1.89    1.04
  -5   2   7   -1.12    1.10
   5  -2  -7    0.40    1.08
   5  -2  -7   -0.75    1.22
   5   2  -7    1.63    1.17
   5   2  -7    0.00    0.87
  -5   2   7   -0.51    0.92
  -5   2   7   -0.21    0.99
  -5  -2   7   -0.66    1.09
   5   2  -7    0.28    0.96
  -5   2   7    2.00    1.20
  -5  -2   7    0.90    0.90
  -5   2   7    0.35    0.65
   5   2  -6   18.56    2.12
   5  -2  -6   17.13    1.93
   5  -2  -6   14.85    2.04
   5  -2  -6   20.12    2.26
   5   2  -6   17.26    2.09
  -5   2   6   18.07    1.90
   5  -2  -6   14.96    0.73
  -5   2   6   16.86    1.97
   5   2  -6   18.46    1.93
  -5   2   6   13.68    0.73
  -5  -2   6   21.70    2.42
  -5   2   6   19.34    2.25
   5   2  -6   17.16    2.10
  -5   2   6   16.98    1.70
   5  -2  -6   15.18    1.89
  -5  -2   6   15.51    1.88
  -5  -2   5    1.80    0.88
   5   2  -5    3.26    1.27
   5  -2  -5    3.14    1.35
  -5   2   5    2.20    0.50
   5  -2  -5    3.08    1.14
   5  -2  -5    3.20    1.29
   5  -2  -5    2.19    1.00
   5   2  -5    2.49    1.11
  -5   2   5    2.74    1.05
   5   2  -5    3.12    1.05
   5   2  -5    3.03    1.28
  -5   2   5    1.61    1.09
  -5   2   5    2.35    0.52
  -5   2   5    0.44    0.97
  -5  -2   5    2.61    1.12
  -5   2   5    1.91    0.50
  -5  -2   5    2.04    1.05
   5  -2  -5    2.19    0.45
  -5   2   5    2.71    1.06
  -5  -2   4    4.47    1.17
   5   2  -4    3.59    1.21
   5   2  -4    6.11    1.20
  -5   2   4    4.91    0.72
   5  -2  -4    2.78    1.18
   5   2  -4    4.84    0.68
   5  -2  -4    4.32    1.05
   5  -2  -4    3.95    1.19
   5   2  -4    5.35    1.26
  -5   2   4    3.39    0.96
   5   2  -4    6.27    1.35
   5  -2  -4    4.29    0.72
  -5   2   4    3.59    0.64
   5   2  -4    5.07    0.65
  -5   2   4    4.91    1.31
   5  -2  -4    4.77    1.07
  -5   2   4    3.89    1.19
  -5  -2   4    6.75    1.44
  -5  -2   4    4.04    1.20
   5  -2  -4    4.23    0.69
  -5   2   4    3.48    1.10
  -5   2   4    5.41    1.13
   5   2  -3   88.03    3.61
   5   2  -3   90.64    2.48
   5   2  -3   88.64    3.22
   5  -2  -3   86.53    3.80
   5   2  -3   87.25    3.63
   5  -2  -3   87.31    3.00
  -5   2   3   83.49    2.98
  -5   2   3   89.60    3.00
   5  -2  -3   87.47    3.22
  -5   2   3   86.38    3.29
   5   2  -3   86.49    2.54
  -5   2   3   93.21    3.95
   5  -2  -3   89.12    2.75
  -5   2   3   84.34    2.74
   5   2  -3   87.98    3.69
  -5  -2   3   83.47    3.65
   5   2  -3   85.93    3.21
  -5  -2   3   85.06    3.25
  -5   2   3   85.24    2.69
  -5   2   3   87.46    3.23
   5  -2  -3   84.11    2.72
  -5   2   3   90.77    3.76
  -5  -2   3   84.79    3.56
  -5   2   3   82.75    3.05
   5  -2  -3   87.24    3.80
   5   2  -2   45.71    2.05
   5   2  -2   44.25    2.04
   5  -2  -2   52.20    2.99
   5  -2  -2   43.39    2.73
  -5  -2   2   44.60    1.42
  -5   2   2   45.85    2.15
  -5   2   2   48.19    1.90
   5   2  -2   47.43    2.68
  -5   2   2   44.84    2.14
  -5   2   2   49.48    2.97
   5  -2  -2   47.33    2.20
  -5   2   2   46.18    2.19
   5   2  -2   50.40    2.82
  -5  -2   2   47.77    2.17
  -5   2   2   48.97    2.24
  -5   2   2   47.69    2.12
   5  -2  -2   44.59    2.16
  -5   2   2   50.25    2.87
   5   2  -2   43.39    2.67
  -5  -2   2   49.76    2.85
  -5   2   2   44.30    2.19
   5  -2  -2   48.93    2.15
  -5  -2   2   45.89    1.45
   5  -2  -1   80.44    3.61
   5   2  -1   81.20    2.22
  -5   2   1   80.06    3.28
  -5  -2   1   85.09    3.44
   5  -2  -1   85.64    3.65
   5   2  -1   82.44    3.38
   5  -2  -1   83.21    2.63
   5  -2  -1   82.42    2.68
  -5   2   1   81.39    1.91
  -5   2   1   81.76    2.51
  -5  -2   1   79.24    1.56
   5  -2  -1   87.05    3.15
  -5   2   1   85.26    3.14
   5   2  -1   82.59    3.58
  -5  -2   1   83.37    2.40
  -5   2   1   78.54    3.01
  -5   2   1   82.00    2.32
   5  -2  -1   84.64    3.13
  -5   2   1   84.90    3.67
   5   2  -1   82.10    3.63
  -5  -2   1   87.59    3.71
   5  -2   0   21.19    2.15
  -5  -2   0   21.12    1.85
   5  -2   0   23.91    2.09
   5   2   0   22.30    1.95
   5  -2   0   19.46    1.42
  -5  -2   0   19.25    1.55
   5   2   0   22.63    2.04
   5  -2   0   22.12    1.84
   5   2   0   19.94    1.99
  -5   2   0   20.65    1.93
  -5   2   0   20.31    0.90
  -5  -2   0   20.68    1.93
  -5   2   0   19.41    1.72
   5  -2   0   18.06    1.40
  -5  -2  -1    2.32    1.14
   5  -2   1    2.91    1.01
   5  -2   1    3.35    1.52
   5   2   1    1.96    1.01
  -5  -2  -1    1.80    0.79
   5  -2   1    2.03    1.00
   5  -2   1    1.84    1.18
   5   2   1    1.40    0.98
  -5   2  -1    2.12    0.85
   5   2   1    1.02    0.50
  -5   2  -1    2.44    1.11
   5   2   1    1.17    0.51
   5   2   1    2.61    1.26
   5  -2   1    2.10    0.80
  -5   2  -1    1.76    0.36
  -5  -2  -1    3.38    1.37
   5   2   2   19.00    1.94
   5   2   2   15.69    1.86
   5  -2   2   16.48    1.82
   5  -2   2   18.55    2.13
   5   2   2   18.03    1.31
  -5  -2  -2   15.96    1.43
  -5  -2  -2   16.53    1.84
  -5   2  -2   18.18    1.81
  -5  -2  -2   15.22    1.83
   5   2   2   17.62    1.92
   5   2   2   18.21    1.33
  -5   2  -2   17.46    1.91
  -5  -2  -3   10.81    1.51
   5   2   3    7.80    1.53
  -5   2  -3    8.97    1.64
   5  -2   3   10.17    1.62
   5   2   3    9.42    1.82
   5  -2   3    9.74    2.01
  -5   2  -3    9.25    1.43
   5   2   3    9.18    1.16
   5   2   3    7.27    1.48
   5   2   3    9.82    1.49
  -5  -2  -3    8.87    1.54
  -5  -2  -3   11.40    1.72
  -5   2  -3    8.88    1.34
   5   2   3    8.76    1.16
   5   2   4   26.53    2.60
   5  -2   4   22.15    2.50
   5   2   4   24.35    2.02
   5   2   4   20.39    1.62
  -5  -2  -4   20.99    2.05
   5   2   4   22.27    2.15
  -5  -2  -4   23.97    2.38
   5  -2   4   22.74    2.29
   5   2   4   22.44    2.24
  -5   2  -4   22.84    2.25
  -5   2  -4   24.06    2.11
  -5  -2  -4   22.51    2.08
   5   2   5   43.29    3.30
   5  -2   5   45.43    3.51
   5   2   5   41.57    2.67
  -5  -2  -5   40.96    2.92
   5   2   5   40.84    2.96
  -5  -2  -5   42.54    3.19
  -5   2  -5   41.17    3.18
   5  -2   5   48.14    3.39
   5   2   5   43.36    3.11
  -5   2  -5   38.16    3.04
  -5   2  -5   45.85    2.82
   5  -2   6    8.01    1.84
   5   2   6    8.76    1.83
   5  -2   6   10.31    2.11
  -5   2  -6    9.55    1.84
   5   2   6    9.23    1.49
   5   2   6    9.02    1.65
  -5  -2  -6    9.57    1.67
  -5  -2  -6    8.69    1.72
  -5   2  -6    8.37    1.75
   5   2   6    9.24    1.64
  -5   2  -6    9.98    1.46
  -5   2  -7   13.56    1.57
  -5   2  -7   15.43    1.97
   5  -2   7   12.49    2.04
   5   2   7   16.82    2.62
   5  -2   7   13.66    2.44
  -5  -2  -7   15.36    2.10
   5   2   7   15.21    2.13
   5   2   7   14.18    2.12
  -5  -2  -7   10.51    1.83
  -5  -2  -7   14.96    2.33
  -5   2  -7   16.59    2.37
  -5   2  -7   16.65    2.29
  -5   2  -8   -0.03    1.08
  -5  -2  -8    1.38    1.16
  -5   2  -8    3.00    1.32
   5  -2   8    3.72    1.65
   5   2   8    1.46    1.43
   5  -2   8    2.45    1.74
   5   2   8    2.57    1.32
   5   2   8    2.95    1.35
  -5  -2  -8    0.51    1.02
  -5  -2  -8    4.93    1.91
  -5   2  -8   -1.22    1.44
  -5  -2  -9    2.55    1.27
   5   2   9    4.05    2.01
   5   2   9    1.56    1.34
   5  -2   9    2.20    1.35
   5   2   9    1.39    1.33
  -5  -2  -9    2.53    1.40
  -5  -3  11    1.72    1.37
  -5  -3  10    2.41    1.21
  -5   3  10    2.09    1.37
  -5   3  10    0.12    1.52
   5   3 -10    2.07    1.08
  -5   3  10    4.10    1.62
  -5  -3  10    4.88    1.70
   5   3  -9    6.22    1.92
   5  -3  -9    6.88    2.00
  -5   3   9    3.24    1.46
  -5   3   9    7.48    1.72
   5   3  -9    5.20    1.59
   5   3  -9    6.72    1.57
  -5   3   9    6.34    1.69
  -5   3   9    7.86    1.97
  -5  -3   9    7.89    1.65
  -5   3   9    4.43    1.64
  -5   3   9    4.03    1.50
  -5  -3   9    3.67    1.27
   5   3  -8    9.17    1.97
   5  -3  -8   12.59    2.28
  -5   3   8    6.24    1.54
   5  -3  -8    9.77    1.89
  -5   3   8    7.23    1.60
   5   3  -8    7.76    1.63
  -5   3   8    7.94    1.70
  -5   3   8    7.28    1.89
  -5  -3   8    7.48    1.49
   5   3  -8    7.90    1.74
  -5   3   8    8.53    1.87
  -5   3   8    8.79    1.92
  -5  -3   8    7.67    1.61
   5   3  -7   -0.48    1.35
   5   3  -7    1.87    1.30
   5  -3  -7    0.90    1.25
   5  -3  -7    0.36    1.08
   5  -3  -7    0.97    1.06
   5   3  -7    1.78    1.28
  -5   3   7    1.82    1.21
  -5   3   7   -0.84    1.30
   5   3  -7    1.59    1.11
  -5   3   7    1.55    1.22
  -5   3   7    0.32    1.36
  -5  -3   7    0.33    0.84
  -5   3   7    0.72    1.47
  -5   3   7    2.47    1.02
  -5  -3   7    1.31    1.07
   5  -3  -6    7.61    1.69
   5   3  -6    4.30    1.27
   5  -3  -6    4.39    1.43
   5   3  -6    4.52    1.30
  -5   3   6    5.46    1.36
  -5   3   6    4.99    1.39
   5   3  -6    3.31    1.13
  -5   3   6    2.89    1.19
  -5  -3   6    4.18    1.14
   5   3  -6    3.57    1.29
  -5   3   6    5.78    1.61
  -5   3   6    4.12    1.06
  -5  -3   6    3.57    1.26
   5   3  -5   64.41    3.45
   5  -3  -5   64.26    3.67
   5   3  -5   67.66    3.49
  -5   3   5   62.08    3.37
  -5   3   5   63.48    3.36
  -5   3   5   63.19    3.71
   5  -3  -5   63.35    3.58
   5   3  -5   65.39    3.63
  -5  -3   5   60.16    3.54
  -5   3   5   61.48    3.70
  -5   3   5   61.47    3.32
   5  -3  -5   61.56    3.28
   5   3  -5   69.55    3.84
  -5   3   4    0.77    0.41
  -5   3   4    1.00    0.46
   5   3  -4   -0.49    1.03
   5  -3  -4    1.95    1.20
   5  -3  -4    0.38    0.94
   5  -3  -4    1.74    1.08
   5   3  -4    0.88    0.94
  -5   3   4    0.17    1.01
  -5   3   4    0.46    0.37
  -5   3   4    0.95    0.87
   5  -3  -4    0.50    0.38
   5   3  -4    2.18    1.02
   5   3  -4    0.53    0.23
  -5   3   4   -0.44    1.17
  -5  -3   4    1.93    0.82
   5   3  -4    2.74    1.20
  -5  -3   4   -0.22    1.03
  -5   3   4    1.40    0.96
  -5  -3   3   13.73    1.39
   5   3  -3   14.55    0.85
   5   3  -3   13.15    1.45
   5  -3  -3   14.65    1.93
   5  -3  -3   14.86    1.86
   5   3  -3   13.00    1.56
  -5  -3   3   13.86    1.37
   5   3  -3   12.82    1.77
  -5   3   3   13.90    1.56
  -5   3   3   11.45    1.52
   5   3  -3   16.24    1.14
  -5   3   3   13.17    1.90
  -5   3   3   13.51    1.42
  -5   3   3   13.54    1.18
  -5  -3   3   13.39    1.44
   5   3  -3   14.18    1.45
  -5   3   3   13.30    1.10
   5  -3  -3   13.74    1.16
  -5   3   3   14.55    1.19
  -5  -3   3   11.25    1.71
  -5   3   3   13.14    1.69
   5  -3  -3   14.83    1.62
   5   3  -2   52.78    2.34
   5  -3  -2   56.30    3.33
  -5  -3   2   61.06    2.98
   5  -3  -2   52.86    3.03
   5   3  -2   56.12    2.83
   5  -3  -2   55.68    2.68
  -5  -3   2   52.60    2.10
  -5   3   2   53.94    2.80
  -5   3   2   54.37    2.31
  -5   3   2   56.53    3.39
  -5   3   2   52.27    2.31
  -5   3   2   52.12    2.37
   5   3  -2   51.96    3.11
  -5   3   2   54.17    2.48
  -5  -3   2   52.03    3.18
   5   3  -2   51.31    2.29
  -5   3   2   54.81    2.89
  -5   3   2   55.37    2.39
   5  -3  -2   55.30    2.41
  -5   3   2   56.94    3.19
  -5   3   2   53.94    2.39
   5  -3  -2   56.55    2.76
  -5  -3   2   57.24    2.22
   5   3  -1   21.07    1.30
  -5  -3   1   18.05    1.69
   5  -3  -1   20.09    2.17
  -5  -3   1   17.52    1.17
   5  -3  -1   17.99    1.58
   5  -3  -1   15.20    1.84
   5   3  -1   16.18    1.90
   5   3  -1   17.03    1.60
   5  -3  -1   18.43    1.65
  -5   3   1   21.62    1.45
  -5   3   1   20.15    2.34
   5   3  -1   18.50    2.00
  -5   3   1   18.86    1.21
  -5   3   1   17.96    1.58
  -5   3   1   18.81    1.36
   5   3  -1   17.27    1.15
  -5   3   1   17.95    1.56
   5  -3  -1   20.68    1.70
  -5  -3   1   17.35    1.19
  -5   3   1   19.18    1.69
  -5   3   1   19.50    2.02
   5   3   0   10.87    0.75
  -5   3   0    8.35    1.26
   5  -3   0   10.47    1.79
   5  -3   0   11.54    1.43
  -5  -3   0   10.23    1.42
   5   3   0   12.07    1.69
   5  -3   0    8.88    1.58
   5   3   0    9.39    1.32
   5  -3   0   11.15    1.38
   5   3   0    8.73    1.60
  -5   3   0    8.07    0.59
  -5   3   0   10.33    0.88
   5  -3   0   10.60    1.43
  -5   3   0    7.33    1.37
  -5  -3   0    9.78    0.99
   5  -3   1   89.67    4.23
   5  -3   1   91.49    4.04
   5   3   1   90.97    3.59
   5  -3   1   90.96    3.56
   5   3   1   94.87    2.94
  -5  -3  -1   93.52    4.24
  -5   3  -1   92.27    1.98
   5   3   1   93.99    4.12
   5  -3   1   89.31    3.78
  -5   3  -1   91.30    4.04
   5   3   1   90.02    4.08
  -5   3  -1   92.88    3.87
  -5  -3  -1   94.55    2.90
   5  -3   1   99.54    3.81
   5   3   1   91.07    2.95
  -5   3  -2   15.12    1.86
   5   3   2   17.77    2.01
   5  -3   2   20.76    2.42
   5  -3   2   18.90    2.06
   5  -3   2   18.20    2.13
   5   3   2   19.46    1.97
   5   3   2   20.33    1.63
   5  -3   2   17.61    0.93
  -5  -3  -2   19.16    1.95
  -5  -3  -2   18.15    2.14
   5   3   2   19.03    2.06
  -5   3  -2   16.00    0.62
  -5   3  -2   17.61    1.92
   5   3   2   17.85    1.54
   5  -3   2   19.57    2.08
   5  -3   3   32.33    2.77
   5   3   3   30.50    2.05
   5  -3   3   32.50    1.44
   5   3   3   33.92    2.58
  -5  -3  -3   29.79    2.59
   5   3   3   32.22    2.59
  -5  -3  -3   30.99    2.42
   5  -3   3   33.17    2.66
  -5   3  -3   32.10    1.96
   5   3   3   30.49    2.54
  -5   3  -3   33.16    2.70
  -5   3  -3   29.10    2.39
   5   3   3   33.51    2.57
   5   3   3   30.05    2.09
  -5   3  -4   -0.03    0.83
   5   3   4    0.03    0.81
   5  -3   4    0.03    1.04
   5   3   4    0.98    1.15
   5  -3   4   -0.52    1.29
   5   3   4    0.05    0.76
   5   3   4    0.38    0.91
  -5   3  -4    0.36    0.15
   5   3   4    0.36    0.98
  -5  -3  -4    1.44    1.12
  -5  -3  -4    0.93    0.90
  -5   3  -4   -0.79    0.70
  -5   3  -4   -0.36    0.90
   5  -3   5    0.39    0.97
   5   3   5    0.55    1.19
   5  -3   5    0.27    1.43
   5   3   5    0.39    0.87
   5   3   5    0.38    0.99
   5   3   5    0.63    1.22
  -5  -3  -5   -0.77    1.07
  -5  -3  -5    0.23    0.98
  -5   3  -5    3.53    1.47
  -5   3  -5   -0.42    0.85
   5   3   5   -0.43    0.86
  -5   3  -5    1.13    1.23
   5   3   6   50.94    3.72
   5  -3   6   56.86    4.14
   5   3   6   50.79    3.42
   5   3   6   54.17    3.60
  -5  -3  -6   51.89    3.66
   5   3   6   52.98    3.53
  -5  -3  -6   49.86    3.67
  -5   3  -6   49.24    3.63
   5  -3   6   54.83    3.95
  -5   3  -6   55.92    3.96
   5   3   6   48.02    3.41
  -5   3  -6   55.71    3.23
   5  -3   7    1.15    1.35
   5   3   7    2.98    1.68
   5  -3   7   -1.21    1.55
   5   3   7    0.61    1.02
   5   3   7   -0.51    1.14
  -5  -3  -7    1.20    1.14
  -5  -3  -7   -0.84    1.17
  -5   3  -7    1.32    1.28
  -5   3  -7   -0.05    1.11
  -5   3  -7    0.19    0.67
   5  -3   8    0.10    1.14
   5   3   8   -0.76    1.55
   5  -3   8    2.16    1.94
  -5  -3  -8    3.05    1.28
   5   3   8   -1.05    0.98
   5   3   8   -0.99    1.64
  -5   3  -8    0.67    1.19
  -5  -3  -8    0.90    1.20
  -5  -3  -8    1.80    1.66
  -5   3  -8    0.13    1.21
  -5   3  -8   -0.22    1.11
   5   3   9   23.36    3.01
  -5  -3  -9   22.36    2.89
  -5   4  10    4.60    1.72
   5   4 -10    3.41    1.53
  -5  -4  10    3.79    1.46
   5   4  -9    2.89    1.54
  -5   4   9    5.86    1.91
  -5   4   9    3.24    1.62
  -5   4   9    1.02    1.11
   5   4  -9    2.65    1.24
  -5   4   9    3.25    1.52
   5   4  -9    1.43    1.28
  -5   4   9    1.84    1.41
  -5   4   9    2.81    1.26
  -5  -4   9    3.97    1.41
   5   4  -8    3.51    1.40
   5  -4  -8    4.33    1.53
  -5   4   8    5.90    1.80
  -5   4   8    2.04    1.21
  -5   4   8    3.33    1.53
   5   4  -8    3.14    1.48
  -5   4   8    4.23    1.61
  -5  -4   8    4.21    1.23
  -5   4   8    4.27    1.56
  -5   4   8    2.45    1.34
   5   4  -8    0.68    1.17
  -5  -4   8    3.84    1.32
   5   4  -7   -0.50    1.20
   5  -4  -7   -0.93    1.25
   5  -4  -7   -0.71    1.13
  -5   4   7    1.19    1.15
  -5   4   7    0.74    1.17
   5   4  -7    0.21    1.12
  -5   4   7   -0.25    1.08
  -5   4   7   -1.63    1.27
  -5  -4   7    0.31    0.69
   5   4  -7    0.06    1.13
  -5   4   7   -1.55    1.13
  -5   4   7   -1.75    1.34
  -5   4   7    0.17    0.82
  -5  -4   7    1.33    1.14
   5  -4  -6   13.67    2.13
   5  -4  -6   12.90    1.89
   5   4  -6   12.83    1.79
  -5   4   6   15.47    2.20
   5   4  -6   15.45    2.24
  -5   4   6   14.79    2.04
   5   4  -6   13.19    2.02
   5   4  -6    9.65    1.68
  -5   4   6   10.67    1.85
  -5  -4   6   13.91    1.56
  -5   4   6   11.71    2.00
  -5   4   6   11.66    1.85
  -5   4   6   14.87    1.94
  -5  -4   6   12.06    1.90
   5  -4  -6   14.05    2.06
   5   4  -5   -1.04    1.07
   5  -4  -5   -0.07    1.11
   5  -4  -5   -0.21    0.97
   5   4  -5    0.19    0.78
  -5   4   5   -1.97    1.32
  -5   4   5    0.45    0.98
   5   4  -5   -0.31    0.99
  -5   4   5   -1.60    1.47
  -5  -4   5   -0.45    0.66
   5  -4  -5    0.92    1.10
   5   4  -5    3.54    1.42
  -5   4   5    0.57    0.83
  -5  -4   5   -0.48    1.22
  -5  -4   4    4.21    1.25
   5   4  -4    1.87    0.93
   5  -4  -4    4.07    1.46
   5  -4  -4    2.07    0.93
   5   4  -4    5.17    1.11
   5  -4  -4    2.70    0.46
  -5   4   4    3.42    1.20
  -5   4   4    4.33    1.28
   5   4  -4    2.52    1.04
  -5   4   4    1.48    1.24
  -5  -4   4    4.06    0.91
  -5   4   4    3.56    0.51
  -5  -4   4    3.67    1.38
  -5   4   4    2.87    0.97
   5  -4  -4    2.63    1.07
   5   4  -3   30.78    2.21
   5  -4  -3   27.13    2.55
   5   4  -3   26.20    2.00
  -5  -4   3   25.03    1.91
  -5   4   3   28.33    2.44
   5  -4  -3   27.50    2.26
  -5   4   3   26.10    2.00
   5  -4  -3   23.23    2.15
  -5   4   3   26.14    2.55
  -5   4   3   26.96    1.61
  -5  -4   3   27.24    1.69
   5   4  -3   29.05    2.56
  -5  -4   3   25.92    2.60
  -5   4   3   26.28    1.58
  -5   4   3   26.66    1.57
   5  -4  -3   27.30    1.60
  -5   4   3   28.40    2.53
  -5  -4   3   29.02    2.09
   5   4  -2   39.49    2.26
   5  -4  -2   39.01    2.99
  -5  -4   2   36.47    2.28
   5   4  -2   36.89    2.19
  -5  -4   2   37.72    2.15
  -5   4   2   40.98    2.85
  -5   4   2   39.49    2.37
  -5   4   2   42.20    3.29
  -5   4   2   37.10    2.02
   5  -4  -2   39.16    2.64
  -5   4   2   34.24    2.04
   5   4  -2   38.42    2.88
  -5  -4   2   39.75    2.98
   5   4  -2   36.96    2.07
  -5   4   2   38.07    2.12
   5  -4  -2   39.99    2.17
  -5   4   2   39.08    2.14
  -5   4   2   39.03    2.93
   5  -4  -2   39.04    2.67
  -5  -4   2   36.68    2.20
   5   4  -1   49.15    2.23
   5  -4  -1   47.95    3.25
  -5  -4   1   48.56    2.57
   5  -4  -1   48.28    2.85
   5   4  -1   47.90    2.46
  -5  -4   1   46.12    2.30
  -5  -4   1   47.16    2.37
  -5   4   1   48.79    3.36
  -5   4   1   47.40    1.87
  -5   4   1   46.32    2.34
   5   4  -1   47.32    3.15
  -5  -4   1   43.84    3.20
   5   4  -1   44.54    1.96
   5  -4  -1   44.51    2.49
  -5   4   1   49.98    2.61
  -5   4   1   50.30    3.24
   5  -4  -1   44.73    2.80
   5  -4   0    2.12    1.20
   5   4   0    0.96    0.58
   5  -4   0    2.46    1.39
   5  -4   0   -0.58    0.76
   5   4   0   -0.08    0.95
   5  -4   0    0.09    0.90
   5   4   0    0.01    0.78
  -5   4   0    0.01    0.56
  -5  -4   0    3.34    1.74
   5   4   0    0.31    0.33
  -5  -4   0   -1.07    1.01
  -5   4   0    0.41    0.99
  -5   4   0    0.04    0.76
  -5  -4   0    0.24    0.66
   5  -4   1    5.55    1.23
   5   4   1    7.35    1.20
   5   4   1    6.42    0.60
   5   4   1    5.90    0.58
   5  -4   1    4.45    1.38
   5  -4   1    6.39    1.27
  -5   4  -1    5.79    0.80
   5   4   1    5.53    1.25
   5  -4   1    4.34    1.17
   5   4   1    7.09    1.24
  -5  -4  -1    4.82    1.00
   5  -4   1    5.97    0.82
   5   4   1    7.19    1.56
  -5  -4  -1    4.72    1.43
  -5  -4  -1    6.62    1.21
  -5   4  -1    8.04    1.57
  -5   4  -1    4.93    1.26
   5   4   1    6.07    1.24
   5  -4   2   12.55    1.82
   5  -4   2   13.11    1.92
   5   4   2   11.46    1.72
   5  -4   2   10.23    1.56
   5  -4   2   12.61    1.86
   5   4   2   13.15    1.59
  -5  -4  -2   13.12    1.49
   5  -4   2   14.04    1.16
   5   4   2   11.85    1.40
   5   4   2   12.57    1.77
  -5  -4  -2   14.62    1.99
  -5  -4  -2   15.47    1.66
  -5   4  -2   13.44    1.17
  -5   4  -2   14.70    1.96
  -5   4  -2   13.56    1.84
   5  -4   3    7.56    1.73
   5   4   3    5.62    1.36
   5  -4   3    3.31    1.28
   5  -4   3    3.63    1.18
   5  -4   3    2.91    1.32
   5   4   3    3.54    1.14
   5   4   3    5.94    1.23
   5   4   3    4.03    1.28
  -5   4  -3    4.63    0.69
  -5  -4  -3    5.62    1.59
  -5  -4  -3    5.86    1.36
  -5   4  -3    5.18    1.32
  -5   4  -3    4.41    1.22
   5   4   4    8.09    1.58
   5  -4   4   10.21    2.06
   5  -4   4    8.16    1.72
   5  -4   4    9.47    1.85
   5   4   4    9.64    1.68
   5   4   4    7.70    1.49
   5   4   4    8.37    1.62
   5   4   4    9.24    1.87
  -5  -4  -4    8.65    1.78
  -5  -4  -4    6.94    1.46
  -5   4  -4   10.23    1.86
  -5   4  -4    8.43    1.57
   5  -4   5   30.26    3.11
   5   4   5   19.73    2.25
   5  -4   5   21.35    2.67
   5   4   5   22.52    2.32
   5   4   5   21.11    2.47
  -5  -4  -5   23.99    2.72
  -5  -4  -5   24.65    2.55
  -5   4  -5   24.01    2.50
   5  -4   5   23.33    2.67
   5   4   5   21.62    2.34
  -5   4  -5   20.10    2.19
  -5   4  -5   22.37    2.56
   5   4   5   20.05    2.23
   5  -4   6    3.43    1.66
   5   4   6    4.32    1.61
   5  -4   6    5.22    1.81
   5   4   6    1.26    1.18
   5   4   6    2.35    1.15
   5   4   6    3.88    1.55
  -5  -4  -6    3.27    1.44
  -5  -4  -6    4.25    1.52
  -5   4  -6    0.79    1.09
  -5   4  -6    1.50    1.27
  -5   4  -6    3.08    1.10
   5   4   6    3.72    1.31
   5  -4   7    2.95    1.49
   5  -4   7    5.18    1.92
   5   4   7    6.21    1.72
   5   4   7    5.15    1.63
   5   4   7    3.22    1.46
  -5  -4  -7    5.65    1.76
  -5  -4  -7    6.96    1.89
  -5   4  -7    7.12    1.70
   5   4   7    4.11    1.66
  -5   4  -7    4.46    1.75
   5   4   7    5.47    1.33
   5   4   8   -0.52    1.61
   5  -4   8    0.67    1.50
   5   4   8    2.79    1.67
   5   4   8   -0.99    1.35
  -5  -4  -8    0.68    1.31
  -5  -4  -8   -0.36    1.35
  -5   4  -8   -1.69    1.60
  -5   4  -8    4.67    1.79
   5   5  -8    6.39    1.83
  -5   5   8   12.06    2.23
  -5   5   8    7.77    2.01
   5   5  -8    7.04    2.00
   5   5  -8   12.56    2.34
  -5   5   8    9.27    2.09
  -5   5   8    7.86    2.03
  -5   5   8    6.50    1.71
  -5   5   8    7.19    2.04
  -5  -5   8   10.28    2.07
   5   5  -7    9.60    2.05
   5   5  -7    6.30    1.66
   5  -5  -7   11.23    2.05
   5  -5  -7    7.24    1.70
  -5   5   7   11.46    2.19
  -5   5   7    5.44    1.67
   5   5  -7    5.81    1.68
  -5   5   7    9.22    2.10
  -5   5   7    9.11    1.93
  -5   5   7    7.13    1.76
  -5   5   7    6.17    1.53
  -5   5   7    7.74    1.50
  -5  -5   7    8.21    1.89
  -5  -5   6   14.48    2.21
   5   5  -6   12.75    2.04
   5  -5  -6   12.58    2.25
   5  -5  -6   12.57    1.91
  -5   5   6   12.50    2.07
  -5   5   6   16.67    2.34
   5   5  -6   11.02    1.99
  -5   5   6   10.64    2.05
  -5   5   6   11.95    2.08
   5   5  -6   14.19    2.31
  -5   5   6   11.57    2.00
  -5   5   6   14.21    2.15
   5  -5  -6   13.27    2.20
  -5   5   6   13.28    1.87
  -5  -5   6   13.93    2.29
  -5  -5   5    1.64    1.21
   5   5  -5    2.77    1.25
   5  -5  -5    2.38    1.37
   5  -5  -5    1.01    0.87
  -5   5   5    1.03    1.23
  -5   5   5   -1.76    1.44
   5   5  -5   -0.12    0.98
  -5   5   5    0.72    1.33
  -5   5   5    1.28    0.98
  -5   5   5    0.38    0.89
  -5  -5   5    2.18    1.48
   5  -5  -5    1.00    1.03
  -5  -5   4    5.14    1.34
   5   5  -4    7.06    1.46
   5  -5  -4    7.47    1.69
   5  -5  -4    6.06    1.31
   5   5  -4    5.10    1.09
   5  -5  -4    7.39    1.71
  -5   5   4    7.57    1.79
  -5   5   4    7.15    1.49
   5   5  -4    5.41    1.41
  -5   5   4    6.78    1.73
  -5   5   4    6.75    1.40
  -5   5   4    4.75    1.37
  -5  -5   4    3.79    1.54
  -5  -5   3    1.92    0.91
   5   5  -3    4.81    1.20
   5  -5  -3    2.64    1.38
   5  -5  -3    3.94    0.79
   5  -5  -3    3.35    1.09
   5   5  -3    3.72    0.90
   5   5  -3    2.51    1.30
  -5   5   3    4.89    1.30
  -5   5   3    5.48    1.75
  -5   5   3    5.01    1.59
  -5   5   3    4.61    0.80
  -5  -5   3    4.24    1.31
  -5   5   3    3.94    1.29
   5  -5  -3    2.00    1.08
  -5  -5   2    1.39    1.02
   5   5  -2    1.21    0.97
   5  -5  -2   -0.77    1.31
   5  -5  -2    0.42    0.68
   5  -5  -2    0.91    0.83
   5   5  -2   -0.05    0.62
   5   5  -2   -0.38    0.94
  -5   5   2    2.82    1.22
  -5   5   2    2.01    1.45
  -5   5   2    0.93    0.63
  -5  -5   2    1.31    1.20
  -5   5   2    0.36    1.02
   5  -5  -2    0.46    0.94
   5  -5  -1    0.56    1.05
   5  -5  -1    1.28    1.07
   5  -5  -1    3.31    0.96
   5  -5  -1    0.45    0.77
   5   5  -1    2.73    0.80
   5   5  -1    1.47    1.13
  -5   5   1    4.92    1.71
  -5  -5   1    2.13    0.90
  -5  -5   1    3.29    1.47
  -5  -5   1    2.17    0.63
  -5   5   1    1.86    0.80
  -5  -5   1    1.49    1.11
  -5   5   1    1.43    1.18
   5  -5   0   13.07    1.95
   5  -5   0   16.74    2.22
   5  -5   0   12.51    1.63
   5   5   0   14.85    1.37
   5  -5   0   14.80    1.80
   5   5   0   14.92    2.07
  -5  -5   0   15.46    1.38
  -5  -5   0   16.15    2.33
  -5   5   0   13.40    1.66
  -5  -5   0   19.88    2.36
  -5   5   0   14.86    2.05
  -5  -5   0   15.62    1.72
   5  -5   1   18.56    2.25
   5  -5   1   22.33    2.47
   5  -5   1   18.43    2.04
   5  -5   1   20.80    2.10
   5   5   1   21.24    1.62
   5   5   1   22.17    2.50
  -5  -5  -1   20.24    1.67
  -5  -5  -1   19.36    2.50
  -5  -5  -1   23.04    2.40
  -5   5  -1   21.69    2.19
  -5   5  -1   21.88    2.42
  -5  -5  -1   21.46    2.00
   5  -5   2    2.66    1.29
   5  -5   2    1.51    1.08
   5  -5   2    2.68    1.20
   5   5   2    1.01    1.06
   5  -5   2    3.49    1.14
   5   5   2    2.22    0.88
   5   5   2    2.38    1.15
  -5  -5  -2    0.82    1.30
  -5  -5  -2    1.97    0.81
  -5  -5  -2    1.75    1.11
  -5   5  -2    1.92    1.07
  -5   5  -2    2.75    1.02
  -5  -5  -2    2.90    1.11
   5  -5   3    1.99    1.33
   5   5   3    1.40    1.16
   5  -5   3    3.66    1.51
   5  -5   3    4.47    1.37
   5  -5   3    3.04    1.25
   5   5   3    1.12    0.83
  -5  -5  -3    1.87    0.91
   5   5   3    1.16    0.98
   5   5   3    2.02    1.06
  -5  -5  -3    2.88    1.52
  -5  -5  -3    3.36    1.16
  -5   5  -3    2.48    1.29
  -5   5  -3    1.24    0.99
   5  -5   4    5.50    1.92
   5   5   4    2.55    1.19
   5  -5   4    3.04    1.45
   5  -5   4    5.71    1.69
   5  -5   4    3.67    1.49
   5   5   4    5.92    1.31
   5   5   4    1.49    1.06
   5   5   4    2.54    1.12
  -5  -5  -4    4.87    1.55
  -5  -5  -4    4.20    1.17
  -5   5  -4    2.72    1.23
  -5   5  -4    4.09    1.38
   5   5   5    9.93    1.74
   5  -5   5   15.51    2.70
   5  -5   5   11.89    2.15
   5  -5   5    7.79    1.93
   5  -5   5   14.37    2.31
   5   5   5   11.73    1.85
   5   5   5   10.73    1.87
   5   5   5   12.21    2.33
   5   5   5   11.09    1.86
  -5  -5  -5   10.12    1.97
  -5  -5  -5   11.51    1.87
  -5   5  -5   10.88    1.90
  -5   5  -5    7.57    1.75
  -5   5  -5    9.28    1.69
   5  -5   6    9.83    2.04
   5  -5   6    8.33    1.90
   5   5   6    6.88    1.69
   5   5   6    9.31    2.12
   5   5   6    9.30    1.75
  -5  -5  -6    5.98    1.75
  -5  -5  -6    9.76    1.84
  -5   5  -6    7.89    1.76
   5  -5   6   13.80    2.44
  -5   5  -6    7.59    1.90
  -5   5  -6    8.59    1.64
   5   5   6    9.61    1.78
   5  -5   7    4.33    1.72
   5  -5   7    4.75    1.91
   5   5   7    4.20    1.76
   5   5   7    6.16    2.09
  -5  -5  -7    2.51    1.29
  -5   5  -7    4.03    1.57
   5  -5   8    2.00    1.63
  -5  -6   8   12.31    2.51
  -5   6   8    7.72    2.00
  -5  -6   7    1.34    1.58
   5   6  -7   -0.93    1.27
  -5   6   7    1.61    1.39
  -5   6   7    0.46    1.40
  -5   6   7    0.29    1.19
  -5   6   7    2.04    1.31
  -5   6   7    1.19    1.18
  -5   6   7    3.76    1.41
   5  -6  -7    5.96    1.89
  -5  -6   7    3.78    1.71
  -5  -6   6    4.22    1.75
   5   6  -6    2.73    1.37
   5  -6  -6    0.36    1.45
   5  -6  -6    3.23    1.23
  -5   6   6    2.31    1.71
  -5   6   6    2.89    1.60
   5   6  -6    1.57    1.26
  -5   6   6    3.34    1.94
  -5   6   6    0.88    1.34
  -5   6   6    3.56    1.34
  -5   6   6    1.50    1.16
   5   6  -6    4.44    1.90
  -5  -6   6    2.38    1.44
   5  -6  -6    4.52    1.56
  -5  -6   5   -0.15    1.13
   5   6  -5    0.22    1.03
   5  -6  -5    1.91    1.11
   5  -6  -5    0.49    0.80
  -5   6   5   -0.06    1.36
  -5   6   5    0.46    1.17
   5   6  -5   -0.41    1.27
  -5   6   5    0.21    1.53
  -5   6   5    1.56    1.21
  -5   6   5   -0.15    0.89
  -5   6   5    0.25    0.99
  -5  -6   5   -0.19    1.14
   5  -6  -5    0.30    1.20
  -5  -6   4    0.87    1.02
   5   6  -4   -0.09    1.02
   5  -6  -4   -2.42    1.39
   5  -6  -4    1.55    1.03
  -5   6   4   -0.05    1.39
  -5   6   4    2.14    1.28
   5   6  -4    1.43    1.22
  -5   6   4    0.23    1.38
  -5   6   4    0.48    0.93
  -5   6   4    1.03    1.07
  -5  -6   4    2.10    1.25
   5  -6  -4   -0.81    1.18
  -5  -6   3    0.11    1.00
   5   6  -3   -0.07    0.85
   5  -6  -3   -0.34    1.14
   5  -6  -3    1.04    0.79
   5   6  -3    0.35    1.01
  -5   6   3    2.01    1.33
  -5   6   3    2.13    1.58
  -5   6   3   -0.98    1.16
  -5   6   3    0.32    0.70
  -5   6   3   -1.08    1.22
  -5  -6   3   -0.68    1.16
   5  -6  -3   -0.45    1.27
  -5  -6   2    3.17    1.24
   5  -6  -2    1.43    0.75
   5  -6  -2    0.91    1.32
   5  -6  -2    0.80    0.77
   5   6  -2    2.33    1.34
  -5   6   2    1.48    1.48
  -5  -6   2    5.89    2.04
  -5   6   2    1.74    0.75
  -5   6   2    2.50    1.30
  -5  -6   2    0.54    1.12
   5  -6  -2    1.52    1.37
   5  -6  -1   -0.22    0.70
   5  -6  -1   -0.99    1.15
   5  -6  -1    0.57    0.94
   5   6  -1   -1.07    1.04
  -5   6   1    1.55    1.63
  -5  -6   1    1.65    1.37
  -5   6   1    0.03    0.75
  -5  -6   1   -0.96    1.05
  -5   6   1    0.97    1.13
  -5  -6   1    0.07    0.84
   5  -6  -1    0.17    1.13
   5  -6   0   13.12    2.04
   5  -6   0    9.27    1.61
   5  -6   0    7.35    1.66
   5  -6   0    7.16    1.38
   5   6   0    9.19    1.83
  -5   6   0    8.77    1.99
  -5  -6   0    7.32    1.80
  -5   6   0    8.74    1.57
  -5  -6   0    6.09    1.43
  -5   6   0    7.01    1.78
  -5  -6   0    6.92    1.39
   5  -6   1    7.11    1.77
   5  -6   1    5.64    1.44
   5  -6   1    5.41    1.57
   5   6   1    3.81    1.38
   5  -6   1    6.12    1.35
  -5  -6  -1    6.01    1.66
  -5   6  -1    8.31    1.59
  -5  -6  -1    6.53    1.60
  -5   6  -1    3.34    1.20
  -5  -6  -1    6.06    1.38
   5  -6   2    1.21    1.11
   5  -6   2    2.35    1.22
   5   6   2    1.80    1.11
   5  -6   2    2.45    1.22
   5   6   2    4.44    1.56
  -5  -6  -2    1.44    1.37
  -5   6  -2    1.97    1.08
   5  -6   2    1.70    1.53
  -5  -6  -2    3.48    1.36
  -5   6  -2    2.50    1.31
  -5  -6  -2    1.69    1.02
   5  -6   3    1.86    1.46
   5   6   3    3.94    1.40
   5  -6   3    2.82    1.29
   5  -6   3    2.00    1.31
   5  -6   3    1.26    0.96
   5   6   3    4.38    1.62
  -5  -6  -3    4.58    1.60
  -5   6  -3    3.21    1.29
  -5  -6  -3    3.89    1.42
  -5   6  -3    3.54    1.41
  -5  -6  -3    2.58    1.17
   5  -6   4    0.35    1.43
   5   6   4    1.63    1.11
   5  -6   4    0.69    1.40
   5  -6   4   -1.59    1.39
   5  -6   4   -0.91    1.11
   5   6   4    0.25    1.20
  -5  -6  -4    0.27    1.30
  -5   6  -4   -0.11    1.01
  -5  -6  -4    0.47    0.91
  -5   6  -4    0.82    1.25
   5  -6   5    6.95    2.19
   5   6   5    3.17    1.28
   5  -6   5    4.97    1.68
   5  -6   5    8.29    2.07
   5  -6   5    5.99    1.74
   5   6   5    3.09    1.57
  -5  -6  -5    0.18    1.26
  -5   6  -5    5.87    1.87
  -5  -6  -5    2.74    1.22
  -5   6  -5    5.09    1.52
   5  -6   6   -0.29    1.32
   5  -6   6    1.62    1.45
   5   6   6    0.38    1.41
  -5   6  -6    1.60    1.30
   5   6   7    4.03    1.81
  -5  -7   6    4.55    1.85
   5   7  -6    5.61    1.93
  -5   7   6    6.78    2.00
  -5   7   6    5.23    1.64
  -5   7   6    3.24    1.28
  -5  -7   5   -0.29    1.35
   5   7  -5    2.15    1.45
  -5   7   5    2.66    1.73
  -5   7   5   -1.90    1.45
  -5   7   5   -1.18    1.23
  -5   7   5    0.13    1.22
   5  -7  -5    1.12    1.40
  -5  -7   4    4.68    1.71
   5   7  -4    4.40    1.62
   5  -7  -4    4.28    1.80
   5   7  -4    3.35    1.62
  -5   7   4    3.91    2.01
  -5   7   4    6.39    1.90
  -5   7   4    3.71    1.78
  -5   7   4    2.32    1.19
   5  -7  -4    5.03    1.62
  -5   7   4    3.97    1.46
  -5  -7   4    3.66    1.66
  -5  -7   3    3.71    1.35
   5  -7  -3    2.04    1.47
   5   7  -3    4.86    1.59
  -5   7   3    3.63    1.80
  -5  -7   3    7.91    2.26
  -5   7   3    4.21    1.75
  -5  -7   3    2.29    1.47
   5  -7  -3    3.68    1.32
   5  -7  -2    0.13    1.27
   5   7  -2    1.45    1.31
  -5   7   2   -0.34    1.46
  -5  -7   2    1.91    1.55
  -5   7   2    0.26    1.12
  -5  -7   2   -1.16    1.12
   5  -7  -2    0.46    1.40
  -5  -7   2   -0.30    1.13
   5  -7  -1    4.61    1.19
   5  -7  -1    1.23    1.36
   5   7  -1    2.08    1.44
  -5   7   1    4.95    1.96
  -5  -7   1    1.33    1.34
  -5   7   1    1.91    1.22
  -5  -7   1    2.36    1.53
  -5  -7   1    0.80    1.03
   5  -7  -1    1.97    1.44
   5  -7   0    4.51    1.26
   5  -7   0    3.71    1.47
   5  -7   0    5.45    1.89
   5   7   0    5.66    1.66
  -5  -7   0    4.29    1.45
  -5   7   0    4.42    1.20
  -5   7   0    3.20    1.49
  -5  -7   0    4.13    1.48
  -5  -7   0    5.07    1.41
   5  -7   1    1.37    1.50
   5  -7   1    1.75    1.23
   5  -7   1    2.52    1.36
   5   7   1    0.90    1.03
  -5  -7  -1   -1.85    1.65
  -5   7  -1    2.07    1.25
  -5  -7  -1    1.40    1.21
  -5   7  -1    2.26    1.45
  -5  -7  -1    2.25    1.37
   5  -7   2    1.01    1.48
   5  -7   2    0.98    1.09
   5  -7   2    0.26    1.25
   5   7   2    0.40    1.02
  -5  -7  -2    3.83    1.85
  -5   7  -2   -0.69    1.15
  -5  -7  -2    0.92    1.37
  -5   7  -2   -1.22    1.31
  -5  -7  -2    0.62    1.04
   5  -7   3   -0.63    1.78
   5   7   3   -1.50    1.15
   5  -7   3    0.48    1.17
   5  -7   3    1.57    1.21
   5   7   3    4.66    1.79
  -5   7  -3   -1.25    1.29
  -5  -7  -3   -0.13    1.05
  -5   7  -3    0.17    1.33
  -5  -7  -3    1.76    1.22
   5   7   4   -0.30    1.05
   5  -7   4    2.17    1.62
   5  -7   4    2.91    1.62
   5   7   4    6.91    1.99
  -5  -7  -4    1.99    1.18
  -5   7  -4    1.72    1.27
  -5  -7  -4    2.00    1.51
   5  -7   5    8.12    2.01
   5   7   5    7.03    2.00
  -5   7  -5    9.42    2.10
  -5  -8   2    4.19    1.62
   5  -8  -1   -0.24    1.24
  -5  -8   1    0.00    1.19
   5  -8   0    0.97    1.26
   5   8   0    1.05    1.09
  -5  -8   0    1.73    1.35
  -5  -8   0    1.59    1.37
   5  -8   1   -0.13    0.98
   5  -8   1   -0.98    1.36
   5   8   1    0.32    1.19
  -5   8  -1    1.43    1.15
  -5  -8  -1   -0.47    1.15
  -5  -8  -1    1.46    1.27
   5  -8   2    2.02    1.24
   5  -8   2   -0.38    1.34
   5   8   2    0.76    1.23
  -5   8  -2    1.24    0.98
  -5  -8  -2   -0.30    1.13
   5  -8   3   -0.46    1.40
  -5  -8  -3   -0.58    1.20
   6   0 -10    4.18    1.79
  -6   0  10    3.75    1.72
   6   0 -10    5.09    1.91
  -6   0  10    6.85    2.11
   6   0  -9    2.99    1.53
   6   0  -9    5.49    1.63
  -6   0   9    1.40    1.49
   6   0  -9    2.61    1.58
  -6   0   9    5.91    1.90
   6   0  -8   11.23    1.99
   6   0  -8   20.96    2.64
  -6   0   8   12.74    2.06
   6   0  -8   18.91    1.65
  -6   0   8   21.15    2.68
   6   0  -8   20.54    2.48
   6   0  -7   21.82    2.00
   6   0  -7   20.54    2.46
   6   0  -7   20.26    2.51
  -6   0   7   20.33    1.88
   6   0  -7   20.07    1.70
  -6   0   7   20.94    1.82
  -6   0   7   24.09    2.53
   6   0  -7   21.26    2.36
  -6   0   7   19.08    1.83
   6   0  -6   10.73    1.75
   6   0  -6   11.39    1.35
   6   0  -6   11.00    1.39
   6   0  -6   10.82    1.89
  -6   0   6   13.85    1.94
   6   0  -6   13.17    1.74
  -6   0   6   10.33    1.34
  -6   0   6   11.22    1.45
   6   0  -5   72.71    3.69
   6   0  -5   66.84    3.11
   6   0  -5   68.28    3.92
   6   0  -5   71.09    3.06
   6   0  -5   67.12    3.44
  -6   0   5   66.22    3.07
  -6   0   5   67.75    3.67
  -6   0   5   67.71    3.35
  -6   0   5   66.27    2.67
   6   0  -4    7.19    1.28
   6   0  -4    9.66    1.51
   6   0  -4    8.12    1.21
   6   0  -4    7.32    1.30
   6   0  -4    8.43    1.77
  -6   0   4    6.72    0.80
   6   0  -4    7.08    1.22
  -6   0   4    9.97    1.66
  -6   0   4    9.00    1.43
  -6   0   4    6.90    0.83
  -6   0   3   -0.23    0.40
  -6   0   3    0.25    0.73
   6   0  -3    0.74    0.83
   6   0  -3    1.04    0.96
   6   0  -3    2.01    1.03
   6   0  -3    0.78    0.72
   6   0  -3    1.76    1.22
  -6   0   3   -0.28    0.39
   6   0  -3    1.26    0.94
  -6   0   3    1.57    1.00
  -6   0   3    1.36    1.09
   6   0  -2  641.10    9.46
  -6   0   2  643.22    8.38
   6   0  -2  637.17   10.57
   6   0  -2  660.70    9.52
  -6   0   2  636.32    8.81
   6   0  -2  641.28    7.81
   6   0  -2  634.32    9.47
  -6   0   2  633.35   10.18
   6   0  -1   31.35    2.37
  -6   0   1   28.41    1.66
   6   0  -1   27.75    2.46
   6   0  -1   28.57    2.16
  -6   0   1   28.99    1.86
   6   0  -1   29.33    1.54
   6   0  -1   26.78    2.12
  -6   0   1   30.11    2.37
  -6   0   0   29.31    1.50
   6   0   0   31.42    2.61
  -6   0   0   25.78    0.71
   6   0   0   30.11    2.29
   6   0   0   31.94    1.28
   6   0   0   30.35    2.37
  -6   0   0   29.19    2.38
  -6   0  -1   42.39    1.57
   6   0   1   44.90    3.07
   6   0   1   40.58    1.27
   6   0   1   41.94    1.25
   6   0   1   42.87    2.82
  -6   0  -1   43.95    2.43
   6   0   1   39.46    0.93
   6   0   1   41.92    2.83
  -6   0  -1   43.09    2.83
   6   0   1   41.47    1.33
  -6   0  -2    5.07    0.62
   6   0   2    5.73    1.77
   6   0   2    7.61    1.57
   6   0   2    5.43    0.77
  -6   0  -2    4.62    1.02
   6   0   2    4.44    1.10
  -6   0  -2    7.37    1.47
   6   0   3    9.46    1.94
   6   0   3    9.22    1.64
  -6   0  -3    6.61    1.16
   6   0   3    5.73    1.26
  -6   0  -3    6.70    1.36
  -6   0  -4   14.15    0.97
   6   0   4   14.45    2.12
   6   0   4   13.32    1.93
   6   0   4   14.20    1.10
  -6   0  -4   14.84    1.53
   6   0   4   15.01    1.94
  -6   0  -4   12.78    1.68
   6   0   5   42.05    3.57
   6   0   5   42.39    2.08
  -6   0  -5   42.95    2.54
  -6   0  -5   43.34    3.43
   6   0   5   42.47    3.31
  -6   0  -5   41.57    2.76
  -6   0  -5   36.35    3.13
  -6   0  -6   10.32    1.89
   6   0   6   10.76    2.27
   6   0   6    8.20    1.71
  -6   0  -6    7.31    1.22
  -6   0  -6   11.21    2.04
  -6   0  -6    8.77    1.40
   6   0   7   36.42    3.75
  -6   0  -7   29.56    3.21
   6   0   7   27.49    2.96
  -6   0  -7   27.18    2.89
  -6   0  -7   32.98    2.47
  -6   0  -8   -0.02    1.20
   6   0   8   -0.41    1.62
   6   0   8    3.18    1.49
  -6   0  -8   -0.93    1.56
   6   1 -10   63.26    4.84
   6  -1 -10   67.45    5.02
   6  -1 -10   65.88    4.70
  -6   1  10   64.93    4.92
  -6  -1  10   64.26    4.76
   6   1 -10   61.45    4.63
   6   1  -9   51.45    4.07
   6  -1  -9   60.70    4.53
   6  -1  -9   49.24    4.04
   6   1  -9   49.48    4.00
   6  -1  -9   48.09    3.89
  -6   1   9   49.55    4.15
  -6  -1   9   50.71    3.90
   6   1  -9   56.83    4.28
  -6   1   9   50.29    4.06
  -6  -1   9   56.31    4.31
   6  -1  -8   -0.11    1.11
   6   1  -8    1.24    1.15
   6   1  -8    0.55    0.67
   6  -1  -8    0.39    1.05
   6   1  -8    1.24    1.26
  -6   1   8   -0.14    0.99
   6  -1  -8   -0.14    0.98
  -6   1   8   -1.45    1.21
  -6  -1   8    1.78    1.32
  -6   1   8   -1.06    1.47
  -6  -1   8    2.71    1.43
   6   1  -8    2.19    1.28
  -6  -1   8    0.41    0.78
  -6  -1   7   -0.47    0.66
   6  -1  -7    0.29    0.54
   6   1  -7    0.64    1.19
   6   1  -7   -0.05    1.02
   6  -1  -7   -0.90    1.13
  -6   1   7    0.35    0.77
   6  -1  -7   -1.78    1.08
   6   1  -7    0.01    0.70
   6  -1  -7    0.93    1.21
   6   1  -7   -1.28    1.38
  -6   1   7    0.96    0.95
   6  -1  -7    1.87    1.05
  -6   1   7    1.28    1.18
  -6  -1   7    1.17    1.24
  -6  -1   7    0.73    0.84
   6   1  -6   84.03    4.22
   6  -1  -6   83.24    4.38
   6  -1  -6   87.40    3.94
   6   1  -6   79.91    3.05
   6  -1  -6   82.71    4.46
   6   1  -6   77.51    4.22
  -6   1   6   83.89    3.54
  -6   1   6   87.07    3.92
   6  -1  -6   83.66    4.10
   6  -1  -6   87.88    2.98
   6   1  -6   88.08    3.76
  -6   1   6   82.99    2.99
  -6  -1   6   81.72    3.76
  -6   1   6   77.94    4.22
  -6  -1   6   81.03    4.18
   6   1  -6   87.01    4.27
  -6   1   6   83.69    3.72
  -6  -1   6   88.64    3.77
   6  -1  -5    8.97    1.07
   6   1  -5   10.34    1.60
   6  -1  -5    9.42    1.56
   6  -1  -5   11.34    1.56
   6   1  -5    8.70    1.11
  -6   1   5    8.50    1.06
   6   1  -5    9.23    1.34
   6  -1  -5    8.74    1.78
   6   1  -5   12.19    1.87
  -6   1   5    8.53    1.15
   6   1  -5    8.14    1.02
  -6   1   5   10.07    1.65
   6   1  -5   12.54    1.71
  -6   1   5    7.50    1.04
   6  -1  -5    8.72    1.43
  -6   1   5    9.75    1.69
  -6  -1   5    9.15    1.54
  -6   1   5    8.88    1.12
  -6  -1   5    8.18    1.33
  -6   1   5    9.18    1.47
  -6  -1   5    8.62    1.07
  -6   1   5    9.54    1.22
  -6  -1   5   10.91    1.50
  -6   1   4    1.16    0.70
   6  -1  -4    0.60    0.63
   6   1  -4    1.17    0.83
   6  -1  -4    0.08    1.02
   6   1  -4   -0.13    0.64
   6  -1  -4   -0.49    1.07
  -6   1   4    0.77    0.64
   6   1  -4    1.31    0.89
   6  -1  -4    2.06    1.30
   6   1  -4    1.66    1.19
  -6   1   4    0.50    0.73
   6  -1  -4    0.80    0.69
   6   1  -4    0.63    0.69
  -6   1   4    1.22    0.73
   6  -1  -4    1.58    0.91
  -6   1   4    1.38    1.11
  -6  -1   4    0.07    0.94
   6   1  -4    0.99    0.90
  -6  -1   4    0.29    0.87
  -6   1   4    1.08    0.98
  -6  -1   4    0.62    0.48
  -6  -1   4    1.56    0.97
  -6   1   3   -0.13    0.61
   6  -1  -3    0.22    0.77
  -6  -1   3    1.33    1.00
   6   1  -3   -0.19    0.87
   6   1  -3    0.35    0.82
   6   1  -3   -0.32    0.94
   6  -1  -3    0.88    1.16
   6   1  -3   -0.55    0.91
  -6   1   3    0.20    0.63
   6  -1  -3    1.49    1.17
   6   1  -3    0.70    1.23
  -6   1   3    0.06    0.64
  -6   1   3   -0.19    0.65
   6  -1  -3    0.27    0.73
   6   1  -3    0.89    0.88
   6   1  -3    0.03    0.73
   6  -1  -3    0.56    0.76
  -6   1   3   -0.30    1.00
  -6  -1   3   -0.21    0.95
  -6   1   3    0.03    0.87
  -6  -1   3    0.59    0.91
  -6  -1   3   -0.20    0.21
  -6  -1   2    0.59    0.74
  -6   1   2   -0.15    0.70
   6   1  -2    0.87    1.01
   6   1  -2    0.04    0.64
   6  -1  -2   -2.00    1.33
   6   1  -2   -0.27    0.89
   6  -1  -2   -0.67    1.06
   6   1  -2   -0.76    1.21
   6  -1  -2   -0.03    0.84
   6   1  -2   -0.17    0.83
   6   1  -2    0.93    0.85
   6  -1  -2   -0.45    0.61
   6   1  -2    0.37    0.79
  -6  -1   2    1.52    0.89
  -6   1   2   -0.50    1.07
  -6  -1   2   -0.57    0.94
   6  -1  -2    1.15    0.81
  -6  -1   1   68.79    2.24
   6  -1  -1   70.71    3.53
  -6   1   1   70.13    2.89
   6  -1  -1   68.80    1.66
   6  -1  -1   65.13    3.53
   6   1  -1   75.17    3.63
   6   1  -1   70.65    2.63
  -6  -1   1   70.72    2.53
   6  -1  -1   70.24    2.09
   6  -1  -1   69.27    3.17
   6   1  -1   70.52    3.43
  -6  -1   1   71.98    2.55
   6  -1  -1   75.51    3.34
   6   1  -1   70.72    3.47
  -6   1   1   75.21    3.65
  -6  -1   1   74.63    3.64
   6  -1   0   42.55    2.93
  -6   1   0   37.57    2.05
   6  -1   0   37.73    2.86
   6   1   0   39.94    2.82
   6  -1   0   39.50    1.39
  -6  -1   0   38.22    1.63
   6  -1   0   40.26    2.58
   6   1   0   40.42    2.73
  -6  -1   0   42.98    1.76
   6  -1   0   41.70    2.67
   6   1   0   38.62    2.65
  -6   1   0   45.32    2.96
  -6  -1   0   40.06    2.73
   6  -1   0   40.19    1.44
   6  -1   1    1.95    0.69
  -6   1  -1    2.24    0.78
   6  -1   1    1.50    1.34
   6   1   1    1.95    1.19
   6  -1   1    1.98    1.09
   6   1   1    0.28    0.97
  -6  -1  -1    1.21    0.48
   6  -1   1    1.67    0.64
  -6   1  -1    2.64    0.90
  -6  -1  -1    4.18    1.34
  -6  -1  -1    2.03    0.46
   6  -1   1    1.65    0.97
  -6   1  -1    0.95    1.04
  -6  -1  -1    1.18    1.09
   6  -1   2    5.99    1.77
   6   1   2    5.22    1.50
   6  -1   2    5.67    1.34
   6   1   2    7.05    1.62
  -6   1  -2    6.04    0.80
  -6  -1  -2    5.35    1.13
  -6  -1  -2    5.77    0.53
   6  -1   2    5.94    1.49
  -6   1  -2    6.33    1.46
   6   1   2    5.86    0.74
  -6  -1  -2    5.80    1.29
   6   1   2    7.45    1.50
   6  -1   3   28.34    2.80
   6   1   3   26.68    2.63
  -6   1  -3   24.74    1.48
   6   1   3   24.50    1.27
  -6  -1  -3   25.66    2.15
   6   1   3   25.82    2.45
  -6  -1  -3   23.94    0.95
   6  -1   3   27.64    2.53
   6   1   3   25.71    2.42
  -6   1  -3   26.96    2.39
  -6  -1  -3   27.48    2.34
  -6   1  -3   23.99    2.38
   6   1   3   23.77    1.58
   6   1   4   97.20    4.90
   6  -1   4  103.89    5.15
   6  -1   4   96.77    2.01
   6   1   4  103.10    3.34
  -6   1  -4  100.20    3.00
  -6  -1  -4  106.01    4.17
   6   1   4   99.19    4.73
  -6  -1  -4  101.20    4.85
   6  -1   4  101.11    4.85
   6   1   4  106.40    4.93
  -6   1  -4  101.31    4.32
  -6  -1  -4  103.04    4.34
  -6   1  -4   98.43    4.72
   6   1   4   98.97    3.67
  -6  -1  -5    2.11    1.01
  -6   1  -5    0.00    0.77
  -6   1  -5    2.32    0.86
  -6   1  -5    2.35    1.19
   6   1   5    1.67    1.61
   6  -1   5    2.16    1.44
   6  -1   5    1.34    1.13
   6   1   5    0.59    1.07
   6   1   5    1.02    0.70
  -6   1  -5    1.51    0.61
  -6  -1  -5    1.41    0.81
  -6  -1  -5    3.02    1.45
  -6   1  -5   -0.11    1.15
   6   1   5    0.43    0.99
  -6  -1  -6    4.66    1.18
  -6   1  -6    7.82    1.73
   6   1   6    5.55    1.81
   6  -1   6    6.14    1.94
   6  -1   6    5.90    1.67
  -6  -1  -6    4.84    1.43
   6   1   6    7.38    1.69
   6   1   6    4.64    1.07
  -6  -1  -6    6.01    1.32
  -6  -1  -6    8.05    1.95
  -6   1  -6    5.15    1.61
  -6   1  -6    6.25    1.31
  -6   1  -7    0.91    1.15
  -6  -1  -7   -0.05    0.97
   6   1   7    1.99    1.70
   6  -1   7    1.41    1.80
   6  -1   7    1.08    1.11
   6   1   7   -0.02    1.16
  -6  -1  -7   -0.08    0.92
  -6  -1  -7   -0.83    1.52
  -6   1  -7    1.34    1.22
  -6   1  -7    1.50    0.86
  -6   1  -8    1.21    1.22
  -6  -1  -8    0.00    1.10
   6   1   8   -0.14    1.61
   6  -1   8   -0.64    2.03
   6  -1   8    0.24    1.19
   6   1   8   -0.81    1.05
  -6  -1  -8    0.93    1.36
  -6   1  -8   -1.81    1.75
   6   1   9    3.81    1.66
  -6   2  10    0.60    1.15
  -6  -2  10    4.85    1.76
   6   2  -9    1.72    1.32
   6   2  -9   -1.37    1.43
   6  -2  -9   -2.24    1.36
   6  -2  -9    3.04    1.62
  -6   2   9   -0.83    1.13
   6  -2  -9    0.62    1.29
   6   2  -9    0.54    0.91
  -6   2   9    1.01    1.05
  -6   2   9    0.88    1.31
  -6  -2   9   -0.56    1.21
  -6   2   9    0.03    1.41
  -6  -2   9   -0.38    0.88
   6   2  -8    0.92    1.08
   6  -2  -8    0.78    1.17
   6  -2  -8    3.62    1.37
   6   2  -8    2.01    1.16
  -6   2   8    1.08    0.96
   6  -2  -8    4.17    1.52
   6   2  -8    3.59    1.47
   6   2  -8    2.28    1.01
  -6   2   8    0.63    1.05
  -6   2   8    0.42    1.24
  -6  -2   8    3.86    1.41
  -6   2   8    2.47    1.47
  -6  -2   8    3.17    1.11
   6   2  -7    0.75    1.16
   6  -2  -7    0.64    1.18
   6  -2  -7    1.50    1.08
   6  -2  -7    0.93    1.03
   6  -2  -7    0.90    1.21
   6   2  -7    2.39    1.58
  -6   2   7   -0.50    1.15
   6   2  -7    1.08    0.93
  -6   2   7    0.30    1.08
  -6  -2   7   -0.55    0.91
   6   2  -7    1.71    1.14
  -6   2   7    4.12    1.52
  -6  -2   7    2.50    1.51
  -6  -2   7   -0.05    0.88
  -6   2   7    0.12    0.72
  -6  -2   6    6.72    1.32
   6   2  -6    2.16    1.01
   6  -2  -6    4.01    1.41
   6  -2  -6    4.23    1.29
   6  -2  -6    6.10    1.53
   6  -2  -6    4.51    1.28
   6   2  -6    3.32    1.33
  -6   2   6    3.40    1.08
   6   2  -6    4.36    1.17
  -6   2   6    4.70    1.38
  -6   2   6    3.44    1.31
  -6  -2   6    4.29    1.41
   6   2  -6    3.59    1.31
  -6  -2   6    2.69    1.05
   6  -2  -6    3.99    0.62
  -6   2   6    5.35    1.21
  -6  -2   5    7.50    1.40
   6   2  -5   10.39    1.53
   6   2  -5    6.97    1.43
   6  -2  -5    8.72    1.65
   6   2  -5    9.12    0.89
   6  -2  -5    9.63    1.48
   6  -2  -5    7.42    1.57
   6   2  -5    5.57    1.27
   6   2  -5    8.98    1.47
  -6   2   5    9.05    1.35
  -6   2   5    8.32    1.65
  -6   2   5    8.09    1.62
  -6  -2   5    9.28    1.59
  -6   2   5    8.75    0.98
  -6  -2   5    8.72    1.53
   6  -2  -5    8.82    0.92
  -6   2   5    7.57    1.40
  -6   2   4    6.88    1.14
  -6  -2   4    9.36    1.54
   6   2  -4    6.46    1.22
  -6   2   4    7.54    1.00
   6   2  -4    8.14    0.94
   6  -2  -4   10.30    1.65
   6  -2  -4    8.75    1.36
   6  -2  -4   10.51    1.78
   6   2  -4   10.23    1.60
   6   2  -4    4.18    1.26
  -6   2   4    6.88    1.06
   6  -2  -4    7.88    1.05
  -6   2   4    6.52    0.91
   6   2  -4    6.42    0.86
  -6   2   4    9.58    1.77
  -6   2   4    7.43    1.48
  -6  -2   4    9.58    1.53
   6   2  -4    9.60    1.48
  -6  -2   4    7.88    1.47
   6  -2  -4    8.40    1.01
  -6   2   4    8.23    1.44
   6   2  -3   36.53    1.92
   6   2  -3   37.26    2.21
   6  -2  -3   39.03    2.84
   6  -2  -3   36.82    2.80
   6   2  -3   42.74    2.89
  -6   2   3   32.77    2.01
  -6  -2   3   35.71    1.32
  -6   2   3   41.04    2.19
  -6   2   3   37.88    2.02
   6  -2  -3   37.37    2.18
   6   2  -3   38.51    2.07
  -6   2   3   42.16    3.09
   6  -2  -3   37.26    2.10
   6  -2  -3   37.21    1.99
   6   2  -3   40.05    2.81
  -6   2   3   39.73    2.22
  -6  -2   3   38.65    2.79
  -6  -2   3   39.16    2.37
  -6   2   3   34.44    2.03
   6  -2  -3   36.23    2.09
  -6   2   3   40.33    2.83
  -6   2   3   35.66    2.16
  -6  -2   3   40.49    2.79
  -6  -2   3   36.47    1.35
   6   2  -3   38.93    2.59
   6   2  -2  327.36    5.99
   6  -2  -2  331.40    7.75
   6   2  -2  329.60    5.56
   6  -2  -2  322.14    7.73
  -6   2   2  348.69    4.76
  -6   2   2  328.43    6.05
   6  -2  -2  341.55    6.53
   6   2  -2  336.06    7.46
   6   2  -2  344.32    7.76
  -6   2   2  324.47    6.49
  -6  -2   2  339.85    5.89
  -6   2   2  333.25    6.50
   6  -2  -2  320.44    6.44
  -6   2   2  340.57    7.86
   6   2  -2  337.82    7.76
  -6  -2   2  323.46    7.61
  -6   2   2  335.24    5.59
   6  -2  -2  340.34    5.44
   6  -2  -1   48.38    3.17
   6   2  -1   49.98    1.80
   6  -2  -1   50.88    3.23
   6   2  -1   41.29    2.78
   6  -2  -1   47.79    1.99
  -6  -2   1   49.30    2.54
   6  -2  -1   46.76    2.68
   6   2  -1   50.07    3.08
  -6  -2   1   52.51    2.04
   6  -2  -1   47.25    2.68
   6   2  -1   50.76    3.15
  -6   2   1   49.98    3.14
  -6  -2   1   46.32    3.02
  -6   2   1   51.28    1.88
   6  -2  -1   48.54    2.10
  -6  -2   0   18.45    2.18
   6  -2   0   16.90    2.20
   6   2   0   16.57    2.01
   6  -2   0   17.95    2.15
   6   2   0   13.66    1.80
   6  -2   0   17.25    1.78
   6  -2   0   16.24    1.31
  -6   2   0   17.69    1.85
  -6  -2   0   16.73    1.50
   6   2   0   18.23    2.07
  -6   2   0   19.22    2.10
   6  -2   0   17.18    1.44
   6  -2   1   54.96    3.58
   6  -2   1   57.56    3.49
   6   2   1   52.29    3.19
   6  -2   1   56.24    2.45
  -6  -2  -1   53.89    2.44
  -6   2  -1   52.58    1.63
  -6  -2  -1   55.23    3.22
   6   2   1   55.64    3.35
   6   2   1   54.10    1.62
   6  -2   1   52.68    3.15
   6   2   1   54.18    3.36
  -6   2  -1   58.13    3.45
  -6  -2  -1   53.84    3.28
  -6   2  -1   56.11    3.19
   6  -2   1   59.42    2.62
   6   2   2    0.38    0.53
  -6  -2  -2    0.44    1.02
   6  -2   2    0.17    0.80
   6   2   2    0.82    1.19
  -6   2  -2    0.52    0.93
   6  -2   2   -0.30    0.92
   6  -2   2   -1.00    1.30
   6   2   2    1.39    1.21
   6   2   2   -0.10    0.50
   6   2   2    1.49    1.26
  -6  -2  -2    0.20    0.63
   6  -2   2    1.01    0.81
  -6   2  -2    0.28    0.21
  -6  -2  -2    0.39    0.99
  -6   2  -2    1.46    1.08
   6  -2   3   32.57    2.98
   6   2   3   33.88    2.85
   6   2   3   31.62    1.90
   6   2   3   30.03    1.87
  -6   2  -3   26.80    0.82
  -6  -2  -3   26.17    2.29
   6   2   3   30.13    2.60
   6  -2   3   30.05    2.66
   6   2   3   31.23    2.75
  -6   2  -3   33.93    2.65
  -6   2  -3   28.98    2.57
  -6  -2  -3   31.85    2.57
   6   2   3   31.63    1.90
  -6  -2  -4    1.20    0.97
  -6   2  -4    1.13    1.06
   6  -2   4    1.66    1.23
   6  -2   4    3.12    1.51
   6   2   4   -0.66    1.12
   6   2   4    1.10    1.06
   6   2   4    1.38    1.04
  -6  -2  -4    1.84    1.10
  -6  -2  -4    1.16    1.14
  -6   2  -4    0.41    0.78
   6   2   4    0.91    0.93
  -6  -2  -5    4.07    1.16
  -6   2  -5    3.02    1.35
   6  -2   5    5.08    1.56
   6   2   5    1.35    1.40
   6  -2   5    3.24    1.54
   6   2   5    3.40    1.30
   6   2   5    3.23    1.15
  -6  -2  -5    2.79    1.15
  -6  -2  -5    2.74    1.33
  -6   2  -5    7.12    1.93
   6   2   5    1.20    0.99
  -6   2  -5    2.93    1.12
   6   2   6   27.03    3.03
   6  -2   6   34.00    3.49
   6   2   6   28.37    2.42
  -6  -2  -6   26.18    2.58
   6   2   6   31.93    2.97
  -6  -2  -6   27.25    2.92
  -6   2  -6   31.85    3.18
   6  -2   6   32.68    3.12
   6   2   6   31.65    3.01
  -6   2  -6   28.85    2.96
  -6   2  -6   34.33    2.69
   6   2   7    9.61    2.22
   6  -2   7    4.58    1.74
   6  -2   7    6.65    1.74
  -6  -2  -7    5.98    1.64
   6   2   7   10.35    2.01
   6   2   7    4.63    1.26
  -6  -2  -7    7.61    1.68
  -6  -2  -7    6.21    1.83
  -6   2  -7    7.07    1.84
  -6   2  -7    6.04    1.57
  -6  -2  -8    2.15    1.26
   6   2   8    2.39    1.84
   6   2   8    5.26    1.71
  -6  -2  -8    3.22    1.30
  -6   2  -8    3.27    1.73
  -6  -2  -9   -0.96    1.31
   6   2   9    0.99    1.34
  -6   3  10   18.02    2.66
  -6   3  10   18.94    2.60
  -6  -3  10   21.84    2.73
   6   3  -9   60.52    4.51
   6  -3  -9   59.89    4.70
   6  -3  -9   67.20    4.70
  -6   3   9   58.76    4.22
  -6   3   9   59.81    4.41
  -6   3   9   57.95    4.20
  -6   3   9   54.82    4.52
  -6  -3   9   55.21    3.87
   6   3  -9   57.07    3.97
  -6   3   9   63.77    4.81
  -6  -3   9   55.23    3.97
   6   3  -9   55.67    4.49
  -6   3   9   59.97    4.70
   6   3  -8    4.28    1.54
   6  -3  -8    3.75    1.66
  -6   3   8    1.97    1.22
  -6   3   8    5.88    1.62
   6   3  -8    1.84    1.10
  -6   3   8    1.17    1.14
  -6   3   8    2.28    1.36
  -6  -3   8    5.28    1.37
  -6  -3   8    4.25    1.32
   6   3  -8    1.98    1.22
  -6   3   8    3.91    1.83
   6   3  -7    2.23    1.21
   6  -3  -7    0.92    1.09
   6  -3  -7    2.04    1.25
   6   3  -7    2.41    1.39
  -6   3   7    1.63    1.14
  -6   3   7    1.38    1.00
   6   3  -7    1.37    0.94
  -6   3   7    1.80    1.10
  -6  -3   7    1.64    1.11
  -6   3   7    2.65    1.36
   6   3  -7    0.41    1.09
  -6  -3   7    1.43    1.06
  -6   3   7    1.96    0.91
   6   3  -6   48.64    3.35
   6  -3  -6   45.35    3.36
   6  -3  -6   44.36    3.36
   6   3  -6   43.91    3.23
  -6   3   6   45.69    3.11
  -6   3   6   42.95    3.09
  -6   3   6   44.37    3.43
   6   3  -6   43.53    3.22
  -6  -3   6   43.92    3.29
  -6   3   6   47.92    3.63
  -6   3   6   45.76    3.10
   6   3  -6   43.56    3.32
   6   3  -5    7.36    1.42
   6  -3  -5    7.11    1.54
   6  -3  -5    6.13    1.46
   6   3  -5   10.41    1.73
   6   3  -5    7.41    1.51
  -6   3   5    8.19    1.44
  -6   3   5    8.31    1.37
  -6   3   5    8.58    1.73
  -6   3   5    6.06    1.44
  -6  -3   5    8.04    1.60
  -6   3   5    8.68    1.51
   6   3  -5    7.56    1.70
  -6  -3   4    4.17    0.98
   6   3  -4    4.33    1.15
  -6   3   4    4.52    0.77
   6  -3  -4    5.02    1.33
   6   3  -4    3.69    0.48
   6  -3  -4    5.79    1.55
   6   3  -4    1.71    0.98
   6   3  -4    4.77    1.25
   6  -3  -4    4.22    0.75
  -6   3   4    4.33    1.10
  -6   3   4    3.55    1.04
  -6   3   4    4.83    1.48
   6   3  -4    4.81    1.30
  -6  -3   4    4.15    1.17
  -6   3   4    4.38    1.23
   6  -3  -4    4.13    1.06
   6   3  -3   17.58    1.15
   6   3  -3   19.32    1.72
   6  -3  -3   16.85    2.11
   6  -3  -3   19.51    2.16
  -6  -3   3   16.95    1.21
   6   3  -3   17.35    1.91
  -6   3   3   19.09    1.87
   6   3  -3   17.87    2.07
  -6   3   3   19.72    1.66
   6   3  -3   17.71    1.35
  -6   3   3   24.02    2.61
  -6   3   3   18.13    1.52
  -6   3   3   16.83    1.42
   6  -3  -3   15.97    1.39
  -6  -3   3   18.24    1.29
  -6   3   3   18.98    1.53
  -6  -3   3   19.42    2.14
  -6   3   3   16.65    1.98
   6  -3  -3   17.46    1.62
   6   3  -2   36.80    1.96
   6  -3  -2   41.61    3.07
   6  -3  -2   38.55    2.81
   6   3  -2   38.26    2.62
  -6  -3   2   37.74    1.52
  -6   3   2   37.82    1.87
   6  -3  -2   41.48    2.42
  -6   3   2   36.50    2.02
   6   3  -2   36.18    2.81
  -6  -3   2   34.73    2.79
  -6   3   2   36.61    2.07
   6  -3  -2   35.45    2.20
  -6   3   2   39.29    2.96
  -6   3   2   37.63    2.24
  -6  -3   2   36.82    2.81
  -6  -3   2   38.34    1.56
  -6  -3   1   -0.38    1.19
   6   3  -1   -0.14    0.44
   6  -3  -1   -0.89    1.29
  -6   3   1    0.44    0.77
   6   3  -1    0.76    1.19
   6  -3  -1    0.27    0.74
   6  -3  -1    1.16    0.98
   6   3  -1   -0.28    1.08
   6  -3  -1    0.55    0.71
   6   3  -1   -0.30    0.89
  -6   3   1    0.25    0.46
  -6   3   1   -0.63    0.54
  -6   3   1    0.45    1.00
   6  -3  -1   -0.51    0.80
  -6  -3   1    0.22    0.35
   6  -3   0    7.09    1.23
  -6  -3   0    8.53    1.68
  -6   3   0    6.58    1.32
   6  -3   0    8.44    1.82
   6   3   0    6.74    1.38
   6  -3   0    7.68    1.33
   6  -3   0    6.38    1.45
   6   3   0    5.62    1.37
   6  -3   0    7.09    1.15
   6   3   0    7.52    1.65
  -6   3   0    6.53    0.58
  -6   3   0    6.83    0.65
  -6   3   0    8.51    1.66
   6  -3   1   47.27    3.33
   6  -3   1   50.10    3.29
   6   3   1   51.12    3.07
   6   3   1   48.34    1.99
  -6  -3  -1   49.06    3.31
   6   3   1   53.50    3.40
   6  -3   1   50.54    3.12
  -6   3  -1   50.47    3.32
   6   3   1   52.14    3.40
  -6   3  -1   51.21    3.11
  -6  -3  -1   52.67    3.39
   6  -3   1   51.46    2.84
   6   3   1   52.80    2.12
   6  -3   2   25.49    2.62
   6   3   2   22.34    2.23
   6  -3   2   25.55    2.54
   6   3   2   21.83    1.57
   6   3   2   22.22    2.28
  -6  -3  -2   22.87    2.36
   6  -3   2   23.03    2.33
   6   3   2   24.47    2.48
  -6   3  -2   23.84    2.39
  -6   3  -2   21.89    2.20
   6   3   2   23.40    1.63
   6  -3   2   24.17    2.10
   6  -3   3   55.15    3.91
   6  -3   3   49.90    3.57
   6   3   3   45.81    3.19
   6   3   3   50.42    2.56
  -6  -3  -3   44.13    3.19
   6   3   3   43.51    3.23
  -6  -3  -3   48.91    3.25
   6  -3   3   47.64    3.38
   6   3   3   45.86    3.34
  -6   3  -3   49.77    3.41
  -6   3  -3   47.79    3.25
   6  -3   3   44.52    3.00
   6  -3   4   73.32    4.49
   6   3   4   71.92    4.14
   6   3   4   77.04    3.47
  -6  -3  -4   71.68    4.14
   6   3   4   69.82    4.11
  -6  -3  -4   72.90    4.14
   6  -3   4   71.44    4.29
   6   3   4   70.01    4.16
  -6   3  -4   79.07    4.46
  -6   3  -4   72.09    3.96
   6  -3   5    5.30    1.71
   6   3   5    3.82    1.51
   6  -3   5    5.01    1.82
   6   3   5    0.63    0.85
   6   3   5    2.43    1.17
   6   3   5    1.14    1.24
  -6  -3  -5    3.04    1.18
  -6  -3  -5    2.69    1.32
  -6   3  -5    4.60    1.64
  -6   3  -5    1.38    1.02
   6   3   5    1.85    1.17
  -6   3  -5    1.13    1.05
   6  -3   6    5.33    1.48
   6   3   6    9.97    2.06
   6  -3   6    4.07    1.70
   6   3   6    7.68    1.59
   6   3   6    5.95    1.55
   6   3   6    7.17    1.66
  -6  -3  -6    5.80    1.44
  -6  -3  -6    6.34    1.58
  -6   3  -6    4.80    1.48
   6   3   6    3.74    1.32
  -6   3  -6    4.93    1.30
  -6   3  -6    7.20    1.81
   6  -3   7    0.68    1.24
   6   3   7    3.08    1.83
   6  -3   7   -1.27    1.69
   6   3   7    0.69    1.04
   6   3   7    3.40    1.34
   6   3   7    1.96    1.36
  -6  -3  -7    1.88    1.08
  -6  -3  -7    1.13    1.24
  -6   3  -7    1.55    1.54
  -6   3  -7    1.06    1.24
   6   3   8    0.66    1.62
  -6  -3  -8    1.98    1.21
   6   3   8    1.44    1.32
   6   3   8    2.66    1.47
  -6  -3  -8    1.63    1.16
   6   4  -9   -0.55    1.12
  -6   4   9   -1.11    1.47
   6   4  -9    1.12    1.04
  -6   4   9    1.12    1.34
  -6  -4   9    1.06    1.13
   6   4  -8    0.64    1.16
   6  -4  -8    0.20    1.23
  -6   4   8    0.22    1.34
  -6   4   8    0.26    1.23
   6   4  -8    0.05    1.07
  -6   4   8   -0.70    1.40
  -6   4   8    0.88    1.18
  -6   4   8    2.70    1.72
  -6   4   8    1.00    1.27
   6   4  -8   -2.12    1.61
  -6  -4   8   -0.81    1.08
   6   4  -7   -0.22    1.06
   6  -4  -7   -0.55    1.22
   6  -4  -7   -0.03    1.19
   6   4  -7    0.83    1.03
  -6   4   7   -1.34    1.18
  -6   4   7    0.40    1.15
   6   4  -7    1.12    1.29
   6   4  -7    0.53    1.13
  -6   4   7   -1.80    1.62
  -6  -4   7    0.67    0.81
  -6   4   7    0.95    1.02
  -6   4   7    1.89    1.30
  -6   4   7    0.01    0.90
  -6  -4   7    0.34    1.18
   6   4  -6   11.55    1.90
   6  -4  -6    8.63    1.82
   6  -4  -6   10.15    1.90
   6   4  -6   12.16    1.87
  -6   4   6    8.37    1.68
  -6   4   6   14.31    2.01
   6   4  -6    9.70    1.94
  -6   4   6    9.14    1.86
  -6  -4   6    8.26    1.35
  -6   4   6   10.05    2.03
  -6  -4   6    9.59    1.88
  -6   4   6    9.68    1.70
   6   4  -6   10.31    1.95
  -6  -4   5    9.87    1.54
   6   4  -5    4.35    1.17
   6  -4  -5   10.16    1.84
   6  -4  -5    8.54    1.62
   6   4  -5   10.80    1.65
   6   4  -5    8.18    1.72
  -6   4   5    6.70    1.53
  -6   4   5   11.00    1.69
   6   4  -5    9.78    1.90
  -6   4   5    8.58    1.85
  -6  -4   5    8.92    1.81
  -6   4   5    8.31    1.54
   6  -4  -5    8.60    1.63
  -6  -4   4    3.13    0.96
   6   4  -4    4.16    1.16
   6  -4  -4    4.53    1.37
   6  -4  -4    2.89    1.05
   6   4  -4    3.94    1.13
   6   4  -4    5.25    1.48
   6  -4  -4    2.67    0.62
  -6   4   4    4.84    1.23
  -6   4   4    4.88    1.36
  -6   4   4    3.98    1.55
  -6  -4   4    3.33    1.46
  -6   4   4    4.47    1.38
   6  -4  -4    2.96    1.06
   6   4  -3   20.15    1.84
   6  -4  -3   22.25    2.11
   6  -4  -3   24.43    2.65
   6  -4  -3   26.29    2.47
   6   4  -3   22.99    2.10
  -6   4   3   22.70    2.30
  -6   4   3   22.32    1.92
  -6   4   3   26.26    2.81
   6   4  -3   26.30    2.63
  -6  -4   3   22.72    2.48
   6  -4  -3   20.55    1.59
  -6   4   3   23.33    1.67
  -6   4   3   22.52    2.38
  -6  -4   3   22.71    1.75
   6   4  -2  181.19    4.57
   6  -4  -2  184.00    6.59
   6  -4  -2  175.54    5.89
   6   4  -2  177.19    5.23
  -6   4   2  177.76    4.60
  -6   4   2  183.26    6.72
   6   4  -2  183.63    6.48
  -6  -4   2  167.76    6.39
   6  -4  -2  182.76    4.98
  -6   4   2  180.67    4.93
  -6   4   2  178.69    6.35
  -6  -4   2  177.40    4.29
   6  -4  -2  183.31    5.57
  -6  -4   1   27.92    1.71
   6   4  -1   27.57    1.57
   6  -4  -1   26.64    2.65
   6  -4  -1   25.83    2.43
   6   4  -1   25.29    2.08
   6   4  -1   24.94    2.51
  -6   4   1   22.16    1.62
  -6  -4   1   28.19    2.69
   6  -4  -1   26.19    2.11
  -6   4   1   26.15    2.15
  -6   4   1   26.92    2.61
   6  -4  -1   26.32    2.20
   6  -4   0    2.09    1.08
   6   4   0    2.02    0.39
   6  -4   0    3.09    1.48
   6   4   0    1.82    1.12
   6  -4   0    1.10    0.80
   6  -4   0    1.16    1.00
   6   4   0    0.17    0.79
   6   4   0    0.80    1.02
  -6  -4   0    1.17    1.20
  -6   4   0    2.56    1.20
  -6  -4   0    1.33    0.58
  -6   4   0    1.09    0.85
   6  -4   1   28.40    2.77
   6  -4   1   28.00    2.62
   6   4   1   28.39    2.26
  -6  -4  -1   27.82    2.84
   6   4   1   25.84    2.62
  -6  -4  -1   28.17    2.27
   6  -4   1   27.53    2.44
  -6   4  -1   32.35    2.65
  -6   4  -1   27.29    2.62
   6   4   1   30.20    2.80
  -6  -4  -1   27.60    1.81
   6  -4   1   25.82    2.29
   6  -4   2    2.98    1.23
   6   4   2   -0.12    1.05
   6  -4   2   -1.11    1.35
   6  -4   2    0.59    0.97
   6  -4   2   -0.16    1.19
   6   4   2    0.53    1.02
   6   4   2    0.31    0.81
   6   4   2    1.31    1.20
  -6  -4  -2   -0.06    1.06
  -6  -4  -2   -0.06    0.86
  -6   4  -2    1.09    1.01
  -6   4  -2   -0.09    0.86
   6  -4   3   15.88    2.14
   6   4   3   14.60    2.13
   6  -4   3   12.31    2.16
   6  -4   3   14.65    2.13
   6  -4   3   16.50    2.30
   6   4   3   12.91    1.80
   6   4   3   13.16    1.60
   6   4   3   13.91    2.13
  -6  -4  -3   15.01    2.22
  -6  -4  -3   14.10    1.92
  -6   4  -3   13.69    2.11
  -6   4  -3   13.88    2.06
   6   4   4    1.78    1.11
   6  -4   4    3.61    1.56
   6  -4   4    5.11    1.64
   6  -4   4    2.35    1.35
   6  -4   4    2.16    1.37
   6   4   4    4.21    1.44
   6   4   4    1.58    0.98
   6   4   4    3.09    1.30
  -6  -4  -4    1.15    1.30
  -6  -4  -4    2.08    1.25
  -6   4  -4    2.61    1.24
  -6   4  -4    2.80    1.16
   6  -4   5   -0.72    1.34
   6  -4   5    0.96    1.35
   6  -4   5    1.30    1.57
   6   4   5    4.05    1.56
  -6   4  -5   -0.34    0.97
   6   4   5    0.85    0.90
   6   4   5    0.06    0.91
   6   4   5    1.15    1.28
  -6  -4  -5   -1.01    1.11
  -6  -4  -5   -0.79    1.34
  -6   4  -5    2.92    1.49
  -6   4  -5    1.17    1.15
   6   4   5    0.77    1.17
   6  -4   6   24.03    3.14
   6  -4   6   16.06    2.50
   6  -4   6   16.81    2.70
   6   4   6   18.88    2.59
   6   4   6   19.92    2.34
   6   4   6   23.06    2.70
   6   4   6   21.87    2.76
  -6  -4  -6   18.35    2.48
  -6  -4  -6   17.54    2.43
  -6   4  -6   21.10    2.72
  -6   4  -6   15.86    2.43
  -6   4  -6   15.16    2.07
   6   4   6   17.97    2.35
   6   4   7    3.34    1.58
   6  -4   7    3.85    1.94
   6   4   7    0.50    1.12
   6   4   7    3.63    1.62
   6   4   7    4.07    1.81
  -6  -4  -7    1.11    1.23
  -6  -4  -7    3.58    1.57
  -6   4  -7   -0.16    1.38
   6   4   7    1.99    1.11
   6   5  -8    0.66    1.19
   6  -5  -8    0.58    1.17
  -6   5   8   -0.22    1.28
  -6   5   8    0.27    1.34
   6   5  -8   -2.14    1.17
  -6   5   8    0.59    1.38
  -6   5   8   -0.25    1.15
  -6  -5   8    0.44    1.39
   6   5  -7    0.37    1.33
   6  -5  -7    0.23    1.43
   6  -5  -7   -0.64    1.05
  -6   5   7   -0.43    1.27
  -6   5   7    0.03    1.21
   6   5  -7    0.54    1.26
  -6   5   7    0.01    1.62
  -6   5   7   -0.98    1.37
  -6   5   7    1.98    1.37
  -6   5   7    0.62    1.27
   6   5  -7    0.58    1.26
  -6   5   7    1.08    1.07
  -6  -5   7   -0.13    1.24
   6   5  -6   22.33    2.53
   6  -5  -6   24.63    2.96
   6  -5  -6   21.30    2.45
  -6   5   6   21.93    2.69
  -6   5   6   25.80    2.72
   6   5  -6   22.34    2.79
  -6   5   6   20.14    2.70
  -6   5   6   17.69    2.55
   6   5  -6   19.98    2.64
  -6   5   6   21.51    2.59
  -6   5   6   19.24    2.40
   6  -5  -6   25.16    2.79
  -6  -5   6   21.98    2.87
  -6  -5   6   25.88    2.63
  -6  -5   5    1.47    1.10
   6   5  -5    1.40    0.98
   6  -5  -5    2.97    1.32
   6  -5  -5    1.76    1.45
   6  -5  -5    2.18    1.13
   6   5  -5    1.87    1.01
   6   5  -5    0.17    1.20
  -6   5   5    2.81    1.52
  -6   5   5    1.08    1.01
  -6   5   5   -0.23    1.48
   6   5  -5    4.47    1.64
  -6   5   5   -0.03    1.06
  -6   5   5    1.74    1.12
  -6  -5   5    1.23    1.21
  -6  -5   4   -0.88    1.05
   6   5  -4    0.69    0.87
   6  -5  -4   -0.07    1.03
   6  -5  -4    1.07    0.96
   6   5  -4    1.15    0.91
   6   5  -4    1.81    1.29
  -6   5   4   -0.03    1.04
  -6   5   4    2.12    1.33
  -6   5   4    0.90    1.36
  -6  -5   4    0.36    0.98
  -6   5   4    0.58    0.95
   6  -5  -4    0.09    1.12
  -6  -5   3    3.71    1.19
   6   5  -3    1.55    0.88
   6  -5  -3    3.62    1.67
   6  -5  -3    1.01    0.62
   6  -5  -3    1.48    1.03
   6   5  -3    2.66    1.05
   6   5  -3   -1.35    1.32
  -6   5   3    2.38    1.07
  -6   5   3    2.28    1.49
  -6  -5   3    0.52    1.20
  -6   5   3    1.45    1.09
   6  -5  -3    0.44    0.94
   6   5  -2    2.45    0.87
   6  -5  -2    3.73    1.41
   6  -5  -2    3.02    0.84
   6  -5  -2    3.83    1.33
   6   5  -2    3.55    1.00
   6   5  -2    2.75    1.27
  -6   5   2    4.51    1.90
  -6   5   2    2.63    0.86
  -6  -5   2    1.71    1.14
  -6   5   2    2.46    1.12
   6  -5  -2    2.02    1.15
  -6  -5   2    2.21    0.90
   6   5  -1   18.61    1.51
   6  -5  -1   16.52    2.30
   6   5  -1   15.64    1.61
   6  -5  -1   15.77    1.77
   6   5  -1   19.50    2.40
   6  -5  -1   16.30    1.95
  -6  -5   1   20.69    1.86
  -6  -5   1   23.07    2.81
  -6   5   1   20.73    1.98
  -6  -5   1   16.87    2.30
  -6   5   1   15.52    2.21
   6  -5  -1   18.67    2.25
   6  -5   0   -1.42    1.09
   6  -5   0    2.37    1.35
   6  -5   0   -0.92    0.98
   6   5   0    0.92    1.12
   6  -5   0    0.84    0.96
   6   5   0    1.32    0.80
  -6  -5   0    2.46    1.60
  -6  -5   0    2.14    0.97
  -6  -5   0    2.28    1.16
  -6   5   0    0.41    0.89
  -6   5   0    0.97    1.05
  -6  -5   0    1.42    0.83
   6  -5   1    6.23    1.62
   6  -5   1    5.61    1.82
   6   5   1    2.59    1.12
   6  -5   1    3.39    1.32
   6  -5   1    3.86    1.38
   6   5   1    3.11    1.00
  -6  -5  -1    3.10    1.31
  -6  -5  -1    3.81    1.00
  -6  -5  -1    5.38    1.46
  -6   5  -1    3.72    1.25
  -6   5  -1    2.30    1.35
  -6  -5  -1    3.65    1.02
   6  -5   2    0.02    1.11
   6   5   2    0.90    1.07
   6  -5   2   -1.05    1.28
   6  -5   2    0.38    0.96
   6  -5   2    0.00    1.06
   6   5   2    1.47    1.01
   6   5   2    0.59    1.00
   6   5   2   -0.66    1.37
  -6  -5  -2   -0.05    1.27
  -6  -5  -2    1.75    1.00
  -6   5  -2    0.09    0.81
  -6   5  -2    0.59    0.99
  -6  -5  -2    0.12    0.73
   6  -5   3    7.29    1.80
   6   5   3    8.46    1.74
   6  -5   3    7.95    1.86
   6  -5   3    9.79    1.91
   6  -5   3    6.69    1.61
   6   5   3    5.98    1.30
   6   5   3    8.99    1.61
   6   5   3    4.21    1.34
  -6  -5  -3    7.65    1.88
  -6  -5  -3    7.86    1.42
  -6   5  -3    6.77    1.59
  -6   5  -3    5.16    1.56
   6  -5   4   15.08    2.50
   6   5   4   12.79    2.18
   6  -5   4   11.20    2.20
   6  -5   4   11.65    2.15
   6  -5   4   12.25    2.20
   6   5   4   11.80    1.76
   6   5   4   12.22    2.03
  -6  -5  -4   13.35    2.24
  -6  -5  -4   13.92    2.01
  -6   5  -4   11.43    2.08
  -6   5  -4   12.21    2.08
   6   5   5    2.29    1.28
   6  -5   5    4.39    1.84
   6  -5   5    1.71    1.59
   6  -5   5    2.31    1.53
   6  -5   5   -1.03    1.49
   6   5   5   -0.07    1.34
   6   5   5    2.20    1.27
  -6  -5  -5    2.14    1.48
  -6  -5  -5    3.01    1.40
  -6   5  -5    1.71    1.33
  -6   5  -5    0.89    1.22
  -6   5  -5   -0.78    1.08
   6  -5   6    5.49    2.25
   6  -5   6    2.52    1.53
   6  -5   6    3.79    1.99
   6   5   6    3.01    1.31
  -6  -5  -6    4.27    1.61
  -6   5  -6    4.75    1.73
  -6   5  -6    3.79    1.46
   6   5   6    3.05    1.48
   6   5   7    2.30    1.73
   6   6  -7    0.88    1.25
  -6   6   7    3.18    1.76
  -6   6   7    4.72    1.78
  -6   6   7    3.03    1.59
  -6   6   7    1.75    1.30
  -6   6   7    4.15    1.57
   6  -6  -7    2.54    1.45
   6   6  -6   -0.95    1.29
   6  -6  -6   -0.21    1.06
  -6   6   6    2.27    1.51
  -6   6   6    0.47    1.30
  -6   6   6   -0.20    1.52
  -6   6   6   -1.43    1.35
  -6   6   6   -0.19    1.02
  -6   6   6    0.60    1.31
  -6  -6   6    0.67    1.40
   6  -6  -6    0.93    1.23
   6   6  -5   28.51    2.83
   6  -6  -5   26.51    2.55
   6  -6  -5   27.17    3.20
  -6   6   5   28.30    3.22
  -6   6   5   27.99    2.90
  -6   6   5   26.72    3.34
   6   6  -5   28.02    3.20
  -6   6   5   26.46    2.73
  -6   6   5   24.23    2.86
   6  -6  -5   30.09    3.19
  -6  -6   5   27.46    3.18
   6   6  -4    2.72    1.25
   6  -6  -4    3.75    1.74
   6  -6  -4    1.21    0.90
   6   6  -4   -0.19    0.99
  -6   6   4    5.07    1.55
  -6   6   4    0.95    1.35
  -6   6   4    1.43    1.51
  -6   6   4    3.38    1.17
  -6   6   4    1.79    1.37
  -6  -6   4    4.17    1.69
   6  -6  -4    1.45    1.43
   6   6  -3    1.57    0.97
   6  -6  -3    0.14    1.37
   6  -6  -3    1.05    0.99
   6   6  -3    2.21    1.40
  -6   6   3    1.44    1.40
  -6  -6   3    1.36    1.22
  -6   6   3    1.28    1.33
   6  -6  -3   -0.09    1.19
   6  -6  -2   97.45    5.44
   6  -6  -2  104.70    4.66
  -6   6   2   99.17    5.69
  -6  -6   2  104.99    5.86
   6   6  -2  104.86    5.60
  -6  -6   2  106.14    5.71
  -6   6   2   98.26    5.43
   6  -6  -2   94.31    5.01
   6  -6  -1    8.23    1.93
   6  -6  -1    9.76    1.58
   6   6  -1    8.08    1.90
   6  -6  -1    9.02    1.61
  -6  -6   1   10.31    2.06
  -6   6   1    7.86    1.38
  -6  -6   1    9.24    1.85
  -6   6   1   11.99    2.23
  -6  -6   1   12.08    1.70
   6  -6  -1    8.20    1.78
   6  -6   0    0.89    1.25
   6  -6   0    1.95    1.41
   6  -6   0    0.03    0.93
   6   6   0   -0.88    1.15
   6  -6   0   -0.57    1.09
  -6  -6   0    0.82    1.09
  -6   6   0   -0.40    0.88
  -6  -6   0    0.15    1.16
  -6   6   0    1.69    1.23
   6  -6   1    1.87    1.35
   6  -6   1    0.32    0.88
   6   6   1    2.73    1.35
   6  -6   1    4.67    1.34
   6  -6   1    4.39    1.67
  -6  -6  -1    1.61    1.26
  -6   6  -1    2.21    1.02
  -6  -6  -1    6.07    1.71
  -6   6  -1    2.86    1.39
   6  -6   2    4.45    1.40
   6   6   2    5.97    1.61
   6  -6   2    7.41    1.90
   6  -6   2    3.14    1.36
   6  -6   2    6.21    1.48
  -6  -6  -2    0.67    1.29
  -6   6  -2    6.97    1.69
  -6  -6  -2    4.72    1.64
  -6   6  -2    2.39    1.39
   6  -6   3   -0.73    1.47
   6   6   3    0.39    1.04
   6  -6   3    1.99    1.55
   6  -6   3    1.76    1.26
   6  -6   3   -1.73    1.28
   6   6   3    0.50    1.33
  -6  -6  -3   -1.81    1.45
  -6   6  -3    0.13    1.23
  -6  -6  -3   -0.33    1.20
  -6   6  -3   -1.50    1.25
   6  -6   4    1.92    1.61
   6   6   4    0.88    1.20
   6  -6   4    0.49    1.42
   6  -6   4    1.68    1.39
   6  -6   4    1.60    1.26
  -6  -6  -4    2.61    1.57
  -6   6  -4    1.17    1.43
  -6  -6  -4   -0.19    1.01
  -6   6  -4    1.35    1.31
   6   6   5    1.25    1.13
   6  -6   5    3.43    2.02
   6  -6   5    1.24    1.53
   6  -6   5    3.14    1.57
  -6  -6  -5    0.29    1.11
  -6   6  -5    1.48    1.22
   6   7  -6    4.98    1.72
   6   7  -5    0.84    1.22
  -6   7   5    2.07    1.63
  -6   7   5    0.53    1.11
   6  -7  -5    2.42    1.59
   6  -7  -4    0.97    1.35
   6  -7  -3    1.73    1.69
  -6  -7   3    4.34    1.89
  -6   7   3    0.40    1.29
   6  -7  -3    0.40    1.16
   6  -7  -2   -1.17    1.41
   6   7  -2    0.88    1.17
  -6   7   2    1.63    1.66
  -6  -7   2    1.15    1.68
  -6   7   2    0.79    1.46
  -6  -7   2    0.08    1.20
   6  -7  -2    0.80    1.53
   6  -7  -1   11.30    2.26
   6   7  -1   12.77    2.27
  -6  -7   1   11.88    2.49
  -6  -7   1    7.51    2.01
  -6   7   1   13.48    2.52
   6  -7  -1   10.61    2.20
   6  -7   0    1.42    1.34
   6  -7   0   -0.07    0.92
   6  -7   0    3.47    1.57
   6   7   0   -0.98    1.23
  -6  -7   0   -0.57    1.57
  -6   7   0    2.26    1.18
  -6  -7   0   -0.61    1.23
  -6   7   0   -0.06    1.16
   6  -7   1    1.11    1.28
   6  -7   1    2.44    1.39
   6  -7   1    3.27    1.57
   6   7   1    0.48    1.18
  -6   7  -1    1.80    1.21
  -6  -7  -1   -0.13    1.16
  -6   7  -1    2.55    1.63
   6  -7   2    0.58    1.38
   6   7   2    1.25    1.25
   6  -7   2    2.41    1.31
   6  -7   2   -0.79    1.26
  -6   7  -2   -0.20    0.99
  -6  -7  -2    1.80    1.31
   6  -7   3    0.81    1.57
   6   7   3    6.48    1.75
   6  -7   3    4.65    1.75
   6  -7   3    2.82    1.63
  -6   7  -3    1.54    1.37
  -6  -7  -3    2.12    1.53
   6   7   4    3.85    1.45
  -6  -7  -4    4.27    1.66
   7   0  -9   49.77    4.09
   7   0  -9   47.39    4.08
  -7   0   9   47.65    4.21
   7   0  -9   48.24    3.96
  -7   0   9   53.03    4.33
   7   0  -8   -0.50    1.30
   7   0  -8    0.53    1.32
   7   0  -8    1.31    1.31
  -7   0   8    0.57    1.40
   7   0  -7    3.78    1.41
   7   0  -7    3.24    0.96
   7   0  -7    1.97    0.82
   7   0  -7    2.76    1.30
  -7   0   7    1.91    1.32
   7   0  -7    1.32    1.05
  -7   0   7    2.30    0.89
  -7   0   7    3.00    1.03
   7   0  -6    2.23    1.27
   7   0  -6    1.85    0.82
   7   0  -6    2.29    1.00
   7   0  -6    2.24    1.35
  -7   0   6    0.71    0.69
  -7   0   6   -1.02    1.29
   7   0  -6   -0.12    0.90
  -7   0   6    1.49    0.84
  -7   0   6    1.46    0.96
   7   0  -5    9.41    1.41
   7   0  -5    9.68    1.62
   7   0  -5    9.52    1.43
   7   0  -5    9.12    1.74
  -7   0   5    9.81    1.03
  -7   0   5    8.93    1.64
  -7   0   5    8.55    1.39
   7   0  -5    8.20    1.42
  -7   0   5    8.13    1.54
   7   0  -4   19.90    1.94
   7   0  -4   16.22    1.85
  -7   0   4   18.22    1.01
   7   0  -4   19.30    2.25
   7   0  -4   18.85    1.86
   7   0  -4   19.04    1.90
  -7   0   4   17.90    1.95
   7   0  -4   19.67    1.91
  -7   0   4   20.28    2.11
   7   0  -3    0.96    0.77
   7   0  -3    1.04    0.88
   7   0  -3    0.90    1.02
   7   0  -3    1.51    1.22
   7   0  -3    0.87    0.95
  -7   0   3    0.40    0.78
  -7   0   3    0.96    1.01
   7   0  -3    1.64    0.81
   7   0  -2  265.51    6.73
  -7   0   2  259.63    5.62
   7   0  -2  268.56    7.51
   7   0  -2  267.10    6.70
   7   0  -2  275.51    5.37
  -7   0   2  271.43    6.21
   7   0  -2  265.73    6.79
  -7   0   2  265.97    7.25
   7   0  -1  200.51    6.06
  -7   0   1  205.26    4.52
   7   0  -1  201.86    6.52
  -7   0   1  207.53    2.99
   7   0  -1  203.17    6.06
   7   0  -1  209.87    4.08
  -7   0   1  204.99    5.05
   7   0  -1  206.58    6.14
  -7   0   1  206.87    6.47
  -7   0   0   15.48    1.17
   7   0   0   16.20    2.28
   7   0   0   15.74    2.02
   7   0   0   15.13    0.91
  -7   0   0   14.79    1.93
   7   0   0   16.93    1.95
  -7   0  -1    6.85    0.73
   7   0   1    4.10    1.48
   7   0   1    8.79    1.67
  -7   0  -1    7.99    1.33
   7   0   1    6.65    1.37
  -7   0  -1    3.79    1.30
   7   0   2  134.15    5.69
   7   0   2  118.84    5.12
  -7   0  -2  125.43    4.13
   7   0   2  128.93    5.38
  -7   0  -2  130.38    5.20
   7   0   2  124.61    2.79
   7   0   3   60.67    4.08
   7   0   3   60.14    3.80
  -7   0  -3   64.11    3.01
   7   0   3   59.25    3.87
  -7   0  -3   58.45    3.56
   7   0   4   13.59    2.47
   7   0   4   13.60    2.04
  -7   0  -4   12.37    1.44
   7   0   4   12.07    1.99
  -7   0  -4   12.80    1.84
   7   0   5    2.35    1.62
  -7   0  -5   -0.36    1.08
   7   0   5    0.83    1.17
  -7   0  -5    2.04    0.89
  -7   0  -5    4.29    1.61
  -7   0  -5    1.05    1.00
  -7   0  -6    5.86    1.36
  -7   0  -6    7.98    1.85
   7   0   6    6.33    2.11
   7   0   6    6.27    1.61
  -7   0  -6    5.38    1.73
  -7   0  -7    0.66    1.21
   7   0   7   -0.34    1.59
   7   0   7   -0.46    1.12
  -7   0  -7   -0.63    1.53
  -7  -1  10    5.36    2.03
   7   1  -9    1.94    1.26
   7  -1  -9    5.05    1.83
   7  -1  -9    0.76    1.22
   7   1  -9    3.74    1.67
   7  -1  -9    3.64    1.66
  -7   1   9    2.33    1.64
  -7  -1   9    0.48    1.23
  -7   1   9    2.49    1.70
  -7  -1   9    3.47    1.60
   7   1  -9    2.06    1.39
   7   1  -8   10.75    2.06
   7  -1  -8   14.73    2.29
   7  -1  -8   10.45    1.78
   7   1  -8   11.80    1.60
  -7   1   8   11.19    1.69
   7  -1  -8   11.81    2.25
   7   1  -8   11.29    2.23
  -7   1   8   14.47    2.08
   7  -1  -8   11.42    1.95
  -7  -1   8   12.72    2.25
  -7   1   8    9.76    2.05
  -7  -1   8   12.39    2.23
   7   1  -8   13.27    2.20
  -7  -1   8    7.98    1.47
  -7  -1   7    2.15    0.93
   7   1  -7    3.67    1.33
   7   1  -7    2.27    1.28
   7  -1  -7    2.74    1.44
   7  -1  -7    1.12    0.97
   7   1  -7    3.08    1.13
   7  -1  -7    2.95    1.36
   7   1  -7    1.64    1.28
  -7   1   7    1.08    0.87
  -7   1   7    5.64    1.58
   7  -1  -7    0.49    0.96
  -7   1   7    3.57    1.41
  -7  -1   7    4.27    1.59
  -7  -1   7    2.21    0.94
  -7   1   7    3.80    1.12
   7   1  -6   82.24    4.36
   7  -1  -6   84.04    4.56
   7  -1  -6   78.22    3.96
   7   1  -6   82.63    3.33
   7  -1  -6   84.57    4.76
   7   1  -6   85.34    4.75
  -7   1   6   83.44    3.43
   7  -1  -6   76.66    4.03
   7  -1  -6   80.58    3.18
   7   1  -6   84.03    3.93
  -7   1   6   80.98    3.32
  -7  -1   6   74.67    3.86
  -7   1   6   80.66    4.48
  -7  -1   6   81.80    4.39
   7   1  -6   80.81    4.30
  -7   1   6   76.51    3.93
  -7  -1   6   80.79    4.06
   7  -1  -5   -0.15    0.68
   7   1  -5    1.26    1.06
   7  -1  -5    2.62    1.29
   7  -1  -5    1.07    0.97
   7   1  -5    0.36    0.69
   7   1  -5    1.45    0.90
   7  -1  -5    0.44    1.12
   7   1  -5    0.83    1.04
  -7   1   5    1.16    0.65
   7  -1  -5   -0.21    0.81
  -7   1   5    0.84    1.09
  -7  -1   5    0.47    0.93
  -7   1   5    1.54    0.78
  -7  -1   5    0.35    0.94
  -7   1   5    1.30    0.96
  -7  -1   5    0.58    0.97
   7   1  -4   18.06    1.70
   7  -1  -4   19.61    2.11
   7   1  -4   17.12    1.79
   7   1  -4   18.17    1.87
  -7  -1   4   15.76    0.78
   7  -1  -4   17.65    2.19
  -7   1   4   18.51    1.30
   7   1  -4   13.15    1.89
   7  -1  -4   20.06    1.81
   7  -1  -4   16.61    1.69
  -7   1   4   16.16    1.94
  -7  -1   4   15.52    1.78
   7   1  -4   19.31    1.88
   7  -1  -4   17.50    1.73
  -7  -1   4   17.84    1.96
  -7  -1   4   17.39    2.06
  -7   1   4   18.91    2.10
   7  -1  -3    1.17    0.84
   7   1  -3    0.72    0.74
   7   1  -3    0.97    0.94
   7   1  -3   -0.62    0.87
   7  -1  -3    3.41    1.27
   7  -1  -3    2.32    1.37
   7   1  -3   -0.98    1.16
   7  -1  -3    0.20    0.74
   7   1  -3    0.37    0.87
   7  -1  -3    1.49    0.67
  -7   1   3   -0.01    0.88
  -7  -1   3    1.03    0.76
   7   1  -3    0.07    0.72
  -7   1   3    1.29    1.20
  -7  -1   3    2.42    1.23
  -7  -1   2  118.54    3.57
   7   1  -2  123.15    4.36
   7  -1  -2  119.52    4.78
   7   1  -2  123.26    3.66
   7  -1  -2  119.19    5.08
   7   1  -2  118.79    5.03
   7  -1  -2  120.30    3.38
   7  -1  -2  123.66    4.49
   7   1  -2  123.97    4.82
  -7  -1   2  120.09    3.88
   7  -1  -2  114.47    4.38
   7   1  -2  115.11    3.79
   7   1  -2  124.81    4.87
  -7   1   2  124.19    5.08
  -7  -1   2  124.54    5.06
   7   1  -1  304.80    7.14
  -7  -1   1  304.39    4.82
   7  -1  -1  309.36    7.78
  -7   1   1  287.45    6.05
   7  -1  -1  293.66    8.05
   7   1  -1  296.89    7.80
  -7  -1   1  299.36    5.03
   7  -1  -1  307.92    4.34
   7  -1  -1  310.17    7.29
   7   1  -1  308.04    7.66
  -7  -1   1  316.96    5.68
   7  -1  -1  298.46    7.26
   7   1  -1  306.14    7.69
  -7   1   1  311.04    7.98
   7   1  -1  308.54    5.61
  -7  -1   1  310.26    7.92
   7   1   0   16.09    1.96
   7  -1   0   10.00    1.86
  -7   1   0   10.02    1.20
   7  -1   0   13.14    2.05
   7   1   0   15.44    2.10
   7  -1   0   14.06    1.83
  -7  -1   0   13.36    0.99
   7   1   0   13.14    1.81
  -7  -1   0   14.58    1.19
   7   1   0   12.90    1.16
   7  -1   0   13.59    1.78
   7  -1   0   11.84    0.69
  -7   1   0   14.19    1.95
  -7  -1   0   15.30    2.08
   7   1   1    7.12    1.56
  -7   1  -1   11.29    1.16
   7  -1   1    8.03    1.66
   7   1   1    9.04    1.70
   7  -1   1    8.72    1.56
   7   1   1    8.86    1.50
   7  -1   1    8.83    0.78
  -7   1  -1   11.46    1.28
  -7  -1  -1   12.18    1.68
  -7  -1  -1   11.34    0.90
   7  -1   1   10.00    1.60
   7  -1   1    9.59    0.86
  -7   1  -1    9.28    1.60
   7   1   1   10.70    0.95
  -7  -1  -1   10.37    1.68
   7  -1   2    2.48    0.80
   7  -1   2    1.90    1.39
   7   1   2    0.69    1.24
   7  -1   2    2.60    1.09
   7   1   2    1.49    0.40
   7   1   2    3.48    1.30
  -7   1  -2    0.78    0.64
  -7  -1  -2    2.41    1.06
  -7  -1  -2    2.15    0.38
   7  -1   2    2.35    1.09
  -7   1  -2    1.71    1.14
   7   1   2    0.84    1.05
  -7  -1  -2    4.41    1.33
   7  -1   3   11.88    2.11
   7   1   3    8.40    1.97
   7  -1   3    9.81    1.83
  -7   1  -3    8.43    1.74
   7   1   3    9.53    1.78
  -7   1  -3    8.10    1.01
  -7  -1  -3    9.65    1.53
   7   1   3    7.63    1.66
  -7   1  -3    9.29    1.64
  -7  -1  -3    7.09    1.39
  -7  -1  -4    4.88    1.28
   7  -1   4    9.28    2.02
   7   1   4    8.79    2.05
  -7   1  -4    6.37    1.61
   7  -1   4    5.58    1.66
   7   1   4    7.04    1.75
  -7  -1  -4    6.08    1.30
  -7  -1  -4    6.66    1.84
   7   1   4    5.21    1.56
  -7   1  -4    4.12    1.29
  -7  -1  -5   14.42    1.97
  -7   1  -5   14.75    2.23
   7  -1   5   17.89    2.62
   7   1   5   15.79    2.47
   7  -1   5   16.25    2.30
   7   1   5   16.96    2.38
  -7  -1  -5   14.39    1.83
  -7  -1  -5   18.72    2.62
  -7   1  -5   17.05    2.54
   7   1   5   19.81    2.42
  -7   1  -5   14.92    1.96
   7   1   6   54.88    4.47
   7  -1   6   59.52    4.69
  -7  -1  -6   48.88    3.23
  -7  -1  -6   56.95    4.35
  -7   1  -6   50.89    4.16
   7  -1   6   49.70    4.02
   7   1   6   50.28    4.02
  -7   1  -6   53.74    4.11
  -7   1  -6   49.62    3.38
  -7  -1  -6   52.20    3.45
  -7  -1  -6   46.81    3.84
  -7   1  -7   12.69    2.24
  -7  -1  -7   12.59    2.30
   7   1   7   16.08    2.83
   7  -1   7   14.69    2.71
   7  -1   7   15.25    2.55
   7   1   7   10.34    1.99
  -7  -1  -7   12.32    2.45
  -7   1  -7   12.82    2.41
  -7  -2  10    0.66    1.26
   7   2  -9   26.36    3.10
   7  -2  -9   29.22    3.37
   7  -2  -9   24.73    2.99
   7  -2  -9   22.77    3.04
  -7   2   9   18.64    2.33
   7   2  -9   25.21    3.09
  -7   2   9   25.06    3.33
  -7  -2   9   25.82    2.94
   7   2  -9   30.80    3.36
  -7   2   9   25.15    3.30
   7   2  -8    2.60    1.41
   7  -2  -8    1.75    1.39
   7   2  -8    0.18    1.05
   7  -2  -8    3.45    1.41
   7  -2  -8    1.54    1.27
   7   2  -8    2.89    1.14
   7  -2  -8    1.45    1.23
   7   2  -8    2.61    1.62
  -7   2   8   -0.59    1.02
  -7   2   8    0.14    1.11
  -7  -2   8    2.38    1.45
  -7   2   8    1.14    1.44
  -7  -2   8   -0.36    0.99
   7   2  -7   -0.79    1.22
   7  -2  -7    3.56    1.48
   7  -2  -7    1.77    1.13
   7  -2  -7    1.52    0.94
   7   2  -7    0.48    0.99
   7  -2  -7    0.77    1.27
   7   2  -7    1.55    1.23
  -7   2   7    0.86    0.88
   7   2  -7    2.06    1.21
  -7   2   7    1.50    1.17
  -7   2   7    2.33    1.36
  -7  -2   7    1.53    1.42
  -7  -2   7    0.88    1.03
  -7   2   7    0.60    0.85
  -7  -2   6    1.48    1.03
   7   2  -6    1.48    0.99
   7  -2  -6    3.14    1.39
   7  -2  -6    0.74    0.97
   7   2  -6    1.28    1.00
   7  -2  -6    1.47    1.27
   7   2  -6    1.51    1.12
  -7   2   6    2.37    1.00
  -7   2   6    2.29    1.29
   7   2  -6    1.03    1.06
  -7   2   6    1.52    1.28
  -7  -2   6    3.48    1.45
  -7  -2   6    0.35    0.91
  -7   2   6    1.29    1.02
  -7  -2   5   14.18    1.92
   7   2  -5   13.09    1.22
   7   2  -5   16.43    1.88
   7  -2  -5   13.67    1.94
   7  -2  -5   15.07    1.79
   7   2  -5   13.69    1.87
   7  -2  -5   12.62    2.03
   7   2  -5   13.10    1.86
  -7   2   5   11.83    1.41
   7  -2  -5   15.02    1.40
  -7   2   5   15.00    2.20
  -7   2   5   15.99    2.19
  -7  -2   5   18.31    2.12
   7  -2  -5   14.75    1.37
   7   2  -5   12.94    1.89
  -7  -2   5   13.24    1.93
  -7   2   5   10.94    1.77
  -7  -2   4    1.70    1.02
   7   2  -4    2.01    1.02
   7  -2  -4    1.21    0.75
   7   2  -4    0.99    0.70
   7  -2  -4    0.68    1.01
   7   2  -4    1.34    0.91
   7  -2  -4    0.99    1.17
   7   2  -4    2.29    1.24
   7   2  -4    1.97    1.06
  -7   2   4    1.09    0.65
  -7   2   4    1.37    0.79
   7  -2  -4   -0.24    0.60
  -7   2   4    0.74    0.95
  -7  -2   4    2.66    1.17
  -7  -2   4    1.33    1.06
   7  -2  -4    1.64    0.74
  -7   2   4    1.88    1.07
  -7  -2   3    7.05    1.52
   7  -2  -3    8.08    1.16
   7   2  -3    9.42    1.26
   7   2  -3    8.19    1.13
   7  -2  -3    6.68    1.50
   7   2  -3    9.02    1.60
   7  -2  -3   11.01    1.95
   7   2  -3    8.87    1.70
   7  -2  -3    7.94    1.29
  -7   2   3    6.98    0.95
   7   2  -3   10.42    1.71
  -7   2   3   10.16    1.33
  -7  -2   3    7.66    1.27
   7   2  -3    8.57    1.41
   7  -2  -3    9.06    1.27
  -7   2   3    7.69    1.57
   7   2  -2  102.38    3.79
   7  -2  -2  103.06    4.72
   7   2  -2  101.82    3.15
   7  -2  -2   96.58    4.69
   7   2  -2   95.96    4.42
  -7   2   2   97.63    2.26
  -7   2   2   97.15    3.56
   7  -2  -2  100.27    3.96
   7   2  -2   98.51    4.53
  -7  -2   2  105.71    3.49
   7  -2  -2   98.99    4.01
   7   2  -2  106.35    4.73
  -7   2   2  101.58    4.70
  -7  -2   2  100.35    4.67
   7  -2  -2  101.45    2.87
   7   2  -2   94.16    3.77
   7  -2  -1  302.82    8.11
   7  -2  -1  313.72    8.29
   7   2  -1  310.33    7.83
  -7  -2   1  304.60    6.15
   7  -2  -1  313.25    7.32
   7   2  -1  311.79    8.02
  -7  -2   1  331.55    5.24
   7  -2  -1  316.98    7.46
   7   2  -1  309.64    8.08
  -7   2   1  317.51    8.27
  -7  -2   1  311.57    8.14
   7  -2  -1  323.67    5.05
  -7  -2   0    2.04    1.15
   7   2   0    1.27    0.88
   7  -2   0    3.32    1.41
   7  -2   0    1.13    1.25
   7   2   0    0.27    1.01
   7  -2   0    0.29    0.85
  -7   2   0    3.42    1.18
   7  -2   0    1.28    0.56
  -7  -2   0    0.84    0.78
   7   2   0    1.53    1.08
  -7   2   0    1.39    1.20
   7  -2   0    0.86    0.59
  -7  -2  -1    3.47    1.15
   7  -2   1    2.72    0.71
   7   2   1    3.44    1.27
   7  -2   1    1.44    1.28
   7  -2   1    0.59    1.10
   7   2   1    1.99    1.22
   7  -2   1    2.98    1.09
  -7   2  -1    3.37    1.15
   7   2   1    3.29    1.34
  -7   2  -1    3.01    0.59
  -7  -2  -1    3.73    1.23
  -7   2  -1    4.70    1.44
   7  -2   2  167.01    6.46
   7   2   2  166.02    6.18
   7   2   2  167.17    3.14
  -7  -2  -2  169.95    5.87
   7   2   2  152.28    6.02
   7  -2   2  169.15    6.19
   7   2   2  170.28    6.35
  -7   2  -2  177.71    6.31
  -7  -2  -2  163.79    6.05
  -7   2  -2  170.34    6.13
   7  -2   2  166.42    4.63
   7   2   3   28.20    2.83
   7  -2   3   29.43    3.06
   7   2   3   27.70    1.68
  -7  -2  -3   26.76    2.42
   7   2   3   26.44    2.67
   7  -2   3   31.94    2.93
   7   2   3   26.90    2.75
  -7   2  -3   34.22    2.93
  -7   2  -3   27.76    2.79
  -7  -2  -3   31.79    2.79
  -7  -2  -4   14.36    2.04
  -7   2  -4   13.23    1.98
   7  -2   4   12.11    2.34
   7   2   4   12.94    2.32
   7  -2   4    9.27    1.73
   7   2   4    9.77    1.27
   7   2   4   10.11    1.86
  -7  -2  -4   10.75    1.72
  -7  -2  -4   13.96    2.31
   7   2   4   13.22    2.14
  -7   2  -4   13.08    2.00
  -7  -2  -5    2.19    1.18
  -7   2  -5    0.65    1.10
   7  -2   5   -0.81    1.64
   7   2   5    1.35    1.40
   7  -2   5   -0.29    1.13
   7   2   5    0.88    1.01
  -7  -2  -5    1.47    1.01
  -7  -2  -5    1.73    1.37
  -7   2  -5    4.14    1.84
   7   2   5    0.53    1.08
  -7   2  -5    1.41    1.02
  -7   2  -6    1.75    1.39
   7  -2   6    3.95    1.81
   7   2   6    3.05    1.84
   7  -2   6    2.96    1.51
   7   2   6    0.77    1.01
  -7  -2  -6    4.70    1.54
  -7  -2  -6    2.79    1.49
  -7   2  -6    3.22    1.71
   7   2   6    4.24    1.58
  -7   2  -6    0.82    1.04
   7   2   7    3.30    2.12
  -7  -2  -7    1.68    1.31
   7   2   7    2.37    1.38
  -7  -2  -7   -0.95    0.98
   7   3  -9    4.49    1.58
   7   3  -9    4.84    1.47
  -7   3   9    5.69    1.70
  -7   3   9    5.14    1.60
  -7   3   9    6.69    1.93
  -7  -3   9    9.00    1.99
  -7  -3   9    8.01    1.75
   7   3  -8   -0.08    1.11
   7  -3  -8    1.28    1.18
   7  -3  -8   -0.48    1.17
   7   3  -8    0.66    1.24
   7   3  -8    3.91    1.40
  -7   3   8    1.80    1.19
  -7   3   8    0.19    1.19
  -7   3   8    0.37    1.30
  -7   3   8    0.08    1.49
  -7  -3   8    0.20    1.07
   7   3  -8    1.99    1.29
  -7   3   8    4.11    1.87
  -7  -3   8    0.28    0.96
   7   3  -7    1.11    1.06
   7  -3  -7    1.54    1.18
   7  -3  -7    0.28    1.05
   7   3  -7    1.31    1.25
   7   3  -7    0.45    0.93
  -7   3   7    2.89    1.27
  -7   3   7    0.53    0.96
  -7   3   7    1.78    1.16
  -7  -3   7    1.16    1.14
  -7   3   7   -0.19    1.27
   7   3  -7    0.57    1.11
  -7  -3   7    1.95    1.22
  -7   3   7    1.25    1.06
   7   3  -6   15.10    2.02
   7   3  -6   16.27    2.27
   7  -3  -6   17.04    2.30
   7  -3  -6   15.41    2.28
   7   3  -6   17.22    2.26
   7   3  -6   17.72    2.38
  -7   3   6   16.38    2.03
  -7   3   6   16.89    2.03
  -7   3   6   19.31    2.56
  -7   3   6   17.07    2.42
  -7  -3   6   17.97    2.36
  -7   3   6   17.42    2.18
   7   3  -5   14.98    1.90
   7  -3  -5   16.68    2.19
   7  -3  -5   19.64    2.51
   7   3  -5   16.46    2.12
   7   3  -5   18.11    2.25
  -7   3   5   19.37    1.99
  -7   3   5   14.67    1.76
  -7   3   5   16.07    2.49
   7   3  -5   18.66    2.26
  -7   3   5   15.98    2.24
  -7  -3   5   16.35    2.32
  -7   3   5   17.94    2.28
   7   3  -4    1.51    0.84
  -7   3   4    2.25    0.79
   7  -3  -4    1.93    1.24
   7   3  -4    0.28    1.03
   7  -3  -4    2.01    1.30
   7   3  -4    0.28    1.03
   7  -3  -4    0.45    0.56
  -7   3   4    0.46    0.69
   7   3  -4    0.97    0.99
  -7   3   4    1.13    1.00
  -7   3   4    2.57    1.56
  -7  -3   4    3.13    1.29
  -7   3   4    1.59    1.22
   7  -3  -4    1.79    0.84
  -7  -3   3   -0.24    0.98
   7   3  -3    0.29    0.61
   7   3  -3   -0.06    0.60
   7  -3  -3    2.34    1.38
  -7   3   3   -0.19    0.58
   7   3  -3    0.51    0.96
   7  -3  -3    3.19    1.41
   7   3  -3    0.15    0.89
   7  -3  -3    0.36    0.65
  -7   3   3   -1.04    0.85
  -7  -3   3    0.41    0.94
   7   3  -3    2.31    1.17
  -7   3   3    0.45    0.89
   7  -3  -3    0.18    0.65
   7   3  -2  104.81    3.63
   7  -3  -2  107.48    5.10
   7   3  -2  104.80    3.21
   7  -3  -2  100.75    4.83
   7   3  -2  105.99    4.58
  -7   3   2  105.32    2.72
   7   3  -2  109.61    5.05
   7  -3  -2  107.64    4.18
  -7   3   2  108.83    5.04
   7   3  -2  102.04    4.92
  -7   3   2  106.60    4.12
  -7  -3   2  105.42    4.98
   7  -3  -2  104.38    3.67
   7  -3  -1  162.29    6.26
   7   3  -1  155.90    2.96
   7  -3  -1  163.94    6.14
   7   3  -1  156.41    5.53
   7   3  -1  164.32    6.18
   7  -3  -1  159.72    5.32
  -7   3   1  160.93    6.16
   7   3  -1  156.46    6.08
  -7   3   1  164.12    5.37
  -7  -3   1  162.37    6.15
   7  -3  -1  161.36    4.53
   7  -3   0    2.50    0.85
  -7  -3   0    4.78    1.47
   7   3   0    3.39    1.37
   7  -3   0    3.48    1.27
  -7   3   0    4.88    1.30
   7  -3   0    4.47    1.31
   7  -3   0    1.59    1.26
   7   3   0    2.53    1.11
   7   3   0    3.29    1.41
  -7  -3   0    4.61    1.58
  -7   3   0    3.58    1.40
  -7  -3  -1   19.42    2.38
   7   3   1   17.30    2.21
   7  -3   1   18.85    2.40
   7   3   1   21.46    2.33
   7  -3   1   18.59    2.27
   7   3   1   18.18    2.27
  -7  -3  -1   16.88    2.25
   7  -3   1   22.36    2.35
  -7   3  -1   21.68    2.23
  -7   3  -1   19.84    2.28
   7  -3   1   20.62    1.88
   7  -3   2    5.26    1.25
  -7  -3  -2    3.53    1.35
   7   3   2    5.48    1.37
  -7   3  -2    5.69    1.49
   7  -3   2    5.70    1.86
   7  -3   2    5.68    1.40
   7  -3   2    4.34    1.38
   7   3   2    3.68    1.36
   7   3   2    6.66    1.70
  -7  -3  -2    3.73    1.52
  -7   3  -2    5.61    1.41
   7  -3   3   31.76    3.26
   7  -3   3   33.69    3.28
   7   3   3   31.08    2.90
   7   3   3   29.78    2.89
  -7  -3  -3   31.40    2.92
  -7  -3  -3   26.58    2.63
   7  -3   3   32.27    3.05
   7   3   3   33.00    3.09
  -7   3  -3   31.14    2.95
  -7   3  -3   33.13    3.04
   7  -3   3   30.05    2.54
  -7   3  -4   -0.12    1.07
   7  -3   4    1.60    1.29
   7  -3   4    1.85    1.58
   7   3   4    0.29    1.19
   7   3   4    2.37    1.35
  -7  -3  -4    1.05    1.06
  -7  -3  -4    3.46    1.36
  -7   3  -4    1.31    1.09
   7   3   4    1.39    1.00
  -7   3  -5    1.73    1.34
   7  -3   5    1.80    1.25
   7  -3   5   -0.59    1.49
   7   3   5   -0.67    1.35
   7   3   5   -1.76    1.11
  -7  -3  -5   -0.79    1.19
  -7  -3  -5   -0.90    1.28
  -7   3  -5    2.90    1.54
   7   3   5    0.63    1.02
  -7   3  -5    0.80    1.00
   7  -3   6   16.98    2.68
   7  -3   6   16.85    2.87
   7   3   6   12.70    2.48
   7   3   6   16.23    2.47
  -7  -3  -6   13.89    2.20
  -7  -3  -6   16.18    2.50
  -7   3  -6   17.96    2.72
   7   3   6   13.41    2.26
  -7   3  -6   13.38    2.01
  -7   3  -6   15.08    2.56
   7   3   7   22.45    3.20
   7   3   7   19.89    2.81
  -7  -3  -7   18.61    2.61
  -7   4   9   17.89    2.63
  -7   4   9    9.97    2.11
  -7  -4   9   13.65    2.32
   7   4  -8   -0.23    1.15
   7  -4  -8    0.21    1.30
   7  -4  -8    1.70    1.41
   7   4  -8    1.14    1.34
  -7   4   8    0.61    1.20
  -7   4   8    2.02    1.49
  -7   4   8    1.56    1.21
  -7   4   8    2.18    1.18
  -7  -4   8    2.72    1.49
   7   4  -7    1.93    1.37
   7   4  -7    1.55    1.31
   7  -4  -7    0.97    1.20
   7  -4  -7    1.08    1.20
   7   4  -7    1.25    1.02
   7   4  -7    1.14    1.02
  -7   4   7    0.03    1.35
  -7   4   7    2.88    1.48
  -7   4   7    0.58    1.27
  -7   4   7    3.46    1.64
  -7  -4   7    4.60    1.72
  -7   4   7    2.75    1.41
   7   4  -6    1.34    1.07
   7  -4  -6   -0.49    1.31
   7  -4  -6    3.76    1.59
   7   4  -6   -0.38    1.01
   7   4  -6    1.25    1.06
  -7   4   6    1.75    1.26
  -7   4   6    1.22    1.06
  -7   4   6    1.03    1.36
  -7   4   6    2.67    1.53
   7   4  -6    0.82    1.01
  -7  -4   6    0.91    1.21
  -7   4   6    1.05    1.04
   7   4  -5    5.68    1.40
   7  -4  -5    5.56    1.68
   7  -4  -5    3.63    1.39
   7   4  -5    7.72    1.59
   7   4  -5    3.54    1.25
  -7   4   5    4.64    1.27
  -7   4   5    5.33    1.48
  -7   4   5    4.45    1.66
   7   4  -5    7.89    1.77
  -7   4   5    8.19    1.98
  -7  -4   5    6.38    1.63
  -7   4   5    5.91    1.51
   7  -4  -5    5.98    1.44
   7   4  -4    0.20    0.81
   7  -4  -4    1.46    1.10
   7  -4  -4   -0.19    1.08
   7   4  -4   -0.35    1.12
   7   4  -4   -1.32    0.94
  -7   4   4   -1.57    1.04
  -7   4   4    1.23    1.18
  -7   4   4    2.09    1.65
   7   4  -4    1.57    1.26
  -7  -4   4    0.63    1.12
  -7   4   4    0.30    0.98
   7  -4  -4    1.00    0.88
   7   4  -3    5.26    1.12
   7  -4  -3    8.62    1.74
   7   4  -3    4.75    1.43
   7  -4  -3    5.71    1.62
   7   4  -3    7.64    1.48
   7  -4  -3    5.96    1.09
  -7   4   3   11.06    2.18
  -7  -4   3    7.62    1.92
  -7   4   3    8.13    1.75
   7  -4  -3    7.90    1.46
  -7   4   3    6.59    1.11
   7   4  -2   35.80    2.01
   7  -4  -2   38.12    3.34
   7  -4  -2   34.73    3.02
   7   4  -2   36.56    2.76
   7   4  -2   37.13    3.18
  -7  -4   2   36.85    3.26
   7  -4  -2   37.90    2.56
  -7   4   2   37.10    2.50
  -7   4   2   37.24    3.22
   7  -4  -2   38.81    2.70
   7  -4  -1  183.43    6.96
   7  -4  -1  182.23    6.53
   7   4  -1  181.88    5.82
   7   4  -1  189.82    7.02
  -7  -4   1  181.88    6.99
   7  -4  -1  182.02    5.81
  -7   4   1  187.86    5.89
  -7   4   1  178.59    6.81
   7  -4  -1  188.72    5.69
   7  -4   0   -0.65    0.90
  -7   4   0    1.05    1.00
   7  -4   0    0.08    1.23
   7   4   0   -0.81    1.21
   7  -4   0    0.80    1.09
   7  -4   0    2.11    1.11
   7   4   0    0.66    0.90
   7   4   0   -0.09    1.01
  -7   4   0   -0.54    1.01
   7  -4   1    1.59    1.08
  -7   4  -1    2.38    1.14
   7   4   1   -0.40    1.11
   7  -4   1    1.60    1.37
   7  -4   1    1.61    1.10
   7  -4   1    1.21    1.32
   7   4   1    1.70    1.04
   7   4   1    1.93    1.31
  -7  -4  -1    3.14    1.47
  -7   4  -1    0.55    1.07
   7  -4   2   90.04    5.16
   7  -4   2   90.08    4.94
   7   4   2   96.66    4.60
  -7  -4  -2   90.72    5.01
   7   4   2   93.32    5.04
  -7  -4  -2   90.25    4.46
   7  -4   2   95.28    4.94
  -7   4  -2   87.23    4.70
  -7   4  -2   95.57    5.08
   7   4   2   88.01    5.00
   7  -4   2   90.05    4.34
   7   4   3   21.59    2.58
   7  -4   3   22.43    2.82
   7  -4   3   15.93    2.31
   7  -4   3   22.20    2.80
   7   4   3   15.39    2.11
   7   4   3   24.29    2.81
  -7  -4  -3   17.16    2.43
  -7  -4  -3   19.34    2.34
  -7   4  -3   19.79    2.55
   7  -4   3   22.77    2.49
  -7   4  -3   17.36    2.35
   7   4   4    3.49    1.39
   7  -4   4    3.91    1.42
   7  -4   4    7.30    2.06
   7  -4   4    7.88    2.03
   7  -4   4    3.07    1.49
   7   4   4    4.16    1.44
   7   4   4    3.54    1.32
  -7  -4  -4    5.76    1.82
  -7  -4  -4    6.03    1.57
  -7   4  -4    3.68    1.41
  -7   4  -4    5.52    1.66
   7  -4   5    1.63    1.67
   7  -4   5    4.75    1.89
   7  -4   5    1.74    1.47
   7  -4   5   -0.03    1.35
   7   4   5    0.74    1.21
   7   4   5    0.93    1.20
  -7  -4  -5    1.57    1.21
  -7  -4  -5    0.24    1.19
  -7   4  -5    4.10    1.74
  -7   4  -5    1.10    1.21
  -7   4  -5    1.10    1.21
   7   4   5    1.29    1.02
   7  -4   6    1.31    1.74
   7  -4   6    2.99    1.81
   7   4   6    1.54    1.36
   7   4   6    1.80    1.41
  -7  -4  -6    0.83    1.17
  -7  -4  -6    0.37    1.38
  -7   4  -6    2.84    1.57
   7   4   6    0.94    1.18
  -7   4  -6   -0.92    1.19
   7   5  -8    4.37    1.75
   7  -5  -8    4.33    1.60
  -7   5   8    2.97    1.69
  -7   5   8    1.41    1.63
   7   5  -7    0.39    1.13
   7  -5  -7    2.60    1.51
   7   5  -7    1.89    1.07
  -7   5   7   -0.34    1.20
  -7   5   7    0.30    1.26
  -7   5   7   -0.52    1.58
  -7   5   7    2.59    1.45
  -7   5   7   -0.82    1.15
  -7  -5   7   -0.06    1.30
   7   5  -6   16.94    2.31
   7  -5  -6   20.70    3.00
   7   5  -6   19.77    2.75
   7  -5  -6   20.13    2.63
   7   5  -6   16.85    2.59
  -7   5   6   18.74    2.54
  -7   5   6   24.62    3.27
  -7   5   6   17.99    2.71
  -7  -5   6   13.43    2.50
  -7   5   6   17.79    2.51
   7  -5  -6   20.70    2.60
   7   5  -5    0.54    0.93
   7  -5  -5    4.52    1.92
   7  -5  -5    0.21    1.10
   7   5  -5    0.85    0.94
   7   5  -5   -0.28    1.09
  -7   5   5    1.17    1.43
  -7   5   5    1.11    1.46
   7   5  -5    0.89    1.15
  -7  -5   5    1.35    1.15
  -7   5   5    3.24    1.41
   7  -5  -5   -0.59    1.08
   7   5  -4    8.89    1.51
   7  -5  -4    8.65    1.86
   7  -5  -4    8.32    1.61
   7   5  -4   11.15    2.11
   7   5  -4    9.04    1.56
  -7   5   4   11.59    2.12
  -7   5   4   11.88    2.37
  -7  -5   4   10.27    2.09
  -7   5   4   11.14    2.12
   7  -5  -4    9.52    1.72
   7  -5  -3    2.40    1.22
   7   5  -3    4.19    1.57
   7  -5  -3    2.26    1.15
   7   5  -3    3.40    1.05
  -7   5   3    3.61    1.94
  -7  -5   3    2.90    1.30
  -7   5   3    2.53    1.43
   7  -5  -3    3.04    1.28
   7  -5  -2   39.02    3.57
   7  -5  -2   41.96    3.23
   7   5  -2   40.39    2.70
   7   5  -2   39.00    3.46
  -7  -5   2   38.44    3.53
   7  -5  -2   35.26    2.51
  -7   5   2   40.62    2.70
  -7   5   2   38.58    3.43
   7  -5  -2   37.43    2.93
   7  -5  -1   55.81    4.17
   7  -5  -1   60.75    3.89
   7   5  -1   59.73    3.29
  -7  -5   1   59.36    4.42
   7   5  -1   63.81    4.43
  -7  -5   1   58.17    4.29
   7  -5  -1   53.37    3.31
  -7   5   1   58.74    3.43
  -7   5   1   59.76    4.26
   7  -5  -1   61.49    3.71
   7  -5   0    1.73    0.95
   7  -5   0    3.48    1.39
   7   5   0    2.17    1.24
   7  -5   0    1.89    1.05
   7  -5   0    1.89    1.21
   7   5   0    1.61    0.97
  -7  -5   0    6.70    1.95
  -7  -5   0    3.57    1.09
  -7  -5   0    4.31    1.63
  -7   5   0    3.11    1.16
  -7   5   0    3.78    1.47
   7  -5   1    1.99    1.15
   7   5   1    3.01    1.51
   7  -5   1    2.87    1.43
   7  -5   1    2.58    1.14
   7  -5   1    2.95    1.45
  -7  -5  -1    2.22    1.44
  -7  -5  -1    2.76    1.10
  -7  -5  -1    3.19    1.40
  -7   5  -1    2.81    1.21
  -7   5  -1    1.25    1.15
   7  -5   2   -1.50    1.44
   7   5   2   -0.01    1.04
   7  -5   2   -1.27    1.59
   7  -5   2    0.50    1.06
   7  -5   2    1.34    1.35
   7   5   2    1.08    1.29
  -7  -5  -2   -2.52    1.58
  -7  -5  -2   -1.59    1.02
  -7   5  -2    1.91    1.15
  -7   5  -2   -0.34    1.28
   7  -5   3    5.87    1.81
   7   5   3    3.20    1.52
   7  -5   3    3.26    1.72
   7  -5   3    2.95    1.38
   7  -5   3    5.07    1.69
   7   5   3    4.39    1.58
  -7  -5  -3    9.75    2.22
  -7  -5  -3    3.53    1.32
  -7   5  -3    4.03    1.52
  -7   5  -3    6.72    1.68
   7  -5   4    3.92    1.75
   7   5   4    0.82    1.39
   7  -5   4    1.42    1.70
   7  -5   4    2.99    1.59
   7  -5   4   -0.38    1.43
   7   5   4    1.04    1.27
  -7  -5  -4    1.16    1.50
  -7  -5  -4    0.99    1.08
  -7   5  -4    4.46    1.68
  -7   5  -4    1.97    1.43
   7  -5   5    1.86    1.47
   7  -5   5    0.00    1.52
   7  -5   5   -2.41    1.56
   7   5   5    2.53    1.32
  -7  -5  -5    0.09    1.08
  -7   5  -5    3.81    1.77
  -7   5  -5    3.45    1.42
   7   5   5    1.07    1.39
  -7   5  -6   16.45    2.42
   7   6  -6    1.95    1.19
   7  -6  -6   -1.66    1.37
  -7   6   6    1.23    1.42
  -7   6   6    1.30    1.19
  -7   6   6    1.35    1.16
   7  -6  -6   -0.51    1.25
   7  -6  -5   -0.09    1.07
  -7   6   5    1.22    1.56
  -7   6   5   -1.41    1.18
   7  -6  -5   -0.30    1.15
   7  -6  -4   -0.44    1.38
   7  -6  -4    1.56    1.29
   7   6  -4    3.23    1.69
  -7   6   4    3.11    1.99
  -7  -6   4    1.47    1.46
  -7   6   4    1.05    1.16
   7  -6  -4    1.88    1.50
   7  -6  -3   -0.21    1.48
   7  -6  -3   -0.65    0.99
   7   6  -3    1.57    1.28
  -7   6   3    2.87    1.99
  -7  -6   3   -1.32    1.10
  -7   6   3    0.22    1.02
   7  -6  -3   -2.11    1.28
   7  -6  -2   35.66    3.65
   7  -6  -2   29.25    2.79
  -7  -6   2   40.89    4.00
   7   6  -2   33.77    3.53
  -7  -6   2   26.84    3.10
  -7   6   2   28.53    3.22
   7  -6  -2   30.34    3.07
   7  -6  -1   44.24    4.00
   7  -6  -1   40.73    3.26
  -7  -6   1   42.21    4.02
   7   6  -1   46.51    4.01
  -7  -6   1   44.74    3.86
   7  -6  -1   40.92    3.01
  -7   6   1   36.32    3.58
   7  -6  -1   38.41    3.37
   7  -6   0    6.00    1.78
   7  -6   0    7.74    2.07
   7   6   0    6.66    1.89
   7  -6   0    5.27    1.48
   7  -6   0    4.66    1.42
  -7  -6   0    7.72    2.07
  -7   6   0    6.64    1.63
  -7  -6   0    5.37    1.87
  -7   6   0    4.89    1.65
   7  -6   1    2.30    1.40
   7   6   1    0.62    1.12
   7  -6   1   -0.09    1.44
   7  -6   1    1.71    1.32
   7  -6   1    0.08    1.16
  -7  -6  -1   -0.65    1.39
  -7   6  -1    2.68    1.21
  -7  -6  -1    1.76    1.31
  -7   6  -1    1.27    1.33
   7  -6   2   21.34    2.77
   7   6   2   21.02    2.78
   7  -6   2   24.22    3.07
   7  -6   2   24.43    2.89
   7  -6   2   23.65    2.79
  -7  -6  -2   21.32    2.95
  -7   6  -2   22.86    2.71
  -7  -6  -2   25.98    3.17
  -7   6  -2   21.77    2.95
   7  -6   3    8.92    2.05
   7   6   3   10.74    2.09
   7  -6   3   14.82    2.64
   7  -6   3    9.98    2.22
   7  -6   3   13.55    2.30
  -7   6  -3   10.61    2.05
  -7  -6  -3   11.74    2.31
  -7   6  -3   10.99    2.25
   7  -6   4   -1.52    1.37
   7  -6   4    2.66    1.51
   7  -7  -4    4.15    1.61
   7  -7  -3    1.55    1.56
   7  -7  -2   17.02    2.63
   7  -7  -1   11.89    2.25
   7  -7   0    0.03    1.36
   7  -7   1    1.25    1.57
   7  -7   1    0.64    1.10
  -7   7  -1   -0.29    1.10
   7  -7   2    1.23    1.33
   8   0  -9   11.69    2.38
   8   0  -9   10.42    2.16
   8   0  -8   28.30    3.16
   8   0  -8   20.05    2.81
   8   0  -8   26.29    2.91
  -8   0   8   21.10    2.84
   8   0  -7   -1.24    1.18
   8   0  -7   -0.49    0.78
   8   0  -7    0.92    1.33
   8   0  -7    0.18    0.95
  -8   0   7    0.90    1.29
  -8   0   7   -1.23    0.99
   8   0  -6    1.05    0.88
   8   0  -6    0.16    0.99
   8   0  -6    0.64    0.91
   8   0  -6    1.25    1.19
  -8   0   6    1.66    1.05
   8   0  -6   -0.24    0.87
  -8   0   6    1.03    0.82
  -8   0   6    1.62    1.12
   8   0  -5    2.33    1.00
   8   0  -5    3.53    1.31
   8   0  -5    1.62    1.02
   8   0  -5    0.48    1.21
  -8   0   5    0.73    1.05
   8   0  -5   -0.69    0.99
  -8   0   5    0.98    0.86
  -8   0   5    1.89    1.14
   8   0  -4   12.65    1.66
   8   0  -4   10.05    1.61
   8   0  -4   11.13    1.74
   8   0  -4   12.18    2.15
   8   0  -4   10.80    1.66
  -8   0   4    8.30    1.59
   8   0  -4   10.90    1.51
  -8   0   4   10.50    1.81
   8   0  -3    2.07    0.95
   8   0  -3    3.53    1.29
   8   0  -3    2.54    1.28
   8   0  -3    1.54    0.97
  -8   0   3    1.44    0.89
   8   0  -3    2.07    0.81
  -8   0   3    4.31    1.26
   8   0  -2    1.39    0.98
   8   0  -2    1.19    0.96
   8   0  -2    2.70    1.43
   8   0  -2    1.63    1.04
  -8   0   2    0.29    0.88
   8   0  -2    2.77    0.79
  -8   0   2    3.93    1.39
   8   0  -1   20.05    2.23
   8   0  -1   21.26    2.40
   8   0  -1   22.15    2.50
   8   0  -1   19.83    1.32
  -8   0   1   20.76    1.83
   8   0  -1   23.58    2.39
  -8   0   1   16.51    2.15
   8   0   0    7.01    1.70
   8   0   0    5.08    1.54
   8   0   0    4.15    1.28
  -8   0   0    3.50    0.86
  -8   0   0    3.93    1.46
   8   0   0    5.50    1.42
   8   0   1    1.86    1.44
   8   0   1   -0.01    0.99
  -8   0  -1    1.90    1.06
   8   0   1    0.23    0.90
  -8   0  -1    2.63    1.20
   8   0   2   20.03    2.62
  -8   0  -2   23.32    2.00
   8   0   2   27.89    2.92
  -8   0  -2   24.88    2.68
   8   0   2   21.22    2.44
   8   0   3   84.89    5.08
   8   0   3   77.62    4.67
  -8   0  -3   86.72    3.70
   8   0   3   88.35    5.00
  -8   0  -3   84.20    4.63
   8   0   4    1.18    1.55
   8   0   4   -1.96    1.30
  -8   0  -4    0.50    1.01
   8   0   5    4.77    2.11
  -8   0  -5    3.27    1.41
   8   0   5    5.46    1.67
  -8   0  -5    3.83    1.29
  -8   0  -6    7.70    1.65
  -8   0  -6    9.62    2.14
   8   0   6    7.73    2.14
   8   0   6    8.29    2.09
   8   1  -9   10.06    2.02
   8  -1  -9   12.87    2.28
  -8  -1   9   10.12    2.23
   8   1  -8    2.60    1.50
   8  -1  -8    6.72    1.96
   8  -1  -8    4.93    1.48
   8  -1  -8    5.23    1.75
   8   1  -8    2.20    1.51
   8  -1  -8    2.29    1.28
  -8   1   8    2.39    1.35
  -8  -1   8    4.11    1.46
   8   1  -8    2.44    1.30
  -8  -1   7    3.14    1.20
   8   1  -7    4.78    1.50
   8  -1  -7    7.00    1.89
   8   1  -7    4.83    1.31
   8  -1  -7    5.21    1.37
   8  -1  -7    2.54    1.38
   8   1  -7    3.80    1.55
   8  -1  -7    3.33    1.29
  -8   1   7    4.26    1.62
  -8  -1   7    3.41    1.58
  -8  -1   7    3.74    1.12
   8   1  -7    2.25    1.26
  -8   1   7    3.90    1.27
  -8  -1   6    2.85    1.14
   8  -1  -6    4.50    1.06
   8   1  -6    2.31    1.15
   8   1  -6    2.37    1.26
   8  -1  -6    4.89    1.53
   8   1  -6    1.25    0.89
   8  -1  -6    3.22    1.30
   8  -1  -6    2.88    1.44
   8   1  -6    2.38    1.40
   8  -1  -6    2.52    1.02
  -8   1   6    3.53    1.47
  -8  -1   6    3.15    1.39
  -8  -1   6    2.37    1.04
  -8   1   6    2.42    1.14
   8  -1  -5    5.44    1.10
   8   1  -5    3.54    1.20
   8   1  -5    4.25    1.29
   8   1  -5    4.25    1.03
   8  -1  -5    6.01    1.35
   8   1  -5    5.04    1.31
   8  -1  -5    4.67    1.64
   8   1  -5    1.98    1.38
   8  -1  -5    3.41    1.08
  -8   1   5    3.21    1.27
  -8  -1   5    3.47    1.23
  -8  -1   5    2.85    1.23
  -8   1   5    6.05    1.55
  -8  -1   5    3.81    1.33
   8   1  -4   -0.28    0.89
   8   1  -4    0.39    0.94
   8   1  -4    1.01    0.91
   8  -1  -4    0.84    1.05
   8  -1  -4    0.65    1.30
   8   1  -4   -0.21    1.17
   8   1  -4    0.79    0.97
   8  -1  -4    0.02    0.72
   8   1  -4    0.82    1.02
   8  -1  -4    0.63    0.88
  -8   1   4    0.69    1.03
  -8  -1   4   -0.73    1.05
  -8   1   4   -0.40    0.86
   8  -1  -4    0.04    0.74
  -8  -1   4   -1.65    1.18
   8   1  -3    9.26    1.67
   8   1  -3    9.73    1.38
   8   1  -3    9.31    1.49
   8  -1  -3    9.30    1.66
   8  -1  -3    9.30    1.88
   8   1  -3    9.01    1.78
   8  -1  -3    9.51    1.49
   8   1  -3    8.93    1.70
   8  -1  -3    9.00    1.22
   8   1  -3   10.87    1.46
  -8   1   3   12.01    1.74
  -8  -1   3    7.07    1.25
  -8   1   3   10.83    1.85
   8  -1  -3   11.10    1.61
  -8  -1   3    7.99    1.63
   8   1  -2    1.07    0.91
   8   1  -2    0.99    0.94
   8  -1  -2    2.31    1.29
   8  -1  -2   -1.38    1.22
   8   1  -2    0.45    1.20
   8  -1  -2    0.78    0.52
   8  -1  -2    0.18    0.87
   8   1  -2    1.81    1.22
   8   1  -2    0.94    0.64
  -8   1   2    0.59    0.87
  -8  -1   2   -0.05    0.85
   8  -1  -2    0.58    0.89
  -8   1   2    3.31    1.39
  -8  -1   2   -0.30    0.86
   8   1  -1   21.77    2.32
   8   1  -1   20.10    2.19
   8  -1  -1   19.87    2.33
   8  -1  -1   20.59    2.53
   8   1  -1   17.52    2.31
  -8  -1   1   21.88    1.71
   8   1  -1   20.48    1.57
   8  -1  -1   20.18    2.23
   8   1  -1   22.60    2.46
   8  -1  -1   17.09    2.03
  -8   1   1   20.37    2.45
  -8  -1   1   19.99    2.32
   8  -1   0   25.50    2.72
   8  -1   0   25.56    2.80
   8   1   0   21.32    2.54
   8  -1   0   24.72    2.40
   8   1   0   24.17    2.55
  -8  -1   0   22.44    1.52
   8   1   0   23.18    1.46
   8  -1   0   23.89    2.47
   8   1   0   24.16    2.60
  -8   1   0   28.69    2.87
  -8  -1   0   24.37    2.60
   8  -1   1    1.98    1.45
   8  -1   1    1.11    1.51
   8   1   1    2.47    1.52
   8  -1   1    0.04    0.99
   8   1   1   -0.52    1.12
  -8   1  -1    0.66    0.72
  -8  -1  -1    0.90    1.03
   8  -1   1    0.36    1.03
  -8   1  -1    0.85    1.04
  -8  -1  -1    0.92    1.12
   8   1   1    3.60    1.43
   8  -1   2    0.99    1.30
   8   1   2   -0.37    1.48
   8  -1   2    0.03    1.11
   8   1   2    0.23    1.08
  -8  -1  -2    0.25    0.86
   8  -1   2   -0.58    1.02
   8   1   2    1.57    1.30
  -8   1  -2   -0.30    1.03
  -8  -1  -2    0.12    1.05
  -8  -1  -3   13.62    2.12
   8  -1   3   11.45    2.28
   8   1   3    9.03    2.04
   8  -1   3   12.59    2.16
  -8   1  -3   12.10    2.02
   8   1   3    9.66    1.93
  -8  -1  -3   12.41    1.72
   8   1   3   12.11    1.94
  -8   1  -3   14.71    2.23
  -8  -1  -4   -0.72    1.00
  -8   1  -4    0.05    0.91
   8  -1   4    0.45    1.36
   8   1   4    2.06    1.74
   8  -1   4    1.27    1.31
   8   1   4    0.36    1.17
  -8  -1  -4    0.63    0.79
  -8  -1  -4    3.24    1.79
   8   1   4    1.45    1.25
  -8   1  -4   -0.68    1.12
  -8  -1  -5    4.23    1.29
  -8   1  -5    4.15    1.50
   8  -1   5    4.49    1.93
   8   1   5    7.30    2.27
   8  -1   5    4.58    1.60
   8   1   5    3.60    1.72
  -8  -1  -5    4.89    1.78
  -8   1  -5    5.00    1.86
   8   1   5    5.15    1.73
  -8   1  -5    5.50    1.49
  -8  -1  -6    0.33    0.98
   8   1   6    5.55    2.23
  -8  -1  -6    3.48    1.67
   8   1   6    4.99    1.88
  -8   1  -6    3.03    1.13
   8   2  -9    2.83    1.63
  -8  -2   9    3.51    1.63
   8   2  -8    3.98    1.37
   8   2  -8    8.59    1.96
   8  -2  -8    6.63    1.73
   8  -2  -8    5.95    1.54
   8   2  -8    5.75    1.55
   8  -2  -8    6.56    2.01
   8   2  -8    6.72    2.07
  -8   2   8    7.88    1.81
  -8  -2   8    6.20    1.57
  -8   2   8    4.93    1.84
  -8  -2   8    5.09    1.51
  -8  -2   7    3.47    1.24
   8   2  -7    2.10    1.08
   8  -2  -7    4.01    1.38
   8  -2  -7    2.81    1.45
   8   2  -7    1.33    0.97
   8   2  -7    3.32    1.45
   8  -2  -7    3.44    1.49
   8   2  -7    2.03    1.42
  -8   2   7    1.47    1.29
  -8  -2   7    4.41    1.60
  -8  -2   7    0.17    0.93
  -8   2   7    3.05    1.27
  -8  -2   6    4.02    1.32
   8   2  -6    3.85    1.34
   8  -2  -6    4.12    1.30
   8  -2  -6    3.61    1.46
   8   2  -6    3.14    1.37
   8  -2  -6    1.16    1.09
   8   2  -6    2.15    1.33
   8   2  -6    2.53    1.24
  -8   2   6    4.16    1.53
  -8  -2   6    3.71    1.48
  -8  -2   6    2.40    1.17
  -8   2   6    2.26    1.17
  -8  -2   5    1.44    1.05
   8   2  -5    1.18    0.90
   8  -2  -5    1.59    1.01
   8  -2  -5    2.18    1.23
   8   2  -5    2.27    1.21
   8  -2  -5    1.40    1.29
   8   2  -5    0.51    1.11
  -8   2   5   -0.18    0.75
   8  -2  -5    1.15    0.70
  -8   2   5    1.22    1.24
   8   2  -5    1.61    1.05
  -8  -2   5    1.14    1.24
  -8  -2   5    1.02    1.05
   8  -2  -5    1.15    0.69
  -8   2   5    1.13    1.03
  -8  -2   4    0.62    1.14
   8  -2  -4    0.47    0.76
   8   2  -4    0.91    0.85
   8   2  -4    1.12    0.69
   8  -2  -4    0.45    1.06
   8   2  -4    0.60    0.96
   8  -2  -4    0.60    1.26
   8   2  -4   -0.63    1.07
   8  -2  -4    0.31    0.75
  -8   2   4    0.79    1.19
  -8  -2   4    1.91    1.08
  -8  -2   4    2.23    1.10
   8  -2  -4    1.01    0.78
   8   2  -4    0.88    0.86
  -8   2   4    0.80    1.06
  -8  -2   3    0.43    1.14
   8   2  -3   -0.08    0.59
   8   2  -3   -0.67    0.90
   8   2  -3    0.16    0.99
   8  -2  -3    0.54    1.24
   8  -2  -3   -0.41    1.16
   8   2  -3    0.94    1.29
   8   2  -3   -0.19    0.80
   8  -2  -3    1.20    0.91
   8   2  -3    0.44    0.92
  -8   2   3   -0.93    1.00
  -8  -2   3   -1.07    0.79
   8  -2  -3   -0.40    0.81
  -8   2   3    0.56    1.07
  -8  -2   2    3.05    1.29
   8   2  -2    2.03    1.02
   8   2  -2    2.42    1.11
   8  -2  -2    3.18    1.54
   8  -2  -2    1.65    1.31
   8   2  -2    1.25    1.16
   8  -2  -2   -0.14    0.79
   8   2  -2    2.20    1.24
  -8  -2   2    2.44    0.92
   8   2  -2    1.39    0.95
   8  -2  -2    3.06    1.08
  -8   2   2    1.85    1.21
   8   2  -1   19.26    2.32
   8  -2  -1   22.51    2.64
   8  -2  -1   20.49    2.49
   8   2  -1   20.46    2.36
   8   2  -1   21.64    2.50
   8  -2  -1   21.97    2.28
  -8  -2   1   23.77    1.53
   8  -2  -1   22.46    2.31
  -8  -2   1   23.72    2.60
   8   2  -1   23.35    1.94
  -8   2   1   26.26    2.71
  -8  -2   0   11.03    1.90
   8   2   0   14.51    2.17
   8  -2   0   11.10    2.11
   8  -2   0   10.84    2.07
   8   2   0   11.01    1.90
   8  -2   0    9.39    1.68
  -8   2   0   11.52    1.79
   8   2   0   10.22    1.92
  -8   2   0   13.23    2.14
   8   2   0   12.05    1.46
  -8  -2  -1    2.09    1.41
   8   2   1    2.53    1.21
   8  -2   1    1.33    1.25
   8  -2   1    4.80    1.73
   8   2   1    2.71    1.49
  -8   2  -1    1.48    1.10
   8  -2   1    2.73    1.38
   8   2   1    1.62    1.28
  -8  -2  -1    2.66    1.23
  -8   2  -1    3.57    1.33
   8   2   2    2.80    1.32
  -8  -2  -2    3.39    1.35
   8  -2   2    6.24    2.00
  -8   2  -2    3.86    1.46
   8  -2   2    3.20    1.60
   8   2   2    0.55    1.30
   8  -2   2    0.75    1.13
   8   2   2    3.68    1.42
  -8  -2  -2    0.81    0.94
  -8   2  -2    3.12    1.46
   8  -2   3   36.07    3.58
   8   2   3   33.66    3.27
  -8  -2  -3   28.44    2.73
   8   2   3   32.11    3.17
   8  -2   3   32.98    3.20
   8   2   3   30.22    3.09
  -8   2  -3   32.31    3.07
  -8   2  -3   32.04    3.15
  -8  -2  -3   29.96    2.94
  -8  -2  -4    5.37    1.60
  -8   2  -4    4.51    1.50
   8  -2   4    2.02    1.62
   8   2   4    5.38    1.86
   8  -2   4    4.08    1.53
   8   2   4    4.11    1.46
  -8  -2  -4    5.69    1.55
  -8  -2  -4    5.98    1.90
   8   2   4    4.90    1.57
  -8   2  -4    8.14    1.78
  -8  -2  -5    0.74    1.11
  -8   2  -5   -2.15    1.52
   8  -2   5    0.05    1.58
   8   2   5   -0.89    1.58
   8  -2   5    1.09    1.31
   8   2   5    0.58    1.35
  -8  -2  -5    0.33    1.00
  -8  -2  -5    2.47    1.71
  -8   2  -5    0.17    1.39
   8   2   5    1.94    1.39
  -8   2  -5    1.59    1.21
   8   2   6   18.07    2.94
  -8   2  -6   13.13    2.14
   8   3  -8   -0.56    1.17
   8  -3  -8    0.26    1.14
   8   3  -8    0.48    1.13
   8   3  -8    2.59    1.62
  -8   3   8    0.84    1.23
  -8  -3   8    1.15    1.25
  -8  -3   8    1.21    1.21
   8   3  -7    2.84    1.21
   8  -3  -7    2.46    1.26
   8   3  -7    4.69    1.62
   8  -3  -7    2.77    1.35
   8   3  -7    1.68    1.22
  -8   3   7    1.72    1.45
   8   3  -7   -0.31    1.22
  -8   3   7    1.32    1.20
  -8  -3   7    2.81    1.28
  -8   3   7    1.76    1.25
   8   3  -6    0.79    0.94
   8  -3  -6    1.04    1.29
   8   3  -6    0.51    1.22
   8  -3  -6    1.47    1.51
   8   3  -6   -1.93    1.22
  -8   3   6    0.45    1.18
  -8   3   6   -0.48    1.26
   8   3  -6   -0.88    1.26
  -8  -3   6    0.18    1.02
  -8   3   6    0.38    1.03
   8   3  -5    8.28    1.57
   8  -3  -5   10.30    2.05
   8   3  -5    8.28    1.81
   8   3  -5    7.01    1.51
   8  -3  -5    9.51    1.95
   8   3  -5    9.64    1.79
  -8   3   5   11.55    2.15
  -8  -3   5    8.27    1.84
  -8   3   5    7.52    1.66
  -8  -3   4    5.99    1.60
   8   3  -4    4.57    1.19
   8  -3  -4    6.83    1.61
   8   3  -4    4.74    1.42
   8  -3  -4    6.20    1.70
   8   3  -4    5.55    1.44
   8  -3  -4    5.68    1.05
  -8   3   4    7.19    1.71
   8   3  -4    4.83    1.38
  -8  -3   4    6.05    1.62
  -8   3   4    7.22    1.77
   8   3  -3   23.99    1.85
   8  -3  -3   27.19    2.86
   8  -3  -3   27.81    2.95
   8   3  -3   32.76    2.92
   8   3  -3   32.07    3.08
  -8  -3   3   28.62    2.93
   8  -3  -3   29.09    2.32
  -8   3   3   26.97    2.78
  -8   3   3   29.18    2.28
  -8  -3   3   31.12    3.02
   8   3  -3   31.20    2.65
   8   3  -2   20.86    2.13
  -8  -3   2   19.77    2.46
   8   3  -2   25.20    2.11
   8  -3  -2   23.13    2.67
   8  -3  -2   21.28    2.57
   8   3  -2   19.27    2.22
   8   3  -2   21.71    2.67
   8   3  -2   21.70    2.58
   8  -3  -2   21.50    2.19
  -8   3   2   21.27    2.10
  -8   3   2   20.36    2.56
  -8  -3   1   -0.78    1.25
   8   3  -1    3.11    1.35
   8  -3  -1    1.36    1.41
  -8   3   1    1.49    1.12
   8  -3  -1    0.84    1.31
   8   3  -1    0.36    1.08
   8  -3  -1    0.23    0.94
   8   3  -1    1.11    1.13
  -8   3   1    1.15    1.16
   8  -3   0   42.50    3.59
   8  -3   0   37.00    3.33
   8   3   0   36.45    3.10
  -8  -3   0   40.18    3.39
   8   3   0   38.66    3.39
   8  -3   0   41.33    3.19
   8   3   0   36.13    3.28
  -8   3   0   38.80    3.37
  -8   3   0   38.46    3.06
  -8  -3   0   34.94    3.19
  -8  -3  -1    3.28    1.17
   8   3   1    6.24    1.75
   8  -3   1    5.35    1.71
  -8   3  -1    4.92    1.44
   8  -3   1    5.95    1.63
   8   3   1    5.73    1.58
   8  -3   1    4.41    1.28
   8   3   1    4.43    1.48
  -8  -3  -1    4.85    1.58
  -8   3  -1    5.82    1.69
  -8  -3  -2    0.08    1.08
   8   3   2   -0.71    1.07
  -8   3  -2    2.16    1.28
   8  -3   2   -0.46    1.24
   8  -3   2    0.07    1.40
   8   3   2    1.27    1.20
   8  -3   2   -0.20    1.14
   8   3   2    1.68    1.38
  -8  -3  -2   -0.08    0.95
  -8   3  -2    0.24    0.99
   8   3   3   12.83    2.22
  -8   3  -3    7.66    1.81
   8  -3   3   12.50    2.45
   8  -3   3   12.58    2.30
   8   3   3   12.73    2.24
   8  -3   3   10.79    2.07
   8   3   3   10.59    2.08
  -8  -3  -3   11.79    2.02
  -8  -3  -3   10.71    2.18
  -8   3  -3   11.92    2.08
  -8   3  -4   -0.66    1.04
   8  -3   4    0.33    1.46
   8  -3   4    1.27    1.52
   8   3   4   -0.68    1.40
   8  -3   4    0.44    1.17
   8   3   4    0.78    1.09
  -8  -3  -4   -1.61    1.31
  -8  -3  -4    0.97    1.33
  -8   3  -4   -0.18    1.10
   8   3   4    0.10    1.18
   8  -3   5    3.27    1.95
   8   3   5    1.68    1.75
   8   3   5   -0.41    1.07
  -8  -3  -5   -0.85    1.14
  -8  -3  -5    0.03    1.27
  -8   3  -5    5.03    1.93
   8   3   5    0.49    1.19
  -8   3  -5    0.94    1.24
   8   3   6    1.64    1.68
  -8  -3  -6    1.41    1.15
  -8   3  -6   -0.23    1.11
   8   4  -8    4.02    1.45
   8   4  -8    0.09    1.21
   8   4  -7    2.05    1.21
   8  -4  -7    4.03    1.51
   8   4  -7    2.57    1.47
   8  -4  -7    2.70    1.63
   8   4  -7    1.49    1.23
  -8   4   7    0.85    1.47
  -8  -4   7    3.46    1.75
   8   4  -7    2.57    1.56
  -8   4   7    2.00    1.32
   8   4  -6    3.47    1.23
   8  -4  -6    4.48    1.70
   8   4  -6    4.22    1.57
   8  -4  -6    2.55    1.42
   8   4  -6    3.86    1.39
   8   4  -6    4.44    1.49
  -8   4   6    9.26    2.35
  -8   4   6    4.50    1.84
  -8  -4   6    2.41    1.54
  -8   4   6    1.93    1.23
   8   4  -5   -0.35    0.84
   8  -4  -5   -0.39    1.26
   8   4  -5    2.26    1.49
   8  -4  -5    2.09    1.42
   8   4  -5    0.60    1.16
  -8   4   5    4.12    1.93
  -8   4   5    0.47    1.13
   8   4  -5    1.20    1.15
  -8  -4   5    1.41    1.43
  -8   4   5    1.04    1.26
   8  -4  -4   -0.06    1.18
   8   4  -4   -0.34    1.12
   8  -4  -4    1.80    1.18
   8   4  -4    0.13    1.01
   8   4  -4    0.14    0.97
  -8  -4   4    1.67    1.28
  -8   4   4   -0.10    1.29
   8  -4  -3    0.05    1.33
   8   4  -3    0.62    1.14
   8  -4  -3    0.37    1.17
   8   4  -3    1.65    1.14
   8  -4  -3    0.13    0.65
   8   4  -3    2.31    1.33
  -8  -4   3    0.57    1.34
  -8   4   3   -0.66    1.13
  -8   4   2    3.28    1.04
   8  -4  -2    1.07    1.20
   8   4  -2    4.80    1.68
   8  -4  -2    2.10    1.42
   8   4  -2    1.58    0.95
   8  -4  -2    2.74    1.13
  -8  -4   2    3.30    1.61
  -8   4   2    1.74    1.28
   8  -4  -2    1.47    0.80
  -8   4   1   11.08    1.67
   8   4  -1   10.21    1.98
   8  -4  -1   14.65    2.43
   8  -4  -1    9.55    1.90
   8  -4  -1   12.11    1.82
   8   4  -1   14.49    2.05
  -8  -4   1   11.23    2.15
  -8   4   1   14.25    2.28
   8  -4  -1   13.53    1.66
  -8   4   0    7.44    1.48
   8   4   0    4.37    1.42
   8  -4   0    7.04    1.78
   8  -4   0    6.10    1.48
   8  -4   0    7.81    1.91
   8   4   0    8.09    1.72
   8   4   0    3.45    1.59
  -8  -4   0    9.99    2.16
  -8   4   0    6.83    1.70
   8  -4   0    5.22    1.16
  -8   4  -1    2.87    1.33
   8   4   1    4.10    1.54
   8  -4   1    4.05    1.73
   8  -4   1    0.96    1.19
   8  -4   1    2.70    1.50
   8   4   1    0.61    1.05
   8   4   1    2.19    1.40
  -8  -4  -1    1.29    1.09
  -8   4  -1    1.09    1.26
  -8   4  -2    0.79    1.12
   8   4   2    1.54    1.20
   8  -4   2    0.01    1.46
   8  -4   2   -0.28    1.11
   8  -4   2    0.11    1.37
   8   4   2   -0.80    1.09
   8   4   2    0.76    1.46
  -8  -4  -2   -1.10    1.47
  -8  -4  -2    3.45    1.53
  -8   4  -2    0.92    1.38
   8   4   3   12.31    2.28
   8  -4   3   10.18    2.26
   8  -4   3   11.98    2.16
   8  -4   3   12.28    2.25
   8   4   3   13.87    2.13
   8   4   3   13.69    2.40
  -8  -4  -3   15.19    2.36
  -8  -4  -3   12.42    2.21
  -8   4  -3   12.94    2.19
  -8   4  -3   13.18    2.21
   8  -4   4    1.95    1.69
   8  -4   4    2.34    1.46
   8  -4   4    3.22    1.81
   8   4   4    3.10    1.52
   8   4   4    2.65    1.46
  -8  -4  -4    3.81    1.47
  -8  -4  -4    2.23    1.46
  -8   4  -4    2.12    1.32
  -8   4  -4    1.06    1.35
   8   4   4    6.63    1.83
   8   4   5   -2.09    1.32
  -8  -4  -5    0.69    1.19
  -8  -4  -5   -2.92    1.47
  -8   4  -5   -0.52    1.21
  -8   5   7    1.27    1.30
   8  -5  -6    1.80    1.55
  -8   5   6    0.30    1.01
   8   5  -5    4.20    1.50
   8  -5  -5    3.44    1.68
  -8   5   5    3.75    2.06
   8   5  -5    3.63    1.56
  -8  -5   5    0.73    1.39
  -8   5   5    2.02    1.38
   8  -5  -4    0.45    1.31
   8   5  -4   -0.16    1.29
   8  -5  -4   -1.36    1.39
   8   5  -4    2.60    1.61
  -8  -5   4    1.32    1.33
  -8   5   4    2.22    1.54
   8  -5  -3    3.12    1.64
   8   5  -3    1.46    1.15
   8  -5  -3    3.87    1.53
  -8  -5   3    3.26    1.67
  -8   5   3    7.03    1.90
   8  -5  -2    5.40    1.88
   8   5  -2    4.13    1.63
   8  -5  -2    2.95    1.52
  -8  -5   2    6.20    1.86
  -8   5   2    7.01    1.93
   8  -5  -1    4.26    1.67
   8   5  -1    5.27    1.76
   8  -5  -1    6.58    1.48
   8  -5  -1    8.53    1.86
  -8  -5   1    6.40    2.07
  -8  -5   1    4.38    1.55
  -8   5   1    5.89    1.39
  -8   5   1    7.32    1.94
   8   5   0    6.69    1.90
   8  -5   0    7.23    1.99
   8  -5   0    5.89    1.57
   8  -5   0    8.45    2.00
  -8  -5   0   10.83    2.30
  -8  -5   0    9.03    2.05
  -8   5   0    5.04    1.45
  -8   5   0    2.78    1.55
   8   5   1    0.52    1.11
   8  -5   1   -0.46    1.46
   8  -5   1    0.87    1.09
   8  -5   1    1.21    1.23
  -8  -5  -1    1.64    1.68
  -8  -5  -1    1.90    1.51
  -8   5  -1    0.51    1.10
  -8   5  -1   -0.35    1.07
   8   5   2    1.02    1.35
   8  -5   2   -3.18    1.93
   8  -5   2    3.10    1.52
   8  -5   2    2.70    1.62
   8   5   2    0.47    1.02
  -8  -5  -2   -0.21    1.31
  -8   5  -2    3.30    1.50
  -8   5  -2    1.99    1.47
   8  -5   3    2.82    1.36
   8  -5   3    5.44    1.88
   8   5   3    2.68    1.35
  -8   5  -3    2.98    1.41
  -8   5  -3    6.80    1.94
   8  -6  -5   -0.60    1.29
   8  -6  -4    2.30    1.39
   8  -6  -3    1.34    1.29
   8  -6  -2    1.71    1.37
   8  -6  -1    1.79    1.10
   8  -6   0   -1.59    1.07
   8  -6   0   -0.83    1.50
  -8   6   0    1.11    1.14
   8  -6   1   -0.45    1.21
   8  -6   1    1.21    1.25
  -8   6  -1   -0.62    1.08
   8  -6   2    0.24    1.26
   8  -6   2   -0.47    1.24
   8  -6   3   15.75    2.65
   9   0  -8   28.49    3.22
   9   0  -8   31.35    3.19
  -9   0   8   30.69    3.38
   9   0  -7    9.65    1.95
   9   0  -7    8.58    2.23
   9   0  -7    8.07    1.81
  -9   0   7    7.94    1.83
  -9   0   7    7.13    1.61
   9   0  -6    2.36    1.17
   9   0  -6    3.08    1.34
   9   0  -6    2.54    1.17
   9   0  -6    3.26    1.61
   9   0  -6    0.86    1.02
  -9   0   6    1.80    1.23
  -9   0   6    2.81    1.25
  -9   0   6    2.05    1.18
   9   0  -5    0.29    0.81
   9   0  -5    1.65    1.14
   9   0  -5    2.72    1.54
   9   0  -5    0.66    0.89
  -9   0   5    1.89    1.25
  -9   0   5    0.11    0.83
  -9   0   5    0.43    1.14
   9   0  -4    7.16    1.46
   9   0  -4    6.34    1.47
   9   0  -4    7.51    1.87
   9   0  -4    5.38    1.55
  -9   0   4    6.48    1.50
   9   0  -4    6.05    1.25
  -9   0   4    8.55    1.76
   9   0  -3    0.70    0.86
   9   0  -3    2.94    1.26
   9   0  -3    0.37    1.32
   9   0  -3    1.29    1.06
  -9   0   3    1.29    0.91
  -9   0   3   -0.56    1.15
   9   0  -2    0.11    1.09
   9   0  -2   -0.20    1.13
   9   0  -2    1.08    1.06
  -9   0   2    0.99    0.80
  -9   0   2    1.95    1.35
   9   0  -2   -1.21    1.14
   9   0  -1   21.72    2.52
   9   0  -1   25.25    2.89
   9   0  -1   22.11    2.50
   9   0  -1   23.58    2.56
  -9   0   1   23.69    2.01
  -9   0   1   27.18    2.91
   9   0   0   53.67    3.91
   9   0   0   56.45    4.20
   9   0   0   56.92    3.91
  -9   0   0   56.73    3.36
  -9   0   0   55.18    2.84
   9   0   0   58.05    4.01
  -9   0   0   58.90    4.11
   9   0   1    2.90    1.52
   9   0   1    0.13    0.99
  -9   0  -1    0.80    0.92
   9   0   1    0.25    0.98
  -9   0  -1    0.22    1.13
   9   0   2    6.07    1.98
   9   0   2    6.80    1.79
   9   0   2    7.13    1.63
  -9   0  -2   10.01    1.91
   9   0   3   12.36    2.45
   9   0   3   10.99    2.13
   9   0   3   10.84    2.02
  -9   0  -3   11.16    2.10
   9   0   4    2.65    1.75
  -9   0  -4    1.23    1.18
   9   0   4    1.17    1.47
  -9   0  -4    1.96    1.35
  -9   0  -5    1.73    1.34
  -9   0  -6    1.29    1.25
   9   1  -8   10.49    2.11
   9  -1  -8   15.63    2.61
   9  -1  -8   11.80    2.18
  -9  -1   8   13.94    2.60
   9   1  -8    9.51    1.89
  -9  -1   7    2.83    1.28
   9   1  -7    3.82    1.43
   9   1  -7    3.26    1.41
   9  -1  -7    3.15    1.25
   9  -1  -7    2.45    1.36
   9   1  -7    4.41    1.95
   9  -1  -7    1.99    1.09
  -9   1   7    1.44    1.27
  -9  -1   7    2.61    1.45
   9   1  -7    4.91    1.53
  -9   1   7    2.23    1.28
  -9  -1   6   10.12    1.89
   9   1  -6   11.76    1.80
   9   1  -6   12.00    1.94
   9  -1  -6   11.02    1.92
   9  -1  -6    9.98    2.17
   9   1  -6   13.39    2.36
   9  -1  -6   10.75    1.74
  -9   1   6   12.14    2.14
  -9  -1   6   13.22    2.24
  -9  -1   6   10.67    1.87
   9   1  -6   13.14    2.04
  -9   1   6   12.42    2.00
  -9  -1   5    4.64    1.53
   9   1  -5    6.00    1.36
   9   1  -5    5.50    1.42
   9   1  -5    6.28    1.44
   9  -1  -5    7.53    1.62
   9  -1  -5    8.65    2.18
   9   1  -5    8.55    1.97
   9  -1  -5    7.22    1.38
   9  -1  -5    5.92    1.39
  -9   1   5    5.76    1.66
  -9  -1   5    5.20    1.43
  -9  -1   5    8.07    1.67
  -9   1   5    4.52    1.48
   9  -1  -5    9.38    1.56
   9   1  -4   17.08    2.20
   9   1  -4   16.18    1.90
   9   1  -4   14.44    1.88
   9  -1  -4   15.46    2.13
   9  -1  -4   15.99    2.42
   9   1  -4   15.84    2.48
   9  -1  -4   15.76    1.70
   9  -1  -4    9.55    1.57
   9   1  -4   13.16    2.06
  -9   1   4   20.92    2.42
  -9  -1   4   13.06    1.86
  -9   1   4   17.92    2.44
   9  -1  -4   13.30    1.80
  -9  -1   4   16.06    2.29
   9   1  -3   35.51    2.80
   9  -1  -3   33.77    3.06
   9  -1  -3   34.08    3.32
   9   1  -3   31.53    3.15
   9  -1  -3   31.97    2.69
   9   1  -3   30.05    2.87
  -9   1   3   31.68    2.76
  -9  -1   3   31.95    2.48
   9   1  -3   36.18    2.52
   9  -1  -3   28.43    2.58
   9   1  -3   33.35    3.04
  -9   1   3   32.36    3.15
  -9  -1   3   32.96    3.11
   9   1  -2    3.12    1.16
   9   1  -2    3.64    1.31
   9  -1  -2    1.78    1.07
   9  -1  -2    1.77    1.47
   9   1  -2    3.19    1.61
   9  -1  -2    0.94    1.02
   9   1  -2    4.59    1.39
  -9   1   2    3.99    1.24
  -9  -1   2    1.81    0.71
   9  -1  -2    0.82    1.02
  -9   1   2    3.35    1.59
  -9  -1   2    2.01    1.18
   9   1  -1    8.69    1.70
   9   1  -1    5.86    1.58
   9  -1  -1    5.12    1.56
   9  -1  -1    4.88    1.84
   9   1  -1    4.64    1.70
   9  -1  -1    3.02    1.32
   9   1  -1    4.71    1.56
  -9   1   1    3.58    1.14
   9  -1  -1    4.72    1.45
  -9   1   1    7.58    1.83
  -9  -1   1    3.16    1.27
   9   1   0   13.02    2.11
   9   1   0   13.04    2.21
   9  -1   0   10.14    2.04
   9  -1   0    9.58    2.12
   9   1   0   12.42    2.33
   9  -1   0   11.38    1.99
   9   1   0   10.64    1.96
  -9  -1   0   14.73    2.08
   9  -1   0   10.55    1.91
  -9   1   0   10.76    1.91
  -9  -1   0   10.45    1.93
   9  -1   1    3.35    1.77
   9  -1   1    0.61    1.46
   9   1   1    2.37    1.66
   9  -1   1    0.60    1.24
   9   1   1    0.31    1.15
  -9  -1  -1   -0.76    0.97
   9  -1   1    0.38    1.05
  -9   1  -1    0.72    1.05
   9   1   1    0.30    1.11
  -9  -1  -1    0.38    0.97
   9  -1   2    3.82    1.77
   9  -1   2    0.62    1.57
   9   1   2    0.73    1.29
   9  -1   2   -0.05    1.00
   9   1   2    1.58    1.45
  -9  -1  -2    1.02    0.99
   9   1   2    0.25    0.98
  -9   1  -2    1.18    1.02
  -9  -1  -2    1.46    1.18
  -9  -1  -3   12.07    2.05
   9  -1   3   10.34    2.20
   9   1   3   11.49    2.49
  -9   1  -3   13.59    2.37
   9  -1   3   14.37    2.47
   9   1   3   13.81    2.45
   9   1   3   14.28    2.47
  -9   1  -3   13.90    2.25
  -9  -1  -4    8.51    1.83
  -9   1  -4    8.31    1.91
   9  -1   4    7.54    2.21
   9   1   4    8.98    2.33
   9  -1   4    9.95    2.22
   9   1   4    5.44    1.69
  -9  -1  -4    8.93    2.18
   9   1   4   11.88    2.25
  -9   1  -4    9.03    1.99
  -9  -1  -5   -0.46    1.18
  -9   1  -5    0.83    1.07
  -9  -1  -6    0.24    1.15
  -9   1  -6    2.52    1.33
   9   2  -8   29.00    3.25
   9  -2  -8   26.70    3.01
   9  -2  -8   29.48    3.16
  -9  -2   7   11.66    2.01
   9  -2  -7   11.76    2.11
   9   2  -7   11.59    2.07
   9   2  -7    7.82    1.77
   9   2  -7    9.92    1.92
   9  -2  -7    8.55    1.94
   9   2  -7    5.54    1.81
  -9   2   7   10.23    2.24
  -9  -2   7    9.83    2.15
  -9  -2   7    8.46    1.97
  -9   2   7   10.94    2.03
  -9  -2   6   -0.60    1.23
   9  -2  -6    0.62    0.94
   9   2  -6    1.56    1.21
   9   2  -6    2.71    1.38
   9  -2  -6    0.30    1.20
   9  -2  -6    0.65    1.29
   9   2  -6    0.45    1.26
   9   2  -6    1.70    1.30
  -9   2   6    0.02    1.11
  -9  -2   6    3.37    1.61
  -9  -2   6    0.92    1.26
  -9   2   6    0.45    1.07
  -9  -2   5    2.69    1.27
   9   2  -5    4.32    1.24
   9   2  -5    2.47    1.31
   9  -2  -5    5.61    1.67
   9  -2  -5    5.08    1.62
   9   2  -5    6.23    1.93
   9   2  -5    3.59    1.24
  -9   2   5    6.34    1.75
  -9  -2   5    6.08    1.63
  -9  -2   5    5.13    1.56
  -9   2   5    3.47    1.31
  -9  -2   4   -0.84    1.08
   9   2  -4    0.01    1.05
   9  -2  -4    1.31    1.15
   9  -2  -4    1.65    1.41
   9   2  -4    0.31    1.11
   9  -2  -4    1.41    0.92
   9   2  -4   -2.44    1.36
  -9   2   4    0.87    1.19
  -9  -2   4    2.04    1.18
  -9  -2   4   -0.32    0.89
   9  -2  -4    1.57    0.93
  -9   2   4    0.49    1.00
  -9  -2   3    7.67    1.72
   9   2  -3    9.23    1.73
   9   2  -3    7.36    1.38
   9  -2  -3    7.71    1.72
   9  -2  -3   11.03    2.29
   9   2  -3    8.92    1.97
   9  -2  -3    7.37    1.46
   9   2  -3    9.58    1.89
  -9   2   3   10.54    1.86
  -9  -2   3    7.81    1.38
   9   2  -3    9.07    1.47
   9  -2  -3    8.10    1.44
  -9   2   3   10.00    1.98
  -9  -2   2    3.33    1.45
   9   2  -2    3.47    1.00
   9   2  -2    3.20    1.32
   9   2  -2    4.72    1.32
   9  -2  -2    2.32    1.40
   9  -2  -2    4.60    1.64
   9   2  -2    5.38    1.53
   9  -2  -2    3.83    1.22
   9   2  -2    3.16    1.33
   9  -2  -2    2.98    1.04
  -9   2   2    1.94    1.34
  -9  -2   1    6.72    1.65
   9   2  -1    8.73    1.87
   9   2  -1   10.02    1.77
   9  -2  -1    7.59    1.89
   9  -2  -1    6.56    1.86
   9   2  -1    5.86    1.64
   9  -2  -1    5.76    1.50
   9   2  -1    4.58    1.55
  -9   2   1    8.59    1.92
   9  -2   0   65.52    4.50
   9  -2   0   66.40    4.59
   9   2   0   66.66    4.46
  -9  -2   0   65.75    4.18
   9   2   0   61.94    4.29
   9  -2   0   64.18    4.19
   9   2   0   60.94    4.32
  -9   2   0   63.07    4.38
  -9  -2   0   66.09    4.51
  -9   2   0   64.09    4.13
  -9  -2  -1   -0.15    1.19
   9   2   1   -0.40    1.15
   9  -2   1    1.03    1.39
  -9   2  -1    3.95    1.45
   9  -2   1    2.36    1.54
   9   2   1   -1.06    1.13
   9  -2   1    0.76    1.13
   9   2   1   -0.11    1.23
  -9  -2  -1    0.09    1.10
  -9   2  -1    1.37    1.41
  -9  -2  -2    7.67    1.85
   9  -2   2    9.94    2.38
  -9   2  -2    6.25    1.65
   9  -2   2    6.07    1.84
   9   2   2    5.92    1.81
   9  -2   2    5.35    1.69
   9   2   2    6.83    1.80
  -9  -2  -2    5.22    1.49
  -9   2  -2    5.54    1.53
   9   2   2    6.48    1.79
  -9  -2  -3    8.17    1.81
  -9   2  -3   10.17    1.97
   9  -2   3    8.63    2.22
   9   2   3    5.03    1.62
   9  -2   3    7.75    1.85
   9   2   3   10.20    2.07
  -9  -2  -3   11.01    1.96
   9   2   3    8.57    1.97
  -9   2  -3    7.72    1.80
  -9  -2  -4    0.20    1.25
   9   2   4    1.81    1.62
  -9  -2  -4    2.46    1.26
  -9  -2  -4    3.41    1.58
  -9   2  -4    3.77    1.52
  -9  -2  -5    1.16    1.17
  -9   2  -5    2.71    1.48
   9   3  -8   16.27    2.46
   9   3  -7   -0.39    1.13
   9   3  -7    2.08    1.35
   9  -3  -7    2.80    1.36
   9   3  -7   -0.47    1.24
   9   3  -7    2.32    1.46
  -9  -3   7   -0.04    1.10
  -9   3   7   -0.49    1.29
   9   3  -6    4.91    1.63
   9  -3  -6    3.02    1.63
   9  -3  -6    3.57    1.65
   9   3  -6    6.18    1.78
   9   3  -6    3.89    1.44
  -9   3   6    4.62    1.72
  -9  -3   6    3.23    1.35
  -9   3   6    5.74    1.67
   9   3  -5    9.73    1.98
   9  -3  -5    8.31    1.98
   9  -3  -5   10.52    2.22
   9   3  -5    9.71    1.97
  -9   3   5   10.62    2.17
   9   3  -5    9.07    1.81
  -9  -3   5    7.16    1.85
  -9   3   5    7.17    1.79
  -9  -3   4    8.55    1.89
   9   3  -4    6.29    1.72
   9  -3  -4    7.10    1.75
   9   3  -4    8.93    1.80
   9  -3  -4    9.48    2.13
   9   3  -4    8.13    1.84
  -9   3   4    4.60    1.59
  -9  -3   4    5.63    1.66
  -9   3   4    6.02    1.68
  -9  -3   3   16.63    2.43
   9   3  -3   20.11    2.59
   9  -3  -3   19.34    2.65
  -9   3   3   15.74    1.94
   9  -3  -3   17.10    2.60
   9   3  -3   15.20    2.29
   9   3  -3   15.85    1.98
   9  -3  -3   20.31    2.15
  -9  -3   3   19.83    2.71
  -9   3   3   22.69    2.77
  -9  -3   2    0.94    1.06
   9   3  -2    0.51    1.19
   9   3  -2    1.13    1.01
   9  -3  -2    3.08    1.65
  -9   3   2    0.24    0.84
   9  -3  -2   -0.97    1.44
   9   3  -2   -0.38    1.15
   9  -3  -2    2.29    1.15
   9   3  -2    3.56    1.54
  -9   3   2    0.86    1.08
  -9  -3   1    0.97    1.15
   9   3  -1   -0.30    0.96
   9   3  -1    4.19    1.45
   9  -3  -1    0.13    1.31
  -9   3   1    0.06    0.91
   9  -3  -1    0.31    1.36
   9   3  -1    0.42    1.10
   9  -3  -1    0.12    0.98
   9   3  -1   -1.58    1.26
  -9   3   1    0.05    1.17
  -9  -3   0   -0.15    0.95
   9   3   0    0.17    1.06
   9  -3   0    0.80    1.39
  -9   3   0    0.44    1.03
   9  -3   0    1.23    1.45
   9   3   0    1.70    1.41
   9  -3   0    3.07    1.42
   9   3   0    2.11    1.52
  -9  -3   0    4.38    1.74
  -9   3   0   -1.33    1.32
  -9  -3  -1    2.96    1.26
   9   3   1    5.06    1.73
   9  -3   1    1.29    1.36
  -9   3  -1    3.85    1.40
   9  -3   1    4.98    1.91
   9   3   1    3.73    1.34
   9  -3   1    4.28    1.57
   9   3   1    3.34    1.57
  -9  -3  -1    1.28    1.23
  -9   3  -1    3.19    1.38
   9   3   2    1.63    1.37
  -9  -3  -2    1.23    1.24
  -9   3  -2    1.93    1.40
   9  -3   2    1.84    1.49
   9  -3   2    2.87    1.73
   9   3   2    2.39    1.56
   9  -3   2    0.21    1.16
   9   3   2    0.16    1.23
  -9  -3  -2   -0.41    1.30
  -9   3  -2    2.77    1.46
  -9   3  -3    3.73    1.55
   9  -3   3    1.00    1.61
   9   3   3    1.83    1.46
   9  -3   3    0.77    1.22
   9   3   3    4.98    1.98
  -9  -3  -3    2.21    1.35
  -9  -3  -3    0.14    1.32
  -9   3  -3   -0.69    1.24
   9   3   3    1.08    1.32
   9   3   4   12.52    2.37
  -9  -3  -4   11.27    2.17
  -9  -3  -4   18.43    2.79
  -9   3  -4   13.87    2.40
   9   4  -7    4.61    1.62
   9   4  -6   -1.26    1.38
   9   4  -6    1.12    1.18
  -9   4   6    0.52    1.32
   9  -4  -5    3.18    1.80
   9   4  -5    5.90    1.73
   9  -4  -5    7.33    1.99
   9   4  -5    4.91    1.62
   9   4  -5    2.62    1.17
  -9  -4   5    5.09    1.70
  -9   4   5    2.71    1.44
   9  -4  -4    0.81    1.31
   9   4  -4    0.54    1.28
   9  -4  -4    0.44    1.25
   9   4  -4    1.54    1.41
  -9  -4   4   -1.19    1.28
   9   4  -4   -0.68    1.19
  -9   4   4   -0.17    1.14
   9   4  -3    9.72    2.13
   9  -4  -3    4.70    1.76
   9  -4  -3    5.03    1.78
   9   4  -3    5.59    1.61
   9   4  -3    4.97    1.42
  -9  -4   3    7.08    1.91
  -9   4   3    4.55    1.60
  -9   4   2    1.50    1.01
   9   4  -2    2.18    1.52
   9  -4  -2    5.60    1.99
   9  -4  -2    1.13    1.31
   9   4  -2    2.65    1.23
   9  -4  -2    3.69    1.30
   9   4  -2    3.82    1.39
  -9  -4   2    0.85    1.41
  -9   4   2    0.45    1.24
  -9   4   1    4.89    1.43
   9   4  -1    5.73    1.79
   9  -4  -1    4.11    1.59
   9  -4  -1    0.31    1.28
   9   4  -1    2.66    1.14
   9  -4  -1    4.84    1.54
  -9  -4   1    5.52    2.01
  -9  -4   1    5.41    1.78
  -9   4   1    2.46    1.25
   9  -4   0   32.04    3.48
   9   4   0   33.40    3.16
   9  -4   0   32.25    3.35
  -9  -4   0   38.36    3.74
   9   4   0   35.70    3.57
   9  -4   0   34.03    3.21
  -9   4   0   30.53    2.99
  -9   4   0   39.61    3.77
   9   4   0   35.19    3.54
  -9   4  -1    0.07    1.08
   9   4   1    1.05    1.59
   9  -4   1   -0.44    1.40
   9  -4   1   -0.18    1.49
   9   4   1    1.37    1.19
   9  -4   1   -0.49    1.08
   9   4   1    0.64    1.26
  -9  -4  -1    0.26    1.32
  -9   4  -1    0.90    1.38
  -9   4  -2    1.50    1.16
   9  -4   2    3.31    1.77
   9   4   2   -1.30    1.40
   9  -4   2    1.84    1.40
  -9  -4  -2   -0.61    1.28
  -9  -4  -2    1.01    1.13
  -9   4  -2    2.33    1.49
   9   4   3    7.33    1.82
  -9  -4  -3    8.57    2.16
  -9  -4  -3    5.00    1.65
   9  -5  -4    6.04    1.81
   9   5  -4    3.57    1.65
   9  -5  -3    8.31    2.04
   9   5  -3    9.75    2.10
   9  -5  -2    0.30    1.35
   9  -5  -1    1.11    1.27
   9  -5   0    0.36    1.46
   9  -5   0   -0.14    1.11
  -9   5   0    1.71    1.15
   9  -5   1   -0.94    1.18
   9  -5   1   -0.28    1.39
  -9   5  -1   -2.05    1.36
 -10   0   7    8.03    2.01
 -10   0   7    8.18    1.87
 -10   0   6    0.24    1.34
 -10   0   6    2.19    1.28
  10   0  -5   30.04    2.83
  10   0  -5   29.68    3.45
  10   0  -5   29.77    2.85
 -10   0   5   28.28    2.89
 -10   0   5   27.29    2.84
 -10   0   5   29.38    3.21
  10   0  -4   44.19    3.52
  10   0  -4   47.81    4.22
  10   0  -4   45.43    3.59
 -10   0   4   48.79    3.54
  10   0  -4   47.68    3.63
 -10   0   4   47.94    4.00
  10   0  -3    7.51    1.57
  10   0  -3    9.94    2.28
  10   0  -3    6.15    1.62
 -10   0   3   10.13    1.72
 -10   0   3    7.12    1.94
  10   0  -3    9.34    1.88
  10   0  -2    1.46    1.22
  10   0  -2    3.62    1.47
  10   0  -2    2.08    1.40
  10   0  -2    4.68    1.58
 -10   0   2    4.19    1.50
  10   0  -1   -0.05    1.15
  10   0  -1    2.89    1.75
  10   0  -1    1.26    1.27
  10   0  -1   -0.52    1.10
 -10   0   1    0.09    1.23
  10   0   0    2.82    1.41
  10   0   0    1.91    1.32
  10   0   0    3.32    1.48
  10   0   0    2.24    1.27
 -10   0   0    5.50    1.74
  10   0   1    6.80    2.05
  10   0   1    6.69    2.18
  10   0   1    4.63    1.76
  10   0   1    7.35    2.04
 -10   0  -1    5.08    1.80
  10   0   2    2.22    1.80
  10   0   2    0.48    1.31
  10   0   2    2.61    1.53
 -10   0  -2    0.35    1.41
 -10   0  -3   16.50    2.57
 -10  -1   7    4.04    1.41
 -10  -1   7    9.95    2.16
  10   1  -7    5.80    1.63
 -10   1   7    5.21    1.66
 -10  -1   6    1.49    1.27
  10   1  -6    1.59    1.23
  10  -1  -6    0.63    1.17
 -10   1   6    0.31    1.29
 -10  -1   6    3.68    1.59
 -10  -1   6    1.03    1.10
 -10   1   6    2.01    1.39
 -10  -1   5    6.95    1.87
  10   1  -5    5.44    1.48
  10  -1  -5    4.85    1.60
  10   1  -5    2.26    1.52
 -10   1   5    5.02    1.51
 -10  -1   5    4.62    1.44
 -10  -1   5    6.75    1.79
 -10   1   5    2.53    1.25
 -10  -1   4   22.32    2.88
  10   1  -4   20.72    2.56
  10  -1  -4   17.40    2.46
  10  -1  -4   20.44    2.98
  10   1  -4   18.29    2.61
  10  -1  -4   20.20    2.34
 -10   1   4   22.41    2.64
 -10  -1   4   19.36    2.23
  10   1  -4   25.22    2.91
  10  -1  -4   20.24    2.31
 -10   1   4   20.95    2.81
  10   1  -3    5.26    1.49
  10   1  -3    7.92    1.63
  10  -1  -3   10.65    2.06
  10  -1  -3    8.51    2.10
  10   1  -3    9.75    2.24
  10  -1  -3    7.97    1.68
  10   1  -3    7.69    1.86
 -10   1   3    5.97    1.54
  10  -1  -3    8.14    1.71
 -10   1   3   10.61    2.24
 -10  -1   3    8.29    1.91
  10   1  -2   10.37    2.04
  10   1  -2    9.72    1.91
  10  -1  -2    7.00    1.70
  10  -1  -2   10.92    2.42
  10   1  -2    7.60    1.96
  10  -1  -2    7.04    1.61
  10   1  -2    9.65    1.96
 -10   1   2    6.53    1.40
  10  -1  -2    8.44    1.77
 -10   1   2    8.46    2.04
 -10  -1   2    6.99    1.74
  10   1  -1   24.19    2.73
  10  -1  -1   26.90    3.06
  10  -1  -1   22.65    3.02
  10   1  -1   22.94    2.93
  10  -1  -1   24.78    2.88
 -10   1   1   23.55    2.28
  10   1  -1   25.20    2.96
 -10   1   1   28.02    3.15
  10  -1  -1   24.62    2.78
 -10  -1   1   23.22    2.90
  10   1  -1   23.34    2.81
  10   1   0    7.55    1.93
  10  -1   0    4.75    1.67
  10  -1   0    4.87    2.00
  10   1   0    5.18    1.99
  10  -1   0    7.23    1.87
  10   1   0    5.85    1.67
 -10  -1   0    7.14    1.72
  10  -1   0    4.93    1.61
 -10   1   0    5.87    1.73
  10   1   0    5.62    1.73
 -10  -1   0    5.78    1.74
 -10  -1  -1    2.50    1.32
  10  -1   1    8.14    2.18
  10  -1   1    6.15    2.13
  10   1   1    5.75    2.05
  10  -1   1    5.64    1.71
  10   1   1    4.52    1.56
  10  -1   1    5.29    1.67
  10   1   1    2.52    1.24
 -10   1  -1    3.78    1.60
 -10  -1  -2    9.02    2.11
  10  -1   2    8.49    2.31
  10   1   2    7.61    2.09
 -10   1  -2    5.29    1.57
  10  -1   2    4.53    1.79
 -10   1  -2    6.47    1.95
  10  -2  -7   11.80    2.20
  10   2  -7   13.08    2.22
 -10   2   7   11.57    2.20
 -10  -2   6    0.39    1.12
  10   2  -6    1.05    1.26
  10   2  -6    2.19    1.32
  10  -2  -6    0.58    1.24
 -10  -2   6   -1.08    1.31
 -10   2   6    0.41    1.29
 -10  -2   5   19.13    2.74
  10   2  -5   20.60    2.64
  10  -2  -5   19.86    2.72
  10   2  -5   18.65    2.73
 -10   2   5   24.91    2.98
 -10  -2   5   20.93    2.86
 -10   2   5   19.42    2.73
  10  -2  -4   38.97    3.67
  10  -2  -4   37.48    3.80
  10   2  -4   35.72    3.59
  10   2  -4   40.09    3.59
 -10  -2   4   34.73    3.41
 -10   2   4   39.12    3.49
 -10   2   4   38.56    3.67
 -10  -2   4   41.08    3.80
 -10  -2   3    8.19    1.92
  10   2  -3    9.98    2.04
  10  -2  -3   10.91    2.14
  10  -2  -3    9.20    2.15
  10   2  -3    9.49    2.14
  10  -2  -3   10.19    1.86
  10   2  -3    9.81    2.16
 -10   2   3    9.49    1.84
  10  -2  -3   10.80    1.77
 -10   2   3    9.56    2.18
 -10  -2   2    0.67    1.30
  10   2  -2    1.90    1.37
  10  -2  -2    0.74    1.39
  10  -2  -2   -2.58    1.92
  10   2  -2    1.28    1.36
  10  -2  -2    1.25    1.14
  10   2  -2    3.10    1.57
 -10   2   2    0.46    0.99
 -10   2   2    0.18    1.33
 -10  -2   1    4.91    1.71
  10   2  -1    2.53    1.35
  10   2  -1    5.90    1.74
  10  -2  -1   -0.34    1.31
  10  -2  -1    1.60    1.63
  10   2  -1    2.54    1.59
 -10   2   1    2.90    1.24
  10  -2  -1    2.70    1.41
  10   2  -1    0.93    1.23
 -10   2   1    3.95    1.73
 -10  -2   0   -0.46    1.21
  10   2   0   -0.29    1.21
  10   2   0    1.37    1.51
  10  -2   0    0.35    1.48
  10  -2   0   -0.37    1.48
  10   2   0   -1.90    1.42
 -10   2   0   -0.72    1.05
  10  -2   0   -0.02    1.08
  10   2   0   -0.84    1.42
 -10  -2   0    4.01    1.72
 -10   2   0    1.32    1.34
 -10  -2  -1    1.02    1.27
  10  -2   1    4.03    1.97
 -10   2  -1    1.17    1.22
  10  -2   1   -1.09    1.70
  10   2   1    1.68    1.49
  10  -2   1    1.31    1.50
  10   2   1    1.51    1.59
 -10  -2  -1    0.90    1.23
 -10   2  -1   -0.98    1.30
  10   2   2    3.99    1.96
 -10  -2  -2   -1.24    1.33
  10   3  -6   -1.50    1.25
  10   3  -5    5.52    1.64
  10   3  -5    6.70    1.65
  10   3  -4    3.88    1.59
  10  -3  -4    0.93    1.30
  10   3  -4    4.58    1.80
 -10   3   4    2.92    1.51
 -10  -3   4    5.47    1.59
  10   3  -3   14.35    2.39
  10  -3  -3   17.96    2.84
  10  -3  -3   13.81    2.58
  10   3  -3    9.90    2.09
 -10   3   3   11.39    2.19
 -10  -3   3   11.22    2.42
  10   3  -2    9.51    2.15
  10  -3  -2   10.21    2.20
 -10   3   2   10.37    1.86
  10  -3  -2   12.38    2.46
  10   3  -2   10.39    2.17
  10  -3  -2    8.77    1.72
  10   3  -2   12.75    2.24
  10  -3  -1   22.88    3.12
 -10   3   1   19.64    2.48
  10  -3  -1   24.76    3.15
  10   3  -1   24.91    3.00
 -10  -3   1   31.78    3.47
  10  -3  -1   26.41    2.93
 -10   3   0    2.87    1.29
  10   3   0    1.49    1.27
  10  -3   0    5.10    1.59
 -10  -3   0    5.24    1.86
 -10   3  -1    1.69    1.41
  10   3   1    4.49    1.74
  10  -3   1    3.56    1.48
 -10  -3  -1    2.06    1.43
  10   3   2    2.43    1.63
 -10  -3  -2    3.15    1.55
  10   4  -4   19.62    2.63
  10   4  -3    4.15    1.68
  10   4  -2    1.93    1.47
 -10   4   1    0.58    1.06
  10   4  -1    0.70    1.20
 -10   4   0    0.22    1.06
  10   4   0    0.69    1.25
  10  -4   0   -2.60    1.45
  10   4   1    0.15    1.37
  11   0  -4   13.51    2.29
  11   0  -4    8.85    1.83
  11   0  -3    2.83    1.50
  11   0  -3    3.11    1.42
  11   0  -3    3.39    1.41
  11   0  -2    3.14    1.54
  11   0  -2    6.38    1.69
  11   0  -2    5.75    1.68
  11   0  -1    3.76    1.75
  11   0  -1    3.59    1.71
  11   0   0   10.24    2.27
  11   1  -5    0.68    1.11
 -11   1   5    0.40    1.24
 -11  -1   5   -0.12    1.18
  11   1  -4    0.41    1.05
  11  -1  -4   -0.21    1.23
 -11   1   4    2.25    1.40
 -11  -1   4   -0.62    1.19
  11   1  -3    0.01    1.14
  11  -1  -3    0.15    1.13
  11  -1  -3    0.59    1.24
  11   1  -3    1.58    1.25
  11  -1  -3    0.83    1.27
  11   1  -2   -1.18    1.44
  11  -1  -2    3.26    1.65
  11  -1  -2    2.15    1.33
  11  -1  -2   -0.15    1.18
  11   1  -1   -0.75    1.33
  11  -1  -1   -2.56    1.75
  11  -1  -1    1.66    1.57
  11  -1  -1    0.62    1.11
  11   1   0    1.93    1.59
 -11   2   4   13.61    2.33
 -11   2   3    0.72    1.08
 -11   2   2    8.07    1.86
  11  -2  -2    5.58    1.66
 -11   2   1   -0.02    1.14
  11  -2  -1    1.03    1.15
  11   2   0    7.93    2.18
  11   2   1    5.56    2.03
 -11   3   2   -0.31    1.21
   0   0   0    0.00    0.00


TITL V313_3 in P2(1)/m
REM P2(1)/m (#11 in standard setting)
CELL 0.71073   8.123448   6.625214   8.579911  90.0000  98.7115  90.0000
ZERR    2.00   0.000277   0.000234   0.000264   0.0000   0.0030   0.0000
LATT  1
SYMM -x, y+1/2,-z
SFAC C H N O
UNIT 22.00 20.00 2.00 2.00
TREF
HKLF 4
END
_computing_structure_solution     'SHELXT 2014/5 (Sheldrick, 2014)'
;
_shelx_hkl_checksum              61216
_olex2_date_sample_data_collection 2017-04-15
_olex2_submission_special_instructions 'No special instructions were received'
_oxdiff_exptl_absorpt_empirical_details
;
Empirical correction (ABSPACK) includes:
- Absorption correction using spherical harmonics
- Frame scaling
;
_oxdiff_exptl_absorpt_empirical_full_max 1.095
_oxdiff_exptl_absorpt_empirical_full_min 0.936
loop_
_space_group_symop_operation_xyz
'x, y, z'
'-x, y+1/2, -z'
'-x, -y, -z'
'x, -y-1/2, z'
loop_
_atom_site_label
_atom_site_type_symbol
_atom_site_fract_x
_atom_site_fract_y
_atom_site_fract_z
_atom_site_U_iso_or_equiv
_atom_site_adp_type
_atom_site_occupancy
_atom_site_site_symmetry_order
_atom_site_calc_flag
_atom_site_refinement_flags_posn
_atom_site_refinement_flags_adp
_atom_site_refinement_flags_occupancy
O1 O 0.5011(2) 0.250000 -0.28675(16) 0.0548(5) Uani 1 2 d S T P
O2 O 0.67966(17) 0.250000 -0.07587(17) 0.0487(4) Uani 1 2 d S T P
O3 O 0.70869(14) 0.08936(17) 0.45570(11) 0.0474(3) Uani 1 1 d . . .
O4 O 0.8951(2) 0.250000 0.6140(2) 0.0651(5) Uani 1 2 d S T P
N1 N 0.3572(2) 0.250000 0.37425(16) 0.0304(3) Uani 1 2 d S T P
N2 N 0.53741(19) 0.250000 -0.14346(17) 0.0305(3) Uani 1 2 d S T P
N3 N 0.77499(19) 0.250000 0.51188(17) 0.0332(4) Uani 1 2 d S T P
C1 C 0.3144(2) 0.250000 0.20218(17) 0.0249(3) Uani 1 2 d S T P
C2 C 0.1474(2) 0.250000 0.13435(19) 0.0282(4) Uani 1 2 d S T P
C3 C 0.1124(2) 0.250000 -0.0305(2) 0.0348(4) Uani 1 2 d S T P
H3 H 0.002018 0.250000 -0.079124 0.042 Uiso 1 2 calc RS T P
C4 C 0.2381(2) 0.250000 -0.1229(2) 0.0336(4) Uani 1 2 d S T P
H4 H 0.213289 0.250000 -0.232379 0.040 Uiso 1 2 calc RS T P
C5 C 0.4011(2) 0.250000 -0.04866(18) 0.0257(4) Uani 1 2 d S T P
C6 C 0.4433(2) 0.250000 0.11448(18) 0.0251(3) Uani 1 2 d S T P
H6 H 0.553894 0.250000 0.162506 0.030 Uiso 1 2 calc RS T P
C7 C 0.0109(2) 0.250000 0.2343(2) 0.0407(5) Uani 1 2 d S T P
H1A H 0.466(3) 0.250000 0.400(3) 0.048(7) Uiso 1 2 d S T P
H1B H 0.321(2) 0.137(3) 0.418(2) 0.054(5) Uiso 1 1 d . . .
H7A H -0.088(4) 0.250000 0.182(4) 0.075(9) Uiso 1 2 d S T P
H7B H 0.018(3) 0.136(3) 0.307(2) 0.067(6) Uiso 1 1 d . . .
loop_
_atom_site_aniso_label
_atom_site_aniso_U_11
_atom_site_aniso_U_22
_atom_site_aniso_U_33
_atom_site_aniso_U_23
_atom_site_aniso_U_13
_atom_site_aniso_U_12
O1 0.0475(9) 0.0966(14) 0.0222(7) 0.000 0.0111(6) 0.000
O2 0.0267(7) 0.0804(12) 0.0399(8) 0.000 0.0081(6) 0.000
O3 0.0633(7) 0.0411(6) 0.0376(5) -0.0014(4) 0.0069(5) -0.0070(5)
O4 0.0458(9) 0.0950(15) 0.0474(9) 0.000 -0.0154(7) 0.000
N1 0.0291(8) 0.0425(9) 0.0189(6) 0.000 0.0014(5) 0.000
N2 0.0319(8) 0.0352(8) 0.0254(7) 0.000 0.0080(6) 0.000
N3 0.0307(7) 0.0442(9) 0.0254(7) 0.000 0.0063(6) 0.000
C1 0.0270(8) 0.0282(8) 0.0189(7) 0.000 0.0019(6) 0.000
C2 0.0241(8) 0.0350(9) 0.0254(8) 0.000 0.0031(6) 0.000
C3 0.0224(8) 0.0529(11) 0.0272(8) 0.000 -0.0021(6) 0.000
C4 0.0317(9) 0.0479(11) 0.0198(7) 0.000 -0.0003(6) 0.000
C5 0.0258(8) 0.0298(8) 0.0222(7) 0.000 0.0054(6) 0.000
C6 0.0227(7) 0.0291(8) 0.0225(7) 0.000 0.0001(6) 0.000
C7 0.0257(9) 0.0643(14) 0.0332(9) 0.000 0.0083(7) 0.000
loop_
_atom_type_symbol
_atom_type_description
_atom_type_scat_dispersion_real
_atom_type_scat_dispersion_imag
_atom_type_scat_source
C C 0.0033 0.0016 'International Tables Vol C Tables 4.2.6.8 and 6.1.1.4'
H H 0.0000 0.0000 'International Tables Vol C Tables 4.2.6.8 and 6.1.1.4'
N N 0.0061 0.0033 'International Tables Vol C Tables 4.2.6.8 and 6.1.1.4'
O O 0.0106 0.0060 'International Tables Vol C Tables 4.2.6.8 and 6.1.1.4'
loop_
_geom_angle_atom_site_label_1
_geom_angle_atom_site_label_2
_geom_angle_atom_site_label_3
_geom_angle
_geom_angle_site_symmetry_3
C1 N1 H1A 109.2(16) .
C1 N1 H1B 112.1(11) .
C1 N1 H1B 112.1(11) 4_565
H1A N1 H1B 105.8(14) .
H1A N1 H1B 105.8(14) 4_565
H1B N1 H1B 111(2) 4_565
O1 N2 C5 118.05(15) .
O2 N2 O1 123.34(15) .
O2 N2 C5 118.61(14) .
O3 N3 O3 115.91(15) 4_565
O4 N3 O3 122.04(8) .
O4 N3 O3 122.04(8) 4_565
C2 C1 N1 119.23(14) .
C6 C1 N1 117.80(14) .
C6 C1 C2 122.96(14) .
C1 C2 C3 117.23(15) .
C1 C2 C7 121.24(15) .
C3 C2 C7 121.53(16) .
C2 C3 H3 119.2 .
C4 C3 C2 121.64(15) .
C4 C3 H3 119.2 .
C3 C4 H4 120.8 .
C5 C4 C3 118.34(15) .
C5 C4 H4 120.8 .
C4 C5 N2 119.67(14) .
C4 C5 C6 122.56(15) .
C6 C5 N2 117.77(14) .
C1 C6 C5 117.26(14) .
C1 C6 H6 121.4 .
C5 C6 H6 121.4 .
C2 C7 H7A 114(2) .
C2 C7 H7B 113.1(12) .
C2 C7 H7B 113.1(12) 4_565
H7A C7 H7B 107.2(17) .
H7A C7 H7B 107.2(17) 4_565
H7B C7 H7B 101(2) 4_565
loop_
_geom_bond_atom_site_label_1
_geom_bond_atom_site_label_2
_geom_bond_distance
_geom_bond_site_symmetry_2
O1 N2 1.220(2) .
O2 N2 1.212(2) .
O3 N3 1.2556(13) .
O4 N3 1.209(2) .
N1 C1 1.465(2) .
N1 H1A 0.88(3) .
N1 H1B 0.91(2) 4_565
N1 H1B 0.91(2) .
N2 C5 1.470(2) .
C1 C2 1.394(2) .
C1 C6 1.379(2) .
C2 C3 1.400(2) .
C2 C7 1.501(2) .
C3 H3 0.9300 .
C3 C4 1.385(3) .
C4 H4 0.9300 .
C4 C5 1.380(2) .
C5 C6 1.390(2) .
C6 H6 0.9300 .
C7 H7A 0.86(3) .
C7 H7B 0.98(2) .
C7 H7B 0.98(2) 4_565
loop_
_geom_hbond_atom_site_label_D
_geom_hbond_atom_site_label_H
_geom_hbond_atom_site_label_A
_geom_hbond_distance_DH
_geom_hbond_distance_HA
_geom_hbond_distance_DA
_geom_hbond_angle_DHA
_geom_hbond_site_symmetry_A
_geom_hbond_publ_flag
N1 H1A O3 0.88(3) 2.23(2) 3.0279(19) 151.5(3) . yes
N1 H1A O3 0.88(3) 2.23(2) 3.0279(19) 151.5(4) 4_565 yes
N1 H1B O3 0.91(2) 1.88(2) 2.7762(13) 166.5(17) 3_656 yes
loop_
_geom_torsion_atom_site_label_1
_geom_torsion_atom_site_label_2
_geom_torsion_atom_site_label_3
_geom_torsion_atom_site_label_4
_geom_torsion
O1 N2 C5 C4 0.000(0)
O1 N2 C5 C6 180.000(0)
O2 N2 C5 C4 180.0
O2 N2 C5 C6 0.000(0)
N1 C1 C2 C3 180.000(0)
N1 C1 C2 C7 0.000(0)
N1 C1 C6 C5 180.000(0)
N2 C5 C6 C1 180.000(0)
C1 C2 C3 C4 0.000(0)
C2 C1 C6 C5 0.000(0)
C2 C3 C4 C5 0.000(0)
C3 C4 C5 N2 180.0
C3 C4 C5 C6 0.000(0)
C4 C5 C6 C1 0.0
C6 C1 C2 C3 0.000(0)
C6 C1 C2 C7 180.000(0)
C7 C2 C3 C4 180.000(0)

_cod_database_fobs_code 2108517
