#------------------------------------------------------------------------------
#$Date: 2021-09-22 04:47:00 +0300 (Wed, 22 Sep 2021) $
#$Revision: 269240 $
#$URL: file:///home/coder/svn-repositories/cod/cif/2/10/88/2108882.cif $
#------------------------------------------------------------------------------
#
# This file is available in the Crystallography Open Database (COD),
# http://www.crystallography.net/. The original data for this entry
# were provided by IUCr Journals, http://journals.iucr.org/.
#
# The file may be used within the scientific community so long as
# proper attribution is given to the journal article from which the
# data were obtained.
#
data_2108882
loop_
_publ_author_name
'Novelli, Giulia'
'McMonagle, Charles J.'
'Kleemiss, Florian'
'Probert, Michael'
'Puschmann, Horst'
'Grabowsky, Simon'
'Maynard-Casely, Helen E.'
'McIntyre, Garry J.'
'Parsons, Simon'
_publ_section_title
;
 Accurate H-atom parameters for the two polymorphs of
 <small>L</small>-histidine at 5, 105 and 295K
;
_journal_issue                   5
_journal_name_full               'Acta Crystallographica Section B'
_journal_page_first
;
;
_journal_paper_doi               10.1107/S205252062100740X
_journal_volume                  77
_journal_year                    2021
_chemical_absolute_configuration syn
_chemical_formula_moiety         'C6 H9 N3 O2'
_chemical_formula_sum            'C6 H9 N3 O2'
_chemical_formula_weight         155.157
_space_group_crystal_system      monoclinic
_space_group_IT_number           4
_space_group_name_Hall           'P 2yb'
_space_group_name_H-M_alt        'P 1 21 1'
_symmetry_Int_Tables_number      4
_audit_creation_date             2021-02-14
_audit_creation_method
;
Olex2 1.3
(compiled 2020.11.12 svn.r5f609507 for OlexSys, GUI svn.r6257)
;
_cell_angle_alpha                90
_cell_angle_beta                 97.065(2)
_cell_angle_gamma                90
_cell_formula_units_Z            2
_cell_length_a                   5.1651(2)
_cell_length_b                   7.2324(2)
_cell_length_c                   9.4957(3)
_cell_measurement_reflns_used    4301
_cell_measurement_temperature    5
_cell_measurement_theta_max      30.47
_cell_measurement_theta_min      3.55
_cell_volume                     352.03(2)
_computing_cell_refinement       'SAINT V8.38A (?, 2016)'
_computing_data_reduction        'SAINT V8.38A (?, 2016)'
_computing_molecular_graphics    'Olex2 (Dolomanov et al., 2009)'
_computing_publication_material  'Olex2 (Dolomanov et al., 2009)'
_computing_structure_refinement  'ShelXL (Sheldrick, 2015)'
_computing_structure_solution    'ShelXT (Sheldrick, 2015)'
_diffrn_ambient_temperature      5
_diffrn_measured_fraction_theta_full 0.9971
_diffrn_measured_fraction_theta_max 0.9931
_diffrn_measurement_device       'XIPHOS four-circle diffractometer'
_diffrn_measurement_device_type  'Bruker APEX-II CCD'
_diffrn_measurement_method       '\f scans'
_diffrn_radiation_collimation    focused
_diffrn_radiation_monochromator  'multilayer optics'
_diffrn_radiation_probe          x-ray
_diffrn_radiation_type           'Mo K\a'
_diffrn_radiation_wavelength     0.71073
_diffrn_reflns_av_R_equivalents  0.0254
_diffrn_reflns_av_unetI/netI     0.0197
_diffrn_reflns_Laue_measured_fraction_full 0.9971
_diffrn_reflns_Laue_measured_fraction_max 0.9931
_diffrn_reflns_limit_h_max       7
_diffrn_reflns_limit_h_min       -7
_diffrn_reflns_limit_k_max       10
_diffrn_reflns_limit_k_min       -10
_diffrn_reflns_limit_l_max       13
_diffrn_reflns_limit_l_min       -13
_diffrn_reflns_number            11118
_diffrn_reflns_point_group_measured_fraction_full 0.9977
_diffrn_reflns_point_group_measured_fraction_max 0.9912
_diffrn_reflns_theta_full        25.2417
_diffrn_reflns_theta_max         30.52
_diffrn_reflns_theta_min         3.55
_diffrn_source                   'rotating anode'
_diffrn_source_target            Mo
_diffrn_source_type              'Bruker TXS with Helios Optics'
_exptl_absorpt_coefficient_mu    0.113
_exptl_absorpt_correction_T_max  0.7461
_exptl_absorpt_correction_T_min  0.6867
_exptl_absorpt_correction_type   multi-scan
_exptl_absorpt_process_details
;
 SADABS 2016/2: Krause, L., Herbst-Irmer, R., Sheldrick G.M. & Stalke D.,
 J. Appl. Cryst. 48 (2015) 3-10
;
_exptl_crystal_colour            colourless
_exptl_crystal_density_diffrn    1.464
_exptl_crystal_description       plate
_exptl_crystal_F_000             164.036
_exptl_crystal_size_max          0.2
_exptl_crystal_size_mid          0.2
_exptl_crystal_size_min          0.1
_refine_diff_density_max         0.1200
_refine_diff_density_min         -0.0987
_refine_diff_density_rms         0.0307
_refine_ls_abs_structure_details
'Flack, H. D. (1983). Acta Cryst. A39, 876-881.'
_refine_ls_abs_structure_Flack   0.4(9)
_refine_ls_d_res_high            0.6997
_refine_ls_d_res_low             5.7374
_refine_ls_goodness_of_fit_ref   1.2760
_refine_ls_hydrogen_treatment    refall
_refine_ls_matrix_type           full
_refine_ls_number_constraints    0
_refine_ls_number_parameters     181
_refine_ls_number_reflns         2138
_refine_ls_number_restraints     100
_refine_ls_restrained_S_all      1.2449
_refine_ls_R_factor_all          0.0178
_refine_ls_R_factor_gt           0.0167
_refine_ls_shift/su_max          0.0005
_refine_ls_shift/su_mean         0.0000
_refine_ls_structure_factor_coef Fsqd
_refine_ls_weighting_details
'w=1/[\s^2^(Fo^2^)+(0.0081P)^2^] where P=(Fo^2^+2Fc^2^)/3'
_refine_ls_weighting_scheme      calc
_refine_ls_wR_factor_gt          0.0284
_refine_ls_wR_factor_ref         0.0286
_reflns_Friedel_coverage         0.989
_reflns_limit_h_max              7
_reflns_limit_h_min              -7
_reflns_limit_k_max              10
_reflns_limit_k_min              -10
_reflns_limit_l_max              13
_reflns_limit_l_min              -13
_reflns_number_gt                2087
_reflns_number_total             2138
_reflns_threshold_expression     I>=2u(I)
_iucr_refine_instructions_details
;
TITL mono_5k_xray_final_a.res in P2(1)
REM Old TITL mono_5K_xray_final in P2(1)
REM SHELXT solution in P2(1)
REM R1 0.073, Rweak 0.025, Alpha 0.002, Orientation as input
REM Flack x = 0.407 ( 0.268 ) from Parsons' quotients
REM Formula found by SHELXT: C7 N2 O2
CELL 0.71073 5.1651 7.2324 9.4957 90 97.065 90
ZERR 2 0.0002 0.0002 0.0003 0 0.002 0
LATT -1
SYMM -X,0.5+Y,-Z
SFAC C H N O
DISP C 0.0021 0.0016 11.5003
DISP H 0 0 0.624
DISP N 0.0041 0.0033 19.5955
DISP O 0.0079 0.0061 32.4922
UNIT 12 18 6 4
EQIV $1 1+X,+Y,+Z
EQIV $2 1-X,0.5+Y,2-Z
EQIV $3 +X,+Y,-1+Z
RIGU 0.003 0.003 H5 H3 H6 C4 N2 C5 N3 C6
RIGU 0.003 0.003 H1A H1B H1C N1
RIGU 0.003 0.003 H3A C3 H3B C2 H2

L.S. 99 0 0
PLAN  1
TEMP -268.15
CONF
HTAB N1 O2_$1
HTAB N1 O2_$2
HTAB N1 N2
HTAB N3 O1_$3
BOND $H
MORE -1
fmap 2 53
acta 
LIST -6
OMIT 0 0 1
OMIT 0 0 6
WGHT 0.008144 0
FVAR 1.300531
REM <olex2.extras>
REM <HklSrc "%.\\HMTX18.hkl">
REM </olex2.extras>

O2    4     0.31533  0.45284  1.01583  11.00000  0.00614  0.00906  0.00920 =
 0.00264  0.00196 -0.00018 
O1    4     0.74155  0.44673  1.09914  11.00000  0.00706  0.01195  0.00635 =
 0.00161  0.00069 -0.00011 
N1    3     0.87626  0.63462  0.87300  11.00000  0.00706  0.00605  0.00698 =
 -0.00020  0.00082 -0.00118 
H1A   2     0.93951  0.63863  0.77585  11.00000  0.02171  0.02076  0.01249 =
 0.00435  0.00578  0.00558 
H1B   2     1.01072  0.56909  0.94108  11.00000  0.01503  0.01619  0.01478 =
 0.00379 -0.00473  0.00079 
H1C   2     0.84929  0.76552  0.90941  11.00000  0.02178  0.01159  0.02263 =
 -0.00292  0.00476  0.00207 
N3    3     0.72055  0.44327  0.38766  11.00000  0.00872  0.00794  0.00553 =
 -0.00005  0.00092 -0.00014 
H3    2     0.68852  0.43468  0.28184  11.00000  0.01582  0.01534  0.00896 =
 -0.00147  0.00114 -0.00203 
N2    3     0.92189  0.51432  0.60095  11.00000  0.00704  0.00777  0.00656 =
 -0.00049  0.00065 -0.00197 
C1    1     0.55412  0.47508  1.00470  11.00000  0.00626  0.00526  0.00605 =
 0.00000  0.00129  0.00030 
C4    1     0.69853  0.41306  0.61655  11.00000  0.00733  0.00636  0.00533 =
 0.00000  0.00162 -0.00052 
C6    1     0.57237  0.36816  0.48466  11.00000  0.00786  0.00765  0.00634 =
 -0.00089  0.00037 -0.00123 
H6    2     0.39610  0.29179  0.45305  11.00000  0.01687  0.02746  0.02134 =
 -0.00149 -0.00023 -0.01143 
C2    1     0.62067  0.53564  0.85771  11.00000  0.00599  0.00637  0.00523 =
 0.00051  0.00109  0.00016 
H2    2     0.47081  0.63128  0.81084  11.00000  0.01028  0.00166  0.02229 =
 0.00416 -0.00190 -0.00092 
C5    1     0.92631  0.52932  0.46208  11.00000  0.00820  0.00810  0.00745 =
 0.00025  0.00207 -0.00081 
H5    2     1.07206  0.60382  0.41327  11.00000  0.02778  0.03391  0.01791 =
 0.00409  0.00741 -0.01615 
C3    1     0.62991  0.36483  0.76129  11.00000  0.00958  0.00611  0.00635 =
 -0.00036  0.00139 -0.00143 
H3A   2     0.77034  0.26921  0.81626  11.00000  0.02808  0.01411  0.02472 =
 0.00052 -0.00455  0.00657 
H3B   2     0.43547  0.30262  0.75134  11.00000  0.01569  0.02031  0.02431 =
 -0.00168  0.00211 -0.00689 
HKLF 4

END
Q1 1 0.7 0.44 1.027778 11 0.05 0.12

  REM The information below was added by Olex2.
  REM
  REM R1 = 0.0167 for 2087 Fo > 4sig(Fo) and 0.0178 for all 2138 data
  REM 181 parameters refined using 100 restraints
  REM Highest difference peak 0.1200, deepest hole -0.0987
  REM Mean Shift 0.0000, Max Shift 0.0005.

  REM +++ Tabular Listing of Refinement Information +++
  REM R1_all = 0.0178
  REM R1_gt = 0.0167
  REM wR_ref = 0.0286
  REM GOOF = 1.2760
  REM Shift_max = 0.0005
  REM Shift_mean = 0.0000
  REM Reflections_all = 2138
  REM Reflections_gt = 2087
  REM Parameters = 181
  REM Hole = -0.0987
  REM Peak = 0.1200
  REM Flack = 0.4(9)

  
;
_cod_data_source_file            um5050sup1.cif
_cod_data_source_block           HMTX18
_cod_original_sg_symbol_Hall     ' P 2yb'
_cod_database_code               2108882
_shelx_shelxl_version_number     2017/1
_olex2_refinement_description
;
1. Rigid body (RIGU) restrains
 H5, H3, H6, C4, N2, C5, N3, C6
 with sigma for 1-2 distances of 0.003 and sigma for 1-3 distances of 0.003
 H1A, H1B, H1C, N1
 with sigma for 1-2 distances of 0.003 and sigma for 1-3 distances of 0.003
 H3A, C3, H3B, C2, H2
 with sigma for 1-2 distances of 0.003 and sigma for 1-3 distances of 0.003
;
_olex2_submission_special_instructions 'No special instructions were received'
loop_
_space_group_symop_id
_space_group_symop_operation_xyz
1 x,y,z
2 -x,y+1/2,-z
loop_
_atom_site_label
_atom_site_type_symbol
_atom_site_fract_x
_atom_site_fract_y
_atom_site_fract_z
_atom_site_U_iso_or_equiv
_atom_site_adp_type
_atom_site_occupancy
_atom_site_refinement_flags_posn
_atom_site_refinement_flags_adp
O2 O 0.31533(7) 0.45284(5) 1.01583(3) 0.00805(8) Uani 1.000000 . .
O1 O 0.74155(7) 0.44673(6) 1.09914(3) 0.00847(8) Uani 1.000000 . .
N1 N 0.87626(10) 0.63462(6) 0.87300(4) 0.00670(9) Uani 1.000000 . U
H1A H 0.9395(16) 0.6386(12) 0.7759(8) 0.0180(19) Uani 1.000000 . U
H1B H 1.0107(16) 0.5691(12) 0.9411(8) 0.016(2) Uani 1.000000 . U
H1C H 0.8493(17) 0.7655(12) 0.9094(9) 0.019(2) Uani 1.000000 . U
N3 N 0.72055(9) 0.44327(7) 0.38766(4) 0.00739(9) Uani 1.000000 . U
H3 H 0.6885(14) 0.4347(13) 0.2818(7) 0.0134(19) Uani 1.000000 . U
N2 N 0.92189(9) 0.51432(6) 0.60095(4) 0.00714(10) Uani 1.000000 . U
C1 C 0.55412(11) 0.47508(7) 1.00470(5) 0.00581(10) Uani 1.000000 . .
C4 C 0.69853(11) 0.41306(7) 0.61655(5) 0.00627(11) Uani 1.000000 . U
C6 C 0.57237(11) 0.36816(8) 0.48466(5) 0.00733(11) Uani 1.000000 . U
H6 H 0.3961(15) 0.2918(12) 0.4530(7) 0.022(2) Uani 1.000000 . U
C2 C 0.62067(10) 0.53564(7) 0.85771(5) 0.00583(10) Uani 1.000000 . U
H2 H 0.4708(13) 0.6313(10) 0.8108(6) 0.0117(17) Uani 1.000000 . U
C5 C 0.92631(11) 0.52932(8) 0.46208(5) 0.00783(11) Uani 1.000000 . U
H5 H 1.0721(15) 0.6038(11) 0.4133(7) 0.026(2) Uani 1.000000 . U
C3 C 0.62991(12) 0.36483(7) 0.76129(5) 0.00731(11) Uani 1.000000 . U
H3A H 0.7703(15) 0.2692(11) 0.8163(8) 0.0230(19) Uani 1.000000 . U
H3B H 0.4355(15) 0.3026(11) 0.7513(7) 0.0201(18) Uani 1.000000 . U
loop_
_atom_site_aniso_label
_atom_site_aniso_U_11
_atom_site_aniso_U_22
_atom_site_aniso_U_33
_atom_site_aniso_U_12
_atom_site_aniso_U_13
_atom_site_aniso_U_23
O2 0.00614(19) 0.00906(18) 0.00920(14) -0.00018(17) 0.00196(13) 0.00264(14)
O1 0.0071(2) 0.01195(18) 0.00635(14) -0.00011(18) 0.00069(12) 0.00161(14)
N1 0.0071(2) 0.0060(2) 0.00698(18) -0.00118(19) 0.00082(17) -0.00020(16)
H1A 0.022(5) 0.021(5) 0.012(2) 0.006(3) 0.0058(14) 0.0043(16)
H1B 0.015(4) 0.016(4) 0.015(3) 0.001(2) -0.0047(18) 0.0038(18)
H1C 0.022(5) 0.012(3) 0.023(4) 0.0021(17) 0.005(3) -0.0029(15)
N3 0.0087(2) 0.0079(2) 0.00553(16) -0.00014(19) 0.00092(14) -0.00005(16)
H3 0.016(4) 0.015(5) 0.009(2) -0.002(3) 0.0011(12) -0.0015(13)
N2 0.0070(2) 0.0078(2) 0.00656(17) -0.00197(18) 0.00065(15) -0.00049(15)
C1 0.0063(3) 0.0053(3) 0.00605(18) 0.0003(2) 0.00129(17) 0.00000(17)
C4 0.0073(3) 0.0064(3) 0.00533(19) -0.0005(2) 0.00162(17) 0.00000(16)
C6 0.0079(3) 0.0076(3) 0.0063(2) -0.0012(2) 0.00037(18) -0.00089(18)
H6 0.017(3) 0.027(5) 0.021(4) -0.0114(19) -0.0002(19) -0.001(3)
C2 0.0060(3) 0.0064(2) 0.00523(19) 0.0002(2) 0.00109(17) 0.00051(18)
H2 0.010(4) 0.002(3) 0.022(4) -0.0009(17) -0.002(2) 0.004(2)
C5 0.0082(3) 0.0081(2) 0.0075(2) -0.0008(2) 0.00207(18) 0.00025(18)
H5 0.028(4) 0.034(6) 0.018(4) -0.016(2) 0.0074(18) 0.004(2)
C3 0.0096(3) 0.0061(2) 0.0064(2) -0.0014(2) 0.00139(18) -0.00036(17)
H3A 0.028(4) 0.014(4) 0.025(4) 0.0066(18) -0.005(2) 0.001(2)
H3B 0.016(3) 0.020(4) 0.024(4) -0.0069(15) 0.0021(17) -0.002(3)
loop_
_atom_type_symbol
_atom_type_scat_dispersion_real
_atom_type_scat_dispersion_imag
_atom_type_scat_source
_atom_type_scat_dispersion_source
H 0.00000 0.00000 'NoSpherA2: Chem.Sci. 2021, DOI:10.1039/D0SC05526C' custom
C 0.00210 0.00160 'NoSpherA2: Chem.Sci. 2021, DOI:10.1039/D0SC05526C' custom
O 0.00790 0.00610 'NoSpherA2: Chem.Sci. 2021, DOI:10.1039/D0SC05526C' custom
N 0.00410 0.00330 'NoSpherA2: Chem.Sci. 2021, DOI:10.1039/D0SC05526C' custom
loop_
_diffrn_refln_index_h
_diffrn_refln_index_k
_diffrn_refln_index_l
_diffrn_refln_intensity_net
_diffrn_refln_intensity_u
-1 0 0 453.55 10.2
-1 0 0 430.36 9.1
1 0 0 458.75 10.4
1 0 0 437.26 9.2
2 0 0 224.78 7.9
-2 0 0 221.38 4.5
2 0 0 230.28 5
-2 0 0 232.38 4.8
2 0 0 221.58 4.5
-2 0 0 238.68 7.2
2 0 0 223.98 5.8
-3 0 0 536.95 10.9
-3 0 0 538.95 10.7
3 0 0 556.64 16.2
3 0 0 518.45 10.6
3 0 0 563.04 11.3
3 0 0 557.94 13.2
-3 0 0 545.05 14.6
0 -1 0 -0.4 0.2
0 -1 0 0 0.1
0 1 0 1.2 0.6
0 1 0 0.1 0.1
-1 -1 0 5101.49 98.69
1 -1 0 5104.59 101.69
1 -1 0 5021.7 100.49
-1 -1 0 5171.28 105.09
-1 1 0 5063.79 99.79
-1 1 0 5143.49 101.59
1 1 0 5204.18 106.99
1 1 0 5141.69 98.79
-1 1 0 5030.7 125.49
2 -1 0 592.44 11.8
2 -1 0 558.54 16.6
-2 -1 0 577.44 11.9
-2 -1 0 557.34 11.8
2 -1 0 572.64 13
-2 1 0 569.54 11.5
-2 1 0 583.74 11.5
-2 1 0 588.34 16.2
2 1 0 572.34 13
2 1 0 556.74 13.2
-3 -1 0 416.56 8.1
-3 -1 0 408.46 9.6
3 -1 0 388.16 8.2
3 -1 0 427.76 15.1
3 -1 0 422.06 10.7
-3 -1 0 412.96 8
3 -1 0 426.76 9.1
-3 1 0 413.76 13.7
3 1 0 392.76 11.3
3 1 0 402.16 8.2
-3 1 0 411.16 8.7
3 1 0 419.56 8.5
3 1 0 424.76 12
4 -1 0 22.6 1.3
4 -1 0 35.8 2.8
-4 1 0 29.1 1.4
0 -2 0 9541.85 187.88
0 -2 0 9105.29 208.08
0 -2 0 9999 248.68
0 2 0 9490.85 187.78
0 2 0 9468.25 219.48
0 2 0 9795.52 242.48
-1 -2 0 2066.29 40.2
1 -2 0 2070.49 42.9
1 -2 0 2005.9 45.8
-1 -2 0 2034.2 43.1
1 -2 0 1997.4 40.8
-1 2 0 2065.79 41.3
-1 2 0 2086.29 42.3
1 2 0 2055.49 40.1
1 2 0 2087.99 43
-1 2 0 2097.59 46
2 -2 0 806.22 16.1
2 -2 0 799.12 22.9
-2 -2 0 768.82 16.9
2 -2 0 787.62 17.6
-2 -2 0 777.42 15.7
2 2 0 778.22 17.8
-2 2 0 803.42 22.3
2 2 0 768.82 16
-2 2 0 784.72 15.8
3 -2 0 696.43 22.4
3 -2 0 698.13 14.5
-3 2 0 666.93 21
-3 2 0 661.23 14
4 -2 0 97.49 2.5
4 -2 0 109.79 4.1
-4 2 0 100.09 3.1
0 -3 0 -1.5 1.7
0 -3 0 0.5 0.5
0 -3 0 0.1 0.1
0 3 0 0.3 0.4
0 3 0 0.4 1.6
0 3 0 0.2 0.4
-1 -3 0 294.47 6.2
1 -3 0 311.17 6.8
-1 -3 0 285.07 10.5
-1 -3 0 279.47 5.8
-1 -3 0 290.27 7.2
1 -3 0 283.57 5.9
1 -3 0 284.77 12.4
-1 3 0 297.37 12.3
1 3 0 285.47 6.1
-1 3 0 295.87 8.3
-1 3 0 289.37 6.5
1 3 0 290.97 7.2
1 3 0 293.07 5.9
1 3 0 297.57 10.3
2 -3 0 301.37 13.9
2 -3 0 338.27 7.7
-2 -3 0 328.47 7.5
-2 -3 0 329.27 6.7
-2 -3 0 312.37 6.3
-2 -3 0 305.47 10.3
2 3 0 321.17 6.6
-2 3 0 358.26 14.3
2 3 0 315.17 10.1
-2 3 0 318.77 9.4
2 3 0 323.77 7.5
-2 3 0 321.87 7.3
2 3 0 331.57 6.5
3 -3 0 231.98 6.2
-3 3 0 225.68 5.7
4 -3 0 27.8 3.1
-4 3 0 29.8 1.8
5 -3 0 277.97 6.2
5 -3 0 278.77 8.2
-5 3 0 275.37 7.2
0 -4 0 560.24 11.4
0 -4 0 585.54 12.3
0 -4 0 573.34 19.9
0 4 0 581.44 11.7
0 4 0 586.64 12
0 4 0 595.14 14.1
0 4 0 595.04 19.4
1 -4 0 127.59 9.8
-1 -4 0 162.28 9
1 -4 0 149.49 3.4
-1 -4 0 160.78 4
1 -4 0 159.58 4.4
-1 -4 0 149.39 3.3
-1 4 0 167.38 6.1
1 4 0 154.48 3.8
1 4 0 154.08 5
-1 4 0 157.98 4.2
-1 4 0 159.18 10.2
1 4 0 160.68 8.4
1 4 0 158.58 3.5
-2 -4 0 781.02 15.4
2 -4 0 768.42 16.5
-2 -4 0 753.22 14.8
-2 4 0 778.32 16.1
2 4 0 737.33 15.4
2 4 0 782.92 15
3 -4 0 69.39 3.5
-3 4 0 59.39 2.6
4 -4 0 201.58 6.5
-4 4 0 202.98 5.7
5 -4 0 150.78 3.9
5 -4 0 143.19 6.1
-5 4 0 149.09 4.8
0 5 0 4.7 1
-1 -5 0 37.9 1.8
-1 -5 0 39.5 1.2
1 -5 0 40.2 2.4
-1 -5 0 27.8 5.7
-1 5 0 42.6 2.1
1 5 0 44 6.3
1 5 0 42.6 1.4
1 5 0 41.6 1.8
1 5 0 41 2.6
2 -5 0 174.18 5.4
-2 5 0 182.48 5.1
3 -5 0 366.46 9.5
-3 5 0 373.46 9
4 -5 0 11 2.4
-4 5 0 13.9 1.7
5 -5 0 75.49 2.7
5 -5 0 71.79 5.4
-5 5 0 78.39 3.6
0 -6 0 105.99 3.6
0 6 0 90.19 2.7
0 6 0 104.79 3.5
-1 -6 0 13.5 0.7
1 -6 0 12.7 1.6
-1 -6 0 12.2 1.3
1 6 0 15.6 1.6
-1 6 0 13.8 1.5
1 6 0 12.6 0.9
-1 6 0 12.7 1
2 -6 0 448.96 11.2
-2 6 0 451.95 9.8
-2 6 0 447.26 10.6
3 -6 0 55.59 3.8
-3 6 0 53.29 3
4 -6 0 213.78 7.6
-4 6 0 213.68 6.6
-4 6 0 216.98 5.6
5 -6 0 133.09 6.3
5 -6 0 135.09 3.8
-5 6 0 133.79 4.2
-5 6 0 134.39 5
1 -7 0 34.9 2.5
-1 -7 0 37.8 2.4
-1 7 0 35.7 1.8
-1 7 0 35 2.3
1 7 0 32.2 2.7
1 7 0 34.7 1.6
2 -7 0 20.8 2.6
-2 7 0 23.5 2.1
-2 7 0 25.7 1.7
3 -7 0 463.65 12.2
-3 7 0 473.95 10.6
-3 7 0 479.75 11.6
4 -7 0 90.49 5.2
-4 7 0 92.59 3.3
-4 7 0 92.79 4.4
5 -7 0 34.9 2.1
5 -7 0 34.3 4.3
-5 7 0 31.2 2.2
-5 7 0 34.6 2.9
0 -8 0 11.5 1.6
0 8 0 9.4 1.1
0 8 0 9.1 1.5
1 -8 0 97.89 4.3
-1 8 0 102.89 4
-1 8 0 103.89 3.3
2 -8 0 208.28 6.9
-2 8 0 207.88 5.5
-2 8 0 206.08 6.5
3 -8 0 54.09 3.7
-3 8 0 57.29 3.4
-3 8 0 52.09 2.5
4 -8 0 175.18 7
-4 8 0 167.38 6.2
-4 8 0 170.98 5.1
0 -9 0 2.3 1
0 9 0 -0.5 0.8
0 9 0 0 1.5
1 -9 0 50.59 3.2
-1 9 0 44.7 2.4
-1 9 0 49.9 3.3
2 -9 0 76.99 4.5
-2 9 0 82.49 3.2
-2 9 0 81.79 4
3 -9 0 65.89 4.3
-3 9 0 53.49 3.8
-3 9 0 59.79 2.8
1 -10 0 131.59 5.5
-1 10 0 136.99 5.4
-1 10 0 134.09 4.3
3 0 -1 474.55 11
3 0 -1 495.85 9.9
3 0 -1 471.25 14.7
-3 0 1 485.75 9.7
-3 0 1 466.25 10.9
-3 0 1 501.55 13.5
3 0 -1 468.25 9.4
-2 0 1 355.56 10
-2 0 1 340.47 7.8
2 0 -1 362.06 10.8
1 0 -1 26.6 1
-1 0 1 30 2
-1 0 1 24.8 1
1 0 -1 28.2 1.9
0 0 1 31 1.2
-1 0 -1 1528.75 31.2
-1 0 -1 1519.85 30.7
1 0 1 1530.15 31.2
1 0 1 1543.55 31.7
-2 0 -1 270.97 7
-2 0 -1 274.97 5.6
2 0 1 263.17 5.4
-2 0 -1 275.47 8.2
2 0 1 276.77 6.2
2 0 1 263.07 8.9
-2 0 -1 271.57 5.4
2 0 1 265.47 7.7
-3 0 -1 597.74 15.8
-3 0 -1 601.24 13.8
3 0 1 612.04 12.6
3 0 1 605.24 17.8
3 0 1 611.14 15.5
-3 0 -1 588.54 11.8
3 0 1 574.14 11.8
-3 0 -1 615.94 12.1
4 -1 -1 34 1.2
4 -1 -1 38.8 2.6
-4 1 1 36.2 1.6
3 -1 -1 116.69 8.3
3 -1 -1 138.39 4.7
3 -1 -1 126.99 3.6
-3 1 1 129.79 7.3
-3 1 1 122.89 4.5
-3 1 1 126.79 3.3
2 -1 -1 288.27 10.9
2 -1 -1 273.47 5.6
2 -1 -1 292.27 6.2
-2 1 1 278.17 7.3
-2 1 1 286.97 6
-2 1 1 293.77 10.5
1 -1 -1 388.56 8.2
1 -1 -1 423.16 9.4
1 -1 -1 436.96 8.6
1 -1 -1 448.46 12.7
-1 1 1 413.36 9.4
-1 1 1 436.06 12.5
-1 1 1 421.46 8.4
-1 1 1 424.16 8.5
0 -1 1 453.15 11.1
0 -1 1 458.35 9.8
0 -1 -1 460.55 9.8
0 -1 -1 473.25 12.4
0 1 1 466.55 12.4
0 1 -1 453.05 9.7
0 1 1 454.25 9.7
0 1 -1 454.95 10.9
1 -1 1 1227.18 24.4
1 -1 1 1189.88 24.4
-1 -1 -1 1192.98 23.7
-1 -1 -1 1232.48 26.2
1 -1 1 1112.49 23.7
1 -1 1 1196.78 27.1
1 1 1 1195.58 26.6
1 1 1 1204.08 23.9
-1 1 -1 1170.58 24.3
-1 1 -1 1186.88 26.5
-1 1 -1 1178.08 24.1
-1 1 -1 1169.98 24.3
-2 -1 -1 286.87 7.3
2 -1 1 289.17 6.4
2 -1 1 289.87 10.6
-2 -1 -1 279.97 5.6
-2 -1 -1 275.97 6.9
2 -1 1 272.27 5.7
2 -1 1 286.47 7.8
-2 -1 -1 279.27 5.6
2 1 1 275.47 8
-2 1 -1 277.57 5.7
-2 1 -1 289.87 9.8
-2 1 -1 282.37 6.1
2 1 1 278.27 5.7
2 1 1 279.07 9.1
2 1 1 287.27 6.2
-2 1 -1 280.87 7.5
-3 -1 -1 4.5 0.4
-3 -1 -1 5.1 1
-3 -1 -1 4.2 0.4
3 -1 1 -0.1 2.2
3 -1 1 4.8 1.4
3 -1 1 4.7 1.1
-3 -1 -1 4.1 0.9
3 1 1 5.2 1.7
-3 1 -1 4 0.5
3 1 1 5.4 0.6
-3 1 -1 2.5 1.6
3 1 1 1.2 1.9
-3 1 -1 4.3 0.7
3 1 1 6.6 1
4 -1 1 1329.77 26.2
4 -1 1 1357.26 27.2
-4 1 -1 1329.17 26.2
-4 1 -1 1333.17 26.5
4 -2 -1 58.09 3.3
-4 2 1 59.59 2.3
3 -2 -1 276.57 6.7
3 -2 -1 270.67 13.3
-3 2 1 283.67 8.3
-3 2 1 277.87 12.3
-3 2 1 266.87 6.3
2 -2 -1 488.65 17.1
2 -2 -1 490.75 10.4
2 -2 -1 464.95 9.6
-2 2 1 497.25 10.1
-2 2 1 486.75 12
-2 2 1 502.55 16.6
1 -2 -1 1989.7 40.1
-1 -2 1 1984.4 38.8
1 -2 -1 2091.09 40.2
-1 -2 1 1935.11 41
1 -2 -1 1961 45.4
-1 2 1 2041.7 45.2
1 2 -1 1944.31 40.5
-1 2 1 2028.9 40.1
1 2 -1 1954.9 38.8
-1 2 1 1932.61 40
-1 2 1 2017 41.1
0 -2 1 205.88 7.8
0 -2 -1 201.48 4.3
0 -2 -1 226.58 8.8
0 -2 -1 214.48 5.7
0 -2 1 208.18 5.5
0 -2 -1 221.08 4.7
0 -2 1 219.28 4.8
0 2 -1 211.48 4.5
0 2 1 218.28 8.7
0 2 1 212.08 5.6
0 2 -1 208.48 4.3
0 2 1 211.98 4.4
0 2 1 207.48 4.6
0 2 -1 208.98 7.5
-1 -2 -1 1166.38 22.5
1 -2 1 1188.78 22.8
-1 -2 -1 1081.39 22.6
1 -2 1 1131.49 28.5
-1 -2 -1 1170.08 27.2
1 -2 1 1153.88 24.2
-1 -2 -1 1148.59 23.3
1 2 1 1136.29 22.9
1 2 1 1098.19 22.6
1 2 1 1151.88 27.2
-1 2 -1 1152.68 27.9
1 2 1 1146.79 23.2
-1 2 -1 1146.39 23.3
2 -2 1 140.09 8.3
-2 -2 -1 146.79 5.8
-2 -2 -1 143.99 3.1
2 -2 1 145.59 4
2 -2 1 145.99 5.2
-2 -2 -1 140.09 2.9
-2 -2 -1 136.49 4
-2 2 -1 138.09 3.1
-2 2 -1 142.69 7.5
2 2 1 138.99 4.3
-2 2 -1 138.79 3.5
2 2 1 127.89 6.5
2 2 1 143.39 3.5
2 2 1 138.69 3.2
3 -2 1 84.49 2.2
3 -2 1 92.49 4.6
3 -2 1 88.29 3.3
3 -2 1 75.89 8.3
-3 2 -1 98.29 2.9
-3 2 -1 90.29 2.3
-3 2 -1 89.99 6.7
4 -2 1 20.2 2.6
4 -2 1 23.9 1.2
-4 2 -1 24.9 1.4
5 -3 -1 25.2 2.2
5 -3 -1 33.9 4.8
4 -3 -1 345.27 8.7
-4 3 1 329.57 8
3 -3 -1 6.8 1.3
-3 3 1 4.6 0.9
-2 -3 1 946.51 21.9
2 -3 -1 934.61 29
2 -3 -1 991.7 19.8
-2 -3 1 966.8 19.3
2 -3 -1 952.5 18.7
-2 3 1 955.9 28.3
-2 3 1 965.2 21.9
2 3 -1 961.7 19.2
-2 3 1 964.1 19.4
-1 -3 1 359.16 11.9
1 -3 -1 386.66 8.2
-1 -3 1 377.86 7.7
1 -3 -1 356.66 14.6
1 3 -1 364.36 7.5
-1 3 1 364.36 14.2
-1 3 1 370.66 7.6
-1 3 1 372.36 9.7
-1 3 1 341.27 7.9
1 3 -1 365.86 8.7
1 3 -1 377.26 11.3
0 -3 -1 592.34 11.9
0 -3 1 572.94 13.2
0 -3 1 562.04 17.3
0 -3 -1 572.64 13.4
0 -3 -1 560.64 11.3
0 -3 1 597.24 12
0 -3 -1 576.24 18.5
0 3 1 575.34 11.4
0 3 1 576.14 13.3
0 3 -1 551.44 16.7
0 3 -1 570.84 11.7
0 3 1 574.74 11.8
0 3 1 594.24 18.5
1 -3 1 413.26 10.5
-1 -3 -1 410.16 8.4
-1 -3 -1 379.16 13.7
1 -3 1 397.36 14.9
-1 -3 -1 404.56 9.7
1 -3 1 405.66 8.9
-1 -3 -1 392.46 7.9
-1 3 -1 389.56 14.2
-1 3 -1 391.76 8.6
1 3 1 401.06 8.1
1 3 1 415.06 13.9
1 3 1 405.36 8.3
1 3 1 395.06 9.5
2 -3 1 574.44 20.5
-2 -3 -1 572.14 16.9
-2 -3 -1 568.84 11.5
2 -3 1 574.54 12.5
-2 -3 -1 569.74 12.8
-2 -3 -1 572.24 11.1
2 -3 1 587.04 14.7
-2 3 -1 570.24 19.4
2 3 1 568.24 11.5
-2 3 -1 549.74 12
2 3 1 585.74 17.2
-2 3 -1 576.44 11.5
2 3 1 590.34 11.5
2 3 1 557.24 12.8
3 -3 1 16.2 2
3 -3 1 18.9 0.9
-3 3 -1 16.5 1.4
4 -3 1 419.66 8.6
4 -3 1 411.66 10.3
-4 3 -1 412.66 9.5
5 -3 1 118.79 3.3
5 -3 1 119.59 5.6
-5 3 -1 120.49 4
5 -4 -1 163.88 6.1
-5 4 1 154.68 4.2
-5 4 1 157.08 5
4 -4 -1 5.4 1.9
-4 4 1 5.4 1.1
-4 4 1 5.4 0.8
3 -4 -1 23 2.6
-3 4 1 27.9 1.9
2 -4 -1 57.69 1.6
2 -4 -1 57.69 3
-2 4 1 56.29 2.4
-2 4 1 58.99 1.9
1 -4 -1 1372.96 27.6
1 -4 -1 1359.86 38.4
-1 -4 1 1395.66 27.1
-1 -4 1 1360.36 34.5
1 -4 -1 1338.07 28.4
-1 4 1 1375.16 28.7
1 4 -1 1360.56 33.2
1 4 -1 1363.96 26.8
1 4 -1 1407.16 27.4
-1 4 1 1399.96 30
-1 4 1 1385.66 37.4
-1 4 1 1342.27 27.3
1 4 -1 1350.16 28.5
0 -4 -1 387.56 10.3
0 -4 -1 366.26 7.6
0 -4 -1 377.86 8.4
0 -4 1 380.96 8.5
0 -4 1 389.26 15.2
0 -4 -1 370.26 15.8
0 4 1 374.16 8.2
0 4 -1 381.96 10.2
0 4 1 367.66 10.1
0 4 1 382.26 7.8
0 4 -1 376.26 8.2
0 4 1 387.26 15.2
0 4 -1 361.16 14
1 -4 1 540.25 12
1 -4 1 567.14 14.1
1 -4 1 533.45 19.9
-1 -4 -1 536.85 19.1
-1 -4 -1 533.15 10.8
-1 -4 -1 554.94 13.2
-1 -4 -1 555.04 11.5
1 4 1 538.75 11
-1 4 -1 526.15 19.1
1 4 1 544.45 13.1
1 4 1 555.84 18.8
-1 4 -1 553.74 11.6
-1 4 -1 544.75 14
1 4 1 556.04 11.4
-2 -4 -1 34.8 1
-2 -4 -1 36.1 2.7
-2 -4 -1 27.4 5
-2 -4 -1 32.2 1.4
2 -4 1 31.7 2.3
2 4 1 31.5 5.1
-2 4 -1 34.1 2
2 4 1 33.8 1.6
2 4 1 36.5 1.3
2 4 1 32.2 3.2
3 -4 1 27 2.5
-3 4 -1 30.1 1.9
4 -4 1 36 1.7
4 -4 1 40 3.6
-4 4 -1 34 2.1
5 -4 1 6.4 2.6
5 -4 1 10.1 1.2
-5 4 -1 10.4 1.5
5 -5 -1 180.88 6.8
-5 5 1 176.18 4.9
-5 5 1 174.28 5.7
4 -5 -1 126.79 5.4
-4 5 1 124.89 4.5
-4 5 1 131.59 3.8
3 -5 -1 455.35 11.1
-3 5 1 452.95 10.6
-3 5 1 448.86 9.8
2 -5 -1 369.06 7.7
2 -5 -1 358.16 9.1
-2 5 1 371.26 8
-2 5 1 376.86 8.8
-1 -5 1 84.29 9
1 -5 -1 92.39 3.4
1 -5 -1 92.89 2.4
-1 -5 1 95.09 3
-1 5 1 96.49 3.1
1 5 -1 91.19 2.8
1 5 -1 95.39 2.4
1 5 -1 99.29 4.2
1 5 -1 85.99 8.1
-1 5 1 93.39 2.6
0 -5 -1 165.48 4.7
0 -5 -1 173.48 3.8
0 -5 1 182.38 5
0 5 -1 171.58 4.6
0 5 1 170.28 4.6
0 5 1 176.18 4.1
-1 -5 -1 79.09 2
-1 -5 -1 71.89 8.7
-1 -5 -1 76.89 2.7
-1 -5 -1 80.29 4
1 -5 1 80.59 3.3
-1 5 -1 80.19 2.8
1 5 1 77.19 3.8
1 5 1 77.69 2.7
1 5 1 76.99 2.2
1 5 1 89.39 9.2
2 -5 1 566.54 13.1
-2 5 -1 571.44 12.6
3 -5 1 23.7 2.7
-3 5 -1 24.5 2
4 -5 1 109.99 5.4
4 -5 1 123.09 3.3
-4 5 -1 122.09 4.4
5 -5 1 60.39 2.6
5 -5 1 53.19 4.9
-5 5 -1 60.79 3.3
5 -6 -1 60.39 4.4
-5 6 1 59.59 2.6
-5 6 1 61.99 3.5
4 -6 -1 13.9 2.4
-4 6 1 10.8 1.7
-4 6 1 11 1.3
3 -6 -1 6.2 1.8
-3 6 1 7.4 1.4
-3 6 1 8.1 1
2 -6 -1 193.78 6
-2 6 1 199.38 5
-2 6 1 201.98 5.8
1 -6 -1 83.39 2.3
-1 -6 1 82.49 3
1 -6 -1 83.49 3.4
-1 6 1 83.99 2.6
-1 6 1 83.49 3.2
1 6 -1 86.89 2.4
1 6 -1 86.99 2.9
0 -6 -1 535.95 11
0 -6 1 554.94 12.4
0 -6 -1 526.85 12.2
0 6 1 546.85 11.3
0 6 -1 555.04 11.9
0 6 1 544.35 11.9
0 6 -1 548.55 11.3
-1 -6 -1 209.98 5.5
-1 -6 -1 201.88 4.4
1 -6 1 203.58 6
1 6 1 199.58 5.2
-1 6 -1 201.28 5.6
1 6 1 204.98 4.8
2 -6 1 86.19 3.8
-2 6 -1 87.39 3.3
3 -6 1 13.8 2.1
-3 6 -1 14.5 1.8
4 -6 1 2.5 0.8
4 -6 1 1.9 2
-4 6 -1 1.5 1.2
5 -6 1 35.3 2.1
5 -6 1 34.8 4.5
-5 6 -1 36.7 2.9
5 -7 -1 113.19 5.9
-5 7 1 116.09 3.9
-5 7 1 117.09 4.9
4 -7 -1 56.49 4.2
-4 7 1 51.09 3.3
-4 7 1 54.19 2.5
3 -7 -1 224.28 7.3
-3 7 1 234.08 6
-3 7 1 236.68 6.9
2 -7 -1 7.7 1.6
-2 7 1 4.9 1.2
-2 7 1 4.4 1
1 -7 -1 7.3 1.5
-1 7 1 7.9 1.4
0 -7 -1 212.28 6.2
0 -7 -1 220.48 5
0 -7 1 215.98 6.3
0 7 -1 224.48 5.3
0 7 1 221.18 6.1
0 7 1 221.38 5.3
0 7 -1 220.28 6
-1 -7 -1 70.39 2
-1 -7 -1 76.79 3.2
1 -7 1 69.49 3.7
1 7 1 70.79 2.4
-1 7 -1 69.99 2.5
-1 7 -1 73.99 3.3
1 7 1 69.29 3.1
2 -7 1 147.19 5.6
-2 7 -1 158.78 5.1
3 -7 1 15.7 2.5
-3 7 -1 13.8 2
4 -7 1 5.8 2.4
4 -7 1 4.2 0.9
-4 7 -1 4 1.5
5 -7 1 138.89 6.9
5 -7 1 146.39 4.3
-5 7 -1 146.19 5.5
-5 7 -1 138.79 4.6
4 -8 -1 7.2 2.4
-4 8 1 6.9 1.2
-4 8 1 8.4 1.7
3 -8 -1 9.1 2.1
-3 8 1 11.5 1.9
-3 8 1 12.9 1.5
2 -8 -1 1.8 1.4
-2 8 1 2.4 1.1
-2 8 1 2.1 0.8
1 -8 -1 112.59 4.5
-1 8 1 118.09 4.5
-1 8 1 119.29 3.6
0 -8 -1 143.99 5
0 -8 1 139.79 5
0 8 -1 142.89 4
0 8 1 138.69 4
0 8 -1 141.99 4.8
0 8 1 139.19 5
1 -8 1 76.39 3.9
-1 8 -1 80.09 3.5
-1 8 -1 80.79 2.9
2 -8 1 3.1 1.6
-2 8 -1 3.2 1.4
-2 8 -1 3.7 0.9
3 -8 1 25 3.1
-3 8 -1 25.6 2.7
-3 8 -1 22.9 1.8
4 -8 1 38.7 4.3
4 -8 1 41.9 2.1
-4 8 -1 37.7 2.4
-4 8 -1 39.8 3.2
3 -9 -1 18.5 2.6
-3 9 1 14.8 2.3
-3 9 1 15.6 1.8
2 -9 -1 10.2 2
-2 9 1 8 1.8
-2 9 1 11 1.4
1 -9 -1 6.6 1.4
-1 9 1 4.5 1
-1 9 1 5.8 1.5
0 -9 -1 76.09 3.7
0 -9 1 77.69 4.3
0 9 -1 75.59 4
0 9 1 75.19 3
0 9 -1 74.59 3.6
0 9 1 77.79 4
1 -9 1 12.2 1.9
-1 9 -1 8.5 1.3
-1 9 -1 9.2 1.8
2 -9 1 58.09 3.5
-2 9 -1 45.1 2.4
-2 9 -1 45.3 3.4
3 -9 1 5.4 1.8
3 -9 1 2.9 0.9
-3 9 -1 1.6 1.6
-3 9 -1 1.5 1
1 -10 -1 4.4 1.4
-1 10 1 3.2 1.1
-1 10 1 3 1.6
-1 10 -1 16.7 2.1
-1 10 -1 17.8 2.5
3 0 -2 243.58 9.9
-3 0 2 232.58 5
-3 0 2 229.98 4.8
-3 0 2 220.38 8.6
3 0 -2 240.58 5.2
-3 0 2 232.28 6
2 0 -2 0.5 0.1
2 0 -2 0.5 1.1
-2 0 2 0.7 0.4
2 0 -2 0.8 0.3
-2 0 2 1 0.4
2 0 -2 0.9 0.4
-2 0 2 0.6 1.3
-2 0 2 0.4 0.2
-1 0 2 17.3 2.4
1 0 -2 16.9 1
1 0 -2 21.7 2.6
-1 0 2 16.9 1
0 0 2 2740.23 56.89
0 0 -2 2722.73 53.79
0 0 -2 2845.82 56.39
0 0 2 2748.82 56.29
0 0 -2 2650.63 54.29
0 0 2 2717.13 55.39
0 0 2 2779.42 54.39
0 0 -2 2847.22 55.39
-1 0 -2 103.29 2.3
-1 0 -2 103.09 3.8
1 0 2 104.89 4.3
1 0 2 104.79 4.8
1 0 2 103.19 2.9
-1 0 -2 103.39 2.3
1 0 2 102.39 2.3
-1 0 -2 98.59 4
-2 0 -2 38 1.2
-2 0 -2 35.1 2.3
2 0 2 35 3.5
2 0 2 36.4 1.1
-2 0 -2 37.4 1.1
2 0 2 39.6 1.8
2 0 2 39.5 3.9
-2 0 -2 38.3 2.6
-3 0 -2 60.79 3.3
-3 0 -2 62.59 1.9
3 0 2 61.19 1.9
3 0 2 72.89 3
3 0 2 62.69 6.1
3 0 2 59.99 4.7
-3 0 -2 67.89 4.1
-3 0 -2 61.99 1.7
4 0 2 85.49 2.7
4 0 2 86.19 3.8
-4 0 -2 88.09 2.2
-4 0 -2 89.79 2.4
3 -1 -2 232.48 11.3
3 -1 -2 229.88 4.8
3 -1 -2 241.08 5.6
-3 1 2 233.88 5
-3 1 2 237.18 5.3
-3 1 2 223.98 10.3
-3 1 2 234.48 6.8
2 -1 -2 21.3 1.6
2 -1 -2 17.1 3.2
2 -1 -2 22.3 1.1
2 -1 -2 21.9 0.7
-2 1 2 21.5 1.1
-2 1 2 21.1 3.5
-2 1 2 23 0.8
-2 1 2 23.2 1.5
1 -1 -2 19.5 0.6
-1 -1 2 20.3 2.1
1 -1 -2 21.6 3.1
1 -1 -2 20.5 0.9
-1 -1 2 17.6 1.2
1 -1 -2 21.4 1.4
-1 1 2 19.7 1.3
-1 1 2 22.6 3.3
1 1 -2 19.3 1
-1 1 2 19.8 0.8
-1 1 2 20.4 0.7
1 1 -2 20.1 1.3
0 -1 2 458.75 11.1
0 -1 -2 475.15 9.3
0 -1 2 452.05 11.6
0 -1 -2 452.65 13.7
0 -1 2 438.76 9.4
0 -1 -2 463.35 10.3
0 -1 -2 429.06 8.9
0 -1 2 485.85 9.6
0 1 -2 445.06 9.5
0 1 -2 456.75 9.1
0 1 -2 452.35 10.6
0 1 2 465.95 9.2
0 1 2 451.25 9.1
0 1 -2 451.35 11.2
0 1 2 463.55 10.3
0 1 2 477.45 14.1
1 -1 2 243.08 8.7
-1 -1 -2 251.87 5.2
1 -1 2 258.47 6
1 -1 2 257.07 7.5
-1 -1 -2 258.37 6.6
-1 -1 -2 271.07 9.2
1 -1 2 257.17 5.2
-1 -1 -2 263.97 5.4
-1 1 -2 260.27 8.4
-1 1 -2 253.57 7.1
-1 1 -2 256.17 5.2
1 1 2 255.57 5.7
1 1 2 255.47 6.8
1 1 2 268.57 9.7
-1 1 -2 263.87 5.5
1 1 2 257.37 5.4
2 -1 2 502.55 13.1
2 -1 2 492.35 9.9
-2 -1 -2 495.25 9.8
2 -1 2 512.25 11
2 -1 2 475.55 15.5
-2 -1 -2 493.25 12.9
-2 -1 -2 504.75 11.9
-2 -1 -2 496.05 9.9
2 1 2 491.85 10.8
-2 1 -2 497.05 10.3
-2 1 -2 501.35 10
2 1 2 505.45 13.1
2 1 2 507.95 15.6
2 1 2 502.55 10.1
-2 1 -2 499.95 12.3
-2 1 -2 512.55 14.6
3 -1 2 83.29 5.1
3 -1 2 82.79 2.2
-3 -1 -2 78.49 3.7
-3 -1 -2 85.99 2
-3 -1 -2 82.59 3.8
3 -1 2 85.29 3.3
-3 -1 -2 85.99 2.1
3 -1 2 84.79 6.6
3 1 2 81.09 5.2
-3 1 -2 75.69 5.6
3 1 2 89.59 6.8
3 1 2 86.69 2.5
-3 1 -2 79.79 2.5
-3 1 -2 84.69 2.2
3 1 2 88.09 3.3
-3 1 -2 76.09 3.8
4 -1 2 304.67 6.8
4 -1 2 318.57 8.2
-4 1 -2 319.47 6.7
-4 1 -2 322.27 7.1
4 -2 -2 5.9 1.5
-4 2 2 9 0.8
-4 2 2 12.6 1.3
3 -2 -2 61.59 2.7
3 -2 -2 73.59 8.3
3 -2 -2 66.79 1.7
-3 2 2 65.29 3.4
-3 2 2 52.99 6.6
-3 2 2 66.99 2.3
-3 2 2 69.59 1.9
2 -2 -2 344.87 7.6
2 -2 -2 331.27 6.8
2 -2 -2 339.17 14.1
2 -2 -2 345.97 9.2
-2 2 2 343.87 13.6
-2 2 2 334.67 7
-2 2 2 336.77 9
-2 2 2 337.57 7.4
-1 -2 2 960.6 19.5
1 -2 -2 890.01 18.9
1 -2 -2 949.31 20.2
1 -2 -2 895.21 25.7
-1 -2 2 950.4 21.3
-1 2 2 984 26.1
1 2 -2 924.91 20.2
1 2 -2 916.11 18.9
-1 2 2 900.71 18.5
-1 2 2 923.51 20.1
-1 2 2 937.61 19.5
0 -2 2 2033.8 40.7
0 -2 2 1922.81 42.5
0 -2 2 1993 39.6
0 -2 -2 2054.19 40.9
0 -2 -2 1860.41 38.6
0 -2 -2 1911.81 45.1
0 -2 -2 1989 39.4
0 -2 2 1942.51 38.7
0 2 2 1942.41 44.9
0 2 2 1965.9 39.3
0 2 -2 1940.11 39.7
0 2 -2 1976.5 39.2
0 2 -2 1941.41 41.7
0 2 -2 1937.91 38.9
0 2 2 1869.51 39.1
0 2 2 1984.5 40.1
1 -2 2 16.4 1.8
-1 -2 -2 16.1 3.2
1 -2 2 13.8 2.9
-1 -2 -2 16.8 0.9
1 -2 2 16.9 1.3
-1 -2 -2 15.6 1.4
-1 -2 -2 17.9 0.6
1 -2 2 16.2 0.6
1 2 2 18 0.9
-1 2 -2 17.5 0.7
-1 2 -2 13.4 2.5
1 2 2 16.8 0.8
1 2 2 12.2 3
-1 2 -2 18 1.8
1 2 2 14.8 1.5
2 -2 2 217.18 10.5
2 -2 2 234.28 5.9
-2 -2 -2 228.48 6.3
-2 -2 -2 238.58 5
2 -2 2 223.88 4.8
-2 -2 -2 225.78 8.8
2 -2 2 233.48 7.7
-2 -2 -2 227.88 4.7
2 2 2 241.18 5.6
2 2 2 223.58 9.9
-2 2 -2 231.48 7.2
-2 2 -2 221.78 5.3
2 2 2 233.58 6.9
2 2 2 232.98 5.1
-2 2 -2 227.58 4.9
-2 2 -2 237.08 9.9
3 -2 2 8.6 1.5
-3 -2 -2 11.4 0.6
-3 -2 -2 14.5 0.6
3 -2 2 14.6 0.8
3 2 2 13.9 1.5
-3 2 -2 13.5 1.1
-3 2 -2 12.1 0.7
4 -2 2 54.29 1.9
4 -2 2 54.19 3.5
-4 2 -2 52.79 2.2
-4 2 -2 55.79 1.8
4 -3 -2 138.49 4.9
-4 3 2 142.99 3.6
-4 3 2 141.29 4.2
3 -3 -2 15.8 0.8
3 -3 -2 14.9 1.6
-3 3 2 14.8 1.4
-3 3 2 15.6 0.9
2 -3 -2 100.19 9.9
2 -3 -2 115.09 3.6
-2 -3 2 119.09 3.7
2 -3 -2 118.69 2.7
-2 -3 2 111.09 4.9
-2 3 2 115.79 5
-2 3 2 119.09 3
-2 3 2 117.79 3.4
2 3 -2 114.59 3.1
-2 3 2 125.89 9
1 -3 -2 340.67 9.3
1 -3 -2 326.27 6.8
1 -3 -2 318.57 14.1
-1 -3 2 341.47 7.1
1 -3 -2 333.67 7.5
-1 -3 2 335.07 8.3
-1 -3 2 332.77 6.6
-1 -3 2 320.67 11
-1 3 2 334.57 9.1
1 3 -2 337.47 10.1
-1 3 2 323.27 7.4
1 3 -2 341.37 6.9
-1 3 2 333.17 6.9
0 -3 2 813.22 18.2
0 -3 -2 769.82 24.1
0 -3 2 799.82 16
0 -3 -2 821.62 16.5
0 -3 2 842.12 16.6
0 -3 -2 813.32 18.2
0 -3 2 809.72 22.6
0 -3 -2 790.52 16.7
0 3 2 815.12 24.4
0 3 2 807.22 16.3
0 3 -2 804.02 21.3
0 3 -2 809.32 16.7
0 3 2 799.22 16.9
0 3 -2 807.22 16.2
0 3 2 816.82 18.1
-1 -3 -2 117.49 7.4
1 -3 2 95.19 2.3
1 -3 2 99.39 3.2
1 -3 2 104.99 4.4
-1 -3 -2 93.49 2.2
1 -3 2 91.99 6.9
-1 -3 -2 102.49 3.8
-1 -3 -2 100.49 2.7
-1 3 -2 89.19 6
-1 3 -2 95.09 2.7
1 3 2 85.09 6.5
1 3 2 96.39 3.7
-1 3 -2 98.19 2.4
1 3 2 96.69 2.6
1 3 2 98.89 2.4
-2 -3 -2 70.49 1.7
-2 -3 -2 66.79 3
-2 -3 -2 69.49 2.1
2 -3 2 67.99 3
-2 -3 -2 64.69 6.5
2 -3 2 70.29 1.9
-2 3 -2 70.09 2
2 3 2 70.39 3.2
-2 3 -2 69.09 2.5
2 3 2 72.79 2.3
2 3 2 67.19 6.9
2 3 2 70.39 2.2
3 -3 2 207.28 6.1
3 -3 2 203.08 4.6
-3 3 -2 205.98 4.7
-3 3 -2 199.58 5.3
4 -3 2 83.69 4.2
4 -3 2 85.99 2.5
-4 3 -2 81.79 3
-4 3 -2 82.29 2.4
5 -3 2 161.88 4.2
5 -3 2 161.18 6.1
-5 3 -2 157.88 4.8
5 -4 -2 46.1 3.8
-5 4 2 48.4 2.6
-5 4 2 42.2 1.9
4 -4 -2 15.3 2.2
-4 4 2 16.8 1.6
-4 4 2 14.3 1.2
3 -4 -2 74.19 2
3 -4 -2 70.99 3.3
-3 4 2 75.09 2.3
-3 4 2 71.49 3
2 -4 -2 173.88 5.1
2 -4 -2 178.98 4
-2 4 2 185.78 4.3
-2 4 2 178.58 4.9
-1 -4 2 399.36 14.1
-1 -4 2 395.96 8.4
-1 -4 2 385.86 9.9
1 -4 -2 364.86 7.8
1 -4 -2 383.86 8.8
-1 4 2 378.96 8
1 4 -2 382.06 8.1
1 4 -2 372.56 9.6
1 4 -2 382.56 12.8
0 -4 -2 468.45 10.5
0 -4 2 499.25 12.5
0 -4 -2 429.56 18.4
0 -4 -2 484.75 12.5
0 -4 2 468.35 17.3
0 -4 2 484.05 10.5
0 -4 -2 473.05 9.6
0 4 2 477.25 9.8
0 4 2 475.65 10.3
0 4 -2 489.55 16.4
0 4 2 458.25 18.6
0 4 2 488.15 12.3
0 4 -2 478.35 10.1
-1 -4 -2 59.19 3.3
1 -4 2 66.29 2.8
-1 -4 -2 65.99 7.9
-1 -4 -2 61.69 1.6
-1 -4 -2 66.49 2.3
1 4 2 61.19 1.9
-1 4 -2 60.49 1.8
1 4 2 69.39 7.9
1 4 2 64.59 3.2
1 4 2 58.19 2.2
-1 4 -2 56.69 2.3
-2 -4 -2 481.25 11.9
2 -4 2 473.85 11
2 -4 2 486.65 9.7
-2 -4 -2 473.75 10.1
-2 -4 -2 467.95 9.4
-2 -4 -2 488.55 18
-2 4 -2 463.65 10.5
2 4 2 469.95 9.8
2 4 2 486.55 12
2 4 2 457.75 18.1
-2 4 -2 479.45 9.8
2 4 2 459.95 10
3 -4 2 121.69 4.5
3 -4 2 122.29 3.1
-3 4 -2 126.99 3.9
4 -4 2 10.9 1.3
4 -4 2 10.5 2.4
-4 4 -2 12.1 1.6
5 -4 2 8.1 2.6
5 -4 2 7 1.1
-5 4 -2 8.5 1.5
5 -5 -2 27.5 3.3
-5 5 2 24.7 2.2
-5 5 2 22.9 1.6
4 -5 -2 24.4 2.7
-4 5 2 19.2 2
-4 5 2 20.7 1.5
3 -5 -2 15.6 1.9
3 -5 -2 19.2 1
-3 5 2 18 1.2
-3 5 2 18.4 1.8
2 -5 -2 115.69 2.8
2 -5 -2 110.69 4.1
-2 5 2 116.19 3.8
-1 -5 2 256.47 7.9
1 -5 -2 250.27 5.5
1 -5 -2 242.88 6.5
-1 -5 2 274.47 13.2
-1 -5 2 265.27 6.2
1 5 -2 260.47 5.9
1 5 -2 246.98 7.7
-1 5 2 255.57 5.8
-1 5 2 255.37 6.4
1 5 -2 276.17 11.6
0 -5 -2 25.4 1
0 -5 -2 22.5 1.6
0 -5 2 25.6 1.9
0 5 -2 28 1.6
0 5 2 27 1.8
0 5 2 25.8 1.2
-1 -5 -2 73.59 2.6
-1 -5 -2 71.69 1.9
1 -5 2 71.89 3.1
1 5 2 75.19 2.2
-1 5 -2 72.19 2.8
1 5 2 70.99 2.7
2 -5 2 12.1 1.6
-2 -5 -2 12 0.7
-2 -5 -2 11.4 1.2
-2 5 -2 14.5 1.5
2 5 2 15.5 1.2
2 5 2 16.1 1.8
3 -5 2 168.48 4
3 -5 2 158.78 5.6
-3 5 -2 167.88 5
4 -5 2 80.49 4.9
4 -5 2 77.09 2.6
-4 5 -2 78.19 3.6
5 -5 2 53.09 5.1
5 -5 2 54.29 2.5
-5 5 -2 55.79 3.1
5 -6 -2 14.3 2.8
-5 6 2 19 2.2
-5 6 2 14.9 1.6
4 -6 -2 18.5 2.6
-4 6 2 20.2 2.1
-4 6 2 20.4 1.5
3 -6 -2 82.39 4.1
-3 6 2 84.59 2.8
-3 6 2 84.89 3.8
2 -6 -2 3.9 1.2
2 -6 -2 7.4 0.7
-2 6 2 5.6 0.8
-2 6 2 5.9 1.2
-1 -6 2 89.39 3.3
1 -6 -2 91.69 2.4
1 -6 -2 85.39 3.4
-1 6 2 92.09 2.7
-1 6 2 91.19 3.3
1 6 -2 91.99 2.5
1 6 -2 92.29 3
0 -6 2 62.49 2.9
0 -6 -2 60.29 2.7
0 -6 -2 61.19 1.8
0 6 2 60.29 2
0 6 -2 62.29 2.5
0 6 2 62.79 2.7
1 -6 2 121.09 4.5
-1 -6 -2 121.49 3.9
-1 -6 -2 120.29 3
1 6 2 124.39 3.9
1 6 2 121.79 3.3
-1 6 -2 117.99 3.9
2 -6 2 340.47 9.2
-2 6 -2 359.26 8.7
3 -6 2 41.4 1.7
3 -6 2 40.6 3.5
-3 6 -2 41.6 2.7
4 -6 2 21.8 1.7
4 -6 2 21.7 3.4
-4 6 -2 24 2.5
5 -6 2 8.8 2.8
5 -6 2 11.1 1.4
-5 6 -2 12.1 1.8
5 -7 -2 94.69 5.4
-5 7 2 92.19 4.3
-5 7 2 91.19 3.5
4 -7 -2 80.59 4.9
-4 7 2 86.89 3.2
-4 7 2 89.79 4.1
3 -7 -2 30.3 3.1
-3 7 2 32.8 1.9
-3 7 2 35.9 2.7
2 -7 -2 19.5 2.4
2 -7 -2 18.9 1.2
-2 7 2 17.2 2.1
-2 7 2 18.6 1.5
1 -7 -2 61.69 3.3
1 -7 -2 57.49 1.9
-1 7 2 58.39 3
-1 7 2 58.99 2.2
0 -7 -2 27.7 1.2
0 -7 -2 25.2 2.3
0 -7 2 22 2.6
0 7 -2 20.7 2.2
0 7 2 23 2.1
0 7 2 26.7 1.5
1 -7 2 2.3 1.4
-1 -7 -2 2.3 0.9
-1 -7 -2 2.7 0.5
1 7 2 4.3 1.3
-1 7 -2 1.2 1.1
1 7 2 2.8 0.8
2 -7 2 16.6 2.4
3 -7 2 16.1 1.2
3 -7 2 9.5 2.2
-3 7 -2 16.7 2.1
4 -7 2 56.29 2.3
4 -7 2 54.49 4.5
-4 7 -2 56.09 3.4
5 -7 2 47.3 2.4
5 -7 2 40.8 4.8
-5 7 -2 47.3 3.2
4 -8 -2 58.29 4.3
-4 8 2 53.69 2.5
-4 8 2 55.79 3.6
3 -8 -2 63.79 4
-3 8 2 66.89 3.6
-3 8 2 64.69 2.7
2 -8 -2 82.29 4.1
-2 8 2 80.89 4.1
-2 8 2 87.39 3
1 -8 -2 64.09 2.2
1 -8 -2 60.79 3.4
-1 8 2 63.59 2.5
-1 8 2 64.59 3.5
0 -8 -2 17 1.1
0 -8 -2 15.7 2
0 -8 2 14.3 2
0 8 -2 18.5 2
0 8 -2 17 1.5
0 8 2 19.4 1.6
0 8 2 16.4 2
1 -8 2 57.79 3.7
-1 8 -2 63.99 3.3
-1 8 -2 63.39 2.6
2 -8 2 21.2 2.7
2 -8 2 24.8 1.4
-2 8 -2 24.7 2.6
3 -8 2 35.6 3.8
3 -8 2 39.8 1.8
-3 8 -2 39.8 3.1
4 -8 2 20 1.8
4 -8 2 18.1 3.3
-4 8 -2 18.5 2.4
3 -9 -2 28.8 3.2
-3 9 2 25.5 2
-3 9 2 28.1 2.8
2 -9 -2 3.5 1.4
-2 9 2 7.4 1.7
-2 9 2 6.1 1.1
1 -9 -2 7.5 1.5
-1 9 2 5.8 1.9
-1 9 2 10.9 1.4
0 -9 -2 19.1 2
0 9 2 10.8 2.2
0 9 2 11.8 1.5
1 -9 2 16.7 2.4
1 -9 2 16.4 1.3
-1 9 -2 19 2.3
-1 9 -2 13 1.7
2 -9 2 25.8 3.2
2 -9 2 32.9 1.6
-2 9 -2 30.1 2.1
-2 9 -2 28.4 2.7
3 -9 2 19.8 1.4
3 -9 2 13.8 2.8
-3 9 -2 14.4 1.7
-3 9 -2 14.3 2.3
1 -10 -2 82.69 4.6
-1 10 2 84.89 3.5
1 -10 2 92.59 4.6
1 -10 2 82.89 2.8
-1 10 -2 84.49 3.4
-1 10 -2 78.89 4.4
3 0 -3 807.92 15.6
-3 0 3 818.82 16
-3 0 3 810.02 15.8
-3 0 3 820.82 21.4
3 0 -3 800.02 16.1
-3 0 3 810.22 17.3
3 0 -3 794.52 22.3
2 0 -3 2.5 0.3
-2 0 3 2.1 0.5
-2 0 3 2.3 1.8
2 0 -3 2.5 0.7
-2 0 3 2.5 0.4
-2 0 3 3 0.3
2 0 -3 3.3 0.5
2 0 -3 3.1 1.8
1 0 -3 307.17 10.5
1 0 -3 302.97 6.1
1 0 -3 281.47 5.8
-1 0 3 294.97 6.1
-1 0 3 286.57 10.4
1 0 -3 280.67 7.1
-1 0 3 289.27 7.3
-1 0 3 297.77 6.1
0 0 -3 30.5 0.8
0 0 3 29.5 1.9
0 0 3 31 1
0 0 -3 27.2 3
0 0 -3 31.5 1.8
0 0 3 36.6 4.3
-1 0 -3 0 0.8
-1 0 -3 1.1 0.8
-1 0 -3 0.6 0.2
1 0 3 0.6 0.3
1 0 3 2 1
-1 0 -3 1.2 0.3
1 0 3 1 1.6
2 0 3 705.93 14.9
2 0 3 687.63 13.8
-2 0 -3 685.53 13.7
2 0 3 712.13 20
-2 0 -3 665.43 16.8
-2 0 -3 687.53 17
2 0 3 693.43 18.9
-2 0 -3 677.73 13.6
-3 0 -3 22.1 3
3 0 3 24.7 4.7
-3 0 -3 23.2 1
3 0 3 20.1 3.7
3 0 3 27.1 1.5
-3 0 -3 18.8 2.5
-3 0 -3 24.2 1.1
-4 0 -3 61.49 1.9
4 0 3 65.09 3.8
4 0 3 58.29 2.5
-4 0 -3 60.09 1.8
3 -1 -3 3.2 0.4
3 -1 -3 0.1 1
3 -1 -3 4.6 2.7
-3 1 3 3.4 1
-3 1 3 3.7 0.5
-3 1 3 5.6 2.7
-3 1 3 5.2 0.8
-2 -1 3 209.68 5.5
2 -1 -3 208.58 4.4
2 -1 -3 210.68 6.1
2 -1 -3 217.48 4.9
-2 -1 3 212.68 7.7
2 -1 -3 211.48 10
-2 1 3 213.68 4.8
-2 1 3 208.28 6.1
-2 1 3 210.38 4.5
2 1 -3 209.28 7
-2 1 3 209.78 9.9
2 1 -3 209.28 5.1
1 -1 -3 1067.39 22.2
1 -1 -3 1095.09 28.6
-1 -1 3 1088.99 22.2
-1 -1 3 1075.69 23.3
1 -1 -3 1148.59 22.6
1 -1 -3 1119.19 23.1
-1 -1 3 1148.09 21.8
-1 -1 3 1084.79 26
-1 1 3 1150.18 29
1 1 -3 1088.19 22.5
1 1 -3 1056.49 21.9
-1 1 3 1102.19 21.6
1 1 -3 1052.19 21.6
1 1 -3 1113.39 23.9
-1 1 3 1080.19 22.6
-1 1 3 1075.89 23
0 -1 -3 1010.2 21.2
0 -1 -3 1024.7 20.4
0 -1 3 971.5 20.6
0 -1 3 999.5 23.6
0 -1 3 1046.3 20.4
0 -1 3 993.1 23
0 -1 -3 956.3 20.4
0 -1 -3 1007.9 26.3
0 1 -3 1006.5 22
0 1 -3 970 20.6
0 1 3 1024 20.2
0 1 -3 999.6 20.5
0 1 3 1008.3 21.4
0 1 3 1006.3 26.4
0 1 3 1020.4 20.8
0 1 -3 1003.3 22.2
-1 -1 -3 58.79 4.6
1 -1 3 69.09 4.1
1 -1 3 58.09 4.1
-1 -1 -3 56.39 2.7
-1 -1 -3 58.99 1.5
-1 -1 -3 60.19 1.7
1 -1 3 59.79 1.6
-1 1 -3 57.89 1.7
1 1 3 56.59 3
-1 1 -3 58.59 3.6
1 1 3 53.39 5.6
-1 1 -3 58.49 3.2
1 1 3 64.59 1.9
1 1 3 60.19 2.2
2 -1 3 544.55 16.9
-2 -1 -3 516.75 14.6
-2 -1 -3 530.85 10.7
-2 -1 -3 526.05 10.6
2 -1 3 568.04 12
2 -1 3 540.05 15.3
2 -1 3 523.45 10.7
-2 -1 -3 530.75 13
2 1 3 537.95 17.9
2 1 3 535.15 14.6
-2 1 -3 532.15 13.6
2 1 3 533.45 10.9
-2 1 -3 512.35 11
2 1 3 549.74 11.9
-2 1 -3 521.35 10.7
-2 1 -3 526.65 15.3
3 -1 3 160.38 5.1
-3 -1 -3 150.88 3.3
3 -1 3 148.09 3.6
-3 -1 -3 141.19 5.6
-3 -1 -3 151.98 6.1
-3 -1 -3 149.59 3.4
3 1 3 142.59 7.6
3 1 3 145.79 4.7
-3 1 -3 143.09 3.4
-3 1 -3 143.59 3.8
3 1 3 143.29 3.9
3 1 3 142.19 9.7
4 -1 3 258.37 7.3
4 -1 3 247.48 5.9
-4 1 -3 256.97 5.6
-4 1 -3 256.77 6
4 -2 -3 55.79 2.9
-4 2 3 52.99 1.7
-4 2 3 52.69 2.3
3 -2 -3 235.08 12.9
3 -2 -3 219.48 4.7
3 -2 -3 218.28 5.6
-3 2 3 220.98 4.9
-3 2 3 215.08 5.4
-3 2 3 217.88 11.7
-3 2 3 223.68 7.2
2 -2 -3 100.49 7.6
2 -2 -3 109.89 3.2
-2 -2 3 100.79 4.8
-2 -2 3 101.99 4
2 -2 -3 106.69 2.4
2 -2 -3 110.49 4.4
2 2 -3 103.29 3
-2 2 3 106.19 2.6
-2 2 3 105.49 3
-2 2 3 101.29 4.2
2 2 -3 103.19 2.9
-2 2 3 109.59 8.1
-1 -2 3 494.55 12.6
-1 -2 3 491.25 13.2
1 -2 -3 474.55 9.7
-1 -2 3 504.15 10.3
-1 -2 3 492.15 9.6
1 -2 -3 493.15 12
1 -2 -3 482.65 17.4
1 -2 -3 503.35 10.4
-1 2 3 469.65 10.2
-1 2 3 489.45 9.9
1 2 -3 490.55 11.3
1 2 -3 482.75 11.8
1 2 -3 488.65 9.7
-1 2 3 502.85 17.6
-1 2 3 488.05 11.9
1 2 -3 480.25 9.7
0 -2 -3 757.72 15.6
0 -2 -3 809.32 17.9
0 -2 -3 763.22 23.4
0 -2 3 821.92 20.9
0 -2 3 812.82 18.9
0 -2 3 884.51 16.7
0 -2 3 787.62 16.5
0 -2 -3 814.42 16.2
0 2 3 781.42 16.1
0 2 -3 811.52 15.9
0 2 3 795.12 17.8
0 2 3 808.32 16.2
0 2 3 804.62 23.9
0 2 -3 804.62 17.9
0 2 -3 789.92 19.7
0 2 -3 801.02 16.4
1 -2 3 531.05 16.9
-1 -2 -3 530.95 10.6
1 -2 3 524.55 10.7
1 -2 3 559.14 14.2
-1 -2 -3 550.74 11.1
-1 -2 -3 519.85 17.7
-1 -2 -3 540.55 12.7
1 2 3 545.55 12.9
-1 2 -3 541.85 10.7
-1 2 -3 550.14 13.4
1 2 3 531.35 11.2
-1 2 -3 534.45 11.1
-1 2 -3 537.85 15.7
1 2 3 540.45 11.1
1 2 3 535.35 18.3
2 -2 3 81.89 2.1
-2 -2 -3 79.39 3.5
2 -2 3 82.39 8
-2 -2 -3 79.79 2
2 -2 3 82.59 3.4
-2 -2 -3 83.39 6.1
2 -2 3 81.89 4.8
-2 -2 -3 80.99 2.3
-2 2 -3 78.99 6
2 2 3 87.49 4.2
2 2 3 81.29 2.6
-2 2 -3 77.59 2.6
2 2 3 83.49 8.1
-2 2 -3 82.19 2.2
2 2 3 92.39 3.2
-2 2 -3 73.49 4
3 -2 3 119.39 3.1
-3 -2 -3 128.49 3
3 -2 3 127.19 4.6
-3 -2 -3 124.39 2.9
-3 -2 -3 102.89 10
3 2 3 123.89 4.4
3 2 3 128.79 3.6
-3 2 -3 122.89 3.6
3 2 3 115.39 13.8
-3 2 -3 127.39 3.1
4 -2 3 22.1 1.6
4 -2 3 21 2.7
-4 2 -3 21.6 1.4
-4 2 -3 21.6 1.1
5 -2 3 81.99 3.1
5 -2 3 77.39 4.9
-5 2 -3 86.99 3.1
-5 2 -3 84.49 2.6
4 -3 -3 21.8 2.8
-4 3 3 9.5 1.3
-4 3 3 13 0.9
3 -3 -3 62.09 1.8
3 -3 -3 70.69 3
-3 3 3 61.49 1.9
-3 3 3 66.39 2.5
-2 -3 3 92.59 4.9
2 -3 -3 89.09 5.6
2 -3 -3 94.09 2.3
-2 -3 3 93.89 4.4
2 -3 -3 98.19 3.3
2 -3 -3 85.29 11.1
-2 3 3 81.89 9.1
-2 3 3 96.69 2.5
-2 3 3 92.99 3.1
-2 3 3 91.69 5.1
2 3 -3 90.09 3.3
-1 -3 3 21.8 2.3
-1 -3 3 24.2 1.2
1 -3 -3 16.5 4.1
1 -3 -3 19.3 2.1
-1 -3 3 25.8 3.5
-1 -3 3 23.4 0.7
1 3 -3 23.6 0.8
1 3 -3 25.3 1.7
-1 3 3 22.7 1
1 3 -3 26.4 2.9
-1 3 3 28.2 2.6
-1 3 3 22.7 1.4
-1 3 3 32.5 5.7
1 3 -3 22.5 0.9
0 -3 3 445.46 9
0 -3 -3 455.35 11.6
0 -3 3 457.35 12
0 -3 -3 437.46 9
0 -3 3 440.86 15.2
0 -3 -3 446.36 17.8
0 -3 3 454.75 10
0 -3 -3 459.55 9.8
0 3 3 458.55 9.3
0 3 -3 445.36 9.4
0 3 3 459.15 17.5
0 3 -3 452.35 14
0 3 -3 454.05 11.3
0 3 3 444.26 9.6
0 3 -3 448.76 9
0 3 3 452.65 11.5
-1 -3 -3 75.89 3.6
1 -3 3 77.09 4.3
-1 -3 -3 86.09 8.7
1 -3 3 76.49 2.9
-1 -3 -3 76.69 2.5
1 -3 3 81.89 8
1 -3 3 73.59 1.9
-1 -3 -3 78.79 1.9
-1 3 -3 77.29 2
1 3 3 81.49 3.7
1 3 3 75.19 2.2
-1 3 -3 73.39 3.8
1 3 3 77.49 2.4
1 3 3 86.09 8.7
2 -3 3 458.85 10.6
-2 -3 -3 452.05 9
2 -3 3 449.66 9.2
-2 -3 -3 459.85 11.5
-2 -3 -3 433.86 16.6
-2 -3 -3 445.76 9.6
2 3 3 446.56 10.1
2 3 3 456.95 17.8
2 3 3 454.35 11.9
2 3 3 439.46 9.6
-2 3 -3 451.05 9.9
-2 3 -3 458.65 9.3
3 -3 3 108.29 4.3
3 -3 3 104.09 2.7
-3 3 -3 106.79 3.4
-3 3 -3 101.99 2.8
4 -3 3 268.67 6.1
4 -3 3 263.37 8.1
-4 3 -3 273.37 6.8
-4 3 -3 268.97 6.2
5 -3 3 110.89 3.6
5 -3 3 109.69 5.6
-5 3 -3 109.59 3.8
-5 3 -3 110.09 3.2
5 -4 -3 135.29 5.4
-5 4 3 131.69 3.7
-5 4 3 130.99 4.5
4 -4 -3 9.7 1.8
-4 4 3 9.1 1.2
-4 4 3 9.6 1.4
3 -4 -3 280.97 7.2
3 -4 -3 267.97 5.9
-3 4 3 275.17 6.9
-3 4 3 272.77 6.2
2 -4 -3 11.2 1.5
2 -4 -3 12.9 0.8
-2 4 3 14.3 0.9
-2 4 3 13.5 1.6
-1 -4 3 459.25 11.9
-1 -4 3 466.35 9.9
-1 -4 3 456.65 15.8
1 -4 -3 445.16 9.2
-1 -4 3 450.85 8.9
-1 4 3 439.06 10
1 4 -3 454.45 14
-1 4 3 450.05 9.4
1 4 -3 441.86 9.4
1 4 -3 446.16 9
0 -4 -3 764.62 16
0 -4 -3 758.62 15
0 -4 3 725.03 23.7
0 -4 3 764.32 18.6
0 -4 3 794.92 16.2
0 -4 3 757.82 15
0 4 3 774.22 15.3
0 4 -3 775.22 15
0 4 3 775.22 15.8
0 4 3 614.24 31.6
0 4 -3 741.93 21.7
0 4 -3 755.72 15.6
-1 -4 -3 39.1 6.3
1 -4 3 52.99 2.7
-1 -4 -3 46.3 1.4
-1 -4 -3 45 3
1 -4 3 43.5 1.4
-1 -4 -3 44 2
-1 4 -3 36.7 2
1 4 3 53.79 3
-1 4 -3 46.2 1.5
1 4 3 42.5 1.6
1 4 3 47.7 2.1
1 4 3 61.99 8.5
-2 -4 -3 183.48 6.4
2 -4 3 186.48 4.2
2 -4 3 187.18 5.7
-2 -4 -3 180.38 4
-2 -4 -3 189.58 4.6
-2 -4 -3 159.18 10.5
-2 4 -3 179.88 4.9
2 4 3 178.28 11.3
-2 4 -3 184.78 4.3
2 4 3 179.08 4.7
2 4 3 180.98 6.4
2 4 3 184.18 4.8
3 -4 3 175.98 6
3 -4 3 179.98 4.2
-3 4 -3 181.08 4.4
-3 4 -3 180.28 5
4 -4 3 7.5 2.3
4 -4 3 13.2 1.5
-4 4 -3 11.1 1.2
-4 4 -3 10.8 1.5
5 -4 3 11 2.9
5 -4 3 6.4 1.3
-5 4 -3 8.3 1.5
5 -5 -3 15.8 2.8
-5 5 3 14 1.9
-5 5 3 17.9 1.4
4 -5 -3 49 3.7
-4 5 3 43.2 1.9
-4 5 3 35.5 3
3 -5 -3 184.48 4.3
3 -5 -3 180.78 5.7
-3 5 3 178.68 4.6
-3 5 3 184.48 5.3
2 -5 -3 351.76 7.5
2 -5 -3 352.66 8.8
-2 5 3 355.66 7.8
-1 -5 3 5.2 1
-1 -5 3 6 2.1
1 -5 -3 4.7 1.1
-1 -5 3 4.6 3.3
1 -5 -3 5.2 0.6
-1 -5 3 5.3 0.5
-1 5 3 5 0.7
1 5 -3 8.4 2.7
1 5 -3 5.6 0.8
-1 5 3 6.5 1.2
0 -5 -3 51.59 2.4
0 -5 3 50.39 1.5
0 -5 3 51.19 2.5
0 -5 -3 50.39 1.6
0 5 3 50.79 2.4
0 5 -3 51.69 2.1
0 5 3 53.59 1.8
1 -5 3 2.1 1
1 -5 3 2.1 0.4
-1 -5 -3 2.5 0.4
-1 -5 -3 2.2 0.8
-1 5 -3 2.3 0.5
1 5 3 3.6 0.7
1 5 3 3.2 1
-1 5 -3 1 0.7
-2 -5 -3 16.6 1.4
2 -5 3 15.7 2
-2 -5 -3 17.3 0.8
2 -5 3 16.8 0.9
-2 5 -3 17 1
2 5 3 17.3 1.3
-2 5 -3 18.3 1.5
2 5 3 15.4 1.7
3 -5 3 76.29 2.4
3 -5 3 74.59 3.9
-3 5 -3 73.89 3.2
4 -5 3 338.17 10
4 -5 3 348.47 7.7
-4 5 -3 343.07 8.7
5 -5 3 103.59 6
5 -5 3 108.89 3.5
-5 5 -3 107.39 4.4
5 -6 -3 69.19 4.6
-5 6 3 69.99 3.7
-5 6 3 68.09 2.7
4 -6 -3 21.2 2.7
-4 6 3 18.8 1.4
-4 6 3 18 2.2
3 -6 -3 338.77 7.4
3 -6 -3 338.07 9.1
-3 6 3 341.07 8.7
-3 6 3 333.17 7.8
2 -6 -3 106.09 4.1
2 -6 -3 101.39 2.8
-2 6 3 105.19 3.9
-2 6 3 103.09 3.1
1 -6 -3 263.67 7.2
-1 -6 3 261.97 5.5
1 -6 -3 263.37 5.8
-1 -6 3 253.97 6.7
-1 6 3 267.27 7
-1 6 3 263.57 6.2
1 6 -3 250.97 6.2
0 -6 -3 273.27 7.3
0 -6 3 281.47 7.4
0 -6 3 275.87 5.9
0 -6 -3 274.67 6
0 6 -3 283.57 6.8
0 6 3 277.57 7.1
0 6 3 276.07 6.4
1 -6 3 96.99 2.6
-1 -6 -3 97.19 2.5
-1 -6 -3 94.29 3.4
1 -6 3 92.99 3.8
-1 6 -3 94.49 3.4
1 6 3 97.09 3.5
1 6 3 96.59 2.9
2 -6 3 2.3 0.6
2 -6 3 3.5 1.2
-2 6 -3 3.1 1
3 -6 3 31.2 1.6
3 -6 3 40 3.5
-3 6 -3 31.5 2.7
4 -6 3 2.7 2.4
4 -6 3 1.8 0.9
-4 6 -3 2.6 1.2
5 -6 3 66.69 2.8
5 -6 3 60.79 5.7
-5 6 -3 65.99 3.6
5 -7 -3 48.2 4.4
-5 7 3 42.4 2.3
-5 7 3 41.1 3.2
4 -7 -3 15.8 2.5
-4 7 3 15.5 1.4
-4 7 3 15.6 2.1
3 -7 -3 190.98 6.7
3 -7 -3 203.48 4.9
-3 7 3 205.28 6.5
-3 7 3 200.18 5.4
2 -7 -3 116.29 3.1
2 -7 -3 110.39 4.7
-2 7 3 113.89 3.5
-2 7 3 117.39 4.5
1 -7 -3 123.89 4.7
1 -7 -3 121.79 3.2
-1 7 3 124.19 4.4
-1 7 3 118.49 3.6
0 -7 3 99.39 2.6
0 -7 -3 94.99 2.7
0 -7 -3 95.79 3.9
0 -7 3 94.59 4.1
0 7 -3 90.99 3.5
0 7 3 99.49 3.9
0 7 3 94.89 3
1 -7 3 20.3 1.2
1 -7 3 11.8 2
-1 -7 -3 19.4 2.2
-1 -7 -3 19.4 1.1
1 7 3 20.7 2.2
1 7 3 19.1 1.6
-1 7 -3 19.7 2
2 -7 3 21.3 2.6
2 -7 3 26.6 1.3
-2 7 -3 28.3 2.3
3 -7 3 51.49 4.4
3 -7 3 63.99 2.4
-3 7 -3 61.59 3.4
4 -7 3 121.49 6.4
4 -7 3 132.69 3.9
-4 7 -3 136.19 5
4 -8 -3 60.19 4.5
-4 8 3 64.19 3.7
-4 8 3 59.39 2.7
3 -8 -3 29.2 3.3
-3 8 3 30.7 3.1
-3 8 3 36.1 2
2 -8 -3 145.29 5.7
2 -8 -3 156.18 4.1
-2 8 3 153.28 5.6
-2 8 3 154.48 4.5
1 -8 -3 140.39 3.7
1 -8 -3 132.29 5.3
-1 8 3 144.89 5
-1 8 3 139.99 4.2
0 -8 3 152.48 3.8
0 -8 3 150.38 5.6
0 -8 -3 148.19 3.8
0 -8 -3 144.59 5.2
0 8 3 150.48 5.2
0 8 3 152.48 4.4
0 8 -3 149.59 4.9
1 -8 3 31.7 3
1 -8 3 36.8 1.6
-1 8 -3 32.7 2.6
2 -8 3 30.8 1.5
2 -8 3 29.5 3.3
-2 8 -3 25.7 2.6
3 -8 3 3.2 1.9
3 -8 3 2.6 0.8
-3 8 -3 1.9 1.4
4 -8 3 4.6 1.1
4 -8 3 3.6 2.4
-4 8 -3 6.8 1.7
3 -9 -3 98.19 5.1
-3 9 3 100.79 3.7
-3 9 3 103.29 4.8
2 -9 -3 14.6 2.3
-2 9 3 16.2 1.7
-2 9 3 10.7 2.3
1 -9 -3 10.5 1.7
1 -9 -3 9 1.1
-1 9 3 9 1.3
-1 9 3 9.3 1.9
0 -9 -3 207.78 5.1
0 -9 -3 205.48 6.7
0 9 3 203.28 5.8
0 9 3 212.88 6.7
1 -9 3 37.7 3.6
1 -9 3 40.7 1.7
-1 9 -3 35.1 2.4
-1 9 -3 40.5 3
2 -9 3 92.39 3
2 -9 3 82.59 5
-2 9 -3 91.49 4.3
3 -9 3 11.4 2.8
-3 9 -3 13.5 2.3
1 -10 -3 65.29 3.9
-1 10 3 59.69 3
-1 10 3 49.8 4.2
-3 0 4 5 3
3 0 -4 -1.7 3.2
-3 0 4 2.8 0.5
3 0 -4 3.5 1
-3 0 4 3.6 0.7
3 0 -4 3.4 0.4
3 0 -4 5.1 0.8
-3 0 4 5.3 1.1
-2 0 4 599.34 13.7
-2 0 4 584.24 12
-2 0 4 607.44 12.1
2 0 -4 593.44 13.5
-2 0 4 604.74 18.8
2 0 -4 584.34 11.6
2 0 -4 578.84 18.2
2 0 -4 611.34 12.2
1 0 -4 1415.16 29.1
1 0 -4 1358.26 28.1
-1 0 4 1446.16 35.3
1 0 -4 1404.76 29.1
-1 0 4 1418.86 29.6
-1 0 4 1387.86 28.5
1 0 -4 1402.56 34.4
-1 0 4 1443.66 28
0 0 4 241.88 5.4
0 0 4 250.47 6
0 0 -4 243.08 9.8
0 0 4 231.78 7.5
0 0 -4 244.08 5.2
0 0 -4 232.18 5
0 0 -4 248.08 7
1 0 4 357.26 8.6
-1 0 -4 354.06 7.4
1 0 4 364.06 7.6
-1 0 -4 347.77 11.4
1 0 4 351.56 13.8
-1 0 -4 368.86 10.1
1 0 4 368.66 11.1
-1 0 -4 349.27 7.3
2 0 4 394.96 15.3
-2 0 -4 388.06 8.1
-2 0 -4 388.76 8.1
-2 0 -4 368.46 11.7
2 0 4 385.36 13.4
2 0 4 400.46 8.4
2 0 4 393.96 9.7
-2 0 -4 393.96 11.5
-3 0 -4 1.9 0.4
-3 0 -4 1 0.4
3 0 4 5.5 1.6
-4 0 -4 21 1
4 0 4 23.2 3.1
-4 0 -4 20 1.1
4 0 4 23.8 2.3
3 -1 -4 865.41 17.9
3 -1 -4 875.11 17.2
3 -1 -4 892.51 27.5
3 -1 -4 906.31 20
-3 1 4 887.51 17.5
-3 1 4 880.41 19.8
-3 1 4 864.31 26.5
-3 1 4 886.21 17.9
-2 -1 4 91.39 3.6
-2 -1 4 90.89 2.3
2 -1 -4 92.09 3.8
2 -1 -4 92.39 2.7
2 -1 -4 95.89 7.3
-2 -1 4 87.99 5.8
2 -1 -4 90.39 2.1
-2 -1 4 90.49 2.7
2 1 -4 91.29 3.2
2 1 -4 89.09 5
-2 1 4 90.59 2.6
2 1 -4 94.29 2.2
-2 1 4 96.99 3.9
2 1 -4 89.19 2
-2 1 4 94.39 2.4
-2 1 4 105.19 7.3
1 -1 -4 2209.58 52.09
1 -1 -4 2202.68 44.6
-1 -1 4 2198.98 45.5
-1 -1 4 2370.06 46.3
1 -1 -4 2199.28 46.2
-1 -1 4 2243.38 49.7
1 -1 -4 2135.09 43.9
-1 -1 4 2238.18 44.4
1 1 -4 2174.78 44.2
1 1 -4 2147.79 43.4
-1 1 4 2229.88 52.19
1 1 -4 2129.69 44.1
-1 1 4 2222.18 45.6
1 1 -4 2203.68 46.4
-1 1 4 2187.68 44.7
-1 1 4 2158.68 45.6
0 -1 -4 237.88 5
0 -1 4 234.08 8.4
0 -1 4 241.18 5.3
0 -1 4 249.18 6.3
0 -1 -4 245.38 5.5
0 -1 -4 246.78 7
0 -1 -4 229.78 10.9
0 -1 4 240.88 9.9
0 1 4 247.78 5.7
0 1 4 246.88 11.5
0 1 -4 241.58 7.5
0 1 -4 238.18 5.1
0 1 4 242.58 7.3
0 1 -4 245.88 8.3
0 1 -4 243.08 5.1
0 1 4 251.97 5.5
-1 -1 -4 873.31 17.6
-1 -1 -4 919.01 24.7
-1 -1 -4 887.81 19.9
1 -1 4 885.61 17.6
1 -1 4 861.61 18.8
-1 -1 -4 885.71 17.9
1 -1 4 889.91 23.2
1 -1 4 904.21 23.6
-1 1 -4 878.61 18.1
1 1 4 907.91 26.5
1 1 4 901.71 20.8
-1 1 -4 889.21 21.4
1 1 4 881.41 18.5
-1 1 -4 872.21 21
-1 1 -4 888.21 17.5
1 1 4 867.71 17.8
-2 -1 -4 116.49 2.8
2 -1 4 118.89 3.1
2 -1 4 124.29 8.9
2 -1 4 117.79 4.4
2 -1 4 112.69 7.1
-2 -1 -4 117.39 4.9
-2 -1 -4 117.09 3
-2 -1 -4 116.99 6.3
-2 1 -4 121.99 6.3
-2 1 -4 114.09 6.7
2 1 4 124.09 8.7
2 1 4 118.89 3.2
2 1 4 115.19 4.4
-2 1 -4 115.69 2.9
-2 1 -4 123.59 3.2
2 1 4 116.59 6
-3 -1 -4 275.47 5.9
3 -1 4 275.97 8
3 -1 4 271.37 6.2
-3 -1 -4 273.57 6
3 1 4 282.57 6.6
3 1 4 280.67 7.8
-3 1 -4 282.57 6.1
-3 1 -4 275.27 6.3
4 -1 4 402.46 9
4 -1 4 409.96 10.7
-4 1 -4 404.36 8.6
-4 1 -4 402.66 8.9
4 -2 -4 338.87 7.1
4 -2 -4 351.36 8.3
-4 2 4 343.57 7.9
-4 2 4 337.47 7.4
3 -2 -4 28.8 1.1
3 -2 -4 28.8 2
3 -2 -4 34.9 7.9
-3 2 4 33.4 1.8
-3 2 4 41.3 6.8
-3 2 4 31.4 1.3
-3 2 4 31.6 3.4
2 -2 -4 323.47 15.5
-2 -2 4 321.77 9.6
-2 -2 4 317.37 6.8
-2 -2 4 327.07 7.3
-2 -2 4 333.17 11.6
2 -2 -4 323.87 6.7
2 -2 -4 328.77 9.4
2 -2 -4 347.67 7.6
-2 2 4 319.57 7.4
-2 2 4 315.67 15.1
2 2 -4 335.17 6.5
2 2 -4 327.87 7.9
-2 2 4 329.27 7
2 2 -4 322.97 8.4
-2 2 4 321.77 9.2
2 2 -4 323.87 6.5
1 -2 -4 146.89 9.4
-1 -2 4 144.49 7
1 -2 -4 142.79 5.2
-1 -2 4 146.39 4
-1 -2 4 143.19 3.3
1 -2 -4 137.69 3.1
-1 -2 4 139.89 6.2
1 2 -4 146.69 3.1
1 2 -4 136.79 5
-1 2 4 154.38 9.6
1 2 -4 138.09 3.1
-1 2 4 137.79 3.7
-1 2 4 139.69 3.4
1 2 -4 141.29 5
-1 2 4 145.29 5.2
0 -2 -4 510.05 10.2
0 -2 -4 515.45 11
0 -2 4 499.25 10.3
0 -2 4 534.25 11.6
0 -2 4 525.25 14.8
0 -2 -4 520.85 12.7
0 -2 -4 509.15 19
0 -2 4 495.45 15.5
0 2 4 504.75 10.8
0 2 -4 507.05 13.2
0 2 4 549.15 19.6
0 2 4 523.95 13
0 2 -4 511.35 14
0 2 -4 514.15 10.3
0 2 -4 510.65 10.5
0 2 4 520.25 10.7
1 -2 4 38.7 1.3
-1 -2 -4 39.1 1.6
1 -2 4 36.4 4.9
-1 -2 -4 38.6 1.2
1 -2 4 38.3 2.2
1 -2 4 39.5 4.4
-1 -2 -4 37.7 2.6
-1 -2 -4 30.5 5.3
1 2 4 38.7 1.6
1 2 4 43.8 6.4
1 2 4 39.5 2.8
-1 2 -4 39.4 1.3
-1 2 -4 43.3 4.5
1 2 4 37.7 1.8
-1 2 -4 37.5 1.5
-1 2 -4 39.3 2.9
-2 -2 -4 300.57 6.3
-2 -2 -4 303.77 12.5
2 -2 4 293.87 8.1
-2 -2 -4 313.07 6.8
-2 -2 -4 308.67 8.9
2 -2 4 311.07 6.6
2 2 4 342.87 10.3
2 2 4 285.87 14.4
2 2 4 300.17 7
-2 2 -4 306.17 6.9
2 2 4 292.37 7.9
-2 2 -4 305.47 6.5
-3 -2 -4 64.99 1.8
3 -2 4 65.29 2.2
-3 -2 -4 66.49 2
3 -2 4 63.19 3.6
-3 2 -4 64.29 2
3 2 4 63.19 4.1
3 2 4 68.29 2.8
-3 2 -4 63.99 2.4
4 -2 4 240.48 5.9
4 -2 4 243.18 7.6
-4 2 -4 237.78 6
-4 2 -4 239.78 5.5
5 -2 4 42.4 2.6
5 -2 4 37.9 4.7
-5 2 -4 41.1 1.8
-5 2 -4 44.3 2.1
4 -3 -4 223.88 6.5
4 -3 -4 226.18 5
-4 3 4 218.88 5.3
-4 3 4 230.28 5.9
3 -3 -4 821.52 17.2
3 -3 -4 787.12 15.9
-3 3 4 787.82 16.2
-3 3 4 807.92 16.9
2 -3 -4 201.08 5.5
2 -3 -4 201.38 4.5
-2 3 4 207.38 5.4
-2 3 4 202.48 4.7
1 -3 -4 595.54 12.2
1 -3 -4 594.24 13.1
-1 -3 4 627.54 18.3
-1 -3 4 632.74 13.2
-1 -3 4 617.14 12.2
-1 -3 4 620.04 16.4
-1 3 4 581.64 27.6
1 3 -4 617.14 15.8
1 3 -4 599.24 14.4
-1 3 4 621.84 12.6
-1 3 4 618.14 13.1
1 3 -4 605.34 12.3
1 3 -4 631.84 12.1
0 -3 -4 95.39 4.4
0 -3 4 97.89 2.4
0 -3 4 99.09 5.3
0 -3 -4 114.69 11.3
0 -3 -4 95.19 2.4
0 -3 -4 96.39 3.1
0 -3 4 90.49 6.8
0 -3 4 97.89 3.6
0 3 -4 94.59 2.7
0 3 4 94.79 4.3
0 3 4 92.29 3
0 3 -4 108.49 6.2
0 3 4 109.49 10.9
0 3 -4 98.49 2.4
0 3 4 98.19 2.7
0 3 -4 95.89 4.3
-1 -3 -4 397.56 17.1
-1 -3 -4 387.36 8.9
1 -3 4 397.96 8.2
-1 -3 -4 382.66 8
-1 -3 -4 401.16 10.9
1 -3 4 396.16 9.7
1 3 4 416.86 17.5
1 3 4 395.56 8.8
-1 3 -4 407.36 8.7
-1 3 -4 402.06 8.2
1 3 4 404.26 11
1 3 4 385.36 8.6
-2 -3 -4 318.47 9.5
-2 -3 -4 315.47 7.2
2 -3 4 326.87 6.8
-2 -3 -4 222.18 14.7
2 -3 4 319.77 8.3
-2 -3 -4 315.97 6.6
2 3 4 320.47 10.1
2 3 4 323.87 7.9
-2 3 -4 326.77 7.4
2 3 4 299.07 16
-2 3 -4 320.97 6.8
2 3 4 308.97 7.2
-3 -3 -4 292.37 6.2
3 -3 4 295.87 8.2
-3 -3 -4 300.77 6.6
3 -3 4 293.27 6.5
-3 3 -4 303.87 6.5
-3 3 -4 288.97 7.1
3 3 4 279.87 7
3 3 4 290.87 8
4 -3 4 319.97 7.3
4 -3 4 318.87 9.5
-4 3 -4 313.67 7.7
-4 3 -4 319.37 7.2
5 -3 4 1.7 2.5
5 -3 4 0.9 1.3
-5 3 -4 2.2 1
-5 3 -4 3 0.7
5 -4 -4 141.09 7.4
-5 4 4 138.99 4.4
-5 4 4 135.39 6.1
4 -4 -4 97.69 2.6
4 -4 -4 92.39 4.4
-4 4 4 92.29 2.9
-4 4 4 90.89 3.6
3 -4 -4 51.39 1.7
3 -4 -4 51.99 3.1
-3 4 4 47.1 2.5
-3 4 4 51.69 1.9
2 -4 -4 53.99 1.7
2 -4 -4 54.99 2.7
-2 4 4 57.39 2
-2 4 4 56.29 2.6
-1 -4 4 56.79 1.6
1 -4 -4 55.99 2.5
1 -4 -4 54.69 1.7
-1 -4 4 56.09 3.9
-1 -4 4 52.39 2.5
-1 -4 4 59.09 6.4
1 4 -4 55.79 5.2
1 4 -4 56.29 1.6
-1 4 4 54.89 2.5
1 4 -4 56.99 1.9
-1 4 4 55.59 1.9
0 -4 4 55.29 1.6
0 -4 -4 58.79 2.5
0 -4 4 55.19 2.7
0 -4 -4 51.89 1.6
0 4 4 54.69 1.9
0 4 4 49.99 2.4
0 4 -4 55.89 2.1
0 4 -4 57.69 1.6
-1 -4 -4 45.7 1.4
1 -4 4 45.2 1.5
1 -4 4 44 2.4
-1 -4 -4 44 2.1
1 4 4 43.2 2.1
-1 4 -4 43.9 2
-1 4 -4 44.2 1.5
1 4 4 45.9 1.8
-2 -4 -4 218.78 5.5
2 -4 4 218.48 4.9
2 -4 4 210.78 6.5
-2 -4 -4 216.98 4.7
2 4 4 220.08 6
-2 4 -4 223.18 5.7
2 4 4 222.08 5.6
-2 4 -4 216.18 5
3 -4 4 17.3 1.2
3 -4 4 15.8 2.3
-3 4 -4 16.1 1.6
-3 4 -4 16.7 1.1
4 -4 4 61.69 2.5
4 -4 4 62.59 4.7
-4 4 -4 62.99 3.1
-4 4 -4 62.19 2.3
5 -4 4 125.59 4.1
5 -4 4 121.09 6.3
-5 4 -4 128.39 4.4
5 -5 -4 16.2 2.7
-5 5 4 20.3 2.4
-5 5 4 19.5 1.4
4 -5 -4 39 1.7
4 -5 -4 42.4 3.7
-4 5 4 41.2 2.7
-4 5 4 38.4 1.9
3 -5 -4 84.29 3.9
3 -5 -4 83.59 2.4
-3 5 4 85.69 3.4
-3 5 4 84.29 2.7
2 -5 -4 11.5 1.6
2 -5 -4 12.6 0.9
-2 5 4 10.2 1.4
-2 5 4 13 1.1
-1 -5 4 440.76 8.9
1 -5 -4 424.36 10.4
-1 -5 4 439.46 10
1 -5 -4 435.66 9.1
1 5 -4 437.46 9.4
1 5 -4 443.46 9
-1 5 4 439.96 10.2
-1 5 4 439.46 9.5
0 -5 4 69.99 3.2
0 -5 -4 73.19 2.1
0 -5 4 69.09 2
0 -5 -4 75.19 3
0 5 4 72.29 2.4
0 5 -4 73.39 2.1
0 5 -4 72.69 2.5
-1 -5 -4 501.35 11.2
-1 -5 -4 489.25 10.1
1 -5 4 482.15 10.1
1 -5 4 495.25 11.9
-1 5 -4 475.65 10.9
1 5 4 493.75 11
1 5 4 490.95 10.6
-1 5 -4 505.85 10.3
-2 -5 -4 24.1 1.1
2 -5 4 23.3 1.2
2 -5 4 23.7 2.4
-2 -5 -4 25.9 1.6
-2 5 -4 26.5 1.3
2 5 4 26 1.8
-2 5 -4 27.8 1.8
2 5 4 28.9 2.4
3 -5 4 67.69 2.3
3 -5 4 69.09 4.1
-3 5 -4 72.39 3.2
-3 5 -4 65.49 2.4
4 -5 4 157.68 4.3
4 -5 4 151.18 6.6
-4 5 -4 158.58 5.2
5 -5 4 6.1 2.7
5 -5 4 8.6 1.4
-5 5 -4 7.2 1.5
5 -6 -4 21.5 3
-5 6 4 24.6 2.3
-5 6 4 22.6 1.6
4 -6 -4 29.8 3.8
4 -6 -4 30 1.7
-4 6 4 28.8 1.7
-4 6 4 23.2 2.6
3 -6 -4 11.3 2.1
3 -6 -4 9.9 1
-3 6 4 8.4 1.7
-3 6 4 11.4 1.2
2 -6 -4 28.2 1.4
2 -6 -4 26.9 2.5
-2 6 4 23.9 2.2
-2 6 4 24.8 1.6
1 -6 -4 82.39 2.4
1 -6 -4 80.29 3.4
-1 6 4 80.49 3.5
-1 6 4 83.39 2.7
0 -6 -4 107.99 2.9
0 -6 -4 105.29 3.9
0 -6 4 111.39 4.1
0 -6 4 108.39 2.8
0 6 -4 111.09 3.5
0 6 4 107.99 3.3
0 6 4 105.19 3.9
1 -6 4 89.49 2.5
-1 -6 -4 89.69 3.4
1 -6 4 85.89 3.8
-1 -6 -4 87.19 2.5
1 6 4 91.29 3.6
1 6 4 88.99 2.9
-1 6 -4 88.99 3.2
2 -6 4 80.49 2.5
2 -6 4 82.79 4.1
-2 6 -4 81.99 3.4
3 -6 4 40.7 3.5
3 -6 4 43.1 1.9
-3 6 -4 43.6 2.6
4 -6 4 35.2 2
4 -6 4 35.2 4.1
-4 6 -4 38.4 2.9
5 -6 4 39.1 2.6
5 -6 4 28 3.9
-5 6 -4 35.8 3
5 -7 -4 28.4 3.5
-5 7 4 25.2 2.7
-5 7 4 29.4 2
4 -7 -4 9.7 2.4
-4 7 4 8.4 2
-4 7 4 9.8 1.2
3 -7 -4 51.69 3.8
3 -7 -4 56.99 2.1
-3 7 4 54.59 2.4
-3 7 4 54.49 3.2
2 -7 -4 211.28 5
2 -7 -4 205.18 6.7
-2 7 4 205.68 5.5
-2 7 4 207.88 6.3
1 -7 -4 187.28 4.5
1 -7 -4 183.38 6.2
-1 7 4 183.48 5.9
-1 7 4 185.48 5
0 -7 -4 17.4 2.2
0 -7 4 10.2 0.9
0 -7 -4 11.1 1
0 -7 4 9.9 1.9
0 7 4 9.9 1.2
0 7 -4 6.7 1.4
0 7 4 11.2 1.9
-1 -7 -4 104.89 4
1 -7 4 108.89 4.8
-1 -7 -4 111.99 3
1 -7 4 110.29 3
1 7 4 111.69 3.5
1 7 4 108.29 4.4
-1 7 -4 105.89 4
2 -7 4 324.67 9.5
2 -7 4 339.87 7.5
-2 7 -4 330.87 8.6
3 -7 4 50.69 2.2
3 -7 4 44.5 4.2
-3 7 -4 50.69 3.2
4 -7 4 51.89 2.4
4 -7 4 44.8 5
-4 7 -4 47.5 3.2
4 -8 -4 39.9 4.3
-4 8 4 45.3 2.5
-4 8 4 44.2 3.4
3 -8 -4 17.3 1.4
3 -8 -4 13.8 2.6
-3 8 4 18 1.7
-3 8 4 15.4 2.3
2 -8 -4 21.3 2.6
2 -8 -4 23.5 1.4
-2 8 4 23.7 1.8
-2 8 4 24.2 2.7
1 -8 -4 145.39 5.5
1 -8 -4 153.28 4
-1 8 4 147.69 4.5
-1 8 4 150.38 5.3
0 -8 -4 236.48 5.6
0 -8 -4 231.08 7.1
0 -8 4 242.38 5.5
0 -8 4 238.88 7.3
0 8 -4 228.38 6.5
0 8 4 235.58 6.3
0 8 4 251.27 7.2
-1 -8 -4 179.28 4.4
-1 -8 -4 174.98 5.8
1 -8 4 173.68 6.5
1 -8 4 183.08 4.5
1 8 4 176.38 6.1
-1 8 -4 173.58 5.6
1 8 4 171.08 5
2 -8 4 16.2 2.7
2 -8 4 21.3 1.4
-2 8 -4 21.8 2.3
3 -8 4 34 3.8
3 -8 4 38.7 2
-3 8 -4 43.4 3
3 -9 -4 135.39 6.2
-3 9 4 137.29 6.1
-3 9 4 142.09 4.7
2 -9 -4 86.89 2.9
2 -9 -4 84.39 4.4
-2 9 4 86.09 3.4
-2 9 4 87.19 4.5
1 -9 -4 239.18 7.7
1 -9 -4 243.68 5.8
-1 9 4 241.78 7.5
-1 9 4 236.58 6.6
0 -9 -4 5 1.4
0 -9 -4 1.1 0.5
0 9 4 2.8 1.6
0 9 4 2.2 1.1
1 -9 4 105.39 3.1
1 -9 4 96.49 5
-1 9 -4 100.69 4.3
2 -9 4 139.29 6.2
2 -9 4 153.28 4.2
-2 9 -4 148.29 5.5
3 0 -5 2.1 0.3
-3 0 5 2.1 0.4
-3 0 5 1.7 0.6
3 0 -5 2.7 0.9
2 0 -5 160.78 5.3
2 0 -5 166.88 9.3
-2 0 5 158.08 5.5
2 0 -5 150.18 3.9
-2 0 5 155.18 4.1
-2 0 5 160.88 4
-2 0 5 165.18 9.7
2 0 -5 156.78 3.4
-1 0 5 121.89 5
1 0 -5 119.59 2.8
1 0 -5 123.89 7.7
1 0 -5 124.19 3.2
-1 0 5 123.59 3.3
-1 0 5 131.79 3.7
1 0 -5 124.29 4.6
-1 0 5 123.09 8.3
0 0 5 279.17 7.2
0 0 -5 278.37 6.2
0 0 -5 295.77 8.4
0 0 -5 273.37 11.4
0 0 5 298.47 13.4
0 0 -5 281.97 5.9
0 0 5 270.47 9.1
0 0 5 287.67 6.4
1 0 5 3 2.7
-1 0 -5 3.6 0.4
1 0 5 3.1 1.8
-1 0 -5 4.3 0.6
1 0 5 2.5 0.7
-1 0 -5 4 1.3
1 0 5 0.9 1.2
-1 0 -5 5.4 2.2
2 0 5 49.2 2
2 0 5 51.99 3.1
-2 0 -5 50.29 1.7
-2 0 -5 48.7 1.6
-3 0 -5 481.85 10.2
3 0 5 508.85 12.4
-3 0 -5 490.15 10.2
3 0 5 480.85 10.7
-4 0 -5 0.8 0.5
-4 0 -5 0.3 0.4
4 0 5 0.3 1.5
4 0 5 -1 2.5
3 -1 -5 64.69 1.8
3 -1 -5 67.09 3.6
3 -1 -5 73.49 8.7
3 -1 -5 67.79 2.7
-3 1 5 69.09 2
-3 1 5 63.59 7.9
-3 1 5 67.59 3.4
-3 1 5 68.99 2.4
-2 -1 5 36.8 1.5
-2 -1 5 38.9 2.7
2 -1 -5 36.7 1.2
-2 -1 5 40.6 2.1
2 -1 -5 46.8 2.1
2 -1 -5 42.9 6.7
2 -1 -5 40.2 2.6
-2 -1 5 36.9 5.4
2 1 -5 40.6 2.3
2 1 -5 38.1 1.5
2 1 -5 34.8 4.2
-2 1 5 38.9 2.6
-2 1 5 43.5 1.9
-2 1 5 38.9 1.6
2 1 -5 35.9 1.1
-2 1 5 43.2 6.3
1 -1 -5 18.2 2
1 -1 -5 20.7 1.2
1 -1 -5 20.7 0.8
1 -1 -5 19.8 4.3
-1 -1 5 21.4 1.5
-1 -1 5 21.3 4.1
-1 -1 5 20.9 1.1
-1 -1 5 23.6 2.8
1 1 -5 20.4 0.8
1 1 -5 22.6 3.1
-1 1 5 22.5 1.2
1 1 -5 21.1 1
-1 1 5 16.3 2
-1 1 5 22 1.1
1 1 -5 22.1 2.1
-1 1 5 32 5.5
0 -1 5 536.85 12.2
0 -1 5 524.95 18.3
0 -1 -5 533.95 13.3
0 -1 -5 524.55 10.5
0 -1 5 522.55 10.9
0 -1 -5 522.35 11.1
0 -1 -5 490.05 18.6
0 -1 5 550.64 15.5
0 1 -5 533.45 15.1
0 1 -5 530.05 13.6
0 1 5 523.55 11.2
0 1 -5 517.65 10.6
0 1 5 536.15 13.8
0 1 -5 521.45 10.7
0 1 5 531.95 11.7
0 1 5 533.55 19.8
1 -1 5 86.89 8.7
1 -1 5 88.39 2.7
1 -1 5 76.79 8.2
1 -1 5 87.89 3.9
-1 -1 -5 83.79 2.6
-1 -1 -5 65.79 7
-1 -1 -5 77.29 4.1
-1 1 -5 87.09 2.4
1 1 5 94.59 5
-1 1 -5 91.99 6.9
-1 1 -5 93.69 5.8
1 1 5 87.09 2.9
-1 1 -5 87.49 2.4
1 1 5 67.69 8
1 1 5 90.09 3.7
2 -1 5 21.9 1.3
2 -1 5 17.9 2.3
-2 -1 -5 20.9 0.9
-2 -1 -5 20.3 1.1
2 1 5 22.8 2.3
-2 1 -5 20.1 1
2 1 5 21.3 1.5
-2 1 -5 19.5 1.1
-3 -1 -5 7 0.8
3 -1 5 12.9 1.5
-3 -1 -5 7.2 0.6
3 -1 5 8.8 2
-3 1 -5 6.6 0.8
3 1 5 9.6 2
3 1 5 6.3 1.2
-3 1 -5 6.7 0.7
-4 -1 -5 55.39 1.8
4 -1 5 52.49 4.9
-4 -1 -5 55.39 1.9
4 -1 5 57.29 3
4 1 5 47.9 4.9
-4 1 -5 56.99 2
-4 1 -5 54.49 2.2
4 1 5 49.9 3.1
4 -2 -5 5.5 0.7
4 -2 -5 5 1.6
-4 2 5 7.6 0.9
-4 2 5 6 1
3 -2 -5 176.38 4
3 -2 -5 184.08 5.1
-3 2 5 176.78 4.9
-3 2 5 188.98 4.5
-2 -2 5 74.29 4.4
2 -2 -5 81.69 2.9
2 -2 -5 76.39 2
-2 -2 5 73.39 2.2
-2 -2 5 71.19 2.8
-2 -2 5 75.79 7.3
-2 2 5 77.09 2.3
-2 2 5 82.39 2.8
2 2 -5 75.09 1.8
2 2 -5 75.49 4.2
2 2 -5 80.09 2
2 2 -5 76.59 3.2
-1 -2 5 169.48 4
-1 -2 5 169.98 7.6
-1 -2 5 169.08 5
-1 -2 5 164.28 9
1 -2 -5 169.88 4.6
1 -2 -5 170.08 11.3
1 -2 -5 166.78 3.7
1 -2 -5 164.68 6.1
-1 2 5 164.38 4.1
-1 2 5 165.68 6.2
1 2 -5 169.48 6.3
-1 2 5 152.78 11.1
1 2 -5 167.88 5.9
1 2 -5 160.78 3.7
-1 2 5 167.48 4.5
1 2 -5 173.58 3.7
0 -2 5 467.65 16
0 -2 -5 448.16 10
0 -2 -5 403.26 18.1
0 -2 -5 462.65 12.2
0 -2 5 463.85 10.9
0 -2 5 451.15 9.5
0 -2 -5 455.05 9.3
0 -2 5 475.45 15.5
0 2 -5 460.15 9.3
0 2 -5 463.65 13.3
0 2 -5 461.25 12.8
0 2 5 472.75 9.9
0 2 5 445.76 19.5
0 2 -5 448.36 9.5
0 2 5 466.25 10
0 2 5 460.95 12.4
-1 -2 -5 90.89 2.9
-1 -2 -5 89.29 2.3
1 -2 5 95.19 2.6
1 2 5 95.29 3.5
1 2 5 88.99 3
-1 2 -5 94.19 2.7
-1 2 -5 90.99 2.4
-2 -2 -5 57.19 2.1
2 -2 5 56.89 2
-2 -2 -5 55.49 1.7
2 -2 5 61.59 3.3
-2 2 -5 58.29 2.1
2 2 5 58.29 3.2
-2 2 -5 60.89 1.8
2 2 5 58.19 2.5
3 -2 5 125.09 3.5
3 -2 5 117.99 5.2
-3 -2 -5 118.99 3
-3 -2 -5 124.49 3.2
3 2 5 126.79 5.3
-3 2 -5 120.59 3.2
3 2 5 121.09 4
-3 2 -5 120.89 3.5
4 -2 5 62.89 2.9
4 -2 5 56.09 4.6
-4 2 -5 58.99 2.1
-4 2 -5 58.99 2.4
5 -2 5 45.8 3.3
5 -2 5 48.8 5
-5 2 -5 51.69 2.4
-5 2 -5 50.09 2
4 -3 -5 149.59 5.3
4 -3 -5 158.08 3.8
-4 3 5 155.68 4.1
-4 3 5 155.98 4.6
3 -3 -5 533.65 11.9
3 -3 -5 516.65 10.6
-3 3 5 514.25 11.1
-3 3 5 525.85 11.7
2 -3 -5 61.99 1.8
2 -3 -5 61.59 2.6
-2 3 5 61.59 2.5
-2 3 5 62.29 2.1
1 -3 -5 42.7 2.3
-1 -3 5 39.8 2.3
-1 -3 5 44.7 1.6
-1 -3 5 45.2 5.2
-1 -3 5 38.3 4.9
1 -3 -5 43.5 1.4
1 3 -5 46.7 3.3
-1 3 5 42.9 1.7
-1 3 5 40.1 2.2
1 3 -5 40.5 1.5
1 3 -5 44.2 3
1 3 -5 44 1.4
0 -3 5 116.09 4.2
0 -3 -5 119.59 2.9
0 -3 -5 122.99 3.9
0 -3 5 114.39 3
0 3 -5 121.99 3.3
0 3 -5 121.79 2.9
0 3 5 122.29 3.4
0 3 5 121.29 3.7
1 -3 5 17.2 2.1
-1 -3 -5 20.2 0.9
-1 -3 -5 20.6 1.3
1 -3 5 21.1 1.1
-1 3 -5 20.7 1
1 3 5 18.4 1.4
1 3 5 20.5 1.5
2 -3 5 26.2 2.8
-2 -3 -5 31.8 1.2
2 -3 5 32 1.4
-2 -3 -5 30.5 1.6
-2 3 -5 32.8 1.3
2 3 5 31.9 2.6
2 3 5 35.9 2
-2 3 -5 31.1 1.7
3 -3 5 14.1 2.2
3 -3 5 18.8 1.4
-3 -3 -5 18.2 0.9
-3 -3 -5 18.3 1.1
3 3 5 19.3 1.9
-3 3 -5 15.8 1.4
3 3 5 17.5 2.5
-3 3 -5 16.4 1.1
4 -3 5 17.1 2
4 -3 5 18.3 3
-4 3 -5 18 1.9
-4 3 -5 19.5 1.2
5 -3 5 7.4 3.1
5 -3 5 9.9 1.6
-5 3 -5 10.3 1.3
-5 3 -5 9.4 1.2
4 -4 -5 32.7 1.6
4 -4 -5 33.7 3.3
-4 4 5 31 1.7
-4 4 5 31.4 2.2
3 -4 -5 184.88 4.3
3 -4 -5 184.78 5.7
-3 4 5 185.78 4.7
-3 4 5 187.68 5.5
2 -4 -5 171.88 4
2 -4 -5 173.78 5.2
-2 4 5 172.98 5.1
-2 4 5 173.18 4.5
-1 -4 5 19 1
-1 -4 5 18.2 1.6
1 -4 -5 19.8 1.6
-1 -4 5 11.8 2.7
-1 -4 5 20.8 4.3
1 -4 -5 18.5 1
1 4 -5 18.1 2.3
-1 4 5 18.1 1.3
1 4 -5 19.6 1
-1 4 5 17.1 1.6
1 4 -5 15.6 2.7
1 4 -5 18.6 1.1
0 -4 5 259.27 6.9
0 -4 5 255.07 5.6
0 -4 -5 251.87 6.5
0 -4 -5 250.37 5.5
0 4 -5 261.77 6
0 4 -5 256.87 5.6
0 4 5 254.17 6.5
0 4 5 249.28 6
-1 -4 -5 175.18 5
-1 -4 -5 177.08 4.1
1 -4 5 179.48 4.2
1 -4 5 170.98 5.6
-1 4 -5 179.58 4.7
-1 4 -5 180.88 4.2
1 4 5 177.28 4.7
1 4 5 169.28 4.9
-2 -4 -5 8.8 0.7
2 -4 5 5.7 1.4
2 -4 5 8.4 0.9
-2 -4 -5 7.9 1
-2 4 -5 7.9 1.1
2 4 5 6.3 1.3
-2 4 -5 9.2 0.8
2 4 5 8.3 1.5
3 -4 5 24.7 1.6
3 -4 5 27.6 3.4
-3 4 -5 20.7 1.9
-3 4 -5 23.9 1.3
4 -4 5 15.9 1.9
4 -4 5 12.3 2.9
-4 4 -5 14.7 1.3
-4 4 -5 15.3 1.8
5 -4 5 37.9 2.7
5 -4 5 38.8 4.2
-5 4 -5 33.6 2.4
-5 4 -5 39.7 1.9
5 -5 -5 68.79 4.3
-5 5 5 63.49 2.6
-5 5 5 61.59 3.6
4 -5 -5 140.39 5.5
4 -5 -5 139.49 3.7
-4 5 5 138.39 4.1
-4 5 5 142.19 4.8
3 -5 -5 168.88 4.2
3 -5 -5 168.38 5.8
-3 5 5 172.58 5.5
-3 5 5 172.68 4.6
2 -5 -5 121.79 3.2
2 -5 -5 115.69 4.3
-2 5 5 120.09 3.5
-2 5 5 122.69 4.2
1 -5 -5 29.8 2
1 -5 -5 29.6 1.3
-1 -5 5 30.5 1.2
-1 -5 5 26.3 2.1
-1 5 5 26.3 2.1
-1 5 5 30.8 1.6
1 5 -5 26.7 1.4
1 5 -5 30.2 1.3
0 -5 5 7.4 0.8
0 -5 -5 7 1.1
0 -5 5 8.2 1.4
0 -5 -5 7.3 0.7
0 5 5 6.4 1.1
0 5 -5 8 1
0 5 5 8.6 0.9
0 5 -5 8 0.9
1 -5 5 18.1 1
1 -5 5 19.5 2.2
-1 -5 -5 17.8 1
-1 -5 -5 17.9 1.7
-1 5 -5 18 1.5
-1 5 -5 17.8 1.1
1 5 5 16.4 1.9
1 5 5 20.1 1.5
-2 -5 -5 8.6 0.8
2 -5 5 7.4 0.9
2 -5 5 6.1 1.7
-2 -5 -5 7.4 1.2
-2 5 -5 8.2 1.2
2 5 5 7.9 1.8
2 5 5 10 1.6
3 -5 5 57.09 4.3
3 -5 5 60.09 2.3
-3 5 -5 60.39 2.3
-3 5 -5 61.89 3.1
4 -5 5 26.1 2.1
4 -5 5 24.6 3.5
-4 5 -5 22.7 1.6
-4 5 -5 25.5 2.3
5 -5 5 56.09 3.1
5 -5 5 58.69 5.4
-5 5 -5 64.39 3.2
5 -6 -5 21.7 2.9
-5 6 5 20.9 2.5
-5 6 5 25.5 1.8
4 -6 -5 27.2 1.7
4 -6 -5 27.2 3.5
-4 6 5 23 2.6
-4 6 5 26.7 1.8
3 -6 -5 67.79 2.3
3 -6 -5 63.89 3.7
-3 6 5 66.99 3.3
-3 6 5 62.89 2.5
2 -6 -5 11.3 1.2
2 -6 -5 6.1 1.4
-2 6 5 9.5 1.3
-2 6 5 9.9 1.7
1 -6 -5 53.49 2
1 -6 -5 55.19 3
-1 6 5 53.29 2.4
-1 6 5 57.19 3
0 -6 5 40.7 1.6
0 -6 -5 38.5 1.7
0 -6 -5 39.9 2.5
0 -6 5 33.7 2.7
0 6 5 41.5 2.7
0 6 -5 36 2.1
0 6 -5 41.4 1.8
0 6 5 41 2
1 -6 5 207.88 4.9
1 -6 5 201.78 6.7
-1 -6 -5 198.38 6
-1 -6 -5 206.98 4.8
1 6 5 204.08 6
-1 6 -5 207.58 5
1 6 5 203.58 5.5
-1 6 -5 209.98 5.8
-2 -6 -5 124.49 4.1
2 -6 5 121.59 3.4
-2 -6 -5 120.29 3.1
2 -6 5 117.39 5.2
-2 6 -5 125.59 3.5
-2 6 -5 120.99 4.4
2 6 5 117.59 4.5
2 6 5 118.89 4.4
3 -6 5 7.1 1
3 -6 5 5.4 2.2
-3 6 -5 5.6 0.9
-3 6 -5 7.2 1.6
4 -6 5 5.2 1.2
4 -6 5 6.2 2.5
-4 6 -5 5.5 1.5
5 -7 -5 9 2.4
4 -7 -5 57.99 2.3
4 -7 -5 56.19 4.2
-4 7 5 58.59 2.6
-4 7 5 56.89 3.6
3 -7 -5 36.1 3.3
3 -7 -5 35.9 1.7
-3 7 5 33.9 2.1
-3 7 5 31.7 2.8
2 -7 -5 25 2.6
2 -7 -5 29.4 1.5
-2 7 5 30.5 2.7
-2 7 5 30 1.9
1 -7 -5 44.1 2.8
1 -7 -5 43.6 1.8
-1 7 5 41.8 3.1
-1 7 5 42.6 2.2
0 -7 5 25.5 2.4
0 -7 5 22.5 1.3
0 -7 -5 24.6 1.3
0 -7 -5 21.3 2.3
0 7 5 25.9 1.8
0 7 5 24.3 2.5
0 7 -5 22.3 2
-1 -7 -5 43.1 1.7
1 -7 5 40.8 3.2
1 -7 5 43.4 1.8
-1 -7 -5 45 2.7
1 7 5 43.8 3.2
1 7 5 42.1 2.4
-1 7 -5 41.3 2.6
2 -7 5 2.9 1.7
2 -7 5 3.8 0.8
-2 7 -5 3.6 1.3
3 -7 5 92.19 3.1
3 -7 5 89.79 5.1
-3 7 -5 90.59 4.2
4 -7 5 81.29 3.3
4 -7 5 74.19 5.6
-4 7 -5 85.19 4.2
4 -8 -5 17.2 2.9
-4 8 5 16.7 1.8
-4 8 5 16.1 2.7
3 -8 -5 12.8 1.3
3 -8 -5 16.3 2.6
-3 8 5 13.7 1.5
-3 8 5 12.2 2.2
2 -8 -5 2.6 1.4
2 -8 -5 2.3 0.6
-2 8 5 2.1 1.3
-2 8 5 1.7 0.9
1 -8 -5 25.3 1.5
1 -8 -5 32 2.8
-1 8 5 24.1 2
-1 8 5 26.2 2.9
0 -8 -5 16.4 1.3
0 -8 -5 14.6 2.2
0 8 5 15.9 1.8
0 8 5 14.2 2.4
1 -8 5 154.18 6.2
-1 -8 -5 154.58 4
-1 -8 -5 155.58 5.4
1 -8 5 155.28 4.1
1 8 5 156.28 5
1 8 5 153.68 5.8
-1 8 -5 153.88 5.3
2 -8 5 59.19 2.3
2 -8 5 58.89 4.3
-2 8 -5 56.79 3.3
3 -8 5 25.2 1.8
3 -8 5 18.4 3.3
-3 8 -5 25 2.8
2 -9 -5 4.5 0.8
2 -9 -5 4.1 1.6
-2 9 5 1.4 1.6
-2 9 5 2.9 1.2
1 -9 -5 44.8 3.2
1 -9 -5 41.4 1.9
-1 9 5 39.4 3.3
-1 9 5 40.9 2.6
0 -9 -5 86.29 4.3
0 -9 -5 93.49 2.9
0 9 5 87.59 3.7
0 9 5 93.79 4.5
1 -9 5 5.5 1
1 -9 5 6.5 1.9
-1 9 -5 4.5 1.7
2 -9 5 0.9 0.8
2 -9 5 -0.5 2
-2 9 -5 0.1 1.6
-3 0 6 10.8 1.3
-3 0 6 12.8 1.2
3 0 -6 9.7 0.7
3 0 -6 13 1.7
-2 0 6 52.59 2.3
2 0 -6 54.69 3.1
-2 0 6 53.29 2.1
2 0 -6 53.69 2.1
-2 0 6 58.39 8.2
2 0 -6 50.09 6.9
2 0 -6 54.09 1.5
-2 0 6 54.89 3.6
1 0 -6 50.79 1.9
1 0 -6 45.5 3
-1 0 6 48.1 2.1
-1 0 6 52.99 3.6
-1 0 6 64.39 8.3
1 0 -6 51.99 1.5
-1 0 6 53.59 2.7
1 0 -6 51.59 6.7
0 0 -6 22.2 1.3
0 0 -6 19.8 1
0 0 6 29.9 2.5
1 0 6 476.45 10.2
-1 0 -6 468.35 9.9
1 0 6 462.25 11.7
-1 0 -6 475.55 9.7
2 0 6 139.59 4.2
-2 0 -6 143.89 3.7
-2 0 -6 143.99 3.5
2 0 6 149.29 5.7
3 0 6 11.6 1.5
3 0 6 6.2 2.3
-3 0 -6 9 0.9
-3 0 -6 8.3 0.8
4 0 6 168.88 5.6
-4 0 -6 168.68 4.3
4 0 6 162.28 7.4
-4 0 -6 176.18 4.3
3 -1 -6 205.58 4.4
3 -1 -6 199.98 5.5
-3 1 6 205.38 5
-3 1 6 202.48 5.3
-2 -1 6 79.39 3.2
2 -1 -6 87.09 3
-2 -1 6 82.49 4.6
-2 -1 6 95.39 9.5
2 -1 -6 83.59 2.1
-2 -1 6 81.99 2.6
2 1 -6 88.29 3.8
2 1 -6 81.19 2.4
-2 1 6 84.09 2.6
2 1 -6 83.89 6
-2 1 6 82.59 2.8
2 1 -6 82.09 2
1 -1 -6 673.43 14
-1 -1 6 677.03 18
-1 -1 6 671.33 13.9
1 -1 -6 654.33 13.3
-1 -1 6 689.03 23.3
-1 -1 6 645.44 14.8
1 1 -6 672.93 16.2
-1 1 6 683.43 14.5
1 1 -6 663.53 13.5
1 1 -6 669.43 13.3
-1 1 6 666.53 14
1 1 -6 674.43 19
0 -1 -6 124.09 2.9
0 -1 6 124.79 3.5
0 -1 6 119.19 4.6
0 1 -6 124.69 3.2
0 1 6 120.49 3.6
0 1 -6 124.29 3
0 1 6 121.99 4.3
-1 -1 -6 154.28 3.5
-1 -1 -6 146.29 3.9
1 -1 6 144.59 3.9
1 -1 6 148.69 5.3
1 1 6 138.59 5
1 1 6 141.89 4.2
-1 1 -6 145.89 3.6
-1 1 -6 147.19 3.6
2 -1 6 22.8 2.6
2 -1 6 19 1.5
-2 -1 -6 20.7 1
-2 -1 -6 19.8 1.2
-2 1 -6 20.6 1.2
2 1 6 26 3
2 1 6 21.8 1.9
-2 1 -6 20.6 1.1
-3 -1 -6 143.39 3.7
-3 -1 -6 139.89 3.5
3 -1 6 144.89 6
3 -1 6 146.19 4.4
3 1 6 143.89 6.3
-3 1 -6 138.59 3.8
-3 1 -6 140.79 3.7
3 1 6 144.39 4.5
-4 -1 -6 210.58 4.9
4 -1 6 201.48 8.2
-4 -1 -6 205.08 5
4 -1 6 222.78 6.1
4 1 6 198.98 6.1
-4 1 -6 214.88 5.3
4 1 6 211.58 8.2
-4 1 -6 208.98 5.1
3 -2 -6 13.5 1.6
3 -2 -6 14.4 0.9
-3 2 6 17 1.1
-3 2 6 15.7 1.6
-2 -2 6 220.08 6
2 -2 -6 220.98 5.7
2 -2 -6 210.48 4.7
-2 -2 6 218.98 5.2
2 2 -6 220.18 4.7
2 2 -6 212.98 4.6
-2 2 6 218.38 5.3
-2 2 6 210.78 5.6
-1 -2 6 236.28 9.9
1 -2 -6 219.38 5.7
-1 -2 6 241.08 12.4
-1 -2 6 211.88 5.2
-1 -2 6 229.48 6.4
1 -2 -6 220.98 4.8
1 2 -6 218.88 7.5
-1 2 6 213.98 5.6
-1 2 6 222.88 5.4
1 2 -6 216.48 4.8
1 2 -6 203.28 8.2
1 2 -6 225.68 4.9
0 -2 6 16.4 2.1
0 -2 -6 15.9 1.3
0 -2 6 15.2 1.2
0 -2 -6 16.6 0.8
0 2 -6 15.9 0.9
0 2 -6 14.4 0.9
0 2 6 16.8 1.5
0 2 6 16.1 1.5
1 -2 6 486.75 10.2
1 -2 6 483.65 11.9
-1 -2 -6 475.55 9.8
-1 -2 -6 476.35 10.5
1 2 6 473.85 11.5
-1 2 -6 479.15 9.9
-1 2 -6 481.05 10.1
1 2 6 465.35 10.6
-2 -2 -6 149.39 3.6
2 -2 6 148.19 4.1
2 -2 6 149.79 5.6
-2 -2 -6 152.38 4
2 2 6 154.18 5.5
-2 2 -6 150.98 3.7
-2 2 -6 149.09 4
2 2 6 146.29 4.5
3 -2 6 39.5 4
-3 -2 -6 38.2 1.5
3 -2 6 37.4 2.2
-3 -2 -6 39.3 1.6
3 2 6 43.7 2.9
-3 2 -6 39.8 1.6
3 2 6 39.4 4.4
-3 2 -6 39.4 1.9
4 -2 6 173.48 7.2
4 -2 6 182.88 5.3
-4 2 -6 170.68 4.4
-4 2 -6 172.78 4.8
5 -2 6 16.9 2.3
5 -2 6 24.2 3.5
-5 2 -6 23.2 1.7
-5 2 -6 19.9 1.4
4 -3 -6 50.49 3.3
4 -3 -6 57.69 2.1
-4 3 6 55.79 2.3
-4 3 6 57.89 2.9
3 -3 -6 240.18 6.6
3 -3 -6 236.88 5.3
-3 3 6 233.28 5.8
-3 3 6 244.88 6.4
2 -3 -6 164.68 3.8
2 -3 -6 165.98 4.9
-2 3 6 167.08 4.3
-2 3 6 158.38 4.8
-1 -3 6 740.63 15
1 -3 -6 745.23 14.7
-1 -3 6 731.23 16.2
1 -3 -6 730.03 15.8
-1 3 6 718.33 15.3
1 3 -6 729.63 14.6
-1 3 6 711.73 15.6
1 3 -6 752.12 14.6
0 -3 -6 16.4 0.9
0 -3 -6 16.6 1.5
0 -3 6 18.2 1.2
0 -3 6 20.3 2.2
0 3 -6 15.5 1
0 3 6 16.2 1.3
0 3 6 16.9 1.5
0 3 -6 17.6 1.1
1 -3 6 437.76 9.3
1 -3 6 451.15 11.3
-1 -3 -6 439.46 9.9
-1 -3 -6 426.86 9
1 3 6 423.16 9.9
-1 3 -6 443.06 9.2
1 3 6 430.06 10.6
-1 3 -6 428.46 9.5
2 -3 6 15.1 2.2
-2 -3 -6 13.8 0.9
2 -3 6 16.4 1.2
-2 -3 -6 12.7 1.2
2 3 6 11.6 1.9
-2 3 -6 14.6 1.2
-2 3 -6 13.9 1
2 3 6 17 1.9
-3 -3 -6 56.19 2.1
3 -3 6 55.39 2.4
3 -3 6 60.29 4.4
-3 -3 -6 56.99 1.8
-3 3 -6 57.69 2
3 3 6 57.19 3.3
-3 3 -6 50.89 2.4
3 3 6 60.99 4.8
4 -3 6 173.68 5.1
4 -3 6 166.18 7.1
-4 3 -6 169.78 4.9
-4 3 -6 170.58 4.5
5 -3 6 105.59 6.8
5 -3 6 117.49 4.6
-5 3 -6 121.39 4
-5 3 -6 122.59 3.6
4 -4 -6 21.4 1.4
4 -4 -6 21.4 2.5
-4 4 6 20 1.5
-4 4 6 19 2.2
3 -4 -6 99.09 4.1
3 -4 -6 105.69 2.9
-3 4 6 106.69 3.9
-3 4 6 102.79 3.3
2 -4 -6 199.48 4.6
2 -4 -6 195.48 5.8
-2 4 6 199.98 5.7
-2 4 6 200.08 5.1
1 -4 -6 43.5 1.5
1 -4 -6 41.6 2.3
-1 -4 6 42 1.7
-1 -4 6 41.6 2.5
1 4 -6 40 1.6
-1 4 6 42.5 1.8
1 4 -6 41.2 1.5
-1 4 6 41.7 2.4
0 -4 6 7.7 1.5
0 -4 -6 6.5 1.1
0 -4 -6 9.3 0.7
0 -4 6 8.8 0.8
0 4 6 7.2 1.1
0 4 -6 8.4 1
0 4 6 6 0.9
0 4 -6 7.1 0.8
-1 -4 -6 105.69 2.7
-1 -4 -6 106.29 3.5
1 -4 6 105.89 3
1 -4 6 102.99 4.3
1 4 6 102.89 3.6
1 4 6 100.79 3.7
-1 4 -6 103.59 3.3
-1 4 -6 106.39 2.9
2 -4 6 500.05 10.5
-2 -4 -6 496.45 10.9
-2 -4 -6 481.45 10
2 -4 6 475.95 12.3
2 4 6 469.35 12.1
-2 4 -6 489.35 10.3
2 4 6 468.45 11.1
-2 4 -6 489.25 10.9
3 -4 6 23.6 1.8
3 -4 6 22.3 3.1
-3 4 -6 20.5 1.3
-3 4 -6 27.9 2.3
4 -4 6 74.89 3.3
4 -4 6 72.09 5.8
-4 4 -6 77.49 2.7
-4 4 -6 78.29 3.3
5 -4 6 2.9 3
5 -4 6 4.3 1.6
-5 4 -6 3.2 0.9
-5 4 -6 4 1.1
5 -5 -6 95.89 4.9
5 -5 -6 101.29 3
-5 5 6 95.89 3.5
-5 5 6 96.99 4.2
4 -5 -6 68.59 2.4
4 -5 -6 68.09 4.2
-4 5 6 69.09 2.8
-4 5 6 68.69 3.4
3 -5 -6 65.79 2.3
3 -5 -6 62.79 3.8
-3 5 6 65.09 3.5
-3 5 6 64.29 2.6
2 -5 -6 162.78 4.1
2 -5 -6 165.18 5.4
-2 5 6 167.48 4.6
-2 5 6 166.88 5.4
1 -5 -6 82.79 3.5
1 -5 -6 85.89 2.5
-1 -5 6 83.99 3.4
-1 -5 6 85.49 2.5
1 5 -6 86.79 2.5
-1 5 6 86.09 3.5
-1 5 6 83.69 2.9
1 5 -6 83.99 2.6
0 -5 6 129.19 3.5
0 -5 -6 125.29 4.3
0 -5 -6 131.79 3.4
0 -5 6 129.19 4.6
0 5 6 129.69 3.9
0 5 6 129.89 4.4
0 5 -6 125.69 3.8
0 5 -6 131.49 3.4
1 -5 6 313.87 8.9
1 -5 6 326.07 7.3
-1 -5 -6 319.37 7
-1 -5 -6 311.77 8.2
-1 5 -6 332.47 7.8
-1 5 -6 319.17 7.1
1 5 6 322.97 8.2
1 5 6 318.17 7.9
-2 -5 -6 10.2 1.6
2 -5 6 10.1 1.9
2 -5 6 12.5 1.3
-2 -5 -6 15 1
2 5 6 10.6 1.9
-2 5 -6 9.8 1.3
2 5 6 16.2 2.4
-2 5 -6 12.3 1.1
3 -5 6 85.69 5.2
3 -5 6 88.49 3.1
-3 5 -6 87.69 2.9
-3 5 -6 85.29 3.5
4 -5 6 10.9 1.6
4 -5 6 6.6 2.8
-4 5 -6 8.1 1.1
-4 5 -6 11.3 1.7
5 -5 6 34.9 2.8
5 -5 6 29.9 4.1
-5 5 -6 32.2 2.6
-5 5 -6 32.7 2
5 -6 -6 60.79 2.5
5 -6 -6 58.29 4.4
-5 6 6 53.09 3.6
-5 6 6 59.49 2.8
4 -6 -6 52.79 2.1
4 -6 -6 48 3.8
-4 6 6 53.49 3.2
-4 6 6 48.3 2.5
3 -6 -6 45.8 3.6
3 -6 -6 46 2
-3 6 6 48.1 2.4
-3 6 6 48.5 3.3
2 -6 -6 26.8 2.5
2 -6 -6 27.1 1.4
-2 6 6 26.1 1.7
-2 6 6 25 2.8
1 -6 -6 57.59 2.1
1 -6 -6 54.39 3.2
-1 6 6 53.69 2.5
-1 6 6 54.59 3.2
0 -6 6 16.1 1.4
0 -6 -6 16.4 1.3
0 -6 6 17.5 2.4
0 -6 -6 23.5 2.3
0 6 -6 13.4 1.4
0 6 6 18.6 1.8
0 6 6 21.4 2.3
0 6 -6 17.6 1.8
1 -6 6 9.9 2.1
-1 -6 -6 10.7 1.7
-1 -6 -6 10.8 0.9
1 -6 6 8.6 1
1 6 6 11.3 1.6
-1 6 -6 8.9 1.4
1 6 6 11 1.7
-1 6 -6 10.8 1.2
2 -6 6 124.59 3.7
-2 -6 -6 124.09 4.3
-2 -6 -6 122.09 3.3
2 -6 6 118.69 5.5
2 6 6 117.49 5.2
-2 6 -6 124.99 3.6
-2 6 -6 122.69 4.3
2 6 6 124.69 4.9
3 -6 6 102.19 5.6
3 -6 6 101.59 3.5
-3 6 -6 104.89 4.2
-3 6 -6 103.99 3.3
4 -6 6 11.6 1.6
4 -6 6 9.9 3.1
-4 6 -6 13.3 1.4
-4 6 -6 12.2 1.8
4 -7 -6 16.1 2.7
4 -7 -6 21.1 1.7
-4 7 6 19.5 2.4
-4 7 6 18 1.8
3 -7 -6 104.79 5
3 -7 -6 112.49 3.3
-3 7 6 113.39 4.7
-3 7 6 108.79 3.9
2 -7 -6 59.39 2.3
2 -7 -6 58.09 3.5
-2 7 6 55.49 2.7
-2 7 6 61.89 3.8
1 -7 -6 39.5 3
1 -7 -6 45.5 1.9
-1 7 6 43.4 3.2
-1 7 6 45.1 2.4
0 -7 -6 90.19 2.8
0 -7 6 89.59 4.2
0 -7 6 88.29 2.8
0 -7 -6 91.69 4
0 7 -6 89.49 3.5
0 7 6 87.49 3.4
0 7 6 84.79 4.1
1 -7 6 76.79 4.2
-1 -7 -6 79.79 2.6
-1 -7 -6 80.39 3.9
1 -7 6 78.49 2.7
-1 7 -6 76.49 3.5
1 7 6 76.99 3.6
1 7 6 80.49 4.1
2 -7 6 12 2.3
2 -7 6 11.2 1.3
-2 7 -6 11.6 1.8
3 -7 6 8 1.2
3 -7 6 9.6 2.6
-3 7 -6 8.4 1.6
3 -8 -6 6.9 2
3 -8 -6 7 1
-3 8 6 5.4 1.3
-3 8 6 6.7 1.9
2 -8 -6 24.4 2.7
2 -8 -6 24.5 1.6
-2 8 6 24 2
-2 8 6 28.6 2.8
1 -8 -6 9 2
1 -8 -6 9.2 1.1
-1 8 6 12.6 1.6
-1 8 6 7 2
0 -8 -6 9.4 1.1
0 -8 -6 11 1.8
0 8 6 9.4 1.5
0 8 6 6.5 2
1 -8 6 5 1
-1 -8 -6 5.9 0.9
1 -8 6 2.8 1.6
-1 -8 -6 6.3 1.6
1 8 6 6.1 2
1 8 6 6.1 1.6
-1 8 -6 5.3 1.5
2 -8 6 58.89 4.2
2 -8 6 54.99 2.5
-2 8 -6 50.29 3.3
1 -9 -6 51.89 3.7
1 -9 -6 54.69 2.3
-1 9 6 55.89 3.7
-1 9 6 52.09 3.1
0 -9 -6 34.3 2.9
0 -9 -6 30.3 1.7
0 9 6 24.8 3
0 9 6 30.3 2.7
1 -9 6 21.4 1.7
1 -9 6 19.3 3.1
-1 9 -6 19.5 2.5
3 0 -7 686.33 14.6
-3 0 7 656.43 14.5
-3 0 7 691.53 15.7
3 0 -7 644.64 13.7
-2 0 7 37.9 2.4
-2 0 7 35.3 1.7
2 0 -7 37.4 1.3
2 0 -7 35.3 1.9
-1 0 7 1.7 0.7
1 0 -7 1.7 0.4
-1 0 7 1.4 1
1 0 -7 2.5 0.7
0 0 -7 99.89 2.7
0 0 7 102.09 3.4
0 0 -7 101.39 3
0 0 7 112.49 4.4
-1 0 -7 0.7 0.5
-1 0 -7 0.8 0.4
1 0 7 -0.4 0.8
1 0 7 1.2 1.3
2 0 7 123.89 3.9
-2 0 -7 122.39 3.4
-2 0 -7 123.89 3.2
2 0 7 129.39 5.5
-3 0 -7 468.45 10
-3 0 -7 481.15 10
3 0 7 461.75 10.9
3 0 7 446.66 12.9
4 0 7 32.6 3.1
-4 0 -7 30.9 1.5
-4 0 -7 30.3 1.6
4 0 7 30.8 4
3 -1 -7 237.78 6.1
3 -1 -7 235.58 5.1
-3 1 7 228.18 6
-3 1 7 233.98 5.9
2 -1 -7 352.16 7.3
2 -1 -7 353.16 8.2
-2 -1 7 369.26 9
-2 -1 7 348.77 8
2 1 -7 350.06 7.3
-2 1 7 347.97 8.5
2 1 -7 359.56 7.7
-2 1 7 333.27 8.2
-1 -1 7 344.27 9.1
1 -1 -7 352.06 7.3
1 -1 -7 356.56 8.1
-1 -1 7 341.07 8
1 1 -7 354.26 7.6
1 1 -7 334.67 7.3
-1 1 7 354.56 8.8
-1 1 7 338.47 8.1
0 -1 -7 211.58 4.7
0 -1 7 205.68 5.3
0 -1 7 205.88 6.7
0 -1 -7 211.98 5.3
0 1 7 210.28 5.6
0 1 -7 211.78 4.7
0 1 -7 215.38 5
0 1 7 215.28 6.5
1 -1 7 65.09 2.6
-1 -1 -7 67.49 2.4
1 -1 7 69.79 4.1
-1 -1 -7 63.19 2
-1 1 -7 63.69 2.1
-1 1 -7 63.29 2.1
1 1 7 65.19 3.6
1 1 7 67.59 2.9
-2 -1 -7 44.3 1.9
-2 -1 -7 43.1 1.6
2 -1 7 42.6 2.2
2 -1 7 44.5 3.5
-2 1 -7 42.6 1.7
2 1 7 43.8 2.5
-2 1 -7 43.8 1.7
2 1 7 46.4 3.7
-3 -1 -7 95.79 2.7
3 -1 7 80.69 5.5
3 -1 7 95.79 3.8
-3 -1 -7 93.59 2.9
3 1 7 96.09 6.1
-3 1 -7 96.99 2.9
-3 1 -7 96.69 3
3 1 7 91.69 3.9
-4 -1 -7 41.2 1.8
-4 -1 -7 42.5 1.7
4 -1 7 42.6 3.4
4 -1 7 40.5 4.6
4 1 7 56.79 5.6
-4 1 -7 39.9 1.9
-4 1 -7 43.7 2
4 1 7 36.6 3.3
5 -1 7 19 2.6
5 -1 7 22.1 4.2
-5 1 -7 20.8 1.8
-5 1 -7 25.4 1.7
3 -2 -7 169.98 5.3
3 -2 -7 166.58 4
-3 2 7 169.88 4.6
-3 2 7 174.28 4.9
-2 -2 7 136.29 3.9
2 -2 -7 139.49 4.4
-2 -2 7 137.19 4.8
2 -2 -7 139.99 3.3
2 2 -7 134.09 3.2
-2 2 7 140.09 4
2 2 -7 141.19 3.4
-2 2 7 138.89 4.3
-1 -2 7 59.69 2.2
1 -2 -7 54.69 1.7
-1 -2 7 55.59 3.3
1 -2 -7 52.69 2.4
-1 2 7 50.09 2.5
1 2 -7 54.99 1.8
1 2 -7 54.19 1.7
-1 2 7 54.59 2.4
0 -2 7 258.67 8
0 -2 7 271.27 6.5
0 -2 -7 272.47 6.7
0 -2 -7 274.47 5.9
0 2 7 263.87 7.4
0 2 -7 269.77 6
0 2 7 260.97 6.7
0 2 -7 272.67 6
1 -2 7 202.18 5.2
-1 -2 -7 190.18 5.1
1 -2 7 193.78 6.7
-1 -2 -7 199.08 4.5
-1 2 -7 199.98 4.7
1 2 7 197.38 5.4
-1 2 -7 202.18 4.8
1 2 7 192.88 6.5
-2 -2 -7 245.78 5.6
-2 -2 -7 245.68 6.1
2 -2 7 253.07 6.3
2 -2 7 239.18 7.9
-2 2 -7 248.38 5.8
2 2 7 252.77 6.7
2 2 7 254.27 8
-2 2 -7 241.58 5.9
-3 -2 -7 270.87 6.4
-3 -2 -7 270.47 6.1
3 -2 7 265.57 9.2
3 -2 7 272.47 7
-3 2 -7 261.67 6.5
-3 2 -7 280.67 6.4
3 2 7 269.37 7.5
3 2 7 247.18 9.3
4 -2 7 8.8 3
4 -2 7 4.4 1.9
-4 2 -7 5.1 1
-4 2 -7 6.9 1
5 -2 7 22.8 3.7
5 -2 7 24.7 2.7
-5 2 -7 25.9 1.6
-5 2 -7 26.3 1.7
4 -3 -7 143.19 5.1
4 -3 -7 141.69 3.6
-4 3 7 140.59 4
-4 3 7 139.79 4.8
3 -3 -7 135.99 4.8
3 -3 -7 134.99 3.5
-3 3 7 143.49 4.1
-3 3 7 140.49 4.6
2 -3 -7 66.89 2.1
2 -3 -7 71.09 3.1
-2 3 7 63.49 2.5
-2 3 7 68.09 3
1 -3 -7 532.65 10.9
-1 -3 7 521.35 11.4
-1 -3 7 527.75 12.8
1 -3 -7 540.25 12.2
-1 3 7 535.25 11.7
1 3 -7 547.35 10.9
-1 3 7 509.15 12
1 3 -7 531.35 10.9
0 -3 -7 17.4 1.4
0 -3 7 20.6 2.3
0 -3 7 15 1.3
0 -3 -7 16.6 0.9
0 3 -7 16.9 1.1
0 3 7 15.2 1.5
0 3 -7 15.1 1.1
0 3 7 14.3 1.5
1 -3 7 71.79 2.5
1 -3 7 70.49 3.9
-1 -3 -7 69.19 2.8
-1 -3 -7 69.89 2.1
-1 3 -7 69.59 2.2
-1 3 -7 68.89 2.4
1 3 7 67.79 2.8
1 3 7 77.89 3.7
2 -3 7 219.48 7.8
2 -3 7 230.88 5.9
-2 -3 -7 228.38 5.2
-2 -3 -7 231.68 5.9
2 3 7 232.28 6.4
2 3 7 215.88 7.7
-2 3 -7 229.68 5.7
-2 3 -7 230.88 5.4
3 -3 7 80.39 5.3
3 -3 7 83.19 3.3
-3 -3 -7 82.49 2.4
-3 -3 -7 82.19 2.8
3 3 7 82.19 6.1
-3 3 -7 83.89 3.1
3 3 7 85.79 3.9
-3 3 -7 82.69 2.7
4 -3 7 22.3 3.8
4 -3 7 30.3 2.8
-4 3 -7 25.1 1.6
-4 3 -7 28.8 2
5 -3 7 57.49 4
5 -3 7 62.09 6
-5 3 -7 60.39 2.4
-5 3 -7 60.69 2.7
4 -4 -7 64.19 3.9
4 -4 -7 70.99 2.4
-4 4 7 66.09 3.5
-4 4 7 65.79 2.7
3 -4 -7 24.1 1.5
3 -4 -7 27.2 2.8
-3 4 7 26.3 1.8
-3 4 7 24.4 2.3
2 -4 -7 41.3 1.6
2 -4 -7 43.2 2.6
-2 4 7 44.5 2.1
-2 4 7 40.9 2.4
-1 -4 7 104.19 3.2
1 -4 -7 110.19 2.9
1 -4 -7 106.09 4
-1 -4 7 107.79 4.3
-1 4 7 109.39 3.5
1 4 -7 110.29 3
1 4 -7 108.79 2.9
-1 4 7 103.99 3.8
0 -4 7 104.09 4.5
0 -4 -7 108.89 2.9
0 -4 7 105.89 3.2
0 -4 -7 108.89 3.9
0 4 -7 106.39 3.1
0 4 7 104.39 3.9
0 4 7 111.29 3.7
0 4 -7 105.69 2.9
-1 -4 -7 480.85 11.1
1 -4 7 473.45 12.3
1 -4 7 476.25 10.4
-1 -4 -7 475.55 9.9
1 4 7 461.95 11.1
-1 4 -7 474.55 10.5
-1 4 -7 478.05 10.1
1 4 7 466.45 11.8
2 -4 7 192.88 5
-2 -4 -7 183.58 5.3
-2 -4 -7 186.18 4.5
2 -4 7 190.28 6.8
-2 4 -7 186.58 4.7
-2 4 -7 186.58 5.2
2 4 7 180.28 7.1
2 4 7 187.78 5.7
3 -4 7 56.89 4.5
-3 -4 -7 60.59 2.5
3 -4 7 63.09 2.7
-3 -4 -7 57.39 1.9
3 4 7 54.79 3.5
3 4 7 61.79 5.3
-3 4 -7 58.69 2.2
-3 4 -7 57.69 2.7
4 -4 7 42.3 2.9
4 -4 7 45.5 4.9
-4 4 -7 44.2 2.1
-4 4 -7 47.2 2.5
5 -4 7 115.79 7.2
5 -4 7 119.99 4.9
-5 4 -7 119.39 4.2
-5 4 -7 114.69 3.8
4 -5 -7 152.58 4.1
4 -5 -7 146.89 6
-4 5 7 150.28 5.6
-4 5 7 156.68 4.7
3 -5 -7 33.3 1.7
3 -5 -7 26.1 3
-3 5 7 32.6 1.9
-3 5 7 32.3 2.7
2 -5 -7 31.9 1.6
2 -5 -7 36.9 2.9
-2 5 7 34.9 2.7
-2 5 7 30.4 1.9
-1 -5 7 120.59 4
1 -5 -7 122.29 4.5
-1 -5 7 110.99 5.5
1 -5 -7 121.09 3.2
1 5 -7 116.89 3.9
-1 5 7 116.99 4.4
1 5 -7 110.39 4.1
-1 5 7 121.19 3.9
0 -5 7 129.49 5.1
0 -5 7 131.39 3.7
0 -5 -7 130.59 4.8
0 -5 -7 135.19 3.5
0 5 7 134.99 4.3
0 5 7 134.89 4.8
0 5 -7 124.69 3.8
0 5 -7 133.19 3.5
-1 -5 -7 24.6 1.3
1 -5 7 19.8 1.6
1 -5 7 20.5 2.7
-1 -5 -7 17.3 2
1 5 7 24.8 2.5
-1 5 -7 20.2 1.3
-1 5 -7 19.2 1.8
1 5 7 29.1 2.8
-2 -5 -7 104.99 3.8
2 -5 7 101.69 4.8
2 -5 7 103.99 3.4
-2 -5 -7 104.09 2.9
2 5 7 103.99 4.5
2 5 7 101.29 5.3
-2 5 -7 104.09 3.7
-2 5 -7 102.49 3.1
3 -5 7 118.29 3.9
3 -5 7 112.59 6
-3 5 -7 120.19 4.3
-3 5 -7 117.49 3.6
4 -5 7 24.6 3.9
4 -5 7 29.1 2.5
-4 5 -7 25.7 1.8
-4 5 -7 29.1 2.2
5 -6 -7 52.89 2.3
5 -6 -7 52.19 4.4
-5 6 7 48.5 3.4
-5 6 7 48.7 2.7
4 -6 -7 41.1 2
4 -6 -7 36.5 3.7
-4 6 7 42.9 3
-4 6 7 39.9 2.3
3 -6 -7 42.2 2.1
3 -6 -7 43.1 3.7
-3 6 7 41.2 2.3
-3 6 7 41.7 3.4
2 -6 -7 24.8 1.5
2 -6 -7 22.9 2.5
-2 6 7 20.6 2.3
-2 6 7 20.7 1.7
1 -6 -7 125.89 3.4
1 -6 -7 124.89 4.7
-1 6 7 122.59 4.8
-1 6 7 119.39 4
0 -6 7 76.69 2.6
0 -6 7 71.29 4.1
0 -6 -7 74.59 3.7
0 -6 -7 78.09 2.5
0 6 -7 75.69 2.6
0 6 -7 77.19 3
0 6 7 75.49 3.2
0 6 7 78.69 3.6
-1 -6 -7 297.47 7.9
-1 -6 -7 291.07 6.6
1 -6 7 288.27 7
1 -6 7 281.27 9
1 6 7 291.27 8.1
-1 6 -7 293.37 6.8
-1 6 -7 286.77 7.4
1 6 7 287.97 8.1
2 -6 7 77.29 5
-2 -6 -7 85.59 2.7
2 -6 7 84.79 3.1
-2 -6 -7 80.29 3.6
-2 6 -7 85.19 2.9
2 6 7 84.79 4.5
-2 6 -7 89.19 3.6
2 6 7 87.19 5.3
3 -6 7 16 1.8
3 -6 7 15.4 3.1
-3 6 -7 18.5 2.1
-3 6 -7 13.7 1.5
4 -6 7 87.29 3.7
4 -6 7 77.89 5.9
-4 6 -7 82.49 3.1
-4 6 -7 81.79 3.9
4 -7 -7 61.79 4.5
4 -7 -7 64.89 2.5
-4 7 7 64.79 3.1
-4 7 7 55.89 3.6
3 -7 -7 2.9 1.9
3 -7 -7 4.9 0.9
-3 7 7 4.9 1.1
-3 7 7 3 1.6
2 -7 -7 29.4 1.7
2 -7 -7 30.5 3
-2 7 7 30.8 3.1
-2 7 7 27.1 2
1 -7 -7 67.19 3.8
1 -7 -7 75.19 2.6
-1 7 7 74.59 4
-1 7 7 69.99 3.1
0 -7 7 268.27 8.2
0 -7 7 248.28 6.3
0 -7 -7 243.98 7.8
0 -7 -7 250.47 6.1
0 7 -7 252.07 6.1
0 7 7 255.27 7.7
0 7 -7 254.37 6.8
0 7 7 253.37 7.1
1 -7 7 6.3 1.9
1 -7 7 7.8 1.2
-1 -7 -7 10.7 1.1
-1 -7 -7 8.8 1.5
-1 7 -7 7.9 1.5
1 7 7 9.1 2.1
1 7 7 7.9 1.8
-1 7 -7 9 1.2
2 -7 7 7.4 2.3
2 -7 7 6.6 1.1
-2 7 -7 7.8 1.1
-2 7 -7 5.3 1.3
3 -7 7 25.1 2.2
3 -7 7 24.3 3.4
-3 7 -7 27.2 2.6
-3 7 -7 26.7 1.9
3 -8 -7 29.8 3.8
3 -8 -7 36.6 2
-3 8 7 32.7 3.1
-3 8 7 32.3 2.4
2 -8 -7 13.7 1.4
2 -8 -7 11.6 2.2
-2 8 7 15.3 1.8
-2 8 7 13.2 2.5
1 -8 -7 71.99 2.6
1 -8 -7 72.29 3.9
-1 8 7 64.39 4.2
-1 8 7 70.09 3.2
0 -8 -7 -0.1 1.4
0 -8 -7 1.6 0.7
0 8 7 1.6 1.3
0 8 7 2.6 1.7
1 -8 7 344.67 10.4
1 -8 7 352.16 8.3
-1 -8 -7 341.77 7.8
-1 -8 -7 330.77 9.5
1 8 7 332.47 9.1
-1 8 -7 342.27 8.9
1 8 7 344.07 9.7
2 -8 7 16.7 3
2 -8 7 23.5 1.9
-2 8 -7 21.9 2.5
2 0 -8 27.7 2
2 0 -8 22.9 1.1
-2 0 8 25.5 1.6
-2 0 8 21.4 2.2
1 0 -8 7.6 0.7
-1 0 8 7.2 1.5
1 0 -8 6.7 0.9
-1 0 8 5.8 1
0 0 -8 1044.1 20.6
0 0 8 1065.49 23.2
0 0 8 1006.8 21.6
0 0 -8 1037.7 21.1
-1 0 -8 560.74 12.1
1 0 8 560.54 14.6
-1 0 -8 570.94 11.7
1 0 8 571.54 12.7
-2 0 -8 44.5 1.9
2 0 8 41.5 2.5
2 0 8 40.9 4.1
-2 0 -8 41.9 1.7
-3 0 -8 0.5 0.4
3 0 8 0 1.3
3 0 8 -0.9 2.4
-3 0 -8 -0.4 0.5
-4 0 -8 136.09 3.8
4 0 8 130.79 5.4
-4 0 -8 134.09 3.9
4 0 8 149.09 8.3
3 -1 -8 53.19 1.8
3 -1 -8 59.29 3.1
-3 1 8 50.89 3.2
-3 1 8 59.19 2.7
-2 -1 8 158.08 5.4
2 -1 -8 158.78 3.7
2 -1 -8 159.48 4.7
-2 -1 8 155.98 4.4
-2 1 8 153.88 5.2
-2 1 8 156.78 4.6
2 1 -8 155.28 4.2
2 1 -8 159.58 3.7
-1 -1 8 45.1 2.2
1 -1 -8 40.6 2.1
1 -1 -8 42.2 1.5
-1 -1 8 38.3 3
-1 1 8 40.9 2.7
1 1 -8 41 1.8
1 1 -8 43.6 1.5
-1 1 8 40.2 2.1
0 -1 -8 120.79 3.6
0 -1 -8 115.39 3
0 -1 8 113.99 5.1
0 -1 8 114.39 3.7
0 1 -8 116.29 3
0 1 -8 118.49 3.2
0 1 8 115.09 4.9
0 1 8 117.29 3.9
1 -1 8 337.27 10.2
1 -1 8 345.47 8.4
-1 -1 -8 343.57 7.6
-1 -1 -8 352.76 8.2
-1 1 -8 356.76 7.8
-1 1 -8 362.36 7.7
1 1 8 379.06 10.2
1 1 8 330.27 8.6
2 -1 8 57.99 2.9
-2 -1 -8 60.79 2.1
2 -1 8 63.89 4.4
-2 -1 -8 59.19 2.4
2 1 8 61.99 3.3
-2 1 -8 61.39 2.1
2 1 8 62.39 4.9
-2 1 -8 59.09 2.2
3 -1 8 25.3 3.7
3 -1 8 27.4 2.7
-3 -1 -8 25.1 1.5
-3 -1 -8 25.7 1.5
-3 1 -8 26 1.5
-3 1 -8 26.3 1.5
3 1 8 28.6 4
3 1 8 26.8 3.2
-4 -1 -8 19 1.4
4 -1 8 20.3 2.6
4 -1 8 21.5 4.5
-4 -1 -8 20.6 1.4
4 1 8 15.1 2.7
-4 1 -8 20.3 1.5
-4 1 -8 22 1.5
4 1 8 30.4 4.6
5 -1 8 22.3 2.9
5 -1 8 30.7 4.2
-5 1 -8 25.8 1.7
-5 1 -8 30.9 1.7
3 -2 -8 108.69 3
3 -2 -8 109.59 4.3
-3 2 8 115.09 4.1
-3 2 8 115.49 3.7
-2 -2 8 45.7 3
2 -2 -8 45 1.6
-2 -2 8 44.9 2.1
2 -2 -8 47.4 2.5
-2 2 8 40 2.3
2 2 -8 44.9 1.5
-2 2 8 43.9 2.4
2 2 -8 45.6 1.9
-1 -2 8 98.99 4.5
1 -2 -8 101.79 3.6
-1 -2 8 103.89 3.4
1 -2 -8 102.69 2.7
1 2 -8 107.39 2.9
1 2 -8 102.49 2.7
-1 2 8 108.69 4.2
-1 2 8 101.59 3.6
0 -2 8 330.37 9.7
0 -2 8 343.17 8.2
0 -2 -8 344.37 8.2
0 -2 -8 346.67 7.4
0 2 -8 342.77 7.5
0 2 8 343.77 9.5
0 2 -8 343.07 7.4
0 2 8 331.67 8.4
1 -2 8 487.95 10.9
-1 -2 -8 496.45 10.1
1 -2 8 468.65 12.8
-1 -2 -8 480.45 10.8
1 2 8 482.45 11.2
-1 2 -8 488.25 10.3
-1 2 -8 483.65 10.3
1 2 8 450.55 12.6
2 -2 8 26.6 3.3
-2 -2 -8 33.7 1.8
-2 -2 -8 32.3 1.4
2 -2 8 34.1 2.2
2 2 8 30.7 2.6
-2 2 -8 33.6 1.6
-2 2 -8 35.7 1.7
2 2 8 38.4 4.2
-3 -2 -8 161.78 4.4
3 -2 8 158.68 5.2
3 -2 8 166.18 7.6
-3 -2 -8 165.68 4.1
3 2 8 149.09 7.8
3 2 8 165.98 5.8
-3 2 -8 162.98 4.4
-3 2 -8 160.28 4.3
4 -2 8 72.69 4
4 -2 8 63.19 6.1
-4 2 -8 68.69 2.7
-4 2 -8 70.09 2.6
5 -2 8 45.3 5.9
5 -2 8 44.8 4.1
-5 2 -8 46 2.3
-5 2 -8 43.6 2.1
4 -3 -8 39.1 1.9
4 -3 -8 38.2 3.5
-4 3 8 39.9 2.7
-4 3 8 37.1 2.2
3 -3 -8 31.3 3.3
3 -3 -8 28.3 1.5
-3 3 8 29.1 2
-3 3 8 34.4 2.5
2 -3 -8 28.7 2.5
2 -3 -8 27.7 1.4
-2 3 8 33.3 2.2
-2 3 8 24.9 2.1
-1 -3 8 120.99 5
1 -3 -8 129.89 4.2
1 -3 -8 127.69 3.3
-1 -3 8 132.09 3.9
-1 3 8 130.39 4.3
1 3 -8 129.09 3.4
1 3 -8 130.69 3.3
-1 3 8 120.99 4.4
0 -3 -8 69.29 2.1
0 -3 -8 69.59 3
0 -3 8 67.19 2.7
0 -3 8 66.29 3.8
0 3 8 65.99 3.6
0 3 8 66.89 2.9
0 3 -8 66.99 2.2
0 3 -8 70.49 2.3
1 -3 8 36.9 2.2
-1 -3 -8 40.6 1.7
-1 -3 -8 39.9 2.3
1 -3 8 38.5 3.6
1 3 8 39.6 2.4
-1 3 -8 40.8 1.7
-1 3 -8 41.1 1.9
1 3 8 35.5 3.4
-2 -3 -8 60.09 2.1
-2 -3 -8 62.89 2.8
2 -3 8 62.39 3.1
2 -3 8 80.19 5.1
-2 3 -8 65.19 2.7
-2 3 -8 59.49 2.3
2 3 8 60.69 5.6
2 3 8 63.99 3.5
3 -3 8 43.9 2.9
-3 -3 -8 44.1 2.2
-3 -3 -8 44.6 1.8
3 -3 8 38.9 4.9
3 3 8 47.2 5.2
-3 3 -8 41.6 1.9
-3 3 -8 42.3 2.2
3 3 8 44.3 3.5
4 -3 8 47.5 3.7
4 -3 8 54.39 5.5
-4 3 -8 52.79 2.6
-4 3 -8 57.39 2.3
4 -4 -8 233.98 7.7
4 -4 -8 252.67 5.9
-4 4 8 246.38 6.6
-4 4 8 249.08 7.4
3 -4 -8 60.29 3.6
3 -4 -8 58.79 2.2
-3 4 8 60.49 3.3
-3 4 8 61.19 2.7
2 -4 -8 123.89 3.4
2 -4 -8 126.99 5
-2 4 8 119.49 4.5
-2 4 8 129.69 4.2
-1 -4 8 13.5 2.1
-1 -4 8 12.7 1.4
1 -4 -8 12.6 1
1 -4 -8 11.4 1.7
1 4 -8 15.6 1.4
-1 4 8 10 1.7
1 4 -8 10.9 1.1
-1 4 8 12.9 1.6
0 -4 -8 140.49 3.6
0 -4 -8 142.79 4.7
0 -4 8 127.19 5.7
0 -4 8 142.79 4.3
0 4 8 139.49 4.8
0 4 8 143.89 5.1
0 4 -8 143.89 3.9
0 4 -8 140.49 3.7
1 -4 8 53.39 2.6
-1 -4 -8 59.69 2.1
1 -4 8 54.89 4.3
-1 -4 -8 61.79 3.1
1 4 8 58.19 3.2
-1 4 -8 59.09 2.5
-1 4 -8 57.89 2.1
1 4 8 51.39 4.1
2 -4 8 16.4 1.7
-2 -4 -8 15.6 1.7
-2 -4 -8 15.7 1.1
2 -4 8 13.9 2.5
-2 4 -8 16.8 1.6
2 4 8 14.5 3.1
-2 4 -8 16 1.2
2 4 8 16.9 2.1
3 -4 8 137.69 4.7
3 -4 8 145.09 7
-3 -4 -8 145.59 3.7
-3 -4 -8 143.29 4.4
-3 4 -8 141.99 4.1
3 4 8 143.69 5.7
-3 4 -8 146.29 4.6
3 4 8 141.99 7.7
4 -4 8 26.9 3.8
4 -4 8 29.2 2.9
-4 4 -8 26.9 1.7
-4 4 -8 26.8 2
4 -5 -8 14.8 2.4
4 -5 -8 13.3 1.6
-4 5 8 15.5 2.3
-4 5 8 17.1 1.5
3 -5 -8 0.1 1.6
3 -5 -8 0.8 0.8
-3 5 8 0.6 1.4
-3 5 8 0.1 0.8
2 -5 -8 192.58 6.3
2 -5 -8 198.28 4.9
-2 5 8 186.48 5.5
-2 5 8 191.08 6.2
1 -5 -8 109.29 4.5
1 -5 -8 110.89 3.1
-1 5 8 105.49 4.4
-1 5 8 109.99 4
0 -5 8 73.89 2.8
0 -5 -8 77.69 2.4
0 -5 8 81.29 4.1
0 -5 -8 74.79 3.4
0 5 -8 72.89 2.5
0 5 8 74.89 3.5
0 5 8 76.89 3.4
0 5 -8 75.39 2.8
-1 -5 -8 6.3 1.3
1 -5 8 8.3 1.2
-1 -5 -8 7 0.8
1 -5 8 8.5 1.9
-1 5 -8 6.9 1
-1 5 -8 7.9 1.2
1 5 8 8.6 2.1
1 5 8 7.3 1.7
2 -5 8 27.7 3.3
-2 -5 -8 24.2 1.4
2 -5 8 23.7 1.9
-2 -5 -8 23.9 2.1
-2 5 -8 25.2 1.6
2 5 8 25.5 3.7
-2 5 -8 24 1.9
3 -5 8 52.99 4.6
3 -5 8 50.69 2.8
-3 5 -8 53.89 2.7
-3 5 -8 52.69 2.3
4 -5 8 61.89 3.6
4 -5 8 49.99 5.7
-4 5 -8 61.19 2.6
-4 5 -8 62.89 3
4 -6 -8 35.7 2.1
4 -6 -8 32.4 3.8
-4 6 8 33.8 3.1
-4 6 8 34.9 2.2
3 -6 -8 156.98 4.3
3 -6 -8 151.78 6
-3 6 8 159.48 4.9
-3 6 8 159.08 5.9
2 -6 -8 154.28 5.9
2 -6 -8 167.18 4.4
-2 6 8 153.68 5
-2 6 8 163.98 5.9
1 -6 -8 21.2 2.7
1 -6 -8 26.3 1.6
-1 6 8 18.3 2.3
-1 6 8 22.3 2.1
0 -6 8 22.8 1.8
0 -6 -8 25.8 1.5
0 -6 -8 23.1 2.5
0 -6 8 29.1 2.9
0 6 -8 25.8 1.7
0 6 -8 24.9 1.9
0 6 8 27.7 2.4
0 6 8 27.1 2.6
1 -6 8 16.2 2.8
1 -6 8 13.1 1.6
-1 -6 -8 15 1.3
-1 -6 -8 14.8 1.9
-1 6 -8 14.7 1.5
-1 6 -8 15.6 1.7
1 6 8 14.4 2.4
1 6 8 16.9 2.7
-2 -6 -8 8.1 1.4
2 -6 8 9.8 1.3
2 -6 8 6.5 2.4
-2 -6 -8 11.8 1.1
-2 6 -8 10.4 1.5
2 6 8 11.5 2.1
2 6 8 9.6 3
-2 6 -8 8.8 1.2
3 -6 8 130.89 4.4
3 -6 8 115.69 6.7
-3 6 -8 128.89 4
-3 6 -8 130.69 4.6
3 -7 -8 137.59 4.1
3 -7 -8 128.99 5.8
-3 7 8 130.09 5.7
-3 7 8 132.79 4.5
2 -7 -8 82.29 2.9
2 -7 -8 80.79 4.3
-2 7 8 82.29 4.3
-2 7 8 78.69 3.5
1 -7 -8 3.6 0.8
1 -7 -8 0.3 1.5
-1 7 8 4.7 1.8
-1 7 8 3.5 1.2
0 -7 -8 104.99 4.8
0 -7 -8 113.49 3.3
0 7 8 105.49 4.9
0 7 8 103.29 4.3
1 -7 8 26 3.3
-1 -7 -8 25.5 1.6
-1 -7 -8 31.3 2.3
1 -7 8 25.1 1.8
-1 7 -8 22.3 1.8
1 7 8 28.3 3.4
-1 7 -8 25.7 2.2
1 7 8 29.3 3.1
2 -7 8 20.7 3.2
2 -7 8 19.7 1.7
-2 7 -8 17.8 1.8
-2 7 -8 20.1 2.1
2 -8 -8 114.29 3.7
2 -8 -8 111.59 5.3
-2 8 8 111.79 5.5
-2 8 8 109.99 4.5
1 -8 -8 35.7 3.4
1 -8 -8 47.9 2.1
-1 8 8 46.6 3.2
-1 8 8 35.2 3.6
0 -8 -8 8.1 1
0 -8 -8 8.7 2
0 8 8 7.8 2.2
0 8 8 8.3 1.9
-1 -8 -8 5.9 1.5
1 -8 8 7.6 1.2
1 -8 8 6 2
-1 -8 -8 5.8 0.9
-1 8 -8 7.8 1.7
1 8 8 9.2 2.4
1 8 8 4.7 2.1
2 0 -9 59.69 2
2 0 -9 60.39 2.8
-2 0 9 65.89 2.8
-2 0 9 58.39 3.9
1 0 -9 99.09 2.7
-1 0 9 101.99 3.6
1 0 -9 97.89 3.3
-1 0 9 97.19 4.7
0 0 9 12.7 1.6
0 0 9 10.8 2.1
0 0 -9 12.2 1.2
0 0 -9 13.2 1
-1 0 -9 142.29 4
1 0 9 137.79 6.8
1 0 9 141.59 5
-1 0 -9 140.79 3.8
2 0 9 94.29 4
-2 0 -9 93.79 2.9
-2 0 -9 92.09 3
2 0 9 95.09 6.2
-3 0 -9 4.3 0.8
-3 0 -9 3.6 0.9
3 0 9 6.1 1.9
3 0 9 1.5 2.8
-4 0 -9 26.1 1.6
4 0 9 19.7 2.5
4 0 9 27.3 4.5
-4 0 -9 25.8 1.5
3 -1 -9 26.1 2.6
3 -1 -9 23.8 1.3
-3 1 9 25.6 2.6
-3 1 9 31 2.2
-2 -1 9 102.69 5
-2 -1 9 103.19 3.8
2 -1 -9 107.19 3.9
2 -1 -9 106.99 2.9
2 1 -9 107.79 2.8
2 1 -9 108.19 3.4
-2 1 9 109.19 3.9
-2 1 9 108.39 4.8
1 -1 -9 19.9 1.1
-1 -1 9 16.3 2.6
1 -1 -9 18.8 1.7
-1 -1 9 16.5 1.7
1 1 -9 17.5 1.1
1 1 -9 15.8 1.5
-1 1 9 17.6 1.7
-1 1 9 18.8 2.5
0 -1 -9 5.1 0.7
0 -1 -9 5 1
0 -1 9 5.3 1.2
0 -1 9 3.3 1.7
0 1 9 4.5 1.6
0 1 -9 4.1 0.6
0 1 9 5.2 1.1
0 1 -9 3.9 0.7
-1 -1 -9 64.59 2.6
1 -1 9 70.19 5.1
1 -1 9 61.79 3
-1 -1 -9 66.89 2.2
-1 1 -9 66.09 2.2
1 1 9 62.79 3.4
-1 1 -9 65.49 2.4
1 1 9 65.99 4.7
2 -1 9 10.1 1.6
-2 -1 -9 11.9 1.1
-2 -1 -9 11 1.2
2 -1 9 18.9 3.1
-2 1 -9 10.1 1.2
2 1 9 10.6 1.8
-2 1 -9 10.9 1.1
2 1 9 10.2 3
-3 -1 -9 22.1 1.5
3 -1 9 18.8 2.3
-3 -1 -9 20.6 1.6
3 -1 9 20.3 4.1
3 1 9 20.4 4.1
-3 1 -9 21.6 1.5
3 1 9 20.8 2.8
-3 1 -9 25.2 1.6
4 -1 9 108.19 7.8
4 -1 9 120.79 5
-4 -1 -9 115.19 3.5
-4 -1 -9 115.59 3.6
-4 1 -9 113.69 3.5
4 1 9 115.59 5.6
4 1 9 113.19 7.5
-4 1 -9 111.09 3.6
3 -2 -9 104.29 4.1
3 -2 -9 109.79 3.1
-3 2 9 107.59 4.1
-3 2 9 102.09 4.2
2 -2 -9 68.39 3.4
2 -2 -9 65.99 2.1
-2 2 9 64.99 3.6
-2 2 9 64.59 3
1 -2 -9 0.4 0.6
-1 -2 9 -1.3 1.1
1 -2 -9 2.5 1.2
-1 -2 9 -1.9 1.7
-1 2 9 0.7 0.7
1 2 -9 1.7 0.5
1 2 -9 2.1 0.8
0 -2 9 5.4 2.1
0 -2 -9 8.8 1
0 -2 -9 8.5 1.3
0 -2 9 7.6 1.4
0 2 9 7.8 2.1
0 2 -9 8.8 1
0 2 -9 10.6 0.9
1 -2 9 111.19 5.6
-1 -2 -9 108.89 3.7
-1 -2 -9 117.59 3.2
1 -2 9 110.59 4.1
1 2 9 105.69 5.6
1 2 9 108.09 4.2
-1 2 -9 112.89 3.4
-1 2 -9 114.09 3.2
-2 -2 -9 122.19 3.9
-2 -2 -9 120.09 3.4
2 -2 9 127.59 6.3
2 -2 9 127.99 4.5
-2 2 -9 119.29 3.5
2 2 9 125.59 4.7
2 2 9 120.59 6.9
-2 2 -9 123.69 3.7
3 -2 9 57.49 6.1
-3 -2 -9 53.29 2.4
3 -2 9 52.69 3.4
-3 -2 -9 53.29 2.1
3 2 9 56.19 6.7
3 2 9 56.69 4
-3 2 -9 49.2 2.2
-3 2 -9 50.09 2.4
4 -2 9 53.99 4
-4 -2 -9 48.6 2.5
4 -2 9 47 5.4
-4 -2 -9 46.5 2.6
4 2 9 42.4 6.9
4 2 9 49.7 4.6
-4 2 -9 48.2 2.3
-4 2 -9 47.6 2.2
3 -3 -9 8.4 1.9
3 -3 -9 5.5 0.9
-3 3 9 9.5 1.5
2 -3 -9 11.1 1.1
2 -3 -9 11.8 1.8
-2 3 9 15.7 2
-2 3 9 11.1 1.8
1 -3 -9 99.69 2.8
-1 -3 9 96.59 3.5
1 -3 -9 97.29 3.9
-1 -3 9 95.19 4.8
-1 3 9 99.99 3.8
-1 3 9 87.09 4.4
1 3 -9 97.79 3
1 3 -9 98.39 2.8
0 -3 9 44.5 3.7
0 -3 -9 49.7 2.7
0 -3 9 47.4 2.6
0 -3 -9 44.4 1.8
0 3 9 47.4 3.6
0 3 -9 45.9 2
0 3 9 48.8 2.7
0 3 -9 45.4 1.9
1 -3 9 93.49 5.4
-1 -3 -9 101.39 2.9
1 -3 9 104.49 3.8
-1 -3 -9 106.39 3.7
-1 3 -9 100.39 3.1
1 3 9 94.69 4.1
1 3 9 96.29 5.6
-1 3 -9 101.49 3.2
2 -3 9 17.5 2
-2 -3 -9 17.7 1.7
2 -3 9 17.1 3.1
-2 -3 -9 20.3 1.3
2 3 9 21.2 2.4
2 3 9 21 3.6
-2 3 -9 20.6 1.5
-2 3 -9 18.3 1.4
3 -3 9 8.5 1.7
-3 -3 -9 10.9 1.4
3 -3 9 8.9 3.1
-3 -3 -9 8.8 1
3 3 9 11 2.3
-3 3 -9 8.7 1.1
-3 3 -9 8.2 1
3 3 9 6.5 3.9
4 -3 9 18.7 2.4
4 -3 9 18 3.8
-4 3 -9 20.7 1.6
-4 3 -9 20.3 1.7
4 -4 -9 33.9 1.9
4 -4 -9 30 3.2
-4 4 9 30.1 2.7
-4 4 9 30.1 2.2
3 -4 -9 68.29 4.5
3 -4 -9 69.19 2.5
-3 4 9 63.09 3.6
-3 4 9 62.49 3.1
2 -4 -9 91.99 2.8
2 -4 -9 91.99 4.2
-2 4 9 86.89 3.6
-2 4 9 90.09 4
1 -4 -9 108.69 3.1
1 -4 -9 110.49 4.2
-1 -4 9 102.79 5
-1 -4 9 104.59 3.8
-1 4 9 111.59 4.3
1 4 -9 112.39 3.2
-1 4 9 109.39 4.4
1 4 -9 110.69 3.1
0 -4 -9 7.6 0.9
0 -4 9 5.5 2
0 -4 9 7.1 1.2
0 -4 -9 5.3 1.2
0 4 -9 6.6 1
0 4 9 7 1.4
0 4 9 7.2 1.8
0 4 -9 4.5 0.8
1 -4 9 62.49 4.4
-1 -4 -9 65.29 2.3
1 -4 9 66.69 3.1
-1 -4 -9 63.09 3
-1 4 -9 63.69 2.4
-1 4 -9 67.49 2.6
1 4 9 63.79 3.5
1 4 9 68.19 4.8
2 -4 9 58.79 3.2
-2 -4 -9 56.49 2.9
-2 -4 -9 59.49 2.1
2 -4 9 53.19 4.7
2 4 9 53.99 5.9
2 4 9 67.49 3.9
-2 4 -9 56.99 2.3
-2 4 -9 55.79 2.6
3 -4 9 12.5 2
-3 -4 -9 14 1.4
-3 -4 -9 16 1.1
3 -4 9 11.2 2.9
3 4 9 13.6 2.3
3 4 9 10.6 3.9
-3 4 -9 12.8 1.5
-3 4 -9 14.7 1.3
4 -4 9 133.49 7.4
4 -4 9 125.59 5.4
-4 4 -9 130.19 4.4
-4 4 -9 124.09 4
4 -5 -9 151.18 6.2
4 -5 -9 152.78 4.2
-4 5 9 149.39 5.8
-4 5 9 149.09 5
3 -5 -9 174.48 4.6
3 -5 -9 165.78 6.5
-3 5 9 174.98 6.1
-3 5 9 167.98 5.4
2 -5 -9 35.7 1.9
2 -5 -9 29.2 3.3
-2 5 9 29 2.4
-2 5 9 32.3 2.8
1 -5 -9 148.39 5.4
1 -5 -9 151.88 4.1
-1 5 9 146.59 5.1
-1 5 9 148.89 5.5
0 -5 -9 31.8 1.6
0 -5 9 29.8 3.1
0 -5 9 30.6 2.3
0 -5 -9 31.3 2.4
0 5 9 35.1 3.2
0 5 -9 29.4 1.9
0 5 9 33.2 2.7
0 5 -9 28.5 1.8
1 -5 9 45.6 2.6
-1 -5 -9 38.6 2.7
-1 -5 -9 43.7 1.9
1 -5 9 44 3.9
-1 5 -9 44.4 2.3
1 5 9 38.2 4.4
1 5 9 44.5 3.4
-1 5 -9 42 2
2 -5 9 54.79 4.4
-2 -5 -9 53.89 2.9
2 -5 9 51.59 2.8
-2 -5 -9 56.99 2.1
2 5 9 59.19 3.9
-2 5 -9 57.19 2.3
2 5 9 51.29 5.9
-2 5 -9 58.29 2.7
3 -5 9 9.2 1.7
3 -5 9 9 2.6
-3 5 -9 8.3 1.1
-3 5 -9 9.6 1.4
4 -6 -9 17 2.8
4 -6 -9 15.9 1.8
-4 6 9 13.1 2.5
-4 6 9 15.3 1.9
3 -6 -9 11 1.3
3 -6 -9 9 2.3
-3 6 9 12.1 2.1
-3 6 9 10.3 1.5
2 -6 -9 90.09 4.7
2 -6 -9 93.39 3.1
-2 6 9 91.29 4.6
-2 6 9 91.39 3.9
1 -6 -9 32.5 3
1 -6 -9 36.8 1.8
-1 6 9 33.8 2.8
-1 6 9 35.4 2.6
0 -6 -9 77.19 2.6
0 -6 -9 72.79 3.6
0 -6 9 78.19 3.3
0 -6 9 81.29 4.2
0 6 9 78.19 4.3
0 6 9 77.49 4
0 6 -9 74.09 2.8
0 6 -9 78.69 3.1
1 -6 9 49.5 2.6
-1 -6 -9 44.8 2
1 -6 9 49.6 3.8
-1 -6 -9 45.1 2.9
-1 6 -9 47.7 2.5
-1 6 -9 46.2 2.2
1 6 9 48.1 4.6
1 6 9 41.9 3.6
-2 -6 -9 29 2.4
2 -6 9 27.1 2.3
2 -6 9 23.8 3.3
-2 -6 -9 32.9 1.6
2 6 9 28.8 4.3
-2 6 -9 25.9 2.2
-2 6 -9 30.4 1.9
2 -7 -9 12 2.4
2 -7 -9 16 1.6
-2 7 9 12.3 2.2
-2 7 9 14.1 1.9
1 -7 -9 57.29 2.4
1 -7 -9 47.7 3.6
-1 7 9 55.99 3.4
-1 7 9 51.99 3.8
0 -7 -9 1.7 0.7
0 7 9 3.1 1.7
0 7 9 1.4 1.7
1 -7 9 108.49 4.1
-1 -7 -9 116.99 3.5
1 -7 9 101.29 5.7
-1 -7 -9 110.39 4.8
-1 7 -9 108.19 3.8
-1 7 -9 112.89 4.1
1 7 9 120.09 5.1
1 7 9 114.29 6.4
-2 0 10 65.99 3
-2 0 10 67.09 4.2
2 0 -10 69.09 3
2 0 -10 67.39 2.2
-1 0 10 85.89 3.7
1 0 -10 84.89 2.6
1 0 -10 85.69 3.3
-1 0 10 77.19 5.1
0 0 10 165.58 5.5
0 0 -10 169.28 4.8
0 0 10 162.28 7.6
0 0 -10 169.08 4.2
-1 0 -10 151.48 4.3
1 0 10 148.39 7.1
1 0 10 154.88 5.3
-1 0 -10 157.18 4.1
2 0 10 12.5 3.3
-2 0 -10 15.3 1.4
-2 0 -10 15.4 1.4
2 0 10 15.3 2.3
-3 0 -10 57.39 2.4
-3 0 -10 53.79 2.4
3 0 10 49.99 6.2
3 0 10 52.59 4
-4 0 -10 61.09 2.6
4 0 10 64.59 7.3
4 0 10 61.69 4.9
-4 0 -10 66.89 2.7
3 -1 -10 5.1 0.8
3 -1 -10 6 1.6
-3 1 10 9 1.4
-3 1 10 4.9 1.6
-2 -1 10 6.8 2
2 -1 -10 9 1.6
-2 -1 10 8.1 1.4
2 -1 -10 11.1 1.1
2 1 -10 7.6 1.3
-2 1 10 9.4 1.4
-2 1 10 7.3 1.9
2 1 -10 8.4 0.9
-1 -1 10 65.69 3.3
1 -1 -10 67.49 3.1
1 -1 -10 71.49 2.3
-1 -1 10 71.69 5.1
-1 1 10 76.59 5.1
-1 1 10 68.09 3.4
1 1 -10 71.19 2.3
1 1 -10 70.49 2.7
0 -1 -10 25.5 1.4
0 -1 10 24.2 3.6
0 -1 10 23.9 2.6
0 -1 -10 25.9 2
0 1 10 24.6 3.4
0 1 -10 26.1 1.5
0 1 10 25.7 2.5
0 1 -10 24.7 1.6
1 -1 10 62.39 3.1
1 -1 10 55.79 4.7
-1 -1 -10 58.19 2.1
-1 -1 -10 59.39 2.5
-1 1 -10 57.39 2.1
1 1 10 55.59 4.9
-1 1 -10 58.79 2.4
1 1 10 57.79 3.2
-2 -1 -10 25.7 1.7
2 -1 10 26.2 2.6
2 -1 10 21.2 3.6
-2 -1 -10 26.2 1.5
-2 1 -10 26.3 1.5
2 1 10 23.7 4.1
-2 1 -10 24 1.7
2 1 10 28.1 2.9
-3 -1 -10 45.3 2.3
3 -1 10 38.2 4.8
-3 -1 -10 49.5 2.1
3 -1 10 50.09 3.5
-3 1 -10 45.2 2.2
3 1 10 50.29 4
3 1 10 47.4 5.7
-3 1 -10 46.7 2.1
-4 -1 -10 33.7 2
4 -1 10 32.6 3.7
4 -1 10 26.7 5.2
-4 -1 -10 30.2 1.8
4 1 10 31 3.5
-4 1 -10 30.7 1.8
4 1 10 31.6 5.3
-4 1 -10 26.9 2
3 -2 -10 1.3 1.6
3 -2 -10 -0.5 0.8
-3 2 10 0.3 0.9
-3 2 10 -0.4 1.3
2 -2 -10 210.98 5.1
2 -2 -10 207.28 6.3
-2 2 10 212.48 6.2
-2 2 10 214.58 7.3
1 -2 -10 12.4 1.7
-1 -2 10 12.4 2.5
-1 -2 10 12.8 1.7
1 -2 -10 15.9 1.1
-1 2 10 16.6 2.5
1 2 -10 12.2 1.2
1 2 -10 14.2 1.5
-1 2 10 16.5 1.9
0 -2 -10 216.78 6
0 -2 10 214.78 8.1
0 -2 10 214.88 6.3
0 -2 -10 222.08 5.2
0 2 10 221.78 6.4
0 2 -10 214.08 5.4
0 2 -10 219.78 5.2
0 2 10 194.08 7.8
-1 -2 -10 40.7 2.3
1 -2 10 43.8 2.5
1 -2 10 35.5 4.1
-1 -2 -10 42.5 1.8
-1 2 -10 38.8 2
1 2 10 41.5 2.9
1 2 10 45.2 4.4
-1 2 -10 41.8 1.8
2 -2 10 22.9 2.5
-2 -2 -10 24.5 2
-2 -2 -10 22.7 1.5
2 -2 10 23.6 3.7
-2 2 -10 18.4 1.6
-2 2 -10 20.8 1.6
2 2 10 25.2 4.5
2 2 10 24.5 2.9
-3 -2 -10 5.5 0.8
3 -2 10 6.7 1.8
3 -2 10 7.7 3.2
-3 -2 -10 5.5 1
-3 2 -10 4.5 0.9
3 2 10 5.4 3.6
-3 2 -10 4.8 0.9
3 2 10 6.1 2
-4 -2 -10 41.9 2.1
4 -2 10 40.4 4.1
-4 -2 -10 36.5 2.3
4 -2 10 36.4 5.2
4 2 10 35.1 4.1
-4 2 -10 37.9 2.2
4 2 10 37.7 6.3
-4 2 -10 39.4 2.1
3 -3 -10 3.5 1.7
3 -3 -10 4.6 0.9
-3 3 10 5.6 1.5
-3 3 10 5.6 1.4
2 -3 -10 28.9 1.6
2 -3 -10 26.2 3
-2 3 10 25.3 2.9
-2 3 10 29.1 2.4
-1 -3 10 90.49 5
1 -3 -10 96.39 4
-1 -3 10 101.79 3.7
1 -3 -10 98.09 2.9
-1 3 10 100.49 4
-1 3 10 90.89 4.8
1 3 -10 97.69 2.9
1 3 -10 92.99 3.1
0 -3 -10 64.09 2.2
0 -3 -10 66.19 3.1
0 -3 10 63.29 3
0 -3 10 58.89 4.5
0 3 -10 62.29 2.4
0 3 10 63.49 3.2
0 3 -10 65.39 2.3
0 3 10 64.19 4.4
-1 -3 -10 68.29 3.1
-1 -3 -10 71.99 2.4
1 -3 10 62.99 4.8
1 -3 10 67.19 3.4
-1 3 -10 70.19 2.6
1 3 10 73.49 3.7
-1 3 -10 71.49 2.6
1 3 10 70.49 5.6
2 -3 10 2.2 1.2
-2 -3 -10 2 0.9
-2 -3 -10 1.6 0.7
2 -3 10 0.4 2.4
2 3 10 2.6 3
2 3 10 2.3 1.5
-2 3 -10 1.1 0.7
-2 3 -10 1.4 0.8
-3 -3 -10 16.9 1.3
3 -3 10 17 2.3
3 -3 10 16.4 4
-3 -3 -10 19.8 1.6
-3 3 -10 17.3 1.6
3 3 10 17 4.4
-3 3 -10 19.1 1.5
3 3 10 17.7 2.6
4 -4 -10 68.99 4.3
4 -4 -10 72.99 2.7
-4 4 10 67.99 3.9
-4 4 10 76.19 3.4
3 -4 -10 52.09 2.3
3 -4 -10 49.7 3.5
-3 4 10 54.09 3
-3 4 10 48.8 3.2
2 -4 -10 36.7 3
2 -4 -10 41 2
-2 4 10 38 3.1
-2 4 10 39.3 2.9
1 -4 -10 12.6 2
-1 -4 10 16.6 3.5
1 -4 -10 17.3 1.3
-1 -4 10 21.2 2.8
-1 4 10 17.3 2.1
1 4 -10 18.5 1.9
1 4 -10 18.1 2.1
-1 4 10 14.4 2.3
0 -4 10 243.78 7
0 -4 -10 243.58 7.2
0 -4 10 232.38 8.7
0 -4 -10 249.58 5.9
0 4 10 256.17 8.7
0 4 -10 251.57 6.1
0 4 10 262.67 7.5
0 4 -10 251.17 6.2
1 -4 10 37.6 4.3
-1 -4 -10 43.7 2.7
-1 -4 -10 43.9 1.9
1 -4 10 44.8 2.8
1 4 10 48.2 5.3
-1 4 -10 44.4 2.1
1 4 10 48.3 3.5
-1 4 -10 46.5 2.3
-2 -4 -10 56.99 2.8
2 -4 10 47.9 4.8
2 -4 10 53.29 3.1
-2 -4 -10 53.29 2.1
2 4 10 62.69 3.9
-2 4 -10 54.29 2.5
2 4 10 56.39 5.9
-2 4 -10 52.29 2.3
-3 -4 -10 121.49 3.5
3 -4 10 123.09 7
-3 -4 -10 121.69 4.3
3 -4 10 123.49 5
-3 4 -10 117.79 3.8
-3 4 -10 116.79 4
3 4 10 117.49 8.6
3 4 10 129.79 5.7
4 -5 -10 14.7 2.9
4 -5 -10 12.2 1.4
-4 5 10 12.7 2.4
-4 5 10 10.4 1.8
3 -5 -10 20.8 2.9
3 -5 -10 20.2 1.8
-3 5 10 19.7 2.5
-3 5 10 21.1 2.1
2 -5 -10 27 1.7
2 -5 -10 23.5 2.8
-2 5 10 27.8 2.4
-2 5 10 28.7 2.5
1 -5 -10 7.1 1.5
1 -5 -10 6.2 1
-1 5 10 5.4 1.7
-1 5 10 5.3 1.7
0 -5 -10 41.6 2.9
0 -5 10 39.5 3.5
0 -5 10 38.8 2.6
0 -5 -10 45.6 1.9
0 5 -10 41.2 2.1
0 5 10 47 3.2
0 5 -10 43.3 2.3
0 5 10 43.3 4.1
-1 -5 -10 224.08 5.5
1 -5 10 213.08 8.1
-1 -5 -10 221.18 6.7
1 -5 10 217.28 6.5
-1 5 -10 216.38 5.6
1 5 10 218.48 8.8
-1 5 -10 222.28 5.8
1 5 10 215.68 7.2
2 -5 10 50.89 4.5
-2 -5 -10 49.9 2.8
-2 -5 -10 52.09 2.1
2 -5 10 45.3 3.1
2 5 10 61.69 4.2
-2 5 -10 49.8 2.4
-2 5 -10 51.19 2.6
2 5 10 38.7 5
3 -6 -10 6.8 1.2
3 -6 -10 6.1 2.4
-3 6 10 7.3 1.9
-3 6 10 6.6 1.7
2 -6 -10 41.6 3.5
2 -6 -10 42.7 2.2
-2 6 10 42.4 2.8
-2 6 10 41.7 3.4
1 -6 -10 27.8 2.5
1 -6 -10 25.5 1.6
-1 6 10 35 2.8
-1 6 10 26.9 2.9
0 -6 10 155.38 6.3
0 -6 -10 153.18 5.8
0 -6 10 150.58 5.2
0 -6 -10 157.58 4.3
0 6 10 154.48 7
0 6 -10 151.78 4.4
0 6 10 153.28 6
0 6 -10 158.48 4.5
1 -6 10 53.29 3.3
-1 -6 -10 60.09 3.3
-1 -6 -10 57.99 2.4
1 -6 10 63.09 4.1
1 6 10 64.29 4.2
1 6 10 49.6 5.4
-1 6 -10 59.09 2.6
-1 6 -10 57.79 2.9
2 0 -11 12.8 1.4
-2 0 11 16.3 2
-2 0 11 11.5 2.5
2 0 -11 13.9 1.8
-1 0 11 5.6 1.5
-1 0 11 4.1 2.2
1 0 -11 5.7 1.2
1 0 -11 4.2 0.8
0 0 -11 1.5 0.9
0 0 11 0.1 1
0 0 -11 1.5 0.7
0 0 11 2.9 2.2
-1 0 -11 1.4 0.8
1 0 11 1.3 1.3
1 0 11 2.8 2.4
-1 0 -11 1.7 0.8
-2 0 -11 87.89 3.2
2 0 11 88.89 4.6
-2 0 -11 86.99 3
2 0 11 77.99 6.7
3 0 11 -0.7 2
-3 0 -11 0.2 0.7
3 0 11 0.1 3.6
-3 0 -11 0.8 0.8
2 -1 -11 17.1 1.4
2 -1 -11 15.1 1.9
-2 -1 11 14.4 2.7
-2 -1 11 18.8 2.1
2 1 -11 15.3 1.9
2 1 -11 19 1.5
-2 1 11 20.4 2.1
-2 1 11 16.1 2.8
1 -1 -11 112.99 3.3
-1 -1 11 111.59 4.3
1 -1 -11 107.79 4
-1 -1 11 108.99 6.1
-1 1 11 109.59 5.9
1 1 -11 105.19 3.6
1 1 -11 112.29 3.2
-1 1 11 114.59 4.4
0 -1 11 142.99 7.1
0 -1 -11 141.09 4.5
0 -1 11 149.79 5.3
0 -1 -11 146.59 3.9
0 1 11 147.39 5.3
0 1 -11 144.79 4
0 1 11 136.09 6.8
0 1 -11 142.59 4.3
1 -1 11 40.5 3.3
-1 -1 -11 45 1.9
-1 -1 -11 42.8 2.5
1 -1 11 37.7 4.8
-1 1 -11 50.19 2.3
-1 1 -11 45.1 2.3
1 1 11 44.5 3.1
1 1 11 45.8 5.3
-2 -1 -11 42.3 1.9
-2 -1 -11 41.8 2.2
2 -1 11 32.4 4.4
2 -1 11 41.5 3.1
-2 1 -11 38.8 2.1
2 1 11 40 5.1
2 1 11 38.9 3.5
-2 1 -11 43.6 2
3 -1 11 94.29 4.7
-3 -1 -11 91.29 3.1
3 -1 11 86.59 7.4
-3 -1 -11 94.29 3.4
3 1 11 95.39 7.9
-3 1 -11 90.29 3.1
3 1 11 91.99 5.2
-3 1 -11 90.59 3.3
3 -2 -11 33.2 1.8
3 -2 -11 35.2 3
-3 2 11 36.9 2.5
-3 2 11 32 3.4
2 -2 -11 12 1.9
2 -2 -11 13.1 1.4
-2 2 11 17.7 2.1
-2 2 11 15 2.7
1 -2 -11 8.3 1.6
-1 -2 11 6.9 2.5
1 -2 -11 10.4 1.1
-1 -2 11 9.4 1.7
1 2 -11 11.5 1.4
-1 2 11 8.7 2.4
1 2 -11 8.3 1.1
-1 2 11 8.4 1.6
0 -2 -11 44.1 1.9
0 -2 -11 43.9 2.6
0 -2 11 44.2 3.1
0 -2 11 48.6 4.5
0 2 -11 44 2.3
0 2 11 45.5 2.9
0 2 11 35.3 4.3
0 2 -11 43 2.1
-1 -2 -11 28.9 1.6
1 -2 11 30.1 2.6
-1 -2 -11 31.1 2.1
1 -2 11 28.9 4.1
1 2 11 30.8 2.9
1 2 11 30.8 4.2
-1 2 -11 29.2 1.8
-1 2 -11 30 1.7
-2 -2 -11 13.5 1.5
-2 -2 -11 12.6 1.2
2 -2 11 13 1.8
2 -2 11 19 3.7
-2 2 -11 11.9 1.4
-2 2 -11 13.7 1.3
2 2 11 15.6 4
2 2 11 11.4 2.2
-3 -2 -11 14.4 1.4
3 -2 11 16.4 2.4
-3 -2 -11 12.9 1.6
3 -2 11 14.9 4
-3 2 -11 15.5 1.6
3 2 11 13.7 2.6
3 2 11 14.2 4.6
-3 2 -11 17.6 1.5
3 -3 -11 21.5 1.7
3 -3 -11 23.4 3
-3 3 11 19.5 2.4
-3 3 11 21.6 2.9
2 -3 -11 31.7 1.8
2 -3 -11 29.6 2.9
-2 3 11 31.4 3.3
-2 3 11 32.6 2.6
-1 -3 11 22.2 3.3
1 -3 -11 18.2 1.3
1 -3 -11 18.6 2.2
-1 -3 11 15.8 2.1
1 3 -11 17.9 1.8
-1 3 11 20.8 2.4
-1 3 11 17.4 2.8
1 3 -11 19.2 1.6
0 -3 11 72.59 3.6
0 -3 -11 79.59 2.7
0 -3 -11 80.09 3.5
0 -3 11 80.39 5.3
0 3 11 87.79 5.8
0 3 -11 81.79 2.8
0 3 11 79.09 3.9
0 3 -11 76.89 2.9
1 -3 11 35 4.3
1 -3 11 36.6 2.5
-1 -3 -11 33.6 2.2
-1 -3 -11 32 1.7
-1 3 -11 35.1 1.9
1 3 11 31.2 4.3
-1 3 -11 32.9 1.8
1 3 11 31.8 3
2 -3 11 40.6 5
-2 -3 -11 33.3 1.8
2 -3 11 36 3
-2 -3 -11 39.2 2.3
-2 3 -11 35.9 2
2 3 11 29.7 5
2 3 11 36.6 3.4
-2 3 -11 35.5 2
3 -4 -11 51.59 2.4
3 -4 -11 51.89 3.7
-3 4 11 53.19 3.7
-3 4 11 52.79 3.2
2 -4 -11 36.4 3.2
2 -4 -11 38.4 2.1
-2 4 11 39.6 3.6
-2 4 11 38.3 3.1
1 -4 -11 28.1 2.6
1 -4 -11 32 1.7
-1 4 11 31.7 3.5
-1 4 11 34.7 2.8
0 -4 11 104.69 6.1
0 -4 11 128.69 4.6
0 -4 -11 120.99 4.6
0 -4 -11 122.49 3.5
0 4 11 117.89 6.4
0 4 -11 125.29 3.7
0 4 11 128.69 5
0 4 -11 115.49 3.8
1 -4 11 52.29 3.3
-1 -4 -11 51.39 2.2
-1 -4 -11 54.69 2.9
1 -4 11 49.1 4.6
-1 4 -11 52.79 2.4
1 4 11 48.8 3.7
-1 4 -11 53.39 2.4
1 4 11 54.69 5.7
2 -4 11 28.2 4.3
-2 -4 -11 27.1 1.6
2 -4 11 26.2 2.7
-2 -4 -11 27.6 2.2
-2 4 -11 26.2 1.9
-2 4 -11 25.5 2
2 4 11 25.2 2.9
2 4 11 25.6 4.7
3 -5 -11 27.8 3.3
3 -5 -11 30.5 2.2
-3 5 11 33.4 2.9
-3 5 11 28 3.2
2 -5 -11 256.67 8
2 -5 -11 266.27 6.5
-2 5 11 263.67 8.8
-2 5 11 265.47 8.1
1 -5 -11 19.9 1.7
1 -5 -11 18.3 2.4
-1 5 11 13.5 2.2
-1 5 11 17.7 2.9
0 -5 -11 2.2 0.7
0 -5 11 -0.5 1.1
0 -5 -11 1.6 1.1
0 -5 11 2 1.5
0 5 -11 3.3 1
0 5 11 0.7 2.2
0 5 -11 1.6 0.9
0 5 11 3.2 1.4
1 -5 11 9.1 1.7
1 -5 11 9.3 2.7
-1 -5 -11 12.6 1.3
-1 -5 -11 9.4 1.8
1 5 11 12.8 2.2
-1 5 -11 11.9 1.5
-1 5 -11 11.2 1.4
1 5 11 12.3 3.9
1 -6 -11 53.59 3.8
1 -6 -11 64.59 2.6
-1 6 11 56.59 4.8
-1 6 11 72.59 3.9
2 0 -12 8.3 1.1
-2 0 12 7.3 1.6
-2 0 12 4.8 2.2
2 0 -12 6.4 1.3
1 0 -12 159.78 5
-1 0 12 160.78 7.8
1 0 -12 168.68 4.4
-1 0 12 162.18 5.7
0 0 -12 5.1 1.1
0 0 12 4.5 2.5
0 0 -12 4.9 0.9
0 0 12 4 1.4
1 0 12 16.7 2.5
-1 0 -12 16.9 1.7
1 0 12 16.3 3.7
-1 0 -12 19.1 1.5
2 0 12 12.6 4
-2 0 -12 14.4 1.4
-2 0 -12 14.1 1.6
2 0 12 14.1 2.3
2 -1 -12 56.39 3.1
2 -1 -12 59.69 2.4
-2 1 12 56.29 3.3
-2 1 12 54.39 4.7
-1 -1 12 43.8 3
1 -1 -12 42 2
-1 -1 12 38.7 4.5
1 -1 -12 38.8 2.6
1 1 -12 42.7 2
1 1 -12 40.8 2.3
-1 1 12 40.1 4.3
-1 1 12 41.4 2.9
0 -1 12 152.18 7.5
0 -1 -12 150.78 4.2
0 -1 -12 150.78 4.8
0 -1 12 151.58 5.6
0 1 12 130.59 7.6
0 1 -12 149.39 4.5
0 1 12 145.79 5.6
0 1 -12 155.08 4.2
1 -1 12 12.8 3.2
-1 -1 -12 12.3 1.3
-1 -1 -12 13.3 1.5
1 -1 12 12.4 2.3
1 1 12 14 3.7
-1 1 -12 11.7 1.3
-1 1 -12 12.5 1.6
1 1 12 14 2.2
2 -1 12 16.1 2.7
2 -1 12 16 4.1
-2 -1 -12 20.2 1.5
-2 -1 -12 15.3 1.8
-2 1 -12 18.9 1.7
-2 1 -12 19 1.6
2 1 12 16.6 2.4
2 1 12 14.2 4.3
3 -2 -12 65.99 3.9
3 -2 -12 71.19 2.6
-3 2 12 65.69 4.9
-3 2 12 77.59 3.7
2 -2 -12 8.9 1.1
2 -2 -12 7.4 1.8
-2 2 12 6.3 2.5
-2 2 12 8.7 1.6
1 -2 -12 32.8 1.8
1 -2 -12 33.7 2.6
-1 -2 12 33 4.1
-1 -2 12 31.2 2.8
-1 2 12 24 3.5
1 2 -12 31.8 2.2
1 2 -12 33.3 1.9
-1 2 12 34.1 2.6
0 -2 12 54.99 4.6
0 -2 -12 46.3 2.1
0 -2 -12 46.8 2.7
0 -2 12 46.1 3.4
0 2 12 52.39 4.9
0 2 -12 44.4 2.2
0 2 12 47.2 3.2
0 2 -12 48.5 2.5
-1 -2 -12 0.8 0.9
1 -2 12 -1.2 1.2
1 -2 12 -0.4 2.1
-1 -2 -12 0.1 0.6
1 2 12 -1.5 2.9
-1 2 -12 0.4 0.8
1 2 12 0.3 1.3
-1 2 -12 1.3 0.8
2 -2 12 25 2.8
2 -2 12 21.8 4.2
-2 -2 -12 25.4 2
-2 -2 -12 21.4 1.6
2 2 12 20.4 4.7
2 2 12 23.9 2.9
-2 2 -12 24.6 1.8
-2 2 -12 23.7 1.8
3 -3 -12 113.09 4.9
3 -3 -12 114.09 3.6
-3 3 12 106.99 5.8
-3 3 12 116.39 4.9
2 -3 -12 34.1 1.9
2 -3 -12 32.4 3.1
-2 3 12 33.1 3.8
-2 3 12 31.6 2.7
1 -3 -12 6.7 1.6
1 -3 -12 7.4 1
-1 -3 12 8.8 1.9
-1 -3 12 6.6 2.6
1 3 -12 7.1 1.2
-1 3 12 8.3 1.5
1 3 -12 7.4 1.3
-1 3 12 6 2.4
0 -3 -12 71.59 2.6
0 -3 -12 70.09 3.4
0 -3 12 71.69 5.1
0 -3 12 73.09 3.8
0 3 -12 73.39 2.8
0 3 -12 66.89 2.9
0 3 12 66.89 5.7
0 3 12 69.89 3.8
1 -3 12 0.1 1.1
-1 -3 -12 1.6 0.6
-1 -3 -12 1.1 0.9
1 -3 12 -1.3 2.2
-1 3 -12 1.6 0.9
-1 3 -12 1.6 0.8
1 3 12 2.7 1.5
1 3 12 3.7 3
2 -4 -12 2.2 1.6
2 -4 -12 3.9 1.2
-2 4 12 1.7 1.5
-2 4 12 3.4 1.9
1 -4 -12 4.9 1.5
1 -4 -12 4.8 0.9
-1 4 12 6.2 2.3
-1 4 12 6 1.6
0 -4 -12 4.3 0.9
0 -4 12 2.1 2.3
0 -4 -12 3.5 1.4
0 -4 12 4 1.4
0 4 12 0 2.7
0 4 -12 4.2 1.3
0 4 12 7.8 1.7
0 4 -12 5.8 1.1
1 -4 12 8.3 1.6
-1 -4 -12 5.4 1
1 -4 12 3.2 2.5
-1 -4 -12 9 1.5
-1 4 -12 6.9 1.2
1 4 12 4.7 2.1
1 4 12 5.6 3.5
-1 4 -12 7.1 1.2
-2 0 13 3.2 1.1
2 0 -13 1.6 0.8
-2 0 13 2.1 2.2
2 0 -13 0.2 1.3
1 0 -13 67.59 3.1
-1 0 13 68.89 5.7
-1 0 13 71.79 3.8
1 0 -13 67.99 2.6
0 0 13 212.38 9.7
0 0 -13 216.18 5.6
0 0 -13 209.38 6
0 0 13 220.08 7.3
1 0 13 -0.4 1.4
-1 0 -13 2.4 0.8
1 0 13 -0.4 2.9
-1 0 -13 2.2 1
2 -1 -13 97.39 3.3
2 -1 -13 100.19 4.2
-2 1 13 99.79 4.6
-2 1 13 96.49 6.1
1 -1 -13 2.8 1
-1 -1 13 2.1 1.5
1 -1 -13 3.3 1.2
-1 -1 13 2.6 2.4
1 1 -13 3.2 1
1 1 -13 2 1.2
-1 1 13 0.1 2.2
-1 1 13 4.6 1.6
0 -1 13 97.69 6.9
0 -1 -13 100.69 4
0 -1 -13 105.99 3.4
0 -1 13 112.19 4.9
0 1 -13 109.49 3.5
0 1 13 105.79 7.1
0 1 13 108.19 4.8
0 1 -13 103.99 3.8
1 -1 13 219.18 9.9
1 -1 13 221.38 7.6
-1 -1 -13 218.68 5.7
-1 -1 -13 224.48 6.3
1 1 13 210.18 10.3
-1 1 -13 225.08 6.1
-1 1 -13 218.38 5.7
1 1 13 219.08 7.6
2 -2 -13 44.6 3.3
2 -2 -13 45.4 2.3
-2 2 13 35.4 4.7
-2 2 13 42.2 3.3
-1 -2 13 9.3 2.5
1 -2 -13 6.8 1.2
1 -2 -13 6.7 1.6
-1 -2 13 6.8 1.7
1 2 -13 9.1 1.5
-1 2 13 7 2.8
-1 2 13 8.3 1.8
1 2 -13 9.7 1.2
0 -2 -13 185.88 4.9
0 -2 13 171.28 8.6
0 -2 13 176.88 6.5
0 -2 -13 186.28 5.7
0 2 -13 185.48 5
0 2 13 168.88 8.9
0 2 13 182.08 6.6
0 2 -13 184.78 5.3
1 0 0 455.25 9.7
1 0 0 463.65 9.5
-1 0 0 450.95 9.5
-1 0 0 468.25 9.9
2 0 0 240.48 8.8
2 0 0 231.78 6.1
2 0 0 233.98 5.1
-2 0 0 225.28 5.5
-2 0 0 229.68 8.8
-2 0 0 229.48 8.9
-2 0 0 228.18 5.4
2 0 0 230.18 9.1
-3 0 0 518.85 10.6
-3 0 0 522.55 10.8
3 0 0 516.85 11.9
3 0 0 523.75 16.1
3 0 0 516.85 9.8
-3 0 0 505.95 16.2
-3 0 0 526.65 17.1
3 0 0 492.25 16.7
-4 0 0 42.7 3.8
4 0 0 43 3
4 0 0 32.3 3.8
-4 0 0 31 3.1
5 0 0 207.78 7.2
-5 0 0 202.58 8.6
5 0 0 202.88 9.5
-5 0 0 202.28 8.3
-6 0 0 144.99 8.4
-6 0 0 160.68 8.3
6 0 0 168.28 10
6 0 0 157.88 7
7 0 0 23.6 4
-7 0 0 27 5.3
-7 0 0 25.8 5.3
7 0 0 24.3 6.2
0 -1 0 0.2 0.1
0 -1 0 0.1 0.2
0 1 0 -0.1 0.1
0 1 0 0.1 0.1
1 -1 0 4659.23 65.09
1 -1 0 4966.8 63.19
-1 -1 0 4972.6 63.09
-1 -1 0 4922.11 62.59
1 -1 0 4934.71 63.89
1 1 0 4847.51 63.09
-1 1 0 4872.31 63.09
-1 1 0 4845.62 67.29
-1 1 0 4958.5 64.09
-1 1 0 4882.41 66.19
1 1 0 5038.7 62.89
-2 -1 0 576.84 14.4
2 -1 0 579.14 10.6
2 -1 0 576.24 15
2 -1 0 573.84 14.4
-2 -1 0 566.84 9.6
-2 -1 0 553.74 14.1
-2 -1 0 573.84 10.1
2 -1 0 561.34 9.3
2 1 0 565.04 14.5
-2 1 0 581.44 15.1
2 1 0 575.74 14.1
2 1 0 565.54 10.6
-2 1 0 544.05 14.2
2 1 0 564.84 9.1
-2 1 0 560.04 10
-3 -1 0 393.46 14.1
3 -1 0 408.76 10.4
3 -1 0 413.36 14.3
-3 -1 0 400.16 9.1
-3 -1 0 413.56 14.3
-3 -1 0 404.46 9.6
3 -1 0 371.86 14.7
3 -1 0 411.66 8.5
3 1 0 382.86 14.3
-3 1 0 422.16 15
3 1 0 409.46 8.2
-3 1 0 388.66 14.4
3 1 0 404.36 10.3
-3 1 0 409.76 9.2
3 1 0 424.36 13.7
-3 1 0 420.16 9.3
4 -1 0 29.7 3.9
4 -1 0 22.1 2.6
-4 -1 0 28 3.4
-4 -1 0 31.4 3.8
4 1 0 27.1 3.7
4 1 0 28.4 3
-4 1 0 27.8 3.5
-4 1 0 19.6 2.6
-5 -1 0 213.88 9
5 -1 0 213.58 10
5 -1 0 241.38 7.7
-5 -1 0 233.38 9
-5 1 0 227.78 8.5
-5 1 0 217.68 9
5 1 0 221.18 7.6
5 1 0 222.88 10.4
-6 -1 0 11 4.2
6 -1 0 9.2 3.9
6 -1 0 7.3 2.4
-6 -1 0 3.8 3.4
-6 1 0 10.9 3.3
6 1 0 3.5 3.5
-6 1 0 5.6 3.2
6 1 0 7.3 2.3
7 -1 0 90.79 6.1
-7 -1 0 87.09 8
-7 -1 0 108.59 8.9
7 -1 0 98.89 9.9
-7 1 0 96.19 7.6
-7 1 0 107.89 8.5
7 1 0 92.19 10.2
7 1 0 102.89 6.6
0 -2 0 9446.55 139.49
0 -2 0 9466.75 150.08
0 2 0 9498.65 158.58
0 2 0 9594.04 158.38
1 -2 0 2026 29.6
1 -2 0 2032.8 26.2
1 -2 0 2007.9 30.4
-1 -2 0 1987.4 28.8
-1 -2 0 2010 28.9
1 2 0 2017.9 28.8
-1 2 0 2001.5 27
1 2 0 1990.9 29.3
-1 2 0 2046.4 25.8
-1 2 0 2013.3 29.8
-2 -2 0 772.92 12.4
-2 -2 0 773.72 17
2 -2 0 777.32 17.4
-2 -2 0 788.22 12.2
-2 -2 0 784.32 17.4
2 -2 0 746.83 11.9
2 -2 0 774.42 18.3
2 -2 0 801.62 13.5
2 2 0 791.02 13.4
2 2 0 774.42 16.8
-2 2 0 780.22 12.7
-2 2 0 786.02 17.8
-2 2 0 793.92 12.8
2 2 0 759.62 11.6
2 2 0 763.82 17.6
-3 -2 0 674.93 12.7
-3 -2 0 651.23 18.2
3 -2 0 679.13 14
-3 -2 0 673.13 12.6
3 -2 0 662.43 11.8
-3 -2 0 663.63 19.1
-3 2 0 681.53 12.9
3 2 0 656.33 13.9
3 2 0 666.53 11.5
3 2 0 659.93 18
3 2 0 668.53 19.4
-3 2 0 678.63 12.9
-4 -2 0 98.19 5.2
4 -2 0 101.49 5.9
4 -2 0 95.69 4.3
-4 -2 0 95.79 5.5
-4 2 0 94.09 4.9
4 2 0 96.39 5.6
-4 2 0 96.89 5
4 2 0 95.69 4.3
-5 -2 0 114.59 7.3
5 -2 0 122.79 5.7
5 -2 0 121.29 7.7
-5 -2 0 120.59 6.9
5 2 0 124.89 5.8
5 2 0 125.79 7.7
-5 2 0 120.59 6.8
-5 2 0 130.59 6.3
6 -2 0 95.59 8.4
-6 -2 0 81.69 7.6
6 -2 0 89.89 5.7
-6 -2 0 84.69 7.6
6 2 0 73.69 8.7
6 2 0 86.69 5.3
-6 2 0 75.69 6.5
-6 2 0 69.89 6.2
7 -2 0 53.89 7.5
-7 -2 0 47.7 6.6
7 -2 0 40 4.8
-7 -2 0 34.3 6.1
-7 2 0 50.99 6
-7 2 0 46 6.3
7 2 0 44.7 5
7 2 0 46.3 7.4
0 -3 0 -0.2 0.6
0 -3 0 0 0.8
0 3 0 0.3 0.6
0 3 0 0 0.5
1 -3 0 282.87 8.4
1 -3 0 286.47 7.8
1 -3 0 280.07 5
-1 -3 0 285.07 7.3
-1 -3 0 280.47 7.6
-1 3 0 287.47 5.4
1 3 0 284.07 7.1
-1 3 0 289.67 8.1
-1 3 0 291.17 8.3
1 3 0 281.27 7.8
-2 -3 0 336.07 10.5
2 -3 0 332.77 10.9
-2 -3 0 326.17 10.4
2 -3 0 335.97 11.9
2 -3 0 335.97 7.8
2 -3 0 314.77 6.5
-2 -3 0 327.87 6.6
-2 -3 0 319.77 6.9
-2 3 0 317.37 7.2
-2 3 0 333.17 11
2 3 0 329.77 6.1
2 3 0 328.27 7.7
-2 3 0 319.77 7.1
2 3 0 329.97 11
2 3 0 334.97 10.1
-3 -3 0 210.48 10.6
-3 -3 0 214.48 10.6
-3 -3 0 206.98 6.5
-3 -3 0 225.98 6.9
3 -3 0 214.08 5.9
3 -3 0 228.78 7.4
3 3 0 235.98 7.4
-3 3 0 216.28 6.6
-3 3 0 223.28 6.6
3 3 0 214.08 10.3
3 3 0 217.58 5.5
3 3 0 208.08 10.5
4 -3 0 29.8 3
-4 -3 0 28.2 3.5
4 -3 0 28 3.9
-4 -3 0 22.3 3.8
-4 3 0 24 3
-4 3 0 24.6 2.9
4 3 0 32.1 4.1
4 3 0 29.1 2.6
-5 -3 0 270.97 10.7
5 -3 0 277.07 11.6
5 -3 0 279.57 8.8
-5 -3 0 282.67 9.9
-5 3 0 274.67 9.6
-5 3 0 261.67 10.1
5 3 0 261.47 10.8
5 3 0 281.47 8.5
-6 -3 0 39.2 5.8
6 -3 0 45.3 4.9
6 -3 0 34.7 5.9
-6 -3 0 47.6 6.3
-6 3 0 42.2 5.4
6 3 0 41.9 6.2
6 3 0 46.2 4.1
-6 3 0 43.6 5.4
7 -3 0 -1.1 2.4
-7 -3 0 11.8 4.5
7 3 0 6.6 2.5
0 -4 0 541.45 10.6
0 4 0 564.04 10.8
0 4 0 548.55 10.1
1 -4 0 156.28 6.1
-1 -4 0 163.88 5.7
-1 -4 0 168.18 4.6
-1 -4 0 167.78 6.6
1 -4 0 154.88 3.6
1 -4 0 159.08 6.9
-1 -4 0 157.78 3.5
-1 4 0 163.18 6.6
1 4 0 161.38 5.4
1 4 0 158.48 4.2
-1 4 0 159.98 3.9
1 4 0 161.28 3.3
1 4 0 168.58 5.8
-1 4 0 155.88 6.4
-1 4 0 158.88 4
-2 -4 0 754.42 12.1
2 -4 0 766.22 13.6
2 -4 0 752.92 18.1
2 -4 0 751.62 18.9
-2 -4 0 774.32 12.9
-2 -4 0 770.82 17
-2 -4 0 748.23 17.6
2 -4 0 753.92 12.3
2 4 0 750.52 13.1
-2 4 0 757.02 12.9
-2 4 0 756.72 18.3
2 4 0 764.72 16.5
2 4 0 760.82 18.2
2 4 0 758.52 11.4
3 -4 0 67.89 4.6
-3 -4 0 53.89 4.5
-3 -4 0 57.09 4.5
3 -4 0 63.99 3.4
3 4 0 61.09 4.4
-3 4 0 60.99 3.8
3 4 0 60.69 2.9
4 -4 0 195.68 6.5
-4 -4 0 205.88 7.8
4 -4 0 192.88 9
-4 -4 0 188.08 7.9
4 4 0 197.88 6
-4 4 0 196.58 7.2
4 4 0 195.88 8.3
-4 4 0 204.08 7.5
-5 -4 0 141.19 9.3
5 -4 0 141.39 6.3
5 -4 0 140.69 8.9
-5 -4 0 145.79 8.4
5 4 0 139.59 9.3
-5 4 0 138.89 7.2
5 4 0 137.99 6.7
6 -4 0 18.8 3.5
6 -4 0 23.4 5.3
-6 4 0 29.4 4.7
2 -5 0 181.58 4.8
2 -5 0 174.28 6.2
-2 5 0 185.68 5.4
3 -5 0 375.96 8.6
3 -5 0 364.66 10.5
-3 5 0 367.96 9.2
4 -5 0 10.7 2.5
4 -5 0 7.2 3.9
-4 5 0 14.2 2.7
5 -5 0 77.09 7.9
5 -5 0 76.59 5.4
-5 5 0 75.29 5.8
6 -5 0 185.58 8.3
6 -5 0 160.88 11
-6 5 0 180.58 9.3
7 0 -1 3.2 2.5
-7 0 1 6.8 4.5
-7 0 1 3.5 3.3
7 0 -1 2.6 3.4
6 0 -1 129.39 6.5
-6 0 1 145.49 8.3
-6 0 1 135.19 8.5
6 0 -1 144.59 9.3
-5 0 1 71.09 5.2
-5 0 1 74.59 5.6
5 0 -1 78.79 4.4
5 0 -1 77.19 6.2
4 0 -1 8 2.5
4 0 -1 9.7 1.7
-4 0 1 8.8 2.2
-4 0 1 10.1 2.1
3 0 -1 454.95 8.9
3 0 -1 433.66 15.6
-3 0 1 470.95 9.9
-3 0 1 462.25 9.8
3 0 -1 463.45 14.4
3 0 -1 465.15 10.8
-3 0 1 489.15 15.4
2 0 -1 365.06 11.2
-2 0 1 369.06 11
-2 0 1 370.06 7.5
2 0 -1 363.06 10.6
2 0 -1 345.77 6.5
-1 0 1 30 2.2
1 0 -1 32.6 2.3
1 0 1 1463.45 23.7
1 0 1 1481.25 20.3
-1 0 -1 1478.35 19.4
1 0 1 1487.45 23
-1 0 -1 1452.45 23.1
1 0 1 1427.76 19
-1 0 -1 1477.15 23.5
-1 0 -1 1483.15 19.5
2 0 1 255.87 5.4
2 0 1 253.87 9.7
-2 0 -1 264.37 9.4
-2 0 -1 257.27 9.3
-2 0 -1 265.37 6.2
-2 0 -1 252.07 5.8
2 0 1 258.17 9.2
-3 0 -1 604.14 12.3
3 0 1 578.04 10.8
3 0 1 604.64 13.7
-3 0 -1 633.44 28.2
-3 0 -1 594.34 11.9
3 0 1 629.34 26.8
4 0 1 20.3 2.6
4 0 1 16.5 3.1
-4 0 -1 18.5 2.7
-4 0 -1 21.2 3
-5 0 -1 196.18 8.3
5 0 1 177.78 9.2
5 0 1 200.08 7.3
-5 0 -1 198.58 8.4
-6 0 -1 8.8 3.4
6 0 1 9.7 2.5
6 0 1 8 4.1
-6 0 -1 3.7 3
-7 0 -1 19.6 5.5
7 0 1 14.4 5.2
-7 0 -1 23.5 5.1
7 0 1 30.1 4.4
-7 -1 1 11.5 4.6
7 -1 -1 7.4 4.8
7 -1 -1 4.4 2.4
-7 -1 1 9.1 4.1
-7 1 1 2.9 3.4
-7 1 1 2.8 3.8
7 1 -1 9.2 2.8
7 1 -1 8.9 4.5
6 -1 -1 4.5 2.1
-6 -1 1 7.5 3.8
-6 -1 1 6.9 4.1
6 -1 -1 9 3.7
6 1 -1 7.6 2.5
6 1 -1 6.2 3.8
-6 1 1 7.4 2.9
-6 1 1 4.3 3.4
-5 -1 1 11.1 3.6
-5 -1 1 6.4 3.3
5 -1 -1 11.9 2.5
5 -1 -1 5.9 3.2
5 1 -1 11.8 2.3
5 1 -1 5.2 3.4
-5 1 1 8.6 2.3
-5 1 1 11.7 3.1
-4 -1 1 39.6 3.9
4 -1 -1 38 4.3
4 -1 -1 37.2 3
-4 -1 1 26.5 3.2
4 1 -1 33.6 2.6
-4 1 1 43.6 3.4
4 1 -1 30.7 3.8
-4 1 1 39.5 3.8
-3 -1 1 117.59 8.2
-3 -1 1 121.19 4.6
3 -1 -1 120.39 4.2
3 -1 -1 128.19 5.6
3 -1 -1 131.79 8.3
3 -1 -1 129.19 8.6
-3 -1 1 121.99 4.7
-3 -1 1 117.99 7.8
-3 1 1 136.29 5
3 1 -1 130.89 5.6
3 1 -1 130.39 8.3
3 1 -1 115.99 7.4
3 1 -1 124.49 4.1
-3 1 1 121.69 8.1
-3 1 1 113.79 4.8
2 -1 -1 269.97 5.6
-2 -1 1 284.07 5.8
2 -1 -1 261.17 9.8
2 -1 -1 274.47 9.4
-2 -1 1 267.17 9.3
-2 -1 1 274.87 9.1
-2 -1 1 274.27 6
-2 1 1 272.17 6.1
-2 1 1 264.67 9.4
2 1 -1 294.27 6.4
2 1 -1 279.67 9.4
2 1 -1 273.57 8.9
2 1 -1 283.17 5.5
-2 1 1 280.77 6.2
1 -1 -1 427.56 6.9
1 -1 -1 414.66 9.5
-1 -1 1 411.66 8.4
1 -1 -1 391.66 6.5
-1 1 1 417.36 9.4
1 1 -1 418.66 8.7
1 1 -1 414.06 8.5
-1 1 1 426.36 7.2
-1 1 1 428.16 9.7
0 -1 -1 457.15 8.8
0 -1 1 436.76 6.8
0 -1 1 439.16 7
0 -1 -1 450.65 9
0 1 -1 439.56 6.9
0 1 1 454.45 9
0 1 1 452.35 8.7
0 1 -1 447.16 7.2
1 -1 1 1169.08 19
-1 -1 -1 1129.19 15.6
1 -1 1 1146.19 15.1
1 -1 1 1141.59 19.5
1 -1 1 1153.08 16.2
-1 -1 -1 1138.59 15.8
-1 -1 -1 1163.18 19.8
-1 -1 -1 1173.68 20.1
-1 1 -1 1145.89 15.6
-1 1 -1 1145.79 15.8
1 1 1 1194.88 16.6
1 1 1 1161.98 19.5
1 1 1 1157.88 15.4
-1 1 -1 1132.29 19.3
1 1 1 1129.49 20.1
-1 1 -1 1135.19 19.1
-2 -1 -1 278.27 6.2
2 -1 1 259.07 9.9
2 -1 1 273.67 5.6
-2 -1 -1 276.97 9.7
-2 -1 -1 281.77 6.4
2 -1 1 276.57 9.7
-2 -1 -1 274.67 10
2 -1 1 286.97 7.1
2 1 1 277.97 10.3
2 1 1 276.77 7.2
-2 1 -1 259.57 6
-2 1 -1 266.07 9.7
-2 1 -1 279.27 6.5
2 1 1 277.77 5.7
2 1 1 272.37 9.6
-2 1 -1 274.77 10
-3 -1 -1 4.9 3.1
3 -1 1 3.9 1.4
-3 -1 -1 1.4 1.4
3 -1 1 4.4 2
-3 -1 -1 8.2 1.8
-3 -1 -1 3.9 2.5
-3 1 -1 4.2 1.7
-3 1 -1 0.2 1.5
3 1 1 3.8 1.2
3 1 1 0.9 1.7
3 1 1 6.1 2.7
3 1 1 3 2.6
4 -1 1 1295.47 24.6
-4 -1 -1 1317.87 22.5
-4 -1 -1 1283.77 22.5
4 -1 1 1269.67 21
-4 1 -1 1278.77 22.1
-4 1 -1 1298.37 23.1
4 1 1 1290.27 20.7
4 1 1 1296.27 24.7
-5 -1 -1 31.2 4.2
5 -1 1 29.1 4.8
-5 -1 -1 29.1 4.5
5 -1 1 33.9 3.9
-5 1 -1 30.1 4.3
5 1 1 27.3 4.8
-5 1 -1 29.7 3.9
5 1 1 26.4 3.5
6 -1 1 82.39 5.2
-6 -1 -1 90.39 8
6 -1 1 69.59 7.8
-6 -1 -1 55.89 6.3
-6 1 -1 65.19 6.3
6 1 1 70.29 8.2
-6 1 -1 84.59 6.5
6 1 1 81.09 5.9
-7 -1 -1 120.19 9.6
7 -1 1 100.09 10.7
7 -1 1 116.49 7
-7 -1 -1 122.39 9.7
-7 1 -1 126.39 8.5
-7 1 -1 119.19 8.5
7 1 1 130.89 7.2
7 1 1 130.69 10.8
7 -2 -1 35.3 4.6
-7 -2 1 54.69 7.4
-7 -2 1 49 6.7
7 -2 -1 48.1 7.6
7 2 -1 61.19 5.8
7 2 -1 46.9 7.9
-7 2 1 39.5 6.1
6 -2 -1 83.39 8.5
-6 -2 1 85.99 7.9
6 -2 -1 85.59 5.6
-6 -2 1 78.29 7
-6 2 1 95.89 7.2
6 2 -1 88.09 8.2
6 2 -1 90.29 5.3
-6 2 1 82.09 6.5
-5 -2 1 43.2 5.2
5 -2 -1 34.4 5
5 -2 -1 35.2 3.7
-5 -2 1 35.4 4.5
5 2 -1 36.7 5.1
5 2 -1 33.2 3.3
-5 2 1 38.7 4.5
-5 2 1 35.1 3.9
4 -2 -1 53.49 4.4
-4 -2 1 64.39 5.3
4 -2 -1 58.59 3.7
-4 -2 1 56.79 4.4
-4 2 1 62.19 4.3
-4 2 1 57.39 4
4 2 -1 56.09 3.4
4 2 -1 53.89 4.3
-3 -2 1 262.57 10.8
-3 -2 1 279.97 7.6
-3 -2 1 270.77 6.9
3 -2 -1 261.87 6.6
3 -2 -1 271.37 8
-3 -2 1 264.97 11.4
3 2 -1 273.67 6.4
3 2 -1 262.17 10.7
-3 2 1 277.57 7.8
3 2 -1 279.77 7.9
3 2 -1 265.67 11.4
-3 2 1 267.17 7.3
2 -2 -1 475.15 14
-2 -2 1 475.85 8.3
2 -2 -1 475.95 13.2
2 -2 -1 474.15 8.4
-2 -2 1 496.85 8.6
-2 -2 1 490.85 12.3
-2 -2 1 481.55 12.6
2 2 -1 490.05 12.6
2 2 -1 486.55 9.2
2 2 -1 480.35 12.1
-2 2 1 471.65 8.9
-2 2 1 454.55 13.1
2 2 -1 469.85 7.9
1 -2 -1 1974.1 25.3
-1 -2 1 1899.41 26.5
1 -2 -1 1915.41 29.3
-1 -2 1 1931.21 26.9
1 -2 -1 1836.92 25.6
-1 2 1 1951.2 25.8
1 2 -1 1937.81 26.3
1 2 -1 1941.91 26.8
-1 2 1 1935.11 30.3
-1 2 1 1911.41 29.4
0 -2 -1 197.58 5.9
0 -2 -1 197.78 5.8
0 2 1 197.68 5.6
0 2 1 200.98 6.1
1 -2 1 1116.59 14.8
1 -2 1 1111.29 15.9
-1 -2 -1 1131.59 20.3
1 -2 1 1106.69 19.3
-1 -2 -1 1142.39 16
-1 -2 -1 1117.69 20
-1 -2 -1 1114.09 15.5
1 -2 1 1113.69 18.6
-1 2 -1 1119.59 19
1 2 1 1121.69 19.8
1 2 1 1121.29 16.3
-1 2 -1 1116.99 15.2
-1 2 -1 1123.89 19.2
-1 2 -1 1101.19 15.3
1 2 1 1128.69 15.2
1 2 1 1109.79 20.8
2 -2 1 138.29 3.8
2 -2 1 136.29 6.8
-2 -2 -1 138.89 4.1
-2 -2 -1 131.59 4.3
2 -2 1 145.39 7.2
2 -2 1 135.99 4.7
-2 -2 -1 130.79 6.9
-2 -2 -1 132.79 6.8
2 2 1 132.19 3.8
2 2 1 129.89 7.2
2 2 1 147.79 6.9
-2 2 -1 136.69 4
2 2 1 137.59 5
-2 2 -1 139.29 6.9
-2 2 -1 136.79 7
-2 2 -1 132.19 4.2
-3 -2 -1 98.49 4.4
-3 -2 -1 90.69 4.6
3 -2 1 86.09 5.2
3 -2 1 87.09 3.7
3 2 1 84.69 3.5
-3 2 -1 87.99 4.2
3 2 1 91.39 5.3
-3 2 -1 91.69 4.5
3 2 1 86.89 12.3
-4 -2 -1 17.4 2.9
-4 -2 -1 21.3 3.5
4 -2 1 19.3 3.3
4 -2 1 19.7 2.5
-4 2 -1 20.7 2.8
4 2 1 20.8 2.5
4 2 1 27.6 4
-4 2 -1 21.1 3.1
-5 -2 -1 112.29 7.3
5 -2 1 105.49 5.3
-5 -2 -1 85.59 6.7
5 -2 1 100.29 7.7
5 2 1 102.69 5.3
5 2 1 107.79 7.8
-5 2 -1 94.39 5.9
-5 2 -1 94.99 6.1
6 -2 1 8.8 3.6
-6 -2 -1 12.7 4.8
6 -2 1 9.1 2.7
-6 -2 -1 14.5 4.7
-6 2 -1 9.5 3.4
6 2 1 11.4 3.2
6 2 1 13.4 4.3
-6 2 -1 11.1 3.1
7 -2 1 133.29 7.5
-7 -2 -1 134.79 9.8
-7 -2 -1 127.59 9.9
7 -2 1 137.59 12.9
-7 2 -1 120.59 8.5
7 2 1 128.39 7.1
7 2 1 119.69 12.2
-7 2 -1 103.89 8.4
7 -3 -1 8 2.7
7 -3 -1 7.5 4.8
-7 -3 1 10.3 4.8
-7 -3 1 8 4.5
7 3 -1 10.7 4.5
7 3 -1 7.7 2.9
-7 3 1 9.2 3.5
-6 -3 1 6.6 4.4
-6 -3 1 4.1 3.6
6 -3 -1 5.1 3.6
6 -3 -1 5.2 2.5
6 3 -1 3.5 2.1
-6 3 1 5.8 2.8
6 3 -1 7.3 3.7
5 -3 -1 19.5 3
5 -3 -1 22 4.6
-5 -3 1 21 4.1
-5 -3 1 21.9 4.5
5 3 -1 22.3 2.9
-5 3 1 32.8 4.2
5 3 -1 21.7 4.2
4 -3 -1 312.77 10.2
-4 -3 1 316.67 9.1
4 -3 -1 326.77 8.5
-4 -3 1 319.57 9.4
-4 3 1 324.07 9.3
4 3 -1 316.47 9.9
4 3 -1 329.67 8
-3 -3 1 5.7 2
-3 -3 1 4.9 3
-3 -3 1 1.8 1.8
3 -3 -1 4.8 1.3
-3 -3 1 8 3.4
3 3 -1 7.8 3.2
3 3 -1 6.5 2.5
-3 3 1 5.3 1.9
3 3 -1 7 1.8
3 3 -1 6.7 1.4
-2 -3 1 972.1 14.2
-2 -3 1 983.9 19.3
2 -3 -1 940.31 14.7
2 -3 -1 935.91 21.9
-2 -3 1 949.8 18.6
2 -3 -1 973 20.9
-2 -3 1 969.2 14.3
-2 3 1 952.2 21.6
-2 3 1 956.4 21
2 3 -1 969.6 18.6
-2 3 1 933.11 15
2 3 -1 965.1 15.2
2 3 -1 967.9 13.7
2 3 -1 953.6 19.3
1 -3 -1 356.16 9.6
-1 -3 1 356.76 7.1
1 -3 -1 355.06 6.3
-1 -3 1 350.26 7.1
1 -3 -1 357.76 6.8
-1 3 1 359.36 9.7
-1 3 1 362.26 6.6
1 3 -1 346.37 7.5
1 3 -1 369.06 7
-1 3 1 352.06 7.1
-1 3 1 362.46 10.2
0 -3 -1 562.34 12.2
0 -3 -1 541.55 8.4
0 -3 -1 558.74 9.1
0 -3 -1 557.44 12
0 3 1 559.84 9.1
0 3 1 557.84 11.5
0 3 1 546.65 8.5
0 3 1 560.54 12.3
1 -3 1 396.06 7.2
-1 -3 -1 387.76 10.6
1 -3 1 379.66 9.7
-1 -3 -1 380.56 7.6
1 -3 1 387.96 6.2
1 -3 1 388.06 9.4
-1 -3 -1 390.26 6.8
-1 -3 -1 381.36 10.6
-1 3 -1 383.56 6.6
-1 3 -1 390.66 6.5
1 3 1 396.16 6.6
1 3 1 391.06 10.7
1 3 1 393.36 10.3
1 3 1 399.16 7.7
-1 3 -1 375.86 9.4
-2 -3 -1 573.54 10.7
-2 -3 -1 567.04 15.2
2 -3 1 557.44 15.8
2 -3 1 554.04 9.5
-2 -3 -1 549.05 10.1
-2 -3 -1 566.64 15.4
2 -3 1 556.14 14.5
2 -3 1 575.24 11.4
-2 3 -1 556.24 10.3
2 3 1 562.34 15
2 3 1 563.34 11.4
-2 3 -1 552.74 10.2
2 3 1 553.94 9.7
2 3 1 554.14 16.5
-2 3 -1 568.04 15.1
3 -3 1 19 2.1
-3 -3 -1 23.3 2.6
-3 -3 -1 18.2 2.9
3 -3 1 18.7 2.9
-3 3 -1 15.5 2.3
3 3 1 16.4 1.8
3 3 1 15.9 2.5
-3 3 -1 17.1 2.3
4 -3 1 435.26 9.9
4 -3 1 427.66 12.6
-4 -3 -1 439.46 11.1
-4 -3 -1 413.66 11.7
-4 3 -1 420.66 10.8
4 3 1 429.56 9.7
-4 3 -1 407.56 11.5
4 3 1 396.16 12.5
5 -3 1 110.99 8
-5 -3 -1 115.79 7.2
5 -3 1 117.89 5.8
-5 -3 -1 110.09 7.9
5 3 1 112.49 5.5
-5 3 -1 108.89 6.3
-5 3 -1 108.59 6.9
5 3 1 111.79 8.2
-6 -3 -1 108.69 8.6
6 -3 1 103.59 6.2
6 -3 1 98.89 8.8
-6 -3 -1 103.09 8.1
-6 3 -1 109.39 7
-6 3 -1 93.59 6.5
6 3 1 87.99 5.8
6 3 1 97.19 8.3
6 -4 -1 52.79 4.7
6 -4 -1 43.7 6.9
-6 4 1 64.49 6.8
5 -4 -1 159.48 6.7
5 -4 -1 165.38 9.5
-5 4 1 159.78 7.5
4 -4 -1 5.3 2.7
4 -4 -1 5.1 1.6
-4 4 1 6 1.7
3 -4 -1 27.7 3.4
-3 -4 1 29.2 4.1
3 -4 -1 26.3 2.5
-3 -4 1 24.4 4.4
-3 4 1 24.9 3.1
3 4 -1 24 2.9
3 4 -1 28.1 4.9
2 -4 -1 51.89 5.6
-2 -4 1 66.09 4.8
2 -4 -1 58.99 2.7
2 -4 -1 52.09 5.9
-2 4 1 63.69 6.4
-2 4 1 58.19 6
-2 4 1 51.69 3.1
1 -4 -1 1364.76 24.3
1 -4 -1 1329.67 18.5
1 -4 -1 1375.36 19.4
-1 4 1 1339.27 24.1
-1 4 1 1354.86 25.4
-1 4 1 1390.56 19.8
-1 4 1 1336.77 19.1
0 -4 -1 383.16 10.2
0 -4 -1 375.16 10
0 -4 -1 378.16 7.3
0 -4 -1 370.46 6.6
0 4 1 385.36 7.3
0 4 1 367.66 10.2
0 4 1 388.76 9.6
0 4 1 379.56 6.7
-1 -4 -1 549.45 13.5
1 -4 1 532.95 8.1
1 -4 1 532.75 12.2
1 -4 1 536.45 9.2
-1 -4 -1 535.95 8.8
-1 -4 -1 539.25 9.8
1 -4 1 534.25 11.6
-1 -4 -1 541.15 13.6
1 4 1 549.25 13.1
-1 4 -1 519.95 8.5
1 4 1 538.35 8.6
1 4 1 518.35 10
1 4 1 526.85 13.1
-1 4 -1 553.14 12.1
-1 4 -1 522.75 11.8
2 -4 1 35.6 3.2
-2 -4 -1 30.1 2.5
-2 -4 -1 38.1 5.1
2 -4 1 32.8 2.2
-2 -4 -1 32.2 3.2
2 -4 1 33.9 4.9
2 -4 1 33.6 4.3
-2 -4 -1 40 5.1
-2 4 -1 30.6 2.5
2 4 1 31.9 2.3
2 4 1 32 4.3
2 4 1 30.9 3.2
-2 4 -1 32.8 2.3
2 4 1 34.9 5
-2 4 -1 33.9 4.3
3 -4 1 25.1 3.4
-3 -4 -1 29.9 3.2
-3 -4 -1 23.6 3.6
3 -4 1 29.3 2.7
3 4 1 33.1 3.5
3 4 1 23.7 2.3
-3 4 -1 27.1 3.1
-3 4 -1 26.3 2.8
4 -4 1 27.2 4.7
-4 -4 -1 33.8 4.5
4 -4 1 28.8 3.1
-4 -4 -1 31.8 4.3
-4 4 -1 29.5 3.8
4 4 1 31.9 3.1
-4 4 -1 30.7 3.8
4 4 1 32.4 4.8
5 -4 1 -1.9 3.5
-5 -4 -1 13.3 3.9
5 -4 1 9.7 2.6
-5 -4 -1 11.4 4
-5 4 -1 7.1 2.6
5 4 1 4.8 3.2
5 4 1 10.2 2.3
-5 4 -1 2.9 2.2
-6 -4 -1 8.7 6.5
6 -4 1 0.3 2.3
6 -4 1 11.2 4.7
-6 4 -1 5.2 2.2
-6 4 -1 5.6 2.9
6 -5 -1 19.8 3.7
6 -5 -1 13.1 5.2
-6 5 1 17.6 3.8
5 -5 -1 169.18 7.2
5 -5 -1 159.48 10
-5 5 1 173.38 8
4 -5 -1 118.69 8.1
4 -5 -1 134.89 5.9
-4 5 1 129.09 6.2
3 -5 -1 458.25 9.7
3 -5 -1 431.96 11.4
-3 5 1 431.96 10.5
2 -5 -1 360.86 7.7
-2 5 1 357.86 8
-2 5 1 363.66 8.2
1 -5 -1 91.99 3.1
-1 5 1 98.19 3.3
-1 5 1 89.19 3.5
3 -5 1 25.8 2.7
3 -5 1 18.7 3.6
-3 5 -1 21.3 2.6
4 -5 1 128.19 8.3
4 -5 1 115.29 5.6
-4 5 -1 115.09 6.3
5 -5 1 53.89 5
5 -5 1 48 6.9
-5 5 -1 54.39 5.8
6 -5 1 47.3 7.1
6 -5 1 49.99 5.2
-6 5 -1 56.49 5.1
7 0 -2 4.8 2.3
-7 0 2 10.2 4.3
-6 0 2 42.9 5.6
6 0 -2 43 4.3
-6 0 2 34.2 5
6 0 -2 48.4 6.4
5 0 -2 306.17 11.7
5 0 -2 331.07 9.4
-5 0 2 346.77 10.6
-5 0 2 338.07 10.8
4 0 -2 1 1.7
-4 0 2 2.2 1.6
-4 0 2 -1.3 1.4
4 0 -2 0.9 1.1
-3 0 2 237.28 6.7
3 0 -2 237.18 6
3 0 -2 208.38 10.6
3 0 -2 230.78 10.4
-3 0 2 228.98 6.7
-3 0 2 231.68 10.4
-2 0 2 -0.7 1
2 0 -2 0.7 0.5
-2 0 2 1.3 0.8
2 0 -2 0.6 1.2
1 0 -2 17.2 2.2
-1 0 2 15.8 2.1
1 0 -2 15 2
1 0 -2 19.3 1.2
-1 0 2 16.8 1.3
1 0 -2 18.9 1
-1 0 2 26.1 2.8
0 0 2 2736.03 38.4
0 0 2 2772.62 38.1
0 0 -2 2723.03 38.3
0 0 -2 2740.33 38.2
1 0 2 106.29 5.5
-1 0 -2 99.29 2.9
1 0 2 106.69 2.8
-1 0 -2 91.39 4.8
1 0 2 99.89 3.4
-1 0 -2 105.39 5.2
-1 0 -2 102.79 3.1
1 0 2 110.49 5.1
2 0 2 28.1 3.9
-2 0 -2 42.8 5.1
-2 0 -2 33.8 4.2
-2 0 -2 37.9 2.4
2 0 2 40 2.8
2 0 2 36 2
2 0 2 39.8 4.5
-2 0 -2 34.3 2.2
-3 0 -2 54.09 3.6
3 0 2 56.79 3.2
3 0 2 60.99 5.1
-3 0 -2 61.59 3.8
-4 0 -2 83.59 5
4 0 2 88.79 4.4
-4 0 -2 93.49 5
4 0 2 84.79 6.1
5 0 2 -0.8 1.6
-5 0 -2 2.6 2.3
5 0 2 -1.5 2.7
-5 0 -2 1.1 1.8
6 0 2 42.5 6.9
-6 0 -2 58.39 6.9
6 0 2 41.4 4.5
-6 0 -2 47.3 5.4
-7 0 -2 95.89 8.8
-7 0 -2 90.79 9
7 0 2 85.89 6.1
7 0 2 75.39 9.7
-7 -1 2 9.8 4.6
7 -1 -2 12.1 4.1
7 -1 -2 6.9 2.5
7 1 -2 12.4 5.2
-7 1 2 6 3.6
7 1 -2 3.5 2.5
6 -1 -2 34.6 4
6 -1 -2 32.1 5.3
-6 -1 2 40.9 5.8
-6 -1 2 37.6 6.1
6 1 -2 32.5 4.1
6 1 -2 46.1 6.4
-6 1 2 26.8 4.7
-5 -1 2 97.29 6.7
5 -1 -2 106.19 5.2
-5 -1 2 105.79 6.5
5 -1 -2 80.79 7.1
-5 1 2 103.79 5.8
5 1 -2 103.49 7.5
5 1 -2 95.09 4.9
-5 1 2 80.89 6.2
-4 -1 2 99.49 5.1
4 -1 -2 100.59 5.7
-4 -1 2 102.99 5.2
4 -1 -2 103.99 4.6
4 1 -2 105.49 4.5
-4 1 2 93.79 5.1
-4 1 2 103.99 5.2
4 1 -2 97.19 5.5
-3 -1 2 228.28 6.5
-3 -1 2 233.28 6.5
-3 -1 2 217.68 10
3 1 -2 223.88 7.1
3 1 -2 227.38 10.6
3 1 -2 248.88 10.2
3 1 -2 231.18 5.8
-3 1 2 234.08 6.8
-2 -1 2 24.1 1.7
-2 -1 2 24.2 2
-2 -1 2 24 3.3
2 -1 -2 24.1 1.6
2 -1 -2 22.3 3.3
2 1 -2 18.8 3
-2 1 2 23.2 2
2 1 -2 23.4 3.2
-2 1 2 23.7 3.4
2 1 -2 22.3 1.4
-2 1 2 22 3.3
-1 -1 2 23.3 2.3
-1 -1 2 21 1.3
1 -1 -2 18.1 1.3
1 -1 -2 17.6 2.3
1 -1 -2 20.1 1.1
1 -1 -2 15.6 2.3
-1 -1 2 19.9 2.3
-1 1 2 21.3 2.6
-1 1 2 19.6 1.2
1 1 -2 19.6 1.2
1 1 -2 18.2 0.9
1 1 -2 25.7 2.4
-1 1 2 18.7 2.4
0 -1 -2 445.26 7.1
0 -1 -2 443.16 10.6
0 -1 2 443.76 9
0 -1 -2 433.46 7.7
0 -1 2 444.66 9.1
0 -1 -2 440.96 10.7
0 1 2 434.86 10.4
0 1 2 452.95 10.9
0 1 -2 457.75 9.5
0 1 2 441.66 7.2
0 1 2 446.76 8
0 1 -2 434.66 9.1
-1 -1 -2 253.47 8.4
1 -1 2 235.88 8
1 -1 2 247.18 7.5
1 -1 2 249.58 5.7
-1 -1 -2 268.37 8.9
1 -1 2 252.27 4.7
-1 -1 -2 244.78 5.1
-1 -1 -2 253.67 5.6
-1 1 -2 251.77 8
-1 1 -2 250.77 7.9
1 1 2 259.57 5.9
-1 1 -2 246.38 5.2
1 1 2 258.47 9.1
1 1 2 249.38 5
-1 1 -2 245.78 4.9
1 1 2 241.68 8.2
2 -1 2 478.65 13.6
2 -1 2 471.15 10.4
-2 -1 -2 489.25 14.4
2 -1 2 458.45 14.3
-2 -1 -2 463.95 9.1
-2 -1 -2 496.75 14.5
2 -1 2 466.35 8.3
-2 -1 -2 474.05 9.5
2 1 2 455.85 8.6
2 1 2 465.45 14.7
2 1 2 473.45 13.6
-2 1 -2 460.35 9
-2 1 -2 500.85 14.3
-2 1 -2 476.25 9.3
2 1 2 474.25 10.4
-2 1 -2 479.65 13.9
3 -1 2 86.19 3.8
-3 -1 -2 84.49 4.5
3 -1 2 78.99 5.4
-3 -1 -2 85.49 4.3
3 1 2 81.19 5.5
-3 1 -2 82.69 4.2
3 1 2 80.49 3.5
-4 -1 -2 309.97 8.9
4 -1 2 298.67 8
4 -1 2 302.17 10.7
-4 -1 -2 300.57 9.5
4 1 2 297.57 8
4 1 2 297.47 10.5
-4 1 -2 305.77 9.3
-4 1 -2 277.37 8.7
-5 -1 -2 490.85 13.7
5 -1 2 476.95 12
-5 -1 -2 478.35 13.9
5 -1 2 466.55 15.8
5 1 2 512.25 16.2
5 1 2 469.25 11.7
-5 1 -2 475.35 13.2
-5 1 -2 461.05 13.3
6 -1 2 15.3 5
6 -1 2 8 2.9
-6 -1 -2 23 5.1
-6 -1 -2 14.8 4.5
6 1 2 18.8 5
-6 1 -2 9.1 3.4
6 1 2 19.7 3.8
-6 1 -2 23.6 4.4
-7 -1 -2 2.3 4.3
-7 -1 -2 7.2 4.2
7 -1 2 -1 2.2
7 -1 2 5.8 5.1
7 1 2 3.8 4.3
-7 1 -2 5.1 3.7
7 1 2 4.5 2.5
-7 1 -2 0.8 3.1
-7 -2 2 123.29 8.8
7 -2 -2 126.99 10.2
7 -2 -2 122.89 7
7 2 -2 113.59 6.9
7 2 -2 107.29 9
-7 2 2 117.59 9.1
6 -2 -2 0.3 1.6
-6 -2 2 3.6 4.1
-6 -2 2 2 4
6 -2 -2 6 3.1
6 2 -2 3.6 2
6 2 -2 8.9 4.1
-6 2 2 4.6 2.2
5 -2 -2 168.48 6.7
5 -2 -2 172.08 8.5
-5 -2 2 171.18 8.6
-5 -2 2 188.68 8.1
5 2 -2 168.58 6.3
-5 2 2 165.68 7.6
5 2 -2 153.38 8
-4 -2 2 7.6 2.4
4 -2 -2 9.7 1.9
4 -2 -2 8.4 2.4
-4 -2 2 7.8 2.6
4 2 -2 7.7 1.7
4 2 -2 13.4 2.5
-4 2 2 9.1 2.4
-3 -2 2 59.79 6.3
-3 -2 2 64.89 3.7
3 -2 -2 63.19 3.2
-3 -2 2 59.09 3.8
-3 2 2 65.89 3.9
3 2 -2 66.49 4.1
3 2 -2 67.89 3
3 2 -2 82.09 7.4
3 2 -2 53.49 5.7
2 -2 -2 341.67 11.2
-2 -2 2 321.57 9.8
-2 -2 2 338.87 6.6
-2 -2 2 332.97 6.6
2 2 -2 338.07 6.1
-2 2 2 353.16 12.1
2 2 -2 348.67 7
2 2 -2 326.47 9.5
2 2 -2 325.77 10.1
-2 2 2 338.47 7.5
-2 2 2 337.37 11.3
1 -2 -2 909.01 14.1
1 -2 -2 913.01 13.2
-1 -2 2 915.21 14.6
1 -2 -2 904.01 18.7
-1 -2 2 915.81 15.2
1 -2 -2 902.41 18
1 2 -2 938.21 14.8
-1 2 2 905.71 19.4
-1 2 2 904.81 18
-1 2 2 898.71 13.6
-1 2 2 942.11 14.6
0 -2 2 1881.31 25.8
0 -2 -2 1936.41 30.6
0 -2 -2 1925.31 25
0 -2 -2 1929.71 25.9
0 -2 2 1868.71 25.6
0 -2 -2 1900.41 30.6
0 2 2 1884.81 29.9
0 2 -2 1878.41 26
0 2 2 1933.21 26.1
0 2 2 1925.01 25.2
0 2 2 1934.31 31
0 2 -2 1905.61 26.1
-1 -2 -2 19.2 1.5
1 -2 2 17 2.6
1 -2 2 15.2 2.4
-1 -2 -2 16.3 1.8
-1 -2 -2 15.6 2.8
1 -2 2 13.8 1.1
-1 -2 -2 16.5 2.9
1 -2 2 18.2 1.7
-1 2 -2 17.5 1.4
1 2 2 13.2 1.3
-1 2 -2 16.4 2.5
1 2 2 18.3 1.9
1 2 2 14 2.7
1 2 2 15.5 3
-1 2 -2 16.2 1.2
-1 2 -2 17.5 2.5
-2 -2 -2 236.18 10
2 -2 2 221.58 5.1
-2 -2 -2 218.78 6.1
-2 -2 -2 220.88 5.6
2 -2 2 232.48 8.9
2 -2 2 237.08 6.6
2 -2 2 229.18 9.7
-2 -2 -2 210.88 9.6
2 2 2 230.48 9.4
-2 2 -2 213.48 5.6
-2 2 -2 222.38 9.3
-2 2 -2 213.28 5.5
2 2 2 220.48 6.7
2 2 2 221.18 10.5
2 2 2 207.88 5.2
-2 2 -2 221.48 9
-3 -2 -2 12.5 2.3
3 -2 2 18 2.2
3 -2 2 9.7 2.3
-3 -2 -2 11.3 2
3 2 2 11.5 1.7
3 2 2 13.9 2.5
-3 2 -2 8.6 1.7
-3 2 -2 12.2 2.1
-4 -2 -2 54.09 4
-4 -2 -2 51.19 4.8
4 -2 2 61.79 5.1
4 -2 2 52.99 3.7
-4 2 -2 55.09 4
4 2 2 52.99 3.4
4 2 2 48 5.3
-4 2 -2 46.6 3.7
-5 -2 -2 24.1 4.7
5 -2 2 27.3 3.5
-5 -2 -2 17.3 4.4
5 -2 2 24.6 5.1
-5 2 -2 24.4 3.6
5 2 2 23.4 3.3
5 2 2 22.3 4.8
-5 2 -2 23.8 4.1
6 -2 2 65.99 5.1
-6 -2 -2 50.69 6.2
6 -2 2 67.49 8.6
-6 -2 -2 55.29 6.4
6 2 2 50.29 5.1
6 2 2 61.19 7.2
-6 2 -2 51.49 5.4
-6 2 -2 53.79 6.1
7 -3 -2 2.7 4.3
7 -3 -2 1 2.6
-7 3 2 7.1 3.1
-6 -3 2 9 3.9
-6 -3 2 8.3 4.6
6 -3 -2 10.1 2.9
6 -3 -2 8.3 3.6
6 3 -2 8.8 3.3
-6 3 2 11.7 2.9
6 3 -2 6.9 2.3
5 -3 -2 18.4 2.9
5 -3 -2 18.7 4
-5 -3 2 24 4.1
-5 -3 2 21.9 4.6
5 3 -2 18.9 2.9
5 3 -2 18 3.8
-5 3 2 21.6 3.7
4 -3 -2 132.79 6.7
-4 -3 2 146.99 6.9
4 -3 -2 148.19 5.6
-4 -3 2 139.69 6.2
4 3 -2 131.29 4.8
4 3 -2 143.09 6.3
-4 3 2 128.99 6.2
-3 -3 2 15.7 2.4
-3 -3 2 14.4 2.5
-3 -3 2 13.5 3.5
3 -3 -2 16 2
3 3 -2 18.4 3.7
3 3 -2 19.4 1.9
3 3 -2 12.1 2
3 3 -2 13 3.3
-3 3 2 14.7 2.3
2 -3 -2 120.49 7.2
-2 -3 2 124.29 3.8
-2 -3 2 116.29 6
-2 -3 2 121.39 3.8
2 -3 -2 119.09 3.9
2 3 -2 126.09 5.6
2 3 -2 119.99 4
2 3 -2 122.29 5.9
2 3 -2 123.39 3.2
-2 3 2 114.79 7.1
-2 3 2 128.99 7.8
-2 3 2 113.79 4.4
1 -3 -2 320.27 10.5
-1 -3 2 321.77 7
1 -3 -2 318.97 6.9
-1 -3 2 329.67 6.4
1 -3 -2 324.87 6.3
1 -3 -2 319.17 10.1
-1 3 2 333.07 7.2
-1 3 2 318.97 6.6
-1 3 2 326.77 10
1 3 -2 323.77 6.3
-1 3 2 333.37 11
1 3 -2 325.97 6.1
0 -3 -2 774.32 12.1
0 -3 -2 778.02 17.1
0 -3 -2 770.32 17
0 -3 -2 847.52 13.4
0 3 2 803.02 16.6
0 3 2 791.62 17.6
0 3 2 809.82 12.3
0 3 2 802.62 13.1
-1 -3 -2 99.19 6.1
1 -3 2 88.79 4.3
1 -3 2 89.29 4.8
1 -3 2 96.69 2.5
1 -3 2 93.99 3.4
-1 -3 -2 96.19 3.2
-1 -3 -2 99.99 3.9
-1 -3 -2 97.09 5.9
-1 3 -2 97.29 2.8
1 3 2 99.59 3.2
1 3 2 102.39 5.9
-1 3 -2 95.99 2.8
-1 3 -2 95.99 4.6
-1 3 -2 102.19 4.8
1 3 2 99.49 5.7
1 3 2 94.99 3.9
-2 -3 -2 66.19 3.3
-2 -3 -2 72.29 4.3
2 -3 2 81.39 5.7
2 -3 2 68.49 4.3
-2 -3 -2 65.89 6.7
2 -3 2 67.49 2.9
-2 -3 -2 73.69 7
2 -3 2 75.19 7
2 3 2 78.09 5.7
2 3 2 69.49 4
2 3 2 66.29 3
2 3 2 78.49 7.7
-2 3 -2 67.79 3.3
-2 3 -2 71.79 5.3
-2 3 -2 71.89 3.3
-2 3 -2 74.69 6.7
3 -3 2 190.58 7.6
-3 -3 -2 188.88 6.4
-3 -3 -2 205.68 7.3
3 -3 2 206.68 6
-3 3 -2 193.88 6.5
-3 3 -2 187.88 6.2
3 3 2 191.18 7.5
3 3 2 205.28 5.8
-4 -3 -2 90.39 6
4 -3 2 84.29 4.5
4 -3 2 82.09 6.1
-4 -3 -2 76.39 5.3
4 3 2 76.19 5.8
-4 3 -2 89.39 4.9
-4 3 -2 77.09 4.6
4 3 2 84.49 4.1
5 -3 2 162.68 9.5
-5 -3 -2 162.88 8.8
-5 -3 -2 156.28 8.8
5 -3 2 158.18 6.6
-5 3 -2 154.88 7.5
5 3 2 165.88 6.6
-5 3 -2 174.28 7.6
5 3 2 143.99 8.9
6 -3 2 38.6 6.9
-6 -3 -2 36.1 5.6
6 -3 2 30.6 4.1
-6 -3 -2 32.1 5.6
-6 3 -2 33.7 4.7
-6 3 -2 33.6 5
6 3 2 38.4 6.6
6 3 2 36 4.5
6 -4 -2 9.1 4
6 -4 -2 8.5 2.5
-6 4 2 8.7 2.6
5 -4 -2 56.29 6.3
5 -4 -2 49.1 4.1
-5 4 2 41.2 4.6
4 -4 -2 13.5 2.3
4 -4 -2 18.2 3.7
-4 4 2 11.4 2.7
3 -4 -2 77.49 3.8
-3 4 2 83.49 4.7
2 -4 -2 186.48 8.8
2 -4 -2 172.88 5.1
-2 4 2 182.78 9
-2 4 2 174.48 5.7
-2 4 2 175.28 9.4
-2 4 2 170.98 5.2
1 -4 -2 378.66 7.4
1 -4 -2 373.96 11.8
1 -4 -2 372.46 11.8
1 -4 -2 393.56 8.3
-1 4 2 388.06 8.4
-1 4 2 381.46 7.7
-1 4 2 396.16 12.7
-1 4 2 380.16 11.7
0 -4 -2 477.95 9.6
0 -4 -2 476.35 13.8
0 -4 -2 465.55 13.2
0 -4 -2 479.35 8.6
0 4 2 468.15 13.4
0 4 2 478.95 9.6
0 4 2 477.75 12.6
0 4 2 476.65 8.7
1 -4 2 52.39 2.8
-1 -4 -2 67.99 6.3
1 -4 2 58.19 2
-1 -4 -2 68.49 4.8
-1 -4 -2 53.89 2.8
1 -4 2 61.39 4.1
-1 -4 -2 64.19 6.1
1 -4 2 58.89 3.8
-1 4 -2 61.69 2.2
1 4 2 61.89 3.7
1 4 2 63.99 5.7
1 4 2 60.49 2.6
1 4 2 61.79 5.7
-1 4 -2 65.99 3.8
-1 4 -2 63.39 2.3
-2 -4 -2 454.45 14.9
-2 -4 -2 462.25 10.6
-2 -4 -2 470.05 9.3
2 -4 2 459.05 8.4
2 -4 2 464.75 10.4
-2 -4 -2 478.75 15.4
2 -4 2 467.75 14.5
2 -4 2 467.05 13.4
-2 4 -2 455.05 9
-2 4 -2 470.45 9.4
-2 4 -2 458.45 13.7
2 4 2 452.85 10.6
2 4 2 460.85 14.4
2 4 2 451.55 15.5
2 4 2 458.45 9
-3 -4 -2 115.89 6.5
3 -4 2 121.89 6.3
-3 -4 -2 124.19 5.5
3 -4 2 121.09 4.6
3 4 2 119.69 4.4
-3 4 -2 120.29 5.2
-3 4 -2 128.59 5
3 4 2 123.69 5.9
-4 -4 -2 9 3.2
4 -4 2 11 2.4
-4 -4 -2 9.3 3.8
4 -4 2 8.6 3.6
4 4 2 10 3.1
-4 4 -2 9.6 2.3
4 4 2 9.1 2.1
-4 4 -2 11.9 2.5
-5 -4 -2 6.5 4.1
5 -4 2 4 2.3
-5 -4 -2 9.8 4.4
5 -4 2 8.7 4.6
5 4 2 7.9 3.1
-5 4 -2 10.2 2.8
-5 4 -2 15.9 3.2
5 4 2 6.3 2.2
-6 -4 -2 43.5 6.7
-6 -4 -2 58.69 6.7
6 -4 2 50.79 5.3
6 -4 2 50.39 7.9
-6 4 -2 46.7 5.5
6 4 2 49.9 6.8
-6 4 -2 41.3 5.2
6 4 2 47.1 5.3
6 -5 -2 10.4 2.9
6 -5 -2 12.3 4.6
5 -5 -2 23.1 3.4
5 -5 -2 30.7 5.4
-5 5 2 31 4.3
4 -5 -2 19.7 2.9
4 -5 -2 20 4.4
-4 5 2 17.5 3.1
3 -5 -2 18.3 2.3
-3 5 2 20.4 2.8
-3 5 2 17.5 2.6
2 -5 -2 116.19 4
-2 5 2 115.99 4.7
-2 5 2 111.59 4.4
1 -5 -2 265.57 7
1 -5 -2 248.98 5.9
1 -5 -2 235.58 10.3
-1 5 2 247.68 6.1
-1 5 2 258.77 6.9
-1 5 2 213.18 11.9
-1 5 2 249.97 11.2
0 -5 -2 21.6 1.9
0 -5 -2 24.2 2.9
0 5 2 31.8 2.7
0 5 2 25.8 1.7
-1 -5 -2 69.69 4.8
-1 -5 -2 68.99 3.1
1 5 2 76.89 3
1 5 2 71.39 3.7
-2 -5 -2 12.8 4.6
4 -5 2 64.19 10.8
4 -5 2 82.39 6.7
-4 5 -2 66.59 8.2
5 -5 2 48.9 4.9
5 -5 2 44.4 7.3
-5 5 -2 57.19 4.7
-5 5 -2 48.4 5.1
6 -5 2 26.9 4.4
6 -5 2 31.3 8
-6 5 -2 37.3 5.3
-6 5 -2 25.1 4.7
6 -6 -2 34.5 4.7
5 -6 -2 12.9 3.1
5 -6 -2 16.4 5.2
-5 6 2 15.5 3.1
4 -6 -2 20 5.2
4 -6 -2 22.3 3.2
-4 6 2 21.8 3.9
-4 6 2 23 3.7
-7 0 3 67.99 7.5
7 0 -3 77.49 8.8
7 0 -3 93.79 6.1
-6 0 3 18.4 4.2
6 0 -3 17.3 4.3
6 0 -3 15 2.7
-5 0 3 309.97 10.4
5 0 -3 335.17 9.3
5 0 -3 323.07 11.5
4 0 -3 234.78 6.9
-4 0 3 235.38 8.2
4 0 -3 241.78 8.4
-3 0 3 794.92 14.1
3 0 -3 761.62 13.4
2 0 -3 2.7 1.4
-2 0 3 1.6 1
-2 0 3 3.3 1.6
2 0 -3 1.6 0.6
-2 0 3 0.8 1.6
2 0 -3 1.9 0.8
1 0 -3 293.27 8.9
-1 0 3 281.17 8.6
-1 0 3 293.87 9.5
-1 0 3 295.67 6.4
1 0 -3 275.47 9.1
1 0 -3 289.57 5.5
-1 0 3 286.47 5.8
1 0 -3 290.97 6.3
0 0 -3 29.1 1.8
0 0 3 24.2 2.8
0 0 -3 32.4 3.6
0 0 -3 30.2 1.5
0 0 3 31.7 1.9
0 0 3 36.4 3.6
0 0 -3 22.3 2.9
0 0 3 30.2 1.5
1 0 3 0.1 0.9
-1 0 -3 0.9 1
1 0 3 -0.6 1.7
1 0 3 -1.4 0.9
-1 0 -3 0.4 0.7
-1 0 -3 0.1 1.5
1 0 3 -1.3 1.8
-1 0 -3 -2.6 1.3
2 0 3 701.63 14
-2 0 -3 676.13 12.1
-2 0 -3 683.93 12.6
2 0 3 684.13 19.3
-2 0 -3 677.23 18.6
2 0 3 664.33 11.6
2 0 3 702.03 18
-2 0 -3 693.03 18.9
-3 0 -3 17.9 2.3
-3 0 -3 25.5 3
3 0 3 18.8 2.1
3 0 3 21 3.2
-4 0 -3 62.89 4.3
4 0 3 58.19 3.7
-4 0 -3 59.49 4.5
4 0 3 67.49 5.7
5 0 3 2.2 2.1
5 0 3 6.7 3.8
-5 0 -3 1.4 2.9
-5 0 -3 1.2 2.7
-6 0 -3 99.19 7.5
6 0 3 80.79 5.9
-6 0 -3 96.19 7.3
6 0 3 104.49 9.6
7 -1 -3 34.6 4.8
7 -1 -3 33.5 6.1
-7 -1 3 35.4 6.2
7 1 -3 47.7 6.7
-7 1 3 38.2 5.9
7 1 -3 36.4 4.5
6 -1 -3 82.39 5.3
6 -1 -3 80.09 8.1
-6 -1 3 73.49 7.1
6 1 -3 83.29 8
-6 1 3 83.09 6.8
6 1 -3 81.19 5
-5 -1 3 48.1 4.8
5 -1 -3 57.09 4.2
5 -1 -3 51.49 5.6
5 1 -3 50.99 5.5
-5 1 3 52.19 5.2
5 1 -3 55.19 4.1
4 -1 -3 34.8 3.1
-4 -1 3 33.6 3.8
4 1 -3 36.6 4
4 1 -3 32.5 2.9
-4 1 3 34.2 3.8
-3 -1 3 0.9 1.7
-3 -1 3 3.6 2.3
3 -1 -3 1.6 1.2
3 1 -3 3 1.6
3 1 -3 1.6 1
3 1 -3 -0.7 1.9
-3 1 3 3.1 1.8
-2 -1 3 210.08 5.2
2 -1 -3 201.98 5.6
-2 -1 3 204.18 8
-2 -1 3 205.98 9.2
2 -1 -3 215.48 8.8
2 -1 -3 205.78 5
2 1 -3 205.58 4.7
-2 1 3 219.08 6.2
-2 1 3 206.48 8.8
-2 1 3 205.28 9.3
2 1 -3 200.88 7.8
-1 -1 3 1080.39 15.9
-1 -1 3 1092.29 20.2
-1 -1 3 1086.69 19.1
-1 -1 3 1082.89 15.4
1 -1 -3 1098.19 16.8
1 -1 -3 1089.09 15.7
1 -1 -3 1115.69 22
1 -1 -3 1107.59 21.3
1 1 -3 1095.39 19.4
-1 1 3 1071.39 21.1
1 1 -3 1100.29 20
1 1 -3 1113.39 15.8
-1 1 3 1101.09 22.3
-1 1 3 1065.29 16.1
-1 1 3 1080.69 17.2
1 1 -3 1099.59 15
0 -1 3 989.9 18.3
0 -1 3 966.1 17.9
0 -1 -3 1015.3 20.5
0 -1 3 1039.6 15.1
0 -1 -3 1010.7 15.6
0 -1 -3 987.7 14.6
0 -1 -3 989.4 20
0 -1 3 969.2 13.8
0 1 3 1009 15.9
0 1 -3 1009.7 18.9
0 1 3 995.2 20
0 1 3 980.4 14.6
0 1 -3 995.4 14.6
0 1 -3 981.5 18.4
0 1 3 979.3 20.2
0 1 -3 992.7 14
-1 -1 -3 60.69 6.1
-1 -1 -3 58.09 3
1 -1 3 61.59 3.1
1 -1 3 58.49 4.3
-1 -1 -3 43.4 4.6
1 -1 3 62.39 4.8
-1 -1 -3 63.09 2.7
1 -1 3 57.99 2.2
1 1 3 55.99 3
-1 1 -3 54.69 5
1 1 3 54.99 2.5
-1 1 -3 59.59 2.8
1 1 3 70.79 5.1
-1 1 -3 66.49 4.7
-1 1 -3 60.19 2.5
1 1 3 53.39 5.4
-2 -1 -3 493.75 9.9
2 -1 3 529.35 15.3
2 -1 3 521.55 16.4
2 -1 3 501.75 9.5
2 -1 3 518.25 11.4
-2 -1 -3 529.95 16.4
-2 -1 -3 515.65 16
-2 -1 -3 510.85 10.8
-2 1 -3 507.65 15.4
-2 1 -3 526.95 10.2
2 1 3 543.95 15.9
-2 1 -3 530.35 10.5
2 1 3 518.65 11.6
2 1 3 515.25 17.3
-2 1 -3 551.54 16
2 1 3 505.35 9.7
3 -1 3 142.59 4.9
-3 -1 -3 142.69 5.5
-3 -1 -3 153.68 6
3 -1 3 147.09 6.7
3 1 3 143.09 6.8
3 1 3 141.89 5
-3 1 -3 142.19 5.5
-3 1 -3 142.59 5.8
4 -1 3 233.28 9.6
-4 -1 -3 256.77 8.3
4 -1 3 251.37 7.3
-4 -1 -3 251.87 8.9
4 1 3 240.98 7.2
-4 1 -3 241.98 8.7
4 1 3 257.77 10
-4 1 -3 251.97 8.2
-5 -1 -3 30.9 4.4
-5 -1 -3 36 5.1
5 -1 3 27 4.9
5 -1 3 36.6 4.1
5 1 3 43.2 5.9
-5 1 -3 30.3 4.7
5 1 3 33.8 3.8
-5 1 -3 31.6 4.2
6 -1 3 -0.4 3.6
-6 -1 -3 5.5 2.9
-6 -1 -3 2.3 3.1
6 -1 3 1.9 2.2
6 1 3 8 3.5
-6 1 -3 1.5 2.6
-6 1 -3 0 2.4
6 1 3 1 1.9
7 -2 -3 178.18 11.4
7 -2 -3 181.68 8.6
-7 -2 3 175.68 10.6
-7 2 3 160.88 9.9
7 2 -3 178.68 8.1
7 2 -3 175.48 11.9
6 -2 -3 49.1 6.6
-6 -2 3 48.6 6.6
6 -2 -3 43.5 4.8
6 2 -3 47.3 6.3
6 2 -3 44 4.3
-6 2 3 59.19 6
5 -2 -3 277.17 9
-5 -2 3 277.97 10
5 -2 -3 278.37 11
5 2 -3 270.27 8
5 2 -3 246.28 10
-5 2 3 278.37 9.7
-4 -2 3 48.8 4.4
4 -2 -3 51.59 3.5
4 2 -3 53.79 3.2
4 2 -3 49.6 3.9
-4 2 3 53.39 4
-3 -2 3 210.68 10
-3 -2 3 224.38 6.7
3 -2 -3 212.48 6.2
-3 2 3 224.78 7
3 2 -3 217.68 5.6
3 2 -3 219.38 9.5
3 2 -3 201.68 10.1
3 2 -3 220.88 6.6
-2 -2 3 110.19 5.7
2 -2 -3 113.39 4.3
-2 -2 3 108.69 6.6
2 -2 -3 105.49 6.6
-2 -2 3 112.99 3.5
2 -2 -3 104.79 3.6
-2 2 3 104.19 4
2 2 -3 108.79 3.1
2 2 -3 107.39 5.4
-2 2 3 106.09 4.6
-2 2 3 97.79 6.5
-2 2 3 98.89 7
2 2 -3 105.49 5.8
-1 -2 3 484.85 10.2
1 -2 -3 470.15 9.4
-1 -2 3 452.85 7.3
1 -2 -3 475.25 13.1
-1 -2 3 466.55 10.7
1 -2 -3 461.65 8.3
1 -2 -3 485.55 13.8
-1 -2 3 474.25 7.8
1 2 -3 484.75 7.7
-1 2 3 476.65 13.1
1 2 -3 482.35 10.4
-1 2 3 484.45 9.8
1 2 -3 477.95 10.3
1 2 -3 480.65 7.3
-1 2 3 495.75 14
-1 2 3 471.15 8.7
0 -2 -3 793.82 12.5
0 -2 -3 796.52 13.5
0 -2 -3 787.12 18.2
0 -2 3 784.82 11.1
0 -2 3 799.42 14.7
0 -2 3 802.22 12
0 -2 3 778.72 14.5
0 -2 -3 812.32 18.1
0 2 -3 776.42 11.6
0 2 -3 767.22 11.1
0 2 3 804.22 13.8
0 2 3 754.12 17.3
0 2 3 791.22 12.5
0 2 3 785.02 18.3
0 2 -3 777.32 14.8
0 2 -3 791.12 15.4
1 -2 3 535.85 8.6
-1 -2 -3 534.45 9.7
1 -2 3 542.05 14.3
-1 -2 -3 536.65 10.6
-1 -2 -3 550.54 15.2
1 -2 3 536.85 9.9
1 -2 3 538.55 12.8
-1 -2 -3 535.75 15.9
1 2 3 527.25 9.7
-1 2 -3 524.35 13.3
-1 2 -3 538.05 13.5
1 2 3 539.85 11
1 2 3 516.25 15.2
-1 2 -3 526.05 9.5
1 2 3 557.14 15.2
-1 2 -3 539.95 9
2 -2 3 89.99 6.5
-2 -2 -3 74.49 7.3
2 -2 3 77.69 3.1
-2 -2 -3 83.19 8
2 -2 3 72.09 7
-2 -2 -3 84.69 3.9
2 -2 3 74.19 4.9
-2 -2 -3 70.49 4.4
-2 2 -3 82.79 7.5
2 2 3 68.89 7.6
2 2 3 84.49 3.6
-2 2 -3 82.49 3.9
-2 2 -3 80.89 3.7
2 2 3 73.39 4.7
-2 2 -3 87.39 7.7
2 2 3 80.19 7.6
3 -2 3 125.79 6.2
-3 -2 -3 121.69 5.2
3 -2 3 119.99 4.5
-3 -2 -3 118.89 5.8
3 2 3 126.79 6.4
-3 2 -3 127.39 5.4
-3 2 -3 121.29 4.9
3 2 3 123.29 4.8
-4 -2 -3 18.8 3.3
4 -2 3 20 2.5
-4 -2 -3 15.2 2.7
4 -2 3 16.9 3.6
4 2 3 18.6 3.7
-4 2 -3 17.7 3
4 2 3 19.7 2.5
-4 2 -3 20.5 3.1
-5 -2 -3 84.39 6.8
-5 -2 -3 85.39 6.6
5 -2 3 85.09 5.5
5 -2 3 76.49 7
-5 2 -3 78.29 5.9
5 2 3 86.49 7.7
5 2 3 89.79 5.1
-5 2 -3 82.39 5.7
6 -2 3 30.3 6.2
6 -2 3 16.3 3.7
-6 -2 -3 16.6 4.7
-6 -2 -3 14.9 4.5
-6 2 -3 13.3 3.6
6 2 3 13.9 3.2
6 2 3 16.6 5
-6 2 -3 12.5 3.4
7 -3 -3 37.7 5
7 -3 -3 39.6 6.3
-7 3 3 29.9 5.7
6 -3 -3 81.89 8.1
6 -3 -3 85.19 5.7
6 3 -3 86.59 9
-6 3 3 72.09 6.1
5 -3 -3 5.5 2.1
-5 -3 3 -0.2 3.3
5 -3 -3 1.5 2.7
5 3 -3 4.2 2.5
-5 3 3 0.2 2.3
5 3 -3 0.8 1.4
4 -3 -3 12.3 2.2
-4 -3 3 12 3
4 3 -3 10.7 2.2
-4 3 3 14.5 2.8
4 3 -3 13.5 2
3 -3 -3 59.69 3.3
-3 -3 3 67.89 9
-3 -3 3 66.99 3.9
3 3 -3 58.19 7
3 3 -3 62.39 7.1
-3 3 3 64.29 3.9
3 3 -3 62.29 3.6
3 3 -3 59.79 2.7
2 -3 -3 95.59 4.5
2 -3 -3 91.09 3.7
-2 -3 3 97.99 5.4
-2 -3 3 85.19 5.7
2 -3 -3 94.09 6.5
-2 -3 3 100.99 3.5
-2 3 3 91.79 7
2 3 -3 95.09 5.3
-2 3 3 104.29 7
2 3 -3 93.49 2.7
-2 3 3 93.59 4.2
2 3 -3 97.59 5
-2 3 3 91.99 4.7
2 3 -3 93.99 3.4
1 -3 -3 17.5 3.1
1 -3 -3 19.7 1.6
-1 -3 3 25 2.1
1 -3 -3 27.1 4.1
-1 -3 3 25.5 2.7
1 -3 -3 21.2 2.5
-1 3 3 15.7 3.1
-1 3 3 22.1 1.7
-1 3 3 19.3 2.2
-1 3 3 20.1 3.2
1 3 -3 25.5 2.3
0 -3 3 441.46 8.7
0 -3 -3 433.26 13.3
0 -3 -3 441.26 13.3
0 -3 -3 446.66 8.5
0 -3 3 438.86 9
0 -3 -3 448.06 9.6
0 3 3 443.56 9.5
0 3 -3 439.16 9.1
0 3 3 447.76 8.6
0 3 3 446.26 12.9
0 3 -3 443.46 9.3
0 3 3 439.46 13.7
-1 -3 -3 73.09 7.1
1 -3 3 74.09 3.5
1 -3 3 79.19 4.7
-1 -3 -3 68.19 6.6
-1 -3 -3 73.59 3.2
1 -3 3 78.59 6.5
-1 -3 -3 73.29 4.1
1 -3 3 71.59 2.4
-1 3 -3 66.29 4.8
1 3 3 81.79 7.3
1 3 3 83.09 6.3
-1 3 -3 73.89 2.8
-1 3 -3 75.89 3
1 3 3 69.49 3.2
1 3 3 71.19 3.9
-1 3 -3 71.49 4.8
2 -3 3 441.76 10.7
2 -3 3 433.16 14.5
2 -3 3 441.66 13.5
-2 -3 -3 458.25 10.9
-2 -3 -3 432.36 9.4
-2 -3 -3 444.66 15.9
2 -3 3 437.56 8.3
-2 -3 -3 436.46 15.8
-2 3 -3 443.46 14.1
-2 3 -3 429.66 9.3
2 3 3 455.25 11.4
2 3 3 442.26 16.6
-2 3 -3 442.76 14.2
-2 3 -3 440.66 8.9
2 3 3 422.16 14.9
2 3 3 439.46 9
-3 -3 -3 93.59 5.9
3 -3 3 111.09 6.2
-3 -3 -3 97.59 4.9
3 -3 3 102.79 4.3
3 3 3 118.39 6.2
-3 3 -3 95.99 4.6
-3 3 -3 106.69 5
3 3 3 92.69 4.3
4 -3 3 251.67 7.8
-4 -3 -3 253.37 10
-4 -3 -3 247.18 8.9
4 -3 3 261.57 10.9
-4 3 -3 254.27 8.7
4 3 3 273.07 10.8
-4 3 -3 259.67 8.9
4 3 3 269.37 7.8
-5 -3 -3 111.39 7.6
-5 -3 -3 101.89 8.1
5 -3 3 96.69 8.4
5 -3 3 96.99 5.7
-5 3 -3 95.59 6.3
5 3 3 100.19 5.5
-5 3 -3 111.59 6.4
5 3 3 103.49 8.1
6 -3 3 55.39 5.2
6 -3 3 51.19 7.4
-6 -3 -3 61.09 6.9
-6 -3 -3 52.19 7.4
6 3 3 52.39 7.2
-6 3 -3 57.89 6.2
6 3 3 55.79 5.3
-6 3 -3 49.99 6.1
6 -4 -3 27.4 5.4
6 -4 -3 30 4
-6 4 3 29.1 4.5
5 -4 -3 131.79 6.2
5 -4 -3 126.59 8.3
-5 4 3 122.19 6.8
4 -4 -3 7.8 2
-4 4 3 9.7 2.5
3 -4 -3 279.37 7.5
-3 4 3 279.47 8.3
-3 4 3 283.47 8.2
2 -4 -3 6 2
-2 4 3 13.4 2.3
-2 4 3 16.5 2.1
1 -4 -3 425.36 14.5
1 -4 -3 438.96 9.8
1 -4 -3 434.16 8.7
1 -4 -3 466.35 14.5
-1 4 3 445.46 9.2
-1 4 3 448.86 10.2
-1 4 3 440.46 14.9
-1 4 3 463.25 13.7
0 -4 -3 782.82 19.3
0 -4 -3 728.63 19
0 -4 -3 744.43 12.7
0 -4 -3 760.72 14.2
0 4 3 724.33 18.8
0 4 3 748.13 14
0 4 3 757.12 12.7
0 4 3 751.12 18.4
-1 -4 -3 42 6
-1 -4 -3 39.2 2.9
-1 -4 -3 53.79 6.6
-1 -4 -3 40.6 3.8
1 4 3 43.6 2.7
1 4 3 37.6 5.3
1 4 3 39.6 4
1 4 3 43.1 5.4
2 -4 3 176.98 5
-2 -4 -3 174.08 7.5
2 -4 3 172.98 6.4
-2 -4 -3 171.58 5.6
-2 4 -3 186.18 5.5
2 4 3 184.68 5.4
-2 4 -3 174.38 5.1
2 4 3 179.38 6.8
-3 -4 -3 173.18 8.4
3 -4 3 162.58 7.6
-3 -4 -3 172.68 6.6
3 -4 3 174.28 5.7
3 4 3 177.38 5.9
3 4 3 181.28 7.5
-3 4 -3 171.18 6
-3 4 -3 163.68 6.1
-4 -4 -3 4.4 3.4
-4 -4 -3 4.2 3.9
4 -4 3 7.9 2.5
4 -4 3 2.6 4.3
-4 4 -3 12 2.5
-4 4 -3 9.1 2.6
4 4 3 8.7 2
4 4 3 11.3 3.5
5 -4 3 6.2 2.6
-5 -4 -3 12.6 4.8
-5 -4 -3 5.9 3.9
5 -4 3 7.7 4.9
-5 4 -3 6.5 2.6
5 4 3 6 2.3
5 4 3 8.4 3.5
-5 4 -3 7.8 2.7
6 -4 3 78.49 5.8
-6 -4 -3 66.59 7.9
6 -4 3 72.69 9
-6 -4 -3 77.19 7.5
-6 4 -3 76.09 6.2
6 4 3 82.09 9
-6 4 -3 81.19 7
6 4 3 78.29 5.6
6 -5 -3 5.2 4.1
6 -5 -3 0.3 2.1
-6 5 3 3.3 2.1
5 -5 -3 9.8 4.5
5 -5 -3 14.5 2.9
-5 5 3 15 3.5
4 -5 -3 48.8 4.3
-4 5 3 43.6 4.6
-4 5 3 46.5 4.7
3 -5 -3 176.58 6
-3 5 3 185.48 6.7
-3 5 3 173.68 6.8
2 -5 -3 347.67 8.2
2 -5 -3 350.06 9.1
-2 5 3 347.07 9.3
-2 5 3 347.27 8.7
1 -5 -3 1.9 2.4
1 -5 -3 6.5 2.8
1 -5 -3 5.6 1.3
1 -5 -3 -1 2.4
-1 5 3 4 1.3
-1 5 3 5.1 1.5
-1 5 3 4.6 2.9
-1 5 3 3.6 2.1
0 -5 -3 44.8 2.8
0 -5 -3 53.99 4.4
0 -5 -3 51.49 6.5
0 -5 -3 59.59 6.5
0 5 3 53.69 2.7
0 5 3 48.5 3.4
0 5 3 57.39 5.8
0 5 3 57.79 6.7
-1 -5 -3 2 1.3
-1 -5 -3 4.3 3.1
1 5 3 2.9 1.6
1 5 3 1.1 1
-2 -5 -3 16.2 3.7
-2 -5 -3 17.7 2.5
2 5 3 16.5 2
2 5 3 18.1 2.9
-3 -5 -3 66.59 5.1
-3 -5 -3 74.69 6.5
3 5 3 67.69 4
3 5 3 61.89 5.5
-4 -5 -3 339.57 16.8
5 -6 -3 64.19 7.5
5 -6 -3 68.89 5.7
-5 6 3 63.49 5.7
-5 6 3 84.59 5.3
4 -6 -3 19.9 3.2
-4 6 3 21.9 3.6
-4 6 3 15.8 3.1
3 -6 -3 327.47 8.8
-3 6 3 320.57 9.4
-3 6 3 330.07 9.6
7 0 -4 13.2 4.2
7 0 -4 3.3 2.1
-7 0 4 7.4 4.4
6 0 -4 1.6 1.6
-6 0 4 5.7 3.3
6 0 -4 4.7 3.7
-5 0 4 87.99 6.5
5 0 -4 81.79 4.9
5 0 -4 85.39 6.5
4 0 -4 6.2 1.5
-4 0 4 7.8 2.5
3 0 -4 3.5 1.1
-3 0 4 10 2.3
2 0 -4 586.24 15.9
-2 0 4 607.34 16.9
-2 0 4 599.84 15.6
-2 0 4 586.84 10.9
-2 0 4 591.84 11.7
2 0 -4 575.94 10.3
2 0 -4 584.54 11.2
1 0 -4 1379.76 19.8
1 0 -4 1427.06 21
-1 0 4 1405.86 25.7
-1 0 4 1384.56 27
-1 0 4 1384.76 20
1 0 -4 1410.66 26.6
1 0 -4 1394.16 26.3
-1 0 4 1405.86 21.2
0 0 -4 229.78 9.3
0 0 4 242.68 6.5
0 0 4 251.47 9.5
0 0 4 232.68 5.4
0 0 -4 229.08 5.4
0 0 -4 238.78 6.1
0 0 4 241.38 9.1
0 0 -4 234.68 9.3
-1 0 -4 343.97 8.2
-1 0 -4 339.07 7.5
-1 0 -4 341.07 12.1
1 0 4 353.46 12.1
-1 0 -4 342.97 12.7
1 0 4 343.67 7.2
1 0 4 361.06 8.6
1 0 4 359.66 12.7
-2 0 -4 405.66 10.1
-2 0 -4 401.46 18.6
2 0 4 380.66 8.4
2 0 4 376.66 10.4
2 0 4 368.16 16.7
-2 0 -4 403.36 9.1
-2 0 -4 414.26 17.3
2 0 4 386.06 18.8
3 0 4 1 1.2
-3 0 -4 2 1.2
-3 0 -4 2.3 1.5
3 0 4 -0.9 1.5
-4 0 -4 20.7 3.4
-4 0 -4 13.1 2.5
4 0 4 12.9 3.7
4 0 4 14.6 2.3
-5 0 -4 91.19 6.2
5 0 4 73.29 7.6
5 0 4 79.79 5.1
-5 0 -4 77.99 6.1
-6 0 -4 31.8 5.6
6 0 4 34.8 6.5
-6 0 -4 41.3 5.8
6 0 4 41.3 4.7
-7 -1 4 29.4 5.7
7 -1 -4 47.5 6.8
7 -1 -4 41.4 5.1
7 1 -4 41.6 4.9
7 1 -4 46.3 7.1
-7 1 4 40.4 5.6
6 -1 -4 52.79 6.4
6 -1 -4 56.49 4.7
-6 -1 4 74.39 7.2
6 1 -4 67.79 5
6 1 -4 58.09 7.3
-6 1 4 58.99 6.2
5 -1 -4 31 3.5
-5 -1 4 28.6 4.6
5 1 -4 24.1 4.4
5 1 -4 32.4 3.6
-5 1 4 29 4.4
-4 -1 4 469.95 11.7
4 -1 -4 483.85 11
-4 1 4 487.45 11.9
4 1 -4 484.85 10.5
3 -1 -4 872.31 15
-3 -1 4 894.81 15.6
3 1 -4 845.72 14.4
-3 1 4 872.51 16.1
2 -1 -4 96.09 4.1
-2 -1 4 85.19 6.6
-2 -1 4 85.39 5.6
-2 -1 4 79.89 3.8
-2 -1 4 92.39 4.2
2 -1 -4 95.39 6.1
2 -1 -4 89.89 3.4
2 1 -4 95.79 5.8
-2 1 4 87.59 3.8
2 1 -4 94.29 3.7
2 1 -4 96.29 3.3
-2 1 4 85.99 6
-2 1 4 93.09 7.1
-2 1 4 91.99 4.1
1 -1 -4 2187.08 31.1
1 -1 -4 2227.78 37.6
1 -1 -4 2164.68 29.7
-1 -1 4 2196.88 34.6
1 -1 -4 2211.68 37.9
-1 -1 4 2195.98 30.2
-1 -1 4 2149.69 29.2
-1 -1 4 2223.88 36.4
1 1 -4 2230.38 29
1 1 -4 2232.48 35.6
-1 1 4 2248.28 38.8
1 1 -4 2199.28 35.5
-1 1 4 2197.68 36.8
-1 1 4 2197.18 30.1
-1 1 4 2211.08 31.4
1 1 -4 2180.58 29.9
0 -1 -4 239.88 6.4
0 -1 4 245.98 8.5
0 -1 -4 239.18 5.8
0 -1 -4 242.68 9.9
0 -1 4 238.08 6.1
0 -1 4 247.08 9
0 -1 4 239.68 5.3
0 -1 -4 242.08 9.7
0 1 -4 241.18 5.9
0 1 -4 232.58 8.8
0 1 4 228.48 9.3
0 1 4 234.68 6.6
0 1 4 247.68 9.8
0 1 -4 240.38 5.3
0 1 4 237.58 5.7
0 1 -4 229.78 9
-1 -1 -4 891.61 21.7
-1 -1 -4 921.31 15.8
1 -1 4 895.41 15.6
1 -1 4 879.21 13.7
1 -1 4 882.01 21.5
-1 -1 -4 878.51 14.6
1 -1 4 898.91 20.1
-1 -1 -4 897.71 22.8
1 1 4 884.81 21.9
1 1 4 875.11 16.1
1 1 4 915.01 21.6
-1 1 -4 912.71 21.2
-1 1 -4 900.21 15.2
-1 1 -4 874.01 14.1
-1 1 -4 887.61 20.7
1 1 4 852.71 14.5
2 -1 4 120.09 5.8
-2 -1 -4 129.09 4.9
2 -1 4 127.49 4.3
2 -1 4 132.89 9
-2 -1 -4 129.59 6
2 -1 4 111.49 7.3
2 1 4 124.69 6.1
-2 1 -4 108.89 7.7
-2 1 -4 136.59 5.6
-2 1 -4 120.19 8
2 1 4 111.79 4.4
-2 1 -4 123.99 4.7
3 -1 4 277.77 10
-3 -1 -4 286.27 9.1
3 -1 4 270.67 7.2
-3 -1 -4 278.97 8.3
-3 1 -4 264.17 8
3 1 4 271.97 7.5
3 1 4 273.77 9.8
-3 1 -4 264.67 8.3
-4 -1 -4 380.56 11.6
4 -1 4 370.56 12.7
-4 -1 -4 401.96 11.2
4 -1 4 385.26 9.7
-4 1 -4 383.66 11.3
-4 1 -4 376.56 10.6
4 1 4 386.06 13.3
4 1 4 393.76 9.9
5 -1 4 23.2 3.4
-5 -1 -4 20.3 3.8
-5 -1 -4 25.9 4.3
5 -1 4 19.7 4.4
5 1 4 23.1 5
-5 1 -4 28.4 4.4
-5 1 -4 19.4 3.9
5 1 4 24.6 3.4
-6 -1 -4 30.8 5.4
6 -1 4 36.7 4.8
6 -1 4 28.3 6.2
-6 -1 -4 36.2 5.5
6 1 4 29 4
-6 1 -4 30.7 5.1
-6 1 -4 35.5 5
6 1 4 28.4 5.9
-7 -2 4 13 4.6
7 -2 -4 24.4 4.1
7 -2 -4 17.2 5.5
7 2 -4 25 3.8
7 2 -4 39.7 6.2
-7 2 4 23.7 4.9
6 -2 -4 20.1 3.6
6 -2 -4 24.7 4.8
-6 -2 4 19 4.8
-6 2 4 19.2 3.8
6 2 -4 20.3 4.2
6 2 -4 24.4 3.6
-5 -2 4 25.2 4.2
5 -2 -4 32.4 3.6
-5 2 4 27.5 4.3
5 2 -4 19.9 3.1
5 2 -4 29.9 4.5
-4 -2 4 332.97 9.4
4 -2 -4 347.77 9.2
4 2 -4 335.57 9.8
-4 2 4 359.16 10.1
4 2 -4 348.37 8.4
-3 -2 4 33.4 5.9
3 -2 -4 30 2.4
-3 -2 4 27.1 3
-3 -2 4 36.6 5.3
3 2 -4 30.5 2.1
3 2 -4 31.3 4.7
3 2 -4 27.1 4.8
-3 2 4 31.7 3.3
-3 2 4 27.2 2.9
-2 -2 4 341.77 11.9
-2 -2 4 333.27 7.2
-2 -2 4 315.97 7.1
-2 -2 4 328.57 10.7
2 -2 -4 319.87 7.3
2 -2 -4 331.77 8.5
2 -2 -4 322.47 12.9
-2 2 4 324.27 14.1
2 2 -4 323.27 6.5
2 2 -4 321.97 7.1
-2 2 4 311.77 8.6
2 2 -4 329.07 10.4
-2 2 4 318.17 14
-2 2 4 313.67 8
1 -2 -4 137.79 7.6
1 -2 -4 138.49 5
-1 -2 4 147.49 4.2
1 -2 -4 138.79 4.3
-1 -2 4 136.19 5.7
-1 -2 4 143.29 7
-1 -2 4 139.69 3.9
1 -2 -4 135.79 7.5
-1 2 4 139.79 7.3
1 2 -4 143.09 3.5
-1 2 4 144.69 8.2
1 2 -4 141.59 3.9
1 2 -4 144.49 6.2
1 2 -4 141.09 6
-1 2 4 141.19 5.3
-1 2 4 139.09 4.5
0 -2 -4 500.85 15.3
0 -2 4 503.15 9.4
0 -2 -4 510.45 15.3
0 -2 4 487.85 12.2
0 -2 4 514.75 12.7
0 -2 4 500.85 8.3
0 -2 -4 507.35 10.7
0 -2 -4 489.65 9.6
0 2 4 493.95 10.8
0 2 4 502.15 14.7
0 2 -4 494.75 8.4
0 2 4 517.95 15.6
0 2 -4 498.25 13.2
0 2 -4 499.25 12.8
0 2 4 495.45 9.6
0 2 -4 504.05 9.1
-1 -2 -4 34.5 5.4
-1 -2 -4 38.7 2.5
1 -2 4 33.9 2.7
1 -2 4 35.5 2
-1 -2 -4 48.6 6.1
-1 -2 -4 37.7 3
1 -2 4 44.2 4.7
1 -2 4 37.3 5
1 2 4 39.9 2.6
-1 2 -4 42.7 2.6
-1 2 -4 39.4 2.2
-1 2 -4 40.4 4.8
-1 2 -4 37 4.5
1 2 4 37.7 5.4
1 2 4 39.3 5.5
1 2 4 37 3.1
2 -2 4 318.87 12.1
2 -2 4 310.47 7.1
2 -2 4 311.87 9.3
-2 -2 -4 304.67 8.2
-2 -2 -4 313.87 9.2
2 -2 4 314.47 13.7
2 2 4 305.07 7.6
-2 2 -4 306.97 8.1
2 2 4 317.57 9.8
-2 2 -4 320.97 12.6
-2 2 -4 314.37 13
-2 2 -4 318.67 7.8
-3 -2 -4 64.89 4.7
3 -2 4 62.79 4.8
-3 -2 -4 65.59 4.1
3 -2 4 63.69 3.7
-3 2 -4 70.19 4.2
-3 2 -4 66.89 3.9
3 2 4 65.69 3.9
3 2 4 62.19 4.9
-4 -2 -4 227.98 8.5
4 -2 4 242.28 10.8
4 -2 4 239.38 7.4
-4 -2 -4 223.88 9.6
-4 2 -4 222.48 8.3
-4 2 -4 219.58 8.6
4 2 4 226.98 10.5
4 2 4 225.68 7.4
5 -2 4 43.1 4.3
5 -2 4 39.1 5.8
-5 -2 -4 43 6
-5 -2 -4 35.8 5
-5 2 -4 39.2 5
5 2 4 40.6 4.1
5 2 4 45.6 6.3
-5 2 -4 51.89 5.5
-6 -2 -4 43.4 6.6
6 -2 4 39.3 6.6
6 -2 4 31.6 4.3
-6 -2 -4 25.3 5.7
6 2 4 29.3 5.7
-6 2 -4 47.9 5.7
-6 2 -4 32.4 4.9
6 2 4 48.4 5.2
6 -3 -4 93.09 8.4
6 -3 -4 109.09 6.5
-6 3 4 119.79 7.5
5 -3 -4 56.79 4.4
-5 3 4 61.09 6
4 -3 -4 230.68 7.3
-4 -3 4 218.98 7.7
4 3 -4 214.98 6.3
4 3 -4 220.08 7.7
-4 3 4 228.58 8.1
-3 -3 4 782.02 14.1
3 -3 -4 787.82 14.7
3 3 -4 781.42 14.3
-3 3 4 778.92 15.2
3 3 -4 796.02 12.9
-3 3 4 772.32 15.7
-2 -3 4 202.78 5.4
2 -3 -4 193.88 5.7
2 -3 -4 198.78 6.6
-2 -3 4 193.68 8.3
-2 -3 4 210.18 5.2
-2 -3 4 203.68 9.9
-2 3 4 199.18 6.8
2 3 -4 213.08 8.3
-2 3 4 200.48 6.3
2 3 -4 196.78 7.9
2 3 -4 200.08 4.4
-1 -3 4 596.14 9.2
1 -3 -4 599.34 12.4
1 -3 -4 596.44 17.5
1 -3 -4 626.64 18
1 -3 -4 597.14 11
-1 -3 4 607.74 13.4
-1 -3 4 599.24 12.3
-1 -3 4 597.04 9.7
1 3 -4 597.94 9.3
1 3 -4 606.94 9.2
-1 3 4 605.44 18.8
1 3 -4 598.24 13.1
-1 3 4 601.04 11.5
-1 3 4 604.24 16.9
-1 3 4 591.64 12.8
0 -3 -4 103.39 5.2
0 -3 4 92.39 3
0 -3 4 104.69 3.6
0 -3 -4 96.19 3.9
0 -3 -4 104.99 7.5
0 -3 -4 90.29 8.1
0 -3 4 92.69 4.8
0 -3 4 85.89 5.2
0 3 -4 96.59 2.9
0 3 -4 90.29 5.1
0 3 -4 99.19 5.2
0 3 4 101.99 6.9
0 3 4 94.89 7.2
0 3 4 94.19 4.8
0 3 4 95.69 4
0 3 -4 95.59 3.3
-1 -3 -4 400.56 10.2
1 -3 4 403.36 11.5
-1 -3 -4 383.76 14.6
1 -3 4 395.36 7.3
-1 -3 -4 391.86 15.3
-1 -3 -4 386.66 8.7
1 -3 4 393.96 8.6
1 -3 4 392.96 12.7
-1 3 -4 396.16 8.4
1 3 4 375.96 8.6
-1 3 -4 391.36 11.9
1 3 4 377.16 10.3
-1 3 -4 402.76 11.9
-1 3 -4 385.26 7.6
1 3 4 392.86 14.4
1 3 4 370.36 14.3
2 -3 4 293.67 13
2 -3 4 308.17 6.9
2 -3 4 318.97 9
-2 -3 -4 327.87 8.5
-2 -3 -4 327.37 9.6
2 -3 4 311.17 11.8
2 3 4 305.57 7.8
-2 3 -4 311.37 7.9
2 3 4 318.37 9.7
-2 3 -4 325.37 7.7
-2 3 -4 331.37 12.6
-2 3 -4 313.17 12.6
-3 -3 -4 299.97 8.7
3 -3 4 290.77 7.6
-3 -3 -4 295.77 10
3 -3 4 287.27 9.8
3 3 4 297.77 8.1
-3 3 -4 301.07 8.1
-3 3 -4 287.57 8.6
3 3 4 283.37 10
-4 -3 -4 316.57 10.4
-4 -3 -4 309.67 11.5
4 -3 4 301.97 8.7
4 -3 4 314.57 12.5
-4 3 -4 326.47 10.5
4 3 4 310.27 9
4 3 4 308.17 11.6
-4 3 -4 322.97 10.1
-5 -3 -4 0.6 3.4
-5 -3 -4 7.8 4.4
5 -3 4 1.5 2.6
5 -3 4 5.1 4.6
-5 3 -4 2.4 2.1
5 3 4 1.5 1.6
-5 3 -4 3.9 2.4
5 3 4 2.7 3.3
6 -3 4 65.89 6.2
-6 -3 -4 57.79 7.9
6 -3 4 68.69 8.2
-6 -3 -4 73.79 8
6 3 4 68.19 8.5
6 3 4 66.49 5.3
-6 3 -4 65.39 7.1
-6 3 -4 73.59 6.4
6 -4 -4 33 5.9
6 -4 -4 44.1 4.9
-6 4 4 46.5 5.6
5 -4 -4 126.09 6.3
-5 4 4 125.69 7.4
4 -4 -4 99.69 5.4
-4 4 4 93.09 5.9
-4 4 4 97.09 5.5
3 -4 -4 54.49 3.4
-3 4 4 48.8 3.8
-3 4 4 49.5 3.6
2 -4 -4 52.09 3.1
2 -4 -4 53.79 4.3
-2 4 4 54.69 3.7
-2 4 4 52.69 4
1 -4 -4 53.49 3
1 -4 -4 63.89 4.3
-1 4 4 51.49 3.1
-1 4 4 48.7 3.9
0 -4 -4 67.39 5.1
0 -4 -4 51.59 6.6
0 -4 -4 58.99 3.3
0 -4 -4 47.5 6.5
0 4 4 55.39 6.6
0 4 4 52.39 6.1
0 4 4 58.49 4
0 4 4 53.09 3.1
-1 -4 -4 42.2 3
-1 -4 -4 43 4.3
1 4 4 43.8 3
1 4 4 47.9 4
-2 -4 -4 213.08 6.9
-2 -4 -4 236.48 8.6
2 -4 4 222.38 7.8
2 -4 4 220.78 5.8
-2 4 -4 217.88 6.1
-2 4 -4 213.48 6.5
2 4 4 216.28 8.2
2 4 4 225.78 6.6
-3 -4 -4 11 2.7
-3 -4 -4 21.8 4.2
3 -4 4 18.4 3.6
3 -4 4 16.1 2.5
-3 4 -4 13.8 2.3
3 4 4 15.9 2.4
-3 4 -4 18.7 2.6
3 4 4 19.3 3.4
4 -4 4 58.89 6.8
-4 -4 -4 49 5.4
4 -4 4 60.69 4.8
-4 -4 -4 57.89 6.4
-4 4 -4 55.89 4.6
4 4 4 55.69 4
-4 4 -4 70.59 5.1
4 4 4 69.59 6.2
-5 -4 -4 113.89 9
5 -4 4 121.39 10.9
5 -4 4 130.99 7.3
-5 -4 -4 128.29 8.5
5 4 4 129.19 8.5
-5 4 -4 113.49 6.7
-5 4 -4 123.99 7.5
5 4 4 127.79 6.1
-6 -4 -4 38.2 7.1
-6 -4 -4 20.9 5.8
6 -4 4 36.4 4.9
6 -4 4 34.3 6.7
-6 4 -4 31 5
-6 4 -4 31.7 4.7
6 4 4 38.1 4.8
6 4 4 41.2 6.5
6 -5 -4 121.79 7.2
6 -5 -4 113.09 9.7
-6 5 4 117.59 7.8
-6 5 4 134.59 7.8
5 -5 -4 19.3 3.7
-5 5 4 19.1 4.3
-5 5 4 22.6 3.4
4 -5 -4 46.9 4
-4 5 4 30.5 4
-4 5 4 32.9 4
3 -5 -4 92.89 4.4
-3 5 4 91.49 5.2
-3 5 4 82.99 5.1
2 -5 -4 16.8 3.1
2 -5 -4 15 2.2
-2 5 4 11.9 2
-2 5 4 12 2.6
1 -5 -4 431.86 9.5
1 -5 -4 441.66 11
-1 5 4 417.46 10.9
-1 5 4 431.66 9.9
0 -5 -4 73.19 3.8
0 -5 -4 67.99 5.8
0 5 4 70.89 3.5
0 5 4 63.99 4.3
-1 -5 -4 463.15 12.1
-1 -5 -4 475.75 10.4
1 5 4 490.35 10.6
1 5 4 478.05 12.1
-2 -5 -4 29.3 3.4
-2 -5 -4 23.5 4.5
2 5 4 29.1 2.5
2 5 4 27.3 3.9
-3 -5 -4 56.19 6.2
-3 -5 -4 61.89 5.5
3 5 4 67.69 5.7
3 5 4 62.39 4.2
-4 -5 -4 158.28 9.5
-4 -5 -4 148.29 8.1
4 5 4 148.49 8.4
4 5 4 152.18 6.2
5 -6 -4 13.5 5
5 -6 -4 17.7 3.3
-5 6 4 24.8 4.1
-5 6 4 21 4.2
4 -6 -4 25.9 3.4
-4 6 4 25.7 3.6
-4 6 4 25.6 3.9
3 -6 -4 10.7 2.5
-3 6 4 5.4 2.3
-3 6 4 11.5 2.4
2 -6 -4 18.6 3.6
2 -6 -4 24.8 3.1
-2 6 4 25.1 3.1
-2 6 4 31.4 4.1
1 -6 -4 83.49 6.1
1 -6 -4 85.19 4.3
-1 6 4 80.79 4.6
-1 6 4 77.59 4.2
7 0 -5 4.4 4.6
-7 0 5 13.6 4.4
7 0 -5 9 3
6 0 -5 43.9 4.6
-6 0 5 45.4 5.8
6 0 -5 38.6 6
5 0 -5 198.58 7.4
-5 0 5 174.08 8.8
4 0 -5 19.5 2.5
-4 0 5 17.3 3.2
3 0 -5 1.8 1.3
3 0 -5 3.3 1.3
-3 0 5 -4.5 2.6
-2 0 5 165.08 6.2
-2 0 5 158.68 8.5
2 0 -5 155.68 8.7
-2 0 5 176.88 6
2 0 -5 153.48 5.7
2 0 -5 158.08 5
2 0 -5 137.49 8.2
-2 0 5 163.78 9.8
-1 0 5 119.69 6.7
-1 0 5 124.29 4.9
1 0 -5 122.19 7.3
1 0 -5 123.19 4
-1 0 5 120.69 4.2
1 0 -5 115.89 7.4
-1 0 5 122.29 7.8
1 0 -5 123.09 4.7
0 0 -5 294.87 6.8
0 0 -5 251.67 10.9
0 0 5 297.57 11.4
0 0 5 280.67 6.6
0 0 5 290.57 7.9
0 0 5 297.97 11.7
0 0 -5 298.47 11.8
0 0 -5 283.87 7.6
-1 0 -5 3.2 1.7
-1 0 -5 -0.2 1.1
-1 0 -5 5.6 2.7
1 0 5 1.8 2.6
1 0 5 4.2 1.5
1 0 5 3.9 2.7
-1 0 -5 2.2 3.3
1 0 5 0.2 1.6
2 0 5 45.3 3
-2 0 -5 49.7 3.1
-2 0 -5 47.9 3.7
2 0 5 45.7 4
3 0 5 484.65 10.8
3 0 5 455.15 13.4
-3 0 -5 464.55 11.5
-3 0 -5 487.45 12.8
4 0 5 7 3.2
4 0 5 0.4 1.5
-4 0 -5 0.2 1.8
-4 0 -5 4.2 2.6
5 0 5 49.9 6.7
-5 0 -5 53.49 5.7
5 0 5 52.59 4.9
-5 0 -5 42.4 5.6
6 0 5 12.8 4.9
6 0 5 13.9 3.4
-6 0 -5 14.6 4.6
-6 0 -5 14.4 4.6
7 -1 -5 10.4 5.3
-7 -1 5 11 4.6
7 -1 -5 10 3
-7 1 5 15.5 4.8
7 1 -5 27.7 5
7 1 -5 15.1 3.4
6 -1 -5 18.5 4.7
6 -1 -5 26.6 3.9
-6 -1 5 24.2 4.7
6 1 -5 18.2 3.1
6 1 -5 16.7 4.5
-6 1 5 13.4 4.3
5 -1 -5 19.9 3.3
-5 -1 5 17.9 4.1
-5 1 5 9.6 3.3
5 1 -5 15.4 2.9
5 1 -5 18.2 3.7
4 -1 -5 99.19 4.7
-4 -1 5 101.19 6.5
4 1 -5 106.89 4.7
-4 1 5 109.69 6
3 -1 -5 67.79 4.2
-3 -1 5 46.9 4.6
3 -1 -5 66.69 3.7
-3 -1 5 75.59 5.1
3 1 -5 67.79 3.4
-3 1 5 67.79 4.3
-3 1 5 69.49 4.8
-2 -1 5 47.2 5.4
2 -1 -5 36.6 3.1
-2 -1 5 41.7 5.8
-2 -1 5 40.2 3.5
2 -1 -5 42.9 3
-2 -1 5 54.89 4.3
-2 1 5 42.4 3.6
-2 1 5 37.7 3.1
2 1 -5 35.6 4.8
2 1 -5 36 2.5
2 1 -5 36.8 2.8
1 -1 -5 27.4 4.7
-1 -1 5 14.3 2.8
1 -1 -5 16.4 1.8
1 -1 -5 18.5 2.4
1 -1 -5 16.8 3.6
-1 -1 5 22 2.4
-1 -1 5 23.9 4.4
-1 -1 5 22.8 2.2
1 1 -5 21 1.6
1 1 -5 24.8 3.8
-1 1 5 21.9 2.6
-1 1 5 18.2 3.3
-1 1 5 25.3 4.3
-1 1 5 16.8 1.9
1 1 -5 23.7 2.1
1 1 -5 17.7 3.4
0 -1 -5 532.25 11.4
0 -1 -5 514.35 16.7
0 -1 5 523.95 14.9
0 -1 5 514.25 10.9
0 -1 5 512.35 15.2
0 -1 -5 551.74 17.1
0 -1 5 507.65 9.6
0 -1 -5 520.15 10.3
0 1 5 510.25 15.8
0 1 5 509.55 10.1
0 1 -5 511.85 15.8
0 1 -5 531.55 10.6
0 1 -5 522.15 9.7
0 1 5 510.75 11.4
0 1 5 500.55 16.1
0 1 -5 505.25 15.2
1 -1 5 89.09 8.2
1 -1 5 80.99 7.3
-1 -1 -5 83.39 4.1
-1 -1 -5 82.29 10.3
-1 -1 -5 76.59 8.5
-1 -1 -5 88.79 5.1
1 -1 5 87.79 4.8
1 -1 5 75.29 3.6
1 1 5 70.29 7.8
1 1 5 97.69 11.1
1 1 5 94.89 5.5
-1 1 -5 90.49 4.6
-1 1 -5 94.79 7.1
-1 1 -5 79.69 7.5
-1 1 -5 85.69 3.9
1 1 5 84.29 4.2
-2 -1 -5 16.7 2.3
2 -1 5 20.6 2.3
2 -1 5 20.5 3.1
-2 -1 -5 19.6 3
2 1 5 19.7 3.2
-2 1 -5 26.4 2.7
2 1 5 20.5 2.4
-2 1 -5 19.7 2.7
3 -1 5 4.7 2.4
3 -1 5 6.2 1.8
-3 -1 -5 5.4 1.7
-3 -1 -5 6.5 2
-3 1 -5 5.6 2.1
3 1 5 5.2 1.7
-3 1 -5 7.4 1.9
3 1 5 8.6 2.5
4 -1 5 53.49 4.3
-4 -1 -5 58.39 4.7
4 -1 5 38.4 5.4
-4 -1 -5 52.59 5.9
-4 1 -5 54.19 5.7
4 1 5 47.3 4.4
4 1 5 45.4 5.8
-4 1 -5 49.9 4.2
5 -1 5 58.99 4.8
5 -1 5 59.09 7.5
-5 -1 -5 57.09 6.7
-5 -1 -5 51.49 5.4
-5 1 -5 59.79 5.2
-5 1 -5 69.69 6.2
5 1 5 66.29 4.5
5 1 5 54.19 7.1
6 -1 5 3.8 2.6
-6 -1 -5 -2.2 3.7
-6 -1 -5 0.5 4
6 -1 5 3.5 5.1
6 1 5 0.8 2.5
6 1 5 0.9 4.5
-6 1 -5 1.1 2.8
-6 1 -5 2.2 3
6 -2 -5 104.09 6.3
-6 -2 5 99.59 7.5
6 -2 -5 88.09 8.1
6 2 -5 96.89 8
-6 2 5 100.09 7.4
6 2 -5 96.99 5.6
5 -2 -5 286.77 9.2
-5 -2 5 274.87 10.2
-5 2 5 288.17 10.4
5 2 -5 289.57 8.6
5 2 -5 276.47 10.3
4 -2 -5 8 1.9
-4 -2 5 4.5 2.8
-4 2 5 2.7 2.1
-4 2 5 7.3 2.4
4 2 -5 7 1.6
3 -2 -5 169.08 6.6
-3 -2 5 185.28 7
3 -2 -5 181.88 6
-3 -2 5 179.98 6.6
3 2 -5 185.38 5.5
-3 2 5 181.98 7.3
-3 2 5 182.78 6.6
-2 -2 5 80.29 6.9
-2 -2 5 82.49 4.6
2 -2 -5 74.19 3.9
-2 -2 5 84.99 8.2
2 -2 -5 76.59 4.3
-2 -2 5 80.19 4.4
-2 2 5 77.49 4.1
2 2 -5 76.19 5.7
2 2 -5 75.69 3.1
2 2 -5 67.29 3.6
-2 2 5 77.09 4.5
-1 -2 5 164.88 8.6
1 -2 -5 138.59 10.6
1 -2 -5 152.08 6
1 -2 -5 169.68 11.8
1 -2 -5 168.68 5.4
-1 -2 5 163.98 5.4
-1 -2 5 164.98 7.3
-1 -2 5 160.78 4.9
-1 2 5 168.68 5.6
1 2 -5 164.78 7.5
1 2 -5 169.28 5
-1 2 5 171.18 12
-1 2 5 155.98 6.3
1 2 -5 165.98 7.9
1 2 -5 160.28 4.4
0 -2 -5 445.46 16
0 -2 -5 464.95 11.2
0 -2 -5 465.35 9.8
0 -2 5 461.55 9.8
0 -2 5 464.35 13.4
0 -2 5 450.45 8.6
0 -2 5 461.35 13.7
0 2 -5 480.35 14.2
0 2 -5 456.55 9.6
0 2 5 460.35 11.3
0 2 -5 459.25 14.6
0 2 -5 460.75 8.8
0 2 5 473.15 15.6
0 2 5 461.95 16.1
0 2 5 452.95 9.7
-1 -2 -5 89.49 4.2
1 -2 5 81.29 6.2
1 -2 5 81.29 3.7
-1 -2 -5 93.69 5.4
1 -2 5 87.89 6.7
1 -2 5 92.39 4.7
-1 2 -5 92.29 3.8
1 2 5 94.09 4.3
-1 2 -5 90.09 4.3
1 2 5 94.19 5.4
-1 2 -5 93.89 8.3
-1 2 -5 80.19 7.5
-2 -2 -5 64.49 3.7
-2 -2 -5 55.49 4.3
2 -2 5 69.49 3.9
2 -2 5 61.49 4.3
-2 2 -5 58.79 4
2 2 5 56.49 3.4
2 2 5 60.19 4.6
-2 2 -5 55.79 3.4
-3 -2 -5 116.79 6.3
3 -2 5 124.69 6.9
-3 -2 -5 130.59 5.7
3 -2 5 122.29 4.9
3 2 5 116.59 6.7
-3 2 -5 112.09 5.9
3 2 5 129.09 5.3
-3 2 -5 112.99 5.3
-4 -2 -5 46.4 5.1
-4 -2 -5 51.99 5.6
4 -2 5 46.3 6.5
4 -2 5 58.79 4.2
-4 2 -5 58.79 4.8
4 2 5 58.49 4
-4 2 -5 55.99 5.5
4 2 5 49.6 5.9
-5 -2 -5 42.7 5.3
5 -2 5 46 7
5 -2 5 54.49 5.1
-5 -2 -5 57.89 6.7
5 2 5 54.39 7.1
5 2 5 49.4 4.3
-5 2 -5 48.7 5.8
-5 2 -5 49 5.7
-6 -2 -5 43.7 6.3
6 -2 5 41.1 5.3
-6 -2 -5 31.1 6.2
6 -2 5 45.8 8
-6 2 -5 64.89 5.8
-6 2 -5 45.5 6.1
6 2 5 35.3 4.6
6 2 5 43.2 6.9
6 -3 -5 40.3 4.8
6 -3 -5 24.7 5.4
-6 3 5 24.6 4.3
5 -3 -5 89.79 5.3
-5 3 5 87.79 6.1
-5 3 5 86.29 6.3
4 -3 -5 167.68 6.7
-4 3 5 167.28 7.4
-4 3 5 181.98 7.6
3 -3 -5 494.55 12
3 -3 -5 506.05 11
-3 -3 5 473.55 13.1
-3 3 5 512.35 12
-3 3 5 495.75 12.8
2 -3 -5 57.49 3.3
-2 -3 5 72.29 3.9
-2 -3 5 63.19 3.7
2 -3 -5 61.89 4.1
-2 3 5 59.09 3.6
-2 3 5 55.19 4.1
2 3 -5 63.09 2.7
-1 -3 5 52.19 3.7
-1 -3 5 43 2.8
1 -3 -5 43.8 3
1 -3 -5 38.6 3.5
1 3 -5 54.19 3
-1 3 5 38.5 2.9
1 3 -5 44.8 2.2
-1 3 5 40.3 4
0 -3 5 119.29 3.8
0 -3 5 122.09 7.3
0 -3 -5 110.19 5.7
0 -3 5 113.09 5.9
0 -3 -5 116.89 5
0 -3 5 106.89 4.5
0 3 5 123.59 6
0 3 -5 121.19 4.3
0 3 -5 113.09 3.6
0 3 -5 128.39 6.5
0 3 -5 124.99 6.7
0 3 5 119.69 4.8
1 -3 5 20.5 2.2
1 -3 5 24.5 2.9
-1 -3 -5 20.1 3.1
1 -3 5 32.8 5.1
1 -3 5 25.7 4.3
-1 -3 -5 18 2.4
-1 3 -5 15.4 3.5
1 3 5 15.3 2.3
-1 3 -5 25.2 4.1
-1 3 -5 22.3 1.8
1 3 5 21.7 3.2
-1 3 -5 17.1 2.2
2 -3 5 31.6 3.9
-2 -3 -5 33.9 2.9
2 -3 5 34.5 2.9
-2 -3 -5 31.1 3.9
2 3 5 31.1 4
-2 3 -5 35.4 3.1
2 3 5 30.2 3
-2 3 -5 38.4 2.9
-3 -3 -5 13.3 2.6
3 -3 5 20.3 2.6
3 -3 5 12 3.5
-3 -3 -5 22.4 3.9
-3 3 -5 18 3
3 3 5 15.3 2.4
-3 3 -5 19 2.6
3 3 5 21.5 3.9
-4 -3 -5 15 4
4 -3 5 23.4 5.1
4 -3 5 19.8 3.2
4 3 5 17.9 2.9
-4 3 -5 22.5 3.5
4 3 5 29.5 4.9
-4 3 -5 18.8 3.2
-5 -3 -5 12.2 4.1
5 -3 5 8.9 3
-5 -3 -5 7.1 4
5 -3 5 7 5.3
5 3 5 13 3
5 3 5 11.1 3.9
-5 3 -5 8.9 2.8
-5 3 -5 14.7 3.7
-6 -3 -5 59.19 7.3
6 -3 5 41.6 5.2
6 -3 5 56.59 8.7
-6 -3 -5 40.4 6.8
6 3 5 56.99 7.6
-6 3 -5 41.5 5.4
-6 3 -5 64.89 5.9
6 3 5 43.4 4.9
6 -4 -5 244.68 12.5
6 -4 -5 271.37 10.4
-6 4 5 244.48 10.7
-6 4 5 272.47 10.9
5 -4 -5 18.7 3.5
-5 4 5 17.7 3.5
-5 4 5 18.9 3.8
4 -4 -5 34.4 3.7
-4 4 5 37.7 4.5
-4 4 5 29.2 3.9
3 -4 -5 188.78 7.5
3 -4 -5 183.98 6.4
-3 4 5 185.18 7.2
-3 4 5 188.88 7.7
2 -4 -5 167.28 6.7
2 -4 -5 175.18 5.9
-2 4 5 164.28 6.2
-2 4 5 161.28 7
1 -4 -5 15.3 2.2
1 -4 -5 18.4 3.3
-1 4 5 18.3 2.6
-1 4 5 14.8 2.7
0 -4 -5 269.97 9.1
0 -4 -5 258.47 7.3
0 4 5 251.97 7.1
0 4 5 247.78 8.3
-1 -4 -5 172.98 6.1
-1 -4 -5 163.58 7.4
1 4 5 174.58 7.7
1 4 5 186.28 6.4
-2 -4 -5 3.9 3.3
-2 -4 -5 9 2.2
2 4 5 6.2 2.3
2 4 5 9.2 1.9
3 -4 5 23.7 4.5
-3 -4 -5 17.6 4.2
-3 -4 -5 20.1 3.4
3 -4 5 23.1 3.3
-3 4 -5 25.5 3.9
3 4 5 26.3 3.2
3 4 5 23.8 4.2
-3 4 -5 20.2 3
-4 -4 -5 9.9 4.3
4 -4 5 20.4 3.3
-4 -4 -5 17.1 4.1
4 -4 5 16.5 4.8
-4 4 -5 17.6 3.1
4 4 5 11.7 2.4
4 4 5 10.8 3.6
-4 4 -5 13.2 2.7
-5 -4 -5 48.1 6.1
5 -4 5 41.6 4.9
5 -4 5 34.9 6.9
-5 -4 -5 29.4 6
5 4 5 33.4 6
-5 4 -5 33.3 4.7
-5 4 -5 35.2 4.4
5 4 5 38.5 4.4
6 -5 -5 28.6 4.6
6 -5 -5 14.2 5.5
-6 5 5 30.4 5.3
-6 5 5 25.3 4.6
5 -5 -5 59.99 4.9
-5 5 5 59.19 5.5
-5 5 5 75.59 5.8
4 -5 -5 135.19 6.1
-4 5 5 147.69 7
-4 5 5 129.49 7.1
3 -5 -5 165.18 6.5
3 -5 -5 162.48 7.9
-3 5 5 162.38 7
-3 5 5 158.08 7.6
2 -5 -5 111.49 6.3
2 -5 -5 111.49 5.1
-2 5 5 122.79 5.4
-2 5 5 121.19 5.9
1 -5 -5 30.6 3.1
1 -5 -5 24.1 3.9
-1 5 5 25.6 3.4
-1 5 5 31.2 3.4
0 -5 -5 7.4 3.1
0 -5 -5 6.9 1.8
0 5 5 6.7 1.7
0 5 5 8.2 2.1
-1 -5 -5 15.6 2.5
-1 -5 -5 18.1 4.3
1 5 5 23.1 2.9
1 5 5 15.2 2.7
-2 -5 -5 4.7 4.1
-2 -5 -5 1.9 2.3
2 5 5 4.9 2.8
2 5 5 10 2.2
-3 -5 -5 58.69 5.2
-3 -5 -5 53.79 6.3
3 5 5 62.79 4.1
3 5 5 62.89 6.4
-4 -5 -5 24.7 5.6
-4 -5 -5 27.8 5
4 5 5 30.8 3.7
4 5 5 26.2 4.8
-5 -5 -5 55.59 6.2
-5 -5 -5 41.3 6.8
5 5 5 66.09 4.7
5 5 5 50.19 6.7
5 -6 -5 23.4 3.8
-5 6 5 23.7 4.2
-5 6 5 27.4 4.5
4 -6 -5 30.8 4.3
-4 6 5 28.1 4.2
-4 6 5 27.5 4.5
3 -6 -5 61.49 4.6
-3 6 5 62.79 4.5
-3 6 5 63.29 5
2 -6 -5 8.9 3.4
2 -6 -5 9.4 2.4
-2 6 5 9.6 2.6
-2 6 5 9.9 2.3
1 -6 -5 60.89 4.5
1 -6 -5 48.9 5.1
-1 6 5 49.5 5
-1 6 5 45.5 4
0 -6 -5 39.8 4.9
0 -6 -5 38.9 4
0 6 5 37.6 4.5
0 6 5 33.5 3.7
-1 -6 -5 193.68 10.5
-1 -6 -5 185.98 8.1
1 6 5 205.58 8.3
1 6 5 202.38 9.6
6 0 -6 17.2 4.7
-6 0 6 19.7 4.7
6 0 -6 25 3.8
5 0 -6 134.59 6.3
-5 0 6 133.79 7.9
-5 0 6 126.49 8.4
4 0 -6 45.2 3.5
-4 0 6 39.8 4.6
-4 0 6 47.6 5.2
3 0 -6 11.1 1.7
-3 0 6 9.4 2.9
3 0 -6 8.6 2
-3 0 6 10.6 3
2 0 -6 53.79 3.6
-2 0 6 51.29 3.8
-2 0 6 65.09 5.1
2 0 -6 53.79 3.1
1 0 -6 42.1 6.8
-1 0 6 50.39 8.2
1 0 -6 50.19 3.9
-1 0 6 55.19 4.1
-1 0 6 72.19 11
-1 0 6 57.99 3.7
1 0 -6 42.3 9.6
1 0 -6 55.09 3.1
0 0 -6 25 2.7
0 0 6 27.6 6
0 0 -6 25.1 3
0 0 -6 20.4 5.3
1 0 6 469.75 10.3
-1 0 -6 460.75 11.7
1 0 6 464.25 12.1
-1 0 -6 469.85 10.5
-2 0 -6 144.19 6.6
2 0 6 138.49 7
-2 0 -6 141.19 5.8
2 0 6 147.19 5.4
-3 0 -6 10.1 2.4
3 0 6 7.8 2
3 0 6 10.5 2.8
-3 0 -6 11.7 2.3
4 0 6 183.48 9.9
4 0 6 167.28 7.1
-4 0 -6 182.38 7.9
-4 0 -6 168.78 9
-5 0 -6 20.1 4.5
-5 0 -6 7.5 3
5 0 6 13.6 4.7
5 0 6 17.5 3
6 0 6 1.7 4.7
-6 0 -6 3.8 3.9
6 0 6 1.5 2.7
-6 0 -6 7.5 3.6
-6 -1 6 48.9 5.9
6 -1 -6 56.49 7.4
6 -1 -6 52.89 5.4
6 1 -6 52.29 4.5
-6 1 6 59.29 6.7
6 1 -6 54.79 6.9
-6 1 6 59.49 7.3
-5 -1 6 15.4 4.1
-5 -1 6 25.2 5.1
5 -1 -6 22.7 3.4
-5 1 6 20.1 4.4
5 1 -6 19.7 3
-5 1 6 27.9 4.9
-4 -1 6 441.66 11.7
4 -1 -6 452.55 11.2
-4 -1 6 423.56 11.8
-4 1 6 449.86 12.3
4 1 -6 432.66 10.6
3 -1 -6 201.98 6.3
3 -1 -6 190.08 7.2
-3 -1 6 215.18 7.8
-3 -1 6 193.88 7.4
-3 1 6 188.08 8.1
3 1 -6 202.68 6
3 1 -6 202.78 6.8
-3 1 6 199.78 7.4
-2 -1 6 82.59 5
-2 -1 6 84.29 4.6
2 -1 -6 90.19 4.8
2 -1 -6 82.49 3.9
2 1 -6 83.29 3.6
2 1 -6 92.49 4.3
-2 1 6 79.69 4.4
-2 1 6 83.89 5.1
1 -1 -6 670.33 14.3
-1 -1 6 669.53 19.6
-1 -1 6 666.43 13.6
-1 -1 6 675.23 17.7
-1 -1 6 674.73 12.5
1 -1 -6 656.43 12.6
1 1 -6 662.73 12
1 1 -6 662.43 19.1
-1 1 6 653.53 13
1 1 -6 673.23 13.4
-1 1 6 671.73 14.4
1 1 -6 663.23 19.3
0 -1 6 133.19 8.4
0 -1 6 120.49 7.8
0 -1 -6 127.69 4.9
0 -1 6 124.99 4.7
0 -1 6 116.59 5.4
0 -1 -6 119.39 6
0 1 6 126.69 4.8
0 1 -6 117.99 8.6
0 1 -6 129.69 8.6
0 1 -6 125.29 5.4
0 1 -6 121.99 4.6
0 1 6 125.99 5.9
1 -1 6 141.29 5.1
-1 -1 -6 158.38 5.7
-1 -1 -6 155.68 6.6
1 -1 6 147.59 6.5
1 1 6 146.59 6.8
-1 1 -6 153.58 6.1
1 1 6 142.89 5.5
-1 1 -6 155.08 5.4
2 -1 6 21.1 2.8
-2 -1 -6 26.1 3.6
-2 -1 -6 19.2 2.7
2 -1 6 18.1 3.2
2 1 6 23.4 3.7
-2 1 -6 19.8 2.5
-2 1 -6 19.8 3.1
2 1 6 22.3 2.7
3 -1 6 146.39 6
-3 -1 -6 135.69 7.2
-3 -1 -6 141.19 6.2
3 -1 6 143.59 7.6
-3 1 -6 136.19 6.1
3 1 6 144.39 5.8
-3 1 -6 138.69 6.9
3 1 6 127.99 7.6
4 -1 6 205.18 10.7
4 -1 6 217.18 7.8
-4 -1 -6 216.78 10
-4 -1 -6 206.78 8.8
-4 1 -6 206.48 9.6
4 1 6 213.68 8
4 1 6 201.28 10.4
-4 1 -6 206.98 8.6
-5 -1 -6 10.3 3.7
5 -1 6 10.5 5.1
-5 -1 -6 10.5 3.5
5 -1 6 14.1 3.2
-5 1 -6 11.6 3.2
-5 1 -6 5.8 3.8
5 1 6 11.4 4
5 1 6 11.5 2.8
-6 -1 -6 29.2 5.5
6 -1 6 21.7 3.9
6 -1 6 29.8 7.9
-6 -1 -6 29.3 5.9
6 1 6 33.5 4.7
-6 1 -6 24.7 5.2
-6 1 -6 24.6 6.1
6 1 6 30.3 6.4
6 -2 -6 18.1 5.5
6 -2 -6 34.3 4.4
-6 -2 6 22.1 4.4
6 2 -6 39.1 5.6
-6 2 6 32.3 5.8
6 2 -6 32.7 4
-6 2 6 29.5 5.1
5 -2 -6 71.59 5
-5 -2 6 86.99 7.5
-5 -2 6 74.79 6.5
5 2 -6 68.39 5.8
5 2 -6 74.09 4.5
-5 2 6 60.29 6.1
-5 2 6 72.29 5.9
-4 -2 6 13 4.1
-4 -2 6 13.5 3.5
4 -2 -6 16.5 2.6
-4 2 6 12.6 3.3
4 2 -6 13.2 2.2
-4 2 6 13.5 3.1
3 -2 -6 11.8 2.4
-3 -2 6 13.6 2.9
3 -2 -6 14.8 2.2
-3 -2 6 16.8 3.5
3 2 -6 18.3 2.1
-3 2 6 9.3 2.8
-3 2 6 14.2 2.7
-2 -2 6 219.38 9.8
-2 -2 6 211.38 6.6
-2 -2 6 221.38 11.4
2 -2 -6 217.18 6.6
-2 -2 6 208.78 7
2 -2 -6 219.18 7.6
2 2 -6 218.08 5.9
2 2 -6 214.08 6.3
-2 2 6 213.18 8
2 2 -6 234.58 10.5
-2 2 6 215.98 7.1
-1 -2 6 214.98 9.2
1 -2 -6 228.38 7.8
-1 -2 6 234.78 7.1
-1 -2 6 229.08 6.5
1 -2 -6 223.88 6.7
-1 -2 6 250.67 11.8
-1 2 6 222.58 6.9
1 2 -6 217.48 9.8
-1 2 6 222.68 8
1 2 -6 211.98 6.3
1 2 -6 226.88 10.4
1 2 -6 213.78 5.9
0 -2 6 15.2 3.5
0 -2 6 10.2 2.3
0 -2 6 21.8 4.5
0 -2 -6 15.3 2.2
0 -2 6 16.6 2.7
0 -2 -6 10.9 2.2
0 2 -6 17.2 4.2
0 2 -6 13.8 2.1
0 2 6 17.9 2.2
0 2 6 12.3 2.3
0 2 -6 17.9 4.1
0 2 -6 13.2 1.8
1 -2 6 481.05 11.7
-1 -2 -6 473.25 12.3
-1 -2 -6 476.25 11
1 -2 6 479.25 9.8
-1 2 -6 479.05 20.1
-1 2 -6 488.35 10.2
1 2 6 485.65 13.2
-1 2 -6 479.65 11.3
1 2 6 484.85 11
-2 -2 -6 150.18 6.1
-2 -2 -6 156.68 7.2
2 -2 6 147.99 7.2
2 -2 6 149.29 5.5
2 2 6 153.28 5.8
-2 2 -6 147.69 6.5
2 2 6 152.28 7.5
-2 2 -6 153.78 5.6
-3 -2 -6 40.8 4.9
-3 -2 -6 33.2 3.7
3 -2 6 33.1 3.4
3 -2 6 31.2 4.5
-3 2 -6 32.7 3.6
-3 2 -6 41.3 4.7
3 2 6 38.3 3.3
3 2 6 44.6 5.6
-4 -2 -6 172.38 8.1
-4 -2 -6 158.78 8.8
4 -2 6 168.98 6.8
4 -2 6 162.68 10
4 2 6 169.58 9.6
-4 2 -6 166.08 7.4
-4 2 -6 151.18 8.4
4 2 6 168.18 7.1
-5 -2 -6 17.1 4.5
5 -2 6 22.7 6.2
5 -2 6 18.1 3.7
-5 -2 -6 17.5 4.3
-5 2 -6 22.9 3.9
-5 2 -6 15.5 4.5
5 2 6 18.8 4.7
5 2 6 22.9 3.7
-6 -2 -6 46.7 7.2
-6 -2 -6 61.79 7.2
6 -2 6 59.19 5.8
6 2 6 54.19 5.6
-6 2 -6 47.4 5.8
-6 2 -6 55.79 8.2
6 -3 -6 71.19 5.8
-6 3 6 85.99 6.8
-6 3 6 78.69 8.1
5 -3 -6 4.8 2.3
-5 3 6 8.4 3.3
-5 3 6 0.8 3
4 -3 -6 59.09 4.2
-4 3 6 58.09 5.1
-4 3 6 50.19 5.1
3 -3 -6 245.88 7.8
3 -3 -6 249.97 8.7
-3 3 6 237.38 9.4
-3 3 6 247.58 8.6
2 -3 -6 166.08 6
2 -3 -6 169.08 6.9
-2 3 6 162.78 7.3
-2 3 6 172.08 6.4
1 -3 -6 706.23 13.8
1 -3 -6 721.93 15.4
-1 3 6 705.93 14.4
-1 3 6 698.43 15.8
0 -3 6 20.5 2.3
0 -3 -6 14 2.8
0 -3 6 24 2.9
0 -3 -6 12.2 2
0 3 -6 16.4 1.9
0 3 6 16.8 2.2
0 3 -6 16.6 2.1
0 3 6 15 2.8
1 -3 6 443.76 11.2
-1 -3 -6 429.06 10.7
-1 -3 -6 447.86 12.1
1 -3 6 430.86 9.1
-1 3 -6 436.86 9.3
-1 3 -6 459.85 10.6
1 3 6 427.86 10.6
1 3 6 440.26 12.7
2 -3 6 16.2 3.5
-2 -3 -6 16.2 2.6
-2 -3 -6 11.4 2.9
2 -3 6 16.1 2.6
-2 3 -6 14.8 2.2
-2 3 -6 9.9 2.2
2 3 6 12.2 2.9
2 3 6 14 2.3
-3 -3 -6 62.09 6.2
3 -3 6 59.99 4.3
-3 -3 -6 57.09 4.5
3 -3 6 58.69 6.1
3 3 6 54.79 6.2
-3 3 -6 65.19 5.1
-3 3 -6 57.59 4.4
3 3 6 66.19 4.7
4 -3 6 164.48 7.1
4 -3 6 176.18 10.9
-4 -3 -6 168.88 8.5
-4 -3 -6 177.28 9.9
-4 3 -6 160.98 8.8
4 3 6 175.98 9.9
-4 3 -6 169.98 7.5
4 3 6 169.98 7.4
5 -3 6 124.59 7.2
-5 -3 -6 120.39 8.5
5 -3 6 110.99 10.5
-5 -3 -6 112.09 9.7
5 3 6 101.09 9.4
-5 3 -6 111.79 8.4
5 3 6 128.29 6.8
-5 3 -6 124.49 7.4
6 -4 -6 36.4 4.7
-6 4 6 34.7 5.4
-6 4 6 36.2 6
5 -4 -6 30.5 4.4
-5 4 6 38.8 5.5
-5 4 6 42.9 5.6
4 -4 -6 17.3 2.9
-4 4 6 23.6 4
-4 4 6 17 3.5
3 -4 -6 116.49 6.7
3 -4 -6 103.79 5.1
-3 4 6 102.69 6.5
-3 4 6 99.79 5.8
2 -4 -6 199.78 6.7
2 -4 -6 195.58 7.7
-2 4 6 195.08 7.8
-2 4 6 186.98 7
1 -4 -6 37.3 3.1
1 -4 -6 38.1 4.2
-1 4 6 45.7 3.6
-1 4 6 42.5 4.5
0 -4 -6 8.3 2.8
0 -4 -6 6.7 1.8
0 4 6 7.1 2.3
0 4 6 8.2 1.8
-1 -4 -6 97.49 6.4
-1 -4 -6 97.99 5
1 4 6 90.39 4.9
1 4 6 101.29 6
-2 -4 -6 475.95 12
-2 -4 -6 495.25 14.4
2 4 6 487.05 11.6
2 4 6 487.95 14.7
-3 -4 -6 15.3 4.4
-3 -4 -6 16.1 3.2
3 4 6 18.5 3
3 4 6 16.5 4.1
-4 -4 -6 68.39 7.7
-4 -4 -6 61.49 6.4
4 4 6 73.69 5.2
4 4 6 76.59 8.1
-5 -4 -6 5.4 4.2
-5 -4 -6 2.5 3.7
5 4 6 7.1 3.8
5 4 6 4.3 2.2
5 -5 -6 103.19 6.1
-5 5 6 95.89 6.6
-5 5 6 81.69 6.8
4 -5 -6 69.59 5.3
-4 5 6 70.19 5.5
-4 5 6 63.79 5.6
3 -5 -6 64.29 5.6
3 -5 -6 59.09 4.7
-3 5 6 67.09 5
-3 5 6 68.39 6.1
2 -5 -6 160.18 6.4
2 -5 -6 160.98 7.7
-2 5 6 170.78 7.9
-2 5 6 166.98 7
1 -5 -6 87.49 4.7
1 -5 -6 80.39 6.3
-1 5 6 72.59 5.3
-1 5 6 75.19 4.6
0 -5 -6 134.09 7.6
0 -5 -6 121.79 5.7
0 5 6 121.69 5.5
0 5 6 129.79 6.7
-1 -5 -6 303.07 11.1
-1 -5 -6 307.57 9.2
1 5 6 324.17 9.5
1 5 6 324.47 11
-2 -5 -6 9 2.9
-2 -5 -6 13.9 5
2 5 6 8.3 2.3
2 5 6 6.8 3.6
-3 -5 -6 77.89 8
-3 -5 -6 89.79 6.2
3 5 6 81.19 5
3 5 6 75.39 7.7
-4 -5 -6 13.5 4.3
-4 -5 -6 12.4 5.1
4 5 6 11.4 4.4
4 5 6 13 2.8
-5 -5 -6 30.8 6.5
-5 -5 -6 35.3 6
5 5 6 35.5 6.1
5 5 6 31.4 4.2
5 -6 -6 54.09 5.7
-5 6 6 50.69 6.2
-5 6 6 74.29 6.3
4 -6 -6 51.99 5.3
-4 6 6 59.19 5.1
-4 6 6 46.2 5.2
3 -6 -6 46.8 4.8
3 -6 -6 46.4 5.4
-3 6 6 46.3 5.2
-3 6 6 50.49 4.3
2 -6 -6 34.1 4.7
2 -6 -6 22.7 3.3
-2 6 6 27.7 3.9
-2 6 6 22.6 3.3
1 -6 -6 65.69 6.1
1 -6 -6 61.89 5.1
-1 6 6 65.29 5.6
-1 6 6 44.1 5.3
0 -6 -6 16.2 4.3
0 -6 -6 21.9 3.5
0 6 6 10.1 2.8
0 6 6 14.2 3.3
-1 -6 -6 11.9 4.7
-1 -6 -6 5.2 2.7
1 6 6 6.5 2.4
1 6 6 8.3 2.8
-2 -6 -6 117.39 8.8
-2 -6 -6 122.19 6.8
2 6 6 126.69 5.9
2 6 6 118.09 7.5
6 0 -7 -8.7 4
-6 0 7 11.6 4.4
-6 0 7 -0.9 3.9
6 0 -7 3.7 2.4
5 0 -7 1.4 1.5
-5 0 7 -4.5 3.2
-5 0 7 -0.4 3.8
-4 0 7 80.49 6.7
4 0 -7 83.39 4.7
-4 0 7 85.09 7.2
3 0 -7 671.83 15
-3 0 7 666.63 16.2
3 0 -7 679.13 13.7
-3 0 7 678.23 14.8
2 0 -7 33.3 2.8
2 0 -7 34.3 3.6
-2 0 7 35.2 4.2
-2 0 7 41.8 4
1 0 -7 1.7 1.5
-1 0 7 3.9 2.1
1 0 -7 0.1 1
-1 0 7 -0.5 1.6
0 0 -7 114.69 5.7
0 0 7 115.19 6
0 0 -7 103.19 4.7
0 0 7 111.79 5.2
-1 0 -7 3.4 1.6
-1 0 -7 1 1.5
1 0 7 2.1 1.8
1 0 7 0.7 2.2
2 0 7 129.19 7.2
-2 0 -7 132.89 6.8
-2 0 -7 136.59 6.1
2 0 7 130.39 5.6
3 0 7 474.15 11.7
3 0 7 429.16 14.7
-3 0 -7 455.95 12.3
-3 0 -7 453.95 14
4 0 7 35.3 6
-4 0 -7 24.2 4.1
-4 0 -7 23.2 4.4
4 0 7 30.5 3.7
-5 0 -7 25.1 4.2
5 0 7 24.9 3.7
-5 0 -7 27.8 5.3
5 0 7 27.7 5.7
6 -1 -7 28.6 4.1
-6 -1 7 21.8 4.7
-6 -1 7 31.2 5.4
6 1 -7 32.5 4.3
-6 1 7 30.1 5.9
-6 1 7 36.1 5.9
6 1 -7 28.1 5.6
-5 -1 7 72.69 7
5 -1 -7 57.59 4.6
-5 -1 7 51.79 5.6
5 1 -7 62.19 4.4
-5 1 7 57.19 6.1
-5 1 7 54.29 6.5
-4 -1 7 422.16 12.2
4 -1 -7 431.66 11.1
-4 -1 7 429.76 12.3
-4 1 7 450.05 13.1
4 1 -7 426.76 10.5
-4 1 7 443.76 12.8
3 -1 -7 233.18 7.4
-3 -1 7 227.08 9.5
3 -1 -7 219.98 8.1
-3 -1 7 241.08 8.5
-3 1 7 219.58 8.2
-3 1 7 215.68 9.1
3 1 -7 238.88 7
3 1 -7 221.48 7.5
2 -1 -7 349.17 10.3
-2 -1 7 361.36 10.5
2 -1 -7 361.06 9.1
-2 -1 7 354.66 9.4
2 1 -7 345.57 8.5
-2 1 7 368.26 9.9
-2 1 7 353.26 10.9
2 1 -7 363.86 9.6
1 -1 -7 344.47 10.3
1 -1 -7 362.26 9.2
-1 -1 7 350.96 10.1
-1 -1 7 365.16 9.4
-1 1 7 370.06 10.7
1 1 -7 354.46 8.7
1 1 -7 350.56 9.6
-1 1 7 363.26 9.6
0 -1 -7 198.68 6.7
0 -1 7 208.68 6.8
0 -1 -7 207.78 7.9
0 -1 7 201.98 7.7
0 1 -7 209.68 6.4
0 1 7 204.58 6.9
0 1 7 201.18 7.8
0 1 -7 208.28 7.4
-1 -1 -7 70.09 4.3
1 -1 7 64.99 5.7
1 -1 7 79.09 4.4
-1 -1 -7 71.49 5
1 1 7 62.69 5.5
1 1 7 78.99 4.6
-1 1 -7 63.69 4
-1 1 -7 66.79 4.8
2 -1 7 53.89 3.9
-2 -1 -7 45.1 4.9
-2 -1 -7 48.8 3.8
2 -1 7 44.3 4.9
-2 1 -7 47.3 3.6
2 1 7 48 5.5
2 1 7 49.9 3.6
-2 1 -7 46.8 4.1
3 -1 7 104.39 7.8
-3 -1 -7 93.19 6.6
-3 -1 -7 87.49 5.3
3 -1 7 94.19 5.5
3 1 7 99.09 5.7
-3 1 -7 89.09 5.4
-3 1 -7 96.79 6.6
3 1 7 96.29 7.4
-4 -1 -7 47.4 5.5
4 -1 7 42.8 4.4
4 -1 7 42.6 6.4
-4 -1 -7 38.3 5.7
-4 1 -7 36.5 5.1
4 1 7 42.3 4.5
4 1 7 28.6 5.4
-4 1 -7 38.1 4.8
5 -1 7 20.8 3.6
5 -1 7 14 5.2
-5 -1 -7 20.5 4.7
-5 -1 -7 27.5 4.9
-5 1 -7 19.1 4.7
5 1 7 17.2 5.1
-5 1 -7 21.2 3.7
5 1 7 20.9 3.6
6 -2 -7 23.1 3.7
-6 2 7 23.7 5.1
-6 2 7 23.5 5.1
5 -2 -7 5.8 2.2
-5 -2 7 4.4 3.8
-5 -2 7 4.8 4.1
-5 2 7 4.1 3.6
-5 2 7 3 3.2
5 2 -7 7.3 2.1
-4 -2 7 177.48 8.6
-4 -2 7 166.98 7.6
4 -2 -7 183.28 7.1
-4 2 7 167.88 8.4
-4 2 7 169.68 8.3
4 2 -7 168.78 6.3
-3 -2 7 168.28 7.9
3 -2 -7 177.68 7.5
-3 -2 7 179.88 7.2
3 -2 -7 167.78 6.4
3 2 -7 171.18 5.8
-3 2 7 176.38 7.2
3 2 -7 163.98 6.3
-3 2 7 174.08 8.1
2 -2 -7 141.09 5.6
-2 -2 7 136.59 6
-2 -2 7 138.99 6.7
2 -2 -7 129.39 6.5
2 2 -7 140.29 5
-2 2 7 150.78 7.2
-2 2 7 145.09 6
2 2 -7 139.09 5.4
-1 -2 7 52.99 4.1
1 -2 -7 45.8 3.6
1 -2 -7 60.29 4.7
1 2 -7 51.29 3.1
-1 2 7 53.99 4.8
1 2 -7 64.59 3.9
-1 2 7 51.69 4
0 -2 -7 273.07 8.3
0 -2 7 262.77 7.5
0 -2 7 257.07 8.8
0 -2 -7 286.27 9.7
0 2 7 273.77 8.3
0 2 7 292.27 9.8
0 2 -7 267.27 8.2
0 2 -7 278.27 7.4
1 -2 7 225.78 8.9
-1 -2 -7 203.18 8.3
1 -2 7 185.88 6.3
-1 -2 -7 202.88 7.2
1 2 7 197.48 7
1 2 7 197.38 8.7
-1 2 -7 197.08 7.6
-1 2 -7 201.48 6.5
2 -2 7 262.57 10
-2 -2 -7 258.57 10
-2 -2 -7 265.57 8.7
2 -2 7 248.78 7.7
2 2 7 254.87 8.1
-2 2 -7 250.67 7.8
-2 2 -7 240.68 8.8
2 2 7 247.08 10.3
3 -2 7 268.77 11.7
-3 -2 -7 279.57 9.7
-3 -2 -7 286.57 11.1
3 -2 7 285.47 8.9
3 2 7 262.47 11.4
-3 2 -7 268.97 9.3
-3 2 -7 266.87 10.5
3 2 7 275.37 9
-4 -2 -7 3.7 3.1
-4 -2 -7 6.2 2.9
4 -2 7 7.2 2.9
4 -2 7 10.7 4.5
-4 2 -7 8.6 3.2
4 2 7 5.2 2.6
-4 2 -7 9.5 2.7
-5 -2 -7 21 5
5 -2 7 22.7 4
5 -2 7 26.8 6
-5 -2 -7 26.5 5.1
5 2 7 32.6 6.2
-5 2 -7 19.7 4.4
5 2 7 26.2 3.8
-5 2 -7 26.6 4.2
6 -3 -7 85.49 6.2
-6 3 7 95.89 7.9
-6 3 7 91.59 8.1
5 -3 -7 29.4 3.8
-5 3 7 27 4.3
-5 3 7 27.1 4.6
4 -3 -7 141.79 6.8
-4 3 7 143.39 7.8
-4 3 7 146.69 7.7
3 -3 -7 138.39 6
3 -3 -7 116.99 6.7
-3 3 7 132.29 7.4
-3 3 7 143.29 6.5
2 -3 -7 66.09 4
2 -3 -7 61.89 4.6
-2 3 7 59.69 4.7
-2 3 7 73.79 4.4
1 -3 -7 542.25 13.6
1 -3 -7 529.65 12.3
-1 3 7 533.65 12.6
-1 3 7 532.15 14.2
0 -3 -7 9.3 2.6
0 -3 -7 13.7 2.4
0 3 7 14.9 2.5
0 3 7 15 2.8
1 -3 7 72.09 4.2
1 -3 7 81.39 6.3
-1 -3 -7 70.49 5.4
-1 -3 -7 77.39 4.6
1 3 7 64.69 5.6
-1 3 -7 71.69 4.5
-1 3 -7 82.79 3.9
1 3 7 73.89 4.7
-2 -3 -7 229.78 10
2 -3 7 238.28 7.3
2 -3 7 220.68 9.9
-2 -3 -7 231.28 8.3
-2 3 -7 230.88 7.7
2 3 7 244.28 8.1
-2 3 -7 230.48 8.7
2 3 7 219.48 10.1
3 -3 7 81.39 7.8
-3 -3 -7 80.09 7.1
3 -3 7 84.99 5.3
-3 -3 -7 75.89 5.5
-3 3 -7 83.49 6
3 3 7 81.89 5.4
3 3 7 73.39 7.5
-3 3 -7 90.59 5.3
4 -3 7 25 4
4 -3 7 26.8 5.8
-4 -3 -7 26.2 5.5
-4 -3 -7 21.2 4.3
-4 3 -7 26.4 3.9
4 3 7 23.1 5.2
-4 3 -7 33.6 5.1
4 3 7 22.7 3.6
-5 -3 -7 65.79 8.3
5 -3 7 61.59 5.7
-5 -3 -7 61.29 7.4
5 -3 7 51.09 7.7
5 3 7 68.99 5.4
-5 3 -7 62.29 7.3
-5 3 -7 59.59 6.7
5 3 7 66.39 8.3
6 -4 -7 50.39 5.5
-6 4 7 53.99 6.4
-6 4 7 47.1 6.2
5 -4 -7 24.5 3.8
-5 4 7 12.8 4.2
-5 4 7 19.5 4.2
4 -4 -7 78.49 5.4
-4 4 7 75.99 6.8
-4 4 7 75.79 6
3 -4 -7 21.3 3
3 -4 -7 34.4 4.6
-3 4 7 17.4 3.1
-3 4 7 26.2 4.4
2 -4 -7 46.8 4.9
2 -4 -7 44.6 4.2
-2 4 7 47.2 5.3
-2 4 7 47.9 4.6
1 -4 -7 101.49 6.2
1 -4 -7 107.89 5.4
-1 4 7 108.49 5.6
-1 4 7 101.79 6.3
0 -4 -7 106.89 5.4
0 -4 -7 99.69 6.7
0 4 7 103.29 5.3
0 4 7 107.59 6.5
-1 -4 -7 444.96 13.6
-1 -4 -7 462.95 11.9
1 4 7 472.45 12.1
1 4 7 440.36 13.8
-2 -4 -7 204.08 8.3
-2 -4 -7 203.68 9.9
2 4 7 188.88 7.4
2 4 7 184.88 9.6
-3 -4 -7 49.4 6.8
-3 -4 -7 47.1 5.2
3 4 7 60.19 7.3
3 4 7 52.69 4.5
-4 -4 -7 39.4 5.5
-4 -4 -7 38.6 6.7
4 4 7 40.1 4.6
4 4 7 49.7 7.4
-5 -4 -7 126.79 9.8
-5 -4 -7 117.39 9.8
5 4 7 126.89 10
5 4 7 122.79 7
5 -5 -7 1.7 2.4
-5 5 7 1.9 3.1
-5 5 7 0.7 2.9
4 -5 -7 149.69 7.5
-4 5 7 141.09 8
-4 5 7 148.29 7.7
3 -5 -7 31 4.6
3 -5 -7 30.9 4
-3 5 7 30.2 4.8
-3 5 7 26.6 3.7
2 -5 -7 32.6 4.4
2 -5 -7 34.6 4.1
-2 5 7 37 4.5
-2 5 7 33.6 4.8
1 -5 -7 130.29 6.3
1 -5 -7 122.49 7.7
-1 5 7 115.19 6.2
-1 5 7 125.39 7.5
0 -5 -7 139.19 8.3
0 -5 -7 134.09 6.4
0 5 7 116.99 7.4
0 5 7 135.29 6.3
-1 -5 -7 16 3.2
-1 -5 -7 22.6 5
1 5 7 17.1 3.4
1 5 7 14.7 4.1
-2 -5 -7 93.39 8
-2 -5 -7 96.19 6.3
2 5 7 111.89 5.7
2 5 7 97.39 7.5
-3 -5 -7 113.49 9.7
-3 -5 -7 98.49 7.1
3 5 7 120.09 6.5
3 5 7 109.49 8.9
-4 -5 -7 32.6 5.2
-4 -5 -7 28.3 6
4 5 7 20.8 3.7
4 5 7 31 5.9
5 -6 -7 43.7 5.6
-5 6 7 39.5 5.7
-5 6 7 60.49 6.7
4 -6 -7 41.5 4.9
-4 6 7 41 5
-4 6 7 45.5 5.6
3 -6 -7 36 5.5
3 -6 -7 38 4.7
-3 6 7 39.2 5.4
-3 6 7 46.8 5.1
2 -6 -7 26.2 4.6
2 -6 -7 25 3.8
-2 6 7 20.4 3.8
-2 6 7 20.5 3.5
1 -6 -7 124.09 6.4
1 -6 -7 107.59 7.7
-1 6 7 110.29 7.2
-1 6 7 122.09 6
0 -6 -7 73.89 7.1
0 -6 -7 88.09 5.9
0 6 7 78.39 4.9
0 6 7 69.39 6
-1 -6 -7 288.37 12.7
-1 -6 -7 279.07 9.8
1 6 7 276.47 9.6
1 6 7 267.07 11.1
-2 -6 -7 82.89 6.6
-2 -6 -7 70.39 8
2 6 7 91.09 7.5
2 6 7 76.89 5.4
-3 -6 -7 16.3 3.9
-3 -6 -7 10.9 4.7
3 6 7 15.2 4.2
3 6 7 13.6 2.8
4 -7 -7 67.69 6.5
-4 7 7 66.79 6
-4 7 7 71.69 6.9
3 -7 -7 6.3 2.9
3 -7 -7 4.4 4.2
-3 7 7 4.6 3.1
-3 7 7 0.9 2.1
-6 0 8 8.4 4.5
6 0 -8 8.8 2.5
-6 0 8 9.2 5
5 0 -8 3.4 1.9
-5 0 8 -5.1 3.8
-5 0 8 -3.9 3.4
-4 0 8 18.5 4.6
4 0 -8 15.3 2.9
-4 0 8 15.6 4.2
3 0 -8 141.99 6
-3 0 8 142.79 8.5
3 0 -8 135.69 6.9
-3 0 8 144.39 7.4
-2 0 8 30.2 4.1
-2 0 8 33.3 4.8
2 0 -8 21.3 3.4
2 0 -8 24.6 2.9
-1 0 8 15.4 3.1
-1 0 8 10.9 3
1 0 -8 7.7 1.9
1 0 -8 8.1 2.4
0 0 8 1037.3 18.8
0 0 -8 1004.9 18.9
0 0 8 1030.5 20.7
0 0 -8 1038.7 20.8
1 0 8 565.34 12.9
-1 0 -8 551.14 14.6
1 0 8 559.34 15.5
-1 0 -8 568.74 13.2
-2 0 -8 37.6 5
2 0 8 49.7 4.5
2 0 8 54.59 6.3
-2 0 -8 40.6 4.5
3 0 8 -0.2 3
-3 0 -8 4.3 2.3
-3 0 -8 0.8 1.5
3 0 8 0.2 1.8
-4 0 -8 138.59 7.8
4 0 8 149.39 10.5
4 0 8 127.49 7.1
-4 0 -8 140.89 8.9
5 0 8 122.39 7
-5 0 -8 121.89 8.1
5 0 8 116.19 11.5
-5 0 -8 107.99 8.8
-6 -1 8 38 6.2
6 -1 -8 50.69 5.5
-6 -1 8 41.9 6.3
-6 1 8 39.3 5.9
6 1 -8 28.7 6.8
-6 1 8 42.7 6.7
6 1 -8 41 4.6
-5 -1 8 24.3 5.5
-5 -1 8 29.9 5.3
5 -1 -8 33.2 4.3
-5 1 8 22 5
5 1 -8 27.3 3.7
-5 1 8 32.3 6
-4 -1 8 18.7 4.3
4 -1 -8 11.4 3
-4 -1 8 14.8 4
4 -1 -8 16 2.8
-4 1 8 21.8 4.7
4 1 -8 18.1 2.9
-4 1 8 13.3 4.1
-3 -1 8 54.99 5.2
3 -1 -8 60.19 4.1
-3 -1 8 55.59 6.2
3 -1 -8 60.99 5.1
-3 1 8 50.49 5.5
3 1 -8 51.79 3.6
-3 1 8 54.69 5.3
3 1 -8 56.99 4.7
-2 -1 8 166.08 8.4
-2 -1 8 161.18 7.3
2 -1 -8 156.58 7.1
2 -1 -8 151.38 6.2
2 1 -8 155.08 6.5
-2 1 8 151.28 7.9
2 1 -8 158.98 5.9
-2 1 8 171.38 7.3
1 -1 -8 44.7 4.7
-1 -1 8 36.6 3.8
-1 -1 8 48.9 5.2
1 -1 -8 44.3 3.7
1 1 -8 46.8 3.3
1 1 -8 48.2 3.9
-1 1 8 39.9 4.6
-1 1 8 35.9 3.8
0 -1 8 118.19 5.9
0 -1 -8 115.59 6.5
0 -1 -8 125.99 5.7
0 -1 8 136.89 6.9
0 1 8 117.59 5.8
0 1 8 120.29 6.7
0 1 -8 122.69 6.1
0 1 -8 121.79 5.2
-1 -1 -8 362.86 10.3
1 -1 8 344.77 11.9
-1 -1 -8 339.07 11.3
1 -1 8 347.37 9.4
-1 1 -8 355.26 9.8
1 1 8 349.17 10.2
-1 1 -8 340.77 10.8
1 1 8 341.57 12
2 -1 8 68.29 4.9
-2 -1 -8 50.29 5
2 -1 8 64.89 7.1
-2 -1 -8 56.39 6.1
-2 1 -8 71.69 6.4
-2 1 -8 59.29 4.6
2 1 8 67.29 4.7
2 1 8 66.89 7.2
-3 -1 -8 32.9 5
-3 -1 -8 30 4
3 -1 8 26.1 5.1
3 -1 8 27.9 3.9
3 1 8 28.1 5
3 1 8 33.7 4.1
-3 1 -8 28.8 4
-3 1 -8 23.7 4.1
-4 -1 -8 23.1 5
4 -1 8 17.6 5.6
4 -1 8 24.6 3.8
-4 -1 -8 20.9 3.9
4 1 8 18.8 3.9
4 1 8 19.6 5.2
-4 1 -8 20 4.1
-4 1 -8 22.4 3.5
5 -1 8 30.8 7.3
5 -1 8 32.7 4.3
-5 -1 -8 19.3 4.8
-5 -1 -8 25.7 5.2
-5 1 -8 32.3 4.7
5 1 8 30.3 6.4
-5 1 -8 31.4 5.8
5 1 8 31.1 4.2
6 -2 -8 32.1 4.2
-6 2 8 33.3 5.7
-6 2 8 29.8 5.7
5 -2 -8 8.8 2.9
-5 2 8 7.9 4.3
-5 2 8 7 4.6
4 -2 -8 151.08 6.9
-4 -2 8 155.48 8.2
4 -2 -8 158.38 8.2
-4 -2 8 165.88 8.3
-4 2 8 152.18 8.9
-4 2 8 176.48 8.6
4 2 -8 166.88 6.6
3 -2 -8 125.39 6.1
-3 -2 8 115.19 6.7
-3 -2 8 113.59 8
3 -2 -8 111.69 6.4
-3 2 8 123.99 6.9
3 2 -8 115.49 5.7
3 2 -8 115.99 5.2
-3 2 8 121.49 7.6
-2 -2 8 49.8 5.3
2 -2 -8 46.2 4.9
-2 -2 8 46.7 4.6
2 -2 -8 48 3.6
-2 2 8 58.89 5.9
2 2 -8 48.7 3.2
2 2 -8 52.59 3.6
-2 2 8 38.9 4.1
1 -2 -8 97.29 6
-1 -2 8 94.69 5.4
1 -2 -8 107.09 5.5
-1 -2 8 121.39 7
-1 2 8 110.99 5.7
-1 2 8 108.59 6.6
1 2 -8 107.69 5.1
1 2 -8 100.19 4.6
0 -2 8 339.67 10.7
0 -2 8 364.36 9.6
0 -2 -8 357.66 11.7
0 -2 -8 357.76 10.1
0 2 -8 351.46 10.3
0 2 8 321.87 11.3
0 2 -8 357.06 9.2
0 2 8 371.56 10.3
-1 -2 -8 502.05 14.2
1 -2 8 487.35 14.4
-1 -2 -8 494.05 12.5
1 -2 8 492.25 11.2
-1 2 -8 475.15 11.4
1 2 8 473.25 12.3
1 2 8 470.45 14.6
-1 2 -8 488.95 13
2 -2 8 33 5.4
2 -2 8 35.4 3.9
-2 -2 -8 30.6 5
-2 -2 -8 30.3 4
2 2 8 34.1 3.9
-2 2 -8 34.8 3.9
-2 2 -8 37.7 4.7
2 2 8 30.4 5.2
3 -2 8 143.99 9.9
-3 -2 -8 139.19 8.7
-3 -2 -8 169.58 7.9
3 -2 8 165.08 7.5
-3 2 -8 163.78 7.3
3 2 8 165.18 7.4
-3 2 -8 155.68 8.3
3 2 8 169.28 10.2
4 -2 8 64.39 5.4
-4 -2 -8 72.49 6.2
4 -2 8 65.09 8.4
-4 -2 -8 71.09 7.6
-4 2 -8 62.89 7.2
4 2 8 71.19 5.5
-4 2 -8 76.19 6.3
4 2 8 70.69 8.2
5 -2 8 45.3 8.6
-5 -2 -8 26.8 5.5
-5 -2 -8 32.6 6.3
5 -2 8 53.49 5.6
5 2 8 56.59 5.8
5 2 8 52.89 7.9
-5 2 -8 48.8 7.1
-5 2 -8 39.5 5.4
6 -3 -8 35 4.9
-6 3 8 35.7 6.6
-6 3 8 36 5.8
5 -3 -8 74.29 5.9
-5 3 8 74.69 7.3
-5 3 8 82.29 7.6
4 -3 -8 41.9 5.3
4 -3 -8 42.8 4.7
-4 3 8 49.1 6.3
-4 3 8 45.5 5.4
3 -3 -8 32.5 4
3 -3 -8 22.4 3.5
-3 3 8 33.7 4.4
-3 3 8 29.8 4.5
2 -3 -8 29.3 3.6
2 -3 -8 30.7 4.5
-2 3 8 31.5 4.8
-2 3 8 30.3 3.9
1 -3 -8 134.09 6.3
1 -3 -8 130.19 6.9
-1 3 8 126.69 6.3
-1 3 8 123.49 7.3
0 -3 -8 76.69 4.9
0 -3 -8 66.69 5.9
0 3 8 66.79 4.7
0 3 8 67.99 5.7
-1 -3 -8 28.8 3.8
-1 -3 -8 44.9 5.3
1 3 8 33.2 4.8
1 3 8 36.9 4.2
-2 -3 -8 67.39 5.4
2 -3 8 67.59 5.5
2 -3 8 69.09 6.9
-2 -3 -8 63.39 6.6
2 3 8 46.7 6.8
2 3 8 65.39 4.8
-2 3 -8 59.39 5.7
-2 3 -8 72.79 4.5
3 -3 8 50.19 6.8
-3 -3 -8 42.4 6.1
-3 -3 -8 38.8 4.9
3 -3 8 51.19 4.7
3 3 8 39.6 4.4
3 3 8 49.9 7
-3 3 -8 39.9 4.4
-3 3 -8 41.3 5.3
4 -3 8 54.99 7.9
-4 -3 -8 55.09 6.2
4 -3 8 59.79 5
-4 -3 -8 45.9 6.4
-4 3 -8 44.5 4.8
4 3 8 49.4 7.3
4 3 8 46.5 4.9
-4 3 -8 54.49 6.5
5 -4 -8 103.19 6.6
-5 4 8 94.79 8.3
-5 4 8 101.09 7.6
4 -4 -8 255.57 10.7
4 -4 -8 256.57 9.7
-4 4 8 257.37 11.3
-4 4 8 246.48 10.2
3 -4 -8 59.29 5.4
3 -4 -8 61.19 4.7
-3 4 8 64.69 5.3
-3 4 8 59.89 6.5
2 -4 -8 119.09 6
2 -4 -8 111.29 6.9
-2 4 8 123.49 6.5
-2 4 8 115.79 7.4
1 -4 -8 15.3 3
1 -4 -8 13 3.2
-1 4 8 10.7 2.9
-1 4 8 11.4 3.4
0 -4 -8 140.09 6.7
0 -4 -8 137.39 8
0 4 8 143.39 6.8
0 4 8 142.89 8.5
-1 -4 -8 51.19 6.2
-1 -4 -8 54.39 4.8
1 4 8 51.09 5.1
1 4 8 47.2 5.9
-2 -4 -8 13.1 3.2
-2 -4 -8 13 4
2 4 8 9.9 3.7
2 4 8 18 3
-3 -4 -8 141.19 9.8
-3 -4 -8 137.79 8
3 4 8 137.49 9.9
3 4 8 140.19 7.2
-4 -4 -8 30.2 5.2
-4 -4 -8 23.8 5.7
4 4 8 22.4 5.4
4 4 8 27.9 4.1
5 -5 -8 14.6 3.7
-5 5 8 10.3 4.3
-5 5 8 26.2 4.5
4 -5 -8 15.2 3.7
4 -5 -8 13.6 3.1
-4 5 8 15.3 3.5
-4 5 8 12.7 3.7
3 -5 -8 -0.1 1.7
3 -5 -8 5.7 3.5
-3 5 8 5.6 2.9
-3 5 8 -1.1 1.6
2 -5 -8 190.58 9.1
2 -5 -8 192.08 7.9
-2 5 8 166.78 8.9
-2 5 8 185.58 8.2
1 -5 -8 113.79 6.2
1 -5 -8 103.49 7.6
-1 5 8 106.99 7.5
-1 5 8 105.69 5.8
0 -5 -8 78.99 7.1
0 -5 -8 97.99 6.1
0 5 8 70.39 5
0 5 8 86.39 6.5
-1 -5 -8 5.8 2.7
-1 -5 -8 6 4.1
1 5 8 8.3 2.7
-2 -5 -8 17.9 4
-2 -5 -8 17.6 5.2
2 5 8 21.7 3.4
2 5 8 25.8 4.8
-3 -5 -8 50.09 7.3
-3 -5 -8 58.69 6.1
3 5 8 58.09 7.5
3 5 8 57.29 5.6
-4 -5 -8 73.69 7.4
-4 -5 -8 56.69 8.1
4 5 8 52.49 5.4
4 5 8 72.49 9.3
4 -6 -8 39.8 5.2
-4 6 8 38.1 5.2
-4 6 8 34.2 5.2
3 -6 -8 159.68 7.9
3 -6 -8 135.89 8.8
-3 6 8 139.99 9.1
-3 6 8 150.48 7.9
2 -6 -8 150.88 7.8
2 -6 -8 148.99 9.1
-2 6 8 158.08 7.9
-2 6 8 153.18 9.1
1 -6 -8 15.3 4.4
1 -6 -8 21.2 3.9
-1 6 8 24.4 3.3
-1 6 8 19.3 4.3
0 -6 -8 21.3 4.1
0 -6 -8 17.2 5
0 6 8 24.5 4.6
0 6 8 25.2 3.7
-1 -6 -8 13.6 3.7
-1 -6 -8 15.8 5.5
1 6 8 12.9 4.1
1 6 8 9.3 3.2
-2 -6 -8 9.2 4.2
-2 -6 -8 10.1 3.7
2 6 8 12 3.9
2 6 8 10.1 3
-3 -6 -8 135.29 8.4
-3 -6 -8 138.19 10.7
3 6 8 127.39 6.8
3 6 8 120.69 9.4
3 -7 -8 136.89 7.7
3 -7 -8 125.99 8.7
-3 7 8 128.59 8
-3 7 8 120.89 8.5
2 -7 -8 81.39 6.6
2 -7 -8 82.69 7.7
-2 7 8 81.99 7.4
-2 7 8 87.29 6.5
1 -7 -8 8.3 5.6
1 -7 -8 4.6 3.8
-1 7 8 4.4 3.2
-1 7 8 -1.5 2.3
-6 0 9 2.7 3.9
6 0 -9 0.5 2.5
-6 0 9 -0.9 4.5
-5 0 9 70.99 7
5 0 -9 83.89 5.7
-5 0 9 68.49 7
-4 0 9 -1.3 3.7
4 0 -9 -0.7 1.9
-4 0 9 -0.9 3.8
4 0 -9 -0.2 1.4
-3 0 9 111.39 8.5
3 0 -9 117.29 6.1
-3 0 9 110.29 7.4
3 0 -9 106.89 6.2
2 0 -9 60.79 4.2
-2 0 9 59.19 5.5
2 0 -9 62.99 5.1
-2 0 9 60.99 6.4
1 0 -9 96.29 6.2
1 0 -9 98.69 5.3
-1 0 9 92.09 7
-1 0 9 100.19 6.2
0 0 -9 8.7 2.8
0 0 -9 13 2.4
0 0 9 15.5 3.9
0 0 9 13.2 3
-1 0 -9 141.69 7.9
1 0 9 132.39 7
1 0 9 148.79 9.6
-1 0 -9 143.89 6.7
-2 0 -9 88.69 7.1
-2 0 -9 90.89 5.9
2 0 9 96.69 6.2
2 0 9 94.69 8.9
-3 0 -9 2.3 3
3 0 9 1.9 4.4
3 0 9 5.1 2.7
-3 0 -9 4.1 2
4 0 9 25.2 4.1
-4 0 -9 22.3 4
4 0 9 25 6.3
-4 0 -9 23 4.4
6 -1 -9 28 4.8
-6 -1 9 22.5 5.4
-6 -1 9 14.9 5.5
-6 1 9 29.3 6.6
6 1 -9 24.4 4.4
-6 1 9 23.5 5.4
-5 -1 9 14.6 4.3
-5 -1 9 15.6 4.7
5 -1 -9 18.5 3.4
5 1 -9 18.9 3.4
-5 1 9 12.2 4.7
-5 1 9 21.7 5.1
-4 -1 9 69.89 6.6
4 -1 -9 73.79 5.2
-4 -1 9 62.49 6.2
4 -1 -9 50.09 5.5
-4 1 9 64.69 7.1
4 1 -9 70.19 4.8
-4 1 9 68.89 7.1
3 -1 -9 28 4
-3 -1 9 26.9 4.5
3 -1 -9 23.5 3.6
-3 -1 9 25.5 5.2
-3 1 9 22.7 5
-3 1 9 21.4 4.4
3 1 -9 28.3 3.6
3 1 -9 20.8 3.4
2 -1 -9 107.19 5.7
-2 -1 9 119.39 7.2
-2 -1 9 113.69 8.5
2 -1 -9 109.29 6.5
2 1 -9 109.99 5.6
-2 1 9 114.39 7.4
2 1 -9 111.39 6.1
-2 1 9 112.09 8.2
-1 -1 9 23.6 4.4
-1 -1 9 16.2 3.6
1 -1 -9 20.7 3.5
1 -1 -9 19.6 3.1
1 1 -9 21.7 3.3
1 1 -9 17.6 2.7
-1 1 9 16.6 4.1
-1 1 9 22.7 3.5
0 -1 -9 4.5 2.5
0 -1 9 6.3 2.9
0 -1 9 1.3 3.2
0 -1 -9 3.5 1.7
0 1 9 4.1 3
0 1 -9 4.2 1.7
0 1 -9 5 2.4
0 1 9 3.3 2.3
1 -1 9 66.19 5.3
-1 -1 -9 66.49 5
-1 -1 -9 68.79 6
1 -1 9 64.39 7.2
-1 1 -9 71.79 5.6
-1 1 -9 70.69 4.8
1 1 9 74.79 7.4
1 1 9 67.89 5.7
-2 -1 -9 12.7 3
2 -1 9 3.6 4.3
-2 -1 -9 12.6 3.5
2 -1 9 10.1 3
-2 1 -9 8.1 3
2 1 9 10.1 2.7
2 1 9 11.1 4.2
-2 1 -9 11.6 2.7
-3 -1 -9 18.2 4.8
3 -1 9 22.8 4.3
-3 -1 -9 25.3 4.1
3 -1 9 30.2 6.6
3 1 9 26.1 3.9
-3 1 -9 24.8 3.8
-3 1 -9 16.8 4.1
3 1 9 17.9 5.2
-4 -1 -9 115.39 8.6
4 -1 9 121.99 10.6
4 -1 9 117.79 6.8
-4 -1 -9 131.59 7.9
-4 1 -9 126.59 7.6
4 1 9 114.49 6.9
4 1 9 114.89 10.5
5 -2 -9 18 3.4
-5 2 9 19.1 4.7
-5 2 9 22.7 4.9
4 -2 -9 57.89 4.9
4 -2 -9 54.19 5.7
-4 2 9 60.39 6.2
-4 2 9 60.09 7.3
3 -2 -9 101.29 6.6
-3 -2 9 104.09 8.7
3 -2 -9 108.09 6
-3 2 9 104.09 6.8
3 2 -9 98.99 8.3
-3 2 9 115.09 8.1
3 2 -9 104.99 8.2
-2 -2 9 70.79 6.6
-2 -2 9 73.59 6.2
2 -2 -9 72.59 4.9
2 -2 -9 81.49 6.4
2 2 -9 69.79 4.5
-2 2 9 73.49 7
2 2 -9 65.89 4.9
-2 2 9 70.09 5.7
1 -2 -9 2.3 2.1
1 -2 -9 3.4 1.9
-1 -2 9 1.7 3.7
-1 -2 9 0.8 3
1 2 -9 3.5 1.7
-1 2 9 0.5 1.9
1 2 -9 1.8 1.5
-1 2 9 -1.5 2.1
0 -2 9 11.6 3.6
0 -2 -9 6.7 3.2
0 -2 9 12.6 4.4
0 -2 -9 11.9 3
0 2 9 6.9 3.1
0 2 -9 10.9 2.4
0 2 9 7.8 2.9
0 2 -9 9.3 2.7
-1 -2 -9 119.89 6.7
-1 -2 -9 120.79 7.7
1 -2 9 113.59 6.1
1 -2 9 121.19 8.9
1 2 9 127.69 8.1
-1 2 -9 122.09 7.1
1 2 9 114.59 6.5
-1 2 -9 125.89 6.3
-2 -2 -9 121.19 8.1
-2 -2 -9 137.79 7.2
2 -2 9 108.79 9.7
2 -2 9 120.59 6.6
2 2 9 133.49 6.5
-2 2 -9 128.29 7.6
2 2 9 122.89 8.8
-2 2 -9 128.89 6.3
-3 -2 -9 56.59 5.9
-3 -2 -9 58.39 7.2
3 -2 9 47.1 7.5
3 -2 9 64.99 6
3 2 9 63.89 5.1
3 2 9 56.69 7.6
-3 2 -9 55.59 4.9
-3 2 -9 57.79 6.7
4 -2 9 51.49 8
-4 -2 -9 52.29 5.9
-4 -2 -9 38.9 6.4
4 -2 9 51.79 5.2
-4 2 -9 54.59 6.6
4 2 9 47.9 5.2
4 2 9 53.89 8.3
-4 2 -9 52.39 5.9
5 -3 -9 6.9 2.7
-5 3 9 1.5 3.2
-5 3 9 7.7 3.8
4 -3 -9 291.57 10.6
4 -3 -9 272.37 11
-4 3 9 258.17 12.2
-4 3 9 285.27 11.2
3 -3 -9 4.8 2.2
3 -3 -9 10.3 3
-3 3 9 13 3.6
-3 3 9 9.1 2.9
2 -3 -9 10.9 3.5
2 -3 -9 9.5 2.8
-2 3 9 13.6 4.4
-2 3 9 11.1 3.1
1 -3 -9 103.49 5.9
1 -3 -9 103.69 7
-1 3 9 98.89 7.3
-1 3 9 110.39 6
0 -3 -9 42 4.7
0 -3 -9 36.5 5.2
0 3 9 38.7 4.3
0 3 9 44 5.4
-1 -3 -9 103.49 7.4
-1 -3 -9 100.99 6.2
1 3 9 108.39 8
1 3 9 106.59 6.5
-2 -3 -9 15.7 4.2
-2 -3 -9 21.9 4
2 3 9 20.3 4.8
2 3 9 21.6 3.5
-3 -3 -9 15.4 4.3
-3 -3 -9 8.3 3.4
3 3 9 8.3 2.9
3 3 9 4.5 4
-4 -3 -9 19.3 5.2
-4 -3 -9 26.4 5.1
4 3 9 18.4 5.6
4 3 9 24.3 4.2
5 -4 -9 30.3 4.4
-5 4 9 20.3 4.6
-5 4 9 39.6 5.6
4 -4 -9 33.8 5.1
4 -4 -9 32.6 4.7
-4 4 9 34 5
-4 4 9 26.4 5.2
3 -4 -9 66.29 6
3 -4 -9 59.69 5.2
-3 4 9 71.99 5.9
-3 4 9 67.49 7.2
2 -4 -9 94.09 6.7
2 -4 -9 89.79 5.8
-2 4 9 78.79 5.9
-2 4 9 80.49 6.7
1 -4 -9 105.89 6.3
1 -4 -9 120.29 7.4
-1 4 9 112.59 7.8
-1 4 9 107.69 6.2
0 -4 -9 7.1 2.4
0 -4 -9 7.9 3.6
0 4 9 7.4 3.4
0 4 9 7.6 2.3
-1 -4 -9 64.09 5.5
-1 -4 -9 60.69 7
1 4 9 64.79 5.5
1 4 9 71.49 7.4
-2 -4 -9 49.99 5.6
-2 -4 -9 55.19 7
2 4 9 54.79 7.1
2 4 9 47.8 4.8
-3 -4 -9 10.7 4.2
-3 -4 -9 8.6 3.6
3 4 9 9.4 2.9
3 4 9 18.6 5.1
-4 -4 -9 120.79 10.7
-4 -4 -9 135.79 9.4
4 4 9 135.79 7.7
4 4 9 122.79 10.8
4 -5 -9 151.78 8.1
4 -5 -9 162.28 9.4
-4 5 9 146.99 8.4
-4 5 9 145.59 9.3
3 -5 -9 184.18 9.5
3 -5 -9 176.98 8.4
-3 5 9 160.78 9.5
-3 5 9 177.28 8.7
2 -5 -9 29.1 4.3
2 -5 -9 34.1 5.4
-2 5 9 27.4 5.1
-2 5 9 28.4 4.7
1 -5 -9 148.49 9.3
1 -5 -9 158.58 7.9
-1 5 9 136.39 8.9
-1 5 9 147.19 7.1
0 -5 -9 31.1 4.5
0 -5 -9 31 5.7
0 5 9 31 4.3
0 5 9 29.6 5
-1 -5 -9 40.2 5.2
-1 -5 -9 45.4 7
1 5 9 45.9 5.5
1 5 9 44.3 6.1
-2 -5 -9 58.49 7.2
-2 -5 -9 54.99 6.2
2 5 9 57.49 5.7
2 5 9 57.19 7
-3 -5 -9 10.6 4.2
-3 -5 -9 9.7 5
3 5 9 6.3 2.9
3 5 9 3.2 3.9
4 -6 -9 18.8 4.4
-4 6 9 18.2 4.3
-4 6 9 14.6 3.9
3 -6 -9 9.3 4.3
3 -6 -9 13.6 3.5
-3 6 9 1.9 3.8
-3 6 9 7.5 3
2 -6 -9 88.19 7.3
2 -6 -9 83.69 6.8
-2 6 9 78.59 6.3
-2 6 9 92.19 7.5
1 -6 -9 35.9 5
1 -6 -9 34.7 5.6
-1 6 9 22.8 4.7
-1 6 9 31.2 4.4
0 -6 -9 77.39 7.5
0 -6 -9 81.19 6.8
0 6 9 71.69 7.9
0 6 9 70.19 5.8
-1 -6 -9 48.8 5.8
-1 -6 -9 43.4 7
1 6 9 46.1 6.3
1 6 9 45 5
-2 -6 -9 10.8 5.5
-2 -6 -9 31.1 5
2 6 9 24.8 4.3
2 6 9 22.5 5.5
2 -7 -9 14.6 3.9
2 -7 -9 13.2 4.8
-2 7 9 23.3 4.1
-2 7 9 20.6 3.5
1 -7 -9 56.19 7
1 -7 -9 46 5.8
-1 7 9 49 6.2
-1 7 9 58.99 6.1
0 -7 -9 1.7 5.5
0 -7 -9 1.6 3.2
0 7 9 5.5 2.3
0 7 9 2.3 2.8
5 0 -10 124.79 7
-5 0 10 136.59 9.1
-5 0 10 142.79 9.5
4 0 -10 211.18 9.4
4 0 -10 210.98 8.5
-4 0 10 206.68 10.9
-4 0 10 196.38 9.9
3 0 -10 54.59 5.6
-3 0 10 56.79 6.9
3 0 -10 44.9 4.6
-3 0 10 40.2 5.3
-2 0 10 73.49 6.6
2 0 -10 72.29 5.8
2 0 -10 75.39 5.2
-2 0 10 74.99 7.4
1 0 -10 87.29 5.6
-1 0 10 72.19 6.4
-1 0 10 94.29 8.8
1 0 -10 78.49 6.1
0 0 10 183.98 8.5
0 0 10 186.18 10.6
0 0 -10 166.58 9.3
0 0 -10 176.18 7.8
-1 0 -10 163.48 7.7
1 0 10 171.28 10.2
1 0 10 167.58 7.9
-1 0 -10 139.79 8.3
2 0 10 22.2 4.2
2 0 10 16.2 5.4
-2 0 -10 18.9 3.6
-2 0 -10 17.9 4.1
3 0 10 58.49 5.7
3 0 10 68.39 8.9
-3 0 -10 61.29 5.2
-3 0 -10 57.59 7.4
4 0 10 64.69 9.4
-4 0 -10 60.89 8.2
-4 0 -10 76.69 6.5
4 0 10 74.49 6.4
-5 -1 10 92.59 8.1
5 -1 -10 92.19 6.3
-5 1 10 93.59 8.3
5 1 -10 94.09 5.9
-5 1 10 98.39 8.8
-4 -1 10 11.4 4.5
-4 -1 10 18.4 4.7
4 -1 -10 22.7 3.7
4 -1 -10 17.1 3.7
-4 1 10 14.1 4.5
4 1 -10 26.9 3.8
4 1 -10 17.5 3.4
-4 1 10 20.7 5.7
3 -1 -10 3.6 2
-3 -1 10 5.4 4.5
3 -1 -10 2.8 2.6
-3 -1 10 8.4 3.9
3 1 -10 7.1 2.2
3 1 -10 11.8 2.6
-3 1 10 5.8 4.1
-3 1 10 6.5 4.1
2 -1 -10 10.1 2.8
-2 -1 10 11.7 3.9
2 -1 -10 10.7 2.6
-2 -1 10 7.6 4.5
2 1 -10 8.6 2.9
-2 1 10 12 4.5
-2 1 10 7.3 3.7
2 1 -10 8.1 2.3
1 -1 -10 72.19 6.1
-1 -1 10 85.79 8.1
1 -1 -10 75.89 5.7
-1 -1 10 74.29 6.2
-1 1 10 76.49 8.1
-1 1 10 77.59 6.2
1 1 -10 72.59 5.4
1 1 -10 80.19 5.2
0 -1 10 27.5 4.4
0 -1 10 34.7 5.9
0 -1 -10 17.5 4.3
0 -1 -10 24.9 3.6
0 1 -10 25.7 4.5
0 1 10 22.3 5.5
0 1 10 26.7 4.3
0 1 -10 26.7 3.8
-1 -1 -10 52.19 5.3
1 -1 10 66.59 5.9
-1 -1 -10 62.59 6.8
1 -1 10 53.99 6.8
1 1 10 65.39 5.4
-1 1 -10 70.69 6.2
1 1 10 66.09 7.7
-1 1 -10 66.79 4.8
-2 -1 -10 27.9 4
-2 -1 -10 30.5 5.2
2 -1 10 31.6 6.9
2 -1 10 34.6 4.8
-2 1 -10 25.9 4.7
2 1 10 30.1 6.3
-2 1 -10 28.8 4.1
2 1 10 28.2 4.3
-3 -1 -10 51.49 5.7
3 -1 10 34.1 7.1
3 -1 10 44.4 5.2
-3 -1 -10 36.1 6
-3 1 -10 43.9 5
3 1 10 51.29 8.2
3 1 10 48.1 5.1
-3 1 -10 39.6 5.9
4 -1 10 22.3 7.4
4 -1 10 34.3 4.6
-4 -1 -10 30.3 6.5
-4 -1 -10 23.7 4.6
-4 1 -10 19.9 4.4
-4 1 -10 25 5.7
4 1 10 33.6 5.1
4 1 10 38 8
5 -2 -10 43.1 5.1
-5 2 10 38.2 5.9
-5 2 10 49.2 6.9
4 -2 -10 156.18 8.5
4 -2 -10 161.68 7.9
-4 2 10 152.48 9.1
-4 2 10 153.38 10.5
3 -2 -10 -1.8 2.2
3 -2 -10 -1.7 1.8
-3 2 10 4.2 4.4
-3 2 10 2 3.4
2 -2 -10 211.48 9.7
2 -2 -10 212.68 8.6
-2 2 10 219.58 9.4
-2 2 10 217.08 11
1 -2 -10 15.7 3.3
-1 -2 10 12.8 3.4
-1 -2 10 25.4 5.2
1 -2 -10 14.3 3
1 2 -10 12.2 2.7
-1 2 10 15.2 3.1
-1 2 10 11.1 4
1 2 -10 13.9 2.9
0 -2 10 224.28 9
0 -2 -10 218.78 10.5
0 -2 10 223.88 11
0 -2 -10 223.68 8.9
0 2 -10 215.68 8
0 2 -10 187.58 9
0 2 10 225.78 8.9
0 2 10 228.08 11
-1 -2 -10 44.1 5.6
1 -2 10 44.3 4.9
-1 -2 -10 40.5 5
1 -2 10 49.6 6.9
-1 2 -10 47.4 5.4
-1 2 -10 48 4.2
1 2 10 48.3 6.4
1 2 10 46.6 5.5
-2 -2 -10 22.7 4.2
2 -2 10 23.1 4.4
-2 -2 -10 28.8 5.2
2 -2 10 23.4 6.5
2 2 10 17.9 5.5
2 2 10 22.7 3.9
-2 2 -10 24.5 3.9
-2 2 -10 26.4 4.6
3 -2 10 3.8 3
-3 -2 -10 7.6 3.4
-3 -2 -10 1.4 2.2
3 -2 10 6.8 5.4
3 2 10 5.7 2.9
-3 2 -10 8.9 2.5
3 2 10 10.3 5.2
-3 2 -10 6.6 3.2
-4 -2 -10 35.4 6.7
4 -2 10 52.39 9.3
-4 -2 -10 47.9 6.2
4 -2 10 42.4 5.1
-4 2 -10 42 5.5
-4 2 -10 30.8 6
4 2 10 39.9 5.2
4 2 10 43.9 7.7
5 -3 -10 18.4 4.1
-5 3 10 17.2 5
-5 3 10 27.9 5.5
4 -3 -10 26.4 4
4 -3 -10 37.5 5.1
-4 3 10 36 6.6
-4 3 10 24.1 4.6
3 -3 -10 3.6 2.7
3 -3 -10 5.9 2.4
-3 3 10 3 2.7
-3 3 10 6.1 3.9
2 -3 -10 26 4.8
2 -3 -10 27.6 4.2
-2 3 10 24.4 4.4
-2 3 10 26.6 5.2
1 -3 -10 98.69 7.1
1 -3 -10 104.79 6.4
-1 3 10 114.09 6.3
-1 3 10 94.39 7.7
0 -3 -10 73.99 7.8
0 -3 -10 63.29 5
0 3 10 63.59 7.3
0 3 10 59.89 5.2
-1 -3 -10 80.59 8
-1 -3 -10 75.29 6.1
1 3 10 74.29 8
1 3 10 78.39 6.4
-2 -3 -10 -2.5 2.1
-2 -3 -10 0.6 2.8
2 3 10 0.2 3.2
2 3 10 1.4 2.1
-3 -3 -10 19.6 4.4
-3 -3 -10 17.1 5
3 3 10 16.9 3.7
3 3 10 21.5 5.5
4 -4 -10 78.89 6.8
4 -4 -10 67.79 6
-4 4 10 73.89 8.3
-4 4 10 82.69 7.9
3 -4 -10 46.2 5.6
3 -4 -10 44.4 5.1
-3 4 10 40.2 5.2
-3 4 10 42.6 5.8
2 -4 -10 41.9 5.2
2 -4 -10 40.1 5.5
-2 4 10 31.1 5.7
-2 4 10 44.8 5.7
1 -4 -10 18.2 4.1
1 -4 -10 17.7 3.4
-1 4 10 21.7 3.5
-1 4 10 10.1 3.7
0 -4 -10 254.87 10.2
0 -4 -10 250.17 11.6
0 4 10 256.17 11.9
0 4 10 253.37 10
-1 -4 -10 44.9 6.4
-1 -4 -10 42.2 5.4
1 4 10 46.7 5.8
1 4 10 53.89 6.7
-2 -4 -10 52.09 6.2
-2 -4 -10 60.29 7.5
2 4 10 61.59 5.4
2 4 10 59.99 7.6
-3 -4 -10 127.79 8.8
-3 -4 -10 117.69 9.7
3 4 10 116.09 11.3
3 4 10 122.39 7.5
4 -5 -10 9.7 3.2
4 -5 -10 11 3.9
-4 5 10 18.8 4.9
-4 5 10 9.2 3.7
3 -5 -10 26.8 4.5
3 -5 -10 23.3 4.6
-3 5 10 17.1 4
-3 5 10 23.3 5.1
2 -5 -10 21.8 4.2
2 -5 -10 27.3 4.7
-2 5 10 16.8 4.7
-2 5 10 21.9 4.8
1 -5 -10 6.3 3
1 -5 -10 5.1 3.6
-1 5 10 3.7 2.8
-1 5 10 10 4
0 -5 -10 40.9 5.2
0 -5 -10 43.6 6.5
0 5 10 38 4.9
0 5 10 40.4 6.2
-1 -5 -10 205.88 9.8
-1 -5 -10 206.48 11.8
1 5 10 204.38 11.1
1 5 10 217.38 9.4
-2 -5 -10 55.49 7.5
-2 -5 -10 39.7 5.4
2 5 10 44.2 6.8
2 5 10 52.19 5.5
3 -6 -10 7.3 3.5
3 -6 -10 -1 3.8
-3 6 10 8.3 3.3
-3 6 10 9.4 4
2 -6 -10 49.2 5.8
2 -6 -10 38.5 5.9
-2 6 10 43.1 6
-2 6 10 46 5.4
1 -6 -10 25.3 4.7
1 -6 -10 26.6 5.5
-1 6 10 29.1 5.7
-1 6 10 26.6 4.4
0 -6 -10 139.69 9.5
0 -6 -10 156.28 8.7
0 6 10 139.79 9.8
0 6 10 166.78 8.2
-1 -6 -10 56.29 8
-1 -6 -10 58.49 6.6
1 6 10 55.99 7.8
1 6 10 59.89 5.3
-5 0 11 123.99 9.3
5 0 -11 122.99 7.3
-5 0 11 120.99 9.1
-4 0 11 359.36 14.6
-4 0 11 371.86 13.6
4 0 -11 391.16 13.1
4 0 -11 384.86 12.4
3 0 -11 4.2 2.4
-3 0 11 -1.1 3.6
3 0 -11 5.5 2.5
-3 0 11 2.5 4.3
2 0 -11 13.5 3
2 0 -11 11.8 3.8
-2 0 11 15.2 5.4
-2 0 11 15.5 4.5
-1 0 11 6.4 3.8
1 0 -11 8.7 2.6
-1 0 11 8.8 4.9
1 0 -11 8 2.6
0 0 11 2.7 4.4
0 0 11 4.6 3.6
0 0 -11 0.4 2.7
0 0 -11 -0.3 2.1
-1 0 -11 0 2.7
-1 0 -11 4.9 2.7
1 0 11 3.3 5
1 0 11 3 3.2
2 0 11 78.79 9.3
-2 0 -11 86.39 6.4
2 0 11 91.49 6.7
-2 0 -11 94.39 7.9
3 0 11 -3 5.6
3 0 11 0.7 2.8
-3 0 -11 1.4 2.6
-3 0 -11 2.8 2.2
-4 -1 11 4.4 4.4
4 -1 -11 4.3 2.5
-4 -1 11 5.6 4.1
4 -1 -11 6.2 2.8
-4 1 11 7.5 5.2
-4 1 11 5 4.2
4 1 -11 4.8 2.5
4 1 -11 7.7 2.4
3 -1 -11 3.3 2.2
-3 -1 11 7.3 4.7
-3 -1 11 3.9 3.8
3 -1 -11 -0.7 2.3
3 1 -11 4.2 2.1
3 1 -11 5.9 1.9
-3 1 11 4.4 3.9
-3 1 11 -1.8 4
2 -1 -11 24.5 4.1
2 -1 -11 17.2 3.7
-2 -1 11 23.5 4.8
-2 -1 11 17.5 5.4
-2 1 11 18.1 4.6
-2 1 11 23.5 6
2 1 -11 12.9 3.3
2 1 -11 10.4 2.8
-1 -1 11 109.69 7.3
-1 -1 11 118.49 9.3
1 -1 -11 105.89 6.6
1 -1 -11 107.69 7.2
1 1 -11 108.39 7.1
-1 1 11 124.89 8.2
1 1 -11 97.79 6.2
-1 1 11 112.69 9.5
0 -1 -11 141.99 8.9
0 -1 11 153.78 8.6
0 -1 11 133.99 10.5
0 -1 -11 157.78 8
0 1 11 143.59 10.8
0 1 11 151.78 8.4
0 1 -11 145.39 8.5
0 1 -11 153.68 7.4
1 -1 11 40.7 7.3
-1 -1 -11 49.9 5.7
-1 -1 -11 41.8 5.7
1 -1 11 40.3 5.2
1 1 11 47.1 5.7
-1 1 -11 42.4 4.7
-1 1 -11 37 5.3
1 1 11 38.8 6.9
-2 -1 -11 35 4.8
-2 -1 -11 37.9 5.7
2 -1 11 43.9 5.1
2 -1 11 46.6 7.9
-2 1 -11 39 5.5
2 1 11 48.1 7.6
2 1 11 40.9 5
-2 1 -11 46 5.1
-3 -1 -11 98.99 7
3 -1 11 85.99 10.5
3 -1 11 92.79 7.3
-3 -1 -11 71.89 8.6
-3 1 -11 106.89 8.2
3 1 11 94.99 6.9
-3 1 -11 95.79 6.7
3 1 11 96.59 10.9
4 -2 -11 111.49 7.1
4 -2 -11 112.59 7.9
-4 2 11 101.79 8.7
-4 2 11 112.49 10.5
3 -2 -11 37.8 4.9
3 -2 -11 25.2 4.6
-3 2 11 37.5 5.8
-3 2 11 33.6 6.1
2 -2 -11 12 3.2
2 -2 -11 13.2 3.6
-2 2 11 10.3 4.2
-2 2 11 18.8 5.7
1 -2 -11 10.7 3.6
1 -2 -11 7.4 2.8
-1 2 11 19.4 4.5
-1 2 11 11.3 5.2
0 -2 -11 35.7 5.8
0 -2 -11 39.1 5.3
0 2 11 54.29 6.2
0 2 11 49.3 7.2
1 -2 11 32.5 6.8
1 -2 11 28.6 4.6
-1 -2 -11 30 4.5
-1 -2 -11 23 5.2
1 2 11 30.8 6.1
1 2 11 35 4.6
-1 2 -11 31.4 4.1
-1 2 -11 40.5 5.5
2 -2 11 8.9 3.5
2 -2 11 11.3 6.1
-2 -2 -11 11.6 4
-2 -2 -11 17.2 3.7
2 2 11 15.2 3.9
-2 2 -11 15.4 3.1
2 2 11 25 5.8
-2 2 -11 15.4 3.8
-3 -2 -11 14.9 4.4
3 -2 11 12.2 7
3 -2 11 17.2 4.3
-3 -2 -11 15.4 3.9
3 2 11 10.6 5.8
-3 2 -11 15.1 3.9
3 2 11 13.9 3.7
-3 2 -11 18.1 3.6
4 -3 -11 3.1 2.4
4 -3 -11 5.1 3.3
-4 3 11 -1.1 4.7
-4 3 11 -0.6 3.6
3 -3 -11 22 4
3 -3 -11 18.2 4.2
-3 3 11 21.8 5.2
-3 3 11 23.3 4.8
2 -3 -11 30.1 4.4
2 -3 -11 19.4 4.8
-2 3 11 28.3 4.6
-2 3 11 23 5.7
1 -3 -11 19.6 4.1
1 -3 -11 22.2 4.3
-1 3 11 19.9 4.2
-1 3 11 16.7 5.2
0 -3 -11 81.59 7.5
0 -3 -11 75.19 6
0 3 11 93.79 9.3
0 3 11 84.89 6.6
-1 -3 -11 34.2 4.8
-1 -3 -11 28.1 5.6
1 3 11 34 6.1
1 3 11 34.6 4.6
-2 -3 -11 33.6 5.6
-2 -3 -11 35.8 5.2
2 3 11 37.9 5.1
2 3 11 36.1 6.8
3 -4 -11 53.69 6.3
3 -4 -11 49.99 5.7
-3 4 11 51.99 6.3
-3 4 11 55.59 7.2
2 -4 -11 44.3 5.7
2 -4 -11 38.3 4.9
-2 4 11 29.6 5.6
-2 4 11 44.4 5.3
1 -4 -11 34.8 4.8
1 -4 -11 25.5 4.6
-1 4 11 36.1 5
-1 4 11 38.4 6.1
0 -4 -11 133.19 9
0 -4 -11 123.69 7.6
0 4 11 134.09 9.6
0 4 11 129.29 7.7
-1 -4 -11 44.9 7
-1 -4 -11 62.49 6.7
1 4 11 63.39 7.8
1 4 11 61.49 5.4
-2 -4 -11 33.4 5.7
-2 -4 -11 31.3 5.5
2 4 11 30.8 4.9
2 4 11 26.8 5.9
3 -5 -11 26.4 4.7
3 -5 -11 28.5 4.8
-3 5 11 21 4.6
-3 5 11 42.1 6.7
2 -5 -11 263.07 11.1
2 -5 -11 253.97 12
-2 5 11 275.07 11.2
-2 5 11 238.78 12.7
1 -5 -11 18.5 4.3
1 -5 -11 18.3 4.5
-1 5 11 20.8 5.2
-1 5 11 13.2 3.6
0 -5 -11 -1.4 2.6
0 -5 -11 -3 3.3
0 5 11 2.5 3
0 5 11 6.8 2.4
-1 -5 -11 9.9 4
-1 -5 -11 13.1 5.4
1 5 11 2.3 3.7
1 5 11 19.6 3.9
1 -6 -11 42.4 6.4
1 -6 -11 54.99 6.7
-1 6 11 53.39 5.9
-1 6 11 74.59 9
-4 0 12 -7.3 4.4
-4 0 12 -3.4 4.1
4 0 -12 2.4 2.2
4 0 -12 3.7 2.5
-3 0 12 24.9 5.3
-3 0 12 26.9 5.7
3 0 -12 23.7 4
3 0 -12 24.8 4.2
-2 0 12 9.8 5.2
2 0 -12 9.1 2.7
-2 0 12 13.9 3.8
2 0 -12 0.5 3.1
-1 0 12 181.58 9.1
1 0 -12 167.18 8.3
-1 0 12 167.28 11.4
1 0 -12 183.88 9.4
0 0 12 -0.6 3.6
0 0 12 5.5 5
0 0 -12 1.8 3
0 0 -12 11 3.1
-1 0 -12 23 3.7
-1 0 -12 11.1 4.2
1 0 12 11 5.7
1 0 12 23.5 4.4
2 0 12 14 6.4
2 0 12 15.4 4.5
-2 0 -12 13.7 4.5
-2 0 -12 17.2 3.8
4 -1 -12 181.78 9.1
4 -1 -12 188.18 10
-4 1 12 168.58 10.8
-4 1 12 171.08 12
3 -1 -12 118.89 8.3
3 -1 -12 134.19 7.9
-3 -1 12 133.29 9.5
-3 -1 12 117.89 15.8
3 1 -12 129.19 8.4
-3 1 12 132.59 9.6
-3 1 12 133.69 10.8
3 1 -12 164.98 11
-2 -1 12 73.89 8.3
2 -1 -12 57.29 7.1
-2 -1 12 69.39 6.8
2 -1 -12 57.89 6
2 1 -12 63.49 5.5
2 1 -12 58.39 4.9
-2 1 12 57.89 6.1
-2 1 12 59.19 8.2
1 -1 -12 39.4 5.5
-1 -1 12 42.3 7
-1 -1 12 47.5 5.8
1 -1 -12 44.3 6
-1 1 12 42.3 7.4
1 1 -12 45.9 5
1 1 -12 45.9 5.5
-1 1 12 52.79 6.6
0 -1 -12 168.68 8.8
0 -1 12 145.09 8.7
0 -1 12 155.58 10.9
0 -1 -12 169.48 9.9
0 1 12 144.49 9
0 1 -12 132.69 8.6
0 1 12 150.58 11.1
0 1 -12 170.88 8.4
1 -1 12 13.1 3.9
1 -1 12 14.5 5.7
-1 -1 -12 6.8 3.9
1 1 12 11.9 4
-1 1 -12 10.2 4
-1 1 -12 7.8 2.9
1 1 12 18 5.9
-2 -1 -12 12.4 3.7
2 -1 12 20.9 4.5
-2 -1 -12 27.8 5.5
2 -1 12 18.1 6.4
2 1 12 25.3 4.8
-2 1 -12 15.9 3.6
-2 1 -12 20.4 4.9
2 1 12 14.7 6.8
3 -2 -12 77.29 8
3 -2 -12 59.29 6.3
-3 2 12 84.09 9.5
-3 2 12 60.39 7.1
2 -2 -12 7.6 2.8
2 -2 -12 2.3 3.5
-2 2 12 9.2 5.4
-2 2 12 11.4 3.7
1 -2 -12 39.3 5.8
1 -2 -12 29.9 4.5
-1 2 12 40.9 7.2
-1 2 12 29.1 5.2
0 -2 -12 44.4 6.5
0 -2 -12 49.8 5.9
0 2 12 60.49 6.9
0 2 12 56.69 7.9
-1 -2 -12 1.2 3.1
-1 -2 -12 -2.1 2.3
1 2 12 3.2 4.5
1 2 12 0.1 3.2
-2 -2 -12 27.8 5.5
-2 -2 -12 24.8 4.6
2 2 12 20.8 4.1
2 2 12 12.7 5.9
3 -3 -12 108.39 8.5
3 -3 -12 129.49 8.3
-3 3 12 118.59 9.2
-3 3 12 123.19 10.2
2 -3 -12 34.3 6
2 -3 -12 38.1 5.4
-2 3 12 47.9 7.8
-2 3 12 47.7 6
1 -3 -12 6.9 2.8
1 -3 -12 14.6 3.8
-1 3 12 6.2 3.7
-1 3 12 9.9 4.9
0 -3 -12 79.59 7.3
0 -3 -12 77.79 6.7
0 3 12 81.49 9.1
0 3 12 84.59 6.9
-1 -3 -12 -8.5 3.2
-1 -3 -12 3.8 3
1 3 12 2.9 4.6
1 3 12 -2.9 2.5
2 -4 -12 3.5 2.9
2 -4 -12 7 3.2
-2 4 12 8.4 4.5
1 -4 -12 7.8 4.3
1 -4 -12 8.4 4
-1 4 12 -2.7 4.5
-1 4 12 2.4 3.2
0 -4 -12 1.6 3
0 -4 -12 0.9 3.4
0 4 12 2.1 3.9
0 4 12 3.7 2.8
-1 -4 -12 3.7 3.6
-1 -4 -12 7.3 4.6
1 4 12 1.7 3.5
1 4 12 5.2 4.9
2 0 -13 -0.3 2.1
-2 0 13 4.4 3.8
2 0 -13 4 2.7
-2 0 13 7.4 5.3
1 0 -13 79.09 6.5
1 0 -13 78.99 7
-1 0 13 77.89 9.4
-1 0 13 70.59 7.2
0 0 13 205.68 10.9
0 0 -13 238.68 11.6
0 0 -13 229.98 10.5
0 0 13 220.78 13.3
1 0 13 0.1 5.3
-1 0 -13 -0.8 2.5
-1 0 -13 -3.1 3.4
1 0 13 0.9 3.4
2 -1 -13 95.59 9.3
2 -1 -13 105.39 7.1
-2 1 13 101.19 8.6
-2 1 13 106.49 10.7
1 -1 -13 3.5 2.4
1 -1 -13 5.8 3
-1 -1 13 -4.7 5.1
-1 -1 13 3.9 3.6
1 1 -13 2.7 3
-1 1 13 4.3 4.9
-1 1 13 2.4 3.7
1 1 -13 4.6 2.7
0 -1 13 114.29 8
0 -1 13 108.49 10.5
0 -1 -13 124.19 8.1
0 -1 -13 106.79 8.4
0 1 -13 118.49 7.5
0 1 13 116.49 11.3
0 1 13 120.59 9.1
0 1 -13 110.69 8.1
1 -1 13 231.68 14.5
1 -1 13 229.58 10.4
-1 -1 -13 245.08 10.9
-1 -1 -13 209.18 12.9
-1 1 -13 232.68 10.3
1 1 13 239.08 10.9
1 1 13 236.68 14.2
-1 1 -13 225.68 12.9
2 -2 -13 49.8 6.2
2 -2 -13 31 5.6
-2 2 13 52.59 7
-2 2 13 43.3 7.8
1 -2 -13 8.3 3.1
1 -2 -13 13.2 4.4
-1 2 13 12.2 5.8
-1 2 13 4.7 3.9
0 -2 -13 198.88 10.5
0 -2 -13 194.88 11.6
0 2 13 194.88 10.8
0 2 13 181.88 12.8
loop_
_geom_angle_atom_site_label_1
_geom_angle_atom_site_label_2
_geom_angle_atom_site_label_3
_geom_angle
_geom_angle_site_symmetry_1
_geom_angle_site_symmetry_3
_geom_angle_publ_flag
H1B N1 H1A 108.8(6) . . ?
H1C N1 H1A 110.6(7) . . ?
H1C N1 H1B 109.3(6) . . ?
C2 N1 H1A 107.7(5) . . ?
C2 N1 H1B 111.6(5) . . ?
C2 N1 H1C 108.7(5) . . ?
C6 N3 H3 127.6(4) . . ?
C5 N3 H3 125.1(4) . . ?
C5 N3 C6 107.28(4) . . ?
C5 N2 C4 105.37(4) . . ?
O1 C1 O2 126.63(5) . . ?
C2 C1 O2 116.20(4) . . ?
C2 C1 O1 117.12(5) . . ?
C6 C4 N2 109.48(4) . . ?
C3 C4 N2 120.82(4) . . ?
C3 C4 C6 129.69(5) . . ?
C4 C6 N3 105.96(5) . . ?
H6 C6 N3 122.4(4) . . ?
H6 C6 C4 131.6(4) . . ?
C1 C2 N1 109.95(4) . . ?
H2 C2 N1 108.1(4) . . ?
H2 C2 C1 108.9(4) . . ?
C3 C2 N1 110.51(4) . . ?
C3 C2 C1 109.67(4) . . ?
C3 C2 H2 109.7(3) . . ?
N2 C5 N3 111.91(5) . . ?
H5 C5 N3 123.5(4) . . ?
H5 C5 N2 124.6(4) . . ?
C2 C3 C4 112.66(4) . . ?
H3A C3 C4 111.6(4) . . ?
H3A C3 C2 107.0(4) . . ?
H3B C3 C4 109.5(4) . . ?
H3B C3 C2 106.6(4) . . ?
H3B C3 H3A 109.3(6) . . ?
loop_
_geom_bond_atom_site_label_1
_geom_bond_atom_site_label_2
_geom_bond_distance
_geom_bond_site_symmetry_2
_geom_bond_publ_flag
O2 C1 1.2611(6) . ?
O1 C1 1.2530(6) . ?
N1 H1A 1.016(7) . ?
N1 H1B 1.007(8) . ?
N1 H1C 1.023(9) . ?
N1 C2 1.4930(7) . ?
N3 H3 1.000(6) . ?
N3 C6 1.3794(7) . ?
N3 C5 1.3533(7) . ?
N2 C4 1.3897(7) . ?
N2 C5 1.3261(6) . ?
C1 C2 1.5415(7) . ?
C4 C6 1.3776(6) . ?
C4 C3 1.5020(7) . ?
C6 H6 1.076(7) . ?
C2 H2 1.091(7) . ?
C2 C3 1.5419(7) . ?
C5 H5 1.076(7) . ?
C3 H3A 1.088(7) . ?
C3 H3B 1.094(8) . ?
loop_
_geom_torsion_atom_site_label_1
_geom_torsion_atom_site_label_2
_geom_torsion_atom_site_label_3
_geom_torsion_atom_site_label_4
_geom_torsion
_geom_torsion_site_symmetry_1
_geom_torsion_site_symmetry_2
_geom_torsion_site_symmetry_3
_geom_torsion_site_symmetry_4
_geom_torsion_publ_flag
C5 N2 C4 C3 178.91(5) . . . . ?
C6 N3 C5 N2 0.25(7) . . . . ?
O1 C1 C2 C3 94.30(6) . . . . ?
N1 C2 C3 C4 -57.64(6) . . . . ?
C2 C3 C4 C6 -127.97(6) . . . . ?
H1A N1 C2 C1 163.5(5) . . . . ?
H1B N1 C2 C1 44.1(5) . . . . ?
H1C N1 C2 C1 -76.5(5) . . . . ?
C4 N2 C5 H5 178.1(5) . . . . ?
H3 N3 C5 H5 3.3(8) . . . . ?
H3 N3 C6 H6 -1.6(8) . . . . ?
C5 N2 C4 C6 0.24(6) . . . . ?
C5 N3 C6 C4 -0.09(7) . . . . ?
O2 C1 C2 N1 155.03(4) . . . . ?
C1 C2 C3 C4 -179.00(5) . . . . ?
N2 C4 C6 N3 -0.09(6) . . . . ?
H1A N1 C2 C3 42.3(5) . . . . ?
H1B N1 C2 C3 -77.1(5) . . . . ?
H1C N1 C2 C3 162.3(5) . . . . ?
C6 N3 C5 H5 -178.2(5) . . . . ?
C5 N3 C6 H6 179.9(5) . . . . ?
O1 C1 C2 H2 -145.6(4) . . . . ?
C4 N2 C5 N3 -0.31(6) . . . . ?
O1 C1 C2 N1 -27.41(6) . . . . ?
O2 C1 C2 C3 -83.27(6) . . . . ?
C2 C3 C4 N2 53.66(7) . . . . ?
C3 C4 C6 N3 -178.61(5) . . . . ?
H1A N1 C2 H2 -77.8(6) . . . . ?
H1B N1 C2 H2 162.8(6) . . . . ?
H1C N1 C2 H2 42.2(6) . . . . ?
H3 N3 C5 N2 -178.3(6) . . . . ?
H3 N3 C6 C4 178.4(6) . . . . ?
O2 C1 C2 H2 36.8(4) . . . . ?
N1 C2 C3 H3A 65.4(4) . . . . ?
C1 C2 C3 H3B 60.9(4) . . . . ?
H2 C2 C3 H3B -58.7(5) . . . . ?
H3B C3 C4 N2 172.1(4) . . . . ?
C3 C4 C6 H6 1.4(6) . . . . ?
N1 C2 C3 H3B -177.8(4) . . . . ?
H2 C2 C3 C4 61.4(4) . . . . ?
H3A C3 C4 N2 -66.7(4) . . . . ?
H3B C3 C4 C6 -9.5(4) . . . . ?
C1 C2 C3 H3A -56.0(4) . . . . ?
H2 C2 C3 H3A -175.6(6) . . . . ?
H3A C3 C4 C6 111.7(5) . . . . ?
N2 C4 C6 H6 179.9(6) . . . . ?
loop_
_restr_rigu_atom_site_label_1
_restr_rigu_atom_site_label_2
_restr_rigu_target_weight_param
_restr_rigu_u13_diff
_restr_rigu_u23_diff
_restr_rigu_u33_diff
N1 H1A 0.003000 -0.001293 -0.000172 -0.003608
N1 H1B 0.003000 -0.001769 0.000098 -0.000639
N1 H1C 0.003000 -0.002430 0.000087 -0.003846
H1A H1B 0.003000 0.007131 0.006054 -0.000029
H1A H1C 0.003000 -0.005216 0.009683 0.000588
H1B H1C 0.003000 -0.003246 -0.011612 0.000248
N3 H3 0.003000 0.000771 0.000970 -0.003248
N3 N2 0.003000 0.000184 0.001843 0.000107
N3 C4 0.003000 -0.000507 -0.000847 0.000529
N3 C6 0.003000 -0.000247 -0.001240 -0.000499
N3 H6 0.003000 -0.000235 -0.006696 -0.004767
N3 C5 0.003000 0.000193 0.001791 -0.000502
N3 H5 0.003000 -0.002802 0.007178 -0.006640
H3 C6 0.003000 0.000009 -0.001852 0.003477
H3 C5 0.003000 0.001370 0.001732 0.001532
N2 C4 0.003000 0.000046 0.001413 -0.000608
N2 C6 0.003000 0.000297 -0.000853 -0.000600
N2 C5 0.003000 0.000397 -0.001253 -0.000431
N2 H5 0.003000 -0.001649 -0.004603 -0.003786
C4 C6 0.003000 -0.000221 0.001236 0.000378
C4 H6 0.003000 -0.001670 0.005741 -0.005472
C4 C5 0.003000 0.000226 -0.000617 -0.001093
C6 H6 0.003000 -0.000551 0.001055 -0.002873
C6 C5 0.003000 0.000304 0.001832 0.000029
C2 H2 0.003000 -0.001564 -0.004105 0.000087
C2 C3 0.003000 -0.001108 0.001074 0.000322
C2 H3A 0.003000 -0.000264 0.006141 -0.007218
C2 H3B 0.003000 -0.004606 0.004074 -0.008116
H2 C3 0.003000 -0.002314 -0.009946 0.000202
C5 H5 0.003000 -0.003156 0.001597 -0.002702
C3 H3A 0.003000 0.001566 -0.002719 -0.003533
C3 H3B 0.003000 0.000619 -0.000638 -0.003409
H3A H3B 0.003000 0.010181 0.014010 0.004355

_cod_database_fobs_code 2108882
