#------------------------------------------------------------------------------
#$Date: 2019-11-22 08:26:23 +0200 (Fri, 22 Nov 2019) $
#$Revision: 231197 $
#$URL: file:///home/coder/svn-repositories/cod/cif/2/10/85/2108547.cif $
#------------------------------------------------------------------------------
#
# This file is available in the Crystallography Open Database (COD),
# http://www.crystallography.net/. The original data for this entry
# were provided by IUCr Journals, http://journals.iucr.org/.
#
# The file may be used within the scientific community so long as
# proper attribution is given to the journal article from which the
# data were obtained.
#
data_2108547
loop_
_publ_author_name
'Udovenko, Anatoly A.'
'Slobodyuk, Arseny B.'
'Emelina, Tatiana B.'
'Laptash, Natalia M.'
_publ_section_title
;
 Fluxional seven-coordinated fluorido- and oxofluoridotantalates
;
_journal_issue                   6
_journal_name_full               'Acta Crystallographica Section B'
_journal_page_first
;
;
_journal_paper_doi               10.1107/S2052520619013465
_journal_volume                  75
_journal_year                    2019
_chemical_formula_moiety         '(F7 Ta),2(Rb)'
_chemical_formula_sum            'F7 Rb2 Ta'
_chemical_formula_weight         484.89
_chemical_name_common            'rubidium heptafluorotantalate'
_chemical_name_systematic        'rubidium heptafluorotantalate'
_space_group_crystal_system      orthorhombic
_space_group_IT_number           67
_space_group_name_Hall           '-C 2a 2'
_space_group_name_H-M_alt        'C m m a'
_atom_sites_solution_primary     direct
_atom_sites_solution_secondary   difmap
_audit_creation_method           SHELXL-97
_cell_angle_alpha                90
_cell_angle_beta                 90
_cell_angle_gamma                90
_cell_formula_units_Z            4
_cell_length_a                   8.2419(5)
_cell_length_b                   8.2749(5)
_cell_length_c                   10.5694(7)
_cell_measurement_reflns_used    512
_cell_measurement_temperature    123(2)
_cell_measurement_theta_max      32.09
_cell_measurement_theta_min      3.86
_cell_volume                     720.84(8)
_computing_cell_refinement       'Bruker SAINT'
_computing_data_collection       'Bruker APEX2'
_computing_data_reduction        'Bruker SAINT'
_computing_molecular_graphics    'Bruker SHELXTL'
_computing_publication_material  'Bruker SHELXTL'
_computing_structure_refinement  'SHELXL-2014/7 (Sheldrick, 2014)'
_computing_structure_solution    'SHELXS-97 (Sheldrick, 2008)'
_diffrn_ambient_temperature      123(2)
_diffrn_detector_area_resol_mean 8.33
_diffrn_measured_fraction_theta_full 0.997
_diffrn_measured_fraction_theta_max 0.971
_diffrn_measurement_device_type  'Bruker P4'
_diffrn_measurement_method       '\w scans'
_diffrn_radiation_type           MoK\a
_diffrn_radiation_wavelength     0.71073
_diffrn_reflns_av_R_equivalents  0.0384
_diffrn_reflns_av_unetI/netI     0.0247
_diffrn_reflns_Laue_measured_fraction_full 0.997
_diffrn_reflns_Laue_measured_fraction_max 0.971
_diffrn_reflns_limit_h_max       12
_diffrn_reflns_limit_h_min       -11
_diffrn_reflns_limit_k_max       12
_diffrn_reflns_limit_k_min       -11
_diffrn_reflns_limit_l_max       15
_diffrn_reflns_limit_l_min       -15
_diffrn_reflns_number            4382
_diffrn_reflns_point_group_measured_fraction_full 0.997
_diffrn_reflns_point_group_measured_fraction_max 0.971
_diffrn_reflns_theta_full        25.242
_diffrn_reflns_theta_max         32.087
_diffrn_reflns_theta_min         3.856
_exptl_absorpt_coefficient_mu    28.722
_exptl_absorpt_correction_T_max  0.1077
_exptl_absorpt_correction_T_min  0.0500
_exptl_absorpt_correction_type   multi-scan
_exptl_absorpt_process_details   'SADABS v.2.03; Bruker 1999'
_exptl_crystal_colour            colorless
_exptl_crystal_density_diffrn    4.468
_exptl_crystal_description       Prism
_exptl_crystal_F_000             840
_exptl_crystal_size_max          0.260
_exptl_crystal_size_mid          0.140
_exptl_crystal_size_min          0.140
_refine_diff_density_max         2.228
_refine_diff_density_min         -3.298
_refine_diff_density_rms         0.267
_refine_ls_extinction_coef       0.0013(2)
_refine_ls_extinction_expression Fc^*^=kFc[1+0.001xFc^2^\l^3^/sin(2\q)]^-1/4^
_refine_ls_extinction_method     'SHELXL-2014/7 (Sheldrick 2014'
_refine_ls_goodness_of_fit_ref   1.147
_refine_ls_matrix_type           full
_refine_ls_number_parameters     39
_refine_ls_number_reflns         693
_refine_ls_number_restraints     6
_refine_ls_restrained_S_all      1.160
_refine_ls_R_factor_all          0.0237
_refine_ls_R_factor_gt           0.0222
_refine_ls_shift/su_max          0.000
_refine_ls_shift/su_mean         0.000
_refine_ls_structure_factor_coef Fsqd
_refine_ls_weighting_details
'w=1/[\s^2^(Fo^2^)+(0.0298P)^2^+5.6867P] where P=(Fo^2^+2Fc^2^)/3'
_refine_ls_weighting_scheme      calc
_refine_ls_wR_factor_gt          0.0590
_refine_ls_wR_factor_ref         0.0597
_reflns_Friedel_coverage         0.000
_reflns_number_gt                661
_reflns_number_total             693
_reflns_threshold_expression     'I > 2\s(I)'
_cod_data_source_file            wf5151sup1.cif
_cod_data_source_block           II-LT
_cod_original_sg_symbol_Hall     '-C 2b 2'
_cod_database_code               2108547
_shelx_space_group_comment
; 
The symmetry employed for this shelxl refinement is uniquely defined 
by the following loop, which should always be used as a source of 
symmetry information in preference to the above space-group names. 
They are only intended as comments. 
;
_shelx_estimated_absorpt_t_min   0.050
_shelx_estimated_absorpt_t_max   0.108
_shelx_res_file
; 
  
    ff67.res created by SHELXL-2014/7 
  
TITL ff67 in Cmma 
CELL 0.71073   8.2419   8.2749  10.5694  90.000  90.000  90.000 
ZERR    4.00   0.0005   0.0005   0.0007   0.000   0.000   0.000 
LATT 7 
SYMM -X, 0.5-Y, Z 
SYMM -X, 0.5+Y, -Z 
SYMM X, -Y, -Z 
SFAC F  Rb Ta 
UNIT 28 8 4 
L.S. 4 
ACTA 
BOND 
ISOR 0.01 0.02 F3 
FMAP 2 
PLAN 3 
DAMP 1 
CONN 10 1.8 F1 F2 F3 F4 Ta1 Rb1 Rb2 
SIZE 0.26 0.14 0.14 
TEMP -150 
WGHT    0.029800    5.686700 
EXTI    0.001273 
FVAR       0.21467   0.33115 
TA1   3    0.000000    0.750000    0.243669    10.25000    0.01576    0.01582 = 
         0.00769    0.00000    0.00000    0.00000 
RB1   2    0.250000    0.500000    0.000000    10.25000    0.01614    0.01667 = 
         0.01235    0.00000    0.00000    0.00000 
RB2   2    0.000000    0.750000    0.635823    10.25000    0.02719    0.02888 = 
         0.00857    0.00000    0.00000    0.00000 
F1    1    0.000000    0.750000    0.054763    10.25000    0.02305    0.02365 = 
         0.00757    0.00000    0.00000    0.00000 
F2    1    0.000000    0.522189    0.203304    10.50000    0.03624    0.01874 = 
         0.02997    0.00258    0.00000    0.00000 
F3    1    0.102902    0.650928    0.389507    10.50000    0.05016    0.05520 = 
         0.00800    0.00561   -0.00521    0.02858 
F4    1    0.228606    0.750000    0.201415    10.50000    0.01668    0.03962 = 
         0.02691    0.00000   -0.00178    0.00000 
HKLF 4 
  
REM  ff67 in Cmma 
REM R1 =  0.0222 for     661 Fo > 4sig(Fo)  and  0.0237 for all     693 data 
REM     39 parameters refined using      6 restraints 
  
END 
  
WGHT      0.0301      5.6445 
  
REM Highest difference peak  2.228,  deepest hole -3.298,  1-sigma level  0.267 
Q1    1   0.0000  0.6586  0.2478  10.50000  0.05    2.23 
Q2    1   0.0698  0.7500  0.1833  10.50000  0.05    1.28 
Q3    1   0.0670  0.7500  0.2941  10.50000  0.05    1.20 
;
_shelx_res_checksum              54895
_shelx_hkl_file
; 
   2   0   0 4068.51  189.96 
   2   0   0 4235.05  183.26 
   2   0   0 4006.00  193.20 
   4   0   0 9490.10  433.92 
   4   0   0 9947.60  449.84 
   4   0   0 9845.60  456.90 
   6   0   0 1264.52   57.91 
   6   0   0 1276.18   62.11 
   6   0   0 1283.86   59.89 
  -8   0   0 2744.58  133.00 
   8   0   0 3176.31  138.02 
  10   0   0  433.74   22.61 
   1   1   0   17.73    1.67 
   1  -1   0   20.07    1.64 
   3   1   0   33.14    5.45 
  -3  -1   0   12.78    1.81 
  -5  -1   0    4.02    1.56 
   5  -1   0   13.90    4.45 
   5  -1   0    1.68    1.32 
   5   1   0    3.31    1.39 
   5  -1   0    3.32    1.44 
   5   1   0    7.73    4.28 
   7  -1   0    0.35    1.82 
   7  -1   0    2.47    4.99 
   7   1   0    2.67    1.84 
   7  -1   0    4.87    2.05 
   7   1   0   -1.94    4.63 
   9   1   0    0.18    2.52 
  -9   1   0    1.50    2.44 
   9  -1   0   -0.95    2.54 
  11   1   0   -1.22    3.22 
   0   2   0 4074.71  192.84 
   0  -2   0 4144.17  183.66 
   2   2   0 6420.20  282.13 
   2  -2   0 5724.11  271.68 
  -2   2   0 6111.24  285.74 
   2   2   0 6157.84  286.15 
   4   2   0 1858.01   87.34 
  -4   2   0 1757.48   88.83 
   4  -2   0 2011.86   84.49 
  -4  -2   0 1904.83   84.83 
   4  -2   0 1856.15   87.19 
   6   2   0 3202.74  145.08 
   6   2   0 3294.90  149.90 
   6  -2   0 3066.87  144.87 
   6  -2   0 3190.75  140.10 
  -6   2   0 2886.23  147.30 
   8  -2   0  714.69   31.62 
  -8   2   0  644.21   32.92 
   8  -2   0  660.03   32.21 
   8   2   0  622.37   32.13 
  10   2   0 1087.83   52.60 
  12   2   0  144.46   10.30 
  -1  -3   0   11.47    1.54 
   1   3   0   21.48    2.76 
   1   3   0   12.04    1.74 
   1  -3   0   13.85    1.80 
  -1   3   0   19.15    2.36 
  -3   3   0    6.82    1.94 
   3   3   0    7.37    2.80 
   3  -3   0    6.99    1.51 
   3   3   0    5.38    1.38 
  -3   3   0    6.22    1.65 
  -3  -3   0    7.16    1.53 
  -3   3   0    6.19    1.86 
  -5   3   0    1.83    2.05 
   5   3   0   -5.90    7.48 
   5  -3   0    2.99    1.57 
   5   3   0    2.18    1.45 
   5  -3   0    2.05    1.47 
  -7   3   0   -0.34    2.33 
   7   3   0   -1.76    4.72 
   7  -3   0    2.44    2.03 
   7   3   0    1.70    1.81 
   9  -3   0    4.93    3.02 
   9   3   0   -0.36    2.40 
  11   3   0   -0.80    2.99 
   0  -4   0 9995.39  414.36 
   0   4   0 9377.71  429.25 
   0   4   0 8561.35  435.17 
  -2  -4   0 1925.90   86.30 
   2  -4   0 1974.53   86.73 
   2   4   0 1965.04   91.70 
   2   4   0 2024.92   89.78 
  -2   4   0 1762.51   91.34 
   4  -4   0 6056.36  276.93 
   4   4   0 6263.54  292.68 
   4   4   0 6276.66  286.95 
  -4   4   0 6274.59  291.28 
  -6   4   0  956.19   47.22 
   6  -4   0  980.04   44.76 
   6   4   0  980.48   46.17 
  -8   4   0 2078.43   98.67 
   8   4   0 2125.06   96.99 
   8  -4   0 1998.41   93.78 
  10  -4   0  266.40   14.59 
  10   4   0  245.98   14.29 
   1  -5   0    2.91    1.38 
  -1   5   0    7.04    2.28 
   1   5   0    2.48    1.25 
  -1   5   0    0.47    0.80 
  -1  -5   0    6.73    1.28 
   1   5   0    5.68    2.20 
   3  -5   0    1.18    1.42 
   3   5   0    2.69    2.65 
  -3   5   0    8.90    2.50 
   3   5   0    2.48    1.46 
   5   5   0    1.38    3.81 
   5   5   0    4.00    1.84 
  -5   5   0    4.83    2.58 
   5  -5   0    0.89    1.62 
  -7   5   0    1.52    2.88 
   7  -5   0    3.29    2.30 
   7   5   0    0.11    1.99 
   9   5   0   -1.30    2.37 
   9  -5   0   -1.26    2.62 
 -11   5   0   -5.09    4.05 
   0   6   0 1223.42   56.34 
   0   6   0 1113.84   58.21 
   0  -6   0 1293.16   54.77 
  -2   6   0 3294.45  155.14 
   2   6   0 3271.41  152.13 
   2   6   0 3369.14  155.46 
   2  -6   0 3215.96  147.00 
   4  -6   0 1031.96   46.95 
  -4   6   0  921.43   49.53 
   4   6   0 1071.20   51.14 
   4   6   0 1073.97   48.51 
  -6   6   0 1818.37   86.33 
   6   6   0 1799.84   89.66 
   6   6   0 1750.47   84.62 
   6  -6   0 1852.10   82.02 
   8  -6   0  280.15   15.37 
  -8   6   0  298.77   16.61 
   8   6   0  307.85   15.78 
  10   6   0  601.83   30.48 
  10  -6   0  611.29   30.14 
   1  -7   0    2.15    1.57 
   1   7   0    3.86    2.84 
  -1   7   0    3.87    2.78 
  -3   7   0    1.27    2.73 
   3  -7   0    0.46    1.76 
   3   7   0    3.86    1.74 
   3   7   0    3.02    3.21 
   5   7   0    3.52    2.16 
   5  -7   0    3.78    2.21 
   5   7   0   -0.79    4.30 
  -5   7   0    1.73    2.91 
   7   7   0    0.88    2.22 
   7  -7   0    3.88    2.72 
  -7   7   0    1.57    3.10 
   9   7   0   -2.18    2.61 
   9  -7   0    0.78    2.98 
   0   8   0 3063.82  145.37 
  -2   8   0  660.75   34.03 
   2   8   0  688.49   34.42 
   2  -8   0  660.08   31.29 
   4  -8   0 2080.27   94.11 
   4   8   0 2101.60  100.81 
   4   8   0 2089.32   97.08 
  -4   8   0 2040.15   99.47 
   6   8   0  308.14   16.19 
   6  -8   0  293.11   15.85 
  -6   8   0  322.34   17.27 
   8  -8   0  779.84   39.03 
   8   8   0  854.18   40.45 
  -8   8   0  843.46   41.72 
  -1   9   0    1.12    3.65 
   1   9   0    3.61    3.90 
   3   9   0    1.39    4.33 
  -3   9   0    3.58    3.76 
   3  -9   0   -1.33    2.07 
   5  -9   0   -1.10    2.44 
   5   9   0    3.99    5.65 
  -5   9   0   -2.02    3.58 
   7  -9   0   -2.67    2.37 
   7   9   0    0.39    2.57 
  -7   9   0   -0.82    3.94 
   0  10   0  454.80   25.11 
   2  10   0 1113.58   58.67 
  -2  10   0 1226.39   58.48 
   4  10   0  278.92   17.95 
  -4  10   0  276.93   16.42 
   4 -10   0  260.70   14.46 
  -6  10   0  638.25   32.55 
   6 -10   0  598.34   30.02 
  -1  11   0   -1.82    4.72 
   1  11   0    5.29    4.94 
   3  11   0   12.48    5.99 
  -3  11   0   -0.02    4.46 
   5 -11   0   -1.49    2.88 
   2   0   1 1495.95   68.29 
   2   0  -1 1510.59   68.22 
  -2   0   1 1400.53   65.95 
   2   0   1 1486.59   65.79 
   2   0   1 1461.96   70.65 
   4   0   1  581.04   28.50 
   4   0  -1  498.45   25.77 
   4   0   1  569.20   25.94 
  -4   0   1  521.71   25.16 
   4   0  -1  536.62   26.95 
   4   0   1  567.32   24.93 
   6   0  -1  354.61   16.88 
   6   0   1  344.16   17.01 
   6   0  -1  330.08   17.89 
   6   0   1  329.72   19.72 
   6   0   1  315.10   16.22 
  -6   0   1  355.67   16.75 
   8   0   1   88.39    6.21 
   8   0   1   79.84    9.52 
   8   0  -1   77.73    5.61 
  -8   0   1   71.96    5.97 
  10   0   1  147.24    9.68 
  10   0  -1  135.01    9.19 
   1   1   1 2193.51   98.96 
   1  -1   1 2176.28   93.48 
  -1   1   1 2124.01   98.20 
   1  -1  -1 2235.48   93.49 
   1   1  -1 1970.45   96.82 
   1   1   1 1880.05   96.76 
   3  -1  -1  972.73   38.56 
   3   1  -1  832.39   41.72 
   3   1   1  824.14   38.08 
   3  -1  -1  892.78   39.55 
   3   1   1  719.66   43.87 
   3   1   1  875.56   39.78 
   3   1  -1  884.51   39.76 
   3  -1   1  841.64   38.33 
  -3  -1   1  843.10   38.72 
  -3   1   1  795.99   40.24 
   3  -1   1  809.94   39.72 
   3  -1   1  869.88   41.93 
   5  -1   1  962.67   45.84 
   5   1   1 1002.16   45.98 
   5  -1  -1  972.29   44.44 
   5  -1  -1 1013.84   45.74 
   5   1   1 1011.78   49.43 
   5  -1   1  901.43   47.86 
   5   1   1  952.59   44.06 
   5  -1   1  984.98   44.29 
   5   1  -1  972.28   47.36 
   5   1  -1  949.48   45.84 
  -5  -1   1  984.87   44.65 
  -7   1   1  394.68   19.36 
  -7  -1   1  383.90   19.59 
   7   1  -1  389.91   19.66 
   7   1   1  383.45   22.83 
   7  -1   1  400.75   19.22 
   7  -1   1  394.33   22.01 
   7   1   1  391.07   19.77 
   7  -1   1  387.09   19.80 
   7  -1  -1  418.43   19.78 
   9  -1   1  427.06   22.89 
  -9   1   1  436.77   23.08 
   9  -1   1  484.46   23.94 
   9  -1  -1  493.14   23.74 
   9   1   1  466.48   23.76 
   9   1  -1  477.56   23.61 
  11   1   1  154.21   10.21 
  11   1  -1  141.49    9.84 
   0   2   1 1419.02   66.24 
   0  -2   1 1376.42   62.96 
   0   2  -1 1298.18   65.17 
   0   2  -1 1449.04   66.21 
   0  -2  -1 1479.63   62.82 
   2   2  -1   84.93    4.99 
   2   2  -1   97.07    5.58 
   2  -2  -1   93.42    4.93 
   2   2   1   94.07    5.10 
  -2  -2   1   89.67    7.18 
   2   2   1   96.10    6.51 
  -2   2  -1  105.42    5.82 
  -2   2  -1   80.85    5.88 
  -2   2  -1   91.21    5.31 
   2  -2   1   99.25    4.98 
  -2   2   1   89.86    5.26 
   4   2  -1  592.84   27.47 
   4   2   1  532.77   27.37 
  -4  -2   1  577.38   27.80 
  -4   2   1  532.06   27.80 
   4   2   1  559.48   33.87 
   4  -2  -1  604.66   27.09 
   4  -2  -1  662.64   26.69 
   4   2  -1  529.32   31.95 
   4  -2   1  604.96   29.34 
   4  -2   1  548.04   27.45 
   4  -2   1  567.38   26.49 
   6  -2  -1   67.74    4.47 
   6   2  -1   62.74    7.37 
   6  -2   1   72.87    7.98 
   6   2   1   66.39    4.72 
   6   2  -1   78.79    4.76 
  -6   2   1   67.95    5.03 
   6  -2   1   64.03    4.88 
   6  -2   1   63.03    4.50 
   6  -2  -1   66.47    4.86 
  -6  -2   1   62.57    5.74 
   6   2   1   60.49    8.55 
   8   2  -1  243.73   12.97 
  -8   2   1  245.60   12.98 
   8  -2   1  232.24   13.13 
   8   2   1  241.63   13.01 
   8   2   1  229.87   16.64 
   8  -2   1  233.09   12.63 
  10   2   1   29.48    4.50 
 -10   2   1   36.08    5.14 
  10   2  -1   31.13    4.51 
  12   2  -1   50.91    6.12 
  -1  -3   1  815.37   39.43 
   1   3  -1  886.65   40.80 
   1   3   1  904.21   41.95 
  -1   3  -1  830.29   41.79 
   1  -3   1  860.21   39.49 
   1   3  -1  861.67   41.61 
  -1   3   1  830.66   41.58 
   1   3   1  998.48   40.87 
   1  -3  -1  953.25   39.53 
  -1   3  -1  798.49   40.80 
   3  -3   1  616.67   27.34 
  -3  -3   1  572.57   28.21 
   3   3  -1  618.90   28.17 
   3   3   1  558.72   28.09 
   3   3  -1  617.21   29.46 
  -3   3   1  579.57   28.77 
  -3   3  -1  606.38   25.73 
  -3   3  -1  581.53   29.10 
  -3   3  -1  548.51   29.14 
   3  -3  -1  650.05   27.38 
   3   3   1  565.48   29.93 
   5  -3   1  797.65   36.26 
   5   3  -1  795.51   37.47 
  -5   3  -1  800.84   38.78 
   5   3  -1  799.86   43.87 
  -5   3   1  782.71   38.08 
  -5  -3   1  709.19   40.12 
   5  -3  -1  790.64   37.02 
   5  -3  -1  826.15   36.34 
   5   3   1  816.10   37.47 
   5   3   1  769.25   44.98 
  -5   3  -1  753.11   37.65 
  -5   3  -1  784.78   33.09 
   7   3   1  327.48   21.69 
  -7   3   1  325.38   16.83 
   7   3   1  313.41   16.44 
   7  -3   1  322.02   16.10 
  -7   3  -1  297.66   17.39 
   7   3  -1  317.54   16.50 
   7  -3  -1  343.83   16.37 
   9   3   1  323.52   17.41 
   9  -3   1  309.03   16.88 
  -9   3  -1  333.05   18.17 
  -9   3   1  327.52   17.12 
   9   3  -1  342.71   17.41 
 -11   3   1  115.89    8.72 
  11   3  -1  123.03    8.64 
  11   3   1  116.12    8.65 
   0   4   1  566.16   26.35 
   0  -4  -1  588.54   25.66 
   0   4   1  525.69   27.44 
   0  -4   1  579.23   25.87 
   0   4  -1  564.01   27.48 
   0   4  -1  551.95   26.49 
   2  -4  -1  607.21   27.34 
  -2   4   1  596.32   28.89 
   2   4  -1  612.59   29.16 
  -2  -4  -1  631.56   26.73 
   2   4  -1  594.25   28.20 
   2   4   1  577.12   28.11 
   2   4   1  582.31   29.51 
  -2   4  -1  499.88   27.98 
  -2  -4   1  594.62   27.19 
   2  -4   1  629.39   27.46 
  -2   4  -1  611.80   29.27 
  -4   4   1  132.61    8.05 
   4  -4  -1  132.22    7.45 
   4   4   1  148.33    7.66 
  -4  -4   1  135.18    7.82 
   4   4   1  136.80   10.11 
   4   4  -1  133.25    7.57 
  -4   4  -1  129.23    8.39 
   4  -4   1  150.11    7.60 
   4   4  -1  138.65    9.45 
   6  -4  -1  340.82   16.22 
   6   4   1  337.51   16.61 
   6   4  -1  271.13   21.45 
   6  -4   1  333.71   16.35 
   6   4  -1  343.61   16.65 
  -6   4  -1  324.99   17.69 
   6   4   1  283.24   22.44 
  -6   4   1  336.44   17.19 
   8   4  -1   70.26    5.37 
   8   4   1   66.91    5.44 
  -8   4  -1   65.30    6.60 
   8  -4   1   67.51    5.34 
   8  -4  -1   62.84    5.40 
  10  -4   1   75.96    6.63 
  10   4  -1   82.02    6.62 
  10   4   1   81.79    6.67 
 -10   4   1   76.52    6.62 
   1   5  -1 1021.19   45.90 
   1  -5   1  952.42   44.48 
  -1  -5   1 1019.51   44.35 
   1   5   1 1024.71   47.39 
   1  -5  -1 1007.18   44.36 
  -1   5  -1 1029.17   47.37 
  -1   5  -1  946.86   45.54 
  -1  -5  -1  963.14   43.98 
   1   5  -1  957.59   47.18 
   1   5   1  902.67   45.62 
  -1   5   1  948.19   47.05 
   3   5   1  870.57   43.20 
   3   5  -1  938.05   41.27 
  -3   5   1  820.95   42.16 
  -3  -5   1  873.96   39.56 
   3  -5   1  910.92   40.01 
   3  -5  -1  905.37   39.91 
   3   5   1  817.56   41.06 
   3   5  -1  869.72   42.86 
  -3   5  -1  828.36   42.44 
   5  -5   1  795.25   37.36 
   5   5  -1  843.55   38.65 
   5   5   1  781.84   41.88 
   5   5  -1  800.37   41.58 
   5  -5  -1  813.48   37.39 
  -5   5  -1  797.24   39.80 
  -5   5   1  790.47   39.34 
   5   5   1  826.86   38.56 
   7  -5  -1  337.62   16.44 
   7  -5   1  332.74   16.49 
   7   5  -1  316.63   16.76 
  -7   5   1  326.69   17.30 
   7   5   1  326.48   16.76 
   7   5   1  255.05   21.71 
  -7   5  -1  338.08   17.97 
   9   5  -1  267.96   15.03 
   9   5   1  293.67   15.27 
   9  -5  -1  270.81   15.04 
  -9   5  -1  288.30   16.28 
   9  -5   1  262.34   14.75 
 -11   5   1  115.96    8.94 
  11  -5   1  110.76    8.78 
   0  -6  -1  352.79   16.23 
   0   6  -1  330.44   16.65 
   0   6   1  358.82   18.06 
   0   6  -1  350.35   18.18 
   0  -6   1  335.54   16.46 
  -2   6   1   67.84    5.80 
   2   6   1   72.30    6.43 
   2   6   1   65.32    4.39 
   2  -6   1   83.91    5.01 
  -2   6  -1   70.48    6.15 
   2  -6  -1   69.41    4.57 
   2   6  -1   71.63    6.09 
   2   6  -1   73.06    4.73 
  -2  -6   1   70.94    4.44 
   4  -6   1  352.70   17.06 
   4  -6  -1  343.68   16.93 
  -4   6  -1  342.23   18.52 
   4   6  -1  344.48   17.45 
   4   6   1  352.61   19.90 
   4   6   1  360.14   17.46 
  -4   6   1  328.59   18.11 
   4   6  -1  360.06   19.56 
   6   6   1   26.84    7.12 
  -6   6  -1   39.71    4.90 
   6   6   1   34.12    3.68 
   6   6  -1   35.74    3.81 
   6  -6   1   37.05    4.01 
   6  -6  -1   36.36    3.74 
  -6   6   1   35.74    4.42 
  -8   6  -1  100.22    8.19 
   8  -6   1  104.64    7.34 
   8   6   1  101.58    6.98 
   8  -6  -1  110.16    7.28 
  -8   6   1  107.77    7.87 
   8   6  -1  100.65    7.09 
  10  -6  -1   27.46    4.87 
  10   6  -1   22.07    4.15 
  10  -6   1   26.33    4.84 
  10   6   1   27.90    4.49 
   1  -7  -1  382.85   19.32 
   1   7  -1  412.82   21.62 
  -1  -7   1  450.72   19.58 
  -1   7  -1  401.36   21.67 
   1   7   1  423.23   21.75 
   1  -7   1  417.06   19.72 
  -1   7   1  381.61   21.27 
   3  -7   1  357.43   16.99 
  -3   7  -1  347.50   18.57 
   3  -7  -1  347.20   16.70 
  -3   7   1  341.29   18.36 
   3   7  -1  326.74   19.00 
   3   7   1  353.75   19.43 
   3   7   1  329.34   16.97 
   3   7  -1  331.84   17.05 
   5   7   1  344.56   20.15 
   5  -7   1  324.65   16.46 
   5   7  -1  334.93   16.85 
  -5   7  -1  304.67   17.83 
   5  -7  -1  341.33   16.51 
   5   7   1  320.87   16.69 
  -5   7   1  312.37   17.46 
   5   7  -1  336.54   19.72 
   7   7  -1  156.73    9.22 
   7   7   1  148.34    9.17 
   7  -7  -1  147.71    8.96 
   7  -7   1  140.60    9.05 
  -7   7   1  162.46    9.98 
  -7   7  -1  154.89   10.25 
   9   7  -1  149.58    9.77 
  -9   7  -1  162.69   10.93 
   9  -7   1  162.95    9.92 
   9  -7  -1  150.80    9.81 
   9   7   1  158.37    9.84 
   0   8   1   87.26    7.41 
   0   8  -1   84.93    7.59 
   0  -8   1   93.69    5.94 
   2  -8  -1  230.74   12.43 
   2   8   1  259.92   15.07 
   2   8  -1  259.64   14.88 
  -2   8   1  251.84   14.46 
   2  -8   1  234.78   12.70 
  -2   8  -1  253.67   14.85 
   4  -8   1   68.07    5.30 
  -4   8   1   66.37    6.42 
   4   8  -1   67.19    4.99 
   4  -8  -1   65.17    5.07 
   4   8   1   68.90    7.84 
   4   8  -1   69.66    7.69 
   4   8   1   64.09    5.05 
  -4   8  -1   68.87    6.50 
  -6   8   1  116.02    8.27 
   6   8  -1  108.83    7.11 
  -6   8  -1  110.26    8.52 
   6   8   1  100.73   11.24 
   6  -8  -1  100.04    6.89 
   6   8   1  107.87    7.14 
   6  -8   1   95.67    6.96 
   8   8  -1   34.84    4.31 
   8  -8  -1   39.15    4.85 
   8  -8   1   37.21    4.90 
   8   8   1   33.09    4.67 
  -8   8   1   35.84    5.54 
  -8   8  -1   42.14    5.92 
   1   9  -1  485.84   26.34 
  -1   9  -1  469.60   26.28 
   1  -9   1  513.72   23.80 
  -1   9   1  493.45   26.01 
   1   9   1  484.85   26.30 
   3   9   1  362.01   21.20 
  -3   9   1  369.12   20.38 
   3  -9   1  363.10   18.34 
   3  -9  -1  360.06   18.20 
   3   9  -1  373.54   21.41 
  -3   9  -1  368.47   20.64 
   5   9   1  310.02   19.70 
  -5   9   1  307.43   17.24 
   5  -9   1  299.73   15.73 
  -5   9  -1  280.27   17.23 
   5  -9  -1  326.65   15.70 
   5   9  -1  271.89   15.53 
  -7   9   1  165.93   11.06 
   7  -9   1  165.36   10.01 
  -7   9  -1  167.89   11.38 
   7   9   1  155.51    9.98 
   7   9  -1  158.97    9.95 
   7  -9  -1  165.08    9.93 
   0  10  -1  131.13   10.47 
   0  10   1  135.70   10.50 
  -2  10  -1   43.07    6.68 
   2 -10   1   37.95    4.55 
  -2  10   1   32.02    5.78 
   2  10  -1   38.24    6.54 
   2  10   1   35.47    6.68 
   4  10  -1   89.01    9.95 
   4 -10  -1   75.97    6.10 
  -4  10  -1   85.07    8.29 
  -4  10   1   73.77    7.67 
   4 -10   1   77.99    6.32 
   4  10   1   90.26    9.70 
  -6  10   1   25.47    5.55 
   6 -10   1   29.87    4.53 
  -6  10  -1   23.15    5.47 
   6 -10  -1   27.53    4.39 
  -1  11   1  177.74   12.65 
   1  11   1  167.19   12.97 
   1  11  -1  165.52   12.98 
  -1  11  -1  179.98   13.24 
   3  11   1  132.22   12.15 
   3  11  -1  134.57   12.33 
  -3  11   1  137.64   10.90 
  -3  11  -1  148.48   11.53 
   5 -11   1  123.49    8.77 
   5 -11  -1  132.55    8.82 
   5  11   1  134.12   13.19 
   0  12  -1   36.86    7.49 
   2  12  -1   54.49    8.91 
   0   0  -2 1894.29   96.57 
   0   0   2 2219.60   94.07 
   2   0   2 5107.12  232.55 
   2   0   2 5078.68  241.23 
  -2   0   2 5751.69  233.09 
   2   0  -2 5296.65  241.07 
   2   0   2 4883.05  246.35 
   4   0   2 1301.89   67.37 
   4   0  -2 1463.77   64.13 
  -4   0   2 1369.06   62.36 
   4   0   2 1369.97   61.73 
   4   0   2 1358.67   64.28 
  -6   0   2 2532.36  117.31 
   6   0  -2 2828.62  121.03 
   6   0   2 2252.40  120.96 
   6   0   2 2695.23  125.33 
   6   0   2 2708.51  116.66 
   8   0  -2  318.80   17.16 
   8   0   2  373.56   17.87 
  -8   0   2  328.73   17.53 
   8   0   2  319.20   21.83 
  10   0  -2  853.93   44.34 
  10   0   2  981.62   45.50 
  -1  -1  -2  854.69   34.67 
   1  -1   2  831.36   38.11 
  -1  -1  -2  863.92   39.55 
  -1   1   2  892.09   38.17 
  -1  -1   2  796.28   40.70 
   1  -1  -2  806.46   39.55 
   1   1  -2  813.32   39.51 
  -1   1  -2  833.85   35.97 
  -1   1   2  830.59   39.80 
   1  -1   2  867.15   41.03 
  -1   1  -2  809.01   40.90 
   1   1   2  884.81   41.17 
  -3   1   2  921.13   40.70 
  -3   1  -2  848.10   37.03 
   3  -1   2  933.45   44.81 
   3   1  -2  922.33   41.95 
   3   1   2  932.60   40.14 
   3  -1  -2  929.77   41.74 
   3  -1   2  910.40   40.47 
  -3   1  -2  811.18   42.16 
   3   1   2  777.93   41.87 
  -3  -1   2  952.46   41.42 
  -3   1   2  896.35   42.26 
  -5   1   2  751.78   37.28 
   5   1   2  830.03   41.77 
   5   1   2  756.27   37.17 
  -5  -1   2  768.44   36.52 
   5  -1   2  770.30   37.30 
   5  -1   2  844.27   40.78 
  -5   1   2  779.40   36.15 
   5   1  -2  761.28   37.69 
   5  -1  -2  808.01   36.88 
   5  -1   2  775.60   35.74 
   5   1   2  758.89   35.40 
   5   1  -2  790.90   37.11 
  -7   1   2  175.26   10.34 
   7   1  -2  181.73    9.98 
   7  -1   2  164.28    9.62 
  -7  -1   2  172.98   10.60 
   7  -1   2  204.65   12.80 
   7  -1  -2  182.38    9.87 
   7   1   2  193.61   15.21 
   7   1   2  201.92   10.50 
   7  -1   2  176.97   10.33 
   9   1   2  112.15   13.11 
   9   1   2  129.41    8.37 
   9  -1   2  110.54   12.17 
   9  -1  -2  124.70    7.89 
   9  -1   2  124.93    8.38 
  -9   1   2  109.48    8.28 
   9   1  -2  116.60    7.83 
  11   1   2   35.15    5.61 
  11   1  -2   31.27    4.73 
   0   2   2 5257.71  243.72 
   0   2  -2 4861.65  252.87 
   0   2  -2 5556.40  256.37 
   0  -2  -2 5696.45  252.93 
   0  -2  -2 5790.66  221.78 
   0  -2   2 5564.65  244.15 
   0   2   2 5604.95  256.36 
  -2  -2   2   62.99    7.73 
   2  -2   2   63.85    3.96 
  -2   2  -2   76.28    6.42 
  -2   2  -2   81.42    5.79 
   2   2   2   68.55    4.06 
   2   2  -2   68.43    4.10 
   2   2  -2   63.99    4.16 
   2  -2  -2   64.80    3.96 
   2   2   2   90.36    6.81 
  -2   2   2   62.29    3.99 
   4  -2   2 3708.22  174.20 
   4   2   2 3384.54  177.89 
  -4   2  -2 3290.50  170.80 
  -4   2  -2 3505.48  149.85 
  -4   2   2 3715.70  172.73 
   4  -2  -2 3626.17  164.70 
   4  -2  -2 3869.38  170.21 
   4   2   2 3573.29  170.62 
   4   2  -2 3804.88  175.07 
   4   2  -2 3986.07  170.67 
   4  -2   2 3767.11  164.66 
  -4  -2   2 3999.68  166.83 
   6  -2   2  166.28    8.96 
   6   2  -2  155.43    9.18 
  -6   2   2  177.97    9.29 
  -6   2  -2  163.18    9.52 
  -6   2   2  162.89    9.26 
   6  -2  -2  178.85    8.98 
  -6  -2   2  162.26   10.64 
  -6   2  -2  165.28    8.43 
   6  -2   2  159.17   12.92 
   6   2   2  162.64   14.65 
   6   2   2  167.72    9.35 
   8   2  -2 1268.78   61.25 
   8   2   2 1350.73   61.45 
   8  -2   2 1210.31   59.06 
   8  -2   2 1302.92   63.82 
  -8   2  -2 1248.02   61.46 
  -8   2   2 1360.71   59.77 
   8   2   2 1312.54   65.43 
  -8   2  -2 1275.34   53.97 
 -10   2   2   93.59    7.88 
  10   2   2   98.03    7.44 
  10   2  -2   92.67    7.07 
  12   2  -2  368.95   20.38 
   1   3  -2  804.18   39.23 
   1   3   2  864.72   40.40 
  -1   3   2  846.95   39.91 
  -1   3  -2  702.33   39.50 
  -1  -3   2  806.79   38.22 
   1   3  -2  859.26   39.86 
   1  -3  -2  827.51   37.72 
   1  -3   2  900.39   38.05 
  -1   3  -2  897.10   40.31 
   3  -3   2  437.89   19.92 
  -3   3  -2  392.46   22.51 
  -3   3   2  409.54   20.79 
   3   3   2  373.48   22.57 
   3   3  -2  447.29   21.37 
   3   3  -2  444.23   20.58 
  -3   3  -2  441.67   21.82 
  -3  -3   2  439.64   22.27 
   3  -3  -2  413.14   19.85 
   3   3   2  459.75   20.65 
  -3   3  -2  387.85   19.75 
  -5   3   2  328.10   16.85 
   5  -3  -2  324.08   16.28 
   5   3  -2  336.71   16.75 
  -5   3  -2  338.90   15.39 
   5  -3   2  320.91   16.18 
   5   3   2  355.39   16.70 
  -5  -3   2  303.31   20.49 
   5   3  -2  330.77   21.66 
   5   3   2  352.72   24.47 
  -5   3  -2  328.32   17.38 
   5  -3  -2  332.80   16.03 
   7   3  -2  109.24    6.88 
   7   3   2   94.39   12.91 
   7  -3  -2  111.01    7.25 
   7   3   2  109.34    6.91 
  -7   3  -2  102.62    8.28 
   7  -3   2  109.76    6.86 
   9   3   2   98.62    7.10 
  -9   3  -2   97.91    8.35 
   9   3  -2  117.01    7.41 
   9  -3   2   86.80    6.70 
  -9   3   2  103.56    7.45 
  11   3   2   31.83    5.10 
  11   3  -2   24.55    4.50 
 -11   3   2   29.36    5.57 
   0   4  -2 1481.57   65.70 
   0   4   2 1464.73   65.77 
   0   4  -2 1343.47   64.33 
   0   4   2 1311.19   64.04 
   0  -4   2 1342.39   62.31 
   0  -4  -2 1338.28   61.84 
  -2   4   2 3512.86  170.66 
   2  -4  -2 3806.13  162.42 
   2   4   2 3805.77  171.67 
   2   4  -2 3742.45  170.85 
   2   4   2 3626.17  168.13 
  -2  -4   2 3483.63  162.64 
   2   4  -2 3631.91  168.22 
   2  -4   2 3575.57  162.46 
  -2   4  -2 3553.98  171.22 
  -4   4  -2  608.77   33.62 
  -4   4  -2  607.83   38.36 
   4   4   2  768.26   38.58 
   4  -4  -2  817.87   34.54 
   4   4   2  779.53   35.56 
  -4  -4   2  790.75   35.85 
   4  -4   2  797.55   34.52 
  -4   4   2  735.81   36.09 
   4   4  -2  719.91   35.52 
   4   4  -2  751.93   37.22 
  -4   4  -2  771.70   37.05 
   6   4   2 1725.10   79.40 
   6  -4   2 1731.59   76.89 
   6   4  -2 1792.02   79.49 
  -6   4   2 1721.93   80.46 
   6  -4  -2 1670.91   76.88 
  -6   4  -2 1630.37   81.45 
   6   4   2 1553.39   86.12 
   8   4  -2  244.04   13.20 
   8   4   2  255.38   13.34 
   8  -4  -2  250.96   13.25 
  -8   4  -2  234.33   14.46 
   8   4   2  205.64   17.96 
   8  -4   2  227.71   12.90 
  10   4  -2  617.95   31.27 
 -10   4   2  641.42   30.76 
  10   4   2  633.14   31.47 
  10  -4   2  598.02   30.40 
   1  -5   2  818.12   37.01 
  -1   5  -2  889.09   39.49 
  -1  -5  -2  807.86   36.32 
   1  -5  -2  776.13   36.67 
   1   5   2  804.27   39.45 
   1   5  -2  832.93   39.17 
  -1   5   2  743.22   38.90 
   1   5  -2  824.99   38.03 
   1   5   2  797.91   37.77 
  -1   5  -2  763.78   37.86 
  -1  -5   2  791.66   36.84 
   3  -5  -2  344.86   16.33 
  -3   5  -2  315.12   17.78 
  -3   5   2  329.25   17.26 
   3   5  -2  358.20   17.94 
   3   5  -2  350.08   16.80 
   3   5   2  334.17   16.59 
   3  -5   2  340.00   16.41 
   3   5   2  310.18   18.49 
  -3  -5   2  327.25   16.38 
   5  -5  -2  208.40   11.04 
  -5   5  -2  219.73   12.71 
   5   5  -2  205.28   13.97 
   5  -5   2  219.60   11.19 
  -5   5   2  203.99   11.68 
   5   5  -2  222.02   11.44 
   5   5   2  199.96   14.61 
   5   5   2  207.80   11.31 
   7  -5  -2  104.84    6.95 
   7   5  -2  102.51    6.89 
   7   5   2  110.10    7.05 
   7  -5   2  110.68    7.22 
   7   5   2   93.03   12.19 
  -7   5  -2  103.19    8.35 
  -7   5   2  109.30    7.39 
   9  -5   2   89.23    7.26 
   9   5  -2   98.60    7.19 
  -9   5   2   95.80    7.28 
  -9   5  -2  100.59    8.62 
   9   5   2   98.60    7.19 
  11  -5   2   23.22    5.03 
   0   6  -2 2677.31  123.81 
   0  -6   2 2521.68  117.08 
   0  -6  -2 2816.95  116.86 
   0   6  -2 2508.30  120.96 
   0   6   2 2535.85  123.55 
  -2   6  -2  168.42   10.65 
  -2   6   2  174.86   10.18 
   2   6   2  185.22   11.14 
   2   6  -2  175.34    9.50 
   2  -6  -2  177.35    9.12 
  -2  -6   2  181.62    9.29 
   2  -6   2  181.94    9.45 
   2   6   2  163.40    9.09 
   2   6  -2  167.98   10.50 
   4   6   2 1731.73   83.85 
   4   6  -2 1772.77   84.03 
  -4   6  -2 1805.21   86.21 
   4  -6   2 1822.50   81.34 
   4   6   2 1813.02   87.37 
   4  -6  -2 1730.77   81.07 
   4   6  -2 1877.75   86.71 
  -4   6   2 1815.46   85.63 
   6   6  -2  125.06    7.72 
  -6   6  -2  127.20    9.19 
   6   6   2  112.81   11.86 
   6  -6   2  127.22    7.72 
  -6   6   2  122.57    8.04 
   6  -6  -2  122.98    7.49 
   6   6   2  119.22    7.54 
   8  -6   2  757.56   37.18 
  -8   6  -2  819.02   39.95 
   8   6  -2  790.88   38.30 
   8   6   2  744.60   38.10 
   8  -6  -2  801.02   37.25 
  10   6  -2   68.37    6.19 
  10   6   2   69.03    6.17 
  10  -6   2   70.22    6.48 
 -10   6  -2   66.15    7.81 
 -10   6   2   65.17    6.83 
   1  -7   2  165.40    9.71 
  -1   7   2  177.15   10.95 
   1   7  -2  204.92   11.60 
   1   7   2  197.13   11.61 
  -1  -7   2  192.92    9.84 
   1  -7  -2  176.57    9.43 
   1   7  -2  176.81    9.76 
  -1   7  -2  204.07   11.66 
  -3   7   2  113.93    7.79 
   3   7  -2  113.40    8.50 
   3  -7  -2   92.63    6.35 
  -3   7  -2  112.58    8.09 
   3  -7   2  106.24    6.82 
   3   7   2  114.26    9.01 
   3   7   2  103.82    6.41 
   3   7  -2  115.89    6.84 
   5   7  -2  112.03    6.98 
   5  -7   2  100.02    6.74 
   5   7   2   99.97    9.98 
  -5   7   2  108.82    7.63 
  -5   7  -2  100.07    8.16 
   5   7   2  103.03    6.69 
   5  -7  -2  108.85    6.71 
  -7   7  -2   52.65    6.59 
   7  -7  -2   58.86    5.13 
   7   7   2   69.23    5.30 
   7   7   2   39.79    9.72 
  -7   7   2   63.16    6.04 
   7   7  -2   59.81    5.33 
   7  -7   2   59.43    5.36 
   9  -7   2   38.93    5.62 
   9  -7  -2   51.74    5.47 
   9   7  -2   42.56    5.01 
   9   7   2   50.33    5.13 
  -9   7  -2   48.72    6.56 
   0   8  -2  353.74   19.96 
   0   8   2  362.78   19.87 
   0  -8   2  377.39   18.02 
   2   8  -2 1440.91   66.79 
   2  -8   2 1299.90   62.25 
  -2   8  -2 1395.04   66.73 
  -2   8   2 1330.87   66.00 
   2   8   2 1395.57   66.90 
   2  -8  -2 1329.76   62.00 
   4   8  -2  250.09   13.28 
   4  -8   2  259.13   13.36 
   4   8  -2  274.45   16.24 
   4  -8  -2  223.36   12.66 
  -4   8   2  255.43   14.46 
   4   8   2  259.25   16.33 
   4   8   2  244.00   13.22 
  -4   8  -2  242.14   14.98 
  -6   8   2  806.78   38.96 
   6   8  -2  786.23   37.90 
   6   8   2  811.79   42.49 
  -6   8  -2  735.50   39.44 
   6   8   2  770.32   37.75 
   6  -8   2  770.66   36.82 
   6  -8  -2  755.44   36.61 
   8  -8   2  104.62    7.88 
   8   8   2  110.76    7.94 
   8  -8  -2  116.79    7.86 
  -8   8  -2  106.22    9.08 
   8   8  -2  111.94    7.88 
   1   9  -2  134.55   10.03 
  -1   9   2  126.59    9.27 
   1  -9   2  128.53    7.89 
  -1   9  -2  112.43    9.60 
   1   9   2  124.46    9.60 
   3  -9   2  104.03    7.03 
   3  -9  -2   93.51    6.45 
   3   9   2  106.29    9.51 
  -3   9  -2  101.09    8.99 
   3   9  -2  107.65    9.53 
  -3   9   2  119.33    8.67 
  -5   9  -2  104.44    8.89 
  -5   9   2  101.59    8.26 
   5  -9   2   96.15    7.23 
   5   9  -2  102.04    7.02 
   5   9   2  107.30   10.83 
   5  -9  -2  100.38    6.89 
   7   9  -2   53.07    5.35 
   7   9   2   46.49    5.09 
  -7   9  -2   56.17    7.10 
  -7   9   2   50.96    6.35 
   7  -9   2   42.68    5.00 
   7  -9  -2   48.10    5.03 
   0  10   2  873.44   45.36 
   0  10  -2  915.73   45.73 
   2  10  -2  122.18   10.21 
   2  10   2  110.92   10.16 
  -2  10   2  112.43    9.26 
  -2  10  -2  113.14    9.87 
   2 -10   2  108.75    7.64 
  -4  10  -2  630.14   35.24 
   4  10   2  691.21   36.80 
   4 -10  -2  663.39   32.15 
   4 -10   2  668.27   32.38 
  -4  10   2  710.58   34.84 
   6 -10   2   72.89    6.40 
   6 -10  -2   77.14    6.38 
   6  10   2   81.51   11.69 
  -6  10  -2   71.48    8.36 
  -6  10   2   83.15    7.75 
   1  11   2   32.41    6.73 
  -1  11   2   26.50    6.00 
  -1  11  -2   38.17    7.19 
   1  11  -2   28.04    6.63 
  -3  11  -2   34.86    6.87 
   3  11   2   22.59    6.62 
   3 -11   2   34.42    4.91 
  -3  11   2   29.07    6.07 
   5  11   2   28.55    8.38 
   5 -11  -2   35.57    4.95 
   5 -11   2   22.08    4.54 
   2  12  -2  419.33   25.37 
   0   0  -3  904.45   47.56 
   0   0   3 1128.48   46.87 
   0   0   3  930.74   47.87 
   2   0   3   33.31    2.61 
   2   0  -3   38.19    2.81 
  -2   0  -3   30.45    3.21 
  -2   0   3   43.65    3.77 
   2   0   3   26.30    5.21 
  -2   0  -3   33.61    2.95 
   4   0   3  343.70   16.09 
   4   0   3  324.46   17.19 
   4   0   3  362.07   21.29 
   4   0  -3  354.68   16.83 
  -4   0   3  335.41   16.94 
  -6   0   3   69.22    5.73 
   6   0   3   65.16    5.18 
   6   0  -3   67.69    4.79 
   6   0   3   66.18    4.42 
   6   0   3   86.87   10.38 
   8   0  -3  206.82   11.68 
   8   0   3  214.68   18.20 
   8   0   3  229.49   12.46 
  -8   0   3  207.08   12.53 
  10   0  -3   27.76    4.17 
  10   0   3   27.38    5.40 
  -1  -1  -3 2945.13  124.62 
  -1  -1  -3 2999.05  142.15 
  -1   1  -3 3039.25  126.64 
  -1   1   3 2931.44  143.68 
   1   1   3 3153.28  138.46 
  -1  -1   3 3024.37  139.28 
   1  -1   3 3278.81  137.25 
   1   1   3 2988.13  145.31 
   1   1  -3 3297.14  142.29 
  -1   1   3 3125.22  137.16 
   1  -1   3 3071.52  145.09 
  -1   1  -3 2920.30  144.25 
  -3   1  -3 2840.01  123.33 
   3   1   3 3194.73  134.91 
   3  -1   3 3014.56  135.19 
   3   1   3 3085.43  140.28 
  -3  -1   3 3077.19  136.65 
  -3   1  -3 2747.39  140.58 
  -3   1   3 2859.37  141.60 
   3  -1  -3 2984.67  139.93 
   3   1   3 2913.51  145.43 
  -3   1   3 3086.21  135.62 
   3   1  -3 3281.04  140.23 
   3  -1   3 3240.10  144.61 
   5   1  -3 2647.14  120.49 
   5   1   3 2459.20  120.53 
   5  -1  -3 2681.06  120.23 
  -5   1  -3 2583.53  121.00 
  -5   1   3 2517.52  116.75 
  -5   1  -3 2691.19  106.20 
  -5   1   3 2647.21  121.57 
  -5  -1   3 2613.40  117.42 
   5  -1   3 2649.30  124.96 
   5  -1   3 2380.09  116.08 
   5   1   3 2545.97  126.75 
   5   1   3 2695.68  115.85 
  -7  -1   3 1015.90   49.78 
  -7   1   3 1123.38   49.60 
   7  -1   3 1076.23   54.24 
   7   1  -3  998.51   50.13 
  -7   1  -3 1109.25   50.95 
   7  -1  -3 1054.11   49.97 
   7   1   3 1009.68   54.91 
  -7   1  -3 1110.55   44.70 
   7  -1   3  979.08   48.31 
   7   1   3 1094.14   50.65 
  -9   1  -3  731.12   32.37 
   9   1   3  758.80   36.89 
  -9   1   3  746.11   36.17 
  -9   1  -3  727.99   36.84 
   9  -1   3  746.31   40.06 
   9   1  -3  721.61   36.10 
   9   1   3  740.55   40.43 
  11   1  -3  280.57   16.95 
  11   1   3  345.94   18.53 
   0   2   3   37.35    2.74 
   0  -2  -3   32.52    3.29 
   0   2   3   33.03    3.12 
   0  -2   3   48.98    3.84 
   0  -2  -3   32.94    2.98 
   0   2  -3   37.46    3.72 
   0   2  -3   43.46    3.31 
  -2  -2   3 2436.25  122.36 
   2  -2  -3 2635.79  123.77 
   2  -2   3 2798.84  119.78 
   2   2   3 2586.09  127.50 
  -2   2   3 2567.97  125.38 
  -2   2  -3 2821.33  127.07 
   2  -2   3 2587.31  126.78 
   2   2   3 2448.41  123.85 
  -2   2   3 2596.86  119.68 
   2   2  -3 2888.08  124.15 
   2   2  -3 2797.59  125.40 
  -2   2  -3 2947.86  111.61 
  -4  -2   3   66.26    7.59 
  -4   2   3   60.91    3.96 
   4  -2  -3   63.81    3.83 
   4  -2   3   67.10    4.24 
   4   2  -3   61.87    4.34 
  -4   2  -3   59.97    4.51 
  -4   2  -3   63.41    5.14 
  -4   2   3   64.43    4.38 
   4   2   3   57.50    4.32 
   4   2   3   51.08    8.36 
   4  -2   3   95.95   10.06 
   6  -2   3  742.68   40.63 
   6   2   3  791.96   43.91 
  -6   2   3  826.00   36.79 
   6   2  -3  802.00   37.53 
   6  -2   3  777.88   36.14 
   6   2   3  789.63   37.70 
  -6  -2   3  781.04   38.37 
   6  -2  -3  788.91   36.97 
  -6   2  -3  760.31   33.43 
  -6   2  -3  737.77   38.03 
  -8   2  -3   30.93    4.56 
   8   2  -3   32.87    3.80 
   8  -2   3   23.46    3.40 
  -8   2   3   32.02    4.72 
   8   2   3   26.26    3.99 
   8  -2   3   26.47    9.21 
  -8   2  -3   28.25    3.89 
   8   2   3   33.53    8.73 
  10   2  -3  157.74   10.22 
  10   2   3  165.68   10.84 
 -10   2   3  174.09   11.23 
  -1   3   3 2959.68  126.70 
  -1   3  -3 2942.80  133.76 
  -1  -3   3 2731.44  127.54 
   1   3  -3 2857.99  131.58 
   1   3   3 2927.85  133.80 
   1   3  -3 3013.94  133.15 
   1   3   3 2793.19  131.28 
   1  -3  -3 2523.18  131.99 
  -1   3   3 2685.06  133.16 
   1  -3   3 2916.58  127.07 
   3  -3  -3 2010.99   87.93 
   3   3  -3 1921.37   91.05 
   3  -3  -3 2121.09   90.42 
   3  -3   3 1927.86   87.91 
   3   3   3 2095.90   94.61 
  -3   3  -3 1644.79   93.57 
  -3   3  -3 1681.69   82.20 
   3   3   3 2073.46   91.09 
  -3   3   3 1911.13   92.02 
   3   3  -3 2118.55   92.41 
   5   3  -3 1592.60   75.49 
  -5   3   3 1585.50   76.20 
  -5   3  -3 1606.04   67.24 
  -5  -3   3 1598.31   76.79 
   5   3   3 1609.60   83.27 
  -5   3  -3 1528.41   76.47 
   5  -3   3 1553.56   72.93 
   5   3   3 1805.55   75.82 
  -7   3   3  812.30   37.82 
   7   3  -3  788.23   38.66 
   7   3   3  805.14   45.71 
   7   3   3  816.76   38.77 
   7  -3   3  778.43   37.39 
   9   3   3  617.55   30.56 
  -9   3   3  638.66   30.32 
   9   3   3  633.44   36.84 
  -9   3  -3  592.98   32.18 
   9  -3   3  568.94   29.40 
   9   3  -3  610.99   30.40 
  11   3   3  273.20   15.92 
  11   3  -3  259.99   15.37 
 -11   3   3  275.99   16.28 
   0  -4   3  357.93   16.98 
   0  -4  -3  362.74   14.90 
   0   4  -3  321.15   17.28 
   0  -4  -3  352.35   16.96 
   0   4   3  315.20   17.69 
   0   4  -3  366.32   17.83 
  -2   4   3   53.63    4.31 
  -2   4  -3   37.79    5.36 
  -2   4  -3   65.71    5.31 
  -2  -4   3   52.02    4.70 
   2   4   3   54.58    5.47 
   2  -4   3   58.89    4.08 
   2   4  -3   59.22    4.14 
   2  -4  -3   58.36    3.79 
   2   4  -3   55.27    4.46 
   2   4   3   56.68    3.83 
   4  -4   3  349.20   17.71 
   4   4  -3  386.65   18.37 
   4   4   3  393.89   18.48 
  -4  -4   3  356.11   20.04 
  -4   4  -3  360.43   19.79 
   4   4   3  381.44   21.37 
  -4   4   3  370.85   18.38 
  -4   4  -3  297.06   21.40 
   4  -4  -3  366.73   17.65 
   4   4  -3  356.40   19.31 
  -6   4   3   33.39    3.79 
   6   4   3   16.24    7.44 
  -6   4  -3   30.71    5.26 
   6   4  -3   30.14    3.60 
   6   4   3   28.67    3.53 
   6  -4   3   32.43    3.64 
   6  -4  -3   34.30    3.84 
   8   4   3  125.02   14.07 
  -8   4  -3  139.73   10.60 
   8   4  -3  148.76    8.91 
   8   4   3  141.59    8.84 
   8  -4   3  141.27    8.89 
  -8   4   3  137.00    8.89 
  10   4  -3   26.88    4.59 
 -10   4   3   35.52    5.39 
  10  -4   3   27.90    4.29 
  10   4   3   27.48    4.73 
 -10   4  -3   28.97    5.94 
   1  -5   3 2656.13  114.49 
   1   5   3 2542.19  120.72 
  -1  -5   3 2645.15  114.52 
   1   5  -3 2489.42  120.24 
   1   5  -3 2620.58  118.36 
  -1   5   3 2589.52  120.19 
   1   5   3 2645.42  118.06 
   1  -5  -3 2222.84  113.70 
   1   5   3 2524.34  113.56 
  -1   5  -3 2554.18  120.72 
  -1   5  -3 2510.55  118.46 
   3   5  -3 1638.91   76.00 
   3   5   3 1464.78   76.93 
  -3  -5   3 1551.76   72.57 
  -3   5   3 1495.62   75.44 
   3  -5   3 1566.95   72.04 
  -3   5  -3 1574.93   76.55 
   3   5  -3 1601.46   74.54 
   3   5   3 1728.23   74.54 
   3  -5  -3 1676.60   72.00 
   5  -5  -3 1192.36   54.49 
   5   5   3 1126.34   60.31 
   5   5   3 1131.99   56.21 
   5   5  -3 1248.47   56.38 
   5  -5   3 1191.56   54.52 
  -5   5   3 1232.77   57.11 
  -5   5  -3 1179.35   58.47 
   7  -5  -3  672.15   32.32 
   7  -5   3  666.21   32.30 
   7   5  -3  705.56   33.24 
   7   5   3  644.29   33.03 
   7   5   3  670.57   38.67 
  -7   5  -3  703.38   35.40 
  -9   5  -3  552.42   29.54 
   9   5  -3  552.76   27.70 
   9  -5   3  549.15   27.16 
  -9   5   3  524.83   26.95 
   9   5   3  542.13   27.72 
  11  -5   3  194.55   12.20 
   0  -6   3   72.97    4.95 
   0  -6  -3   78.58    4.51 
   0   6  -3   71.54    4.98 
   0   6  -3   64.84    5.82 
   0   6   3   67.76    6.03 
   2   6   3  781.35   38.43 
   2   6   3  767.51   36.42 
  -2   6  -3  779.89   38.21 
  -2  -6   3  773.14   35.62 
   2  -6  -3  720.43   35.07 
  -2   6   3  720.84   37.26 
   2  -6   3  795.89   35.67 
   2   6  -3  758.09   36.56 
   2   6  -3  774.06   37.69 
  -4   6  -3   36.26    5.05 
  -4   6   3   35.28    4.17 
   4   6   3   27.73    3.33 
   4   6   3   32.29    5.65 
   4  -6   3   31.94    3.77 
   4   6  -3   34.43    3.79 
   4   6  -3   34.77    5.02 
   4  -6  -3   32.32    3.64 
   6   6  -3  343.99   17.61 
  -6   6   3  350.78   17.95 
  -6   6  -3  337.94   19.39 
   6  -6  -3  327.02   16.99 
   6  -6   3  331.59   17.08 
   6   6   3  334.89   17.43 
   6   6   3  314.67   21.78 
  -8   6  -3   32.63    5.92 
  -8   6   3   29.91    4.46 
   8   6  -3   31.30    4.11 
   8   6   3   15.33    7.93 
   8   6   3   24.51    3.95 
   8  -6   3   40.11    4.79 
  10  -6   3   70.11    6.72 
 -10   6   3   87.22    7.58 
 -10   6  -3   72.05    8.56 
   1  -7   3 1099.39   49.46 
  -1   7   3 1020.83   52.17 
   1   7   3 1002.02   52.66 
   1   7  -3 1065.23   50.75 
  -1   7  -3 1125.23   53.01 
   1   7  -3 1088.55   52.59 
  -1  -7   3 1092.45   49.42 
   1  -7  -3 1100.52   49.00 
   3   7  -3  843.58   39.40 
   3   7   3  812.53   41.69 
   3  -7  -3  782.08   37.77 
  -3   7   3  821.66   40.29 
   3   7  -3  830.08   40.96 
   3  -7   3  849.35   38.48 
  -3   7  -3  781.41   40.95 
   3   7   3  818.37   39.08 
   5  -7   3  680.25   32.85 
   5   7   3  665.96   37.25 
  -5   7  -3  686.71   35.71 
  -5   7   3  696.54   34.52 
   5   7   3  670.70   33.54 
   5  -7  -3  708.75   32.73 
   5   7  -3  720.32   33.88 
   7   7  -3  458.60   23.26 
   7  -7   3  435.96   22.58 
   7   7   3  453.64   23.16 
  -7   7  -3  488.51   25.38 
   7   7   3  426.95   29.12 
   7  -7  -3  443.99   22.52 
   9   7  -3  315.97   17.33 
   9  -7   3  296.44   17.07 
   9   7   3  313.71   17.35 
  -9   7  -3  334.76   19.27 
   0   8  -3  213.26   13.21 
   0  -8   3  212.18   11.40 
   0   8   3  204.61   12.80 
   2   8   3   33.01    5.47 
   2   8  -3   30.27    5.09 
  -2   8   3   37.12    4.80 
   2   8  -3   27.99    3.47 
   2  -8   3   31.77    3.90 
   2  -8  -3   28.91    3.35 
  -2   8  -3   34.78    5.32 
   4  -8   3  143.52    8.93 
   4  -8  -3  138.28    8.39 
  -4   8  -3  139.91   10.60 
  -4   8   3  146.10    9.86 
   4   8   3  143.20   11.63 
   4   8  -3  155.96    9.04 
  -6   8   3   35.25    5.07 
   6  -8   3   26.68    4.17 
   6  -8  -3   32.81    4.25 
   6   8   3   32.53    4.26 
  -6   8  -3   28.35    5.58 
   6   8   3   20.01    7.36 
   6   8  -3   27.24    4.19 
   8   8   3   66.57    6.19 
   8   8  -3   60.95    5.99 
  -8   8   3   64.08    6.59 
   8  -8   3   55.44    5.71 
  -8   8  -3   62.27    7.67 
   1   9   3  722.40   37.98 
   1   9  -3  763.21   38.15 
   1  -9   3  739.32   35.08 
  -1   9   3  724.51   37.41 
  -1   9  -3  746.51   38.38 
   3   9  -3  657.59   34.23 
  -3   9  -3  630.16   33.78 
   3   9   3  639.64   34.33 
   3  -9   3  658.13   31.01 
   3  -9  -3  628.06   30.51 
  -3   9   3  649.35   32.99 
   5   9   3  570.88   31.78 
   5   9  -3  508.93   27.45 
  -5   9  -3  577.09   29.99 
  -5   9   3  585.52   28.84 
   5  -9   3  562.55   27.20 
   5  -9  -3  508.61   26.52 
   7   9   3  392.35   25.05 
  -7   9   3  347.27   19.45 
   7   9   3  343.13   18.56 
   7   9  -3  347.42   18.70 
   7  -9   3  326.94   18.26 
  -7   9  -3  337.00   20.41 
   7  -9  -3  324.68   17.95 
   0  10   3   26.55    5.77 
   0  10  -3   32.15    6.41 
  -2  10  -3  178.57   12.76 
   2  10  -3  159.16   12.56 
  -2  10   3  163.93   11.57 
   2 -10   3  165.89   10.09 
   2  10   3  159.89   12.25 
   4 -10  -3   33.61    4.44 
   4 -10   3   31.97    4.51 
  -4  10  -3   28.96    6.56 
   4  10   3   35.24    7.48 
  -4  10   3   30.24    5.34 
  -6  10   3   83.60    7.99 
   6 -10  -3   74.94    6.62 
   6 -10   3   83.69    7.08 
   6  10   3   90.04   11.50 
  -1  11   3  325.20   19.47 
  -1  11  -3  346.15   20.82 
   1  11  -3  328.84   20.42 
   1  11   3  306.24   19.86 
  -3  11   3  278.60   17.07 
   3 -11   3  273.73   15.28 
  -3  11  -3  286.56   18.22 
   3  11   3  267.47   18.49 
   0   0  -4 2441.44  112.77 
   0   0   4 2339.67  113.80 
   2   0  -4   29.74    3.29 
  -2   0  -4   31.05    3.53 
   2   0   4   25.27    5.08 
   2   0   4   38.94    3.39 
  -2   0  -4   27.44    3.82 
  -4   0   4 2880.37  129.20 
   4   0   4 2947.22  128.01 
   4   0   4 2820.63  138.54 
   4   0  -4 3064.28  132.87 
  -4   0  -4 2694.54  133.35 
  -4   0  -4 2750.62  116.97 
   6   0   4   89.87   11.35 
   6   0   4   86.74    5.33 
  -6   0  -4   85.73    5.72 
   6   0  -4   89.01    5.83 
  -6   0  -4   83.15    6.37 
  -6   0   4  105.80    7.19 
  -8   0   4  848.05   41.69 
   8   0   4  900.57   47.04 
  -8   0  -4  875.47   42.54 
  -8   0  -4  855.91   37.31 
   8   0  -4  839.53   41.54 
 -10   0  -4   23.43    5.20 
 -10   0  -4   32.72    4.97 
  -1  -1  -4  252.25   12.02 
  -1   1   4  261.78   13.20 
  -1  -1  -4  260.19   13.66 
   1   1  -4  236.18   13.44 
   1  -1   4  247.94   17.52 
  -1  -1   4  288.58   15.24 
   1  -1  -4  252.98   14.33 
   1  -1   4  243.25   13.00 
   1   1   4  221.57   15.31 
   1   1   4  230.51   13.46 
  -1   1  -4  238.29   15.41 
  -1   1   4  223.65   13.00 
   3  -1   4   59.86    7.88 
   3   1  -4   43.23    3.64 
   3  -1   4   39.38    3.34 
  -3  -1  -4   43.71    4.02 
   3   1   4   37.45    3.03 
  -3  -1   4   47.48    5.82 
  -3  -1  -4   43.11    3.58 
  -3   1   4   41.89    3.95 
  -3   1  -4   35.14    4.01 
  -3   1  -4   35.02    4.38 
   3   1   4   64.30    7.79 
   3  -1  -4   42.36    3.42 
  -5  -1   4  104.83    7.82 
  -5   1   4   95.91    6.80 
   5   1  -4   93.31    6.15 
   5   1   4   95.07    5.35 
   5  -1   4  115.18   12.65 
   5  -1  -4  104.24    6.03 
   5  -1   4   96.61    5.91 
   5   1   4   92.84    6.45 
   5   1   4   87.90   10.76 
  -5   1  -4   95.57    6.96 
  -5   1  -4   96.88    6.24 
   7   1  -4   12.79    2.73 
  -7   1  -4   10.45    3.09 
  -7   1  -4   19.84    3.93 
   7   1   4   21.41    7.76 
  -7  -1   4   12.97    4.17 
   7  -1  -4   12.95    2.55 
  -7   1   4   16.58    3.94 
   7   1   4    9.40    2.84 
   7  -1   4    8.22   10.06 
   7  -1   4   11.06    2.39 
  -9   1  -4   51.47    5.39 
   9  -1   4   58.85   10.83 
   9   1   4   61.77   11.64 
  -9   1   4   61.84    6.63 
  -9   1  -4   52.28    6.22 
   9   1  -4   46.79    4.86 
   9   1   4   57.96    6.19 
  11   1  -4    3.89    3.51 
 -11  -1  -4    3.56    3.61 
 -11  -1  -4    2.69    3.96 
   0   2   4   20.29    3.10 
   0   2   4   24.42    3.14 
   0  -2  -4   11.39    2.96 
   0  -2   4   34.03    4.09 
   0  -2  -4   13.31    2.73 
   0   2  -4   22.72    3.93 
  -2   2  -4 1899.68   88.50 
  -2  -2  -4 1821.31   74.07 
  -2  -2   4 1603.75   83.55 
   2   2   4 1937.44   81.57 
   2  -2   4 1602.84   86.52 
   2  -2  -4 1760.14   84.20 
  -2   2  -4 1874.65   77.56 
   2   2   4 1763.18   87.50 
   2  -2   4 2021.80   81.63 
   2   2  -4 1829.12   84.45 
  -2   2   4 1720.44   84.97 
  -2  -2  -4 1779.86   84.41 
   4   2   4   67.55    3.87 
   4  -2   4   55.02   10.06 
   4  -2  -4   72.79    4.53 
  -4  -2   4   76.53    8.90 
  -4   2  -4   76.56    5.67 
   4   2   4   74.86    9.28 
  -4   2   4   71.35    4.58 
   4   2   4   65.28    4.95 
   4  -2   4   77.43    5.02 
  -4   2  -4   74.29    6.37 
   4   2  -4   82.19    5.26 
  -4   2   4   72.05    5.19 
  -6   2  -4 1071.87   44.40 
  -6   2  -4 1042.18   50.51 
   6  -2   4 1042.66   47.82 
   6   2   4  974.74   49.50 
   6  -2  -4 1012.64   48.91 
  -6   2   4 1102.08   48.59 
   6  -2   4  981.46   52.92 
   6   2  -4 1038.31   49.48 
   6   2   4 1063.76   54.94 
  -6  -2   4 1060.94   50.61 
   8  -2   4   25.62    3.74 
  -8   2  -4   40.58    4.66 
  -8   2   4   37.60    5.23 
   8   2   4   30.05    4.50 
   8   2  -4   34.46    4.01 
   8  -2   4   29.11    9.89 
   8   2   4   23.83   10.75 
  -8   2  -4   33.64    4.94 
  10   2   4  411.68   22.55 
  10   2   4  440.32   27.97 
  10  -2   4  419.79   26.40 
 -10   2   4  417.38   22.54 
  10   2  -4  397.28   21.73 
   1   3  -4   46.44    3.86 
  -1  -3  -4   43.36    3.71 
  -1   3   4   43.42    3.59 
  -1   3  -4   32.21    5.48 
   1   3   4   43.47    3.75 
  -1  -3   4   41.93    4.85 
   1  -3  -4   50.52    5.01 
   1   3   4   35.77    4.67 
  -1   3   4   36.97    3.95 
  -1   3  -4   52.15    4.83 
   1   3  -4   44.54    4.16 
   1  -3   4   48.60    4.11 
  -1  -3  -4   43.85    3.40 
  -3   3   4   14.05    2.46 
   3  -3   4   10.20    2.30 
  -3   3  -4   16.14    5.93 
  -3  -3   4   18.31    5.47 
   3   3  -4   17.56    2.63 
   3   3   4   11.92    2.24 
   3  -3   4    7.65    6.83 
   3  -3  -4   14.44    1.77 
   3   3   4   22.60    5.29 
  -5   3   4   71.73    4.91 
   5   3   4   69.55    5.26 
  -5   3  -4   59.68    6.06 
  -5   3   4   60.41    5.17 
  -5  -3   4   69.56    8.93 
   5   3  -4   76.04    5.27 
   5  -3   4   78.19   10.77 
   5  -3   4   71.14    5.18 
   5   3   4   85.70   11.02 
  -5   3  -4   67.23    6.93 
   7   3   4    9.63    7.34 
  -7   3  -4    5.42    3.85 
   7  -3   4   11.30    8.72 
  -7   3  -4    6.83    3.50 
   7  -3   4    7.07    2.54 
   7   3   4    2.92    2.60 
   7   3  -4    8.57    2.66 
  -7   3   4    7.02    3.18 
  -9   3   4   39.21    5.77 
   9   3   4   -9.71   10.22 
   9   3   4   35.66    4.83 
   9  -3   4   25.69    3.99 
   9   3  -4   31.33    4.27 
  11   3   4    2.89    4.24 
  11   3  -4    3.14    3.53 
 -11   3   4   -2.01    4.58 
   0   4   4 2652.32  131.51 
   0  -4   4 2944.28  132.54 
   0   4   4 2898.23  138.96 
   0   4  -4 3001.65  138.98 
   0  -4  -4 3086.02  120.11 
   0  -4  -4 3073.74  136.94 
  -2   4   4   82.21    4.99 
   2  -4  -4   62.24    4.67 
   2   4   4   76.01    6.53 
  -2   4  -4   56.04    7.39 
  -2   4  -4   73.83    6.39 
  -2   4   4   85.84    5.48 
   2   4   4   64.34    5.41 
   2   4   4   75.43    5.07 
   2   4  -4   76.66    5.35 
   2   4  -4   80.62    5.46 
   2  -4   4   79.46    5.24 
  -2  -4   4   80.97    6.55 
  -4   4   4 1352.29   65.72 
   4   4  -4 1328.50   65.22 
  -4  -4   4 1468.40   66.67 
  -4   4  -4 1342.57   68.47 
  -4   4  -4 1471.59   68.02 
   4   4   4 1394.15   69.09 
   4   4   4 1379.80   65.25 
   4  -4   4 1370.46   63.04 
  -4   4   4 1357.52   62.94 
   6   4   4   28.29    3.78 
  -6   4  -4   31.05    5.98 
   6  -4   4   33.43    3.99 
   6   4   4   25.08    7.76 
   6   4  -4   45.27    4.31 
  -6   4   4   26.21    3.68 
  -8   4  -4  651.95   35.01 
   8   4   4  651.58   32.66 
   8   4  -4  653.43   32.49 
  -8   4   4  684.91   32.27 
   8   4   4  650.23   37.47 
   8  -4   4  645.94   31.68 
 -10   4  -4   42.39    7.23 
  10  -4   4   40.85    5.33 
  10   4  -4   31.32    4.93 
 -10   4   4   47.37    6.45 
  10   4   4   33.62    5.21 
  -1   5  -4   96.61    7.37 
  -1   5   4  115.69    5.78 
  -1   5   4   99.20    6.79 
   1   5  -4  102.25    6.52 
   1   5  -4   95.60    6.74 
  -1  -5  -4   86.89    5.13 
   1   5   4   99.44    7.26 
  -1  -5  -4   95.16    5.89 
  -1   5  -4   92.93    7.01 
   1   5   4   87.44    5.41 
   1  -5   4   95.40    6.46 
  -1  -5   4   91.33    6.49 
   3   5  -4   72.91    5.85 
   3   5   4   63.12    6.99 
  -3  -5   4   81.16    6.81 
   3   5  -4   66.66    5.30 
  -3   5   4   74.88    5.47 
   3   5   4   67.48    5.00 
  -3   5  -4   66.32    6.76 
   3  -5   4   70.71    5.13 
  -3   5  -4   49.98    7.21 
  -3   5   4   73.18    5.01 
   5   5   4  122.27    7.40 
  -5   5   4  109.14    7.32 
   5  -5   4  106.99    7.15 
   5   5   4  100.82   10.87 
  -5   5   4  107.77    6.94 
   5   5  -4  107.41    7.30 
  -5   5  -4  101.35    9.00 
   7   5  -4   20.78    3.55 
  -7   5   4   17.24    3.68 
   7   5   4   16.03    7.16 
   7   5   4   20.99    3.58 
  -7   5  -4   16.54    5.47 
   7  -5   4   21.88    3.75 
   9  -5   4   32.85    4.85 
   9   5   4   34.13    4.87 
   9   5   4   33.00    8.76 
   9   5  -4   31.19    4.55 
  -9   5  -4   32.34    6.81 
  -9   5   4   41.20    5.50 
   0   6  -4   88.16    7.06 
   0   6   4   84.48    5.13 
   0   6  -4   84.86    6.14 
   0  -6   4   88.01    6.12 
   0   6   4   99.42    7.10 
   2  -6   4 1052.84   49.19 
  -2   6   4  978.43   51.32 
   2   6   4 1164.60   50.63 
   2   6  -4 1023.79   50.64 
   2   6  -4 1107.41   51.89 
  -2  -6   4 1077.90   49.54 
  -2   6  -4 1070.44   52.46 
   2   6   4 1086.49   52.66 
   2  -6  -4 1013.32   48.50 
   4  -6   4   23.45    3.56 
   4  -6  -4   34.67    3.84 
  -4   6  -4   36.50    5.46 
   4   6  -4   29.78    3.90 
  -4   6   4   20.92    3.54 
   4   6   4   31.92    3.64 
   4   6   4   24.29    5.82 
   6   6   4  572.24   29.98 
   6  -6   4  628.65   29.40 
   6   6   4  626.15   35.16 
  -6   6   4  643.27   30.55 
  -6   6   4  609.89   29.31 
  -6   6  -4  552.97   32.21 
   6   6  -4  614.33   30.32 
   8  -6   4   39.84    5.19 
   8   6   4   44.46    5.13 
   8   6   4   44.53   10.00 
  -8   6  -4   37.57    6.98 
   8   6  -4   42.36    5.05 
  -8   6   4   44.80    5.24 
  10  -6   4  322.57   17.76 
 -10   6  -4  302.96   19.61 
  -1  -7   4   11.59    2.83 
   1  -7   4    8.69    2.71 
   1  -7  -4   15.02    2.56 
   1   7  -4   15.75    3.76 
   1   7   4   12.07    4.00 
  -1   7   4   16.04    3.59 
   1   7  -4   11.20    2.70 
  -1   7  -4   12.77    4.08 
   3   7   4    9.18    4.37 
  -3   7   4   12.03    3.17 
   3   7  -4    6.11    3.64 
  -3   7  -4    9.22    4.16 
   3  -7  -4    6.98    2.32 
   3   7   4    8.23    2.70 
   3   7  -4    7.52    2.80 
   5  -7   4   21.23    3.71 
   5   7   4   26.20    6.69 
   5  -7  -4   26.78    3.88 
   5   7   4   21.27    3.49 
   5   7  -4   23.39    3.89 
  -5   7  -4   19.79    5.33 
  -5   7   4   25.83    4.35 
   7   7   4    4.89    7.71 
  -7   7   4    1.50    2.71 
   7   7   4    1.71    3.08 
   7  -7   4    3.30    3.18 
   7   7  -4    3.39    3.05 
  -7   7  -4    7.89    5.23 
   9   7   4    7.46    3.74 
   9   7  -4    6.12    3.52 
   9  -7   4    8.56    3.82 
  -9   7   4    4.98    4.06 
  -9   7  -4    8.74    5.79 
   0   8   4  758.88   39.43 
   0   8  -4  815.93   39.97 
   0  -8   4  779.25   36.98 
   2  -8  -4   42.69    4.22 
   2  -8   4   36.08    4.27 
  -2   8  -4   33.07    5.87 
   2   8   4   41.98    5.96 
  -2   8   4   41.59    5.18 
   2   8  -4   38.89    5.65 
   2   8  -4   36.00    4.43 
   4   8  -4  707.22   34.61 
   4   8   4  686.30   37.34 
   4  -8  -4  694.99   33.15 
  -4   8  -4  722.74   36.74 
  -4   8   4  692.07   35.26 
   4  -8   4  704.00   33.85 
   6  -8   4   43.23    4.97 
  -6   8   4   49.77    5.82 
  -6   8   4   39.55    5.03 
   6   8  -4   47.30    5.36 
   6   8   4   37.34    8.71 
   6   8   4   47.04    5.29 
  -6   8  -4   38.74    6.96 
  -8   8   4  343.83   19.21 
  -8   8  -4  352.01   21.94 
   8   8  -4  359.16   19.62 
   8   8   4  390.53   26.44 
   8  -8   4  371.41   19.41 
   8   8   4  357.48   19.70 
  -1   9  -4   58.38    7.44 
   1   9  -4   55.42    7.09 
  -1   9   4   52.50    6.21 
   1  -9   4   49.29    5.13 
   1   9   4   54.39    6.85 
   3  -9  -4   36.41    4.30 
  -3   9  -4   31.40    6.31 
   3   9   4   32.62    6.44 
  -3   9   4   39.40    5.42 
   3  -9   4   37.08    4.79 
  -5   9  -4   35.45    6.46 
   5  -9   4   31.50    4.80 
  -5   9   4   27.64    4.26 
   5   9  -4   32.94    4.73 
   5   9   4   32.11    7.87 
  -5   9   4   37.36    5.38 
   7   9   4   -0.09    8.27 
  -7   9   4    6.71    3.77 
   7  -9   4   17.62    4.29 
  -7   9  -4   14.54    6.00 
   7   9  -4    7.64    3.72 
   0  10  -4   36.05    6.75 
   0  10   4   34.64    6.12 
   2  10   4  454.94   25.78 
  -2  10  -4  488.02   26.47 
   2 -10   4  438.07   23.03 
  -2  10   4  452.98   24.90 
  -4  10  -4   41.11    7.22 
   4 -10   4   40.03    5.43 
  -4  10   4   40.26    4.96 
  -4  10   4   54.46    6.77 
   4  10   4   43.11    7.98 
  -6  10   4  319.11   18.80 
   6  10   4  332.48   23.29 
   1  11   4    7.49    5.17 
  -1  11  -4    3.56    5.85 
   1  11  -4    1.98    5.74 
  -1  11   4   -6.64    4.37 
   3 -11   4    5.86    3.72 
  -3  11  -4   -3.39    5.88 
  -3  11   4   -3.52    4.43 
   3  11   4    5.99    6.10 
   0   0  -5 4727.50  210.76 
   0   0   5 4428.44  203.56 
   0   0   5 4413.49  213.19 
   2   0   5    4.01    2.00 
   2   0   5    7.90    3.82 
  -2   0   5    4.33    3.26 
  -2   0  -5    1.31    2.46 
   2   0  -5    0.86    2.03 
  -2   0  -5    2.89    2.71 
  -4   0  -5 1500.35   71.94 
   4   0   5 1510.95   68.49 
  -4   0   5 1563.65   69.93 
   4   0  -5 1471.77   71.13 
  -4   0  -5 1488.52   63.09 
   4   0   5 1555.31   76.06 
   6   0  -5   17.55    3.02 
  -6   0  -5   31.48    4.44 
  -6   0  -5   35.80    3.97 
   6   0   5   18.21    8.55 
   6   0   5   22.33    2.72 
  -6   0   5   27.31    4.55 
   8   0   5  521.26   33.73 
  -8   0   5  551.70   28.91 
   8   0  -5  542.07   27.91 
  -8   0  -5  591.04   29.35 
  -8   0  -5  600.05   25.81 
 -10   0  -5    9.67    4.08 
  10   0   5   -5.30   10.24 
 -10   0  -5   12.22    4.99 
  -1  -1   5 4911.12  204.74 
   1  -1   5 4501.98  203.22 
   1  -1   5 4496.21  214.95 
  -1  -1  -5 4607.86  210.73 
   1  -1  -5 4508.01  211.02 
   1   1   5 4431.35  214.80 
  -1   1  -5 4240.28  211.41 
   1   1  -5 4434.35  210.66 
  -1  -1  -5 4720.01  184.86 
   1   1   5 4798.56  203.33 
  -1   1   5 4429.02  212.86 
  -1  -1   5 4339.32  212.91 
  -1   1   5 4427.41  203.36 
   3  -1  -5 3928.91  188.70 
  -3  -1  -5 4219.32  189.49 
  -3  -1  -5 4350.90  166.24 
   3   1   5 4400.96  194.25 
  -3  -1   5 4210.14  184.92 
  -3   1   5 3789.51  182.73 
   3  -1   5 3939.04  182.21 
   3   1  -5 3827.08  188.83 
   3  -1   5 3616.17  194.21 
  -3   1  -5 4097.37  190.26 
   3   1   5 4340.32  182.05 
  -3   1  -5 4148.79  166.95 
  -5   1  -5 2684.38  126.17 
   5   1   5 2944.10  131.02 
   5  -1   5 2779.24  120.71 
  -5  -1  -5 2667.28  110.28 
   5   1  -5 2655.29  125.14 
  -5   1   5 2806.13  121.77 
   5  -1   5 2513.36  130.46 
  -5  -1  -5 2634.07  125.65 
  -5  -1   5 2760.32  122.92 
   5  -1  -5 2741.54  124.87 
  -5   1  -5 2626.88  110.65 
   5   1   5 2435.25  119.97 
   7  -1  -5 1496.16   72.49 
  -7   1   5 1571.23   71.71 
  -7  -1   5 1599.53   72.54 
   7   1  -5 1507.16   72.81 
  -7   1  -5 1510.46   73.85 
  -7  -1  -5 1546.40   73.56 
   7   1   5 1498.24   79.22 
  -7   1  -5 1522.52   64.80 
   7  -1   5 1631.27   79.35 
  -7  -1  -5 1540.14   64.53 
  -9  -1  -5  897.76   42.98 
  -9  -1   5  853.06   42.78 
   9  -1   5  925.19   46.67 
  -9   1  -5  813.44   37.48 
  -9   1  -5  811.39   42.71 
   9   1  -5  810.24   41.71 
  -9   1   5  886.79   42.37 
  -9  -1  -5  881.62   37.71 
   9   1   5  832.08   47.87 
  11  -1   5  472.47   30.81 
 -11  -1  -5  453.81   25.85 
 -11  -1  -5  475.17   22.88 
   0   2   5    2.18    2.51 
   0   2   5    3.29    2.21 
   0   2  -5   11.10    4.00 
   0  -2   5    0.37    2.73 
   0  -2  -5   -0.34    2.50 
   0  -2  -5    3.34    3.03 
  -2  -2   5  510.11   26.62 
  -2  -2  -5  525.76   25.56 
  -2   2   5  490.43   25.05 
  -2   2  -5  525.70   28.35 
   2   2   5  464.47   27.76 
   2   2   5  506.92   24.89 
   2  -2   5  480.07   29.38 
  -2  -2  -5  522.44   22.45 
   2  -2  -5  474.95   25.31 
   2   2  -5  516.72   25.55 
   2  -2   5  547.29   24.66 
  -2   2   5  542.44   24.73 
   4   2  -5   17.38    2.95 
  -4   2  -5   25.05    4.28 
  -4  -2  -5   23.09    3.42 
   4  -2   5   26.64   10.09 
  -4   2  -5   25.98    4.76 
  -4  -2  -5   27.76    3.21 
  -4   2   5   30.28    3.78 
   4   2   5   28.93    6.44 
  -4  -2   5   31.71    7.06 
   4  -2   5   22.85    3.02 
   4  -2  -5   23.01    2.69 
   6  -2   5  339.48   17.23 
   6  -2   5  329.06   21.62 
  -6  -2  -5  323.37   15.70 
   6   2  -5  328.72   17.68 
  -6  -2   5  352.23   20.63 
   6   2   5  340.98   22.09 
  -6   2  -5  353.93   16.85 
  -6   2   5  343.79   17.99 
  -6  -2  -5  328.71   17.91 
   6  -2  -5  350.91   17.09 
  -6   2  -5  359.44   19.23 
   8   2  -5    6.86    2.94 
   8  -2   5   -0.41   10.02 
  -8  -2   5    6.18    5.68 
  -8   2  -5    6.37    3.83 
   8   2   5  -16.17    8.87 
  -8  -2  -5    6.63    2.94 
  -8  -2  -5    6.53    3.24 
  -8   2  -5    3.11    4.00 
  -8   2   5    0.90    3.79 
   8  -2   5    3.33    2.46 
  10   2   5  146.51   18.12 
 -10   2   5  155.84   11.54 
  10  -2   5  145.50   18.02 
 -10  -2  -5  164.50   11.08 
  10   2  -5  141.86    9.90 
  -1  -3  -5 3960.27  178.54 
   1   3  -5 3869.19  180.35 
   1   3   5 3892.25  181.55 
   1  -3   5 3966.52  172.58 
  -1   3   5 3776.11  180.48 
   1  -3  -5 3565.62  178.53 
  -1  -3  -5 3976.81  156.61 
  -1   3   5 3742.11  171.84 
   1   3  -5 3996.21  178.85 
   1   3   5 3645.43  172.33 
  -1  -3   5 3833.58  173.76 
  -3   3   5 2824.85  141.21 
  -3   3  -5 2919.88  142.96 
   3  -3   5 2869.54  135.11 
   3   3  -5 2969.05  140.10 
  -3  -3   5 2862.37  137.66 
   3  -3  -5 3074.18  139.41 
   3   3   5 3348.82  145.37 
  -3  -3  -5 3078.69  140.07 
   3  -3   5 2978.59  144.07 
  -3   3   5 3111.97  135.26 
  -3  -3  -5 3041.72  122.85 
  -5  -3   5 2120.51   97.96 
  -5   3  -5 2061.97  100.18 
   5  -3   5 2111.25   94.90 
   5  -3   5 2195.71  103.22 
  -5   3  -5 2095.55   87.99 
   5   3  -5 2037.53   98.22 
   5   3   5 1902.05   98.18 
  -5   3   5 2067.06   95.12 
   5   3   5 2301.73  104.69 
  -7  -3   5 1410.79   64.89 
  -7   3  -5 1345.89   56.62 
   7   3   5 1254.28   62.66 
   7   3   5 1342.82   67.86 
  -7   3  -5 1321.23   64.24 
  -7   3   5 1295.51   61.01 
   7   3  -5 1300.52   62.44 
   7  -3   5 1191.23   60.17 
   7  -3   5 1354.00   67.44 
   9   3  -5  742.62   36.36 
   9   3   5  702.21   43.06 
  -9   3   5  792.99   36.72 
   9  -3   5  626.04   34.73 
   9   3   5  796.00   37.16 
 -11   3   5  386.82   21.67 
  11   3  -5  367.03   20.35 
 -11   3  -5  359.27   23.40 
   0   4  -5 1503.83   72.41 
   0  -4  -5 1548.27   62.92 
   0   4  -5 1351.65   71.77 
   0   4   5 1560.26   72.37 
   0  -4  -5 1586.31   71.79 
   0  -4   5 1615.66   69.74 
   0   4   5 1397.97   68.25 
   2  -4  -5   14.15    3.08 
  -2  -4   5   31.31    4.99 
  -2   4  -5   11.42    5.71 
   2   4  -5   23.21    3.01 
  -2   4   5   35.75    3.42 
  -2   4   5   25.64    3.31 
  -2  -4  -5   26.54    3.22 
  -2   4  -5   26.28    4.80 
   2  -4   5   33.93    3.79 
  -2  -4  -5   30.16    2.95 
   2   4  -5   21.20    3.35 
   2   4   5   17.22    4.13 
  -4   4   5 1158.58   56.07 
   4   4  -5 1200.14   56.09 
  -4  -4   5 1082.10   57.54 
  -4   4   5 1111.03   53.96 
   4   4   5 1209.65   56.00 
   4   4   5 1094.45   59.39 
  -4   4  -5 1288.25   59.14 
   4  -4   5 1243.51   54.26 
   6   4  -5   -1.39    2.24 
   6  -4   5   -0.90    2.43 
   6   4   5   -0.10    2.48 
  -6   4   5   -0.20    2.52 
   6   4   5   -2.56    5.06 
  -6  -4   5    3.47    5.25 
   8   4   5  367.57   19.50 
   8   4   5  359.16   23.55 
  -8   4   5  385.16   19.67 
  -8   4  -5  359.24   22.24 
   8  -4   5  346.04   18.82 
   8   4  -5  356.68   19.24 
  10   4  -5    0.97    3.18 
  10   4   5    9.46    4.35 
 -10   4  -5    3.00    6.25 
  10   4   5  -21.03    9.00 
 -10   4   5    3.55    4.66 
  -1  -5   5 2666.50  119.93 
  -1  -5  -5 2604.19  123.23 
  -1  -5  -5 2656.24  108.10 
  -1   5  -5 2630.89  125.76 
   1   5  -5 2624.84  124.95 
  -1   5   5 2782.35  125.26 
   1  -5   5 2750.59  119.63 
  -1   5  -5 2323.54  124.09 
  -1   5   5 2516.63  118.54 
   1   5   5 2799.09  125.83 
   1   5   5 2751.90  118.60 
   1   5  -5 2586.14  123.50 
  -3  -5  -5 2044.19   82.60 
   3   5  -5 2045.92   94.47 
  -3  -5   5 2127.78   93.13 
  -3   5  -5 1933.09   97.01 
  -3   5   5 2020.07   95.25 
   3   5   5 1956.57   97.34 
  -3  -5  -5 1990.47   94.13 
  -3   5   5 2061.01   90.95 
   3  -5   5 1899.74   91.14 
   5  -5   5 1444.31   67.66 
  -5   5   5 1528.11   67.77 
   5   5   5 1566.30   70.22 
  -5   5  -5 1474.32   73.03 
  -5   5   5 1373.99   70.22 
  -5  -5   5 1489.84   70.82 
   5   5  -5 1497.94   70.18 
   5   5   5 1421.65   74.35 
   7   5   5  959.55   46.73 
   7   5  -5  932.97   46.81 
   7  -5   5  950.69   45.39 
   7   5   5  958.09   51.77 
  -7   5   5  985.97   45.58 
  -7   5  -5  982.56   49.91 
   9   5  -5  593.53   29.77 
   9  -5   5  580.41   29.02 
  -9   5   5  599.60   29.47 
   9   5   5  559.88   33.75 
   9   5   5  576.71   29.68 
  -9   5  -5  551.26   32.04 
   0   6  -5   15.88    3.92 
   0  -6   5   20.69    3.60 
   0   6   5   20.75    2.73 
   0   6  -5   21.42    3.60 
   0   6   5   21.97    4.12 
   2   6   5  323.75   18.65 
  -2   6  -5  293.16   17.76 
   2  -6   5  363.71   17.12 
  -2  -6  -5  325.15   16.77 
  -2   6   5  299.23   16.03 
  -2  -6  -5  315.62   14.73 
   2   6  -5  343.79   17.29 
  -2  -6   5  323.26   17.53 
  -2   6   5  330.42   17.49 
  -2   6  -5  321.89   18.54 
   2   6  -5  332.94   17.57 
   4   6  -5   -0.73    2.32 
   4   6   5    3.08    2.61 
  -4   6   5   -0.86    2.18 
  -4  -6   5    1.94    3.70 
   4   6   5    0.88    4.10 
  -4   6  -5   -0.37    4.02 
  -4   6   5    3.06    2.61 
   4  -6   5    5.88    2.80 
  -6   6   5  253.24   13.61 
   6   6   5  243.05   13.51 
  -6   6  -5  235.81   16.17 
   6  -6   5  225.28   13.10 
   6   6   5  228.40   18.36 
   6   6  -5  227.51   13.55 
  -8   6   5   10.54    4.03 
   8   6  -5    5.31    3.52 
   8  -6   5   10.65    3.90 
   8   6   5   11.69    3.91 
   8   6   5    3.36    6.69 
  -8   6  -5   10.18    6.14 
  -1   7   5 1457.01   65.60 
  -1   7   5 1499.05   69.92 
   1   7  -5 1452.25   70.05 
  -1  -7   5 1481.82   66.67 
   1   7   5 1377.69   70.29 
   1  -7   5 1344.72   66.30 
  -1   7  -5 1482.13   70.62 
   1   7  -5 1449.66   68.50 
   3  -7   5 1226.87   56.98 
  -3  -7   5 1207.12   57.52 
  -3  -7  -5 1231.80   51.26 
   3   7  -5 1259.20   58.82 
  -3   7   5 1221.64   56.31 
  -3  -7  -5 1240.59   58.43 
  -3   7   5 1147.98   59.28 
  -3   7  -5 1244.56   61.10 
   3   7   5 1260.03   61.26 
   5   7  -5  929.31   46.70 
  -5   7   5 1022.13   45.40 
   5   7   5  963.69   50.62 
   5  -7   5  930.19   45.41 
   5   7   5  929.72   46.41 
  -5   7   5  998.98   47.19 
  -5   7  -5  945.41   49.23 
  -7   7  -5  647.53   35.35 
   7   7   5  690.79   39.14 
   7   7  -5  643.40   32.50 
   7   7   5  670.28   32.51 
  -7   7   5  624.95   31.59 
   7  -7   5  598.58   31.38 
   9   7   5  416.19   26.94 
   0   8   5  516.64   27.19 
   0   8  -5  539.90   27.70 
   0  -8   5  484.21   25.23 
  -2   8  -5   -0.38    4.32 
   2   8  -5    6.59    2.95 
  -2   8   5    5.85    2.47 
   2  -8   5   12.79    3.38 
  -2  -8   5    4.42    3.12 
   2   8   5    5.74    4.59 
  -2   8   5   12.64    3.84 
  -4   8  -5  370.94   22.02 
   4  -8   5  365.98   19.53 
   4   8   5  388.08   22.82 
  -4   8   5  364.05   18.93 
   4   8  -5  393.45   20.12 
  -4   8   5  356.77   20.15 
   6   8  -5    8.51    3.86 
   6   8   5   10.74    3.74 
  -6   8   5    9.89    3.70 
  -6   8  -5    3.32    5.70 
   6  -8   5   11.43    3.89 
   6   8   5    2.99    7.02 
   8   8   5  140.23   15.38 
   8   8  -5  146.21   10.17 
   8   8   5  138.00   10.18 
   1   9   5  829.85   41.89 
  -1   9   5  796.44   41.24 
   1   9  -5  865.42   42.27 
  -1   9  -5  821.71   42.45 
   1  -9   5  771.15   38.79 
   3   9   5  771.70   40.15 
  -3   9   5  804.90   38.54 
   3  -9   5  739.86   36.49 
  -3   9  -5  708.49   39.75 
   5  -9   5  564.31   28.91 
  -5   9   5  561.12   28.35 
   5   9   5  614.93   33.45 
  -5   9   5  610.81   30.39 
  -5   9  -5  578.63   32.10 
   5   9  -5  559.78   29.66 
   7   9  -5  424.41   22.92 
   7   9   5  440.03   29.32 
  -7   9   5  409.50   22.27 
   0  10   5   -4.60    3.92 
   0  10  -5    4.83    5.47 
   2 -10   5  147.52    9.85 
  -2  10   5  151.69   11.02 
   2  10   5  150.83   12.18 
  -2  10  -5  147.30   12.57 
   4  10   5   -0.59    5.94 
  -4  10  -5   -3.08    5.85 
  -4  10   5    4.25    4.63 
   4 -10   5    2.39    3.61 
   6  10  -5   86.34    7.77 
  -1  11   5  421.23   24.06 
   1  11   5  414.99   24.43 
  -1  11  -5  434.87   25.53 
  -3  11   5  371.29   21.49 
   3 -11   5  362.00   19.68 
   0   0  -6  380.12   20.18 
   0   0   6  369.78   20.21 
  -2   0  -6 3436.39  138.10 
   2   0  -6 3461.55  156.57 
  -2   0   6 3363.04  152.67 
   2   0   6 3093.20  159.18 
   2   0   6 3474.80  151.04 
  -2   0  -6 3248.12  157.20 
  -4   0  -6  150.51    9.86 
  -4   0   6  149.39   10.15 
  -4   0  -6  143.35    8.68 
   4   0  -6  145.40    8.71 
   4   0   6  124.57    8.03 
   4   0   6  158.68   13.35 
   6   0   6 1422.22   74.55 
  -6   0  -6 1482.81   61.53 
  -6   0   6 1538.41   68.50 
   6   0  -6 1365.17   68.83 
  -6   0  -6 1482.40   70.12 
  -8   0  -6  101.69    8.52 
   8   0   6  123.56   15.21 
  -8   0   6  117.54    9.68 
   8   0  -6   94.54    7.23 
  -8   0  -6   99.05    7.43 
 -10   0  -6  583.64   27.84 
  10   0   6  610.47   37.35 
 -10   0  -6  591.41   31.70 
 -10   0   6  596.47   31.75 
   1   1   6   14.41    4.06 
  -1   1   6   16.07    3.69 
   1  -1   6   17.25    3.85 
   1  -1   6   11.60    6.75 
  -1  -1   6   14.61    5.71 
  -1  -1  -6    8.17    3.30 
   1   1   6   10.25    3.08 
   1   1  -6   21.59    4.37 
  -1   1   6   12.14    4.25 
  -1  -1  -6   16.17    4.28 
   1  -1  -6   12.79    3.65 
  -1  -1   6   26.62    4.96 
  -1   1  -6   11.29    3.87 
  -3   1   6   55.15    5.75 
  -3  -1  -6   46.98    5.68 
  -3   1  -6   60.56    6.14 
  -3  -1  -6   52.56    5.15 
   3   1   6   60.30    4.78 
   3  -1   6   63.35   10.13 
  -3   1  -6   60.07    7.02 
   3   1   6   56.67    7.22 
  -3  -1   6   60.44    7.91 
   3  -1   6   60.64    4.95 
   3  -1  -6   45.44    4.87 
   3   1  -6   53.30    5.18 
   5  -1   6    1.62    7.97 
  -5   1  -6   10.38    3.51 
   5   1   6    4.34    5.56 
   5  -1   6    6.75    2.33 
  -5  -1   6   12.31    4.82 
  -5   1  -6    9.62    3.75 
  -5  -1  -6    5.24    2.97 
  -5  -1  -6    4.86    2.59 
  -5   1   6   11.51    3.58 
   5  -1  -6    3.13    2.14 
   5   1  -6    5.45    2.41 
   7   1   6   19.82    7.64 
  -7   1  -6   16.56    4.37 
  -7   1   6   18.65    5.01 
  -7  -1  -6   13.75    3.51 
  -7   1  -6    9.86    4.44 
  -7  -1   6   19.01    5.82 
  -7  -1  -6   11.51    3.82 
   7  -1  -6   17.13    3.01 
   7   1  -6   11.19    3.20 
   7  -1   6   13.14   12.44 
  -9  -1  -6    3.42    4.13 
  -9   1  -6    6.36    4.80 
   9   1  -6    7.18    3.33 
  -9   1   6    9.53    5.18 
  -9   1  -6    7.44    4.19 
   9   1   6   -3.94   10.82 
  -9  -1  -6    8.67    3.69 
  -9  -1   6    9.24    5.93 
 -11   1   6   -0.30    5.47 
 -11  -1  -6   -1.79    4.10 
  11  -1   6  -22.01   11.72 
 -11  -1  -6   -0.38    4.73 
   0   2   6 3287.40  138.02 
   0  -2   6 3094.63  144.56 
   0  -2   6 3279.18  139.31 
   0   2   6 2976.31  144.18 
   0  -2  -6 3012.95  142.95 
   0   2  -6 2568.01  143.51 
   2   2   6  399.60   20.39 
   2   2  -6  370.15   21.06 
  -2   2   6  443.43   20.64 
  -2  -2   6  406.76   21.80 
   2  -2   6  392.26   20.27 
  -2  -2  -6  396.43   18.65 
  -2   2   6  370.05   20.35 
   2   2   6  372.85   23.64 
   2  -2  -6  417.01   21.40 
  -2  -2  -6  394.32   21.16 
  -2   2  -6  438.62   23.16 
   2  -2   6  460.54   27.95 
  -4   2  -6 1936.47   86.01 
  -4  -2   6 1884.87   95.53 
  -4  -2  -6 2249.09   84.98 
   4  -2  -6 1925.33   95.64 
  -4   2  -6 1983.04   98.06 
   4  -2   6 2033.75   93.00 
   4   2   6 2246.41  100.97 
   4  -2   6 2111.35  102.06 
   4   2  -6 2006.84   96.34 
  -4  -2  -6 2171.87   96.78 
  -4   2   6 1993.24   93.36 
   6  -2   6  185.97   18.42 
   6   2  -6  198.71   11.51 
  -6   2  -6  208.98   11.94 
  -6   2   6  193.69   11.96 
   6  -2   6  206.55   11.21 
   6   2   6  217.83   15.56 
  -6   2  -6  204.44   13.27 
  -6  -2   6  212.87   14.97 
  -6  -2  -6  176.72   11.70 
  -6  -2  -6  186.99   10.40 
  -8   2  -6  968.43   48.03 
  -8  -2  -6  904.71   46.89 
  -8   2  -6  972.82   42.23 
  -8  -2   6  942.30   48.34 
   8   2   6  949.00   51.77 
   8   2  -6  916.56   46.35 
  -8   2   6 1007.00   46.40 
   8  -2   6 1002.67   52.17 
  -8  -2  -6  917.46   41.26 
  10   2   6   68.98   16.28 
  10   2  -6   74.67    7.05 
  10  -2   6   69.88   14.97 
 -10  -2  -6   87.26    7.43 
 -10   2   6   77.87    9.10 
 -10  -2  -6   87.15    8.39 
   1  -3  -6   43.18    5.14 
  -1  -3   6   50.95    6.79 
   1   3  -6   51.65    4.78 
  -1   3   6   47.14    5.18 
   1   3   6   50.62    6.34 
  -1  -3  -6   54.88    4.99 
   1   3   6   48.79    5.76 
   1  -3   6   55.31    5.39 
  -1   3   6   43.53    4.72 
  -1   3  -6   39.75    6.87 
   1   3  -6   50.44    5.64 
  -1  -3  -6   45.76    5.43 
   3   3  -6   58.92    5.39 
  -3  -3  -6   41.01    4.76 
  -3  -3   6   51.68    7.02 
  -3   3  -6   61.58    7.85 
   3  -3   6   57.95    5.15 
   3  -3  -6   52.52    4.56 
  -3   3   6   55.50    5.07 
   3  -3   6   63.01   11.02 
   3   3   6   53.21    8.51 
  -3   3   6   46.19    4.35 
  -3  -3  -6   52.49    4.62 
  -5  -3  -6    3.58    2.79 
  -5   3   6    2.79    2.71 
  -5  -3  -6    2.65    2.46 
  -5   3  -6    2.62    4.62 
   5   3  -6    2.15    2.38 
  -5   3  -6    2.22    3.95 
   5   3   6   -3.36    5.02 
   5  -3   6    2.04    2.40 
  -5  -3   6    4.43    4.47 
   5  -3   6    6.40    9.99 
  -7  -3  -6   14.92    3.90 
   7  -3   6   11.70   11.54 
   7   3  -6   17.26    3.71 
  -7   3   6   11.48    4.01 
  -7   3  -6   16.99    5.87 
  -7  -3  -6   14.29    3.33 
  -7   3  -6   12.55    4.83 
  -7  -3   6   14.40    6.35 
   7  -3   6   14.33    3.55 
   7   3   6   16.90    6.91 
  -9   3   6    1.92    4.66 
  -9  -3  -6   -1.67    3.52 
  -9  -3  -6    1.99    3.32 
   9   3  -6    3.07    3.35 
   9   3   6  -17.28    8.01 
   0  -4  -6  155.97   10.42 
   0   4  -6  126.93    9.99 
   0   4   6  141.51    8.65 
   0  -4  -6  161.87    9.21 
   0   4   6  138.21    9.63 
   0   4  -6  147.32    9.70 
   0  -4   6  160.01   10.31 
   2   4  -6 2156.42   96.59 
  -2   4   6 1887.03   92.27 
  -2   4  -6 2024.70   98.53 
  -2  -4  -6 2111.58   84.27 
   2   4   6 1978.63   98.37 
  -2   4   6 1941.55   96.77 
   2  -4   6 2098.59   93.03 
  -2  -4  -6 2084.67   96.03 
   2   4  -6 2061.30   96.24 
   4   4   6  176.74   14.33 
  -4  -4  -6  172.80   10.29 
  -4  -4  -6  168.65    9.04 
  -4   4   6  173.53   10.13 
   4   4  -6  164.78   10.36 
  -4   4  -6  172.33   12.98 
  -4  -4   6  154.34   12.57 
   4  -4   6  181.56   10.31 
  -6  -4  -6 1255.21   53.96 
  -6   4  -6 1230.45   64.67 
  -6  -4  -6 1274.92   61.49 
   6   4  -6 1244.01   61.37 
  -6  -4   6 1392.44   62.37 
  -6   4   6 1316.19   59.58 
  -6   4  -6 1260.71   56.91 
   6  -4   6 1211.80   59.31 
   6   4   6 1331.78   66.37 
   8  -4   6   90.72    7.32 
   8   4  -6   91.76    7.33 
  -8  -4  -6   85.14    7.40 
   8   4   6   88.77   11.11 
  -8   4   6   84.96    7.79 
  -8  -4  -6   82.09    6.40 
  10   4  -6  394.73   23.20 
  10   4   6  421.53   27.77 
 -10   4   6  484.86   24.36 
 -10  -4  -6  412.79   23.73 
 -10   4  -6  471.54   27.59 
   1   5   6    7.77    3.67 
  -1   5   6    4.43    2.20 
  -1   5  -6   10.56    3.67 
  -1  -5  -6    5.07    2.63 
  -1  -5   6    4.45    3.18 
  -1   5  -6    7.24    3.98 
   1  -5   6    3.91    2.90 
   1   5  -6    7.11    2.93 
  -1  -5  -6    3.07    2.89 
   1   5  -6    4.41    2.99 
  -1   5   6   11.10    3.07 
  -3   5   6    3.11    2.26 
   3   5   6    2.36    3.77 
   3   5  -6    5.69    2.93 
  -3  -5  -6    0.01    2.23 
  -3  -5   6    2.43    4.30 
   3  -5   6    2.56    2.55 
  -3  -5  -6    1.18    1.99 
  -3   5  -6   -0.75    5.09 
  -3   5   6    2.77    2.49 
  -3   5  -6    3.61    4.01 
  -5  -5  -6   17.68    3.73 
   5   5   6   14.69    7.17 
  -5   5  -6   21.75    6.06 
  -5  -5   6   17.33    6.88 
   5   5  -6   19.37    3.70 
   5  -5   6   17.35    3.71 
  -5   5   6   20.44    3.89 
  -5  -5  -6   11.25    3.00 
   7   5  -6    0.34    2.93 
  -7  -5  -6    2.62    3.15 
   7  -5   6    2.90    3.09 
   7   5   6    2.93    6.51 
  -7   5   6   -1.07    3.27 
  -7  -5  -6   -0.68    2.61 
  -7   5  -6   -4.67    5.35 
  -9  -5  -6    4.20    3.47 
   9   5  -6   -0.79    3.40 
  -9  -5  -6    2.15    3.78 
  -9   5  -6   -1.00    6.29 
   9  -5   6    4.82    3.72 
  -9   5   6    0.72    4.40 
   9   5   6   -5.96    6.32 
   0  -6   6 1434.77   64.87 
   0   6  -6 1280.40   66.84 
   0   6   6 1415.24   67.67 
   0   6  -6 1441.31   68.00 
   2  -6   6  188.05   11.38 
  -2   6   6  184.14   10.54 
  -2  -6   6  192.36   12.34 
   2   6   6  222.41   13.10 
  -2   6   6  196.66   11.72 
   2   6  -6  199.33   11.78 
  -2   6  -6  205.71   13.36 
  -2   6  -6  153.17   12.16 
  -2  -6  -6  193.07   11.16 
  -2  -6  -6  189.28    9.81 
   4  -6   6 1200.58   56.80 
  -4  -6   6 1272.37   59.09 
  -4  -6  -6 1226.00   51.35 
   4   6   6 1192.54   61.83 
  -4   6  -6 1174.81   61.30 
   4   6  -6 1236.90   58.75 
  -4  -6  -6 1220.85   58.45 
  -4   6   6 1199.00   58.85 
  -4   6   6 1240.37   56.48 
  -6  -6  -6  135.14    9.25 
  -6   6  -6  133.82   12.11 
  -6  -6  -6  136.25    8.15 
  -6   6   6  129.44    9.18 
   6   6   6  152.16   14.66 
   6  -6   6  136.96    9.35 
   6   6  -6  131.77    9.40 
  -8   6  -6  585.50   32.20 
   8   6  -6  551.77   28.36 
   8   6   6  549.26   32.71 
  -8   6   6  522.41   27.77 
  -8  -6  -6  552.85   28.64 
  -8  -6  -6  536.14   25.07 
   8  -6   6  531.43   27.66 
  -1  -7   6   13.98    3.84 
  -1   7  -6   16.31    4.62 
   1   7  -6   12.78    3.68 
   1   7   6   11.21    4.57 
   1   7  -6   14.47    4.04 
  -1   7   6   17.31    4.16 
   1  -7   6   12.69    3.59 
  -3   7  -6    9.29    5.04 
  -3   7   6   12.78    3.70 
  -3  -7  -6    9.65    2.76 
  -3   7   6    9.67    2.97 
  -3  -7   6   14.24    4.49 
  -3  -7  -6   10.74    3.14 
   3   7   6    4.87    4.95 
   3   7  -6   14.74    3.86 
   3  -7   6   11.18    3.49 
  -5   7   6    2.10    3.38 
  -5  -7  -6    0.76    2.97 
   5   7   6    3.46    5.74 
  -5  -7  -6   -0.57    2.53 
   5   7  -6   -1.20    3.04 
  -5   7  -6    2.38    5.14 
   5  -7   6    0.01    2.86 
   7  -7   6    6.20    3.72 
   7   7  -6    5.25    3.81 
  -7  -7  -6    9.22    3.35 
  -7   7   6    4.54    3.98 
   7   7   6    6.51    8.04 
  -7   7  -6    4.50    6.62 
  -7  -7  -6    8.12    3.68 
   0  -8   6  111.03    7.89 
   0   8   6  105.21    8.71 
   0   8  -6   99.73    9.09 
   2   8   6  939.63   46.18 
   2   8  -6  941.39   44.13 
  -2   8   6  828.06   44.53 
  -2   8  -6  902.74   46.23 
  -2  -8   6  922.19   43.35 
   2  -8   6  852.07   42.63 
  -4   8   6   83.04    7.70 
   4  -8   6   86.06    7.10 
  -4   8   6   80.65    6.66 
  -4   8  -6   95.70   10.09 
   4   8   6   85.60    9.91 
   4   8  -6   82.10    7.44 
  -6   8   6  538.16   27.20 
   6   8   6  548.41   32.60 
  -6  -8  -6  551.31   28.03 
  -6  -8  -6  524.79   24.52 
  -6   8  -6  524.11   30.87 
   6  -8   6  520.75   27.32 
   6   8  -6  560.58   28.35 
  -1  -9   6    8.36    3.89 
  -1   9  -6   10.23    5.49 
   1  -9   6    8.20    3.53 
   1   9   6   11.23    4.95 
  -1   9   6    8.80    4.30 
  -3   9  -6   -2.35    5.31 
   3   9   6   -4.36    4.91 
   3   9  -6   -0.17    3.24 
  -3   9   6   -2.39    3.85 
   3  -9   6   -2.08    3.26 
  -5   9  -6   -5.86    5.26 
   5  -9   6    0.91    3.65 
   5   9   6   -1.06    6.29 
  -5   9   6    2.36    3.56 
   5   9  -6    4.45    4.14 
   0 -10   6  556.78   28.44 
   0  10  -6  572.83   31.50 
   0  10   6  559.96   30.25 
  -2  10  -6   73.88    9.79 
  -2  10   6   69.58    7.68 
   2  10   6   78.25    8.94 
   2 -10   6   88.05    7.31 
   4  10   6  483.29   27.31 
   4 -10   6  410.08   22.97 
  -4  10   6  442.70   24.52 
  -4  10  -6  441.61   26.55 
  -1  11  -6    1.47    6.79 
   0   0   7  658.39   34.02 
   0   0   7  699.67   33.08 
   0   0  -7  663.41   33.86 
  -2   0  -7 2183.93  100.35 
  -2   0   7 2643.35  112.13 
   2   0  -7 2399.85  113.76 
   2   0   7 2465.12  109.68 
  -2   0  -7 2258.27  114.46 
   2   0   7 2457.70  115.29 
   4   0  -7  304.47   16.39 
  -4   0   7  293.21   17.57 
   4   0   7  288.48   15.62 
   4   0   7  321.24   19.65 
  -4   0  -7  312.96   17.79 
  -4   0  -7  287.66   15.62 
   6   0  -7 1091.29   53.05 
   6   0   7 1130.79   57.79 
  -6   0  -7 1117.62   54.42 
  -6   0  -7 1045.27   47.64 
  -6   0   7 1139.99   53.55 
  -8   0  -7   60.50    6.52 
  -8   0  -7   72.04    7.64 
   8   0   7   58.14   12.37 
   8   0  -7   61.07    6.08 
  -8   0   7   73.06    9.11 
 -10   0  -7  373.25   19.46 
  10   0   7  325.93   28.82 
 -10   0  -7  389.62   22.13 
 -10   0   7  375.07   22.84 
  -1   1   7 1188.27   60.29 
  -1  -1   7 1276.28   61.02 
  -1  -1  -7 1223.28   61.13 
   1  -1   7 1317.98   59.20 
  -1   1   7 1360.74   59.68 
  -1  -1   7 1173.02   58.25 
  -1   1  -7 1176.25   59.92 
   1  -1  -7 1196.57   59.50 
   1  -1   7 1366.71   62.20 
   1   1   7 1165.03   60.86 
   1   1   7 1200.14   57.40 
  -1  -1  -7 1217.48   53.59 
   1   1  -7 1212.27   60.87 
  -3  -1   7  895.85   43.31 
  -3  -1  -7  832.15   43.16 
  -3   1  -7  840.96   39.08 
   3  -1   7  806.12   45.30 
  -3  -1  -7  851.46   38.06 
   3  -1   7  868.25   40.94 
   3  -1  -7  870.57   42.51 
  -3   1   7  859.73   41.99 
   3   1  -7  888.51   42.83 
   3   1   7  881.52   44.48 
   3   1   7  906.57   40.94 
  -3   1  -7  862.73   44.64 
   5  -1   7  485.57   23.40 
   5   1  -7  454.25   24.29 
  -5  -1  -7  481.73   25.18 
  -5   1  -7  447.41   25.70 
  -5  -1   7  489.60   26.34 
  -5   1  -7  458.94   22.71 
  -5   1   7  492.56   24.73 
  -5  -1  -7  495.50   22.31 
   5  -1   7  451.93   28.88 
   5  -1  -7  446.37   23.91 
   5   1   7  519.20   27.57 
  -7   1  -7  496.33   23.99 
   7   1   7  499.95   29.80 
  -7   1   7  484.69   26.29 
  -7  -1  -7  507.49   26.52 
   7  -1  -7  487.51   25.26 
  -7   1  -7  496.68   27.22 
   7   1  -7  487.22   25.63 
  -7  -1  -7  504.88   23.30 
   7  -1   7  537.91   34.53 
  -7  -1   7  514.48   27.82 
  -9  -1  -7  293.32   17.84 
  -9   1   7  324.26   18.88 
   9   1  -7  260.77   16.46 
  -9  -1  -7  299.44   15.77 
   9  -1   7  331.06   24.13 
  -9   1  -7  291.96   18.41 
  -9   1  -7  294.47   16.17 
  -9  -1   7  320.10   19.81 
   9   1   7  282.52   23.28 
 -11   1   7  208.08   15.94 
   0   2   7 2240.66  100.45 
   0  -2  -7 2067.29  102.93 
   0  -2   7 2240.93  101.14 
   0   2   7 2180.51  104.63 
   0   2  -7 2105.94  103.88 
   0  -2   7 2215.20  105.14 
  -2  -2   7    9.00    3.95 
   2  -2   7   31.29   11.03 
   2  -2  -7   15.71    4.24 
  -2  -2  -7   16.78    3.84 
   2   2  -7   19.42    4.26 
  -2   2   7   25.31    3.57 
  -2  -2  -7   21.13    4.55 
  -2   2  -7   18.67    4.97 
   2   2   7   14.68    5.10 
  -2   2   7   15.82    3.97 
   2   2   7   16.78    3.39 
   2  -2   7   14.08    3.48 
  -4   2  -7 1518.84   64.87 
  -4   2   7 1486.32   69.54 
  -4   2  -7 1507.17   73.90 
  -4  -2  -7 1483.95   63.24 
   4   2   7 1511.97   74.56 
   4  -2   7 1355.69   76.96 
  -4  -2   7 1439.24   71.01 
  -4  -2  -7 1523.79   72.07 
   4   2  -7 1492.55   71.61 
   4  -2  -7 1563.62   71.08 
   4  -2   7 1582.94   69.25 
   6   2   7   12.79    5.82 
  -6   2  -7   17.45    5.57 
  -6  -2  -7   15.08    3.59 
  -6   2   7   15.35    4.35 
  -6  -2   7   17.22    6.51 
   6  -2   7   10.92   11.40 
   6   2  -7   16.57    3.66 
  -6  -2  -7   17.16    4.09 
   6  -2   7   10.78    3.27 
  -6   2  -7   14.18    4.68 
  -8  -2  -7  596.17   29.80 
   8   2   7  598.83   33.32 
  -8   2   7  558.66   29.74 
  -8   2  -7  576.52   27.63 
   8  -2   7  546.82   35.10 
  -8  -2   7  583.82   31.98 
  -8   2  -7  566.18   31.13 
   8   2  -7  560.39   29.14 
  -8  -2  -7  541.35   25.98 
  10   2   7  -24.60   10.16 
 -10  -2  -7    9.57    4.41 
 -10  -2  -7   11.52    4.96 
 -10   2   7    6.29    5.20 
  10  -2   7  -20.91   12.31 
  10   2  -7    5.74    3.98 
   1  -3   7  783.19   42.78 
  -1  -3  -7  847.30   41.28 
   1   3  -7  743.92   41.26 
  -1  -3  -7  864.62   36.34 
   1  -3  -7  793.38   40.17 
   1  -3   7  824.13   39.98 
   1   3   7  836.57   42.08 
   1   3  -7  855.79   40.58 
  -1   3   7  795.21   39.03 
   1   3   7  847.01   39.40 
  -1   3   7  844.71   40.91 
  -1   3  -7  784.03   41.88 
  -3  -3  -7  867.92   37.53 
   3   3   7  980.58   47.26 
  -3   3  -7  801.40   43.90 
  -3   3   7  879.51   41.39 
  -3  -3  -7  851.88   42.61 
   3  -3  -7  813.20   42.01 
  -3  -3   7  909.48   42.84 
   3  -3   7  887.47   47.54 
   3  -3   7  822.27   41.04 
   3   3  -7  863.07   42.65 
  -5  -3  -7  545.11   28.96 
   5   3  -7  546.76   28.87 
  -5  -3  -7  576.24   25.57 
   5  -3   7  584.82   28.10 
   5   3   7  557.75   32.31 
  -5  -3   7  644.29   30.60 
  -5   3  -7  589.87   28.22 
  -5   3  -7  536.63   31.62 
  -5   3   7  521.56   28.05 
   5  -3   7  612.85   35.67 
   7  -3   7  505.39   32.10 
  -7  -3  -7  485.32   25.64 
  -7  -3   7  541.10   27.76 
   7   3  -7  481.50   25.60 
   7  -3   7  469.23   24.73 
  -7  -3  -7  454.73   22.39 
  -7   3   7  482.32   25.38 
   7   3   7  520.33   29.40 
  -7   3  -7  500.74   24.72 
  -7   3  -7  484.88   27.97 
  -9  -3  -7  249.24   15.38 
   9  -3   7  228.15   22.33 
  -9   3   7  270.12   16.15 
  -9  -3  -7  256.43   13.59 
   9   3   7  234.25   19.04 
   9   3  -7  230.34   14.68 
   0   4   7  292.69   17.01 
   0  -4  -7  303.34   18.07 
   0  -4   7  314.80   17.71 
   0  -4  -7  294.90   15.83 
   0   4  -7  300.91   17.23 
   0   4   7  275.58   15.77 
   2   4  -7 1422.70   71.07 
  -2   4   7 1457.81   68.13 
  -2   4   7 1401.37   71.01 
  -2   4  -7 1516.53   73.00 
  -2  -4   7 1337.06   70.63 
   2  -4   7 1473.92   68.64 
  -2  -4  -7 1542.35   62.36 
   2   4   7 1430.11   73.10 
  -2   4  -7 1626.15   73.53 
  -2  -4  -7 1583.01   71.07 
   4  -4   7  183.48   10.94 
   4   4  -7  180.73   11.32 
   4   4   7  189.32   15.49 
  -4   4  -7  181.49   12.92 
  -4  -4  -7  158.15    9.52 
  -4  -4  -7  185.20   10.98 
  -4  -4   7  166.85   12.68 
  -4   4   7  174.02   10.78 
   6   4   7  806.78   43.03 
   6   4  -7  790.93   39.29 
  -6   4  -7  809.58   42.58 
  -6  -4   7  801.85   40.32 
  -6  -4  -7  802.88   39.48 
  -6  -4  -7  757.30   34.50 
  -6   4   7  767.80   38.06 
   6  -4   7  777.93   37.98 
  -8   4   7   35.91    6.03 
   8  -4   7   39.27    5.54 
  -8  -4  -7   35.69    5.76 
   8   4   7   26.43    7.89 
   8   4  -7   37.37    5.49 
  -8  -4  -7   37.94    5.05 
  10   4   7  292.42   20.26 
   1   5   7  441.19   25.30 
  -1  -5  -7  492.44   25.10 
  -1   5  -7  487.27   25.86 
   1   5  -7  459.35   24.42 
  -1   5   7  463.55   23.22 
  -1   5   7  470.98   24.66 
  -1  -5  -7  506.77   22.12 
   1  -5   7  489.56   24.60 
   1   5  -7  435.40   25.04 
  -1  -5   7  443.84   24.94 
   3   5   7  593.75   32.07 
  -3  -5   7  549.79   31.30 
  -3  -5  -7  569.66   25.92 
  -3   5   7  601.61   28.47 
  -3  -5  -7  572.38   29.48 
  -3   5  -7  568.15   31.92 
   3  -5   7  610.37   29.04 
   3   5  -7  606.64   30.00 
  -3   5  -7  589.07   31.91 
  -3   5   7  575.59   29.45 
  -5  -5  -7  483.11   24.65 
  -5   5  -7  509.82   28.24 
  -5  -5  -7  482.09   21.67 
   5   5  -7  460.33   24.78 
  -5   5   7  458.99   23.88 
   5   5   7  470.92   29.16 
   5  -5   7  459.60   24.02 
  -5  -5   7  461.10   26.76 
  -7  -5  -7  360.42   19.60 
  -7   5  -7  333.48   22.52 
   7  -5   7  334.56   18.71 
   7   5  -7  332.84   19.14 
  -7  -5  -7  354.77   17.21 
  -7   5   7  331.46   18.67 
   7   5   7  353.20   22.73 
  -9  -5  -7  154.73    9.87 
  -9   5   7  164.46   11.70 
  -9   5  -7  178.40   15.29 
   9  -5   7  145.18   10.78 
   9   5   7  175.58   15.01 
   9   5  -7  154.35   10.94 
  -9  -5  -7  159.03   11.32 
   0   6   7 1065.10   52.50 
   0   6  -7 1075.53   52.90 
   0   6  -7 1105.07   52.83 
   0  -6   7  986.39   50.40 
  -2   6   7   12.05    3.52 
  -2  -6   7   16.94    4.81 
   2  -6   7   10.92    3.57 
  -2   6   7   12.89    3.17 
   2   6   7   12.62    4.81 
  -2  -6  -7   16.22    3.81 
  -2   6  -7    4.56    4.40 
  -2   6  -7   10.96    5.03 
   2   6  -7   25.48    4.39 
  -2  -6  -7   11.24    3.11 
   4   6  -7  769.47   37.64 
   4  -6   7  736.93   36.30 
   4   6   7  777.11   40.59 
  -4  -6   7  707.08   38.75 
  -4   6   7  714.70   35.83 
  -4  -6  -7  746.37   32.63 
  -4  -6  -7  775.59   37.20 
  -4   6  -7  761.79   40.26 
   6   6   7    6.43    7.37 
  -6   6   7    0.69    3.68 
  -6   6  -7    8.48    6.34 
  -6  -6  -7   15.59    4.29 
  -6  -6  -7   12.38    3.66 
   6  -6   7    9.31    3.93 
   6   6  -7   11.86    4.09 
   8   6   7  323.60   21.61 
  -8  -6  -7  317.63   16.32 
  -8   6  -7  294.62   21.50 
  -8   6   7  314.65   18.18 
   8  -6   7  303.11   17.97 
   8   6  -7  321.11   18.36 
  -8  -6  -7  336.91   18.67 
  -1   7  -7  412.96   24.26 
   1   7  -7  457.34   24.13 
   1  -7   7  463.31   23.43 
   1   7   7  448.82   24.84 
  -1  -7   7  425.66   23.69 
  -1   7   7  458.88   24.10 
  -1   7  -7  481.60   25.58 
   3  -7   7  469.18   23.85 
  -3   7   7  454.80   24.18 
  -3   7   7  430.24   22.84 
   3   7   7  440.31   26.17 
  -3  -7   7  480.48   25.37 
   3   7  -7  480.62   24.60 
  -3   7  -7  465.68   26.41 
  -5   7  -7  321.64   21.45 
  -5   7   7  346.85   18.14 
  -5  -7  -7  347.15   16.56 
   5   7  -7  337.17   18.97 
  -5  -7  -7  357.00   18.91 
   5  -7   7  299.99   17.97 
   5   7   7  341.68   22.28 
  -7   7  -7  249.79   18.51 
  -7  -7  -7  241.19   13.27 
  -7   7   7  269.23   15.42 
   7   7   7  286.22   20.18 
  -7  -7  -7  248.11   15.13 
   7  -7   7  248.28   15.05 
   7   7  -7  227.76   14.98 
   0   8  -7   51.51    7.42 
   0  -8   7   55.86    6.24 
   0   8   7   63.09    7.19 
  -2   8   7  507.42   27.50 
   2   8  -7  512.80   27.35 
  -2  -8   7  548.18   27.73 
   2   8   7  566.66   29.26 
  -2   8  -7  528.64   29.49 
   2  -8   7  487.90   26.53 
   4   8   7   27.39    7.54 
  -4   8   7   38.12    5.72 
   4  -8   7   34.17    5.50 
   4   8  -7   53.61    6.08 
  -4   8  -7   36.44    7.81 
  -4   8   7   36.94    5.00 
  -6  -8  -7  315.35   17.51 
  -6   8   7  301.28   16.96 
   6   8  -7  300.30   17.60 
   6  -8   7  268.44   16.89 
  -6   8  -7  317.62   20.67 
  -6  -8  -7  291.48   15.19 
   6   8   7  317.87   22.45 
   1   9   7  257.28   16.74 
  -1  -9   7  262.36   15.65 
  -1   9   7  248.99   15.88 
  -1   9  -7  279.76   17.82 
   1  -9   7  270.77   15.42 
   3  -9   7  232.91   14.24 
  -3   9   7  229.78   14.72 
   3   9   7  252.54   17.20 
   3   9  -7  231.77   14.40 
  -3   9  -7  253.88   17.47 
  -5   9  -7  155.30   14.03 
   5   9  -7  161.47   11.55 
   5   9   7  176.34   14.85 
  -5   9   7  148.26   10.52 
   5  -9   7  178.32   11.56 
   0  10   7  319.05   18.94 
   0 -10   7  295.13   17.49 
   2  10   7    5.34    5.42 
   2 -10   7    8.27    4.23 
  -2  10  -7    5.20    6.59 
  -2  10   7    3.26    4.25 
  -4  10   7  244.02   15.52 
   1 -11   7  198.70   13.16 
   0   0   8 3309.24  160.40 
   0   0  -8 3598.75  166.15 
   0   0   8 3738.51  168.04 
   2   0   8 1087.07   50.78 
   2   0   8 1028.71   52.69 
  -2   0  -8  984.00   53.23 
  -2   0   8 1108.36   51.45 
   2   0  -8 1061.93   52.65 
   4   0  -8 2425.91  112.29 
  -4   0   8 2349.39  110.23 
  -4   0  -8 2477.82  113.95 
  -4   0  -8 2386.22   99.84 
   4   0   8 2146.94  107.81 
   4   0   8 2478.10  115.11 
  -6   0  -8  453.62   25.59 
  -6   0   8  440.58   25.60 
  -6   0  -8  469.46   22.81 
   6   0   8  493.61   28.31 
   6   0  -8  470.53   24.25 
  -8   0   8 1298.46   60.28 
   8   0  -8 1139.19   58.83 
  -8   0  -8 1206.00   60.62 
   8   0   8 1294.89   64.52 
  -8   0  -8 1187.18   53.25 
 -10   0  -8  187.10   13.87 
 -10   0  -8  163.97   11.79 
  10   0   8  143.99   20.31 
 -10   0   8  202.82   15.43 
   1  -1   8   11.67    4.00 
  -1  -1  -8    2.02    3.84 
   1   1   8    4.78    3.31 
   1   1   8    3.01    2.65 
  -1  -1   8    4.25    3.46 
  -1   1   8    2.51    3.72 
   1   1  -8    3.38    3.60 
   1  -1  -8    2.85    2.84 
   1  -1   8    9.29    5.24 
  -1   1  -8    5.54    3.52 
   3   1   8    8.39    4.20 
   3  -1   8    7.82    3.02 
  -3  -1  -8   12.79    4.82 
   3  -1   8    9.44    6.16 
  -3   1  -8   10.73    5.54 
   3   1   8   10.87    3.55 
  -3  -1   8    7.00    4.13 
  -3   1  -8   16.43    6.29 
  -3  -1  -8    9.52    4.11 
   3   1  -8   20.45    4.24 
  -3   1   8   12.95    4.74 
   3  -1  -8    7.15    3.59 
   5   1   8   32.95    7.05 
  -5   1   8   36.43    6.18 
  -5   1  -8   32.45    5.59 
   5  -1   8   41.11    9.02 
   5  -1  -8   33.32    4.53 
  -5  -1   8   39.84    7.22 
   5  -1   8   39.47    4.72 
   5   1  -8   55.63    5.66 
  -5  -1  -8   33.58    5.18 
  -5   1  -8   35.97    6.53 
  -5  -1  -8   38.70    5.95 
  -7  -1  -8    3.94    4.00 
   7   1   8   -0.83    6.32 
  -7  -1  -8    2.44    3.62 
   7   1  -8    1.08    3.08 
  -7   1  -8    4.51    4.51 
   7  -1   8   -8.98   10.96 
  -7   1  -8    8.69    4.95 
  -7   1   8    5.60    4.84 
  -7  -1   8    1.17    5.13 
  -9   1  -8   10.76    5.95 
   9   1   8   -1.30    9.48 
   9   1  -8   12.78    4.29 
  -9   1   8    8.16    6.56 
  -9   1  -8   12.17    5.59 
  -9  -1   8   11.30    6.66 
  -9  -1  -8   14.43    4.76 
  -9  -1  -8    4.29    4.74 
   0  -2  -8 1076.63   51.16 
   0   2   8 1014.26   52.81 
   0   2  -8 1033.08   51.72 
   0   2   8  952.43   49.54 
   0  -2   8 1079.72   50.42 
   0  -2   8 1110.82   53.80 
  -2   2   8 4173.99  199.11 
   2   2   8 4424.96  209.80 
   2  -2   8 4480.56  211.29 
  -2  -2  -8 4504.63  181.39 
   2   2  -8 4517.52  206.79 
   2  -2   8 4415.76  199.17 
  -2  -2  -8 4526.47  206.80 
  -2  -2   8 4143.68  199.09 
   2   2   8 4487.87  198.08 
  -2   2  -8 4588.71  206.51 
   2  -2  -8 4225.20  205.67 
   4   2  -8  705.24   34.04 
   4  -2   8  681.84   32.73 
  -4  -2   8  620.36   33.75 
  -4  -2  -8  686.97   34.39 
  -4  -2  -8  693.15   30.35 
   4  -2   8  634.58   38.68 
   4   2   8  659.52   35.70 
  -4   2   8  647.23   33.19 
  -4   2  -8  668.95   32.11 
  -4   2  -8  652.51   36.46 
   4  -2  -8  659.23   33.32 
  -6   2  -8 2220.39  103.86 
   6  -2   8 2087.95  107.28 
  -6   2  -8 2236.18   91.19 
   6   2   8 2258.16  105.17 
  -6  -2  -8 2097.38  102.00 
  -6  -2  -8 2028.72   89.48 
  -6   2   8 2060.46   98.82 
   6   2  -8 2131.75  101.59 
   6  -2   8 2121.44   97.89 
  -6  -2   8 2193.78  100.86 
  -8  -2  -8  290.50   18.07 
  -8   2  -8  309.93   17.50 
  -8   2  -8  332.68   20.11 
  -8  -2   8  300.48   20.16 
  -8  -2  -8  285.60   15.88 
   8   2  -8  297.80   17.62 
  -8   2   8  324.75   18.73 
   8  -2   8  306.75   24.82 
   8   2   8  339.32   20.91 
  10   2  -8  664.84   37.41 
 -10   2   8  787.99   38.99 
  10   2   8  790.57   43.28 
   1   3   8   17.70    5.23 
  -1  -3   8   11.80    4.45 
   1  -3  -8    4.31    2.89 
  -1  -3  -8    7.09    4.65 
  -1   3   8   12.07    4.05 
   1  -3   8    6.51    3.97 
   1   3   8    6.34    3.15 
   1   3  -8    9.33    4.45 
  -1   3  -8    5.17    4.41 
  -1   3   8   13.58    3.97 
  -1  -3  -8    6.26    4.24 
   1  -3   8    1.95    8.35 
   3   3   8    3.97    4.85 
   3  -3   8    2.98    2.83 
   3   3  -8    2.31    2.97 
   3  -3  -8    3.52    3.01 
  -3   3  -8    0.22    4.03 
   3  -3   8    9.52   10.98 
  -3  -3  -8    2.88    3.18 
  -3  -3  -8    3.08    3.57 
  -3  -3   8   -0.30    3.74 
  -3   3   8    5.57    3.47 
   5   3  -8   10.65    3.55 
  -5   3  -8   10.63    6.17 
   5  -3   8    5.69    3.34 
   5   3   8    5.32    5.17 
  -5   3   8    4.48    3.73 
  -5  -3   8    6.27    4.59 
  -5  -3  -8    6.72    3.37 
   5  -3   8   50.96   13.83 
  -5  -3  -8    6.41    3.58 
  -7   3  -8    2.36    5.71 
  -7  -3  -8    9.78    4.21 
   7   3   8   -0.58    5.61 
  -7   3   8   -0.87    3.85 
  -7   3  -8    7.37    5.23 
   7  -3   8    2.57    3.37 
  -7  -3   8   -0.23    4.82 
   7  -3   8    1.33   11.89 
   7   3  -8    1.72    3.16 
  -7  -3  -8   14.75    3.91 
   9  -3   8  -13.04   12.28 
   9   3  -8    6.98    4.17 
  -9   3   8    9.75    5.59 
  -9  -3  -8   13.39    5.12 
   9   3   8   22.74    6.73 
  -9  -3  -8    6.93    4.19 
   0   4  -8 2470.78  110.34 
   0  -4  -8 2207.66  108.67 
   0   4   8 2105.35  104.39 
   0   4   8 2339.73  110.07 
   0  -4   8 2298.09  106.46 
  -2  -4  -8  582.17   33.23 
  -2  -4   8  638.38   33.54 
   2   4   8  669.91   35.29 
  -2   4   8  676.86   33.08 
   2  -4   8  630.10   32.31 
   2   4  -8  682.09   33.91 
  -2   4  -8  741.66   35.11 
  -2  -4  -8  569.28   29.16 
  -2   4   8  650.69   31.71 
   4   4   8 2042.79   99.05 
  -4  -4  -8 1850.73   94.26 
   4  -4   8 1916.88   91.31 
   4   4  -8 1983.31   94.77 
  -4   4   8 2106.82   91.70 
  -4  -4  -8 1895.71   82.84 
  -4   4  -8 1966.79   95.52 
  -4  -4   8 2142.12   93.07 
  -6  -4   8  463.81   24.15 
   6   4   8  416.47   25.17 
  -6   4   8  392.78   21.97 
   6   4  -8  391.60   22.45 
  -6   4  -8  438.46   25.20 
  -6  -4  -8  395.95   19.81 
   6  -4   8  425.71   22.03 
  -6  -4  -8  418.22   22.67 
  -8  -4  -8  851.32   37.58 
   8   4  -8  842.21   42.55 
  -8  -4  -8  842.45   42.76 
  -8   4   8  853.37   41.96 
   8   4   8  863.15   45.47 
   8  -4   8  825.31   41.18 
  -1   5   8   35.71    4.81 
   1   5   8   34.16    5.85 
  -1  -5  -8   38.47    6.26 
  -1  -5  -8   36.84    5.41 
  -1   5  -8   28.99    7.32 
   1   5  -8   30.88    6.01 
  -1   5   8   35.77    5.16 
  -1   5  -8   40.05    6.51 
   1  -5   8   38.40    5.92 
  -1  -5   8   38.37    6.57 
  -3   5  -8    8.54    5.38 
   3   5   8    6.50    5.25 
  -3   5   8    7.18    3.28 
  -3  -5   8    2.37    4.99 
   3   5  -8    6.48    3.82 
  -3  -5  -8    6.16    2.94 
  -3  -5  -8    8.51    3.57 
  -3   5  -8    9.12    5.36 
   3  -5   8    5.23    3.40 
   5   5  -8   11.60    4.14 
  -5  -5   8    6.73    5.34 
  -5   5   8   17.71    4.27 
  -5   5  -8   10.61    5.17 
  -5   5  -8    2.90    5.65 
  -5  -5  -8   24.11    4.08 
   5   5   8    2.90    6.52 
   5  -5   8   10.65    3.66 
  -5  -5  -8   23.72    4.55 
   7   5   8    1.75    6.13 
  -7  -5  -8   -0.05    3.80 
  -7  -5  -8    2.48    3.69 
   7  -5   8    7.21    4.10 
  -7   5   8    2.59    4.18 
  -7   5  -8    1.90    6.31 
   7   5  -8    5.79    4.16 
   9  -5   8   13.19    4.80 
   0   6  -8  461.44   25.21 
   0   6  -8  452.38   24.65 
   0   6   8  395.37   23.54 
  -2   6   8 2075.78   99.81 
  -2   6   8 2005.29   95.00 
   2   6  -8 1985.23   99.32 
  -2  -6   8 2092.58   97.70 
   2  -6   8 2081.34   96.29 
  -2   6  -8 2104.41  101.86 
  -2  -6  -8 2172.21   87.18 
  -2  -6  -8 2182.10   99.30 
   2   6   8 2032.05  101.17 
   4  -6   8  388.32   20.68 
   4   6   8  405.20   24.25 
  -4  -6  -8  373.76   18.43 
  -4   6  -8  400.82   23.96 
  -4   6   8  376.74   20.10 
  -4  -6  -8  373.27   20.86 
   4   6  -8  373.85   21.19 
  -4  -6   8  395.82   23.87 
  -6   6  -8 1171.05   61.33 
   6  -6   8 1109.31   55.71 
   6   6   8 1172.03   61.59 
  -6  -6  -8 1218.51   57.76 
  -6  -6  -8 1198.15   50.68 
   6   6  -8 1190.23   57.82 
  -6   6   8 1164.95   55.79 
  -8   6  -8  168.46   15.27 
   8   6  -8  151.40   11.30 
  -8   6   8  166.93   11.52 
   8  -6   8  141.67   11.07 
  -8  -6  -8  154.21   11.32 
   8   6   8  187.03   15.11 
  -8  -6  -8  144.30   10.00 
   1  -7   8   17.34    4.63 
  -1   7  -8    6.30    5.24 
   1   7   8    4.12    4.59 
   1   7  -8   11.01    4.49 
  -1   7   8    3.95    3.91 
  -1   7  -8    4.06    4.76 
  -1  -7   8    6.79    4.59 
   3   7  -8    1.78    3.61 
  -3   7   8    5.41    3.69 
   3   7   8    3.92    5.16 
  -3  -7   8    4.29    5.02 
  -3   7  -8   -0.56    5.19 
   3  -7   8   -2.61    2.88 
  -3   7   8    9.57    3.58 
  -5  -7  -8    3.80    3.83 
   5   7   8    4.87    7.28 
   5  -7   8    3.85    3.86 
  -5  -7  -8    2.68    3.37 
  -5   7   8    1.62    3.38 
  -5   7  -8   -2.69    6.36 
   5   7  -8   -0.09    3.79 
  -7  -7  -8    1.85    3.65 
  -7   7   8    8.26    4.65 
   7  -7   8   -0.38    3.81 
  -7   7  -8    8.11    7.40 
   7   7  -8    2.69    3.97 
  -7  -7  -8    0.29    3.55 
   7   7   8   -2.24    6.70 
   0  -8   8 1075.91   53.25 
   0   8   8 1135.20   55.65 
  -2   8  -8  303.42   19.51 
   2   8   8  310.48   18.98 
  -2  -8   8  288.32   17.98 
   2  -8   8  293.59   16.91 
  -2   8   8  269.73   16.97 
   2   8  -8  293.92   17.35 
  -4   8   8  795.70   40.22 
   4   8   8  887.08   45.56 
   4  -8   8  843.35   41.18 
  -4   8  -8  808.85   44.93 
   4   8  -8  861.72   42.60 
  -6   8  -8  158.27   14.52 
  -6   8   8  163.69   11.43 
   6   8  -8  164.31   11.83 
   6   8   8  192.78   16.73 
   6  -8   8  161.08   11.68 
  -1   9   8   12.35    5.29 
   1   9   8    9.85    5.16 
   1  -9   8   11.42    4.49 
  -1  -9   8   12.00    4.95 
  -3   9   8   10.94    4.63 
   3  -9   8    8.25    4.41 
  -3   9  -8    8.13    7.00 
   3   9   8   17.84    6.72 
   3   9  -8   10.76    4.63 
  -5   9   8   12.97    4.76 
   5   9  -8   19.39    5.50 
   0  10   8  159.82   12.33 
   0 -10   8  160.08   11.68 
   2 -10   8  653.25   33.29 
  -2  10   8  610.01   34.32 
  -2  10  -8  715.14   37.41 
   0   0   9  379.20   20.45 
   0   0  -9  365.06   20.22 
   0   0   9  373.73   19.90 
   2   0  -9   67.85    7.40 
  -2   0  -9   64.77    8.05 
  -2   0   9   75.39    7.62 
   2   0   9   76.70    7.01 
   2   0   9   66.83    8.23 
  -4   0  -9  639.30   30.41 
  -4   0   9  591.98   33.32 
  -4   0  -9  712.42   35.15 
   4   0  -9  634.80   32.86 
   4   0   9  606.47   31.16 
   4   0   9  614.97   33.91 
  -6   0  -9    5.64    4.89 
  -6   0  -9   12.70    4.84 
  -6   0   9    9.73    5.60 
   6   0   9    9.73    7.45 
   6   0  -9    8.58    3.74 
  -8   0   9  206.39   15.59 
  -8   0  -9  202.30   14.73 
   8   0   9  199.15   17.30 
  -8   0  -9  196.13   12.98 
 -10   0   9   12.54    7.73 
  -1  -1  -9  271.56   16.84 
  -1  -1   9  313.74   16.77 
   1   1   9  306.80   17.00 
   1  -1   9  309.67   16.57 
   1  -1  -9  260.68   15.96 
  -1   1  -9  283.18   16.64 
  -1   1   9  281.33   16.51 
   1   1   9  277.23   15.66 
   1   1  -9  284.85   16.78 
   1  -1   9  293.23   17.57 
  -3   1  -9  351.44   21.22 
   3   1  -9  338.88   20.02 
   3  -1  -9  312.30   19.52 
   3   1   9  358.56   19.03 
   3  -1   9  312.48   20.47 
   3   1   9  331.36   19.86 
  -3  -1   9  334.77   19.20 
  -3   1   9  354.09   20.52 
  -3  -1  -9  364.01   18.43 
  -3  -1  -9  352.66   20.84 
  -5   1  -9  184.23   14.43 
  -5  -1  -9  190.04   12.29 
   5  -1   9  201.81   12.13 
  -5  -1   9  204.91   14.36 
   5   1   9  199.02   14.78 
   5  -1   9  212.99   16.00 
  -5   1   9  215.60   14.11 
   5  -1  -9  200.54   12.55 
  -5   1  -9  193.59   12.65 
  -5  -1  -9  183.50   13.89 
   5   1  -9  192.56   12.68 
  -7   1  -9  234.11   16.30 
   7   1   9  233.23   17.37 
   7  -1   9  230.50   20.65 
  -7   1   9  229.18   15.76 
  -7  -1   9  271.84   17.58 
  -7  -1  -9  229.01   13.69 
   7   1  -9  233.13   14.40 
  -7   1  -9  239.85   14.47 
  -7  -1  -9  227.51   15.31 
   9  -1   9  154.48   14.34 
  -9  -1  -9  108.86    8.98 
  -9   1  -9  107.46   11.45 
  -9   1   9  119.42   11.65 
  -9  -1   9  104.00   11.59 
   9   1  -9   92.94    8.86 
   9   1   9  107.94   13.81 
  -9  -1  -9  105.01   10.03 
  -9   1  -9  117.81   10.11 
   0   2   9   75.43    8.09 
   0  -2   9   83.68    7.92 
   0  -2   9  108.73   10.45 
   0   2   9   91.88    7.50 
   0  -2  -9   83.57    7.34 
   0   2  -9   89.19    7.84 
   2  -2  -9  320.70   18.41 
   2   2  -9  355.15   20.31 
  -2   2   9  320.53   19.27 
  -2  -2   9  315.89   18.37 
   2  -2   9  345.94   19.23 
   2  -2   9  338.16   22.64 
   2   2   9  321.99   17.36 
  -2  -2  -9  350.18   20.61 
  -2  -2  -9  337.52   18.01 
   2   2   9  298.06   19.40 
  -2   2  -9  319.88   18.97 
   4  -2  -9   23.32    4.76 
  -4  -2   9   31.38    5.74 
  -4   2  -9   31.18    6.94 
   4  -2   9   29.05   10.26 
  -4   2   9   33.38    5.95 
   4   2  -9   23.58    4.92 
  -4  -2  -9   30.94    5.82 
   4  -2   9   20.96    4.43 
  -4  -2  -9   31.30    5.19 
   4   2   9   25.35    5.64 
  -6   2  -9  234.69   14.65 
  -6   2   9  212.59   14.47 
  -6  -2  -9  230.43   14.58 
  -6  -2   9  217.39   15.07 
   6   2   9  217.58   15.75 
   6  -2   9  239.11   19.71 
  -6  -2  -9  216.80   12.78 
   6   2  -9  228.16   14.23 
  -6   2  -9  233.01   16.62 
   6  -2   9  222.53   13.39 
   8   2  -9   16.46    4.75 
   8   2   9   18.63    7.06 
   8  -2   9    9.47   10.21 
  -8   2  -9   31.52    7.64 
  -8   2  -9   23.83    6.33 
  -8   2   9   20.35    6.43 
  -8  -2   9   13.98    6.39 
  -8  -2  -9   11.89    4.94 
  -8  -2  -9   10.35    4.23 
  -1   3   9  312.01   19.07 
   1   3   9  331.15   21.16 
  -1   3  -9  335.25   19.82 
  -1   3   9  330.81   19.58 
  -1  -3   9  360.15   19.46 
   1   3  -9  322.64   20.82 
   1  -3   9  384.19   20.79 
  -1  -3  -9  367.19   20.76 
   1  -3   9  308.43   23.01 
   1  -3  -9  318.84   18.35 
   1   3   9  359.01   18.15 
  -3   3  -9  374.97   20.98 
   3   3   9  376.44   22.30 
  -3  -3   9  370.48   20.18 
   3  -3   9  340.11   25.53 
  -3  -3  -9  353.07   20.81 
  -3  -3  -9  352.24   18.33 
   3  -3   9  356.36   19.75 
   3  -3  -9  371.40   20.72 
   3   3  -9  357.63   20.85 
  -3   3   9  348.56   20.10 
   5  -3   9  226.40   13.47 
  -5  -3  -9  214.42   13.78 
  -5  -3   9  205.00   14.02 
  -5   3   9  205.56   13.47 
  -5   3  -9  205.02   15.22 
  -5  -3  -9  226.60   12.35 
   5   3  -9  218.25   13.95 
   5   3   9  222.16   15.54 
   5  -3   9  184.44   19.93 
  -7  -3  -9  210.07   12.41 
  -7   3  -9  250.11   15.36 
   7   3  -9  215.80   13.86 
  -7  -3  -9  200.38   13.83 
  -7  -3   9  216.33   14.99 
   7  -3   9  214.46   21.09 
  -7   3  -9  235.13   17.18 
   7  -3   9  210.54   13.23 
   7   3   9  205.94   15.74 
  -7   3   9  204.61   13.84 
  -9  -3  -9  102.35    8.26 
   9   3  -9   96.38    8.86 
   9  -3   9   48.19   16.75 
  -9  -3  -9   87.61    8.83 
  -9   3   9  100.39    9.95 
   9   3   9  110.35   11.79 
   0   4   9  533.86   30.31 
   0  -4  -9  627.32   31.29 
   0   4   9  579.15   32.10 
   0  -4   9  667.24   33.45 
   2   4  -9   26.45    5.90 
   2  -4   9   26.20    5.09 
  -2   4  -9   44.42    7.05 
  -2  -4   9   27.17    5.54 
   2   4   9   30.71    7.38 
  -2  -4  -9   19.38    5.48 
  -2  -4  -9   32.03    5.37 
  -2   4   9   30.15    5.29 
   4   4   9  310.25   19.97 
   4  -4   9  263.18   16.35 
  -4   4  -9  314.44   18.02 
  -4   4   9  274.46   16.51 
  -4  -4  -9  282.15   17.06 
  -4  -4  -9  278.38   15.14 
  -4  -4   9  302.00   17.54 
   4   4  -9  303.38   17.52 
  -6  -4   9   25.12    6.44 
   6   4   9   25.28    6.90 
   6  -4   9   27.89    5.28 
  -6   4   9   23.85    5.04 
  -6   4  -9   26.56    6.63 
  -6  -4  -9   14.82    4.93 
  -6  -4  -9   19.59    4.43 
   6   4  -9   27.76    5.42 
  -8   4   9  150.47   11.44 
   8   4  -9  159.20   11.60 
  -8  -4  -9  155.75   10.32 
   8  -4   9  148.81   10.96 
   8   4   9  155.55   13.50 
  -8  -4  -9  152.11   11.53 
   1   5   9  218.96   14.92 
   1   5  -9  222.37   15.34 
  -1   5  -9  209.81   15.52 
  -1  -5  -9  233.94   13.79 
  -1  -5  -9  227.52   15.60 
  -1   5  -9  192.24   15.77 
  -1  -5   9  201.18   15.18 
  -1   5   9  199.00   12.98 
  -1   5   9  212.47   13.95 
   1  -5   9  232.90   14.76 
  -3  -5   9  208.55   14.70 
   3   5  -9  213.19   14.15 
  -3  -5  -9  220.90   12.37 
  -3   5  -9  223.35   14.89 
  -3   5  -9  209.09   16.09 
   3   5   9  231.88   16.63 
   3  -5   9  205.71   13.39 
  -3  -5  -9  214.97   13.92 
  -3   5   9  211.08   13.00 
  -5   5   9  127.31    9.59 
  -5   5  -9  139.09   10.99 
   5   5  -9  129.00   10.06 
   5  -5   9  129.28    9.63 
  -5   5  -9  126.56   12.65 
  -5  -5   9  144.18   11.26 
   5   5   9  137.40   12.64 
  -5  -5  -9  128.42    8.67 
  -5  -5  -9  115.36    9.60 
   7  -5   9  152.52   10.90 
  -7   5  -9  140.73   14.22 
  -7   5   9  151.08   10.79 
   7   5   9  146.43   13.18 
  -7  -5  -9  150.01    9.98 
  -7  -5  -9  133.63   10.95 
   7   5  -9  131.58   10.78 
   0   6  -9   13.61    6.12 
   0  -6   9   12.04    4.92 
   0   6   9   11.60    4.69 
   2  -6   9  212.89   13.81 
   2   6  -9  209.36   14.13 
  -2   6  -9  177.46   14.76 
  -2   6  -9  214.34   15.64 
  -2   6   9  198.34   12.38 
  -2  -6   9  209.28   15.08 
  -2   6   9  199.75   12.97 
   2   6   9  215.02   14.82 
  -4  -6   9   30.61    7.77 
  -4   6  -9   21.47    7.40 
   4  -6   9   28.99    5.33 
  -4   6   9   24.01    4.73 
   4   6  -9   29.87    5.54 
   4   6   9   34.27    8.30 
  -4  -6  -9   27.62    5.11 
  -4  -6  -9   28.29    4.69 
  -6   6   9  120.73    9.66 
   6   6  -9  125.74   10.13 
   6   6   9  137.59   13.41 
   6  -6   9  122.08    9.79 
  -6  -6  -9  130.79   10.07 
  -6  -6  -9  137.06    9.19 
  -6   6  -9  102.01   12.41 
   1  -7   9  222.08   14.55 
  -1   7  -9  206.94   15.66 
   1   7   9  219.19   15.07 
  -1  -7   9  242.48   15.44 
   1   7  -9  218.21   15.05 
  -1   7   9  219.87   14.22 
   3  -7   9  211.11   13.57 
  -3  -7   9  217.57   15.60 
  -3   7   9  195.41   12.63 
  -3   7  -9  202.50   15.90 
   3   7   9  222.92   15.88 
   3   7  -9  214.85   14.20 
  -5  -7  -9  141.50   10.89 
  -5   7  -9  155.44   14.33 
   5  -7   9  149.28   10.85 
  -5  -7  -9  136.77    9.51 
   5   7   9  164.40   15.50 
  -5   7   9  147.55   10.65 
   5   7  -9  158.87   11.39 
  -7  -7  -9  144.27    9.75 
  -7  -7  -9  133.06   10.70 
   0   8   9  187.30   13.43 
   0  -8   9  175.36   12.99 
   2   8   9   32.27    6.63 
  -2   8   9   14.73    5.26 
  -2  -8   9   19.67    6.34 
  -2   8  -9    4.34    6.78 
   2  -8   9   17.25    5.10 
   2   8  -9   10.08    5.00 
   4   8   9  162.44   14.12 
  -4   8  -9  131.64   13.54 
   4  -8   9  142.97   10.98 
   4   8  -9  158.82   11.70 
  -1  -9   9   99.85    9.77 
   1   9   9  106.55   10.67 
   1  -9   9  113.87    9.44 
  -1   9   9   97.67    9.67 
   3   9  -9   91.18    9.32 
   3  -9   9   97.54    9.11 
   3   9   9  115.51   11.45 
  -3   9  -9  116.69   12.90 
   0 -10   9    0.56    5.13 
   0   0 -10  320.37   18.70 
   0   0  10  366.05   18.68 
   2   0  10 2604.61  122.52 
  -2   0  10 2718.84  123.36 
  -2   0 -10 2638.57  127.59 
   2   0  10 2817.61  128.68 
   2   0 -10 2665.01  127.21 
   4   0 -10  453.74   26.89 
  -4   0 -10  519.20   25.87 
   4   0  10  514.40   27.77 
  -4   0 -10  540.37   29.64 
   4   0  10  474.42   25.58 
  -4   0  10  470.30   26.93 
  -6   0 -10 1707.01   83.40 
   6   0  10 1760.12   84.27 
  -6   0 -10 1687.88   73.21 
  -6   0  10 1691.62   81.39 
   6   0 -10 1623.48   81.46 
  -8   0 -10  177.19   14.22 
  -8   0  10  205.21   15.24 
  -8   0 -10  173.58   12.43 
   8   0  10  167.75   15.99 
   1  -1  10  450.28   24.42 
   1  -1 -10  462.12   23.62 
   1  -1  10  479.67   23.52 
   1   1  10  450.58   22.82 
  -1   1  10  459.10   23.63 
   1   1 -10  428.80   23.88 
  -1  -1 -10  403.96   23.82 
  -1  -1  10  437.87   23.38 
   1   1  10  441.00   24.10 
  -1   1 -10  450.42   23.96 
   3   1 -10  517.96   27.45 
  -3  -1 -10  465.99   24.52 
  -3  -1 -10  509.43   28.32 
   3  -1  10  495.03   25.85 
   3   1  10  469.96   26.30 
   3  -1  10  477.80   26.80 
  -3  -1  10  487.82   25.42 
  -3   1 -10  473.49   26.72 
   3   1  10  455.74   24.65 
   3  -1 -10  477.96   26.35 
  -3   1  10  438.36   26.44 
  -5  -1  10  372.51   22.12 
  -5   1 -10  419.97   24.61 
  -5  -1 -10  385.83   20.58 
   5  -1  10  375.91   23.41 
  -5   1  10  394.98   22.87 
   5  -1 -10  391.50   21.68 
   5  -1  10  373.12   20.64 
  -5  -1 -10  424.22   23.65 
   5   1 -10  364.86   21.79 
   5   1  10  368.52   22.70 
  -5   1 -10  374.84   21.12 
  -7   1  10  212.88   15.19 
  -7   1 -10  201.35   15.59 
  -7  -1  10  210.23   15.37 
   7  -1  10  187.59   18.64 
  -7  -1 -10  197.17   12.90 
  -7   1 -10  183.60   13.38 
   7   1  10  223.10   16.03 
   7   1 -10  198.82   13.50 
  -7  -1 -10  213.12   14.95 
  -9   1  10  110.59   12.10 
  -9  -1  10  117.20   11.82 
  -9   1 -10  113.45   11.76 
  -9   1 -10  104.43   10.19 
   0   2  10 2534.34  125.50 
   0   2 -10 2694.78  124.05 
   0  -2  10 2786.45  120.04 
   0   2  10 2500.39  119.36 
   0  -2 -10 2584.46  123.50 
  -2   2 -10  906.14   47.74 
   2   2  10  913.78   48.54 
   2  -2 -10 1017.22   47.48 
   2  -2  10 1032.61   47.43 
   2   2 -10  983.81   49.01 
  -2  -2 -10  963.29   49.53 
  -2  -2  10  950.06   46.35 
  -2   2  10  982.59   47.80 
   2   2  10  861.08   45.06 
   2  -2  10 1007.20   49.83 
  -4  -2 -10 2120.57  103.61 
   4  -2  10 2094.80  105.15 
   4   2  10 2080.00  104.18 
  -4  -2 -10 2103.78   90.94 
  -4   2  10 2175.83  100.57 
   4   2 -10 2226.50  103.27 
   4  -2 -10 2374.68  103.22 
  -4  -2  10 1998.62   99.14 
   4  -2  10 2220.28   99.38 
  -4   2 -10 2066.56  103.29 
  -6   2  10  510.17   28.08 
  -6  -2 -10  508.71   25.32 
   6  -2  10  524.01   26.75 
   6   2 -10  497.20   27.85 
   6  -2  10  545.38   30.44 
   6   2  10  509.63   29.17 
  -6  -2 -10  537.29   28.94 
  -6  -2  10  522.82   28.03 
  -6   2 -10  491.73   30.27 
  -8  -2  10  911.40   46.13 
  -8  -2 -10  863.00   41.01 
   8  -2  10  912.28   49.67 
  -8  -2 -10  884.51   46.57 
   8   2  10  901.29   48.11 
  -8   2  10  920.35   46.31 
  -8   2 -10  963.63   49.18 
  -8   2 -10  938.34   43.13 
   8   2 -10  894.94   46.04 
  -1   3  10  422.70   24.72 
   1  -3 -10  479.80   24.35 
   1   3 -10  497.65   26.44 
  -1  -3  10  449.61   24.57 
   1  -3  10  445.88   25.18 
   1   3  10  457.71   26.22 
   1  -3  10  473.09   27.64 
  -1   3 -10  472.23   25.31 
   1   3  10  455.22   23.50 
  -1  -3 -10  479.47   25.76 
  -3   3  10  371.23   20.61 
  -3  -3  10  332.62   19.46 
   3   3  10  335.31   21.13 
   3  -3  10  385.29   24.01 
  -3   3 -10  346.77   20.39 
  -3  -3 -10  355.03   18.76 
   3  -3  10  345.44   20.03 
  -3  -3 -10  349.26   21.18 
   3   3 -10  362.63   21.42 
  -5  -3 -10  253.76   14.73 
   5   3  10  258.40   17.28 
  -5   3  10  260.08   16.52 
  -5   3 -10  285.86   17.44 
   5   3 -10  286.84   17.01 
  -5  -3  10  264.98   16.29 
  -5  -3 -10  249.87   16.58 
   5  -3  10  252.38   15.63 
   5  -3  10  246.62   20.44 
   7   3 -10  164.70   12.00 
  -7   3  10  156.65   12.23 
  -7  -3  10  165.53   12.55 
  -7  -3 -10  157.02   10.82 
  -7   3 -10  177.44   14.54 
   7   3  10  159.18   13.54 
   7  -3  10  157.32   17.54 
  -7  -3 -10  161.61   12.15 
   0   4  10  450.34   24.68 
   0  -4  10  496.27   26.54 
   0  -4 -10  488.16   25.40 
   0   4  10  460.43   26.97 
   2   4  10 2102.13  105.32 
  -2   4  10 2054.81   98.81 
  -2  -4  10 2029.88   98.71 
  -2   4 -10 2224.59  102.56 
  -2  -4 -10 2194.85  103.55 
   2   4 -10 2121.22  103.75 
  -2  -4 -10 2200.08   90.91 
  -4   4 -10  271.73   16.79 
  -4  -4 -10  258.05   16.78 
  -4  -4 -10  263.76   14.78 
   4  -4  10  270.86   16.16 
   4   4 -10  271.41   17.22 
  -4   4  10  276.47   16.51 
   4   4  10  292.77   18.91 
  -4  -4  10  265.76   16.47 
  -6   4  10  995.53   51.85 
   6   4  10 1065.07   55.46 
   6  -4  10 1077.99   51.80 
   6   4 -10 1089.07   53.95 
  -6  -4  10 1117.21   52.68 
  -6  -4 -10 1072.50   53.66 
  -6   4 -10 1159.70   54.60 
  -6  -4 -10 1013.38   47.10 
   8   4 -10  160.24   11.89 
  -8  -4 -10  148.46   10.38 
  -8  -4 -10  141.83   11.65 
  -1   5 -10  414.30   23.69 
  -1   5  10  372.61   22.40 
   1  -5  10  383.12   22.67 
  -1  -5  10  375.28   22.47 
   1   5 -10  402.87   24.30 
  -1   5  10  362.08   21.13 
  -1  -5 -10  397.94   22.92 
   1   5  10  370.94   23.25 
  -3   5 -10  245.99   18.59 
   3  -5  10  231.43   15.88 
  -3   5 -10  294.34   17.03 
  -3  -5 -10  262.36   16.63 
   3   5  10  276.53   19.46 
  -3  -5  10  266.24   16.70 
   3   5 -10  272.71   17.21 
  -3   5  10  262.37   15.72 
  -3  -5 -10  249.45   14.63 
  -5  -5 -10  174.19   12.26 
  -5   5 -10  193.37   13.18 
   5   5  10  190.29   14.86 
  -5  -5  10  181.83   12.91 
  -5  -5 -10  161.60   10.79 
  -5   5 -10  153.74   14.46 
   5   5 -10  193.23   12.95 
   5  -5  10  162.62   11.75 
  -5   5  10  163.42   11.84 
   7   5  10  131.73   12.11 
  -7   5  10  122.00   10.36 
   7   5 -10  135.04   10.79 
  -7   5 -10  131.92   13.02 
  -7  -5 -10  127.11   10.62 
  -7  -5 -10  122.15    9.25 
   7  -5  10  132.27   10.38 
   0  -6  10 1549.01   73.07 
   0   6  10 1478.05   74.93 
   2   6  10  509.55   28.45 
   2   6 -10  497.61   27.74 
   2  -6  10  500.02   26.53 
  -2   6 -10  450.61   27.55 
  -2   6 -10  480.07   28.83 
  -2  -6  10  454.32   27.10 
   4   6 -10 1018.28   51.35 
  -4  -6  10 1023.66   50.89 
  -4   6 -10 1029.39   54.11 
  -4   6  10  949.99   48.44 
  -4  -6 -10 1000.50   44.69 
   4  -6  10  926.14   49.02 
  -4  -6 -10  983.27   50.73 
   4   6  10 1209.07   55.39 
  -6  -6 -10  230.61   15.19 
  -6  -6 -10  230.82   13.43 
   6   6  10  270.36   18.07 
  -6   6 -10  224.28   18.12 
   6  -6  10  243.50   15.12 
   6   6 -10  225.41   15.38 
  -6   6  10  226.88   14.60 
  -1   7 -10  181.76   15.44 
  -1  -7  10  187.42   14.57 
   1   7  10  210.69   14.74 
  -1   7  10  180.10   13.39 
   1  -7  10  181.71   13.65 
   1   7 -10  220.33   15.26 
   3   7  10  190.19   14.77 
   3  -7  10  148.49   11.59 
  -3  -7  10  150.04   13.36 
  -3   7 -10  144.15   14.14 
   3   7 -10  164.58   12.70 
  -5   7  10   99.99    8.90 
   5   7 -10  118.72   10.26 
   5   7  10  140.97   13.68 
   5  -7  10  116.12    9.53 
  -5   7 -10  107.62   13.25 
   0   8  10  174.07   13.34 
   0  -8  10  199.97   14.14 
   0   8 -10  175.52   14.08 
  -2  -8  10  904.16   44.61 
   2  -8  10  796.69   42.74 
   2   8  10  859.13   45.46 
   4   8 -10  149.59   12.07 
   4  -8  10  139.20   11.19 
   4   8  10  159.07   14.89 
  -4   8 -10  123.51   13.85 
  -1  -9  10  101.46   10.25 
   1   9  10   97.88    9.82 
  -1   9  10   97.44   10.05 
   1  -9  10   95.72    9.45 
  -3   9 -10   85.04   12.22 
   3   9 -10   97.73   10.42 
   0   0  11  112.04    8.20 
   0   0 -11  100.40    8.02 
   2   0  11  203.87   12.32 
  -2   0 -11  175.16   12.66 
  -2   0  11  196.00   12.65 
   2   0 -11  199.26   12.48 
   2   0  11  179.47   13.24 
  -4   0  11   99.43    9.12 
  -4   0 -11  117.03   11.28 
   4   0  11   85.73    9.83 
   4   0 -11   99.75   10.40 
  -6   0 -11  130.60   12.48 
  -6   0 -11  120.15   10.75 
  -6   0  11  134.18   11.85 
   6   0 -11  122.81   10.66 
   6   0  11  128.09   12.44 
  -8   0 -11   32.18    7.60 
  -8   0 -11   30.89    6.87 
  -8   0  11   41.13    8.84 
   8   0  11    0.75    9.53 
  -1  -1  11  659.06   30.94 
   1   1  11  632.78   30.47 
   1  -1 -11  608.22   31.16 
   1   1  11  607.89   31.78 
   1   1 -11  580.72   31.43 
  -1   1 -11  587.79   31.48 
  -1  -1 -11  566.15   31.52 
  -1   1  11  652.19   31.00 
   1  -1  11  626.84   30.78 
  -3  -1 -11  783.65   42.19 
   3  -1  11  829.86   39.67 
  -3  -1  11  845.39   39.54 
  -3   1 -11  749.03   40.84 
   3  -1 -11  828.34   40.86 
  -3   1  11  799.93   40.49 
   3  -1  11  791.92   41.22 
   3   1  11  778.56   41.13 
   3   1 -11  768.97   41.25 
  -5  -1 -11  603.47   28.92 
  -5   1 -11  589.53   32.74 
  -5  -1 -11  583.61   32.82 
  -5   1  11  592.79   31.89 
   5  -1  11  599.63   32.37 
  -5  -1  11  516.61   29.86 
   5  -1 -11  543.13   30.70 
   5   1  11  574.78   31.21 
   5   1 -11  569.47   31.19 
  -7  -1 -11  413.46   25.24 
   7  -1  11  469.34   27.65 
  -7  -1 -11  405.22   22.22 
   7   1 -11  434.25   24.38 
  -7   1  11  424.48   25.42 
  -7  -1  11  410.35   24.61 
  -7   1 -11  422.40   26.51 
   7   1  11  431.23   25.82 
  -7   1 -11  433.39   23.43 
   0  -2  11  185.48   11.98 
   0   2  11  187.58   11.55 
   0   2 -11  181.65   11.90 
   0  -2 -11  162.33   11.37 
  -2  -2  11   79.08    7.52 
   2   2  11   80.57    8.06 
  -2   2  11   77.77    8.24 
  -2  -2 -11   69.30    8.50 
  -2   2 -11   72.60    7.57 
   2  -2  11   74.54    7.78 
   2  -2 -11   83.75    7.54 
   2   2 -11   80.98    8.30 
   2  -2  11  104.50   10.02 
  -4  -2  11  124.27   10.03 
   4   2 -11  147.84   11.83 
   4  -2  11  132.08   13.21 
  -4  -2 -11  148.38   12.43 
   4  -2  11  136.39   10.88 
  -4  -2 -11  135.31   10.92 
   4   2  11  133.51   11.25 
  -4   2  11  125.60   11.62 
  -4   2 -11  135.38   11.15 
  -6  -2  11   49.04    7.47 
  -6   2  11   41.23    8.00 
  -6   2 -11   50.79    8.80 
  -6  -2 -11   43.61    7.77 
   6   2  11   21.83    7.16 
   6   2 -11   35.75    6.61 
  -6  -2 -11   40.14    6.87 
  -8  -2  11   92.58    9.70 
   8   2 -11   77.13    8.67 
  -8   2 -11  100.83   12.52 
   1   3 -11  848.59   41.63 
   1  -3 -11  779.64   39.91 
  -1   3 -11  779.22   40.61 
   1   3  11  793.43   41.75 
  -1  -3 -11  793.09   40.88 
   1  -3  11  834.83   40.14 
  -1   3  11  760.34   39.43 
  -1  -3  11  824.86   39.79 
  -3  -3 -11  689.09   37.53 
  -3  -3  11  682.84   34.47 
   3  -3  11  687.52   37.55 
  -3   3 -11  663.46   35.63 
   3  -3  11  695.65   35.69 
   3   3  11  675.17   36.54 
  -3  -3 -11  701.88   33.11 
  -3   3  11  696.54   35.95 
   3   3 -11  701.72   37.63 
   5   3  11  412.68   24.73 
  -5   3  11  427.21   24.43 
  -5  -3  11  442.97   23.49 
  -5  -3 -11  402.28   21.54 
   5   3 -11  431.17   24.87 
  -5   3 -11  448.85   24.37 
  -5  -3 -11  396.04   24.32 
   5  -3  11  431.38   26.50 
   5  -3  11  425.99   23.35 
  -7   3 -11  390.88   23.24 
  -7  -3 -11  353.28   22.28 
   7   3  11  367.57   23.03 
   7   3 -11  364.24   21.99 
   7  -3  11  396.92   25.28 
  -7   3  11  347.87   21.77 
  -7  -3 -11  369.08   19.80 
  -7  -3  11  378.77   21.64 
   0   4 -11   99.28    9.71 
   0   4  11  106.46   11.22 
   0  -4  11  101.07    9.49 
   0  -4 -11   99.35    8.54 
   2   4 -11  136.98   12.56 
   2  -4  11  140.12   11.97 
   2   4  11  144.89   12.40 
  -2  -4  11  131.59   10.47 
  -2  -4 -11  151.60   12.54 
  -2   4  11  131.82   11.13 
  -2   4 -11  149.73   11.01 
  -4  -4 -11   49.40    7.69 
   4  -4  11   55.76    7.59 
  -4   4  11   72.55    8.46 
  -4  -4 -11   62.71    7.28 
   4   4 -11   57.28    8.28 
  -4   4 -11   66.10    7.69 
   4   4  11   68.77    8.53 
  -4  -4  11   66.64    7.59 
  -6   4 -11  109.99   10.19 
   6   4 -11   99.91    9.85 
   6   4  11  110.01   10.70 
  -6  -4 -11  102.53    9.80 
   6  -4  11  105.73    9.17 
  -6  -4  11  104.74    9.24 
  -6  -4 -11   90.54    8.33 
  -6   4  11  100.84    9.76 
   1   5  11  589.60   34.69 
   1  -5  11  613.48   32.85 
  -1   5 -11  675.55   33.59 
  -1  -5  11  532.12   31.34 
   1   5 -11  609.68   34.21 
  -3   5 -11  465.63   26.13 
  -3  -5  11  436.13   23.62 
  -3  -5 -11  417.77   21.89 
   3   5 -11  430.81   25.39 
   3   5  11  460.25   26.46 
  -3   5  11  404.84   23.40 
  -3   5 -11  416.36   23.97 
  -3  -5 -11  397.59   24.52 
   3  -5  11  392.71   23.68 
  -5  -5  11  278.66   16.45 
   5   5 -11  256.33   17.19 
   5  -5  11  271.44   16.44 
   5   5  11  281.68   18.19 
  -5   5  11  248.53   16.24 
  -5  -5 -11  237.70   14.48 
  -5   5 -11  285.51   16.90 
  -5  -5 -11  241.03   16.47 
  -5   5 -11  241.57   17.71 
  -7  -5  11  248.07   16.44 
   7  -5  11  253.39   16.18 
   0   6  11  110.32   11.12 
   0   6 -11  128.82   12.88 
   0  -6  11  113.39   11.29 
   2  -6  11   30.85    6.81 
  -2  -6  11   45.01    7.81 
  -2   6 -11   36.16    7.46 
   2   6 -11   38.31    8.30 
   2   6  11   32.80    8.53 
   4  -6  11   91.19    9.16 
  -4   6  11   95.14    9.13 
  -4  -6 -11   89.84    8.27 
  -4   6 -11   97.95   11.88 
   4   6  11  112.13   11.95 
  -4  -6  11  122.77   10.55 
  -4  -6 -11   92.03    9.33 
   4   6 -11  117.99   10.85 
  -6   6  11    7.17    4.82 
  -6  -6 -11    9.94    5.36 
  -6  -6 -11    9.34    4.72 
  -6  -6  11   19.78    6.06 
   1   7 -11  455.43   26.43 
  -1  -7  11  428.99   25.46 
   1   7  11  396.69   24.89 
   1  -7  11  424.13   24.56 
  -1   7 -11  381.05   25.65 
   3  -7  11  343.74   20.66 
  -3   7 -11  339.56   23.16 
   3   7  11  363.56   23.74 
  -3  -7  11  341.54   21.50 
  -5   7  11  241.20   15.25 
   0   8  11   27.24    6.52 
   0  -8  11   10.48    6.06 
   0   8 -11   24.16    7.24 
   2  -8  11   82.42    8.81 
  -2  -8  11   90.12   11.53 
   2   8 -11   87.59   10.33 
   2   8  11   80.21   10.49 
   0   0 -12  428.60   22.81 
   0   0  12  418.15   22.18 
   2   0 -12   16.23    4.41 
   2   0  12   20.30    4.53 
  -2   0  12   22.99    4.84 
  -2   0 -12   18.55    4.91 
   2   0  12   20.48    5.41 
  -4   0  12  460.80   25.66 
   4   0  12  476.52   26.65 
   4   0 -12  476.37   26.81 
  -4   0 -12  490.39   27.51 
  -6   0  12   27.81    6.74 
   6   0 -12   23.28    6.33 
   6   0  12   31.09    7.22 
  -6   0 -12   31.66    8.47 
  -1  -1 -12  548.72   27.79 
   1   1 -12  516.18   27.34 
   1  -1 -12  521.27   27.12 
  -1  -1  12  461.79   26.41 
  -1   1 -12  529.02   27.41 
  -1   1  12  528.83   26.91 
   1  -1  12  520.79   26.71 
   1   1  12  546.68   26.47 
  -3   1  12  397.82   22.25 
  -3  -1 -12  396.98   23.12 
   3  -1  12  384.74   21.48 
   3   1  12  375.08   22.16 
   3  -1  12  352.15   22.65 
   3  -1 -12  424.79   22.43 
  -3   1 -12  416.13   22.59 
   3   1 -12  396.68   22.61 
  -3  -1  12  397.06   21.58 
  -5   1  12  249.97   17.06 
  -5  -1  12  240.21   15.85 
   5   1  12  251.39   16.98 
  -5  -1 -12  284.20   19.32 
   5   1 -12  270.49   17.45 
   5  -1  12  219.41   17.94 
  -5   1 -12  264.80   17.41 
  -5  -1 -12  253.53   16.51 
   7   1 -12  225.12   15.37 
  -7  -1 -12  205.43   14.33 
  -7   1  12  219.00   16.48 
  -7  -1 -12  224.37   16.73 
  -7   1 -12  209.35   17.02 
   7   1  12  195.67   15.98 
   7  -1  12  223.57   17.34 
  -7  -1  12  229.43   15.26 
   0  -2  12   22.46    4.74 
   0   2  12   20.32    4.36 
   0   2 -12   21.00    4.55 
   0  -2 -12   21.69    4.45 
   2   2  12  721.48   38.85 
  -2  -2  12  731.46   37.28 
   2  -2  12  731.75   37.48 
  -2   2  12  759.95   37.88 
   2  -2 -12  794.41   38.24 
  -2  -2 -12  747.14   39.19 
  -2   2 -12  764.60   38.49 
   2   2 -12  790.34   39.08 
   4   2  12   14.99    5.91 
  -4   2  12   40.43    7.52 
  -4  -2  12   24.49    5.30 
  -4   2 -12   32.59    6.15 
   4  -2  12   20.71    5.85 
  -4  -2 -12   33.57    7.74 
   4   2 -12   25.09    6.46 
   6   2 -12  434.18   26.96 
  -6  -2 -12  471.00   24.83 
  -6  -2 -12  475.85   28.33 
  -6   2 -12  475.43   27.52 
  -6   2  12  471.17   27.51 
   6  -2  12  505.61   27.65 
  -6  -2  12  492.55   26.05 
   6   2  12  494.58   26.93 
   1   3 -12  441.97   23.55 
   1  -3 -12  419.01   22.13 
   1   3  12  383.10   22.99 
   1  -3  12  384.94   22.17 
  -1  -3 -12  408.85   22.82 
  -1  -3  12  393.54   22.20 
  -1   3 -12  449.84   22.90 
  -1   3  12  382.96   21.94 
  -3  -3 -12  352.90   22.21 
  -3   3 -12  375.49   20.72 
  -3   3  12  347.10   21.32 
   3   3 -12  377.21   22.09 
   3   3  12  363.84   21.19 
  -3  -3  12  363.51   19.99 
   3  -3  12  333.97   21.81 
   3  -3  12  341.82   20.48 
   5  -3  12  265.67   17.11 
   5   3 -12  277.99   18.34 
  -5   3  12  291.82   18.43 
  -5   3 -12  278.57   17.21 
  -5  -3  12  253.96   16.17 
   5   3  12  267.01   17.64 
  -5  -3 -12  255.42   15.98 
  -5  -3 -12  274.11   18.29 
   5  -3  12  266.59   19.07 
  -7   3 -12  219.19   16.22 
  -7  -3  12  230.02   15.06 
   0  -4  12  514.51   27.62 
   0   4 -12  518.10   28.50 
  -2   4 -12   38.08    6.19 
  -2  -4  12   34.29    5.87 
   2  -4  12   15.47    5.37 
   2   4 -12   31.08    7.07 
  -2  -4 -12   26.98    6.36 
   2   4  12   27.15    6.39 
  -2   4  12   24.00    6.09 
  -4  -4 -12  292.31   20.34 
  -4   4  12  327.45   20.13 
   4   4 -12  329.77   21.19 
  -4  -4 -12  315.16   18.28 
  -4   4 -12  340.07   19.31 
  -4  -4  12  329.79   18.74 
   4   4  12  327.01   20.56 
   4  -4  12  335.19   20.01 
   6  -4  12   11.50    5.31 
  -6  -4 -12   18.01    5.37 
  -6   4 -12   19.98    6.13 
  -6   4  12   14.44    6.52 
  -6  -4  12   21.30    5.87 
  -6  -4 -12   26.20    6.27 
   6   4 -12   14.51    6.09 
   6   4  12   12.70    6.25 
   1   5  12  262.49   19.06 
   1  -5  12  246.30   17.29 
  -1  -5  12  275.16   17.13 
  -1   5 -12  296.73   18.17 
   1   5 -12  285.38   18.70 
  -3   5  12  265.00   17.56 
   3  -5  12  286.78   18.36 
   3   5 -12  279.06   19.74 
   3   5  12  269.64   19.04 
  -3   5 -12  302.71   17.65 
  -3  -5  12  281.51   17.11 
  -3  -5 -12  271.32   18.67 
  -5   5 -12  234.95   14.55 
  -5  -5  12  194.30   13.60 
  -5  -5 -12  186.95   14.37 
  -5   5 -12  220.90   15.19 
   5   5  12  229.21   15.99 
  -5  -5 -12  182.99   12.70 
  -5   5  12  197.02   14.47 
   5   5 -12  210.79   15.51 
   5  -5  12  201.71   14.35 
   0  -6  12   30.48    7.01 
   0   6 -12   26.74    8.16 
  -2   6 -12  534.81   27.94 
   2   6 -12  467.16   29.06 
   2   6  12  501.88   29.58 
  -2  -6  12  437.85   26.20 
   2  -6  12  459.69   27.41 
   4  -6  12   10.48    5.45 
  -4   6 -12   21.40    5.95 
  -4   6  12   17.25    5.87 
   4   6 -12    9.86    6.28 
  -4   6 -12   20.26    7.79 
  -4  -6  12   14.74    5.84 
   4   6  12   18.75    6.72 
   1   7 -12  227.54   17.55 
   1   7  12  189.98   16.23 
   1  -7  12  212.65   15.86 
  -1   7 -12  209.93   16.18 
  -1  -7  12  186.38   14.97 
   3   7  12  211.25   17.14 
  -3  -7  12  208.99   15.11 
   0   8 -12  257.29   19.28 
   0   0 -13  458.85   23.45 
   0   0  13  411.26   22.66 
  -2   0 -13    6.79    4.13 
  -2   0  13    4.21    3.94 
   2   0 -13    7.58    3.96 
   2   0  13    2.32    3.30 
  -4   0  13  211.34   14.50 
   4   0 -13  235.24   15.43 
   4   0  13  225.97   15.31 
  -4   0 -13  230.13   15.67 
   6   0  13   -8.83    5.81 
  -6   0 -13    8.47    6.18 
  -6   0  13   -4.54    4.40 
   1   1  13  875.39   42.94 
  -1   1  13  943.44   43.65 
  -1  -1 -13  906.29   44.97 
   1   1 -13  877.51   44.66 
  -1   1 -13  900.78   44.89 
   1  -1 -13  891.33   44.53 
   1  -1  13  876.65   43.45 
  -1  -1  13  911.54   43.49 
   3  -1 -13  886.42   41.03 
   3  -1  13  826.31   39.40 
  -3   1 -13  795.04   40.98 
  -3  -1  13  764.56   39.36 
   3   1  13  799.07   41.27 
  -3  -1 -13  792.58   41.31 
   3  -1  13  722.20   41.17 
  -3   1  13  784.05   39.94 
   3   1 -13  818.80   41.01 
   5   1 -13  552.28   30.40 
  -5   1  13  549.85   29.40 
  -5   1 -13  550.80   30.31 
  -5  -1  13  501.20   28.32 
  -5  -1 -13  584.60   31.72 
   5   1  13  538.91   30.00 
   5  -1  13  539.83   30.81 
   0  -2  13    5.16    3.68 
   0  -2 -13    7.36    3.71 
   0   2  13    8.22    3.66 
   0   2 -13    4.37    3.93 
  -2   2 -13  469.51   25.25 
  -2   2  13  486.24   25.12 
   2  -2  13  428.96   24.47 
   2   2 -13  463.34   25.58 
   2  -2 -13  495.31   25.08 
  -2  -2  13  444.31   24.55 
  -2  -2 -13  473.09   25.85 
   4   2  13  -11.17    4.53 
  -4   2 -13    2.57    4.50 
   4   2 -13   -4.96    3.62 
   4  -2  13   -2.69    3.69 
   4  -2  13   20.87    5.51 
  -4   2  13    3.27    5.12 
  -4  -2  13   -4.10    3.56 
  -4  -2 -13   -8.22    4.68 
   6   2  13  242.32   17.71 
   6   2 -13  268.97   18.52 
  -6   2 -13  292.11   18.06 
   6  -2  13  285.52   18.71 
  -1  -3 -13  864.42   43.06 
   1   3 -13  865.61   43.29 
  -1   3 -13  880.00   42.97 
   1  -3 -13  898.42   42.62 
  -1   3  13  817.34   41.38 
   1  -3  13  821.42   41.72 
  -1  -3  13  794.98   41.42 
  -3   3 -13  681.92   35.84 
   3  -3  13  678.60   35.09 
   3   3  13  657.80   36.45 
   3   3 -13  774.03   37.23 
  -3   3  13  696.78   35.83 
  -3  -3 -13  704.90   36.97 
  -3  -3  13  663.22   34.48 
   5  -3  13  530.38   28.05 
   5   3 -13  535.52   29.74 
   5   3  13  497.05   28.66 
  -5   3  13  524.22   29.26 
  -5  -3 -13  479.59   25.95 
  -5  -3 -13  508.86   29.95 
  -5   3 -13  503.45   27.81 
   5  -3  13  493.53   29.06 
  -5  -3  13  509.11   26.90 
   0  -4  13  211.18   14.56 
   0   4 -13  246.31   15.53 
  -2   4  13    4.29    4.60 
  -2   4 -13    1.39    4.29 
   2   4 -13   -0.59    4.89 
   2   4  13   -1.94    4.75 
  -2  -4  13    3.60    3.99 
   2  -4  13    1.69    4.25 
  -2  -4 -13    2.76    4.96 
  -4  -4  13  232.48   14.41 
   4   4 -13  232.48   16.58 
  -4  -4 -13  225.30   16.45 
  -4   4 -13  235.20   14.97 
   4  -4  13  214.15   15.18 
  -4   4  13  218.58   15.85 
   4   4  13  244.41   16.14 
   1  -5  13  538.61   30.75 
  -1  -5  13  564.53   30.53 
   1   5 -13  633.75   32.89 
  -1   5 -13  618.80   32.37 
  -3  -5 -13  497.92   28.24 
  -3  -5  13  489.70   26.82 
   3  -5  13  495.36   27.53 
   3   5 -13  483.42   28.97 
   3   5  13  530.76   29.13 
  -3   5  13  488.02   27.78 
  -3   5 -13  536.20   27.69 
   0   6 -13    9.26    6.42 
   0  -6  13   -3.36    5.03 
   2   6  13  259.50   19.79 
  -2   6 -13  343.88   19.32 
   2   6 -13  271.89   19.73 
   0   0 -14   21.76    4.70 
   0   0  14   21.62    4.71 
   2   0  14  392.73   20.96 
  -2   0  14  372.73   21.04 
  -2   0 -14  388.19   21.88 
   2   0 -14  402.18   21.82 
  -4   0 -14    3.94    4.58 
  -4   0  14   -0.63    4.11 
   4   0 -14    1.47    4.41 
   4   0  14    0.76    5.12 
  -1   1 -14   30.65    5.40 
  -1  -1 -14   28.94    5.35 
   1  -1  14   25.77    5.10 
   1   1 -14   29.27    5.13 
  -1   1  14   24.96    4.99 
   1   1  14   24.21    4.80 
  -1  -1  14   22.13    4.70 
   1  -1 -14   31.67    5.23 
  -3  -1  14   23.73    5.23 
  -3  -1 -14   29.03    6.20 
  -3   1  14   22.63    5.44 
   3  -1 -14   26.88    5.58 
   3   1 -14   26.48    5.49 
  -3   1 -14   32.72    6.08 
   5   1  14   -0.06    5.89 
   5   1 -14   14.17    5.56 
   5  -1  14    2.72    6.48 
   0  -2  14  389.50   21.68 
   0  -2 -14  379.90   21.94 
   0   2  14  416.43   21.46 
   0   2 -14  418.66   22.24 
   2  -2 -14   21.05    4.90 
   2  -2  14   19.23    4.96 
  -2  -2 -14   20.84    5.38 
   2   2 -14   22.24    5.30 
  -2   2 -14   24.77    5.26 
  -2  -2  14   18.00    4.79 
  -2   2  14   20.38    5.15 
  -4   2  14  296.94   17.68 
  -4  -2  14  258.51   16.22 
   4   2 -14  252.32   17.10 
  -4   2 -14  284.74   17.30 
   4   2  14  288.57   17.69 
  -4  -2 -14  274.42   17.78 
  -1   3 -14   28.73    5.88 
  -1  -3 -14   32.55    5.84 
   1   3 -14   29.11    6.01 
  -1  -3  14   28.59    5.78 
   1  -3  14   26.49    5.52 
   3   3  14   31.00    6.71 
   3  -3  14   22.69    5.53 
   3   3 -14   41.49    6.84 
  -3   3 -14   35.84    6.22 
  -3  -3 -14   36.05    6.73 
  -3   3  14   39.29    6.76 
  -3  -3  14   32.32    5.57 
   0  -4  14    0.09    3.88 
   0   4 -14    5.47    4.87 
   2   4 -14  294.66   18.38 
   2  -4  14  284.64   17.33 
  -2   4 -14  332.21   18.13 
  -2  -4 -14  292.69   17.86 
  -2  -4  14  252.21   16.69 
   0   0 -15   86.70    7.95 
   0   0  15   74.38    7.52 
   2   0 -15  660.16   33.47 
  -2   0 -15  665.33   33.72 
  -2   0  15  606.71   32.35 
   1   1 -15  425.20   23.16 
   1  -1  15  391.22   22.26 
  -1   1  15  405.05   22.31 
  -1  -1  15  397.50   22.24 
  -1   1 -15  448.06   23.33 
   1  -1 -15  444.80   23.25 
  -1  -1 -15  430.97   23.31 
   3  -1 -15  330.94   19.47 
   0   2 -15  657.61   33.18 
   0  -2 -15  672.65   33.27 
   0  -2  15  590.27   32.04 
  -2  -2 -15  181.16   12.44 
   2  -2  15  155.87   11.69 
  -2   2  15  175.05   12.17 
  -1  -3 -15  332.14   19.28 
   0   0   0    0.00    0.00 
;
_shelx_hkl_checksum              79053
loop_
_space_group_symop_operation_xyz
'x, y, z'
'-x, -y+1/2, z'
'-x, y+1/2, -z'
'x, -y, -z'
'x+1/2, y+1/2, z'
'-x+1/2, -y+1, z'
'-x+1/2, y+1, -z'
'x+1/2, -y+1/2, -z'
'-x, -y, -z'
'x, y-1/2, -z'
'x, -y-1/2, z'
'-x, y, z'
'-x+1/2, -y+1/2, -z'
'x+1/2, y, -z'
'x+1/2, -y, z'
'-x+1/2, y+1/2, z'
loop_
_atom_site_label
_atom_site_type_symbol
_atom_site_fract_x
_atom_site_fract_y
_atom_site_fract_z
_atom_site_U_iso_or_equiv
_atom_site_adp_type
_atom_site_occupancy
_atom_site_site_symmetry_order
_atom_site_calc_flag
_atom_site_refinement_flags_posn
_atom_site_refinement_flags_adp
_atom_site_refinement_flags_occupancy
Ta1 Ta 0.0000 0.7500 0.24367(2) 0.01309(13) Uani 1 4 d S T P
Rb1 Rb 0.2500 0.5000 0.0000 0.01505(16) Uani 1 4 d S T P
Rb2 Rb 0.0000 0.7500 0.63582(7) 0.02155(18) Uani 1 4 d S T P
F1 F 0.0000 0.7500 0.0548(4) 0.0181(9) Uani 1 4 d S T P
F2 F 0.0000 0.5222(5) 0.2033(4) 0.0283(8) Uani 1 2 d S T P
F3 F 0.1029(8) 0.6509(9) 0.3895(4) 0.0378(15) Uani 0.5 1 d . U P
F4 F 0.2286(5) 0.7500 0.2014(4) 0.0277(8) Uani 1 2 d S T P
loop_
_atom_site_aniso_label
_atom_site_aniso_U_11
_atom_site_aniso_U_22
_atom_site_aniso_U_33
_atom_site_aniso_U_23
_atom_site_aniso_U_13
_atom_site_aniso_U_12
Ta1 0.01576(18) 0.01582(18) 0.00769(16) 0.000 0.000 0.000
Rb1 0.0161(3) 0.0167(3) 0.0123(3) 0.000 0.000 0.000
Rb2 0.0272(4) 0.0289(4) 0.0086(3) 0.000 0.000 0.000
F1 0.023(2) 0.024(2) 0.0076(18) 0.000 0.000 0.000
F2 0.036(2) 0.0187(17) 0.030(2) 0.0026(15) 0.000 0.000
F3 0.050(3) 0.055(4) 0.008(2) 0.006(2) -0.005(2) 0.029(3)
F4 0.0167(16) 0.040(2) 0.0269(19) 0.000 -0.0018(14) 0.000
loop_
_atom_type_symbol
_atom_type_description
_atom_type_scat_dispersion_real
_atom_type_scat_dispersion_imag
_atom_type_scat_source
F F 0.0171 0.0103 'International Tables Vol C Tables 4.2.6.8 and 6.1.1.4'
Rb Rb -0.9393 2.9676 'International Tables Vol C Tables 4.2.6.8 and 6.1.1.4'
Ta Ta -0.7052 6.5227 'International Tables Vol C Tables 4.2.6.8 and 6.1.1.4'
loop_
_geom_angle_atom_site_label_1
_geom_angle_atom_site_label_2
_geom_angle_atom_site_label_3
_geom_angle
_geom_angle_site_symmetry_1
_geom_angle_site_symmetry_3
F2 Ta1 F4 87.08(4) . 2_565
F2 Ta1 F4 87.08(4) 2_565 2_565
F2 Ta1 F4 87.08(4) . .
F2 Ta1 F4 87.08(4) 2_565 .
F4 Ta1 F4 153.3(2) 2_565 .
F2 Ta1 F3 76.3(2) . .
F4 Ta1 F3 76.0(2) . .
F2 Ta1 F3 76.3(2) 2_565 11_575
F4 Ta1 F3 76.0(2) . 11_575
F2 Ta1 F3 76.3(2) 2_565 2_565
F4 Ta1 F3 76.0(2) 2_565 2_565
F4 Ta1 F3 76.0(2) 2_565 12
F3 Ta1 F3 74.8(4) 11_575 12
F2 Ta1 F1 77.25(12) . .
F2 Ta1 F1 77.25(12) 2_565 .
F4 Ta1 F1 76.67(11) 2_565 .
F4 Ta1 F1 76.67(11) . .
F3 Ta1 Rb1 93.99(18) 12 9_565
F1 Ta1 Rb1 48.586(4) . 9_565
loop_
_geom_bond_atom_site_label_1
_geom_bond_atom_site_label_2
_geom_bond_distance
_geom_bond_site_symmetry_2
Ta1 F2 1.933(4) .
Ta1 F2 1.933(4) 2_565
Ta1 F4 1.936(4) 2_565
Ta1 F4 1.936(4) .
Ta1 F3 1.941(5) .
Ta1 F3 1.941(5) 11_575
Ta1 F3 1.941(5) 2_565
Ta1 F3 1.941(5) 12
Ta1 F1 1.997(4) .
Ta1 Rb1 3.8933(2) 9_565
Rb1 F4 2.974(3) .
Rb1 F4 2.974(3) 10
Rb1 F4 2.974(3) 6
Rb1 F4 2.974(3) 13_565
Rb1 F1 2.9766(9) 9_565
Rb1 F1 2.9766(9) .
Rb1 F1 2.9766(9) 13_565
Rb1 F1 2.9766(9) 5_545
Rb1 F2 2.983(3) .
Rb1 F2 2.983(3) 9_565
Rb2 F4 2.822(4) 13_566
Rb2 F4 2.822(4) 14_456
Rb2 F2 2.822(4) 10_566
Rb2 F2 2.822(4) 9_566
Rb2 F3 2.858(5) 12
Rb2 F3 2.858(5) 2_565
Rb2 F3 2.858(5) 11_575
Rb2 F3 2.858(5) .
Rb2 F3 3.385(7) 14_456
Rb2 F3 3.385(7) 13_566
F1 F4 2.440(5) .
F1 F4 2.440(5) 2_565
F1 F2 2.453(5) .
F1 F2 2.453(5) 2_565
F1 Rb1 2.9766(9) 9_565
F1 Rb1 2.9766(9) 13_565
F1 Rb1 2.9766(9) 5_455
F1 F4 3.512(5) 14_455
F2 F3 2.393(7) .
F2 F3 2.393(7) 12
F2 F4 2.665(4) .
F2 F4 2.665(4) 2_565
F2 Rb2 2.822(4) 9_566
F2 Rb1 2.983(3) 9_565
F2 F4 3.174(4) 5_445
F3 F3 1.640(15) 11_575
F3 F3 1.696(14) 12
F3 F3 2.359(12) 2_565
F3 F4 2.387(7) .
F3 F3 3.367(11) 7_546
F3 Rb2 3.385(7) 13_566
F3 F3 3.420(12) 4_566
F4 F3 2.387(7) 11_575
F4 F2 2.665(4) 2_565
F4 Rb2 2.822(4) 13_566
F4 Rb1 2.974(3) 13_565
F4 F2 3.174(4) 5

_cod_database_fobs_code 2108547
