#------------------------------------------------------------------------------
#$Date: 2018-12-07 05:35:19 +0200 (Fri, 07 Dec 2018) $
#$Revision: 212434 $
#$URL: file:///home/coder/svn-repositories/cod/cif/2/10/83/2108334.cif $
#------------------------------------------------------------------------------
#
# This file is available in the Crystallography Open Database (COD),
# http://www.crystallography.net/. The original data for this entry
# were provided by IUCr Journals, http://journals.iucr.org/.
#
# The file may be used within the scientific community so long as
# proper attribution is given to the journal article from which the
# data were obtained.
#
data_2108334
loop_
_publ_author_name
'Danisi, Rosa Micaela'
'Armbruster, Thomas'
_publ_section_title
;
 Dehydration of microporous vanadosilicates: the case of VSH-13Na
;
_journal_coeditor_code           LO5030SUP1
_journal_issue                   6
_journal_name_full               'Acta Crystallographica Section B'
_journal_page_first              483
_journal_page_last               491
_journal_paper_doi               10.1107/S2052520618011423
_journal_volume                  74
_journal_year                    2018
_chemical_formula_sum            'H0 Na2 O11 Si4 V'
_chemical_formula_weight         385.28
_space_group_crystal_system      monoclinic
_space_group_IT_number           4
_space_group_name_Hall           'P 2yb'
_space_group_name_H-M_alt        'P 1 21 1'
_symmetry_space_group_name_Hall  'P 2yb'
_symmetry_space_group_name_H-M   'P 1 21 1'
_audit_creation_method           SHELXL-2018/3
_cell_angle_alpha                90
_cell_angle_beta                 90.10(4)
_cell_angle_gamma                90
_cell_formula_units_Z            4
_cell_length_a                   12.584(16)
_cell_length_b                   9.525(13)
_cell_length_c                   9.696(14)
_cell_measurement_reflns_used    1536
_cell_measurement_temperature    398(2)
_cell_measurement_theta_max      21.03
_cell_measurement_theta_min      1.6
_cell_volume                     1162(3)
_computing_structure_refinement  'SHELXL-2018/3 (Sheldrick, 2018)'
_diffrn_ambient_temperature      398(2)
_diffrn_measured_fraction_theta_full 0.589
_diffrn_measured_fraction_theta_max 0.589
_diffrn_measurement_device_type  'Bruker D8 Venture'
_diffrn_radiation_type           MoK\a
_diffrn_radiation_wavelength     0.71073
_diffrn_reflns_av_R_equivalents  0.0822
_diffrn_reflns_av_unetI/netI     0.1568
_diffrn_reflns_Laue_measured_fraction_full 0.589
_diffrn_reflns_Laue_measured_fraction_max 0.589
_diffrn_reflns_limit_h_max       11
_diffrn_reflns_limit_h_min       -7
_diffrn_reflns_limit_k_max       5
_diffrn_reflns_limit_k_min       -9
_diffrn_reflns_limit_l_max       9
_diffrn_reflns_limit_l_min       -9
_diffrn_reflns_number            1536
_diffrn_reflns_point_group_measured_fraction_full 0.432
_diffrn_reflns_point_group_measured_fraction_max 0.431
_diffrn_reflns_theta_full        21.031
_diffrn_reflns_theta_max         21.031
_diffrn_reflns_theta_min         2.654
_exptl_absorpt_coefficient_mu    1.387
_exptl_absorpt_correction_type   multi-scan
_exptl_absorpt_process_details   '(SADABS; Bruker, 2003)'
_exptl_crystal_colour            blue
_exptl_crystal_density_diffrn    2.202
_exptl_crystal_density_method    'not measured'
_exptl_crystal_description       prismatic
_exptl_crystal_F_000             756
_exptl_crystal_size_max          0.10
_exptl_crystal_size_mid          0.05
_exptl_crystal_size_min          0.03
_exptl_transmission_factor_max   0.7454
_exptl_transmission_factor_min   0.4829
_refine_diff_density_max         1.020
_refine_diff_density_min         -1.018
_refine_diff_density_rms         0.206
_refine_ls_abs_structure_details
;
 Twinning involves inversion, so Flack parameter cannot be determined
;
_refine_ls_extinction_method     none
_refine_ls_goodness_of_fit_ref   1.055
_refine_ls_hydrogen_treatment    undef
_refine_ls_matrix_type           full
_refine_ls_number_parameters     137
_refine_ls_number_reflns         1081
_refine_ls_number_restraints     83
_refine_ls_restrained_S_all      1.063
_refine_ls_R_factor_all          0.1772
_refine_ls_R_factor_gt           0.1128
_refine_ls_shift/su_max          0.110
_refine_ls_shift/su_mean         0.024
_refine_ls_structure_factor_coef Fsqd
_refine_ls_weighting_details
'w=1/[\s^2^(Fo^2^)+(0.2000P)^2^] where P=(Fo^2^+2Fc^2^)/3'
_refine_ls_weighting_scheme      calc
_refine_ls_wR_factor_gt          0.2798
_refine_ls_wR_factor_ref         0.3221
_reflns_Friedel_coverage         0.360
_reflns_Friedel_fraction_full    0.248
_reflns_Friedel_fraction_max     0.247
_reflns_number_gt                610
_reflns_number_total             1081
_reflns_threshold_expression     'I > 2\s(I)'
_cod_data_source_file            lo5030sup1.cif
_cod_data_source_block           III
_cod_database_code               2108334
_shelx_shelxl_version_number     2018/3
_shelx_space_group_comment
;
The symmetry employed for this shelxl refinement is uniquely defined
by the following loop, which should always be used as a source of
symmetry information in preference to the above space-group names.
They are only intended as comments.
;
_shelx_res_file
;
TITL 125_rosa_b_b.res in P2(1)
    shelx.res
    created by SHELXL-2018/3 at 19:55:32 on 01-Aug-2018
REM  transformed to space group :
REM Old TITL 125_rosa_b.res in P2(1)
REM SHELXT solution in P2(1)
REM R1 0.346,  Rweak 0.046,  Alpha 0.100,  Orientation as input
REM Flack x =  0.362 ( 0.127 ) from Parsons' quotients
REM Formula found by SHELXT:  Na10 O14 Si8 V5
CELL   0.71073 12.5844  9.5249  9.6961   90.000   90.100   90.000
ZERR   1        0.0157  0.0133  0.0139    0.000    0.039    0.000
LATT -1
SYMM -X, 1/2+Y, -Z
SFAC H NA O SI V
UNIT 0 8 44 16 4
TEMP 30.650
L.S. 10
BOND $H
TWIN -1 0 0 0 1 0 0 0 1
SHEL 100 0.99
LIST 6
ACTA
EADP Si1 Si2 Si3 Si4 Si5 Si6 Si7 Si8
EADP Na11 Na12
EADP Na21 Na22 Na2a
EADP V1 V2 V2a
EADP O11 O12 O13 O14 O15 O16 O17 O18
EADP O21 O22 O23 O24
EADP O31 O32 O33 O34
EADP O41 O42 O43 O44
EADP  OV2 OV2a
EQIV $4  x, y-1, z
EQIV $6   x, y, z-1
EQIV $9  x, y, z+1
DFIX 1.60 0.07 V2  OV2
DFIX 1.60 0.07 V2a OV2a
DFIX 21 Si1 O18 Si1 O42 Si1 O34 Si1 O23
DFIX 21.6330 O18 O42 O18 O34 O18 O23
DFIX 21.6330 O42 O34 O42 O23 O34 O23
DFIX 31 Si2 O22_$4 Si2 O33 Si2 O42 Si2 O17
DFIX 31.6330 O17 O22_$4 O17 O42 O17 O33
DFIX 31.6330 O22_$4 O42 O22_$4 O33 O42 O33
DFIX 41 Si3 O22 Si3 O43 Si3 O12 Si3 O31
DFIX 41.6330 O22 O43 O22 O12 O22 O31
DFIX 41.6330 O43 O12 O43 O31 O12 O31
DFIX 51 Si4  O23 Si4 O32_$6 Si4 O43 Si4 O11
DFIX 51.6330 O23 O32_$6 O23 O43 O23 O11
DFIX 51.6330 O32_$6 O43 O32_$6 O11 O43 O11
DFIX 61 Si5  O13 Si5 O21 Si5 O44 Si5 O31
DFIX 61.6330 O13 O21 O13 O44 O13 O31
DFIX 61.6330  O21 O44 O21 O31 O44 O31
DFIX 71 Si6  O14 Si6 O32 Si6 O24 Si6 O44
DFIX 71.6330  O14 O32 O14 O44 O14 O24
DFIX 71.6330  O32 O24 O32 O44 O44 O24
DFIX 81  Si7 O16 Si7 O21_$4 Si7 O33 Si7 O41
DFIX 81.6330  O16 O21_$4 O16 O33 O16 O41
DFIX 81.6330  O21_$4 O33 O21_$4 O41 O33 O41
DFIX 91  Si8 O41 Si8 O15 Si8 O34_$9 Si8 O24
DFIX 91.6330  O41 O15 O41 O34_$9 O41 O24
DFIX 91.6330  O15 O34_$9 O15 O24 O34_$9 O24
FMAP 2
PLAN 50
WGHT    0.200000
BASF   0.45302
FVAR       0.46216   1.63142   1.64745   1.57149   1.65006   1.58040   1.65028
FVAR       1.63391   1.61812
V1    5   -0.013590    0.686679    0.026586    11.00000    0.04686
V2    5    0.484925    0.278767    0.475952    10.62200    0.04686
V2A   5    0.507197    0.204105    0.536438    10.37800    0.04686
SI1   4    0.247191    0.331094    0.025686    11.00000    0.04428
SI2   4    0.160081    0.151499    0.244489    11.00000    0.04428
SI3   4    0.163800    0.821743    0.247464    11.00000    0.04428
SI4   4    0.246746    0.652527    0.023178    11.00000    0.04428
SI5   4    0.255596    0.833922    0.516985    11.00000    0.04428
SI6   4    0.337167    0.651009    0.746563    11.00000    0.04428
SI7   4    0.248792    0.148480    0.519493    11.00000    0.04428
SI8   4    0.333173    0.321886    0.746259    11.00000    0.04428
REM Na1
NA11  2    0.085053    0.490682   -0.209984    11.00000    0.06388
NA12  2    0.416684   -0.001698    0.286018    11.00000    0.06388
REM Na2
NA21  2   -0.098510    0.370967    0.225130    11.00000    0.07698
NA22  2    0.585731    0.129731    0.741417    10.62200    0.07698
NA2A  2    0.622297    0.127287    0.715123    10.37800    0.07698
REM O1
O11   3    0.123959    0.665376   -0.032691    11.00000    0.04132
O12   3    0.053775    0.790265    0.189491    11.00000    0.04132
O13   3    0.369973    0.819632    0.457033    11.00000    0.04132
O14   3    0.455346    0.668688    0.682825    11.00000    0.04132
O15   3    0.447205    0.303002    0.680555    11.00000    0.04132
O16   3    0.364241    0.164564    0.448977    11.00000    0.04132
O17   3    0.046166    0.175162    0.169157    11.00000    0.04132
O18   3    0.128962    0.326331   -0.040569    11.00000    0.04132
REM O2
O21   3    0.225782    0.985237    0.563365    11.00000    0.04163
O22   3    0.192283    0.983373    0.239738    11.00000    0.04163
O23   3    0.280528    0.491417    0.061054    11.00000    0.04163
O24   3    0.299493    0.486634    0.750702    11.00000    0.04163
REM O3
O31   3    0.170472    0.777855    0.406766    11.00000    0.03336
O32   3    0.331137    0.716090    0.906908    11.00000    0.03336
O33   3    0.155809    0.198409    0.410456    11.00000    0.03336
O34   3    0.331733    0.268573   -0.090989    11.00000    0.03336
REM O4
O41   3    0.241567    0.240373    0.662071    11.00000    0.04064
O42   3    0.254762    0.239984    0.166610    11.00000    0.04064
O43   3    0.256581    0.742803    0.169421    11.00000    0.04064
O44   3    0.247105    0.737150    0.652145    11.00000    0.04064
REM O5
OV1   3   -0.050333    0.545264    0.099067    11.00000    0.01765
OV2   3    0.469441    0.446869    0.448150    10.62200    0.10347
OV2A  3    0.494813    0.127066    0.690212    10.37800    0.10347

HKLF 4




REM  125_rosa_b_b.res in P2(1)
REM wR2 = 0.3221, GooF = S = 1.055, Restrained GooF = 1.063 for all data
REM R1 = 0.1128 for 610 Fo > 4sig(Fo) and 0.1772 for all 1081 data
REM 137 parameters refined using 83 restraints

END

WGHT      0.2000      0.0000

REM Highest difference peak  1.020,  deepest hole -1.018,  1-sigma level  0.206
Q1    1   0.0532  0.6807  0.0171  11.00000  0.05    1.02
Q2    1   0.2994  0.1582  0.5096  11.00000  0.05    0.85
Q3    1   0.3718  0.3147  0.7447  11.00000  0.05    0.81
Q4    1  -0.0568  0.6843  0.0425  11.00000  0.05    0.78
Q5    1   0.1350  0.8225  0.2432  11.00000  0.05    0.77
Q6    1   0.2314  0.4894  0.7438  11.00000  0.05    0.75
Q7    1   0.2426  0.9912  0.2611  11.00000  0.05    0.68
Q8    1   0.4017  0.3489  0.2821  11.00000  0.05    0.67
Q9    1   0.3021  0.8254  0.5039  11.00000  0.05    0.66
Q10   1   0.0970  0.1632  0.1067  11.00000  0.05    0.65
Q11   1   0.2589  0.9932  0.6207  11.00000  0.05    0.64
Q12   1   0.2795  0.6590  0.4818  11.00000  0.05    0.64
Q13   1   0.3175  0.4902  0.4760  11.00000  0.05    0.61
Q14   1   0.5253  0.1776  0.5435  11.00000  0.05    0.60
Q15   1   0.2984  0.3197  0.0188  11.00000  0.05    0.60
Q16   1   0.0836  0.9913  0.1617  11.00000  0.05    0.60
Q17   1   0.2475  0.7918  0.3632  11.00000  0.05    0.59
Q18   1   0.1084  0.3990  0.4749  11.00000  0.05    0.58
Q19   1   0.3045  0.4885  0.0955  11.00000  0.05    0.58
Q20   1   0.3023  0.6759  0.1895  11.00000  0.05    0.57
Q21   1   0.0855  0.3475 -0.0364  11.00000  0.05    0.55
Q22   1   0.4391  0.8055  0.4260  11.00000  0.05    0.55
Q23   1   0.1652  0.6525  0.2422  11.00000  0.05    0.53
Q24   1   0.4214  0.1763  0.4616  11.00000  0.05    0.52
Q25   1   0.0901  0.2568  0.3807  11.00000  0.05    0.51
Q26   1   0.1586  0.9913  0.2365  11.00000  0.05    0.51
Q27   1   0.2324  0.3239  0.4551  11.00000  0.05    0.50
Q28   1   0.6023 -0.0134  0.8117  11.00000  0.05    0.49
Q29   1   0.2201  0.8144 -0.0208  11.00000  0.05    0.49
Q30   1   0.4654  0.4070  0.1079  11.00000  0.05    0.49
Q31   1   0.2534  0.1523 -0.0067  11.00000  0.05    0.49
Q32   1   0.1153  0.4829  0.2925  11.00000  0.05    0.49
Q33   1   0.3356  0.1422 -0.1938  11.00000  0.05    0.48
Q34   1   0.0376  0.1819  0.2490  11.00000  0.05    0.48
Q35   1   0.5048  0.7396  0.8625  11.00000  0.05    0.48
Q36   1   0.3711  0.7209  0.9241  11.00000  0.05    0.48
Q37   1   0.4953 -0.0115  0.3712  11.00000  0.05    0.47
Q38   1   0.2775  0.9882  0.9738  11.00000  0.05    0.47
Q39   1   0.3972  0.0670  0.0000  11.00000  0.05    0.47
Q40   1   0.4949  0.4120  0.7482  11.00000  0.05    0.47
Q41   1   0.2130  0.1822  0.3906  11.00000  0.05    0.46
Q42   1   0.3665  0.3148  0.5304  11.00000  0.05    0.46
Q43   1   0.2187  0.9813  0.3526  11.00000  0.05    0.46
Q44   1   0.3084  0.9159  0.8960  11.00000  0.05    0.46
Q45   1   0.4818  0.5651  0.7576  11.00000  0.05    0.45
Q46   1   0.1791  0.3498  0.7241  11.00000  0.05    0.45
Q47   1   0.0576  0.5157 -0.2195  11.00000  0.05    0.45
Q48   1   0.3285  0.8359  0.8033  11.00000  0.05    0.45
Q49   1  -0.1118  0.6601  0.2189  11.00000  0.05    0.45
Q50   1   0.5202  0.2303  0.8578  11.00000  0.05    0.44
;
_shelx_res_checksum              18310
_shelx_hkl_file
;
   0   1  -3 3235.78   59.59
   0   1  -2  257.17   37.20
   0  -1   1 1847.32   33.50
   0   1  -1 1858.01   31.60
   0  -1  -1 1736.73   29.90
   0  -1 -10   47.10  166.48
   0  -1 -11  158.28  195.18
   0  -1 -12 -115.39  231.18
   0  -2   5   14.80   30.70
   0   2  -5   -1.40   17.20
   0   2  -4   98.59   15.50
   0  -2   3  150.88   15.30
   0  -2   2 1764.32   50.19
   0   2  -2 1787.32   47.90
   0  -2   1  566.94   41.20
   0   2  -1  505.05   39.70
   0  -2   0 9999.00  127.99
   0  -2   0 9770.22  129.19
   0   2   0 9961.80  127.59
   0   2   0 9720.33  129.29
   0  -2  -1  433.86   31.00
   0   2   1  372.46   31.60
   0  -2  -2 1549.84   42.80
   0   2   2 1553.24   43.20
   0  -2  -3  203.68   56.69
   0  -2 -10  -43.20  169.18
   0  -2 -11  -46.00  206.08
   0  -3   6   72.19   44.20
   0  -3   5   78.29   39.80
   0  -3   4   18.70   18.20
   0   3  -4  -10.80   16.70
   0  -3   3   56.19   15.00
   0   3  -3   42.00   15.00
   0  -3   2   27.70   14.40
   0   3  -2   22.80   13.70
   0  -3   1 1104.59   45.00
   0   3  -1 1179.18   40.40
   0  -3   0   11.50   10.40
   0   3   0    6.40   12.50
   0  -3  -1  948.31   39.50
   0  -3  -1  951.50   37.50
   0   3   1  993.50   36.20
   0  -3  -2   14.30   12.30
   0   3   2   14.30   12.40
   0  -3  -3   39.80   14.20
   0   3   3   44.70   15.20
   0  -3 -10  -59.59  189.28
   0  -3 -11  808.22  234.08
   0  -4   7   24.80   54.29
   0  -4   6   34.70   50.09
   0  -4   5  113.59   26.60
   0  -4   4 1526.65   69.19
   0   4  -4 1458.25   63.99
   0   4  -3  136.99   18.80
   0  -4   2  353.66   50.79
   0  -4   1  127.79   15.10
   0   4  -1  108.19   14.10
   0  -4   0  385.66   36.80
   0   4   0  426.46   40.70
   0   4   0  369.36   37.50
   0  -4  -1  112.09   15.10
   0  -4  -1  117.79   14.10
   0   4   1  105.49   13.70
   0  -4  -2  127.09   16.20
   0  -4  -2  111.29   14.70
   0   4   2   89.09   15.10
   0   4   3  113.89   17.40
   0  -4 -10  -57.09  203.48
   0  -4 -11 -147.29  234.08
   0  -5   8  -37.30   58.29
   0  -5   7  637.54   99.09
   0  -5   5  -13.30   29.90
   0  -5   4   72.19   26.10
   0  -5   3 1019.30   68.39
   0  -5   2   55.99   19.80
   0   5  -2   24.20   17.80
   0  -5   1 2753.62   67.99
   0   5  -1 2785.12   66.19
   0  -5   0   -9.30   14.30
   0   5   0   -9.90   16.60
   0  -5  -1 2452.45   61.59
   0  -5  -1 2587.64   64.89
   0  -5  -2   40.00   18.80
   0  -5  -2   48.00   17.80
   0   5   2   35.30   18.10
   0  -5  -3 1016.50   66.59
   0  -5  -3 1038.40   58.99
   0  -5  -4   36.80   24.20
   0  -5  -9    9.40  187.98
   0  -5 -10  -60.99  223.18
   0  -6   8  258.27   67.19
   0  -6   7   24.90   60.69
   0  -6   6   73.59   36.20
   0  -6   5   74.09   35.60
   0  -6   4 4170.38  111.09
   0  -6   3  143.79   27.30
   0  -6   2  131.69   25.20
   0  -6   1  241.78   23.90
   0  -6   0 6799.82  111.19
   0  -6  -1  559.44   52.79
   0  -6  -1  438.66   58.59
   0  -6  -2   98.79   25.10
   0  -6  -3  139.39   25.90
   0  -6  -3   84.69   27.80
   0  -6  -4 3694.83   99.79
   0  -6  -4 3816.92  109.89
   0  -6  -5   47.90   32.30
   0  -6  -5   -8.50   39.40
   0  -7   9  109.19   80.09
   0  -7   8  106.49   72.89
   0  -7   6   -2.20   39.30
   0  -7   5   93.99   36.40
   0  -7   4   30.60   35.80
   0  -7   3  614.74   91.69
   0  -7   2   73.89   30.40
   0  -7   1  124.69   28.00
   0  -7   0    2.00   25.50
   0  -7  -1   84.19   25.40
   0  -7  -1   78.79   23.40
   0  -7  -2   42.30   30.30
   0  -7  -2   34.30   26.40
   0  -7  -3  260.07   35.70
   0  -7  -3  255.77   32.90
   0  -7  -4   25.30   37.40
   0  -7  -5  109.09   34.90
   0  -7  -5  146.89   40.10
   0  -8   8  100.49   83.59
   0  -8   7  -22.60   47.80
   0  -8   6  -45.30   43.80
   0  -8   5   -1.60   41.20
   0  -8   4   64.69   36.00
   0  -8   3   -4.70   32.10
   0  -8   2  197.98   33.70
   0  -8   1   59.89   32.90
   0  -8   0  141.69   32.10
   0  -8  -1   64.99   30.90
   0  -8  -2  192.68   32.50
   0  -8  -2  180.68   29.20
   0  -8  -3    4.30   36.40
   0  -8  -4   93.09   41.90
   0  -8  -5   71.59   44.90
   0  -8  -5   50.99   39.80
   0  -8  -6  -27.80   50.79
   0  -8  -7  -20.70   56.49
   0  -8  -8   40.30   64.19
   0  -9   7  -22.40   53.79
   0  -9   6  -73.89   48.30
   0  -9   5   47.10   47.30
   0  -9   4  -31.00   39.80
   0  -9   3   74.79   36.10
   0  -9   1   27.90   34.50
   0  -9   0  -55.19   35.20
   0  -9  -1   22.60   34.40
   0  -9  -2   -5.90   36.60
   0  -9  -3   96.39   35.40
   0  -9  -3  159.88   42.30
   0  -9  -4  -80.29   40.10
   0  -9  -4  -24.20   47.80
   0  -9  -6   20.10   59.09
   0 -10   5  -91.29   51.49
   0 -10   4  -18.90   43.90
   0 -10   3  -30.10   39.70
   0 -10   2  -64.49   40.30
   0 -10   1   -3.10   40.20
   0 -10   0  -33.50   41.20
   0 -10  -1  -28.50   41.30
   0 -10  -2  -47.00   40.10
   0 -10  -2    6.30   43.80
   0 -10  -3   -8.10   46.90
   0 -10  -4   14.00   52.29
   0 -10  -5  -52.59   48.90
   0 -10  -5  -22.60   57.39
   0 -11   4  -94.79   43.90
   0 -11   3  -48.90   44.70
   0 -11   2  -91.49   45.80
   0 -11   1  -56.89   46.20
   0 -11  -1  -35.40   51.29
   0 -11  -2  -62.99   49.90
   0 -11  -3   41.00   55.79
   0 -11  -4  -96.29   58.49
   0 -11  -4  -54.79   51.19
   1 -11  -4  -63.39   56.79
   1 -11  -3   23.10   56.79
   1 -11  -2 -119.39   52.09
   1 -11   0  -79.69   47.50
   1 -11   4  -96.59   42.70
   1 -10  -6   57.69   70.69
   1 -10  -5  -97.09   52.69
   1 -10  -5   92.89   64.39
   1 -10  -4   -9.50   55.49
   1 -10  -3  -20.80   49.00
   1 -10  -2   -8.10   44.60
   1 -10  -1   17.30   41.20
   1 -10   0  -20.50   42.90
   1 -10   1  -43.80   40.70
   1 -10   2  -46.90   40.90
   1 -10   3  -53.59   40.90
   1 -10   4  -91.19   42.00
   1 -10   5  -34.90   51.49
   1 -10   6  -73.09   53.79
   1  -9  -7  137.79   66.59
   1  -9  -6  -49.40   48.90
   1  -9  -6   94.79   59.59
   1  -9  -5   87.19   55.29
   1  -9  -4  -13.60   49.70
   1  -9  -3  203.48   44.70
   1  -9  -2  -11.60   32.10
   1  -9  -2   -1.50   37.00
   1  -9  -1   39.90   35.20
   1  -9   0  -37.80   35.40
   1  -9   1   71.89   35.60
   1  -9   2  -41.30   35.80
   1  -9   3  102.29   36.90
   1  -9   4   49.70   38.30
   1  -9   5   58.39   46.40
   1  -9   6  -80.19   49.10
   1  -9   7  -12.20   53.99
   1  -8  -7  -21.30   57.69
   1  -8  -6   -1.20   52.49
   1  -8  -5  -43.00   38.60
   1  -8  -5   30.20   47.30
   1  -8  -4  133.89   42.40
   1  -8  -3   79.59   38.10
   1  -8  -2   71.79   34.70
   1  -8  -1  149.39   32.00
   1  -8   0   86.99   32.00
   1  -8   1  164.58   33.10
   1  -8   2   29.70   33.00
   1  -8   3   39.40   32.70
   1  -8   4   39.00   33.90
   1  -8   5  -35.10   41.40
   1  -8   7  -73.39   47.40
   1  -8   8   10.30   87.39
   1  -7  -6  -21.90   35.90
   1  -7  -6   66.29   47.50
   1  -7  -5   92.19   33.50
   1  -7  -5  121.09   41.50
   1  -7  -4   94.09   38.30
   1  -7  -3  180.78   35.70
   1  -7  -2  106.09   32.20
   1  -7  -1  201.38   26.60
   1  -7   0   14.10   25.30
   1  -7   1  228.78   29.70
   1  -7   2  141.59   31.20
   1  -7   3  214.08   32.70
   1  -7   4   89.89   34.80
   1  -7   5  117.29   37.10
   1  -7   6   26.00   39.10
   1  -7   7  -19.20   43.40
   1  -7   7  195.18   73.99
   1  -7   8   44.30   77.59
   1  -7   9   81.39   84.29
   1  -6 -10   -6.10  227.38
   1  -6  -6   64.89   33.80
   1  -6  -5  157.68   33.40
   1  -6  -4  231.88   35.70
   1  -6  -3   75.49   28.50
   1  -6  -3   49.20   25.00
   1  -6  -2  123.19   25.30
   1  -6  -1  560.54   67.29
   1  -6   0  632.74   59.39
   1  -6   1  601.34   68.99
   1  -6   2  112.19   25.50
   1  -6   3   96.29   27.40
   1  -6   4  660.93   93.59
   1  -6   5  188.28   36.10
   1  -6   6   20.00   35.90
   1  -6   7   49.00   62.89
   1  -6   8   23.00   69.39
   1  -6   9   27.00   73.49
   1  -6  10  205.78   82.69
   1  -5  -5   32.50   28.60
   1  -5  -3   57.39   23.90
   1  -5  -3   49.60   20.10
  -1   5   2   29.70   18.60
   1  -5  -2   64.39   17.40
   1  -5  -2   48.20   19.40
   1  -5  -1  789.22   54.29
  -1   5   0    0.00   16.50
   1  -5   0   17.20   14.50
  -1   5  -1  890.51   53.89
   1  -5   1  931.41   55.29
  -1   5  -2   46.50   18.50
   1  -5   2   81.19   20.10
   1  -5   3  116.49   22.10
   1  -5   4  924.41   80.19
   1  -5   5   37.90   29.90
   1  -5   6  -11.00   35.70
   1  -5   6   -0.20   59.89
   1  -5   7   86.89   58.19
   1  -5   8  165.18   62.29
   1  -5   9  -24.50   64.69
   1  -5  10   89.49   70.29
   1  -4 -11  -95.59  228.48
  -1   4   4  352.76   52.09
  -1   4   3   99.39   18.90
   1  -4  -3   89.69   17.30
   1  -4  -2  367.46   39.50
   1  -4  -2  326.77   47.90
  -1   4   1   61.39   14.00
   1  -4  -1   78.69   12.70
   1  -4  -1   67.09   14.60
  -1   4   0  255.77   39.70
   1  -4   0  232.68   35.70
  -1   4  -1   55.09   13.60
   1  -4   1   77.69   14.40
  -1   4  -2  340.97   45.40
   1  -4   2  377.86   50.89
  -1   4  -3   86.39   19.10
   1  -4   3  110.29   18.40
  -1   4  -4  425.06   63.59
   1  -4   4  505.65   63.39
   1  -4   5   86.79   26.30
   1  -4   5  193.18   50.99
   1  -4   6  102.39   52.69
   1  -4   7   -1.50   54.89
   1  -4   8  -12.20   53.19
   1  -4   9  -51.79   57.79
   1  -3 -11 -199.98  213.08
   1  -3 -10   84.99  188.48
   1  -3  -4   61.69   19.50
  -1   3   3 1979.90   55.49
   1  -3  -3 2080.19   54.89
  -1   3   2   16.80   14.40
   1  -3  -2   21.70   13.50
  -1   3   1 1824.12   43.70
   1  -3  -1 1779.52   45.70
  -1   3   0    4.30   12.20
   1  -3   0   12.10   13.10
  -1   3  -1 2151.18   47.80
   1  -3   1 2025.90   50.89
  -1   3  -2   10.70   14.20
   1  -3   2   34.20   13.80
  -1   3  -3 2184.28   57.09
   1  -3   3 2059.69   56.89
  -1   3  -4   40.20   17.40
   1  -3   4   60.39   17.70
   1  -3   5   85.59   39.90
   1  -3   6  188.08   45.20
   1  -3   8    9.90   47.40
   1  -2 -11  -55.59  198.68
   1  -2  -4 1440.36  110.59
  -1   2   3  669.83   83.39
  -1   2   2  752.22   44.20
   1  -2  -2  738.03   43.50
  -1   2   1 1045.80   41.50
   1  -2  -1 1061.99   40.60
  -1   2   0   47.20   10.80
   1  -2   0   46.00   11.80
  -1   2  -1 1208.08   40.10
   1  -2   1 1242.68   42.70
   1  -2   2  828.52   44.50
  -1   2  -3  777.02   40.00
   1  -2   3  762.72   43.40
   1  -2   3  714.53   53.79
   1  -2   4 1444.96   59.29
  -1   2  -5  425.96   55.89
   1  -2   5  519.55   59.69
   1  -2   6   42.70   36.90
  -1   1   3 1118.09   86.59
  -1   1   1 2224.88   39.90
   1  -1  -1 2226.98   41.00
   1  -1   2   78.69   23.30
   1  -1   3 1024.30   44.10
  -1   1  -4  499.25   41.20
   1  -1   4  503.05   43.30
   1  -1   5  100.59   27.10
  -1   0  -1 4502.75   60.39
   1   0   1 4447.06   60.69
  -1   0  -3   27.80   21.90
   1   0   3   10.20   20.50
  -1   0 -11 -138.59  182.88
   1   1  -2  267.07   39.40
  -1  -1   1 1918.11   35.70
   1   1  -1 1913.21   34.10
   1   1   0   24.90    5.30
  -1  -1  -1 1692.93   34.50
   1   1   1 1749.82   36.50
   1   1   2  129.09   23.40
  -1  -1  -9   34.10  142.79
  -1  -1 -10  -25.40  162.28
  -1  -1 -11  -83.79  192.08
   1   2  -5  466.65   54.29
   1   2  -4 1398.46   51.29
   1   2  -3  890.01   45.20
  -1  -2   2  768.22   45.80
   1   2  -2  777.22   39.30
  -1  -2   1 1241.48   48.10
   1   2  -1 1232.28   42.40
   1   2   0  283.47   33.00
   1   2   1 1013.30   36.50
  -1  -2  -2  637.14   41.80
   1   2   2  585.24   48.10
   1   2   2  626.84   74.39
  -1  -2  -3  708.63   87.99
  -1  -2  -9  -53.79  141.89
  -1  -2 -10  -24.90  168.08
  -1  -2 -11  -73.69  201.98
  -1  -3   4  100.39   19.50
   1   3  -4   28.90   15.80
  -1  -3   3 2050.89   58.49
   1   3  -3 2063.39   55.59
  -1  -3   2   39.90   15.00
   1   3  -2   37.80   13.70
  -1  -3   1 1947.41   52.29
   1   3  -1 2062.09   48.20
  -1  -3   0   19.40   10.90
  -1  -3   0   32.70   11.80
   1   3   0    2.10   11.20
   1   3   0   23.20   13.30
  -1  -3  -1 1704.63   43.60
   1   3   1 1792.72   42.50
   1   3   1 1799.52   43.60
  -1  -3  -2   18.30   25.70
  -1  -3  -3 1497.25   53.59
  -1  -3  -8  -13.40  137.09
  -1  -3  -9   99.99  157.58
  -1  -3 -10  -27.30  184.78
  -1  -4   4  490.45   66.59
  -1  -4   3  106.69   19.20
   1   4  -3  106.29   18.50
  -1  -4   2  372.96   52.59
   1   4  -2  365.06   47.70
  -1  -4   1   88.19   15.20
   1   4  -1   73.79   13.30
   1   4   0  133.39   14.50
   1   4   0  130.79   14.90
  -1  -4  -1   81.19   14.50
  -1  -4  -1   71.69   12.10
   1   4   1   75.99   12.70
   1   4   1   85.19   14.40
   1   4   2  132.79   15.10
  -1  -4  -3   81.09   31.10
   1   4   3   64.99   16.30
  -1  -4  -9 -102.69  173.68
  -1  -5   7  139.39   53.59
  -1  -5   5   24.60   30.80
  -1  -5   4  935.31   81.59
  -1  -5   3   81.49   23.40
  -1  -5   2   85.79   20.30
   1   5  -2   29.90   17.50
  -1  -5   1  948.31   57.49
   1   5  -1  837.12   52.29
  -1  -5   0   -0.10   16.10
  -1  -5   0   10.50   14.90
   1   5   0  -27.70   18.40
   1   5   0    7.60   16.60
  -1  -5  -1  795.12   47.10
  -1  -5  -1  844.22   52.99
   1   5   1  789.62   49.10
  -1  -5  -2   54.89   19.50
   1   5   2   56.29   18.20
  -1  -5  -3   67.79   21.60
  -1  -5  -3   56.69   41.10
  -1  -5  -3   68.99   21.20
  -1  -6   6   40.90   36.90
  -1  -6   5  177.08   36.40
  -1  -6   4  287.57   34.30
  -1  -6   3   89.89   27.40
  -1  -6   2  148.99   25.80
  -1  -6   1  555.94   67.99
  -1  -6   0  547.35   60.89
  -1  -6  -1  490.65   58.79
  -1  -6  -2   98.99   21.00
  -1  -6  -2  114.09   24.60
  -1  -6  -3   90.19   27.50
  -1  -7   8   92.59   71.09
  -1  -7   6   36.50   39.90
  -1  -7   5   97.39   36.90
  -1  -7   4  156.48   36.10
  -1  -7   3  219.78   33.10
  -1  -7   2  127.99   30.60
  -1  -7   1  558.14   81.89
  -1  -7   0   50.49   27.00
  -1  -7  -1  207.88   25.60
  -1  -7  -1  200.88   26.30
  -1  -7  -2   68.79   30.00
  -1  -7  -2  117.49   26.30
  -1  -7  -3  162.58   34.20
  -1  -7  -3  178.48   31.10
  -1  -7  -4  132.99   36.10
  -1  -7  -6  101.09   45.10
  -1  -7  -7  122.19   52.39
  -1  -8   7  -34.40   49.10
  -1  -8   6  -75.09   44.70
  -1  -8   5   -4.30   41.00
  -1  -8   4   39.50   36.40
  -1  -8   3   16.20   31.80
  -1  -8   2   30.60   32.70
  -1  -8   1  197.68   33.40
  -1  -8   0   54.59   33.20
  -1  -8  -1  181.08   31.70
  -1  -8  -1  172.18   29.60
  -1  -8  -2   57.59   31.10
  -1  -8  -2   26.00   29.80
  -1  -8  -3   50.19   34.70
  -1  -8  -4   79.59   40.40
  -1  -8  -5   51.79   44.30
  -1  -8  -6  -48.10   51.29
  -1  -9   7  -25.20   54.39
  -1  -9   6  -53.09   49.20
  -1  -9   5   24.70   46.90
  -1  -9   4   -9.70   41.50
  -1  -9   3   62.99   36.20
  -1  -9   2  -63.59   35.40
  -1  -9   1   28.20   35.30
  -1  -9   0  -43.70   34.80
  -1  -9  -1   61.69   33.60
  -1  -9  -2  -33.30   34.70
  -1  -9  -3   90.39   37.30
  -1  -9  -3  147.59   39.00
  -1  -9  -4  -39.60   39.30
  -1  -9  -4   14.50   44.40
  -1  -9  -5  127.19   54.89
  -1  -9  -6  -94.39   51.89
  -1  -9  -6   39.20   59.09
  -1 -10   6  -84.69   50.89
  -1 -10   5  -61.79   52.69
  -1 -10   4  -23.30   46.00
  -1 -10   3  -58.69   39.30
  -1 -10   2  -83.29   40.40
  -1 -10   1  -38.60   40.50
  -1 -10   0  -25.60   40.40
  -1 -10  -1  -46.30   42.00
  -1 -10  -2    6.30   41.80
  -1 -10  -3  -69.69   43.60
  -1 -10  -3   17.50   45.10
  -1 -10  -4  -27.60   49.90
  -1 -10  -5  112.59   58.09
  -1 -10  -5  -47.80   49.30
  -1 -11   4  -99.09   47.60
  -1 -11   0 -103.79   45.70
  -1 -11  -2  -48.10   48.80
  -1 -11  -3 -119.59   49.20
  -1 -11  -3 -120.09   52.79
  -1 -11  -4  -71.09   58.79
  -1 -11  -4 -141.89   57.49
   2 -11  -3  -86.69   56.69
   2 -11  -2  -75.99   53.59
   2 -11  -1 -116.29   50.59
   2 -11   0  -79.29   49.00
   2 -11   1  -62.99   48.30
   2 -11   2 -101.29   47.70
   2 -11   3  -64.99   47.50
   2 -11   4  -49.50   51.29
   2 -10  -6  188.58   65.89
   2 -10  -5  -57.89   65.89
   2 -10  -4  196.18   57.59
   2 -10  -3  -61.59   49.10
   2 -10  -2   59.79   45.80
   2 -10  -1  -38.70   42.80
   2 -10   0  278.97   45.40
   2 -10   1  -88.79   41.50
   2 -10   2    9.60   42.40
   2 -10   3  -34.30   42.00
   2 -10   4   55.39   44.10
   2 -10   5  -34.70   51.89
   2 -10   6  -19.40   54.79
   2  -9  -7  169.08   68.19
   2  -9  -6   45.80   61.59
   2  -9  -5   42.80   55.59
   2  -9  -4   89.19   51.79
   2  -9  -3   59.79   43.90
   2  -9  -2  209.88   39.60
   2  -9  -1   25.80   36.30
   2  -9   0   32.60   35.60
   2  -9   1  -66.79   35.80
   2  -9   2  172.18   38.40
   2  -9   3   30.80   37.90
   2  -9   4   33.60   39.20
   2  -9   5   68.59   46.30
   2  -9   6  -59.99   49.40
   2  -9   7  321.27  103.49
   2  -8  -8    2.40   66.99
   2  -8  -7   48.10   60.99
   2  -8  -6  103.59   53.59
   2  -8  -5   32.80   47.60
   2  -8  -4   12.40   41.10
   2  -8  -3   91.89   40.10
   2  -8  -2  -13.00   34.70
   2  -8  -1  113.59   32.20
   2  -8   0  178.78   33.10
   2  -8   1  148.09   34.20
   2  -8   2   23.40   33.50
   2  -8   3  118.59   34.70
   2  -8   4  -10.90   34.70
   2  -8   5   10.20   41.60
   2  -8   7  -71.59   48.60
   2  -8   7   50.59   87.99
   2  -8   8   71.79   94.69
   2  -7  -7  145.89   41.80
   2  -7  -6   81.99   48.80
   2  -7  -5   89.29   42.00
   2  -7  -4  109.69   38.80
   2  -7  -4  122.29   32.40
   2  -7  -3 1136.69  104.39
   2  -7  -2  226.98   34.60
   2  -7  -1   23.90   29.90
   2  -7   0   35.00   26.50
   2  -7   1   40.70   29.80
   2  -7   2  672.03   91.79
   2  -7   3 1042.40   95.29
   2  -7   4  125.29   33.80
   2  -7   6   -5.00   39.50
   2  -7   7  380.56   80.69
   2  -7   8  139.39   81.09
   2  -7   9   69.79   87.29
   2  -6 -10  -94.59  210.98
   2  -6  -5   48.30   32.20
   2  -6  -4  819.92  102.69
   2  -6  -4  793.32   80.19
   2  -6  -3  663.93   72.99
   2  -6  -3  741.83   85.59
   2  -6  -2  205.28   27.00
   2  -6  -1  537.85   69.69
   2  -6   0  559.54   62.09
   2  -6   1  621.94   69.19
   2  -6   2  632.34   76.59
   2  -6   3  944.01   83.39
   2  -6   5   70.59   35.70
   2  -6   6  185.38   64.69
   2  -6   7  299.67   70.69
   2  -6   8  230.18   73.09
   2  -6   9   69.19   76.39
   2  -6  10  -49.70   82.29
   2  -5  -4    4.90   25.30
   2  -5  -3   -6.20   25.50
   2  -5  -3   35.30   20.60
   2  -5  -2   42.50   17.70
   2  -5  -2   74.79   20.30
   2  -5  -1   41.20   19.20
  -2   5   0  134.09   17.70
  -2   5  -1   14.20   19.00
   2  -5   1   20.80   17.20
  -2   5  -2   32.10   19.20
   2  -5   2   72.29   20.50
  -2   5  -3   -7.20   14.00
   2  -5   3   61.39   22.50
   2  -5   4   34.20   24.90
   2  -5   5  146.99   61.79
   2  -5   6   37.00   35.60
   2  -5   6  126.69   62.99
   2  -5   7    3.10   59.19
   2  -5   8   77.19   62.49
   2  -5   9  135.79   69.99
   2  -5  10  -64.19   72.79
   2  -4  -6   73.29   32.00
   2  -4  -5   54.69   27.30
   2  -4  -4 1103.99   63.99
  -2   4   3  461.85   55.39
   2  -4  -3  438.16   51.69
  -2   4   2  731.33   50.79
   2  -4  -2  722.33   51.89
   2  -4  -2  718.93   45.60
   2  -4  -1  109.89   15.20
  -2   4   0   78.99   14.00
   2  -4   0   98.69   15.40
  -2   4  -1  264.07   42.60
   2  -4   1  295.07   41.60
  -2   4  -2  766.52   49.10
   2  -4   2  765.32   52.79
   2  -4   3  486.35   55.39
   2  -4   5   67.19   50.49
   2  -4   5  106.59   26.60
   2  -4   6  114.39   54.79
   2  -4   7   32.30   54.99
   2  -4   8   52.09   55.79
   2  -4   9  -28.20   58.99
   2  -4  10   -0.30   65.69
   2  -3  -5  197.58   26.20
  -2   3   3    4.40   19.10
   2  -3  -3    4.40   17.50
  -2   3   2 3965.60   72.29
   2  -3  -1   59.49   13.90
  -2   3   0 1859.61   44.70
   2  -3   0 1847.72   47.30
  -2   3  -2 4130.59   70.99
   2  -3   4  473.45   66.79
   2  -3   5  283.97   42.00
   2  -3   6  456.35   81.69
   2  -3   7  258.27   51.69
   2  -3   8  161.08   50.49
   2  -3   9   15.30   53.89
   2  -2  -4  189.68   20.20
   2  -2  -3  145.69   17.60
  -2   2   2  468.85   45.30
   2  -2  -2  436.76   43.40
  -2   2   0  215.88   32.50
   2  -2   2  370.16   48.00
   2  -2   3  195.58   27.70
   2  -2   4  251.57   30.60
   2  -2   5   -3.30   32.50
   2  -2   6   -4.80   36.90
   2  -2   7  195.08   45.50
   2  -2   9  -34.40   47.90
  -2   1   3  350.56   86.69
  -2   1  -1   72.39   19.70
   2  -1   1   89.29   19.00
  -2   1  -2  774.62   46.30
   2  -1   2  835.92   43.70
  -2   1  -3  342.37   45.10
   2  -1   3  319.27   39.40
  -2   1  -4  204.08   28.10
   2  -1   4  184.68   25.10
  -2   1  -5  121.69   33.70
   2  -1   5  106.89   28.50
  -2   1  -6  447.76   66.29
   2  -1   6  404.36   60.39
   2  -1   8  153.18   44.60
  -2   0  -1  578.94   30.20
   2   0   1  579.24   28.00
   2   0   1  562.54   20.70
  -2   0  -2   38.50   23.20
   2   0   2   17.10   18.60
  -2   0  -3  680.03   44.30
   2   0   3  600.64   36.00
  -2   0  -4   41.30   26.70
   2   0   4   55.69   19.40
  -2   0  -5    9.30   32.40
   2   0   5   28.60   23.00
  -2   0  -6   55.19   42.00
   2   1  -2  947.31   40.20
  -2  -1   0 1101.99   36.00
   2   1   0 1080.89   24.70
  -2  -1  -1  121.29   21.00
   2   1   1  120.19   20.80
  -2  -1  -2  934.31   48.00
   2   1   2  868.51   48.20
  -2  -1  -3  341.67   45.30
   2   1   3  331.87   40.40
  -2  -1  -4  176.88   25.10
   2   1   4  179.08   24.20
   2   1   5   80.69   26.40
   2   2  -5    5.60   16.40
   2   2  -4  312.27   46.10
   2   2  -3  267.37   41.80
  -2  -2   2  494.65   43.60
   2   2  -2  517.25   37.90
  -2  -2   1 1677.63   36.50
   2   2   0  663.23   40.30
  -2  -2  -1 1759.72   56.29
  -2  -2  -2  373.36   44.10
   2   2   2  359.36   46.50
  -2  -2  -3  179.48   25.50
   2   2   3  168.88   26.20
  -2  -2  -4  220.68   29.90
   2   2   4  303.87   48.80
  -2  -2  -5   19.60   33.70
   2   3  -4  356.76   50.99
  -2  -3   3   16.80   16.40
   2   3  -3    5.80   14.50
  -2  -3   2 3970.00   72.19
  -2  -3   2 3800.82   62.99
   2   3  -2 3924.01   69.69
  -2  -3   1   54.29   14.10
   2   3  -1   74.09   14.00
   2   3  -1   61.89   12.80
  -2  -3   0 2116.19   53.19
   2   3   0 2124.39   49.30
  -2  -3  -1   70.89   12.40
  -2  -3  -2 3125.59   68.89
   2   3   2 3198.88   56.99
  -2  -3  -3   -9.30   26.60
   2   3   3    3.40   28.30
  -2  -3  -4  277.07   33.10
   2   3   4  371.86   60.09
   2   3   5  190.48   36.00
  -2  -4   4 1321.47   74.49
  -2  -4   3  454.35   60.29
   2   4  -3  391.26   57.19
  -2  -4   2  803.02   56.79
   2   4  -2  813.12   52.89
  -2  -4   1  383.26   49.99
   2   4  -1  251.37   39.00
  -2  -4   0  100.19   15.20
  -2  -4   0  101.49   14.50
   2   4   0   58.59   14.50
   2   4   1  118.59   14.80
  -2  -4  -2  646.14   63.89
  -2  -4  -2  737.13   43.30
   2   4   2  667.23   45.00
  -2  -4  -3  245.28   33.50
  -2  -4  -4  695.83   73.09
  -2  -5   5  171.98   33.50
  -2  -5   4   28.50   28.10
  -2  -5   3   30.10   22.60
  -2  -5   2   76.99   21.70
   2   5  -2   20.60   17.90
  -2  -5   1   36.60   19.40
   2   5  -1    7.30   15.80
   2   5  -1   10.60   16.90
  -2  -5   0  401.36   52.29
  -2  -5   0  372.56   52.39
   2   5   0  419.56   51.29
   2   5   0  374.56   52.99
  -2  -5  -1   43.40   16.50
  -2  -5  -1   23.10   14.90
   2   5   1   28.80   19.60
  -2  -5  -2   31.80   39.40
   2   5   2    3.80   18.20
  -2  -5  -3   -6.50   33.30
  -2  -6   6   51.39   37.60
  -2  -6   5   82.29   37.10
  -2  -6   4 1082.79  100.49
  -2  -6   3  946.11   90.49
  -2  -6   2  613.94   77.89
  -2  -6   1  672.53   72.19
  -2  -6   0  590.64   63.69
  -2  -6   0  592.44   67.79
  -2  -6  -1  672.53   60.89
  -2  -6  -2  193.78   25.60
  -2  -6  -4  951.90   88.29
  -2  -7   6    7.00   41.50
  -2  -7   5   66.89   37.80
  -2  -7   4  145.39   38.70
  -2  -7   3 1053.99   96.59
  -2  -7   2  594.84   89.79
  -2  -7   1   34.70   29.30
  -2  -7   0   -2.30   27.90
  -2  -7  -1   32.70   25.50
  -2  -7  -2  204.68   27.90
  -2  -7  -3  940.11   82.39
  -2  -7  -3  949.51   93.99
  -2  -7  -5   32.70   37.10
  -2  -8   6  -35.10   46.30
  -2  -8   5   20.40   43.00
  -2  -8   4  -21.60   38.90
  -2  -8   3   81.49   33.30
  -2  -8   2    5.20   32.00
  -2  -8   1  133.19   33.30
  -2  -8   0  207.28   32.50
  -2  -8   0  185.08   31.40
  -2  -8  -1  146.79   30.80
  -2  -8  -1  138.69   30.60
  -2  -8  -2   11.30   29.80
  -2  -8  -2   19.40   29.50
  -2  -9   7   45.20   56.49
  -2  -9   6  -42.40   51.09
  -2  -9   5  -64.99   47.50
  -2  -9   4   -5.10   44.70
  -2  -9   3   19.00   36.40
  -2  -9   2  186.18   36.50
  -2  -9   1  -50.59   33.70
  -2  -9  -1  -43.40   32.60
  -2  -9  -1   -4.10   34.60
  -2  -9  -2  167.98   36.10
  -2  -9  -2  210.08   35.90
  -2  -9  -3   20.00   37.50
  -2  -9  -3   68.49   38.50
  -2  -9  -4   45.10   44.30
  -2  -9  -6  -34.30   48.20
  -2 -10   6   52.09   54.79
  -2 -10   5  -90.99   52.69
  -2 -10   4   51.29   49.60
  -2 -10   3  -46.30   40.60
  -2 -10   2   -2.30   39.30
  -2 -10   1  -75.79   39.40
  -2 -10   0  227.78   40.20
  -2 -10  -1  -30.70   41.90
  -2 -10  -4  123.19   50.79
  -2 -10  -4   84.19   48.30
  -2 -11   4  -81.19   68.79
  -2 -11   2 -100.39   44.30
  -2 -11  -1  -95.79   47.00
  -2 -11  -3  -72.99   52.19
   3 -11  -3  -59.49   54.59
   3 -11  -2  -47.40   54.59
   3 -11  -1  -44.30   51.69
   3 -11   0  -60.19   52.59
   3 -10  -5  -53.29   66.09
   3 -10  -4   18.70   57.59
   3 -10  -3  -10.50   52.29
   3 -10  -2  -28.40   47.20
   3 -10  -1   62.69   44.90
   3 -10   0  -55.99   44.50
   3 -10   1   71.59   44.50
   3 -10   2  -49.40   44.50
   3 -10   3  -32.70   44.40
   3 -10   4  -73.59   44.30
   3 -10   5  -62.49   53.89
   3  -9  -7   37.60   67.89
   3  -9  -7 -120.79   49.10
   3  -9  -6  -84.59   46.20
   3  -9  -6    3.70   61.89
   3  -9  -5  120.19   56.39
   3  -9  -4   24.30   51.79
   3  -9  -3   17.50   45.10
   3  -9  -2   36.40   40.30
   3  -9  -1   82.99   38.60
   3  -9   0   -0.70   36.90
   3  -9   1   10.30   38.90
   3  -9   2  -50.89   39.80
   3  -9   3   -0.60   40.60
   3  -9   4  -49.60   40.60
   3  -9   5   13.70   47.70
   3  -9   6   74.19   98.19
   3  -9   7  -79.59   55.89
   3  -9   7  111.59  105.39
   3  -8  -8   66.59   68.99
   3  -8  -8  -84.19   50.39
   3  -8  -7  -38.40   60.99
   3  -8  -6   17.80   53.89
   3  -8  -5   42.60   48.70
   3  -8  -4  129.09   43.80
   3  -8  -3   24.30   40.60
   3  -8  -2   53.09   35.90
   3  -8  -1   44.40   32.70
   3  -8   0   -0.30   32.60
   3  -8   1   64.99   35.50
   3  -8   2   54.09   34.80
   3  -8   3    7.70   35.10
   3  -8   4   88.79   36.30
   3  -8   6   69.49   86.49
   3  -8   7    2.40   94.39
   3  -8   8  -74.89   98.39
   3  -7  -5   19.90   32.60
   3  -7  -5    4.90   42.60
   3  -7  -4  -19.50   30.90
   3  -7  -4   41.30   38.30
   3  -7  -3   75.49   37.00
   3  -7  -2   12.40   35.20
   3  -7  -1   84.59   32.60
   3  -7   0   54.99   28.10
   3  -7   1   73.69   31.40
   3  -7   3  142.59   35.00
   3  -7   5  -41.90   37.50
   3  -7   6   45.80   75.09
   3  -7   7   55.29   83.79
   3  -7   8  234.18   86.99
   3  -7   9   -4.60   91.19
   3  -6  -7    6.60   38.10
   3  -6  -6  277.27   35.40
   3  -6  -5   37.20   32.70
   3  -6  -4  232.78   38.60
   3  -6  -3   59.89   31.80
   3  -6  -2   94.29   28.30
   3  -6  -1   85.99   26.60
   3  -6   0   78.99   22.00
   3  -6   1  107.79   24.40
   3  -6   5   35.30   69.19
   3  -6   6  518.15   71.19
   3  -6   7   31.50   71.59
   3  -6   8   11.80   75.29
   3  -6   9  -21.70   80.69
   3  -6  10  103.79   85.99
   3  -5  -7   34.90   34.70
   3  -5  -6  226.98   34.70
   3  -5  -3   36.10   27.30
  -3   5   2   38.70   21.80
   3  -5  -2   33.90   22.10
   3  -5  -1   89.29   20.50
  -3   5   0   89.99   17.60
   3  -5   0  104.19   20.40
  -3   5  -1   90.29   20.20
   3  -5   1  100.79   18.50
  -3   5  -2    9.10   19.60
   3  -5   2   25.80   21.10
  -3   5  -3   -4.90   15.80
   3  -5   5   45.70   60.99
   3  -5   6  343.67   65.59
   3  -5   7   38.40   61.89
   3  -5   8  211.28   67.99
   3  -5   9  -21.20   69.09
   3  -5  10   54.49   78.19
   3  -4  -5   39.70   28.70
   3  -4  -4  182.18   24.70
   3  -4  -3   83.29   20.60
   3  -4  -2  350.66   55.99
   3  -4  -1  946.81   49.80
  -3   4   0   47.70   13.90
   3  -4   0   85.59   16.30
  -3   4  -1  992.80   49.60
   3  -4   1  969.10   47.10
   3  -4   4  332.07   48.30
   3  -4   5   89.79   50.59
   3  -4   6  116.29   56.49
   3  -4   7   88.89   56.89
   3  -4   8  -15.10   56.99
   3  -4   9  -76.89   62.69
   3  -4  10   31.40   66.89
   3  -3  -4  181.58   22.50
   3  -3  -3    0.50   18.70
   3  -3  -1  518.15   41.50
   3  -3   2  109.29   33.40
   3  -3   3   27.80   33.70
   3  -3   4  239.58   37.90
   3  -3   5 1730.93   83.39
   3  -3   6  328.07   49.80
   3  -3   7   87.89   50.79
   3  -3   8  166.38   52.39
   3  -3   9   41.30   54.89
   3  -3  10   95.19   61.29
   3  -3  11 -136.49   72.39
   3  -2  -6   16.90   31.80
   3  -2  -5   62.19   25.80
   3  -2  -4  169.68   74.19
   3  -2  -4   92.49   21.80
   3  -2  -3  126.79   19.00
   3  -2  -2   56.59   17.30
   3  -2   1  923.81   47.60
   3  -2   2   77.29   24.90
   3  -2   3  146.89   26.70
   3  -2   4  132.89   30.40
   3  -2   5   78.49   33.20
   3  -2   6   20.90   40.80
   3  -2   7   65.79   45.30
   3  -2   8  357.16   49.10
   3  -2   9  -28.00   49.10
  -3   1  -1  957.80   45.40
   3  -1   1  953.00   40.80
  -3   1  -2  288.47   44.10
   3  -1   2  362.76   38.60
  -3   1  -3  273.27   47.30
   3  -1   3  277.37   41.70
  -3   1  -4  250.87   31.90
   3  -1   4  263.77   46.30
  -3   1  -5  130.49   36.70
   3  -1   5  112.49   29.60
   3  -1   6  185.28   37.10
   3  -1   7  149.39   39.80
   3  -1   8   35.60   43.30
  -3   0  -1 2066.69   40.20
  -3   0  -1 2199.58   53.19
   3   0   1 2110.29   51.29
  -3   0  -2 2359.56   55.79
   3   0   2 2245.18   50.59
  -3   0  -3  -15.10   24.40
   3   0   3   20.00   18.80
  -3   0  -4  480.55   54.19
   3   0   4  454.05   42.30
  -3   0  -5   48.80   36.20
   3   0   5   30.60   25.30
   3   0   6 1040.10   65.09
   3   0   7   28.30   39.50
   3   0   8  121.29   45.80
  -3  -1   0   32.30   21.80
   3   1   0   27.60   17.90
  -3  -1  -1 1051.99   48.20
  -3  -1  -1  986.40   29.10
   3   1   1  970.60   29.00
   3   1   1 1003.50   47.80
  -3  -1  -2  351.56   47.80
   3   1   2  361.06   44.70
  -3  -1  -3  342.07   48.30
   3   1   3  291.57   43.20
  -3  -1  -4  325.07   51.29
   3   1   4  214.68   26.60
  -3  -1  -5   50.99   35.50
   3   1   5   92.09   29.20
   3   1   6  175.68   35.30
   3   1   7  163.08   41.20
   3   2  -4   43.70   15.40
   3   2  -3   81.89   13.50
  -3  -2   2  103.29   18.60
  -3  -2   1  981.70   32.00
   3   2  -1 1004.20   33.50
  -3  -2   0  308.27   50.69
   3   2   0  327.97   28.80
  -3  -2  -1  907.81   48.10
   3   2   1  933.71   50.89
  -3  -2  -2   69.99   25.60
  -3  -2  -3  142.99   26.90
   3   2   3  138.59   26.80
  -3  -2  -4  123.89   31.60
   3   2   4  119.09   29.20
  -3  -2  -5   39.80   37.30
   3   2   5   51.39   32.40
   3   2   6    7.80   38.00
   3   3  -4   88.49   18.00
  -3  -3   3    3.00   18.30
  -3  -3   3    7.80   24.60
   3   3  -3  -12.80   14.20
  -3  -3   2   52.29   15.80
  -3  -3   2   71.69   20.10
   3   3  -2   26.60   13.80
   3   3  -1  642.24   37.10
   3   3   0   10.80   13.20
  -3  -3  -1  524.85   53.79
  -3  -3  -2   44.60   24.90
  -3  -3  -3   37.40   30.60
   3   3   3   15.10   31.60
  -3  -3  -4  162.58   34.90
   3   3   4  126.19   71.89
   3   3   4  160.18   34.40
   3   3   5 1426.06   77.89
   3   3   6  233.68   45.30
  -3  -4   4  543.25   77.19
  -3  -4   3  118.39   21.90
  -3  -4   3  162.98   28.60
   3   4  -2  362.16   50.69
   3   4  -1  889.91   48.70
   3   4   0   44.10   15.60
  -3  -4  -1  808.32   66.59
  -3  -4  -2  365.16   63.89
  -3  -4  -3   94.89   35.30
  -3  -4  -4   35.70   41.50
   3   4   5   67.59   46.20
   3   4   6   73.19   52.19
  -3  -5   5  -30.70   34.80
  -3  -5   4  127.89   30.60
  -3  -5   3  100.69   27.40
  -3  -5   2   34.40   22.20
  -3  -5   1  125.99   21.20
   3   5  -1   74.39   18.70
   3   5   0   50.29   18.10
  -3  -5  -1  110.89   19.80
   3   5   1   76.59   17.50
  -3  -6   5   26.60   38.60
  -3  -6   4  293.07   37.40
  -3  -6   3   73.29   30.90
  -3  -6   2  131.49   27.40
  -3  -6  -1   86.89   24.50
  -3  -6  -2  158.28   24.90
  -3  -7   6    9.90   43.60
  -3  -7   5  -46.80   39.10
  -3  -7   4   -1.90   37.70
  -3  -7   3  135.99   37.90
  -3  -7   2   87.49   32.00
  -3  -7   1   97.99   30.60
  -3  -7   0   72.19   29.30
  -3  -7  -2   55.49   29.40
  -3  -7  -3   93.79   32.20
  -3  -8   6  -17.40   48.80
  -3  -8   5  -48.10   44.60
  -3  -8   4  117.19   42.60
  -3  -8   3  -30.60   36.30
  -3  -8  -1   37.10   31.00
  -3  -8  -3    8.90   32.30
  -3  -8  -4  107.49   37.70
  -3  -9   6  -81.49   53.69
  -3  -9   5    2.60   49.80
  -3  -9   4  -17.80   47.30
  -3  -9   3  -40.00   40.30
  -3  -9   2  -71.09   34.40
  -3  -9   1   27.80   34.60
  -3  -9  -1   -7.40   35.10
  -3  -9  -4  -32.30   43.20
  -3 -10   5  -74.79   54.79
  -3 -10   4  -69.99   51.69
  -3 -10   3  -69.09   44.20
  -3 -10   2  -43.10   39.60
  -3 -10   0  -46.00   39.90
  -3 -10  -1   35.40   40.80
  -3 -10  -2  -58.49   42.80
  -3 -10  -3  -63.49   45.00
  -3 -10  -4  -20.40   49.00
  -3 -10  -6 -134.09   54.59
   4 -11  -2    3.70   55.29
   4 -11  -1  -87.19   53.89
   4 -11   0  -28.60   56.19
   4 -10  -5  -90.89   51.99
   4 -10  -5  -18.90   64.69
   4 -10  -4  -69.69   60.39
   4 -10  -3  -24.00   53.79
   4 -10  -2   -7.90   49.10
   4 -10  -1  -40.20   47.90
   4 -10   0  -94.59   47.40
   4 -10   1  -63.49   47.00
   4 -10   4  -96.39   47.60
   4  -9  -7  147.19   65.79
   4  -9  -6   78.79   63.49
   4  -9  -6  -41.50   46.20
   4  -9  -5  105.29   57.39
   4  -9  -4   49.20   53.99
   4  -9  -3   43.70   47.90
   4  -9  -2   70.69   44.90
   4  -9  -1   51.29   40.60
   4  -9   0  -26.40   39.90
   4  -9   1   16.20   42.70
   4  -9   3  -55.39   43.10
   4  -9   4   29.10   42.70
   4  -9   5  379.86   98.59
   4  -9   6  108.89  101.59
   4  -9   7  -11.40  114.99
   4  -9   7  -73.59   57.89
   4  -8  -8   65.19   64.29
   4  -8  -7  -63.29   44.00
   4  -8  -7   88.19   63.59
   4  -8  -6   58.59   55.49
   4  -8  -5   55.89   49.90
   4  -8  -4   83.39   45.40
   4  -8  -3    2.80   41.70
   4  -8  -2   38.80   38.20
   4  -8  -1   27.10   34.10
   4  -8   0   20.20   34.20
   4  -8   1  -13.60   36.20
   4  -8   2   -0.50   36.10
   4  -8   3   66.19   38.20
   4  -8   4    9.00   38.00
   4  -8   5  145.19   86.99
   4  -8   6   96.19   89.79
   4  -8   7   17.30   98.49
   4  -8   8   23.40  101.09
   4  -7  -8  -32.20   45.30
   4  -7  -7  -22.70   41.20
   4  -7  -6  -14.00   36.40
   4  -7  -5   49.60   44.20
   4  -7  -4  137.29   39.50
   4  -7  -3    1.60   37.70
   4  -7  -2   59.79   37.60
   4  -7  -1   24.30   34.80
   4  -7   0  215.38   32.10
   4  -7   1   47.30   33.70
   4  -7   5  156.08   74.49
   4  -7   6   22.90   81.59
   4  -7   7   16.90   85.39
   4  -7   8   62.49   92.59
   4  -7   9   42.80   95.39
   4  -6  -8   14.00   42.70
   4  -6  -6  113.49   35.00
   4  -6  -4   32.80   40.20
   4  -6  -3  947.01   97.59
   4  -6  -2 1352.96   88.29
   4  -6  -1  711.13   84.49
   4  -6   4   51.59   71.19
   4  -6   5  363.46   70.59
   4  -6   6  293.27   70.79
   4  -6   7  209.18   77.79
   4  -6   8  -67.39   79.69
   4  -6   9    5.10   83.79
   4  -5  -6  313.77   35.50
   4  -5  -5  748.43   85.79
   4  -5  -2  149.09   25.70
   4  -5   0  477.85   63.49
   4  -5   3  248.18   58.59
   4  -5   4   25.90   58.79
   4  -5   5 1048.40  117.19
   4  -5   6  697.13  111.69
   4  -5   7   94.79   65.09
   4  -5   8   56.59   70.19
   4  -5   9  101.69   74.59
   4  -5  10  -85.59   80.29
   4  -4  -6   47.50   35.10
   4  -4  -5   69.39   30.30
   4  -4  -4   42.30   26.20
   4  -4  -1   86.59   18.00
   4  -4   2  657.73   75.29
   4  -4   3  235.88   45.20
   4  -4   4   91.69   47.70
   4  -4   5  108.29   53.99
   4  -4   6  109.89   57.89
   4  -4   7   42.90   56.39
   4  -4   8   -7.50   60.59
   4  -4   9   38.30   65.49
   4  -4  10    7.30   70.29
   4  -3  -6  296.77   35.10
   4  -3  -4   26.70   23.10
   4  -3   1  140.39   30.40
   4  -3   2  -10.30   31.90
   4  -3   3  419.16   62.39
   4  -3   4   43.90   37.80
   4  -3   5 1955.30   89.29
   4  -3   6  583.64   89.19
   4  -3   7  210.28   54.39
   4  -3   8  190.58   53.29
   4  -3   9  873.41  107.49
   4  -3  10  -48.30   63.89
   4  -3  11   99.19   76.69
   4  -2  -6 1549.14   90.79
   4  -2  -4  141.59   23.00
   4  -2  -3  528.65   52.59
   4  -2   1  305.77   41.10
   4  -2   2   86.39   24.50
  -4   2  -3  346.17   54.09
   4  -2   3  407.96   50.39
  -4   2  -4  172.68   35.70
   4  -2   4  138.79   31.10
   4  -2   5  213.88   38.10
   4  -2   6 1157.48   79.49
   4  -2   7   37.00   47.90
   4  -2   8    5.70   46.30
   4  -2   9   19.40   54.19
   4  -2  10  -33.00   61.59
   4  -2  11 -114.29   70.79
   4  -1  -4  415.86  107.39
   4  -1  -3  454.05   90.29
   4  -1   1  364.36   37.50
  -4   1  -2  566.64   48.10
   4  -1   2  583.34   41.10
  -4   1  -3  370.36   51.69
   4  -1   3  439.56   44.10
  -4   1  -4  374.86   61.69
   4  -1   4  290.47   50.59
   4  -1   5  681.43   61.19
   4  -1   6  388.16   65.89
   4  -1   7  140.59   42.60
   4  -1   8   15.20   44.50
   4  -1   9   45.90   50.99
   4  -1  10  -37.00   59.09
   4   0  -2 2783.62   96.59
  -4   0  -1 2177.78   53.89
  -4   0  -1 2190.08   40.10
  -4   0  -2 2695.13   61.89
   4   0   2 2683.23   45.00
   4   0   2 2662.93   57.69
  -4   0  -3  456.55   51.09
   4   0   3  403.56   41.00
   4   0   3  466.25   31.30
  -4   0  -4  -29.00   31.20
   4   0   4   32.30   24.10
  -4   0  -5 1390.76   76.69
   4   0   5 1657.03   62.09
   4   0   6 2081.29   77.89
   4   0   7  786.32   82.49
   4   0   8   -7.50   43.90
   4   0   9   94.69   49.60
   4   0  10  -45.30   55.89
  -4  -1   0  285.47   26.50
  -4  -1  -1  428.86   46.20
   4   1   1  406.86   43.60
  -4  -1  -2  600.74   51.69
   4   1   2  584.64   47.70
  -4  -1  -3  399.46   52.79
   4   1   3  428.06   45.80
  -4  -1  -4  204.58   30.40
   4   1   4  218.68   28.50
   4   1   6  194.68   38.80
   4   1   7   90.79   42.90
   4   1   8   64.29   43.00
   4   2  -4   82.19   16.30
  -4  -2   1  382.56   30.20
   4   2  -1  382.06   32.70
  -4  -2   0  688.03   30.80
  -4  -2   0  707.93   48.60
   4   2   0  742.63   30.30
  -4  -2  -1  294.07   46.80
   4   2   1  220.88   28.30
  -4  -2  -2   96.39   26.50
   4   2   2  116.89   27.40
  -4  -2  -3  346.87   57.39
   4   2   3  390.56   52.29
  -4  -2  -4  130.09   35.30
   4   2   4  146.09   31.60
   4   2   5  248.98   37.10
   4   2   6 1084.69   77.79
   4   2   7    0.40   45.20
   4   2   8    0.40   44.50
   4   2   9  -16.60   50.39
   4   3  -4   28.30   17.80
  -4  -3   3  359.86   39.10
   4   3  -3  324.57   47.00
  -4  -3   2    7.50   22.60
  -4  -3   1  159.38   20.90
   4   3  -1  174.18   22.90
  -4  -3   0  448.76   57.99
   4   3   0  365.46   43.40
  -4  -3  -1  116.89   27.80
  -4  -3  -2   20.20   29.50
  -4  -3  -3  244.48   34.60
   4   3   3  397.56   63.79
  -4  -3  -4  -26.00   32.20
   4   3   4   62.29   36.70
   4   3   5 1555.14   84.39
   4   3   6  340.17   48.00
   4   3   7  121.79   48.60
   4   3   8  161.78   49.80
  -4  -4   3  152.58   23.90
   4   4  -1   69.49   18.40
   4   4   0  695.23   50.29
  -4  -4  -1  150.38   34.90
   4   4   1   97.19   17.20
  -4  -4  -2  427.86   63.79
   4   4   5   72.29   50.69
   4   4   6  102.89   54.29
   4   4   7   30.30   51.09
   4   4   8  -25.50   55.89
  -4  -5   4   69.89   32.90
  -4  -5   3  187.28   29.80
  -4  -5  -2  125.39   23.80
  -4  -6   5  205.88   40.00
  -4  -6   4   75.79   38.20
  -4  -6   3 1387.26  104.29
  -4  -6   2 1670.23   89.29
  -4  -7   5  -53.89   40.90
  -4  -7   4  119.69   39.30
  -4  -7   3   19.00   37.60
  -4  -8   6  -36.30   50.99
  -4  -8   5  -32.40   46.30
  -4  -8   4  -24.60   42.30
  -4  -8   3   38.40   38.60
  -4  -8   2    2.90   31.40
  -4  -8  -2   20.90   33.80
  -4  -9   6  -56.99   56.19
  -4  -9   5    6.70   51.69
  -4  -9   4  -57.49   47.90
  -4  -9   3  -50.39   43.20
  -4  -9   2  -36.10   35.90
  -4  -9  -2  -47.90   39.40
  -4 -10   5  -64.69   55.99
  -4 -10   4 -115.39   53.29
  -4 -10  -4 -125.79   51.09
   5 -11  -2  -65.59   60.89
   5 -11  -1  -48.00   55.39
   5 -10  -5 -113.49   90.19
   5 -10  -4  -31.00   61.99
   5 -10  -3  -35.30   57.29
   5 -10  -2  -36.50   52.99
   5 -10  -1   17.70   50.59
   5 -10   2 -109.39   50.49
   5 -10   5  125.89  112.79
   5  -9  -6   30.20   64.59
   5  -9  -5   74.69   58.79
   5  -9  -4   13.20   55.79
   5  -9  -3   82.99   51.79
   5  -9  -2  -25.30   47.00
   5  -9  -1   21.10   43.60
   5  -9   0  -34.00   43.00
   5  -9   1   21.00   46.50
   5  -9   4  267.77   99.59
   5  -9   5  119.09  103.19
   5  -9   5  -91.19   50.39
   5  -9   6 -108.09   55.29
   5  -9   6   80.19  110.09
   5  -8  -7   62.69   65.19
   5  -8  -6   -0.20   56.59
   5  -8  -5   49.80   51.59
   5  -8  -5  -43.50   39.20
   5  -8  -4  -66.99   47.20
   5  -8  -3   -7.20   44.70
   5  -8  -2   18.10   41.00
   5  -8  -1   55.49   37.00
   5  -8   1   88.59   39.30
   5  -8   2  -46.40   38.70
   5  -8   4   86.49   87.29
   5  -8   5    3.10   89.09
   5  -8   6  115.69   97.39
   5  -8   7    2.50  100.89
   5  -7  -5   16.10   46.60
   5  -7  -5    7.50   35.60
   5  -7  -4   48.50   41.50
   5  -7  -3   31.30   38.40
   5  -7  -2   23.10   38.30
   5  -7   4  104.69   74.69
   5  -7   5   61.79   80.49
   5  -7   6   54.79   83.69
   5  -7   7  -57.79   89.29
   5  -7   8  -27.90   98.29
   5  -6  -6   49.00   35.00
   5  -6  -4  242.08   41.90
   5  -6  -3   48.10   36.50
   5  -6  -2   33.60   33.00
   5  -6  -1   74.89   32.70
   5  -6   3  101.19   70.49
   5  -6   4  368.46   72.89
   5  -6   5   26.80   67.89
   5  -6   6  204.28   73.79
   5  -6   7   29.60   77.79
   5  -6   8  157.28   85.69
   5  -6   9  -38.10   90.39
   5  -5  -6   97.59   34.60
   5  -5  -4   40.90   29.80
   5  -5   2  109.19   55.49
   5  -5   3    8.60   58.19
   5  -5   4   58.69   61.69
   5  -5   5    6.60   64.49
   5  -5   6  189.38   63.99
   5  -5   7  -42.00   67.49
   5  -5   8   75.99   74.09
   5  -5   9   33.30   80.09
   5  -5  10  -62.89   82.09
   5  -4  -6  140.29   35.70
   5  -4  -5  -14.50   31.20
   5  -4  -4   81.99   28.00
   5  -4   2  158.88   43.70
   5  -4   3   93.29   46.50
   5  -4   4  184.58   51.79
   5  -4   5   81.29   55.09
   5  -4   6  177.68   59.39
   5  -4   7   65.89   58.99
   5  -4   8  -24.80   65.29
   5  -4   9  -23.00   67.09
   5  -4  10   23.70   74.59
   5  -3  -6   59.89   38.00
   5  -3  -5   58.19   32.30
   5  -3  -4  935.11   76.89
   5  -3   2  122.79   32.90
   5  -3   3  570.74   66.19
   5  -3   4  931.31   75.69
   5  -3   5   83.89   45.50
   5  -3   6  118.09   53.09
   5  -3   7  100.89   52.29
   5  -3   8  153.38   56.89
   5  -3   9   75.49   61.39
   5  -3  10  -16.40   69.69
   5  -2  -6   61.29   34.30
   5  -2  -4  133.69   24.30
  -5   2  -2 1311.17   60.39
   5  -2   2 1262.27   54.69
  -5   2  -3  196.38   35.00
   5  -2   3  152.68   30.40
   5  -2   4  185.18   34.60
   5  -2   5  113.59   39.70
   5  -2   6    1.80   44.70
   5  -2   7  -14.00   48.40
   5  -2   8  -19.80   49.90
   5  -2  10  -65.69   64.99
   5  -2  11 -150.58   75.89
  -5   1  -2   39.90   27.90
   5  -1   2   46.40   19.40
  -5   1  -3   49.40   32.50
   5  -1   3   79.09   28.00
  -5   1  -4   15.40   33.90
   5  -1   4   27.40   25.30
   5  -1   5  177.98   33.30
   5  -1   6   82.59   39.10
   5  -1   7   44.40   45.80
   5  -1   8   25.20   47.30
   5  -1   9    2.30   54.79
   5  -1  10  -40.90   61.59
   5  -1  11  -82.19   70.59
   5   0  -2 1739.63   90.89
  -5   0  -1   11.20   23.50
  -5   0  -1  -10.00   18.30
   5   0   1   17.00   21.80
  -5   0  -2 1693.53   57.39
   5   0   2 1687.53   51.89
   5   0   2 1695.63   36.40
  -5   0  -3  476.75   58.39
   5   0   3  537.15   33.40
   5   0   3  513.05   49.90
  -5   0  -4   18.40   34.40
   5   0   4   62.59   28.00
   5   0   5   35.20   33.80
   5   0   6   95.69   41.00
   5   0   7  136.09   45.80
   5   0   8  182.88   46.30
   5   0   9  -43.30   51.39
   5   0  10  -67.69   58.49
   5   0  11  -73.49   67.59
  -5  -1   0   79.79   18.50
   5   1   0   60.39   17.90
  -5  -1  -1   93.79   26.60
   5   1   1   73.89   24.80
   5   1   1  115.39   16.40
  -5  -1  -2   37.10   29.00
   5   1   2   74.09   26.50
  -5  -1  -3   38.60   31.20
   5   1   3   96.69   28.90
   5   1   3   78.89   21.30
  -5  -1  -4    7.40   29.20
   5   1   4   42.30   29.90
   5   1   5  213.88   35.90
   5   1   6   70.79   40.40
   5   1   7   30.00   44.50
   5   1   8  -12.50   44.10
   5   1   9  -18.70   50.99
  -5  -2   1  252.87   22.00
   5   2  -1  243.28   22.50
  -5  -2   0  312.67   47.90
   5   2   0  314.37   30.10
  -5  -2  -1  193.08   29.70
   5   2   1  195.38   29.80
  -5  -2  -2 1167.38   61.89
   5   2   2 1217.18   60.19
  -5  -2  -3  123.19   34.50
   5   2   3  139.59   31.90
   5   2   4  141.99   35.00
   5   2   5  168.08   40.10
   5   2   6   39.70   44.10
   5   2   7   53.39   45.60
   5   2   8  -51.99   45.90
   5   2   9  -41.80   50.99
   5   2  10  -14.10   58.29
  -5  -3   3  413.96   36.70
  -5  -3   2  118.99   24.90
   5   3  -2  142.19   29.20
  -5  -3   1   13.40   34.20
   5   3  -1   66.39   24.50
  -5  -3   0  -49.40   22.80
  -5  -3   0  -11.70   31.20
  -5  -3  -1   27.40   29.10
  -5  -3  -2  124.19   34.80
   5   3   2  104.19   35.20
   5   3   3  443.86   68.79
   5   3   4  790.02   76.69
   5   3   5   97.19   45.80
   5   3   6   37.10   49.20
   5   3   7  106.19   48.60
   5   3   8  121.39   51.69
   5   3  10  -37.80   63.89
  -5  -4   1   83.99   27.00
   5   4  -1   43.90   18.30
  -5  -4   0   92.39   39.30
   5   4   0   56.69   18.50
  -5  -4  -1   17.10   32.10
   5   4   4  177.08   49.99
   5   4   5  -19.10   54.39
   5   4   6  115.79   54.99
   5   4   7  -24.80   53.09
   5   4   8   99.49   59.49
   5   4   9  -19.20   64.59
   5   4  10   85.89   75.19
  -5  -5   4   10.00   35.60
   5   5   9   39.90   72.69
  -5  -6   4  215.38   39.50
  -5  -6   3   58.59   37.50
  -5  -7   3  -23.90   38.40
  -5  -8   4  -25.90   45.20
  -5  -8   3  -33.40   42.70
  -5  -9   5  -19.10   52.59
  -5  -9   4  -63.29   49.70
  -5  -9  -3  -11.10   44.80
  -5  -9  -5  -79.89   48.80
  -5  -9  -6 -128.29   53.39
  -5 -10   5  -91.99   59.39
  -5 -10   3  -55.19   53.89
   6 -10  -4  -30.80   64.49
   6 -10  -3  -28.50   61.99
   6 -10  -1  -80.69   55.39
   6 -10   3  193.18  116.99
   6 -10   4   82.09  123.89
   6  -9  -6  -49.90   63.09
   6  -9  -5  174.38   62.99
   6  -9  -4   38.60   58.49
   6  -9  -3   34.60   54.19
   6  -9  -2    7.20   50.59
   6  -9   3  240.58  101.39
   6  -9   4    2.70  104.59
   6  -9   4  -99.59   46.70
   6  -9   5  261.37  113.19
   6  -9   6   29.60  105.29
   6  -8  -7   59.09   67.49
   6  -8  -6   20.70   60.09
   6  -8  -5   75.79   55.39
   6  -8  -4   31.10   50.59
   6  -8  -3  -18.10   48.30
   6  -8  -2   13.80   44.70
   6  -8   3  196.48   88.99
   6  -8   4  213.88   91.19
   6  -8   5  125.29   99.29
   6  -8   6    8.20  100.19
   6  -8   7  -95.49  104.99
   6  -7  -6  -30.30   39.70
   6  -7  -5  281.07   51.09
   6  -7  -4   -3.60   43.60
   6  -7   2   58.09   73.19
   6  -7   3    3.00   74.99
   6  -7   4   -5.40   79.39
   6  -7   5  367.86   85.79
   6  -7   6   71.79   87.49
   6  -7   7  -27.20   92.89
   6  -7   8  -67.99  100.79
   6  -6  -9  -51.39   48.20
   6  -6  -4    7.80   41.30
   6  -6  -3    3.90   38.10
   6  -6   2  995.90  119.99
   6  -6   3   97.09   70.79
   6  -6   4   16.00   69.59
   6  -6   5   53.09   71.69
   6  -6   6  233.98   77.99
   6  -6   7   18.50   82.69
   6  -6   8   23.50   87.09
   6  -6   9 -126.19   92.39
   6  -5  -9   -3.80   54.99
   6  -5  -8   11.10   48.10
   6  -5  -4   19.20   31.90
   6  -5   2   12.20   57.69
   6  -5   3   -9.90   60.79
   6  -5   4   35.40   64.69
   6  -5   5    0.70   62.39
   6  -5   6   48.10   64.89
   6  -5   7  172.28   71.69
   6  -5   8   48.30   79.89
   6  -5   9  -75.59   83.29
   6  -4   2 1328.07   86.49
   6  -4   3  241.58   50.49
   6  -4   4   62.19   54.69
   6  -4   5   44.10   57.09
   6  -4   6   33.30   57.39
   6  -4   7   66.29   62.19
   6  -4   8   -2.30   67.49
   6  -4   9  -25.00   74.39
   6  -4  10  -11.70   81.99
   6  -3  -8   86.09   45.60
   6  -3  -6  190.08   38.70
   6  -3   2  140.59   35.50
   6  -3   3  598.14   70.79
   6  -3   4   15.80   44.30
   6  -3   5  844.32   92.39
   6  -3   6  218.28   53.69
   6  -3   7  161.18   53.79
   6  -3   8   45.30   58.99
   6  -3   9  155.98   67.99
   6  -3  10  -82.19   74.49
  -6   2  -2   41.70   35.10
   6  -2   2   34.70   28.50
  -6   2  -3  144.79   35.80
   6  -2   3  110.19   32.50
   6  -2   4  139.99   38.00
   6  -2   5   51.99   42.50
   6  -2   6  475.85   85.69
   6  -2   7   -9.60   48.20
   6  -2   8    3.40   54.59
   6  -2   9   75.19   62.39
   6  -2  10 -141.59   68.79
  -6   1  -2  101.79   33.70
   6  -1   2   79.69   24.20
  -6   1  -3    2.00   36.60
   6  -1   3   14.70   23.80
   6  -1   3   21.40   25.90
   6  -1   4   43.40   30.20
   6  -1   5  308.37   34.80
   6  -1   5  396.46   68.89
   6  -1   6  130.39   44.00
   6  -1   7   41.60   47.00
   6  -1   8    1.40   51.69
   6  -1   9   74.19   59.69
   6  -1  10  -61.19   63.99
   6  -1  11 -124.19   73.29
  -6   0  -2    0.00   31.60
   6   0   2    6.30   20.20
   6   0   2   -7.30   26.70
  -6   0  -3  114.29   36.80
   6   0   3  165.08   29.60
   6   0   3  142.59   22.80
   6   0   4   51.29   32.10
   6   0   5   12.40   37.70
   6   0   6  952.20   80.59
   6   0   7   -1.20   45.40
   6   0   8   55.49   48.10
   6   0   9  -55.89   54.69
   6   0  10   42.70   61.79
   6   0  11  -18.80   71.49
  -6  -1  -1  228.78   33.00
  -6  -1  -1  319.17   32.50
   6   1   1  322.37   28.40
   6   1   1  310.47   52.59
  -6  -1  -2  101.99   33.50
   6   1   2   77.39   30.30
   6   1   2   88.39   20.90
  -6  -1  -3   31.10   34.00
   6   1   3    1.50   32.80
   6   1   4   49.40   35.60
   6   1   5  403.36   71.29
   6   1   6  107.69   44.40
   6   1   7   40.80   45.10
   6   1   8  -26.50   48.10
   6   1   9   37.70   54.99
   6   1  10  -52.09   62.69
   6   1  11  -96.09   71.69
  -6  -2   0  803.92   38.20
  -6  -2  -1   42.10   32.40
  -6  -2  -1   36.60   23.10
   6   2   1   61.89   33.00
  -6  -2  -2   14.20   34.20
   6   2   2   34.40   34.10
   6   2   3  115.49   36.40
   6   2   4  152.08   39.40
   6   2   5   60.89   42.60
   6   2   6  329.97   48.70
   6   2   7  -50.29   45.80
   6   2   8    9.00   48.40
   6   2   9   40.10   54.59
   6   2  10  -16.70   61.69
  -6  -3   1 1100.29   41.10
  -6  -3   0   48.30   24.30
  -6  -3   0  -22.90   33.50
   6   3   0   36.70   24.90
  -6  -3  -1 1075.49   71.49
  -6  -3  -1 1091.69   43.40
   6   3   2  170.28   41.20
   6   3   3  511.05   79.89
   6   3   4   14.00   45.00
   6   3   5  654.63   91.39
   6   3   6  164.08   51.59
   6   3   7   87.69   49.80
   6   3   8  -24.80   54.09
   6   3   9   73.79   60.09
   6   3  10  -34.00   65.99
   6   4  -2 1466.05   65.29
  -6  -4   1   84.29   42.50
   6   4   4  -38.20   53.69
   6   4   5   42.10   58.59
   6   4   6    8.30   54.09
   6   4   7    0.30   55.79
   6   4   8  -15.40   60.89
   6   4   9   -3.30   67.19
   6   5   8  -10.80   68.99
   6   5   9  -34.60   75.79
  -6  -7  -7  -78.19   48.10
  -6  -8  -5  -90.89   45.50
  -6  -9  -5    9.80   53.39
  -6  -9  -6 -138.19   57.09
   7 -10  -2 -104.89   61.59
   7 -10   2   59.29  121.19
   7 -10   3  149.29  126.19
   7  -9  -5  -53.29   66.09
   7  -9  -4   26.50   63.79
   7  -9  -3   -7.00   57.99
   7  -9   2    1.00   99.29
   7  -9   3   -9.70  102.49
   7  -9   4    7.00  114.19
   7  -9   5  167.68  121.09
   7  -8  -7   83.79   72.29
   7  -8  -6    4.10   63.09
   7  -8  -5   97.99   57.99
   7  -8  -4   88.89   54.89
   7  -8   3   81.19   92.99
   7  -8   4   15.40   96.69
   7  -8   5   30.00  102.19
   7  -8   6   14.80  107.99
   7  -7  -7  -61.79   44.50
   7  -7  -4   77.39   48.60
   7  -7   2   42.50   73.09
   7  -7   3   84.29   79.09
   7  -7   4   49.30   84.59
   7  -7   5  125.49   88.39
   7  -7   6   45.40   93.69
   7  -7   7 -115.39   98.49
   7  -6  -6  -25.10   40.00
   7  -6  -4  218.78   44.50
   7  -6   2   83.69   66.59
   7  -6   3  136.19   70.09
   7  -6   4  230.38   72.49
   7  -6   5   61.69   76.19
   7  -6   6  -64.69   80.79
   7  -6   7  -77.19   84.29
   7  -6   8  -68.59   94.09
   7  -5  -9   -4.10   59.09
   7  -5  -7  -26.30   43.60
   7  -5  -6    9.90   38.10
   7  -5   3   10.20   62.59
   7  -5   4   24.20   64.79
   7  -5   5  309.67   66.09
   7  -5   6   48.70   68.79
   7  -5   7    5.70   74.89
   7  -5   8  -59.99   79.59
   7  -5   9 -101.29   89.49
   7  -4  -7   54.19   42.60
   7  -4  -6   41.50   36.20
   7  -4  -5   12.50   33.30
   7  -4   3   95.39   52.19
   7  -4   4   26.20   56.09
   7  -4   5  -37.30   57.29
   7  -4   6  -18.30   59.19
   7  -4   7    5.50   63.29
   7  -4   8   -6.80   71.59
   7  -4   9  -59.29   79.59
   7  -3  -9   52.79   55.79
   7  -3  -6   24.10   37.10
   7  -3   3  594.64   79.09
   7  -3   4   15.30   47.20
   7  -3   5  563.24   90.59
   7  -3   6   15.20   51.69
   7  -3   7   93.99   57.59
   7  -3   8  -26.00   65.39
   7  -3   9   19.40   73.89
   7  -3  10 -138.79   82.29
   7  -2  -7   45.90   39.30
   7  -2  -6   58.69   36.80
  -7   2  -2  102.79   42.70
   7  -2   3   79.29   39.00
   7  -2   4   83.69   43.20
   7  -2   5  117.19   45.40
   7  -2   6   44.40   49.00
   7  -2   7   -3.10   51.19
   7  -2   8   25.40   60.89
   7  -2   9   -2.30   67.39
   7  -2  10  -38.20   76.69
  -7   1  -2   49.80   40.00
   7  -1   2   71.59   30.50
   7  -1   3   92.09   33.60
   7  -1   4   99.89   37.90
   7  -1   5  132.69   43.50
   7  -1   6   67.99   47.60
   7  -1   7   20.20   49.40
   7  -1   8  -22.00   56.09
   7  -1   9   15.20   61.89
   7  -1  10  -49.20   68.59
  -7   0  -2  240.48   24.10
  -7   0  -2  182.88   39.10
   7   0   2  196.38   33.00
   7   0   2  242.38   23.50
   7   0   3  497.45   64.29
   7   0   4  802.32   72.89
   7   0   5   69.59   41.90
   7   0   6   21.00   45.90
   7   0   7  -16.30   46.60
   7   0   8  189.08   54.39
   7   0   9   17.60   58.69
   7   0  10   13.10   65.29
   7   1   1  491.15   34.20
   7   1   1  480.35   61.79
  -7  -1  -2   17.00   37.60
   7   1   2   93.69   35.10
   7   1   3   75.99   38.50
   7   1   4  102.99   42.20
   7   1   5  146.89   45.50
   7   1   6   90.09   47.30
   7   1   7  -38.40   47.10
   7   1   8  -15.80   53.09
   7   1   9  -38.90   57.59
   7   1  10   10.20   66.29
  -7  -2   0   -0.80   20.50
   7   2   0   33.40   24.40
  -7  -2  -1  107.29   38.90
   7   2   1  108.89   38.50
   7   2   2  139.99   41.00
   7   2   3   41.90   42.40
   7   2   4   27.30   44.10
   7   2   5  168.68   48.00
   7   2   6   16.90   47.20
   7   2   7   -7.40   47.60
   7   2   8   29.40   52.59
   7   2   9  -38.20   56.69
   7   2  10  -24.80   64.29
  -7  -3   0  -51.09   39.50
   7   3   0   25.60   28.00
   7   3   2   30.20   47.60
   7   3   3  546.55   90.69
   7   3   4   23.80   49.90
   7   3   5  374.66   55.69
   7   3   6    5.30   50.79
   7   3   7   69.69   53.69
   7   3   8   51.79   58.09
   7   3   9  -44.70   61.79
   7   3  10  -61.99   73.09
   7   4   4   26.00   60.19
   7   4   5   25.40   57.69
   7   4   6  -26.10   56.69
   7   4   7   22.70   60.59
   7   4   8   -0.60   63.79
   7   4   9  -37.10   69.89
   7   5   7   15.70   68.39
   7   5   8   -3.30   73.49
   7   5   9  -34.50   79.99
  -7  -6  -7 -108.39   44.90
  -7  -7  -6 -105.09   47.10
  -7  -8  -6 -117.09   53.49
  -7  -8  -7 -119.09   57.99
   8 -10  -1   85.89  103.39
   8 -10   0  130.09  114.29
   8 -10   1   61.79  109.89
   8  -9  -4  -14.30   68.89
   8  -9   2  117.39  103.69
   8  -9   3  -37.70  112.59
   8  -9   4  -40.50  118.49
   8  -8  -6   86.09   69.19
   8  -8  -5   16.70   62.59
   8  -8  -4   33.50   57.69
   8  -8   3  115.79   96.49
   8  -8   4   98.79  102.49
   8  -8   5  -53.79  109.09
   8  -8   6   -7.80  115.59
   8  -7  -7   -7.90   46.80
   8  -7  -6   32.20   62.99
   8  -7  -5  -10.40   55.59
   8  -7   3   98.49   83.09
   8  -7   4  149.99   89.59
   8  -7   5    7.10   94.99
   8  -7   6   -1.30   98.59
   8  -7   7   22.90  102.79
   8  -6  -8  -14.50   52.29
   8  -6   3  250.77   71.19
   8  -6   4  113.79   78.09
   8  -6   5   61.89   80.29
   8  -6   6   32.60   84.39
   8  -6   7   19.00   91.49
   8  -6   8   12.30   92.19
   8  -5  -8  -32.40   53.69
   8  -5  -7   30.00   47.30
   8  -5  -6  -20.40   40.90
   8  -5   4   89.79   62.69
   8  -5   5    5.60   68.29
   8  -5   6  -82.49   73.29
   8  -5   7  -47.60   76.99
   8  -5   8  -38.40   84.79
   8  -4  -8   73.39   52.59
   8  -4   3  279.57   58.49
   8  -4   4  148.09   57.69
   8  -4   5   72.39   57.49
   8  -4   6   18.50   61.69
   8  -4   7   21.80   68.99
   8  -4   8  -67.69   76.49
   8  -4   9   17.80   90.69
   8  -3  -9   76.79   60.49
   8  -3  -8   80.99   52.29
   8  -3  -5   42.30   36.80
   8  -3   2   24.30   44.20
   8  -3   3   80.99   48.30
   8  -3   4  172.48   53.29
   8  -3   5  100.79   53.29
   8  -3   6   17.20   56.09
   8  -3   7  128.99   62.99
   8  -3   8  108.29   58.29
   8  -3   8   69.69   71.49
   8  -3   9  114.69   83.49
   8  -3   9  120.09   66.79
   8  -2  -8   64.89   48.80
   8  -2   2  194.38   39.50
   8  -2   3  135.69   42.10
   8  -2   4  163.08   46.60
   8  -2   5   62.39   49.90
   8  -2   6  119.79   51.59
   8  -2   7  130.39   58.49
   8  -2   8   20.40   64.49
   8  -2   9   76.39   63.09
   8  -2   9 -106.49   74.29
   8  -2  10  -77.99   78.29
   8  -2  10   48.00   67.89
   8  -1   3  107.09   42.80
   8  -1   4   48.20   45.90
   8  -1   5  170.78   50.59
   8  -1   6    5.80   49.40
   8  -1   7   42.00   54.29
   8  -1   8   44.70   60.29
   8  -1   9  -44.00   66.19
   8  -1  10  -97.99   73.89
   8   0   2 2049.70   80.59
   8   0   3  556.34   76.49
   8   0   3  513.55   45.90
   8   0   4  210.88   45.50
   8   0   5   12.20   47.60
   8   0   6  481.65   85.39
   8   0   7  213.88   51.99
   8   0   8  -41.10   57.49
   8   0   9  -21.60   63.09
   8   0  10  -49.99   71.69
   8   1   2  -30.60   41.80
   8   1   3   74.09   44.60
   8   1   4   37.70   32.70
   8   1   4   75.39   47.50
   8   1   5  127.19   50.89
   8   1   6  -36.80   48.00
   8   1   7   14.10   51.79
   8   1   8   -7.60   57.99
   8   1   9   -2.80   63.29
   8   1  10 -106.99   69.59
   8   2   1  102.89   47.20
   8   2   2  220.48   30.20
   8   2   2  169.78   47.40
   8   2   3  100.29   30.30
   8   2   3   87.79   49.50
   8   2   4  156.38   50.39
   8   2   5  -10.10   49.70
   8   2   6   98.99   48.80
   8   2   7   85.09   52.89
   8   2   8  -32.40   56.79
   8   2   9  -25.20   62.09
   8   2  10  -29.40   69.89
   8   3   2   24.20   55.49
   8   3   3  110.89   56.19
   8   3   4  127.79   56.49
   8   3   5   41.50   53.19
   8   3   6   16.50   53.69
   8   3   7   91.39   58.49
   8   3   8    8.40   61.69
   8   3   9   32.00   67.59
   8   4   0  170.18   36.90
   8   4   4   92.39   61.19
   8   4   5   52.99   59.99
   8   4   6    6.50   61.99
   8   4   7  -21.80   65.69
   8   4   8  -12.10   69.09
   8   4   9   -6.00   76.19
   8   5   7   10.30   73.99
   8   5   8   33.40   79.19
   9  -9   2  -70.39  108.29
   9  -9   3  232.28  122.29
   9  -8   4   26.60  109.49
   9  -8   5 -119.39  117.39
   9  -7  -6   -3.10   47.40
   9  -7   4  -40.80   91.19
   9  -7   5  110.29   98.79
   9  -7   6  -69.59  105.59
   9  -6  -7  -56.09   53.39
   9  -6  -6  -50.19   46.60
   9  -6   3   89.79   72.39
   9  -6   4  100.79   78.19
   9  -6   5  -22.00   53.89
   9  -6   5  -53.19   84.59
   9  -6   6  -12.10   89.39
   9  -6   7   -5.70   95.49
   9  -5  -8   37.20   56.69
   9  -5  -7  -55.09   50.69
   9  -5   3   -1.60   62.39
   9  -5   4  -55.79   67.79
   9  -5   5   67.39   72.59
   9  -5   6  -36.70   77.09
   9  -5   6  -18.40   54.89
   9  -5   7   40.50   62.89
   9  -5   7 -110.99   82.59
   9  -5   8   -8.00   89.79
   9  -5   8   93.29   69.49
   9  -4   3   40.20   53.49
   9  -4   4   47.50   57.19
   9  -4   5  -13.10   61.99
   9  -4   6   -9.90   67.99
   9  -4   7  113.69   58.79
   9  -4   7  -25.70   74.49
   9  -4   8  173.08   67.09
   9  -4   8   88.19   85.59
   9  -3  -7  -31.20   48.60
   9  -3  -6   91.69   44.00
   9  -3   4   22.00   52.39
   9  -3   5   24.10   56.69
   9  -3   6   98.09   62.29
   9  -3   7   13.50   68.39
   9  -3   8   -8.10   62.19
   9  -3   8  -74.19   77.09
   9  -3   9   73.59   68.59
   9  -3   9 -124.39   83.29
   9  -2   3  180.58   50.99
   9  -2   4   57.89   51.79
   9  -2   5  -13.40   51.89
   9  -2   6  -15.20   56.69
   9  -2   7  -47.20   63.79
   9  -2   8   58.49   71.89
   9  -2   9  -11.10   79.69
   9  -2   9    3.50   67.09
   9  -1   3   69.19   48.50
   9  -1   4   76.69   50.79
   9  -1   5   -1.00   49.40
   9  -1   5   12.60   35.00
   9  -1   6  -14.50   51.89
   9  -1   7    6.70   56.99
   9  -1   8  -65.09   63.59
   9  -1   9  -58.29   73.09
   9   0   2   51.99   30.40
   9   0   3  301.37   50.69
   9   0   3  298.37   33.80
   9   0   4  154.48   50.49
   9   0   4  165.88   35.70
   9   0   5  -48.00   47.80
   9   0   6  -11.00   49.99
   9   0   8   -6.40   60.99
   9   0   9  -35.20   69.29
   9   1   2   32.10   49.50
   9   1   3   73.49   50.89
   9   1   4   94.89   52.29
   9   1   5  -30.40   49.10
   9   1   6   -3.10   51.29
   9   1   7  -38.10   56.29
   9   1   8  -20.40   62.29
   9   1   9  -33.20   68.19
   9   2   2  -11.10   54.69
   9   2   3  203.78   57.39
   9   2   4   44.30   54.49
   9   2   5   23.80   50.79
   9   2   6   74.99   53.29
   9   2   7   -3.50   56.89
   9   2   8  -37.20   62.39
   9   2   9  -36.60   68.69
   9   3   2   60.29   62.69
   9   3   3   73.99   61.69
   9   3   4   21.60   56.79
   9   3   5  -12.80   56.49
   9   3   6   10.20   58.99
   9   3   7    0.60   61.99
   9   3   8   28.50   68.19
   9   3   9   -5.90   73.49
   9   4  -2    0.20   42.60
   9   4   4   63.29   63.79
   9   4   5  -20.70   65.69
   9   4   6   43.90   67.99
   9   4   7  -30.30   71.59
   9   4   8   13.80   76.19
   9   5   7   31.50   79.39
   9   5   8   25.20   84.19
  10  -8   4   -8.70  116.19
  10  -7   5  -63.69   62.59
  10  -7   5   15.80  108.49
  10  -6  -6  -43.70   52.29
  10  -6   5   96.39   58.69
  10  -6   5   78.89   88.39
  10  -6   6  -33.80   96.59
  10  -6   6   32.70   65.69
  10  -5  -7  -57.69   56.69
  10  -5  -6  -21.50   49.40
  10  -5   4  -23.40   70.19
  10  -5   5  -62.69   77.29
  10  -5   6 -131.79   83.09
  10  -5   6   44.00   61.59
  10  -5   7  -45.70   92.79
  10  -5   7  -16.10   68.79
  10  -4  -8   64.49   58.89
  10  -4   4  261.57   65.69
  10  -4   5  -47.00   69.69
  10  -4   6   37.60   77.59
  10  -4   7   34.30   84.09
  10  -4   7   -1.60   63.09
  10  -4   8  -34.90   88.19
  10  -4   8   55.79   68.29
  10  -3  -7  110.59   53.29
  10  -3   3  140.69   54.29
  10  -3   4   28.50   58.29
  10  -3   5   27.50   63.79
  10  -3   6  101.79   71.09
  10  -3   7  139.69   76.29
  10  -3   7  159.68   55.99
  10  -3   8  -73.99   85.19
  10  -3   8  -13.20   61.19
  10  -2  -8  -13.70   56.79
  10  -2  -7  -11.10   50.49
  10  -2   4  -17.80   54.89
  10  -2   5   -6.40   58.99
  10  -2   6  -30.50   64.49
  10  -2   7   15.70   68.99
  10  -2   8 -120.69   74.49
  10  -2   8   64.89   58.39
  10  -1  -9  109.09   56.79
  10  -1   3   23.40   52.39
  10  -1   4  -56.79   51.19
  10  -1   5  -62.89   53.59
  10  -1   6   23.40   58.19
  10  -1   7  -73.79   62.89
  10  -1   8 -116.59   69.09
  10   0   3   17.60   54.79
  10   0   4  -31.30   51.49
  10   0   5  145.59   54.09
  10   0   6  -28.00   55.99
  10   0   7  -68.09   60.29
  10   0   8 -100.59   66.39
  10   0   9  -48.30   69.99
  10   1   2   12.70   56.69
  10   1   3   71.59   54.59
  10   1   4  -12.60   51.59
  10   1   5  -61.09   52.99
  10   1   6  -37.20   56.09
  10   1   7  -32.70   59.99
  10   1   8  -76.29   65.49
  10   1   9  -45.70   69.19
  10   2   2  118.29   36.70
  10   2   3   18.10   57.69
  10   2   4   23.40   56.89
  10   2   5   18.70   56.99
  10   2   6   -7.80   58.89
  10   2   7  -28.70   61.09
  10   2   8  -75.79   66.79
  10   3   0  272.57   38.20
  10   3   2  113.29   63.99
  10   3   3  182.98   64.19
  10   3   4   58.89   62.39
  10   3   5  -10.20   62.79
  10   3   6   13.00   64.79
  10   3   7  -32.00   67.79
  10   3   8  -37.80   74.09
  10   4  -1  -31.90   39.30
  10   4   4  128.99   70.79
  10   4   5  -56.79   72.09
  10   4   6  -72.09   72.79
  10   4   7   21.80   76.09
  10   4   8  -45.30   78.99
  10   7  -5   79.09  159.48
  11  -7   4 -122.49  102.39
  11  -6  -6  -23.50   55.99
  11  -6  -5  -87.89   49.70
  11  -6   4   -5.10   86.79
  11  -6   5 -146.19   95.49
  11  -6   5   32.60   59.29
  11  -6   6  157.18   66.69
  11  -5  -6  -51.69   54.69
  11  -5  -5   -1.60   47.80
  11  -5   4  -35.20   76.29
  11  -5   5  -83.29   85.59
  11  -5   6   71.39   61.69
  11  -5   6 -157.68   96.09
  11  -4  -7  -10.20   61.59
  11  -4  -6   59.29   57.39
  11  -4  -5   48.20   50.99
  11  -4   4  -44.30   70.69
  11  -4   5  -94.89   76.69
  11  -4   6  -30.10   85.39
  11  -4   7   20.10   64.09
  11  -4   7  -16.50   94.89
  11  -3   3  239.78   61.89
  11  -3   4  -25.60   65.09
  11  -3   5   44.20   72.29
  11  -3   6   37.50   78.39
  11  -3   7  -14.10   86.69
  11  -2  -8  139.99   58.69
  11  -2   4  -49.99   59.89
  11  -2   5  -13.00   65.49
  11  -2   6   77.59   69.59
  11  -2   7 -108.09   73.59
  11  -2   8   44.80   57.19
  11  -2   8    6.90   76.69
  11  -1   3   32.10   54.29
  11  -1   4  -48.90   57.09
  11  -1   5   -7.40   61.49
  11  -1   6    0.50   64.79
  11  -1   7  -70.29   69.29
  11  -1   8  -74.09   74.59
  11   0   3  -29.90   55.19
  11   0   4  -55.99   58.59
  11   0   5  -32.40   61.39
  11   0   6   98.69   65.39
  11   0   7  -32.10   67.79
  11   0   8  117.59   75.29
  11   1   2   65.29   56.99
  11   1   3    0.20   57.09
  11   1   4   14.10   59.09
  11   1   5    5.50   59.89
  11   1   6  -18.60   61.79
  11   1   7  -15.90   65.19
  11   1   8  -79.09   69.69
  11   2   3   26.00   63.19
  11   2   4  -28.30   63.49
  11   2   5   -2.50   65.29
  11   2   6   14.10   66.99
  11   2   7  -23.40   68.79
  11   2   8  -33.30   67.89
  11   3   3  224.08   73.29
  11   3   4  -58.39   70.09
  11   3   5  -25.10   70.29
  11   3   6   39.20   71.39
  11   3   7   18.30   74.49
  11   4   5  -74.09   79.49
  11   4   6  -13.40   81.89
  11   4   7  -34.30   82.79
  11   5  -6   67.79  157.38
  11   6  -5   43.40  160.88
  12  -6   4  169.98   99.89
  12  -5  -5   52.99   52.89
  12  -5   4  -43.80   86.69
  12  -5   5  -71.39   96.09
  12  -5   5   22.60   56.09
  12  -4  -6   63.99   64.49
  12  -4  -5   -6.90   56.09
  12  -4   5  -75.59   85.29
  12  -4   6  -81.79   95.09
  12  -4   6   31.90   60.19
  12  -3  -7  363.26   64.99
  12  -3  -6   28.90   61.09
  12  -3   5  -58.19   77.99
  12  -3   6  -18.50   86.69
  12  -3   7  226.48   87.79
  12  -3   7  297.87   61.89
  12  -2   4  -56.69   66.49
  12  -2   5  -18.90   70.39
  12  -2   6  -72.69   77.69
  12  -2   7 -157.18   83.79
  12  -1   4  -18.00   64.69
  12  -1   5  -77.29   67.89
  12  -1   6   28.20   71.69
  12  -1   7   -6.60   77.79
  12   0   4  237.58   65.79
  12   0   5   -9.50   67.69
  12   0   6  -73.99   69.69
  12   0   7  -90.79   75.49
  12   1   4  -11.40   66.59
  12   1   5  -84.29   67.09
  12   1   6  -59.69   69.29
  12   1   7 -115.59   73.59
  12   2   3  -52.39   71.09
  12   2   4   42.70   72.09
  12   2   5   42.10   72.19
  12   2   6  -56.79   74.29
  12   2   7  -94.49   75.29
  12   3  -6  -19.40  148.99
  12   3   3  118.09   80.39
  12   3   4  -52.39   80.99
  12   3   5  -19.00   78.39
  12   3   6  -35.30   80.39
  12   4  -6   23.30  158.58
  12   4   5    0.00   88.19
  12   4   6 -116.09   88.99
  12   5  -5  -43.60  161.18
  13  -5  -4  -19.30   52.09
  13  -4  -5  -51.39   63.79
  13  -4  -4   93.09   57.19
  13  -4   5  -98.19  100.39
  13  -3  -5  -33.00   60.49
  13  -3   5  -99.59   84.99
  13  -2   4  -68.09   73.09
  13  -2   5 -103.89   78.09
  13  -2   6 -154.28   84.79
  13  -1   4  -68.09   72.79
  13  -1   5  -69.49   76.99
  13  -1   6 -114.09   83.99
  13   0   4  -31.10   69.89
  13   0   5   -8.70   73.59
  13   0   6   -0.70   80.19
  13   1   3   26.40   72.89
  13   1   4  -17.50   73.89
  13   1   5   -2.50   78.39
  13   1   6  -15.40   81.09
  13   2   3   75.29   79.49
  13   2   4   -2.50   80.79
  13   2   5  -30.10   84.29
  13   2   6 -120.49   81.69
  13   3  -5    5.30  158.98
  13   3   3   98.39   87.29
  13   3   4  -92.69   90.69
  13   3   5   76.79   93.19
  13   4  -5  103.89  164.58
  13   5  -4  234.08  170.48
  14  -1   4  -65.69   80.09
  14  -1   5 -119.29   87.69
  14   0   4  -53.79   80.39
  14   0   5  -19.60   84.89
  14   1   4  -35.90   86.09
  14   1   5  -62.69   89.79
  14   2   3    4.10   92.69
  14   2   4  -50.39   92.79
  14   3   4   70.09  103.09
   0   0   0    0.00    0.00
;
_shelx_hkl_checksum              27973
loop_
_space_group_symop_operation_xyz
'x, y, z'
'-x, y+1/2, -z'
loop_
_atom_site_label
_atom_site_type_symbol
_atom_site_fract_x
_atom_site_fract_y
_atom_site_fract_z
_atom_site_U_iso_or_equiv
_atom_site_adp_type
_atom_site_occupancy
_atom_site_site_symmetry_order
_atom_site_calc_flag
_atom_site_refinement_flags_posn
_atom_site_refinement_flags_occupancy
V1 V -0.014(2) 0.6867(19) 0.0266(19) 0.047(3) Uiso 1 1 d . .
V2 V 0.485(3) 0.279(3) 0.476(3) 0.047(3) Uiso 0.622 1 d D P
V2A V 0.507(3) 0.204(4) 0.536(4) 0.047(3) Uiso 0.378 1 d D P
Si1 Si 0.247(2) 0.3311(18) 0.026(2) 0.0443(18) Uiso 1 1 d D .
Si2 Si 0.1601(19) 0.151(2) 0.244(2) 0.0443(18) Uiso 1 1 d D .
Si3 Si 0.164(2) 0.822(2) 0.247(2) 0.0443(18) Uiso 1 1 d D .
Si4 Si 0.247(2) 0.6525(18) 0.023(2) 0.0443(18) Uiso 1 1 d D .
Si5 Si 0.256(2) 0.8339(17) 0.517(2) 0.0443(18) Uiso 1 1 d D .
Si6 Si 0.337(2) 0.651(2) 0.747(2) 0.0443(18) Uiso 1 1 d D .
Si7 Si 0.249(2) 0.1485(18) 0.519(2) 0.0443(18) Uiso 1 1 d D .
Si8 Si 0.333(2) 0.322(2) 0.746(2) 0.0443(18) Uiso 1 1 d D .
Na11 Na 0.085(4) 0.491(3) -0.210(6) 0.064(5) Uiso 1 1 d . .
Na12 Na 0.417(4) -0.002(4) 0.286(5) 0.064(5) Uiso 1 1 d . .
Na21 Na -0.099(4) 0.371(4) 0.225(6) 0.077(10) Uiso 1 1 d . .
Na22 Na 0.586(8) 0.130(9) 0.741(10) 0.077(10) Uiso 0.622 1 d . P
Na2A Na 0.622(11) 0.127(15) 0.715(17) 0.077(10) Uiso 0.378 1 d . P
O11 O 0.124(3) 0.665(4) -0.033(5) 0.041(3) Uiso 1 1 d D .
O12 O 0.054(3) 0.790(4) 0.189(4) 0.041(3) Uiso 1 1 d D .
O13 O 0.370(3) 0.820(4) 0.457(5) 0.041(3) Uiso 1 1 d D .
O14 O 0.455(3) 0.669(4) 0.683(4) 0.041(3) Uiso 1 1 d D .
O15 O 0.447(3) 0.303(4) 0.681(5) 0.041(3) Uiso 1 1 d D .
O16 O 0.364(3) 0.165(4) 0.449(4) 0.041(3) Uiso 1 1 d D .
O17 O 0.046(3) 0.175(5) 0.169(4) 0.041(3) Uiso 1 1 d D .
O18 O 0.129(3) 0.326(4) -0.041(5) 0.041(3) Uiso 1 1 d D .
O21 O 0.226(3) 0.985(2) 0.563(3) 0.042(5) Uiso 1 1 d D .
O22 O 0.192(3) 0.983(2) 0.240(3) 0.042(5) Uiso 1 1 d D .
O23 O 0.281(3) 0.491(2) 0.061(3) 0.042(5) Uiso 1 1 d D .
O24 O 0.299(3) 0.487(2) 0.751(3) 0.042(5) Uiso 1 1 d D .
O31 O 0.170(3) 0.778(3) 0.407(3) 0.033(5) Uiso 1 1 d D .
O32 O 0.331(3) 0.716(3) 0.907(3) 0.033(5) Uiso 1 1 d D .
O33 O 0.156(3) 0.198(3) 0.410(3) 0.033(5) Uiso 1 1 d D .
O34 O 0.332(3) 0.269(3) -0.091(3) 0.033(5) Uiso 1 1 d D .
O41 O 0.242(3) 0.240(3) 0.662(3) 0.041(5) Uiso 1 1 d D .
O42 O 0.255(3) 0.240(3) 0.167(3) 0.041(5) Uiso 1 1 d D .
O43 O 0.257(3) 0.743(3) 0.169(3) 0.041(5) Uiso 1 1 d D .
O44 O 0.247(3) 0.737(3) 0.652(3) 0.041(5) Uiso 1 1 d D .
OV1 O -0.050(4) 0.545(4) 0.099(5) 0.018(12) Uiso 1 1 d . .
OV2 O 0.469(10) 0.447(7) 0.448(12) 0.10(4) Uiso 0.622 1 d D P
OV2A O 0.495(18) 0.127(17) 0.690(13) 0.10(4) Uiso 0.378 1 d D P
loop_
_atom_type_symbol
_atom_type_description
_atom_type_scat_dispersion_real
_atom_type_scat_dispersion_imag
_atom_type_scat_source
H H 0.0000 0.0000 'International Tables Vol C Tables 4.2.6.8 and 6.1.1.4'
Na Na 0.0362 0.0249 'International Tables Vol C Tables 4.2.6.8 and 6.1.1.4'
O O 0.0106 0.0060 'International Tables Vol C Tables 4.2.6.8 and 6.1.1.4'
Si Si 0.0817 0.0704 'International Tables Vol C Tables 4.2.6.8 and 6.1.1.4'
V V 0.3005 0.5294 'International Tables Vol C Tables 4.2.6.8 and 6.1.1.4'
loop_
_geom_angle_atom_site_label_1
_geom_angle_atom_site_label_2
_geom_angle_atom_site_label_3
_geom_angle
_geom_angle_site_symmetry_1
_geom_angle_site_symmetry_3
OV1 V1 O11 109(2) . .
OV1 V1 O17 109(2) . 2
O11 V1 O17 83(2) . 2
OV1 V1 O18 109(2) . 2
O11 V1 O18 142.2(19) . 2
O17 V1 O18 87(2) 2 2
OV1 V1 O12 101(2) . .
O11 V1 O12 85(2) . .
O17 V1 O12 150.2(19) 2 .
O18 V1 O12 85.7(19) 2 .
OV1 V1 Na11 86.3(18) . .
O11 V1 Na11 49.1(16) . .
O17 V1 Na11 49.5(16) 2 .
O18 V1 Na11 136.6(19) 2 .
O12 V1 Na11 132.3(19) . .
OV1 V1 Na21 154(2) . 2
O11 V1 Na21 55.0(16) . 2
O17 V1 Na21 53.3(16) 2 2
O18 V1 Na21 90.4(16) 2 2
O12 V1 Na21 97.8(17) . 2
Na11 V1 Na21 67.5(11) . 2
OV1 V1 Na11 114(2) . 2
O11 V1 Na11 119.4(17) . 2
O17 V1 Na11 119.1(17) 2 2
O18 V1 Na11 38.9(15) 2 2
O12 V1 Na11 47.0(15) . 2
Na11 V1 Na11 160.1(10) . 2
Na21 V1 Na11 92.6(11) 2 2
V2A V2 OV2 149(5) . .
V2A V2 O16 84(3) . .
OV2 V2 O16 116(5) . .
V2A V2 O13 71(3) . 2_646
OV2 V2 O13 88(4) . 2_646
O16 V2 O13 155(2) . 2_646
V2A V2 O14 88(3) . 2_646
OV2 V2 O14 115(5) . 2_646
O16 V2 O14 84(2) . 2_646
O13 V2 O14 90(2) 2_646 2_646
V2A V2 O15 64(3) . .
OV2 V2 O15 91(5) . .
O16 V2 O15 91(2) . .
O13 V2 O15 82.8(19) 2_646 .
O14 V2 O15 152(2) 2_646 .
V2A V2 Na22 21(3) . .
OV2 V2 Na22 128(4) . .
O16 V2 Na22 100(2) . .
O13 V2 Na22 57(2) 2_646 .
O14 V2 Na22 104(2) 2_646 .
O15 V2 Na22 50.6(18) . .
V2A V2 Na2A 23(3) . .
OV2 V2 Na2A 128(5) . .
O16 V2 Na2A 106(3) . .
O13 V2 Na2A 50(3) 2_646 .
O14 V2 Na2A 97(3) 2_646 .
O15 V2 Na2A 59(3) . .
Na22 V2 Na2A 9(3) . .
V2A V2 Na12 80(3) . .
OV2 V2 Na12 131(4) . .
O16 V2 Na12 42.2(16) . .
O13 V2 Na12 124.9(18) 2_646 .
O14 V2 Na12 42.3(15) 2_646 .
O15 V2 Na12 124.1(18) . .
Na22 V2 Na12 100.9(18) . .
Na2A V2 Na12 100(3) . .
V2A V2 Na12 86(3) . 2_656
OV2 V2 Na12 63(4) . 2_656
O16 V2 Na12 139(2) . 2_656
O13 V2 Na12 46.4(15) 2_646 2_656
O14 V2 Na12 136(2) 2_646 2_656
O15 V2 Na12 49.5(15) . 2_656
Na22 V2 Na12 65.0(18) . 2_656
Na2A V2 Na12 66(3) . 2_656
Na12 V2 Na12 165.7(15) . 2_656
V2 V2A OV2A 147(8) . .
V2 V2A O15 88(4) . .
OV2A V2A O15 61(7) . .
V2 V2A O13 80(3) . 2_646
OV2A V2A O13 108(8) . 2_646
O15 V2A O13 91(2) . 2_646
V2 V2A O16 68(3) . .
OV2A V2A O16 102(8) . .
O15 V2A O16 93(3) . .
O13 V2A O16 148(3) 2_646 .
V2 V2A O14 66(3) . 2_646
OV2A V2A O14 145(6) . 2_646
O15 V2A O14 154(3) . 2_646
O13 V2A O14 87(2) 2_646 2_646
O16 V2A O14 76(2) . 2_646
V2 V2A Na22 150(4) . .
OV2A V2A Na22 31(7) . .
O15 V2A Na22 72(3) . .
O13 V2A Na22 79(3) 2_646 .
O16 V2A Na22 133(3) . .
O14 V2A Na22 133(3) 2_646 .
V2 V2A Na2A 148(5) . .
OV2A V2A Na2A 43(8) . .
O15 V2A Na2A 82(4) . .
O13 V2A Na2A 70(4) 2_646 .
O16 V2A Na2A 142(4) . .
O14 V2A Na2A 122(4) 2_646 .
Na22 V2A Na2A 13(4) . .
V2 V2A Na12 84(3) . .
OV2A V2A Na12 111(7) . .
O15 V2A Na12 136(2) . .
O13 V2A Na12 130(2) 2_646 .
O16 V2A Na12 43.9(16) . .
O14 V2A Na12 43.8(15) 2_646 .
Na22 V2A Na12 126(3) . .
Na2A V2A Na12 124(4) . .
V2 V2A Na12 77(3) . 2_656
OV2A V2A Na12 86(7) . 2_656
O15 V2A Na12 46.9(17) . 2_656
O13 V2A Na12 44.1(16) 2_646 2_656
O16 V2A Na12 128(2) . 2_656
O14 V2A Na12 123.4(19) 2_646 2_656
Na22 V2A Na12 73(2) . 2_656
Na2A V2A Na12 73(4) . 2_656
Na12 V2A Na12 161.1(17) . 2_656
O18 Si1 O23 110.3(15) . .
O18 Si1 O42 111.8(16) . .
O23 Si1 O42 108.1(14) . .
O18 Si1 O34 107.9(15) . .
O23 Si1 O34 108.4(15) . .
O42 Si1 O34 110.2(15) . .
O18 Si1 Na11 36.9(17) . .
O23 Si1 Na11 82.9(15) . .
O42 Si1 Na11 146.7(19) . .
O34 Si1 Na11 94.9(17) . .
O17 Si2 O42 111.2(15) . .
O17 Si2 O22 109.8(15) . 1_545
O42 Si2 O22 107.8(15) . 1_545
O17 Si2 O33 111.5(16) . .
O42 Si2 O33 109.3(15) . .
O22 Si2 O33 107.1(14) 1_545 .
O17 Si2 Na11 39.8(17) . 2_545
O42 Si2 Na11 146.0(17) . 2_545
O22 Si2 Na11 77.7(15) 1_545 2_545
O33 Si2 Na11 100.4(16) . 2_545
O12 Si3 O43 113.6(16) . .
O12 Si3 O22 112.3(17) . .
O43 Si3 O22 105.8(15) . .
O12 Si3 O31 110.5(17) . .
O43 Si3 O31 107.4(16) . .
O22 Si3 O31 106.7(15) . .
O12 Si3 Na2A 132(3) . 2_656
O43 Si3 Na2A 35(3) . 2_656
O22 Si3 Na2A 112(3) . 2_656
O31 Si3 Na2A 73(3) . 2_656
O23 Si4 O11 112.9(16) . .
O23 Si4 O32 109.1(15) . 1_554
O11 Si4 O32 110.5(15) . 1_554
O23 Si4 O43 106.0(14) . .
O11 Si4 O43 108.2(15) . .
O32 Si4 O43 110.1(14) 1_554 .
O23 Si4 Na2A 66(3) . 2_656
O11 Si4 Na2A 142(3) . 2_656
O32 Si4 Na2A 104(3) 1_554 2_656
O43 Si4 Na2A 45(3) . 2_656
O23 Si4 Na22 66(2) . 2_656
O11 Si4 Na22 152(2) . 2_656
O32 Si4 Na22 95.2(19) 1_554 2_656
O43 Si4 Na22 50(2) . 2_656
Na2A Si4 Na22 10(3) 2_656 2_656
O23 Si4 Na11 83.1(15) . .
O11 Si4 Na11 41.7(18) . .
O32 Si4 Na11 95.5(17) 1_554 .
O43 Si4 Na11 147(2) . .
Na2A Si4 Na11 147(3) 2_656 .
Na22 Si4 Na11 149.1(18) 2_656 .
O21 Si5 O13 114.3(17) . .
O21 Si5 O44 106.2(15) . .
O13 Si5 O44 108.5(16) . .
O21 Si5 O31 109.9(15) . .
O13 Si5 O31 109.8(16) . .
O44 Si5 O31 107.9(14) . .
O21 Si5 Na21 61.6(14) . 2_556
O13 Si5 Na21 150.5(19) . 2_556
O44 Si5 Na21 52.1(15) . 2_556
O31 Si5 Na21 98.3(17) . 2_556
O21 Si5 Na2A 148(3) . 2_656
O13 Si5 Na2A 44(3) . 2_656
O44 Si5 Na2A 104(3) . 2_656
O31 Si5 Na2A 70(3) . 2_656
Na21 Si5 Na2A 150(3) 2_556 2_656
O21 Si5 Na12 84.7(16) . 1_565
O13 Si5 Na12 40.9(17) . 1_565
O44 Si5 Na12 147.3(19) . 1_565
O31 Si5 Na12 96.5(17) . 1_565
Na21 Si5 Na12 146.1(12) 2_556 1_565
Na2A Si5 Na12 64(3) 2_656 1_565
O14 Si6 O24 112.0(16) . .
O14 Si6 O44 111.2(16) . .
O24 Si6 O44 106.7(14) . .
O14 Si6 O32 111.0(16) . .
O24 Si6 O32 108.5(14) . .
O44 Si6 O32 107.2(14) . .
O14 Si6 Na12 35.0(17) . 2_656
O24 Si6 Na12 81.9(15) . 2_656
O44 Si6 Na12 140.2(17) . 2_656
O32 Si6 Na12 106.5(16) . 2_656
O16 Si7 O41 111.0(16) . .
O16 Si7 O21 111.1(16) . 1_545
O41 Si7 O21 106.1(14) . 1_545
O16 Si7 O33 109.9(15) . .
O41 Si7 O33 110.3(14) . .
O21 Si7 O33 108.4(14) 1_545 .
O16 Si7 Na12 36.9(17) . .
O41 Si7 Na12 144.9(18) . .
O21 Si7 Na12 83.4(15) 1_545 .
O33 Si7 Na12 97.8(16) . .
O15 Si8 O41 113.0(16) . .
O15 Si8 O24 110.9(16) . .
O41 Si8 O24 107.0(15) . .
O15 Si8 O34 111.1(16) . 1_556
O41 Si8 O34 109.0(15) . 1_556
O24 Si8 O34 105.5(14) . 1_556
O18 Na11 O11 85(2) . .
O18 Na11 O17 122(3) . 2
O11 Na11 O17 62.0(17) . 2
O18 Na11 O12 67.1(16) . 2_545
O11 Na11 O12 126(3) . 2_545
O17 Na11 O12 94(2) 2 2_545
O18 Na11 O24 81.7(19) . 1_554
O11 Na11 O24 85(2) . 1_554
O17 Na11 O24 134.6(18) 2 1_554
O12 Na11 O24 131.8(17) 2_545 1_554
O18 Na11 V1 89(2) . .
O11 Na11 V1 34.7(12) . .
O17 Na11 V1 37.2(13) 2 .
O12 Na11 V1 96.4(19) 2_545 .
O24 Na11 V1 119.5(18) 1_554 .
O18 Na11 Si4 72.3(18) . .
O11 Na11 Si4 26.6(9) . .
O17 Na11 Si4 88.3(15) 2 .
O12 Na11 Si4 133(2) 2_545 .
O24 Na11 Si4 60.6(14) 1_554 .
V1 Na11 Si4 59.6(10) . .
O18 Na11 Si1 24.6(10) . .
O11 Na11 Si1 73.4(17) . .
O17 Na11 Si1 128(2) 2 .
O12 Na11 Si1 91.3(15) 2_545 .
O24 Na11 Si1 59.8(13) 1_554 .
V1 Na11 Si1 90.7(15) . .
Si4 Na11 Si1 53.3(10) . .
O18 Na11 Si2 125(2) . 2
O11 Na11 Si2 86.8(16) . 2
O17 Na11 Si2 25.2(9) 2 2
O12 Na11 Si2 74.5(15) 2_545 2
O24 Na11 Si2 151.1(17) 1_554 2
V1 Na11 Si2 57.7(10) . 2
Si4 Na11 Si2 113.3(13) . 2
Si1 Na11 Si2 142.4(18) . 2
O18 Na11 V1 32.0(12) . 2_545
O11 Na11 V1 105(2) . 2_545
O17 Na11 V1 109.7(19) 2 2_545
O12 Na11 V1 35.2(11) 2_545 2_545
O24 Na11 V1 108.3(15) 1_554 2_545
V1 Na11 V1 91.0(14) . 2_545
Si4 Na11 V1 101.0(14) . 2_545
Si1 Na11 V1 56.5(9) . 2_545
Si2 Na11 V1 100.6(14) 2 2_545
O18 Na11 Na21 133(2) . 2
O11 Na11 Na21 48.6(14) . 2
O17 Na11 Na21 47.2(13) 2 2
O12 Na11 Na21 140(2) 2_545 2
O24 Na11 Na21 87.8(17) 1_554 2
V1 Na11 Na21 57.8(11) . 2
Si4 Na11 Na21 63.1(12) . 2
Si1 Na11 Na21 116.3(18) . 2
Si2 Na11 Na21 66.2(13) 2 2
V1 Na11 Na21 149(2) 2_545 2
O14 Na12 O16 68.4(18) 2_646 .
O14 Na12 O13 125(3) 2_646 1_545
O16 Na12 O13 87(2) . 1_545
O14 Na12 O15 92(2) 2_646 2_646
O16 Na12 O15 127(3) . 2_646
O13 Na12 O15 64.5(16) 1_545 2_646
O14 Na12 O22 138.1(19) 2_646 1_545
O16 Na12 O22 82(2) . 1_545
O13 Na12 O22 80.4(19) 1_545 1_545
O15 Na12 O22 130.3(17) 2_646 1_545
O14 Na12 V2A 41.4(15) 2_646 .
O16 Na12 V2A 37.0(14) . .
O13 Na12 V2A 90(2) 1_545 .
O15 Na12 V2A 96.2(19) 2_646 .
O22 Na12 V2A 118.8(19) 1_545 .
O14 Na12 V2 35.9(14) 2_646 .
O16 Na12 V2 32.9(13) . .
O13 Na12 V2 104(2) 1_545 .
O15 Na12 V2 109.9(19) 2_646 .
O22 Na12 V2 112.2(17) 1_545 .
V2A Na12 V2 16.6(7) . .
O14 Na12 V2 95.3(19) 2_646 2_646
O16 Na12 V2 94(2) . 2_646
O13 Na12 V2 35.8(13) 1_545 2_646
O15 Na12 V2 37.8(14) 2_646 2_646
O22 Na12 V2 116.1(17) 1_545 2_646
V2A Na12 V2 74.9(13) . 2_646
V2 Na12 V2 91.4(12) . 2_646
O14 Na12 Si7 92.9(17) 2_646 .
O16 Na12 Si7 24.5(10) . .
O13 Na12 Si7 72.1(18) 1_545 .
O15 Na12 Si7 130(2) 2_646 .
O22 Na12 Si7 60.9(13) 1_545 .
V2A Na12 Si7 58.6(11) . .
V2 Na12 Si7 57.4(11) . .
V2 Na12 Si7 91.9(14) 2_646 .
O14 Na12 Si5 131(2) 2_646 1_545
O16 Na12 Si5 72.4(18) . 1_545
O13 Na12 Si5 24.6(10) 1_545 1_545
O15 Na12 Si5 88.9(15) 2_646 1_545
O22 Na12 Si5 59.5(13) 1_545 1_545
V2A Na12 Si5 89.7(15) . 1_545
V2 Na12 Si5 99.0(15) . 1_545
V2 Na12 Si5 58.6(10) 2_646 1_545
Si7 Na12 Si5 52.2(10) . 1_545
O14 Na12 Si6 23.8(10) 2_646 2_646
O16 Na12 Si6 91.8(17) . 2_646
O13 Na12 Si6 125(2) 1_545 2_646
O15 Na12 Si6 73.4(15) 2_646 2_646
O22 Na12 Si6 153.6(16) 1_545 2_646
V2A Na12 Si6 60.6(12) . 2_646
V2 Na12 Si6 58.9(10) . 2_646
V2 Na12 Si6 89.7(14) 2_646 2_646
Si7 Na12 Si6 116.3(14) . 2_646
Si5 Na12 Si6 142.4(17) 1_545 2_646
O14 Na12 V2A 108(2) 2_646 2_646
O16 Na12 V2A 107(2) . 2_646
O13 Na12 V2A 32.7(12) 1_545 2_646
O15 Na12 V2A 32.0(13) 2_646 2_646
O22 Na12 V2A 108.3(16) 1_545 2_646
V2A Na12 V2A 91.2(12) . 2_646
V2 Na12 V2A 107.7(15) . 2_646
V2 Na12 V2A 16.3(7) 2_646 2_646
Si7 Na12 V2A 100.5(15) . 2_646
Si5 Na12 V2A 57.3(10) 1_545 2_646
Si6 Na12 V2A 98.1(14) 2_646 2_646
OV1 Na21 O44 149(3) . 2_546
OV1 Na21 O17 103(3) . .
O44 Na21 O17 104.3(17) 2_546 .
OV1 Na21 O11 101(2) . 2_545
O44 Na21 O11 82.8(18) 2_546 2_545
O17 Na21 O11 55.7(15) . 2_545
OV1 Na21 O21 106.0(18) . 2_546
O44 Na21 O21 55.8(15) 2_546 2_546
O17 Na21 O21 144(2) . 2_546
O11 Na21 O21 135(2) 2_545 2_546
OV1 Na21 Si5 135(2) . 2_546
O44 Na21 Si5 29.7(9) 2_546 2_546
O17 Na21 Si5 120.3(18) . 2_546
O11 Na21 Si5 112.5(18) 2_545 2_546
O21 Na21 Si5 29.0(8) 2_546 2_546
OV1 Na21 V1 83(2) . 2_545
O44 Na21 V1 113.0(15) 2_546 2_545
O17 Na21 V1 35.8(12) . 2_545
O11 Na21 V1 33.5(10) 2_545 2_545
O21 Na21 V1 168.4(19) 2_546 2_545
Si5 Na21 V1 141.0(13) 2_546 2_545
OV1 Na21 Na11 137(3) . 2_545
O44 Na21 Na11 63.6(14) 2_546 2_545
O17 Na21 Na11 42.3(14) . 2_545
O11 Na21 Na11 42.3(13) 2_545 2_545
O21 Na21 Na11 116.2(19) 2_546 2_545
Si5 Na21 Na11 87.2(14) 2_546 2_545
V1 Na21 Na11 54.8(12) 2_545 2_545
Na2A Na22 OV2A 127(10) . .
Na2A Na22 V2A 88(10) . .
OV2A Na22 V2A 44(6) . .
Na2A Na22 O43 58(10) . 2_646
OV2A Na22 O43 155(10) . 2_646
V2A Na22 O43 121(4) . 2_646
Na2A Na22 O15 122(10) . .
OV2A Na22 O15 43(9) . .
V2A Na22 O15 45(2) . .
O43 Na22 O15 111(4) 2_646 .
Na2A Na22 OV2 82(10) . 2_646
OV2A Na22 OV2 58(10) . 2_646
V2A Na22 OV2 60(3) . 2_646
O43 Na22 OV2 140(4) 2_646 2_646
O15 Na22 OV2 95(4) . 2_646
Na2A Na22 O13 60(10) . 2_646
OV2A Na22 O13 85(8) . 2_646
V2A Na22 O13 44(2) . 2_646
O43 Na22 O13 78(3) 2_646 2_646
O15 Na22 O13 62(3) . 2_646
OV2 Na22 O13 90(4) 2_646 2_646
Na2A Na22 O23 78(10) . 2_646
OV2A Na22 O23 143(9) . 2_646
V2A Na22 O23 163(4) . 2_646
O43 Na22 O23 59(2) 2_646 2_646
O15 Na22 O23 152(3) . 2_646
OV2 Na22 O23 108(4) 2_646 2_646
O13 Na22 O23 131(4) 2_646 2_646
Na2A Na22 Si4 77(10) . 2_646
OV2A Na22 Si4 156(8) . 2_646
V2A Na22 Si4 153(4) . 2_646
O43 Na22 Si4 32.0(15) 2_646 2_646
O15 Na22 Si4 127(3) . 2_646
OV2 Na22 Si4 138(4) 2_646 2_646
O13 Na22 Si4 110(3) 2_646 2_646
O23 Na22 Si4 31.4(12) 2_646 2_646
Na2A Na22 V2 89(10) . .
OV2A Na22 V2 48(7) . .
V2A Na22 V2 8.6(11) . .
O43 Na22 V2 114(3) 2_646 .
O15 Na22 V2 39.9(19) . .
OV2 Na22 V2 68(3) 2_646 .
O13 Na22 V2 38.0(17) 2_646 .
O23 Na22 V2 167(3) 2_646 .
Si4 Na22 V2 146(3) 2_646 .
Na2A Na22 Na12 91(10) . 2_656
OV2A Na22 Na12 89(10) . 2_656
V2A Na22 Na12 68(3) . 2_656
O43 Na22 Na12 66(2) 2_646 2_656
O15 Na22 Na12 46.4(18) . 2_656
OV2 Na22 Na12 127(4) 2_646 2_656
O13 Na22 Na12 43.9(19) 2_646 2_656
O23 Na22 Na12 121(3) 2_646 2_656
Si4 Na22 Na12 90(2) 2_646 2_656
V2 Na22 Na12 59.6(19) . 2_656
Na22 Na2A OV2A 38(10) . .
Na22 Na2A O43 110(10) . 2_646
OV2A Na2A O43 140(10) . 2_646
Na22 Na2A V2A 79(10) . .
OV2A Na2A V2A 45(5) . .
O43 Na2A V2A 130(6) 2_646 .
Na22 Na2A O13 109(10) . 2_646
OV2A Na2A O13 87(7) . 2_646
O43 Na2A O13 87(5) 2_646 2_646
V2A Na2A O13 46(3) . 2_646
Na22 Na2A OV2 86(10) . 2_646
OV2A Na2A OV2 58(8) . 2_646
O43 Na2A OV2 162(7) 2_646 2_646
V2A Na2A OV2 59(4) . 2_646
O13 Na2A OV2 96(6) 2_646 2_646
Na22 Na2A O15 49(10) . .
OV2A Na2A O15 37(6) . .
O43 Na2A O15 108(6) 2_646 .
V2A Na2A O15 41(3) . .
O13 Na2A O15 60(4) 2_646 .
OV2 Na2A O15 88(5) 2_646 .
Na22 Na2A O23 91(10) . 2_646
OV2A Na2A O23 123(8) . 2_646
O43 Na2A O23 62(4) 2_646 2_646
V2A Na2A O23 166(6) . 2_646
O13 Na2A O23 148(6) 2_646 2_646
OV2 Na2A O23 111(5) 2_646 2_646
O15 Na2A O23 136(6) . 2_646
Na22 Na2A Si4 94(10) . 2_646
OV2A Na2A Si4 131(9) . 2_646
O43 Na2A Si4 32(3) 2_646 2_646
V2A Na2A Si4 156(6) . 2_646
O13 Na2A Si4 119(5) 2_646 2_646
OV2 Na2A Si4 143(6) 2_646 2_646
O15 Na2A Si4 119(6) . 2_646
O23 Na2A Si4 32.2(19) 2_646 2_646
Na22 Na2A V2 82(10) . .
OV2A Na2A V2 51(5) . .
O43 Na2A V2 121(5) 2_646 .
V2A Na2A V2 9.1(14) . .
O13 Na2A V2 38(2) 2_646 .
OV2 Na2A V2 68(4) 2_646 .
O15 Na2A V2 39(2) . .
O23 Na2A V2 173(5) 2_646 .
Si4 Na2A V2 149(5) 2_646 .
Na22 Na2A Si5 134(10) . 2_646
OV2A Na2A Si5 111(7) . 2_646
O43 Na2A Si5 74(4) 2_646 2_646
V2A Na2A Si5 67(4) . 2_646
O13 Na2A Si5 25.7(16) 2_646 2_646
OV2 Na2A Si5 100(6) 2_646 2_646
O15 Na2A Si5 86(4) . 2_646
O23 Na2A Si5 126(5) 2_646 2_646
Si4 Na2A Si5 105(4) 2_646 2_646
V2 Na2A Si5 60(3) . 2_646
Na22 Na2A Si3 130(10) . 2_646
OV2A Na2A Si3 146(9) . 2_646
O43 Na2A Si3 24.5(18) 2_646 2_646
V2A Na2A Si3 114(5) . 2_646
O13 Na2A Si3 68(3) 2_646 2_646
OV2 Na2A Si3 143(6) 2_646 2_646
O15 Na2A Si3 109(4) . 2_646
O23 Na2A Si3 80(4) 2_646 2_646
Si4 Na2A Si3 55(3) 2_646 2_646
V2 Na2A Si3 105(4) . 2_646
Si5 Na2A Si3 51(2) 2_646 2_646
Si4 O11 V1 142(3) . .
Si4 O11 Na11 112(2) . .
V1 O11 Na11 96(2) . .
Si4 O11 Na21 113(2) . 2
V1 O11 Na21 91.4(19) . 2
Na11 O11 Na21 89.1(17) . 2
Si3 O12 V1 139(3) . .
Si3 O12 Na11 116(2) . 2
V1 O12 Na11 98(2) . 2
Si5 O13 V2A 142(3) . 2_656
Si5 O13 V2 138(3) . 2_656
V2A O13 V2 28.7(14) 2_656 2_656
Si5 O13 Na2A 111(4) . 2_656
V2A O13 Na2A 64(4) 2_656 2_656
V2 O13 Na2A 92(4) 2_656 2_656
Si5 O13 Na12 115(2) . 1_565
V2A O13 Na12 103(2) 2_656 1_565
V2 O13 Na12 98(2) 2_656 1_565
Na2A O13 Na12 93(4) 2_656 1_565
Si5 O13 Na22 121(3) . 2_656
V2A O13 Na22 58(3) 2_656 2_656
V2 O13 Na22 85(3) 2_656 2_656
Na2A O13 Na22 11(4) 2_656 2_656
Na12 O13 Na22 86(2) 1_565 2_656
Si6 O14 V2 134(3) . 2_656
Si6 O14 V2A 126(2) . 2_656
V2 O14 V2A 25.9(12) 2_656 2_656
Si6 O14 Na12 121(2) . 2_656
V2 O14 Na12 102(2) 2_656 2_656
V2A O14 Na12 95(2) 2_656 2_656
Si8 O15 OV2A 113(7) . .
Si8 O15 V2A 137(3) . .
OV2A O15 V2A 55(4) . .
Si8 O15 V2 128(2) . .
OV2A O15 V2 82(4) . .
V2A O15 V2 28.0(15) . .
Si8 O15 Na22 128(3) . .
OV2A O15 Na22 29(7) . .
V2A O15 Na22 63(3) . .
V2 O15 Na22 90(2) . .
Si8 O15 Na12 118(2) . 2_656
OV2A O15 Na12 117(8) . 2_656
V2A O15 Na12 101(2) . 2_656
V2 O15 Na12 93(2) . 2_656
Na22 O15 Na12 89(3) . 2_656
Si8 O15 Na2A 138(4) . .
OV2A O15 Na2A 33(8) . .
V2A O15 Na2A 57(4) . .
V2 O15 Na2A 82(4) . .
Na22 O15 Na2A 9(4) . .
Na12 O15 Na2A 84(3) 2_656 .
Si7 O16 V2 136(3) . .
Si7 O16 V2A 130(3) . .
V2 O16 V2A 28.3(13) . .
Si7 O16 Na12 119(2) . .
V2 O16 Na12 105(2) . .
V2A O16 Na12 99(2) . .
Si2 O17 V1 129(3) . 2_545
Si2 O17 Na11 115(2) . 2_545
V1 O17 Na11 93(2) 2_545 2_545
Si2 O17 Na21 128(2) . .
V1 O17 Na21 90.9(19) 2_545 .
Na11 O17 Na21 90.5(16) 2_545 .
Si1 O18 V1 132(2) . 2_545
Si1 O18 Na11 118(2) . .
V1 O18 Na11 109(2) 2_545 .
Si5 O21 Si7 140(2) . 1_565
Si5 O21 Na21 89.4(16) . 2_556
Si7 O21 Na21 131.0(18) 1_565 2_556
Si3 O22 Si2 152(2) . 1_565
Si3 O22 Na12 105.3(17) . 1_565
Si2 O22 Na12 100.9(17) 1_565 1_565
Si4 O23 Si1 140(2) . .
Si4 O23 Na2A 82(3) . 2_656
Si1 O23 Na2A 135(4) . 2_656
Si4 O23 Na22 83(2) . 2_656
Si1 O23 Na22 137(2) . 2_656
Na2A O23 Na22 11(4) 2_656 2_656
Si8 O24 Si6 148(2) . .
Si8 O24 Na11 106.0(17) . 1_556
Si6 O24 Na11 106.1(17) . 1_556
Si3 O31 Si5 126(2) . .
Si4 O32 Si6 122(2) 1_556 .
Si7 O33 Si2 121(2) . .
Si8 O34 Si1 123(2) 1_554 .
Si8 O41 Si7 130(2) . .
Si1 O42 Si2 128(2) . .
Si3 O43 Si4 127(2) . .
Si3 O43 Na2A 121(4) . 2_656
Si4 O43 Na2A 103(4) . 2_656
Si3 O43 Na22 130(3) . 2_656
Si4 O43 Na22 98(3) . 2_656
Na2A O43 Na22 12(5) 2_656 2_656
Si5 O44 Si6 133(2) . .
Si5 O44 Na21 98.2(18) . 2_556
Si6 O44 Na21 119.0(19) . 2_556
V1 OV1 Na21 172(3) . .
V2 OV2 Na2A 143(7) . 2_656
V2 OV2 Na22 143(7) . 2_656
Na2A OV2 Na22 12(4) 2_656 2_656
Na22 OV2A Na2A 15(9) . .
Na22 OV2A V2A 105(10) . .
Na2A OV2A V2A 92(10) . .
Na22 OV2A O15 108(10) . .
Na2A OV2A O15 110(10) . .
V2A OV2A O15 65(5) . .
loop_
_geom_bond_atom_site_label_1
_geom_bond_atom_site_label_2
_geom_bond_distance
_geom_bond_site_symmetry_2
V1 OV1 1.59(4) .
V1 O11 1.84(4) .
V1 O17 1.94(5) 2
V1 O18 1.97(5) 2
V1 O12 2.05(4) .
V1 Na11 3.21(5) .
V1 Na21 3.32(6) 2
V1 Na11 3.52(4) 2
V2 V2A 0.96(4) .
V2 OV2 1.64(7) .
V2 O16 1.89(5) .
V2 O13 1.98(5) 2_646
V2 O14 2.01(5) 2_646
V2 O15 2.05(5) .
V2 Na22 3.20(11) .
V2 Na2A 3.23(16) .
V2 Na12 3.36(5) .
V2 Na12 3.35(5) 2_656
V2A OV2A 1.67(8) .
V2A O15 1.85(6) .
V2A O13 1.90(5) 2_646
V2A O16 2.02(5) .
V2A O14 2.20(6) 2_646
V2A Na22 2.33(11) .
V2A Na2A 2.37(16) .
V2A Na12 3.32(6) .
V2A Na12 3.42(5) 2_656
Si1 O18 1.62(3) .
Si1 O23 1.62(3) .
Si1 O42 1.62(3) .
Si1 O34 1.66(3) .
Si1 Na11 3.42(6) .
Si2 O17 1.62(3) .
Si2 O42 1.64(3) .
Si2 O22 1.65(3) 1_545
Si2 O33 1.67(3) .
Si2 Na11 3.46(5) 2_545
Si3 O12 1.52(3) .
Si3 O43 1.58(3) .
Si3 O22 1.58(3) .
Si3 O31 1.60(3) .
Si3 Na2A 3.29(14) 2_656
Si4 O23 1.63(3) .
Si4 O11 1.64(3) .
Si4 O32 1.66(3) 1_554
Si4 O43 1.66(3) .
Si4 Na2A 3.03(17) 2_656
Si4 Na22 3.11(11) 2_656
Si4 Na11 3.41(6) .
Si5 O21 1.56(3) .
Si5 O13 1.56(3) .
Si5 O44 1.61(3) .
Si5 O31 1.60(3) .
Si5 Na21 3.21(6) 2_556
Si5 Na2A 3.36(14) 2_656
Si5 Na12 3.40(6) 1_565
Si6 O14 1.62(3) .
Si6 O24 1.64(3) .
Si6 O44 1.67(3) .
Si6 O32 1.68(3) .
Si6 Na12 3.44(5) 2_656
Si7 O16 1.61(3) .
Si7 O41 1.64(3) .
Si7 O21 1.64(3) 1_545
Si7 O33 1.65(3) .
Si7 Na12 3.41(6) .
Si8 O15 1.58(3) .
Si8 O41 1.61(3) .
Si8 O24 1.63(3) .
Si8 O34 1.66(3) 1_556
Na11 O18 2.33(6) .
Na11 O11 2.44(6) .
Na11 O17 2.44(6) 2
Na11 O12 2.60(6) 2_545
Na11 O24 2.73(7) 1_554
Na11 Na21 3.63(5) 2
Na12 O14 2.31(6) 2_646
Na12 O16 2.33(6) .
Na12 O13 2.45(6) 1_545
Na12 O15 2.55(6) 2_646
Na12 O22 2.86(7) 1_545
Na21 OV1 2.15(6) .
Na21 O44 2.56(6) 2_546
Na21 O17 2.66(6) .
Na21 O11 2.72(6) 2_545
Na21 O21 2.82(7) 2_546
Na22 Na2A 0.53(18) .
Na22 OV2A 1.25(19) .
Na22 O43 2.42(11) 2_646
Na22 O15 2.47(10) .
Na22 OV2 2.62(12) 2_646
Na22 O13 2.70(10) 2_646
Na22 O23 2.87(11) 2_646
Na2A OV2A 1.6(3) .
Na2A O43 2.19(16) 2_646
Na2A O13 2.48(15) 2_646
Na2A OV2 2.60(18) 2_646
Na2A O15 2.79(16) .
Na2A O23 2.81(16) 2_646
O15 OV2A 1.78(18) .
