#------------------------------------------------------------------------------
#$Date: 2022-03-16 04:56:31 +0200 (Wed, 16 Mar 2022) $
#$Revision: 273718 $
#$URL: file:///home/coder/svn-repositories/cod/cif/2/10/89/2108937.cif $
#------------------------------------------------------------------------------
#
# This file is available in the Crystallography Open Database (COD),
# http://www.crystallography.net/. The original data for this entry
# were provided by IUCr Journals, http://journals.iucr.org/.
#
# The file may be used within the scientific community so long as
# proper attribution is given to the journal article from which the
# data were obtained.
#
data_2108937
loop_
_publ_author_name
'Hasija, Avantika'
'Som, Shubham'
'Chopra, Deepak'
_publ_section_title
;
 Investigation of crystal structures, energetics and isostructurality in
 halogen-substituted phosphoramidates
;
_journal_issue                   2
_journal_name_full               'Acta Crystallographica Section B'
_journal_page_first
;
;
_journal_paper_doi               10.1107/S2052520622000889
_journal_volume                  78
_journal_year                    2022
_chemical_formula_moiety         'C18 H15 I N O3 P'
_chemical_formula_sum            'C18 H15 I N O3 P'
_chemical_formula_weight         451.18
_space_group_crystal_system      triclinic
_space_group_IT_number           2
_space_group_name_Hall           '-P 1'
_space_group_name_H-M_alt        'P -1'
_atom_sites_solution_hydrogens   mixed
_atom_sites_solution_primary     dual
_audit_creation_date             2021-05-28
_audit_creation_method
;
Olex2 1.3
(compiled 2020.11.12 svn.r5f609507 for OlexSys, GUI svn.r6272)
;
_cell_angle_alpha                109.0980(10)
_cell_angle_beta                 95.7340(10)
_cell_angle_gamma                116.9670(10)
_cell_formula_units_Z            2
_cell_length_a                   10.0600(2)
_cell_length_b                   10.4577(2)
_cell_length_c                   10.6104(2)
_cell_measurement_reflns_used    4653
_cell_measurement_temperature    100
_cell_measurement_theta_max      28.04
_cell_measurement_theta_min      2.35
_cell_volume                     898.35(3)
_computing_cell_refinement       'Bruker SAINT'
_computing_data_collection       'Bruker APEX2'
_computing_data_reduction        'Bruker SAINT'
_computing_molecular_graphics    'Olex2 1.3 (Dolomanov et al., 2009)'
_computing_publication_material  'Olex2 1.3 (Dolomanov et al., 2009)'
_computing_structure_refinement  'SHELXL 2018/3 (Sheldrick, 2015)'
_computing_structure_solution    'SHELXS-97 (Sheldrick 2008)'
_diffrn_ambient_temperature      100
_diffrn_measured_fraction_theta_full 0.969
_diffrn_measured_fraction_theta_max 0.941
_diffrn_measurement_device_type  'Bruker APEX-II CCD'
_diffrn_measurement_method       '\f and \w scans'
_diffrn_radiation_type           MoK\a
_diffrn_radiation_wavelength     0.71073
_diffrn_reflns_av_R_equivalents  0.0285
_diffrn_reflns_av_unetI/netI     0.0525
_diffrn_reflns_Laue_measured_fraction_full 0.969
_diffrn_reflns_Laue_measured_fraction_max 0.941
_diffrn_reflns_limit_h_max       13
_diffrn_reflns_limit_h_min       -13
_diffrn_reflns_limit_k_max       13
_diffrn_reflns_limit_k_min       -13
_diffrn_reflns_limit_l_max       14
_diffrn_reflns_limit_l_min       -11
_diffrn_reflns_number            11038
_diffrn_reflns_point_group_measured_fraction_full 0.969
_diffrn_reflns_point_group_measured_fraction_max 0.941
_diffrn_reflns_theta_full        25.242
_diffrn_reflns_theta_max         28.282
_diffrn_reflns_theta_min         2.126
_exptl_absorpt_coefficient_mu    1.886
_exptl_absorpt_correction_T_max  0.7460
_exptl_absorpt_correction_T_min  0.6492
_exptl_absorpt_correction_type   multi-scan
_exptl_absorpt_process_details   SADABS-2014/5
_exptl_crystal_colour            colourless
_exptl_crystal_density_diffrn    1.668
_exptl_crystal_description       block
_exptl_crystal_F_000             444
_exptl_crystal_size_max          0.35
_exptl_crystal_size_mid          0.125
_exptl_crystal_size_min          0.096
_refine_diff_density_max         0.672
_refine_diff_density_min         -0.896
_refine_diff_density_rms         0.135
_refine_ls_extinction_method     none
_refine_ls_goodness_of_fit_ref   1.064
_refine_ls_hydrogen_treatment    mixed
_refine_ls_matrix_type           full
_refine_ls_number_parameters     220
_refine_ls_number_reflns         4192
_refine_ls_number_restraints     0
_refine_ls_restrained_S_all      1.064
_refine_ls_R_factor_all          0.0440
_refine_ls_R_factor_gt           0.0358
_refine_ls_shift/su_max          0.000
_refine_ls_shift/su_mean         0.000
_refine_ls_structure_factor_coef Fsqd
_refine_ls_weighting_details
'w=1/[\s^2^(Fo^2^)+(0.0141P)^2^+0.9249P] where P=(Fo^2^+2Fc^2^)/3'
_refine_ls_weighting_scheme      calc
_refine_ls_wR_factor_gt          0.0550
_refine_ls_wR_factor_ref         0.0575
_reflns_Friedel_coverage         0.000
_reflns_number_gt                3639
_reflns_number_total             4192
_reflns_threshold_expression     'I > 2\s(I)'
_cod_data_source_file            aw5064sup1.cif
_cod_data_source_block           3I
_cod_database_code               2108937
_shelx_shelxl_version_number     2018/3
_shelx_space_group_comment
;
The symmetry employed for this shelxl refinement is uniquely defined
by the following loop, which should always be used as a source of
symmetry information in preference to the above space-group names.
They are only intended as comments.
;
_shelx_estimated_absorpt_t_max   0.840
_shelx_estimated_absorpt_t_min   0.558
_olex2_refinement_description
;
1. Fixed Uiso
 At 1.2 times of:
  All C(H) groups, All N(H) groups
2.a Aromatic/amide H refined with riding coordinates:
 C2(H2), C3(H3), C4(H4), C5(H5), C6(H6), C8(H8), C10(H10), C11(H11), C12(H12),
 C14(H14), C15(H15), C16(H16), C17(H17), C18(H18)
;
_shelx_res_file
;
TITL P-1 in P-1
    ahp3i.res
    created by SHELXL-2018/3 at 22:27:46 on 28-May-2021
CELL 0.71073 10.06 10.4577 10.6104 109.098 95.734 116.967
ZERR 2 0.0002 0.0002 0.0002 0.001 0.001 0.001
LATT 1
SFAC C H N O P I
UNIT 36 30 2 6 2 2

L.S. 12
PLAN  10
SIZE 0.35 0.125 0.096
TEMP -173.15
CONF
BOND $H
MORE -1
fmap 2
acta
SHEL 999 0.74
REM <olex2.extras>
REM <HklSrc "%.\\AHP3I.hkl">
REM </olex2.extras>

WGHT    0.014100    0.924900
FVAR       0.15248
I1    6    0.362932    0.268847    0.291594    11.00000    0.01394    0.01179 =
         0.01986    0.00697    0.00716    0.00337
P1    5    1.025862    0.907845    0.287856    11.00000    0.01140    0.01035 =
         0.01283    0.00518    0.00561    0.00521
O1    4    1.096244    0.819084    0.192682    11.00000    0.01507    0.01410 =
         0.01201    0.00570    0.00651    0.00987
O2    4    0.954955    0.941453    0.171073    11.00000    0.01679    0.01614 =
         0.01286    0.00769    0.00769    0.01170
O3    4    1.137306    1.048037    0.415845    11.00000    0.01359    0.01236 =
         0.01106    0.00383    0.00468    0.00470
N1    3    0.885703    0.780692    0.323778    11.00000    0.01259    0.01293 =
         0.00633    0.00156    0.00465    0.00393
H1    2    0.881347    0.815217    0.399126    11.00000   -1.20000
C1    1    1.181773    0.764477    0.250935    11.00000    0.01791    0.01871 =
         0.01162    0.00602    0.00805    0.01431
C2    1    1.103306    0.611668    0.240546    11.00000    0.01544    0.01844 =
         0.02707    0.00973    0.00680    0.00861
AFIX  43
H2    2    0.993658    0.545534    0.198265    11.00000   -1.20000
AFIX   0
C3    1    1.187776    0.557395    0.292938    11.00000    0.02648    0.01986 =
         0.03327    0.01396    0.01166    0.01465
AFIX  43
H3    2    1.136056    0.452648    0.286524    11.00000   -1.20000
AFIX   0
C4    1    1.347467    0.654642    0.354810    11.00000    0.02760    0.02602 =
         0.01231    0.00749    0.00578    0.02109
AFIX  43
H4    2    1.404848    0.617328    0.392179    11.00000   -1.20000
AFIX   0
C5    1    1.423187    0.806122    0.362076    11.00000    0.01777    0.02254 =
         0.01455    0.00186    0.00269    0.01085
AFIX  43
H5    2    1.532933    0.872364    0.403670    11.00000   -1.20000
AFIX   0
C6    1    1.340210    0.862067    0.309144    11.00000    0.01698    0.01367 =
         0.01902    0.00351    0.00666    0.00656
AFIX  43
H6    2    1.391953    0.965756    0.313096    11.00000   -1.20000
AFIX   0
C7    1    0.756490    0.630161    0.231870    11.00000    0.01297    0.00761 =
         0.01253    0.00289    0.00374    0.00534
C8    1    0.647040    0.546350    0.288714    11.00000    0.01580    0.01291 =
         0.01022    0.00485    0.00600    0.00917
AFIX  43
H8    2    0.658593    0.591193    0.385658    11.00000   -1.20000
AFIX   0
C9    1    0.521383    0.397059    0.202206    11.00000    0.01083    0.01029 =
         0.02146    0.00853    0.00622    0.00552
C10   1    0.501324    0.328026    0.060948    11.00000    0.01382    0.01080 =
         0.01639    0.00412    0.00135    0.00318
AFIX  43
H10   2    0.415189    0.225000    0.003145    11.00000   -1.20000
AFIX   0
C11   1    0.610321    0.413213    0.005893    11.00000    0.02039    0.01732 =
         0.00918    0.00331    0.00168    0.00991
AFIX  43
H11   2    0.598103    0.367683   -0.091131    11.00000   -1.20000
AFIX   0
C12   1    0.736563    0.563116    0.089081    11.00000    0.01420    0.01374 =
         0.01719    0.00665    0.00591    0.00559
AFIX  43
H12   2    0.809313    0.620082    0.049098    11.00000   -1.20000
AFIX   0
C13   1    0.887824    1.036757    0.196646    11.00000    0.01191    0.01010 =
         0.01496    0.00304    0.00313    0.00550
C14   1    0.840253    1.075465    0.313933    11.00000    0.02434    0.02506 =
         0.02045    0.01357    0.01125    0.01715
AFIX  43
H14   2    0.852878    1.039602    0.383235    11.00000   -1.20000
AFIX   0
C15   1    0.773087    1.168699    0.328109    11.00000    0.03183    0.03426 =
         0.02488    0.01232    0.01591    0.02598
AFIX  43
H15   2    0.740118    1.197381    0.408237    11.00000   -1.20000
AFIX   0
C16   1    0.754307    1.219460    0.226318    11.00000    0.03133    0.03083 =
         0.03076    0.01764    0.01524    0.02592
AFIX  43
H16   2    0.708524    1.282807    0.236495    11.00000   -1.20000
AFIX   0
C17   1    0.802238    1.177926    0.109665    11.00000    0.02618    0.02582 =
         0.02383    0.01608    0.00824    0.01605
AFIX  43
H17   2    0.788418    1.212265    0.039477    11.00000   -1.20000
AFIX   0
C18   1    0.870092    1.086866    0.094293    11.00000    0.01672    0.01458 =
         0.01615    0.00907    0.00768    0.00839
AFIX  43
H18   2    0.903981    1.059211    0.014562    11.00000   -1.20000
AFIX   0
HKLF 4




REM  P-1 in P-1
REM wR2 = 0.0575, GooF = S = 1.064, Restrained GooF = 1.064 for all data
REM R1 = 0.0358 for 3639 Fo > 4sig(Fo) and 0.0440 for all 4192 data
REM 220 parameters refined using 0 restraints

END

WGHT      0.0141      0.9249

REM Highest difference peak  0.672,  deepest hole -0.896,  1-sigma level  0.135
Q1    1   0.3112  0.3094  0.3461  11.00000  0.05    0.67
Q2    1   0.4065  0.2179  0.2385  11.00000  0.05    0.62
Q3    1   0.9631  0.8244  0.2946  11.00000  0.05    0.60
Q4    1   0.4111  0.4057  0.3853  11.00000  0.05    0.57
Q5    1   0.4398  0.3176  0.1248  11.00000  0.05    0.57
Q6    1   0.3014  0.1915  0.2996  11.00000  0.05    0.57
Q7    1   0.8433  1.1611  0.3123  11.00000  0.05    0.57
Q8    1   1.4468  0.6949  0.5816  11.00000  0.05    0.55
Q9    1   0.2610  0.2774  0.2363  11.00000  0.05    0.55
Q10   1   0.5327  0.4040  0.0351  11.00000  0.05    0.54
;
_shelx_res_checksum              80072
_shelx_hkl_file
;
   0   0  -1    3.63    0.27
   0   0   1    4.00    0.29
   0   0  -2  786.01   12.63
   0   0   2  750.08   13.23
   0   0   2  807.68   12.66
   0   0  -3  242.46    4.68
   0   0  -3  248.72    4.79
   0   0   3  240.40    4.79
   0   0   3  244.87    4.46
   0   0   3  225.70    5.45
   0   0  -4   62.75    2.09
   0   0  -4   61.99    1.99
   0   0   4   67.53    2.15
   0   0   4   59.77    1.78
   0   0   4   58.95    2.60
   0   0  -5  128.06    3.57
   0   0   5  126.88    4.38
   0   0   5  128.32    3.56
   0   0   5  127.28    3.11
   0   0  -6    0.61    0.31
   0   0   6    0.10    0.25
   0   0   6   -0.19    0.19
   0   0   6    0.75    0.31
   0   0   7   69.23    2.42
   0   0   7   72.65    2.95
   0   0   8   44.56    2.03
   0   0   8   42.37    2.41
   1   1   9    2.72    0.86
   1   1   8   24.50    1.70
   1   1   7    0.51    0.41
   1   1   7   -0.03    0.38
   1   1   6   26.81    1.57
   1   1   6   25.79    1.75
   1   1   5   62.66    2.31
   1   1   5   62.93    2.50
   1   1   5   54.33    2.36
  -1  -1  -5   60.12    2.37
   1   1   4   20.04    1.17
   1   1   4   18.05    1.21
  -1  -1  -4   19.64    1.18
   1   1   3  228.56    4.82
   1   1   3  224.06    4.91
  -1  -1  -3  230.93    4.78
   1   1   2    0.27    0.22
   1   1   2    0.07    0.22
  -1  -1  -2   -0.05    0.15
  -1  -1  -2   -0.19    0.11
  -1  -1  -2    0.12    0.20
   1   1   1  387.88    6.80
   1   1   1  402.94    6.92
   1   1   1  397.13    6.87
  -1  -1  -1  385.67    6.87
  -1  -1  -1  385.78    6.80
  -1  -1  -1  385.99    6.52
   1   1   0  146.82    2.78
   1   1   0  146.32    2.90
   1   1   0  148.32    2.92
  -1  -1   0  141.05    2.89
  -1  -1   0  144.06    2.78
  -1  -1   0  144.41    2.42
   1   1  -1  111.65    2.20
   1   1  -1  116.93    2.34
   1   1  -1  116.52    2.08
  -1  -1   1  113.38    2.32
  -1  -1   1  113.81    2.12
  -1  -1   1  118.70    2.23
   1   1  -2    4.63    0.34
   1   1  -2    4.00    0.40
   1   1  -2    5.56    0.43
  -1  -1   2    4.53    0.43
  -1  -1   2    5.59    0.40
   1   1  -3   57.05    1.62
   1   1  -3   58.45    1.64
   1   1  -3   56.97    1.63
  -1  -1   3   55.44    1.59
   1   1  -4  138.68    3.29
   1   1  -4  138.03    3.23
   1   1  -4  144.51    3.33
  -1  -1   4  140.19    3.96
  -1  -1   4  138.79    3.19
  -1  -1   4  143.10    2.86
  -1  -1   4  145.03    3.13
   1   1  -5   29.96    1.39
  -1  -1   5   30.61    1.24
  -1  -1   5   30.52    1.84
  -1  -1   5   30.76    1.12
  -1  -1   5   27.39    1.30
   1   1  -6   75.22    2.68
  -1  -1   6   74.15    3.31
  -1  -1   6   76.27    2.48
  -1  -1   6   76.27    2.09
  -1  -1   7   82.23    2.48
  -1  -1   7   84.75    2.44
  -1  -1   7   85.74    3.90
  -1  -1   8   17.05    1.22
  -1  -1   8   17.06    2.27
  -1  -1   9   45.90    3.32
  -1  -1  10    1.94    0.93
   2   2   9    7.88    1.43
   2   2   8   14.60    1.72
   2   2   7    1.81    0.72
   2   2   6   75.89    3.29
   2   2   6   73.09    3.07
   2   2   5   -0.21    0.37
   2   2   5    0.57    0.45
  -2  -2  -5   -0.22    0.25
  -2  -2  -5    0.06    0.25
   2   2   4   47.97    2.20
   2   2   4   52.65    2.31
   2   2   4   45.14    1.94
  -2  -2  -4   51.10    2.28
  -2  -2  -4   50.85    2.08
  -2  -2  -4   50.57    2.44
   2   2   3    6.72    0.93
   2   2   3    7.12    0.93
   2   2   3    6.46    0.72
  -2  -2  -3    6.27    0.73
  -2  -2  -3    7.14    0.94
  -2  -2  -3    5.39    0.70
   2   2   2   74.08    2.53
   2   2   2   80.57    2.52
   2   2   2   82.03    2.28
  -2  -2  -2   77.15    2.57
  -2  -2  -2   78.92    2.16
  -2  -2  -2   78.28    2.23
   2   2   1    0.16    0.26
   2   2   1    0.43    0.30
  -2  -2  -1    0.58    0.19
  -2  -2  -1    0.84    0.33
  -2  -2  -1    1.03    0.33
   2   2   0   11.54    0.81
   2   2   0    8.85    0.67
   2   2   0   10.10    0.77
  -2  -2   0   10.67    0.79
  -2  -2   0   10.65    0.72
  -2  -2   0   10.43    0.76
  -2  -2   0   10.41    0.40
  -2  -2   0    9.51    0.42
  -2  -2   0   10.57    0.39
   2   2  -1   75.59    1.96
   2   2  -1   70.08    2.07
   2   2  -1   71.92    2.13
  -2  -2   1   72.84    2.15
  -2  -2   1   70.04    1.91
  -2  -2   1   73.53    1.66
  -2  -2   1   73.59    2.15
   2   2  -2  209.24    4.12
   2   2  -2  211.23    3.82
   2   2  -2  216.12    4.40
   2   2  -2  208.35    3.82
   2   2  -2  213.24    4.27
   2   2  -2  208.07    3.60
  -2  -2   2  207.23    4.37
  -2  -2   2  214.65    3.98
  -2  -2   2  214.01    4.15
  -2  -2   2  215.17    4.57
   2   2  -3   71.33    1.79
   2   2  -3   69.30    1.75
   2   2  -3   71.95    2.07
   2   2  -3   70.84    1.96
  -2  -2   3   68.85    2.04
  -2  -2   3   70.73    1.82
  -2  -2   3   69.90    1.92
  -2  -2   3   70.02    2.18
   2   2  -4  167.94    3.79
   2   2  -4  164.74    3.74
  -2  -2   4  169.33    3.83
  -2  -2   4  165.92    3.72
  -2  -2   4  168.12    3.97
   2   2  -5   18.35    1.08
   2   2  -5   19.04    1.11
   2   2  -5   16.87    1.05
  -2  -2   5   21.06    1.17
  -2  -2   5   18.41    0.90
  -2  -2   5   18.55    1.14
   2   2  -6   89.79    2.88
   2   2  -6   94.60    2.96
  -2  -2   6   97.61    2.42
  -2  -2   6   94.34    2.87
  -2  -2   6   97.13    2.86
   2   2  -7   -0.14    0.26
   2   2  -7    0.19    0.34
  -2  -2   7   -0.08    0.27
  -2  -2   7    0.08    0.27
  -2  -2   7    0.18    0.42
  -2  -2   7    0.26    0.24
   2   2  -8   68.79    2.83
  -2  -2   8   71.86    2.58
  -2  -2   8   72.50    2.73
  -2  -2   8   65.47    3.55
   2   2  -9    3.84    0.93
  -2  -2   9    5.33    1.45
  -2  -2   9    2.70    0.68
   2   2 -10    0.33    0.38
  -2  -2  10   -0.24    0.50
  -2  -2  12   -0.18    0.66
  -2  -2  13   13.52    2.76
   3   3   9   17.66    2.30
   3   3   8    7.04    1.44
   3   3   7   24.86    2.46
   3   3   6   14.74    1.78
   3   3   5   26.57    1.99
   3   3   5   25.81    2.32
   3   3   4   67.66    3.05
   3   3   4   68.95    3.01
   3   3   3    0.41    0.40
   3   3   3    0.58    0.46
  -3  -3  -3    0.01    0.34
  -3  -3  -3   -0.17    0.26
   3   3   2  100.41    3.29
   3   3   2  109.17    3.65
  -3  -3  -2  103.34    3.55
  -3  -3  -2  103.93    3.14
   3   3   1  146.13    4.19
   3   3   1  144.35    3.88
  -3  -3  -1  139.62    3.80
  -3  -3  -1  142.35    3.07
  -3  -3  -1  151.23    4.22
   3   3   0  134.62    3.85
   3   3   0  135.57    3.50
  -3  -3   0  133.99    3.83
  -3  -3   0  128.61    2.45
  -3  -3   0  133.00    2.71
  -3  -3   0  123.77    3.52
   3   3  -1  215.06    5.07
   3   3  -1  212.25    4.68
  -3  -3   1  211.73    5.05
  -3  -3   1  217.16    5.15
  -3  -3   1  211.33    4.15
   3   3  -2   42.45    1.77
   3   3  -2   38.28    1.55
  -3  -3   2   41.55    1.82
  -3  -3   2   41.78    1.43
  -3  -3   2   38.99    1.83
   3   3  -3  184.17    4.29
   3   3  -3  185.75    4.15
   3   3  -3  185.11    3.32
   3   3  -3  187.42    3.65
   3   3  -3  186.91    3.34
   3   3  -3  186.29    3.61
  -3  -3   3  182.66    4.49
  -3  -3   3  187.96    3.97
  -3  -3   3  189.60    4.72
   3   3  -4    0.57    0.21
   3   3  -4    0.77    0.27
   3   3  -4    0.49    0.32
   3   3  -4    0.38    0.20
  -3  -3   4    0.22    0.32
  -3  -3   4    0.99    0.42
  -3  -3   4    0.59    0.30
   3   3  -5   88.40    2.70
   3   3  -5   89.31    2.47
   3   3  -5   82.34    2.35
  -3  -3   5   83.99    2.79
  -3  -3   5   87.59    3.01
   3   3  -6   45.75    1.86
   3   3  -6   43.54    1.92
   3   3  -6   45.73    1.69
  -3  -3   6   43.54    1.67
  -3  -3   6   42.63    1.98
  -3  -3   6   41.79    2.07
   3   3  -7    2.17    0.58
   3   3  -7    3.01    0.56
   3   3  -7    3.68    0.76
  -3  -3   7    2.64    0.68
  -3  -3   7    2.11    0.60
   3   3  -8   37.17    2.02
   3   3  -8   35.26    1.63
  -3  -3   8   39.29    1.99
  -3  -3   8   36.38    2.01
   3   3  -9   30.63    1.98
   3   3  -9   32.43    1.63
  -3  -3   9   34.13    1.96
  -3  -3   9   34.73    2.02
  -3  -3   9   32.30    2.68
   3   3 -10   76.08    2.69
   3   3 -10   67.46    3.18
  -3  -3  10   72.64    3.05
  -3  -3  10   63.50    4.01
  -3  -3  11    4.92    1.14
  -3  -3  12   29.36    3.98
  -3  -3  13   16.53    3.05
  -3  -3  14    3.42    1.63
   4   4   7   10.30    1.96
   4   4   6    5.91    1.39
   4   4   5   20.57    2.35
   4   4   4    3.21    1.02
   4   4   3   43.84    2.69
   4   4   3   48.53    2.60
   4   4   2   21.43    1.60
   4   4   2   20.03    2.05
  -4  -4  -2   19.88    1.51
   4   4   1  102.80    3.86
   4   4   1   92.91    3.37
  -4  -4  -1   97.07    3.43
   4   4   0   58.51    2.73
   4   4   0   57.47    2.42
  -4  -4   0   58.05    2.73
  -4  -4   0   59.76    2.60
   4   4  -1   48.71    2.35
   4   4  -1   47.59    2.09
  -4  -4   1   49.81    2.39
  -4  -4   1   49.84    2.44
   4   4  -2  138.43    4.13
   4   4  -2  134.18    3.72
  -4  -4   2  137.66    4.23
  -4  -4   2  139.73    4.30
  -4  -4   2  133.17    3.37
   4   4  -3    0.26    0.33
   4   4  -3    1.23    0.50
  -4  -4   3    0.72    0.43
  -4  -4   3    1.24    0.43
  -4  -4   3    0.26    0.40
   4   4  -4   47.25    2.11
   4   4  -4   45.38    1.39
   4   4  -4   45.33    1.93
  -4  -4   4   48.92    2.27
  -4  -4   4   44.83    2.31
  -4  -4   4   46.03    1.84
   4   4  -5   40.04    1.84
   4   4  -5   37.91    1.45
  -4  -4   5   38.16    2.03
  -4  -4   5   36.73    2.12
  -4  -4   5   38.90    1.72
   4   4  -6    4.46    0.66
   4   4  -6    4.33    0.82
  -4  -4   6    6.19    1.12
  -4  -4   6    5.27    0.95
   4   4  -7   83.03    3.07
   4   4  -7   91.58    2.75
  -4  -4   7   82.67    3.43
  -4  -4   7   82.69    3.21
   4   4  -8   12.91    1.44
   4   4  -8   11.79    1.19
  -4  -4   8   15.40    1.86
  -4  -4   8   16.51    1.70
   4   4  -9   99.69    3.22
   4   4  -9   95.03    3.64
  -4  -4   9   93.88    3.59
  -4  -4   9   94.91    3.82
   4   4 -10   26.69    3.49
  -4  -4  10   26.45    2.03
  -4  -4  11   14.41    1.91
  -4  -4  12   13.74    2.51
  -4  -4  13    0.14    0.83
   5   5   5    3.06    1.15
   5   5   4    7.26    1.57
   5   5   3   17.43    2.35
   5   5   2    1.89    0.85
   5   5   1   12.53    1.77
   5   5   0    7.58    1.46
  -5  -5   0   10.05    1.54
   5   5  -1    0.17    0.50
  -5  -5   1    0.62    0.54
   5   5  -2   20.62    2.10
  -5  -5   2   21.89    2.27
   5   5  -3    6.72    1.23
  -5  -5   3    5.64    1.12
   5   5  -4   43.39    2.37
  -5  -5   4   48.84    2.68
  -5  -5   4   45.24    2.05
  -5  -5   5   12.37    1.29
  -5  -5   5   18.67    2.20
   5   5  -6   32.31    1.36
  -5  -5   6   30.82    2.24
   5   5  -7   40.86    1.73
  -5  -5   7   38.37    2.52
  -5  -5   8   20.44    2.40
  -5  -5   9   10.76    1.70
  -5  -5  10    0.92    0.71
  -5  -5  11    4.90    1.31
  -5  -5  12    8.46    1.62
  -5  -5  13    1.54    1.11
   6   6   2   -0.44    0.54
   6   6   1   16.95    2.30
   6   6   0   -0.39    0.64
   6   6  -1   29.29    2.97
  -6  -6   1   30.26    2.78
   6   6  -2   12.80    1.87
  -6  -6   2   17.16    2.25
   6   6  -3   33.01    2.43
  -6  -6   3   38.28    2.66
   6   6  -4   47.82    2.86
  -6  -6   4   47.93    3.03
   6   6  -5   14.31    1.95
  -6  -6   5   16.99    2.36
  -6  -6   6   36.10    2.68
  -6  -6   7    0.50    0.51
  -6  -6   8   21.04    2.66
  -6  -6   9   23.46    2.85
  -6  -6  10   13.46    2.24
  -6  -6  11   37.86    2.95
   7   7  -4    5.71    1.45
  -7  -7   4    3.38    1.22
  -7  -7   5   30.14    3.41
  -7  -7   6   14.30    2.44
  -7  -7   7   14.63    2.53
  -7  -7   8   61.02    3.91
  -7  -6  10   -0.03    0.64
  -7  -6   9   10.94    2.04
  -7  -6   8    8.96    1.82
  -7  -6   7   15.10    2.29
  -7  -6   6    6.84    1.65
  -7  -6   5    0.84    0.80
  -7  -6   4   16.35    2.36
   7   6  -4   11.15    1.83
  -7  -6   3   -0.05    0.54
   7   6  -3    0.54    0.77
  -7  -6   2   13.55    2.07
   7   6  -2   16.43    2.32
  -7  -6   1    2.17    0.96
   7   6  -1    3.24    1.27
   7   6   0    0.34    0.81
  -6  -5  12   19.71    2.59
  -6  -5  11   19.53    2.54
  -6  -5  10   10.49    1.85
  -6  -5   9   23.10    2.59
  -6  -5   8    3.87    1.22
  -6  -5   7   20.71    2.42
  -6  -5   6    0.50    0.60
  -6  -5   5   20.92    2.32
  -6  -5   5   21.25    1.52
  -6  -5   4   26.66    2.68
   6   5  -4   27.34    2.52
  -6  -5   3    6.59    1.36
   6   5  -3    7.26    1.40
  -6  -5   2   45.80    2.80
   6   5  -2   51.14    2.87
  -6  -5   1    4.18    1.09
   6   5  -1    4.45    1.17
  -6  -5   0   72.20    3.51
   6   5   0   68.42    3.66
   6   5   1   11.82    1.82
   6   5   2   23.34    2.76
   6   5   3   30.07    3.02
  -5  -4  13    9.11    2.34
  -5  -4  12    9.71    1.51
  -5  -4  11   13.40    1.92
  -5  -4  10   43.81    2.73
  -5  -4   9    0.80    0.61
  -5  -4   8   45.19    2.67
  -5  -4   7   27.75    1.97
  -5  -4   7   30.82    2.75
   5   4  -7   30.18    1.49
  -5  -4   6    9.42    1.37
  -5  -4   6    8.37    1.40
   5   4  -6    9.22    0.88
  -5  -4   5   78.14    3.35
  -5  -4   5   82.99    3.31
  -5  -4   5   75.10    2.65
   5   4  -5   82.80    2.07
  -5  -4   4    0.94    0.54
  -5  -4   4    1.13    0.59
   5   4  -4    1.24    0.61
  -5  -4   3   48.34    1.96
  -5  -4   3   50.00    2.53
  -5  -4   3   48.69    2.59
   5   4  -3   49.80    2.42
  -5  -4   2    9.37    1.48
  -5  -4   2    8.58    1.29
   5   4  -2   12.44    1.58
  -5  -4   1   70.50    3.10
   5   4  -1   71.44    3.15
  -5  -4   0   22.35    2.14
   5   4   0   26.62    2.42
  -5  -4  -1   24.08    1.81
   5   4   1   27.27    2.03
   5   4   2   22.87    2.36
   5   4   3    0.35    0.61
   5   4   4   42.87    2.95
   5   4   5    2.25    1.08
  -4  -3  13   26.73    3.83
  -4  -3  12    0.12    0.52
  -4  -3  11   10.63    1.89
  -4  -3  10   15.19    2.37
  -4  -3  10   22.18    2.11
   4   3 -10   20.31    1.42
   4   3 -10   20.62    2.12
  -4  -3   9    5.43    1.07
  -4  -3   9    5.13    0.95
   4   3  -9    4.16    0.76
   4   3  -9    4.32    0.90
  -4  -3   8   40.15    2.23
  -4  -3   8   40.72    2.21
   4   3  -8   40.48    2.55
   4   3  -8   40.12    2.11
   4   3  -8   37.37    1.76
  -4  -3   7    0.39    0.46
  -4  -3   7    0.91    0.48
  -4  -3   7    1.12    0.49
   4   3  -7    1.04    0.48
   4   3  -7    1.11    0.41
   4   3  -7    0.24    0.33
  -4  -3   6   66.36    2.80
  -4  -3   6   66.42    2.69
   4   3  -6   66.37    2.16
   4   3  -6   67.73    2.44
   4   3  -6   67.91    2.27
  -4  -3   5    1.54    0.57
  -4  -3   5    2.38    0.70
   4   3  -5    1.53    0.38
   4   3  -5    1.98    0.44
  -4  -3   4   93.69    3.13
  -4  -3   4   89.77    3.21
  -4  -3   4   91.37    2.58
   4   3  -4   92.14    2.24
   4   3  -4   87.38    2.60
  -4  -3   3   43.64    1.63
  -4  -3   3   40.66    2.00
  -4  -3   3   43.93    2.16
   4   3  -3   44.37    1.03
   4   3  -3   46.07    1.72
   4   3  -3   44.66    1.96
  -4  -3   2   48.80    1.67
  -4  -3   2   58.82    2.37
  -4  -3   2   51.90    2.30
   4   3  -2   54.20    2.22
   4   3  -2   43.14    1.72
  -4  -3   1   21.71    1.48
  -4  -3   1   19.52    1.37
  -4  -3   1   19.26    0.97
   4   3  -1   18.10    1.33
  -4  -3   0    0.47    0.41
  -4  -3   0    0.03    0.28
   4   3   0    0.33    0.31
   4   3   0   -0.45    0.28
  -4  -3  -1   22.41    1.59
  -4  -3  -1   18.38    1.35
   4   3   1   18.86    1.31
   4   3   1   19.34    1.80
  -4  -3  -2   13.37    1.53
  -4  -3  -2   16.77    1.59
   4   3   2   16.21    1.73
   4   3   2   17.65    1.61
   4   3   3   33.63    2.20
   4   3   3   39.63    2.15
   4   3   4   20.03    2.18
   4   3   4   19.80    1.98
   4   3   5    2.65    0.90
   4   3   6    9.86    1.69
   4   3   7    0.26    0.70
   4   3   8    9.72    1.87
  -3  -2  13    2.36    1.43
  -3  -2  12    0.41    0.47
  -3  -2  11   15.10    2.13
  -3  -2  10    0.31    0.69
  -3  -2  10    0.34    0.43
   3   2 -10    0.07    0.44
  -3  -2   9   33.69    1.88
  -3  -2   9   38.75    2.91
  -3  -2   9   34.38    2.02
   3   2  -9   33.95    1.64
   3   2  -9   29.86    1.99
  -3  -2   8   21.14    1.43
  -3  -2   8   22.17    1.52
  -3  -2   8   22.73    2.62
   3   2  -8   20.79    1.21
   3   2  -8   18.60    1.44
  -3  -2   7   59.11    2.35
  -3  -2   7   55.52    2.34
  -3  -2   7   56.39    1.96
   3   2  -7   57.71    2.38
   3   2  -7   54.25    1.94
   3   2  -7   56.35    2.31
  -3  -2   6   95.90    3.12
  -3  -2   6  104.28    3.21
  -3  -2   6  104.95    2.78
   3   2  -6  103.57    2.71
   3   2  -6   96.65    2.96
   3   2  -6  101.46    3.04
  -3  -2   5    7.63    0.85
  -3  -2   5    6.12    0.89
  -3  -2   5    8.01    0.99
   3   2  -5    5.88    0.78
   3   2  -5    6.69    0.70
   3   2  -5    5.50    0.67
  -3  -2   4   92.54    2.42
  -3  -2   4   91.81    2.76
  -3  -2   4   90.82    2.86
   3   2  -4   90.76    2.32
   3   2  -4   94.49    2.31
   3   2  -4   92.48    2.48
  -3  -2   3   14.96    0.82
  -3  -2   3   14.46    1.00
  -3  -2   3   14.66    0.79
  -3  -2   3   13.49    1.03
   3   2  -3   14.76    0.72
   3   2  -3   15.43    0.65
   3   2  -3   14.60    0.70
  -3  -2   2   56.60    1.59
  -3  -2   2   54.21    1.98
  -3  -2   2   59.30    1.69
  -3  -2   2   57.83    2.08
   3   2  -2   56.71    1.67
   3   2  -2   57.70    1.23
   3   2  -2   55.61    1.91
   3   2  -2   56.48    1.23
  -3  -2   1  126.82    3.38
  -3  -2   1  126.31    3.37
  -3  -2   1  121.96    2.89
  -3  -2   1  131.00    2.59
   3   2  -1  123.18    3.29
  -3  -2   0   66.36    1.32
  -3  -2   0   68.37    2.36
  -3  -2   0   63.38    1.29
  -3  -2   0   68.08    2.05
  -3  -2   0   66.46    2.25
  -3  -2   0   64.36    1.35
   3   2   0   65.23    1.99
   3   2   0   68.39    2.34
  -3  -2  -1  216.53    4.09
  -3  -2  -1  221.73    4.92
  -3  -2  -1  217.40    5.16
   3   2   1  217.44    4.80
   3   2   1  214.24    5.17
  -3  -2  -2    1.24    0.43
  -3  -2  -2    1.04    0.42
  -3  -2  -2    1.09    0.32
   3   2   2    1.66    0.56
   3   2   2    1.18    0.45
   3   2   2    0.86    0.43
  -3  -2  -3  102.89    2.93
  -3  -2  -3  102.81    3.00
  -3  -2  -3  108.54    3.54
   3   2   3  106.42    3.52
   3   2   3  105.82    3.05
   3   2   3  107.17    3.36
  -3  -2  -4   11.04    1.13
  -3  -2  -4    9.64    1.25
   3   2   4    9.73    1.30
   3   2   4   11.00    1.33
  -3  -2  -5   14.03    2.31
   3   2   5   12.12    1.48
   3   2   5   11.88    1.45
   3   2   6   28.78    2.06
   3   2   6   32.28    2.11
   3   2   7    1.13    0.72
   3   2   8   27.47    2.59
   3   2   9    7.05    1.45
  -2  -1  12   35.57    4.29
  -2  -1  11    2.40    1.06
  -2  -1  10   53.45    3.82
  -2  -1   9   41.67    3.11
   2   1  -9   42.78    2.40
  -2  -1   8   19.98    1.43
  -2  -1   8   25.79    2.96
  -2  -1   8   17.30    1.11
   2   1  -8   20.46    1.54
  -2  -1   7   76.96    2.32
  -2  -1   7   76.00    3.62
  -2  -1   7   76.45    2.75
   2   1  -7   69.51    2.72
   2   1  -7   75.61    2.88
  -2  -1   6    0.42    0.36
  -2  -1   6    0.18    0.26
  -2  -1   6    0.50    0.33
  -2  -1   6    0.37    0.25
   2   1  -6    0.11    0.29
   2   1  -6    0.65    0.37
  -2  -1   5  111.47    3.03
  -2  -1   5  110.08    2.67
  -2  -1   5  110.65    2.86
   2   1  -5  108.05    3.04
   2   1  -5  109.69    3.08
   2   1  -5  110.91    3.01
  -2  -1   4   37.87    1.45
  -2  -1   4   38.85    1.53
  -2  -1   4   38.12    1.31
   2   1  -4   38.18    1.23
   2   1  -4   38.18    1.41
   2   1  -4   38.74    1.46
   2   1  -4   38.88    1.42
   2   1  -4   39.87    1.54
  -2  -1   3   85.37    2.29
  -2  -1   3   87.88    2.33
   2   1  -3   86.17    1.97
   2   1  -3   87.45    2.02
   2   1  -3   87.39    2.09
   2   1  -3   86.11    2.11
   2   1  -3   87.93    2.31
  -2  -1   2  322.76    5.50
  -2  -1   2  319.91    5.50
  -2  -1   2  320.48    5.51
  -2  -1   2  323.53    5.98
   2   1  -2  328.23    5.95
   2   1  -2  317.31    5.43
   2   1  -2  323.36    5.42
  -2  -1   1   89.23    1.88
  -2  -1   1   87.47    2.26
  -2  -1   1   88.69    2.22
  -2  -1   1   87.41    1.77
  -2  -1   1   89.10    1.77
   2   1  -1   90.53    1.53
   2   1  -1   89.66    1.53
   2   1  -1   91.11    2.19
   2   1  -1   89.54    1.88
   2   1  -1   88.35    2.23
  -2  -1   0  321.93    5.19
  -2  -1   0  327.08    6.01
  -2  -1   0  323.92    6.07
  -2  -1   0  321.80    5.70
   2   1   0  321.35    6.07
   2   1   0  333.76    6.08
   2   1   0  333.99    6.03
  -2  -1  -1   63.66    1.95
  -2  -1  -1   61.31    1.79
  -2  -1  -1   61.51    1.79
  -2  -1  -1   61.61    1.50
   2   1   1   62.68    1.77
   2   1   1   61.05    1.80
   2   1   1   63.49    1.95
   2   1   1   59.23    1.90
  -2  -1  -2  231.75    4.59
  -2  -1  -2  226.56    4.90
  -2  -1  -2  233.48    4.53
   2   1   2  229.51    4.80
   2   1   2  229.84    4.60
   2   1   2  231.76    4.94
  -2  -1  -3    3.54    0.63
  -2  -1  -3    3.00    0.51
  -2  -1  -3    3.03    0.49
   2   1   3    3.40    0.59
   2   1   3    2.75    0.54
  -2  -1  -4  102.82    3.18
  -2  -1  -4  109.25    3.13
  -2  -1  -4  104.48    2.70
   2   1   4  109.68    3.20
   2   1   4  102.23    2.71
   2   1   4  103.02    3.23
  -2  -1  -5  146.74    4.16
  -2  -1  -5  148.92    4.11
   2   1   5  141.69    4.23
   2   1   5  141.29    4.03
  -2  -1  -6   16.25    1.61
   2   1   6   16.17    1.65
   2   1   6   16.00    1.51
   2   1   7   96.60    3.44
   2   1   7   84.04    3.58
   2   1   8   10.79    1.47
   2   1   9   51.92    2.78
  -1   0   9    0.96    0.61
  -1   0   8   55.85    2.21
  -1   0   8   47.75    3.24
  -1   0   8   54.31    2.65
  -1   0   7    1.24    0.50
  -1   0   7    1.59    0.49
  -1   0   7    1.42    0.77
  -1   0   6   52.91    2.94
  -1   0   6   61.12    2.01
  -1   0   6   58.19    2.34
  -1   0   6   54.50    1.67
   1   0  -6   53.56    2.29
  -1   0   5   55.99    1.79
  -1   0   5   51.26    2.61
  -1   0   5   57.02    2.10
   1   0  -5   57.07    2.14
  -1   0   4    7.46    0.68
  -1   0   4    8.47    0.79
  -1   0   4   10.45    1.32
  -1   0   4   11.18    0.99
   1   0  -4   10.21    0.79
   1   0  -4    9.12    0.86
  -1   0   3  337.20    6.88
  -1   0   3  336.75    6.17
  -1   0   3  340.51    5.92
  -1   0   3  338.09    6.15
   1   0  -3  338.62    6.15
   1   0  -3  338.06    6.19
   1   0  -3  334.26    6.23
  -1   0   2  154.83    3.06
  -1   0   2  154.67    3.06
  -1   0   2  154.77    2.97
   1   0  -2  151.51    3.06
   1   0  -2  156.03    2.72
   1   0  -2  155.48    2.97
   1   0  -2  153.50    3.05
  -1   0   1   84.50    1.57
  -1   0   1   84.34    1.66
  -1   0   1   83.52    1.76
   1   0  -1   86.17    1.55
   1   0  -1   86.68    1.57
   1   0  -1   85.72    1.77
   1   0  -1   87.21    1.67
  -1   0   0    1.18    0.11
  -1   0   0    1.16    0.17
  -1   0   0    1.21    0.12
   1   0   0    1.26    0.12
   1   0   0    1.47    0.19
   1   0   0    1.41    0.12
  -1   0  -1   36.75    1.01
  -1   0  -1   36.13    0.98
   1   0   1   34.76    0.97
   1   0   1   34.76    1.00
  -1   0  -2  110.28    2.44
  -1   0  -2  112.18    2.51
   1   0   2  108.51    2.37
   1   0   2  105.67    2.47
  -1   0  -3    0.52    0.26
   1   0   3    1.04    0.33
   1   0   3    0.30    0.23
   1   0   4   58.00    1.99
   1   0   4   59.64    2.12
   1   0   4   62.76    1.93
  -1   0  -5    5.55    0.80
   1   0   5    8.01    0.82
   1   0   5    6.03    0.87
   1   0   5    7.05    0.81
  -1   0  -6   38.10    1.95
   1   0   6   39.85    2.03
   1   0   6   39.38    1.67
   1   0   6   35.22    1.66
   1   0   7   13.39    1.28
   1   0   7   11.06    1.41
   1   0   8   42.78    2.05
   1   0   8   39.50    2.38
   0   1   9   12.85    1.48
   0   1   8   45.79    2.60
   0   1   8   53.50    2.42
   0   1   7    0.21    0.43
   0   1   7   -0.09    0.31
   0   1   6   84.93    3.19
   0   1   6   88.60    2.89
   0  -1  -6   94.36    3.26
   0   1   5   11.85    1.24
   0   1   5   10.27    1.03
   0  -1  -5    9.09    1.02
   0   1   4  141.76    3.70
   0   1   4  143.15    3.46
   0  -1  -4  140.74    3.63
   0   1   3    2.83    0.46
   0   1   3    2.34    0.44
   0  -1  -3    2.08    0.40
   0   1   2    0.47    0.21
   0   1   2   -0.02    0.20
   0   1   2    0.40    0.21
   0  -1  -2    0.11    0.16
   0  -1  -2    0.03    0.19
   0   1   1   92.37    2.05
   0   1   1   91.57    1.95
   0   1   1   95.38    2.03
   0  -1  -1   90.03    1.94
   0  -1  -1   93.33    2.05
   0   1   0   16.89    0.42
   0   1   0   16.93    0.58
   0  -1   0   16.42    0.43
   0  -1   0   16.32    0.53
   0  -1   0   17.34    0.50
   0  -1   0   17.22    0.58
   0   1  -1    8.00    0.28
   0   1  -1    7.65    0.29
   0   1  -1    8.57    0.36
   0   1  -1    9.02    0.41
   0  -1   1    7.86    0.39
   0  -1   1    8.10    0.28
   0  -1   1    7.92    0.36
   0  -1   1    8.45    0.30
   0   1  -2    7.71    0.48
   0   1  -2    8.47    0.40
   0  -1   2    8.80    0.52
   0  -1   2    8.10    0.38
   0   1  -3   33.63    1.10
   0   1  -3   35.03    1.25
   0  -1   3   33.78    1.50
   0  -1   3   33.48    1.07
   0   1  -4   23.17    1.04
   0  -1   4   22.05    0.98
   0  -1   4   23.70    0.84
   0  -1   4   20.60    1.39
   0   1  -5   24.14    1.21
   0  -1   5   28.20    1.82
   0  -1   5   24.53    1.34
   0  -1   5   23.00    0.97
   0  -1   6   53.19    2.22
   0  -1   6   52.61    1.68
   0  -1   6   49.40    2.75
   0  -1   6   49.28    1.77
   0  -1   7    8.13    1.49
   0  -1   7    9.31    0.89
   0  -1   7   11.54    1.11
   0  -1   8   10.60    1.27
   0  -1   8   12.65    2.08
   1   2   9   35.72    2.34
   1   2   8    0.77    0.61
   1   2   7   47.32    2.43
   1   2   7   44.04    2.60
   1   2   6   45.36    2.26
   1   2   6   41.77    2.35
  -1  -2  -6   49.52    2.42
   1   2   5   70.52    2.86
   1   2   5   66.88    2.65
  -1  -2  -5   71.13    2.70
  -1  -2  -5   66.41    2.70
   1   2   4   69.55    2.62
   1   2   4   70.11    2.53
  -1  -2  -4   66.97    2.41
  -1  -2  -4   66.75    2.55
   1   2   3    3.25    0.62
   1   2   3    3.21    0.61
  -1  -2  -3    2.61    0.53
  -1  -2  -3    3.01    0.53
   1   2   2  168.12    4.06
   1   2   2  180.25    4.14
  -1  -2  -2  175.95    3.78
  -1  -2  -2  181.43    4.13
   1   2   1   50.05    1.66
   1   2   1   47.27    1.66
  -1  -2  -1   48.69    1.66
  -1  -2  -1   50.19    1.40
  -1  -2  -1   49.00    1.68
   1   2   0  409.04    6.62
   1   2   0  414.43    7.20
   1   2   0  399.52    7.21
   1   2   0  400.57    7.21
  -1  -2   0  414.60    7.28
  -1  -2   0  402.26    7.17
  -1  -2   0  400.39    6.52
  -1  -2   0  401.44    6.63
   1   2  -1   99.67    1.95
   1   2  -1  100.00    2.32
   1   2  -1  101.69    1.88
   1   2  -1  101.65    2.34
   1   2  -1  101.16    2.31
   1   2  -1   96.79    1.92
  -1  -2   1  100.67    1.87
  -1  -2   1  103.10    2.34
  -1  -2   1  104.30    2.37
  -1  -2   1  105.05    2.45
  -1  -2   1  102.21    2.06
   1   2  -2  118.96    2.68
   1   2  -2  123.47    2.46
   1   2  -2  122.86    2.62
   1   2  -2  125.18    2.51
   1   2  -2  120.40    2.40
  -1  -2   2  121.31    2.46
  -1  -2   2  121.15    2.62
  -1  -2   2  123.90    2.69
  -1  -2   2  124.50    2.85
   1   2  -3  283.28    5.36
   1   2  -3  285.77    5.17
  -1  -2   3  283.00    5.19
  -1  -2   3  275.17    5.31
  -1  -2   3  282.75    5.50
   1   2  -4    8.87    0.70
   1   2  -4    9.25    0.65
  -1  -2   4    9.13    0.67
  -1  -2   4    9.91    0.75
  -1  -2   4    9.85    0.75
   1   2  -5  127.24    3.37
   1   2  -5  128.68    3.16
  -1  -2   5  131.32    3.14
  -1  -2   5  130.17    2.62
  -1  -2   5  126.12    3.24
   1   2  -6   37.99    1.77
   1   2  -6   40.51    1.73
  -1  -2   6   43.07    2.36
  -1  -2   6   43.32    1.69
  -1  -2   6   39.87    1.25
  -1  -2   6   40.30    1.67
   1   2  -7   14.96    1.48
  -1  -2   7   13.27    1.02
  -1  -2   7   14.81    1.28
  -1  -2   7   15.55    0.81
  -1  -2   7   20.17    2.34
   1   2  -8  125.62    4.09
  -1  -2   8  132.24    5.22
  -1  -2   8  125.52    3.59
   1   2  -9    3.17    0.83
  -1  -2   9    1.91    0.83
  -1  -2  10  130.07    6.11
  -1  -2  11    6.53    1.71
  -1  -2  12   41.21    4.61
   2   3   9    3.03    1.11
   2   3   8   17.40    2.05
   2   3   7   18.57    2.00
   2   3   6    8.16    1.33
   2   3   5   12.13    1.47
   2   3   5   13.26    1.63
   2   3   4    9.65    1.33
   2   3   4   11.26    1.40
  -2  -3  -4    9.81    1.26
  -2  -3  -4   10.51    1.13
   2   3   3   74.53    2.88
   2   3   3   78.32    2.89
  -2  -3  -3   74.67    2.31
  -2  -3  -3   78.92    2.53
  -2  -3  -3   74.23    2.86
   2   3   2   29.25    1.64
   2   3   2   30.18    1.65
  -2  -3  -2   31.93    1.70
  -2  -3  -2   30.55    1.36
  -2  -3  -2   30.31    1.32
   2   3   1   54.40    2.14
   2   3   1   47.61    1.96
  -2  -3  -1   49.43    1.18
  -2  -3  -1   53.61    2.16
  -2  -3  -1   49.12    1.80
  -2  -3  -1   51.27    1.55
   2   3   0   48.81    1.94
   2   3   0   50.02    1.87
  -2  -3   0   47.93    1.30
  -2  -3   0   49.40    1.94
  -2  -3   0   49.45    1.83
  -2  -3   0   49.68    1.30
   2   3  -1    0.21    0.24
   2   3  -1   -0.28    0.19
   2   3  -1    0.04    0.08
  -2  -3   1    0.17    0.16
  -2  -3   1   -0.05    0.22
  -2  -3   1    0.15    0.21
  -2  -3   1   -0.02    0.08
   2   3  -2   51.54    1.80
   2   3  -2   54.33    1.81
   2   3  -2   51.47    1.34
   2   3  -2   52.30    1.20
   2   3  -2   55.14    1.37
   2   3  -2   55.31    1.89
  -2  -3   2   51.89    1.96
  -2  -3   2   54.71    1.59
  -2  -3   2   53.49    1.88
  -2  -3   2   57.52    1.85
   2   3  -3   -0.04    0.19
   2   3  -3   -0.03    0.07
   2   3  -3   -0.20    0.20
   2   3  -3    0.14    0.15
   2   3  -3    0.07    0.12
   2   3  -3    0.40    0.24
  -2  -3   3   -0.09    0.19
  -2  -3   3    0.14    0.23
  -2  -3   3    0.01    0.20
  -2  -3   3    0.23    0.28
   2   3  -4   58.42    1.96
   2   3  -4   62.80    2.08
   2   3  -4   59.82    1.79
  -2  -3   4   60.50    2.01
  -2  -3   4   58.31    2.19
   2   3  -5   10.84    1.01
   2   3  -5   10.49    1.10
  -2  -3   5   11.37    1.22
  -2  -3   5   11.95    1.08
   2   3  -6   10.59    1.13
  -2  -3   6   10.34    1.15
  -2  -3   6   10.99    1.07
  -2  -3   6   11.54    0.72
   2   3  -7  139.34    4.02
  -2  -3   7  137.19    3.97
  -2  -3   7  137.18    3.73
   2   3  -8   12.09    1.42
  -2  -3   8   10.77    1.77
  -2  -3   8   12.11    1.39
  -2  -3   8   11.22    1.18
   2   3  -9   43.90    2.38
  -2  -3   9   43.95    2.20
  -2  -3   9   45.19    2.19
  -2  -3   9   47.78    3.23
   2   3 -10   -0.16    0.30
  -2  -3  10    0.46    0.66
  -2  -3  12    5.02    1.61
  -2  -3  13   -0.26    0.72
  -2  -3  14    8.94    2.33
   3   4   8   11.87    1.95
   3   4   7   -0.33    0.57
   3   4   6   11.03    1.73
   3   4   5   18.86    2.12
   3   4   4    2.72    0.89
   3   4   4    3.46    0.96
   3   4   3   24.07    2.23
   3   4   3   24.01    1.76
   3   4   2    2.17    0.69
   3   4   2    2.48    0.75
  -3  -4  -2    1.68    0.58
  -3  -4  -2    1.82    0.56
   3   4   1    7.59    1.11
   3   4   1    5.89    1.06
  -3  -4  -1    6.48    1.04
  -3  -4  -1    6.55    0.99
   3   4   0    9.47    1.12
   3   4   0    6.86    1.05
  -3  -4   0    9.32    1.19
  -3  -4   0    8.21    1.09
   3   4  -1    2.11    0.60
   3   4  -1    2.78    0.62
  -3  -4   1    2.06    0.41
  -3  -4   1    2.44    0.63
  -3  -4   1    2.28    0.59
   3   4  -2   48.98    2.06
   3   4  -2   44.10    1.88
  -3  -4   2   46.26    1.64
  -3  -4   2   47.28    2.16
  -3  -4   2   40.12    1.96
   3   4  -3    0.38    0.20
   3   4  -3   -0.16    0.21
   3   4  -3   -0.26    0.23
  -3  -4   3    0.45    0.35
  -3  -4   3    0.06    0.26
  -3  -4   3   -0.42    0.22
   3   4  -4   64.42    2.33
   3   4  -4   66.63    1.73
   3   4  -4   65.75    1.89
   3   4  -4   64.41    2.24
   3   4  -4   57.28    2.18
  -3  -4   4   62.93    2.09
  -3  -4   4   70.32    2.74
  -3  -4   4   60.01    2.35
   3   4  -5   34.55    1.38
   3   4  -5   32.43    1.38
   3   4  -5   33.09    1.69
  -3  -4   5   34.78    1.75
  -3  -4   5   37.76    2.01
   3   4  -6   51.55    1.96
   3   4  -6   57.68    2.04
   3   4  -6   52.63    1.89
   3   4  -6   53.69    2.26
  -3  -4   6   51.65    2.23
  -3  -4   6   48.38    2.38
   3   4  -7   11.52    1.18
   3   4  -7   12.75    1.40
   3   4  -7   11.83    1.10
  -3  -4   7   16.45    1.74
  -3  -4   7   15.44    1.51
   3   4  -8    2.91    0.71
   3   4  -8    2.99    0.80
   3   4  -8    3.49    0.65
  -3  -4   8    2.63    0.69
  -3  -4   8    2.17    0.70
   3   4  -9   17.94    1.25
   3   4  -9   18.66    1.88
  -3  -4   9   15.34    1.73
   3   4 -10    0.73    0.41
   3   4 -10    1.10    0.63
  -3  -4  10    0.23    0.50
  -3  -4  10    0.86    0.63
   3   4 -11   18.96    1.63
  -3  -4  11   14.71    2.42
  -3  -4  11   18.17    1.95
  -3  -4  12    6.16    1.79
  -3  -4  13    7.34    2.08
  -3  -4  14    5.46    1.90
   4   5   6   30.33    3.22
   4   5   5   -0.03    0.75
   4   5   4   27.12    2.79
   4   5   3   10.98    1.75
   4   5   2   12.60    1.74
   4   5   2   17.10    1.85
   4   5   1   79.14    3.30
   4   5   1   77.02    3.53
  -4  -5  -1   74.64    3.12
   4   5   0    1.74    0.59
   4   5   0    2.26    0.83
  -4  -5   0    1.93    0.74
   4   5  -1  109.11    3.60
   4   5  -1   99.31    3.79
  -4  -5   1  105.67    3.82
   4   5  -2   40.00    2.03
   4   5  -2   35.82    2.12
  -4  -5   2   42.27    2.31
  -4  -5   2   40.84    2.27
   4   5  -3   16.17    1.67
   4   5  -3   18.41    1.34
  -4  -5   3   18.47    1.81
  -4  -5   3   18.06    1.21
  -4  -5   3   20.38    2.06
   4   5  -4   94.93    3.30
   4   5  -4   97.97    3.23
   4   5  -4   95.23    2.05
  -4  -5   4   93.80    3.67
  -4  -5   4   99.53    3.01
  -4  -5   4   94.90    3.52
   4   5  -5   11.94    1.35
   4   5  -5   12.42    1.38
   4   5  -5   11.91    0.80
  -4  -5   5   14.54    1.30
  -4  -5   5   12.86    1.49
  -4  -5   5   14.49    1.80
   4   5  -6   51.36    1.86
   4   5  -6   52.80    2.37
  -4  -5   6   45.59    2.37
  -4  -5   6   47.82    2.64
   4   5  -7    7.87    1.20
   4   5  -7    5.50    0.80
  -4  -5   7    5.80    1.08
  -4  -5   7    6.48    1.26
   4   5  -8   51.89    2.17
  -4  -5   8   47.39    2.90
  -4  -5   8   52.92    2.84
  -4  -5   9   49.76    2.82
  -4  -5  10   32.02    2.35
  -4  -5  11   39.02    2.64
  -4  -5  12    3.86    1.13
  -4  -5  12    4.13    1.45
  -4  -5  13   10.72    2.32
   5   6   3    5.75    1.44
   5   6   2   32.97    3.16
   5   6   1    0.58    0.65
   5   6   0   47.48    2.95
  -5  -6   0   45.30    2.95
   5   6  -1    5.75    1.25
  -5  -6   1    8.50    1.45
   5   6  -2   47.71    2.81
  -5  -6   2   48.34    2.81
   5   6  -3   48.22    2.71
  -5  -6   3   41.62    2.65
   5   6  -4   24.44    2.28
  -5  -6   4   17.23    1.58
  -5  -6   4   20.21    2.32
   5   6  -5   56.75    2.80
  -5  -6   5   53.06    2.42
  -5  -6   5   55.23    3.09
  -5  -6   6    9.08    1.63
  -5  -6   7   50.63    3.07
  -5  -6   8   31.99    3.04
  -5  -6   9   29.72    2.95
  -5  -6  10   31.79    3.08
  -5  -6  11    2.49    1.08
  -5  -6  12   27.80    3.08
   6   7   0    9.84    1.96
   6   7  -1   -0.51    0.72
   6   7  -2   16.24    2.20
  -6  -7   2   21.56    2.67
   6   7  -3    4.97    1.37
  -6  -7   3    5.06    1.31
   6   7  -4    8.49    1.68
  -6  -7   4    6.72    1.62
  -6  -7   5   15.07    2.24
  -6  -7   6    3.70    1.19
  -6  -7   7   17.50    2.41
  -6  -7   8    0.05    0.66
  -6  -7   9   11.68    2.11
  -6  -7  10    1.76    1.07
  -8  -6   7   43.94    4.18
  -8  -6   6    5.16    1.53
  -8  -6   5   18.24    2.71
  -8  -6   4   15.83    2.39
  -7  -5  11   15.68    2.36
  -7  -5  10   32.32    3.38
  -7  -5   9    0.94    0.84
  -7  -5   8   36.33    3.46
  -7  -5   7   14.44    2.19
  -7  -5   6   19.86    2.50
  -7  -5   5   46.61    3.01
  -7  -5   4    3.84    1.20
  -7  -5   3   72.03    3.78
   7   5  -3   78.51    3.85
  -7  -5   2    1.61    0.87
   7   5  -2    0.56    0.68
  -7  -5   1   44.33    2.90
   7   5  -1   31.03    2.96
  -7  -5   0   14.48    2.03
   7   5   0   12.37    1.97
   7   5   1    5.35    1.42
   7   5   2   11.89    1.95
  -6  -4  12    4.56    1.44
  -6  -4  11    5.25    1.30
  -6  -4  10    2.29    0.99
  -6  -4   9   24.75    2.67
  -6  -4   8   44.85    2.81
  -6  -4   7    7.65    1.40
   6   4  -7    7.87    0.86
  -6  -4   6   73.71    3.46
   6   4  -6   69.54    2.62
  -6  -4   5   22.86    2.52
  -6  -4   5   16.23    1.53
  -6  -4   4   62.01    2.44
  -6  -4   4   65.61    3.22
  -6  -4   3   28.48    2.12
   6   4  -3   31.41    2.12
  -6  -4   2   12.90    1.73
   6   4  -2   14.75    1.75
  -6  -4   1   20.94    2.23
   6   4  -1   17.31    1.99
  -6  -4   0    1.66    0.76
   6   4   0    1.48    0.88
  -6  -4  -1   32.96    2.27
   6   4   1   34.16    2.44
   6   4   2    4.94    1.18
   6   4   3    9.82    1.77
   6   4   4    7.24    1.58
   6   4   5    0.71    0.99
  -5  -3  13    1.99    0.95
  -5  -3  12    0.45    0.77
  -5  -3  11   26.01    3.09
  -5  -3  10   -0.20    0.47
  -5  -3   9   50.08    2.70
  -5  -3   8   12.66    1.57
  -5  -3   8   18.35    2.00
   5   3  -8   12.04    1.19
  -5  -3   7   32.86    2.04
  -5  -3   7   26.57    1.61
  -5  -3   7   23.33    1.80
   5   3  -7   25.06    1.36
  -5  -3   6   36.88    2.16
  -5  -3   6   37.33    2.16
   5   3  -6   36.97    1.53
  -5  -3   5   26.77    1.76
  -5  -3   5   27.12    1.86
   5   3  -5   29.09    1.19
  -5  -3   4   43.03    1.78
  -5  -3   4   49.53    2.38
  -5  -3   4   44.60    2.36
   5   3  -4   44.93    1.17
  -5  -3   3    1.16    0.61
  -5  -3   3    0.43    0.32
  -5  -3   3    1.35    0.61
   5   3  -3    1.05    0.51
  -5  -3   2   85.13    3.21
  -5  -3   2   75.31    3.09
   5   3  -2   82.92    3.09
  -5  -3   1   88.79    3.29
  -5  -3   1   84.34    3.31
   5   3  -1   90.69    3.38
  -5  -3   0   64.54    2.79
  -5  -3   0   68.31    2.97
   5   3   0   60.88    2.81
  -5  -3  -1   67.12    2.88
   5   3   1   68.66    3.11
  -5  -3  -2    0.09    0.44
   5   3   2    0.68    0.62
   5   3   3   49.67    2.84
   5   3   4    6.36    1.29
   5   3   5   18.96    2.29
   5   3   6   13.16    1.96
   5   3   7    0.03    0.71
  -4  -2  13    3.49    1.10
  -4  -2  12   54.32    4.26
  -4  -2  11    1.51    1.03
   4   2 -11    2.95    0.76
  -4  -2  10   89.15    4.85
   4   2 -10   97.73    3.24
   4   2 -10   99.71    3.88
  -4  -2   9   16.76    1.74
  -4  -2   9   16.37    2.36
  -4  -2   9   16.96    1.72
   4   2  -9   17.25    1.24
   4   2  -9   19.03    1.84
  -4  -2   8   73.85    2.91
  -4  -2   8   67.67    2.90
   4   2  -8   72.38    2.84
   4   2  -8   72.84    2.49
  -4  -2   7   88.16    3.21
  -4  -2   7   89.10    2.78
  -4  -2   7   90.17    3.20
   4   2  -7   80.79    2.59
   4   2  -7   88.54    2.95
   4   2  -7   86.16    2.98
  -4  -2   6   10.73    1.28
  -4  -2   6   12.66    1.22
  -4  -2   6    9.83    1.23
   4   2  -6   10.37    1.09
   4   2  -6   10.69    1.09
   4   2  -6    9.64    0.94
  -4  -2   5  152.92    4.18
   4   2  -5  145.20    3.38
   4   2  -5  143.81    3.50
  -4  -2   4   43.58    1.50
  -4  -2   4   39.36    1.96
  -4  -2   4   46.42    2.00
   4   2  -4   40.71    1.38
   4   2  -4   43.04    1.40
   4   2  -4   45.41    1.47
   4   2  -4   43.49    1.55
  -4  -2   3   59.61    2.28
  -4  -2   3   58.21    1.71
  -4  -2   3   60.06    1.83
  -4  -2   3   54.92    2.29
   4   2  -3   57.56    1.42
   4   2  -3   58.07    1.37
   4   2  -3   57.06    1.43
   4   2  -3   57.38    1.73
  -4  -2   2  138.89    3.87
  -4  -2   2  147.53    3.17
  -4  -2   2  146.43    3.99
  -4  -2   2  137.52    3.15
   4   2  -2  149.07    3.85
   4   2  -2  144.63    3.19
  -4  -2   1   43.90    1.31
  -4  -2   1   46.22    2.02
  -4  -2   1   42.53    1.53
  -4  -2   1   47.16    2.04
   4   2  -1   44.62    1.96
   4   2  -1   43.58    1.54
  -4  -2   0   98.92    3.24
  -4  -2   0   97.21    3.12
  -4  -2   0   99.94    1.97
   4   2   0   98.95    3.22
  -4  -2  -1    0.40    0.26
  -4  -2  -1    0.42    0.30
  -4  -2  -1    0.00    0.25
  -4  -2  -1    0.19    0.35
   4   2   1    0.73    0.27
   4   2   1   -0.02    0.29
   4   2   1    1.02    0.44
  -4  -2  -2   79.39    3.03
  -4  -2  -2   76.58    2.72
   4   2   2   74.81    2.98
   4   2   2   77.28    2.77
   4   2   2   79.03    2.71
  -4  -2  -3   39.64    1.92
  -4  -2  -3   42.33    2.23
   4   2   3   42.62    2.02
   4   2   3   42.89    2.08
   4   2   3   46.78    2.40
   4   2   4   25.60    1.75
   4   2   4   25.24    1.85
   4   2   5   49.73    2.72
   4   2   5   54.34    2.75
   4   2   6    0.41    0.59
   4   2   7   51.65    3.04
   4   2   8    1.07    0.84
   4   2   9   26.92    2.78
  -3  -1  12   -0.07    0.56
  -3  -1  11   20.47    2.81
  -3  -1  10   17.59    2.78
   3   1 -10   16.99    1.94
  -3  -1   9    9.20    1.93
  -3  -1   9    5.23    0.99
   3   1  -9    4.34    0.93
   3   1  -9    6.18    0.88
  -3  -1   8   76.52    2.64
  -3  -1   8   74.70    2.53
  -3  -1   8   72.28    3.83
  -3  -1   8   79.10    3.05
   3   1  -8   76.90    2.44
   3   1  -8   78.47    3.05
  -3  -1   7   14.18    1.00
  -3  -1   7   14.50    1.09
  -3  -1   7   17.95    2.23
  -3  -1   7   14.25    1.42
   3   1  -7   14.29    0.93
   3   1  -7   15.14    1.48
   3   1  -7   12.36    1.30
  -3  -1   6   59.56    2.15
  -3  -1   6   58.65    2.29
  -3  -1   6   54.91    1.95
   3   1  -6   54.94    1.83
   3   1  -6   58.79    2.26
   3   1  -6   53.15    2.07
  -3  -1   5   81.40    2.57
  -3  -1   5   85.97    2.75
  -3  -1   5   89.17    2.48
   3   1  -5   83.98    2.26
   3   1  -5   86.77    2.49
   3   1  -5   83.68    2.57
  -3  -1   4   44.98    1.78
  -3  -1   4   49.03    1.89
  -3  -1   4   46.48    1.66
   3   1  -4   48.77    1.57
   3   1  -4   46.53    1.61
   3   1  -4   49.19    1.50
   3   1  -4   48.57    2.32
  -3  -1   3  263.34    5.53
  -3  -1   3  273.64    5.59
  -3  -1   3  273.73    4.92
   3   1  -3  271.92    4.95
   3   1  -3  265.42    4.99
   3   1  -3  277.45    5.62
   3   1  -3  269.19    4.90
  -3  -1   2   45.43    1.22
  -3  -1   2   43.04    1.68
  -3  -1   2   49.37    1.35
  -3  -1   2   46.06    1.68
   3   1  -2   48.46    1.25
   3   1  -2   48.34    1.16
   3   1  -2   46.91    1.14
   3   1  -2   44.35    1.66
   3   1  -2   46.76    1.17
  -3  -1   1   95.47    2.66
  -3  -1   1   94.60    2.61
  -3  -1   1   99.21    1.99
  -3  -1   1   98.56    2.09
   3   1  -1   99.90    2.10
   3   1  -1   94.60    2.65
   3   1  -1   97.30    2.70
   3   1  -1   98.43    2.61
  -3  -1   0   38.72    1.58
  -3  -1   0   40.54    1.29
  -3  -1   0   38.95    0.93
  -3  -1   0   39.17    1.58
   3   1   0   41.20    1.61
   3   1   0   39.33    1.58
   3   1   0   37.58    1.23
   3   1   0   39.74    1.61
  -3  -1  -1    1.62    0.28
  -3  -1  -1    1.22    0.38
  -3  -1  -1    1.12    0.38
  -3  -1  -1    1.52    0.36
   3   1   1    1.64    0.43
   3   1   1    0.97    0.37
   3   1   1    1.94    0.39
  -3  -1  -2   93.46    2.88
  -3  -1  -2   94.28    2.69
   3   1   2   90.03    2.67
   3   1   2   92.29    2.64
   3   1   2   94.70    2.91
  -3  -1  -3    4.88    0.74
  -3  -1  -3    4.27    0.74
  -3  -1  -3    4.45    0.63
   3   1   3    3.79    0.75
   3   1   3    3.62    0.65
   3   1   3    5.01    0.76
  -3  -1  -4   24.50    1.33
  -3  -1  -4   25.31    1.55
  -3  -1  -4   23.63    1.38
   3   1   4   27.90    1.62
   3   1   4   24.33    1.33
   3   1   4   25.94    1.59
  -3  -1  -5    7.35    1.10
  -3  -1  -5    7.94    1.03
   3   1   5    5.27    0.89
   3   1   5    6.14    1.03
  -3  -1  -6   31.22    1.94
   3   1   6   33.52    2.01
   3   1   6   32.25    2.06
   3   1   7   21.36    2.07
   3   1   8   14.11    1.75
   3   1   9    4.11    1.34
  -2   0  10    5.45    1.62
  -2   0   9    3.04    1.23
  -2   0   9    3.28    0.92
  -2   0   8   21.22    1.31
  -2   0   8   21.28    2.56
  -2   0   8   18.56    1.80
  -2   0   7   17.23    1.33
  -2   0   7   18.38    1.36
  -2   0   7   16.42    2.17
  -2   0   7   16.03    1.09
   2   0  -7   16.80    0.91
  -2   0   6  131.85    3.77
  -2   0   6  137.13    3.14
  -2   0   6  132.68    4.73
  -2   0   6  134.68    3.42
  -2   0   6  133.92    3.79
   2   0  -6  142.11    3.97
   2   0  -6  138.70    3.05
  -2   0   5   53.82    2.57
  -2   0   5   52.54    1.96
  -2   0   5   48.31    1.93
  -2   0   5   51.57    1.61
  -2   0   5   51.87    1.75
   2   0  -5   51.34    2.01
   2   0  -5   53.74    1.53
  -2   0   4  213.66    5.36
  -2   0   4  220.79    4.46
  -2   0   4  221.25    4.59
  -2   0   4  216.71    4.74
   2   0  -4  221.16    4.15
   2   0  -4  225.81    4.81
   2   0  -4  221.91    4.75
   2   0  -4  224.52    4.59
  -2   0   3    1.87    0.34
  -2   0   3    1.87    0.43
  -2   0   3    2.20    0.39
  -2   0   3    1.76    0.37
   2   0  -3    0.95    0.35
   2   0  -3    1.45    0.30
   2   0  -3    1.95    0.37
   2   0  -3    1.47    0.27
  -2   0   2   86.10    1.83
  -2   0   2   84.62    1.96
  -2   0   2   83.30    2.14
  -2   0   2   85.92    2.05
   2   0  -2   85.85    2.15
   2   0  -2   87.27    1.82
   2   0  -2   86.71    1.98
   2   0  -2   83.61    1.77
  -2   0   1  169.37    3.03
  -2   0   1  170.07    2.96
  -2   0   1  167.98    2.75
  -2   0   1  170.44    2.96
  -2   0   1  170.42    3.40
   2   0  -1  171.23    3.04
   2   0  -1  172.10    2.87
   2   0  -1  167.69    2.75
   2   0  -1  168.15    2.86
   2   0  -1  170.12    3.39
  -2   0   0    7.47    0.36
  -2   0   0    6.58    0.33
  -2   0   0    6.19    0.47
   2   0   0    6.90    0.32
   2   0   0    6.37    0.49
   2   0   0    7.12    0.35
   2   0   0    7.53    0.52
  -2   0  -1  246.97    4.36
  -2   0  -1  244.27    4.43
  -2   0  -1  245.47    4.67
   2   0   1  250.64    4.70
   2   0   1  250.79    5.04
   2   0   1  244.97    4.67
   2   0   1  242.33    4.42
  -2   0  -2   28.38    1.14
  -2   0  -2   27.11    1.09
  -2   0  -2   26.15    1.11
   2   0   2   26.83    1.14
   2   0   2   25.36    1.12
   2   0   2   27.05    1.11
   2   0   2   27.72    1.12
  -2   0  -3   45.54    1.68
  -2   0  -3   50.05    1.67
   2   0   3   50.03    1.79
   2   0   3   48.16    1.71
   2   0   3   52.26    1.70
  -2   0  -4  148.71    3.47
  -2   0  -4  140.09    3.62
   2   0   4  142.63    3.58
   2   0   4  148.75    3.83
  -2   0  -5    0.20    0.28
  -2   0  -5    0.27    0.28
   2   0   5    0.39    0.29
   2   0   5   -0.15    0.25
   2   0   5    0.30    0.32
  -2   0  -6   34.67    2.04
  -2   0  -6   35.55    1.83
   2   0   6   33.93    1.71
   2   0   6   33.12    1.93
  -2   0  -7   16.68    1.61
   2   0   7   15.34    1.69
   2   0   7   15.57    1.45
  -2   0  -8    2.79    0.77
   2   0   8    2.09    0.66
   2   0   8    4.34    1.58
  -1   1   9   84.58    3.21
  -1   1   8    0.11    0.38
  -1   1   8   -0.18    0.31
  -1   1   7  118.69    3.54
  -1   1   7  119.77    4.00
  -1   1   6   23.71    1.36
  -1   1   6   28.32    1.68
   1  -1  -6   23.70    1.56
  -1   1   5    3.59    0.61
  -1   1   5    3.10    0.67
   1  -1  -5    2.89    0.63
  -1   1   4   74.35    2.37
  -1   1   4   74.94    2.18
  -1   1   4   70.61    2.95
   1  -1  -4   72.06    2.37
   1  -1  -4   76.53    2.39
  -1   1   3    8.29    0.82
  -1   1   3    5.53    0.63
  -1   1   3    6.70    0.66
  -1   1   3    6.83    0.98
   1  -1  -3    8.37    0.82
   1  -1  -3    6.74    0.70
   1  -1  -3    6.73    0.71
   1  -1  -3    6.31    0.35
  -1   1   2   86.26    2.17
  -1   1   2   90.20    2.14
  -1   1   2   91.89    2.64
  -1   1   2   89.35    2.13
   1  -1  -2   90.83    2.20
   1  -1  -2   89.11    1.75
   1  -1  -2   88.75    2.14
   1  -1  -2   86.24    2.18
  -1   1   1   96.58    2.07
  -1   1   1   97.55    1.99
  -1   1   1   94.26    2.04
  -1   1   1   92.75    2.25
   1  -1  -1   96.55    1.98
   1  -1  -1   93.96    2.05
   1  -1  -1   97.64    2.05
   1  -1  -1   96.90    1.79
  -1   1   0  270.89    4.25
  -1   1   0  265.52    4.35
  -1   1   0  269.20    4.36
   1  -1   0  272.26    4.51
   1  -1   0  268.98    4.23
   1  -1   0  267.26    4.36
   1  -1   0  250.73    4.35
  -1   1  -1  158.40    2.91
  -1   1  -1  165.31    2.70
  -1   1  -1  165.19    3.01
   1  -1   1  161.08    3.00
   1  -1   1  164.65    2.93
  -1   1  -2   53.33    1.45
   1  -1   2   51.03    1.67
  -1   1  -3  216.35    4.42
   1  -1   3  221.51    3.98
   1  -1   3  219.09    5.04
   1  -1   3  221.40    4.46
   1  -1   4    0.22    0.20
   1  -1   4    0.20    0.27
   1  -1   4    0.47    0.38
   1  -1   4    0.04    0.25
  -1   1  -5  178.64    4.13
   1  -1   5  181.08    3.81
   1  -1   5  176.71    4.42
   1  -1   6   27.31    1.26
   1  -1   6   30.25    1.69
   1  -1   7   54.24    1.99
   1  -1   7   54.81    2.14
   1  -1   8  131.68    4.28
   0   2   9    0.36    0.59
   0   2   8   30.18    1.97
   0   2   7    0.37    0.49
   0   2   7    1.02    0.55
   0   2   6    7.08    1.03
   0   2   6    8.78    1.23
   0   2   5   63.94    2.45
   0   2   5   64.32    2.63
   0  -2  -5   66.35    2.56
   0   2   4    7.35    0.90
   0   2   4    7.17    0.92
   0  -2  -4    6.48    0.83
   0   2   3  186.24    4.34
   0   2   3  178.94    4.15
   0   2   3  186.05    4.22
   0  -2  -3  181.78    4.19
   0   2   2   90.07    2.46
   0   2   2   95.18    2.40
   0   2   2   91.24    2.54
   0  -2  -2   91.38    2.39
   0  -2  -2   90.81    1.61
   0   2   1   37.94    1.20
   0   2   1   37.17    1.30
   0   2   1   36.63    1.33
   0  -2  -1   35.72    1.18
   0  -2  -1   36.50    0.86
   0  -2  -1   38.04    1.35
   0   2   0  135.13    2.37
   0   2   0  136.12    2.88
   0   2   0  133.80    2.77
   0  -2   0  135.05    2.88
   0  -2   0  133.49    2.63
   0  -2   0  135.14    2.47
   0  -2   0  132.24    2.73
   0   2  -1    3.79    0.34
   0   2  -1    3.42    0.32
   0   2  -1    3.61    0.42
   0  -2   1    4.24    0.31
   0  -2   1    4.40    0.47
   0  -2   1    3.80    0.33
   0  -2   1    3.03    0.32
   0   2  -2  181.43    3.24
   0   2  -2  177.99    3.14
   0   2  -2  181.63    3.46
   0   2  -2  182.11    3.59
   0  -2   2  183.48    3.47
   0  -2   2  178.55    3.16
   0  -2   2  176.45    3.59
   0  -2   2  182.47    3.19
   0   2  -3   15.77    0.65
   0   2  -3   16.43    0.86
   0  -2   3   16.66    0.65
   0  -2   3   17.85    0.89
   0  -2   3   15.58    0.83
   0   2  -4   48.62    1.73
   0   2  -4   48.26    1.44
   0  -2   4   49.89    1.42
   0  -2   4   46.16    1.59
   0   2  -5  103.78    2.61
   0   2  -5  100.50    2.90
   0  -2   5  100.43    2.70
   0  -2   5   98.08    2.50
   0  -2   5  100.06    3.45
   0   2  -6    5.25    0.72
   0   2  -6    4.05    0.74
   0  -2   6    3.27    0.89
   0  -2   6    4.88    0.48
   0  -2   6    3.90    0.66
   0   2  -7   76.11    2.91
   0  -2   7   77.07    3.62
   0  -2   7   79.52    2.57
   0  -2   7   80.16    2.08
   0   2  -8   10.35    1.41
   0  -2   8    9.69    1.81
   0  -2   8    9.61    1.16
   0   2  -9   24.36    1.84
   0  -2   9   24.17    2.70
   0  -2  10    0.29    0.71
   1   3  10    6.22    1.48
   1   3   9    3.55    1.02
   1   3   8   12.57    1.67
   1   3   7   11.67    1.53
   1   3   6   62.76    2.91
   1   3   6   64.43    3.12
   1   3   5   29.44    1.93
   1   3   5   29.24    1.84
  -1  -3  -5   28.74    1.84
   1   3   4   32.89    1.89
   1   3   4   35.42    1.93
  -1  -3  -4   32.72    1.71
  -1  -3  -4   31.75    1.84
   1   3   3   36.83    1.85
   1   3   3   40.88    1.94
  -1  -3  -3   40.68    1.74
  -1  -3  -3   37.94    1.87
  -1  -3  -3   39.23    1.35
  -1  -3  -3   37.97    0.83
   1   3   2    5.24    0.80
   1   3   2    6.90    0.73
   1   3   2    6.99    0.92
  -1  -3  -2    6.73    0.74
  -1  -3  -2    6.25    0.66
  -1  -3  -2    6.07    0.83
  -1  -3  -2    5.57    0.30
   1   3   1  115.95    3.16
   1   3   1  117.16    2.70
   1   3   1  111.28    3.14
  -1  -3  -1  120.35    2.76
  -1  -3  -1  120.23    2.82
  -1  -3  -1  116.01    2.28
  -1  -3  -1  113.96    3.13
   1   3   0   16.41    0.99
   1   3   0   18.90    1.04
   1   3   0   17.58    1.01
   1   3   0   19.17    0.78
  -1  -3   0   18.53    0.78
  -1  -3   0   17.86    0.71
  -1  -3   0   17.65    1.02
  -1  -3   0   18.93    0.96
   1   3  -1   30.00    0.92
   1   3  -1   30.10    1.27
   1   3  -1   28.93    0.83
   1   3  -1   28.86    0.85
   1   3  -1   30.82    1.24
   1   3  -1   31.08    1.25
  -1  -3   1   30.73    1.02
  -1  -3   1   27.24    1.20
  -1  -3   1   29.34    1.26
  -1  -3   1   31.48    0.94
  -1  -3   1   30.12    1.27
   1   3  -2  197.88    4.02
   1   3  -2  199.61    4.20
   1   3  -2  199.64    3.96
   1   3  -2  195.17    3.66
  -1  -3   2  195.16    4.29
  -1  -3   2  194.13    4.02
  -1  -3   2  195.60    3.80
  -1  -3   2  195.51    4.18
  -1  -3   2  195.66    3.64
   1   3  -3   62.68    1.78
   1   3  -3   61.63    1.62
   1   3  -3   65.25    2.02
  -1  -3   3   61.67    1.68
  -1  -3   3   65.14    2.00
  -1  -3   3   63.13    2.09
  -1  -3   3   62.86    1.78
   1   3  -4  206.17    4.14
   1   3  -4  193.74    4.45
   1   3  -4  204.77    4.31
  -1  -3   4  207.38    4.19
  -1  -3   4  207.66    4.66
   1   3  -5   26.73    1.19
   1   3  -5   27.64    1.41
  -1  -3   5   26.91    1.20
  -1  -3   5   26.48    1.40
   1   3  -6   35.95    1.50
   1   3  -6   33.83    1.69
  -1  -3   6   32.00    1.61
  -1  -3   6   34.74    1.47
   1   3  -7   43.86    2.08
  -1  -3   7   41.95    2.56
  -1  -3   7   44.46    1.98
  -1  -3   7   46.37    1.84
   1   3  -8    0.64    0.41
  -1  -3   8    0.66    0.47
  -1  -3   8    1.08    0.64
  -1  -3   8    0.60    0.37
   1   3  -9   49.09    2.55
  -1  -3   9   45.09    2.20
  -1  -3   9   48.91    3.23
  -1  -3  10    7.14    1.34
  -1  -3  11   10.01    2.03
  -1  -3  12    9.14    2.11
  -1  -3  13    0.20    0.88
   2   4   9    9.20    1.86
   2   4   8   17.73    2.15
   2   4   7    5.13    1.20
   2   4   6   24.35    2.41
   2   4   5    0.25    0.43
   2   4   4   39.46    2.31
   2   4   4   37.15    2.28
   2   4   3   23.92    1.68
   2   4   3   20.24    1.88
  -2  -4  -3   25.46    1.75
   2   4   2   18.27    1.42
   2   4   2   21.45    1.88
  -2  -4  -2   21.30    1.88
  -2  -4  -2   18.85    1.19
   2   4   1  100.36    3.37
   2   4   1  105.93    3.34
  -2  -4  -1  102.97    3.02
  -2  -4  -1  100.09    3.37
  -2  -4  -1   98.79    2.59
   2   4   0    0.25    0.36
   2   4   0    0.23    0.17
   2   4   0    0.45    0.35
  -2  -4   0    0.42    0.22
  -2  -4   0    0.80    0.39
  -2  -4   0    0.04    0.16
  -2  -4   0    0.41    0.33
   2   4  -1  137.52    3.73
   2   4  -1  141.90    2.77
   2   4  -1  142.54    3.84
  -2  -4   1  147.28    2.82
  -2  -4   1  145.02    3.81
  -2  -4   1  147.94    3.91
  -2  -4   1  144.45    3.21
   2   4  -2   16.59    0.68
   2   4  -2   17.44    0.67
   2   4  -2   16.81    0.65
   2   4  -2   17.67    1.12
   2   4  -2   16.16    1.07
  -2  -4   2   16.61    0.64
  -2  -4   2   17.44    0.92
  -2  -4   2   16.73    1.15
  -2  -4   2   15.45    1.07
   2   4  -3  247.41    5.45
   2   4  -3  249.63    4.80
   2   4  -3  250.72    5.26
   2   4  -3  249.37    4.75
   2   4  -3  254.84    4.63
  -2  -4   3  250.49    5.03
  -2  -4   3  256.35    5.45
  -2  -4   3  252.64    5.78
   2   4  -4   65.32    1.90
   2   4  -4   69.69    2.07
   2   4  -4   68.03    1.91
   2   4  -4   63.41    2.30
  -2  -4   4   66.83    2.23
  -2  -4   4   61.08    2.45
  -2  -4   4   66.92    2.02
   2   4  -5   51.91    2.13
  -2  -4   5   53.79    2.28
  -2  -4   5   54.42    2.01
   2   4  -6  190.32    4.85
   2   4  -6  191.18    4.59
  -2  -4   6  195.86    5.10
  -2  -4   6  190.25    4.57
   2   4  -7    7.14    1.06
  -2  -4   7    9.12    1.03
  -2  -4   7    6.06    1.03
   2   4  -8   93.54    3.48
  -2  -4   8  104.08    3.57
  -2  -4   8   95.34    3.11
   2   4  -9   55.64    2.73
  -2  -4   9   57.19    2.65
   2   4 -10   38.28    2.39
  -2  -4  10   33.81    2.84
  -2  -4  10   34.96    2.13
  -2  -4  11   45.91    3.58
  -2  -4  12    1.27    0.97
  -2  -4  13   26.59    3.55
  -2  -4  14    3.74    1.69
   3   5   7   18.44    2.51
   3   5   6   -0.75    0.51
   3   5   5   17.71    2.17
   3   5   4   43.39    2.77
   3   5   3    6.83    1.39
   3   5   3   12.51    1.71
   3   5   2  106.65    3.97
   3   5   2  102.54    4.07
   3   5   1   -0.08    0.42
   3   5   1    0.12    0.40
  -3  -5  -1   -0.01    0.38
   3   5   0  129.84    4.31
   3   5   0  129.00    4.07
  -3  -5   0  135.50    4.08
  -3  -5   0  134.44    4.36
   3   5  -1   54.74    2.43
   3   5  -1   57.42    2.60
  -3  -5   1   59.72    2.55
  -3  -5   1   57.17    2.60
   3   5  -2  135.71    4.09
   3   5  -2  133.04    3.93
  -3  -5   2  136.92    4.16
  -3  -5   2  133.37    3.42
  -3  -5   2  134.12    4.16
   3   5  -3   55.33    2.33
   3   5  -3   59.78    2.41
   3   5  -3   58.07    1.37
  -3  -5   3   55.88    2.04
  -3  -5   3   53.39    2.52
  -3  -5   3   57.81    2.44
   3   5  -4    5.74    0.61
   3   5  -4    5.94    0.91
   3   5  -4    5.35    0.85
  -3  -5   4    6.45    1.10
  -3  -5   4    5.82    0.79
  -3  -5   4    5.14    0.88
   3   5  -5   63.94    2.34
   3   5  -5   62.49    2.02
   3   5  -5   64.82    2.58
  -3  -5   5   64.46    2.57
  -3  -5   5   63.37    2.23
  -3  -5   5   59.60    2.78
   3   5  -6    2.53    0.50
   3   5  -6    1.98    0.64
  -3  -5   6    2.09    0.64
  -3  -5   6    3.28    0.89
   3   5  -7   80.97    2.62
   3   5  -7   83.71    3.19
  -3  -5   7   78.00    2.95
  -3  -5   7   86.83    3.47
   3   5  -8   12.37    1.19
   3   5  -8   11.19    1.43
  -3  -5   8   12.95    1.74
   3   5  -9   38.05    1.86
   3   5  -9   36.50    2.25
  -3  -5   9   35.72    2.29
   3   5 -10   29.67    1.98
   3   5 -10   32.87    2.99
  -3  -5  10   29.78    2.16
  -3  -5  11   -0.50    0.43
  -3  -5  11   -0.16    0.69
  -3  -5  12   31.29    3.84
  -3  -5  12   30.66    2.31
  -3  -5  13    2.78    1.36
   4   6   4   -0.82    0.59
   4   6   3   17.19    2.26
   4   6   2    5.26    1.27
   4   6   1   10.30    1.60
   4   6   0   23.79    2.33
  -4  -6   0   23.26    2.17
   4   6  -1    5.50    1.19
  -4  -6   1    5.15    1.11
   4   6  -2   15.55    1.81
  -4  -6   2   14.27    1.78
   4   6  -3   12.11    1.55
  -4  -6   3   12.35    1.25
  -4  -6   3   15.97    1.92
   4   6  -4   38.32    2.14
  -4  -6   4   37.05    2.41
  -4  -6   4   40.22    2.45
  -4  -6   4   36.40    1.86
   4   6  -5   38.77    2.10
   4   6  -5   39.21    1.35
  -4  -6   5   37.08    2.40
  -4  -6   5   41.85    2.34
  -4  -6   5   37.50    1.90
   4   6  -6   11.73    1.03
  -4  -6   6   13.72    1.43
  -4  -6   6   11.86    1.55
  -4  -6   6   15.34    1.99
   4   6  -7   38.97    2.15
  -4  -6   7   35.64    2.43
  -4  -6   8    3.73    1.12
  -4  -6   9   15.61    2.02
  -4  -6  10    8.19    1.61
  -4  -6  11    0.78    0.73
  -4  -6  12    5.57    1.42
  -4  -6  13    1.38    0.88
  -4  -6  13    2.50    1.35
   5   7   1   17.96    2.36
   5   7   0    5.08    1.38
   5   7  -1   22.39    2.53
  -5  -7   1   23.74    2.56
   5   7  -2   42.87    2.84
  -5  -7   2   49.98    3.02
   5   7  -3    5.59    1.29
  -5  -7   3    7.62    1.58
   5   7  -4   84.80    3.73
  -5  -7   4   80.94    3.97
  -5  -7   5    2.04    0.92
  -5  -7   6   40.02    2.80
  -5  -7   7   21.31    2.56
  -5  -7   8   12.53    2.03
  -5  -7   9   59.05    3.55
  -5  -7  10    0.58    0.76
  -5  -7  11   37.76    3.75
   6   8  -4   -0.48    0.92
  -6  -8   4    1.16    0.92
  -6  -8   5   23.81    2.90
  -6  -8   6   27.78    3.20
  -6  -8   7    5.38    1.51
  -6  -8   8   49.02    3.50
  -8  -5   9    7.19    1.84
  -8  -5   8    7.85    1.81
  -8  -5   7    0.78    0.78
  -8  -5   6    5.19    1.36
  -8  -5   5    0.47    0.64
  -8  -5   4   20.00    2.63
  -8  -5   3    5.41    1.51
   8   5  -3    5.74    1.52
  -8  -5   2   15.64    2.29
   8   5  -2   15.06    2.28
  -8  -5   1   23.38    2.75
   8   5  -1   16.92    2.35
  -7  -4  12   11.35    2.26
  -7  -4  11   39.69    2.94
  -7  -4  10   -0.68    0.48
  -7  -4   9   42.50    2.96
  -7  -4   8   14.46    2.04
  -7  -4   7   35.59    2.57
  -7  -4   6   46.03    2.89
  -7  -4   5   13.57    1.42
  -7  -4   5   11.99    1.76
  -7  -4   4   52.57    3.06
  -7  -4   3    7.55    1.50
   7   4  -3    3.04    0.91
  -7  -4   2   41.76    2.71
   7   4  -2   37.00    2.57
  -7  -4   1   10.62    1.69
   7   4  -1    9.67    1.61
  -7  -4   0   11.74    1.80
   7   4   0   13.26    1.93
  -7  -4  -1   16.31    2.08
   7   4   1   12.90    1.95
   7   4   2    0.42    0.75
   7   4   3   19.51    2.60
  -6  -3  13    3.15    1.55
  -6  -3  12   30.59    3.98
  -6  -3  11    1.09    1.02
  -6  -3  11    1.27    1.15
  -6  -3  10   49.02    2.87
  -6  -3   9   31.00    2.90
  -6  -3   8   60.82    3.12
  -6  -3   7   38.02    2.42
   6   3  -7   42.87    1.75
  -6  -3   6    8.87    1.48
   6   3  -6    8.84    0.83
  -6  -3   5   55.63    3.48
  -6  -3   5   53.54    2.79
  -6  -3   4    0.95    0.68
  -6  -3   4    1.49    0.52
  -6  -3   4    0.61    0.52
  -6  -3   3   81.53    3.42
   6   3  -3   76.77    3.20
  -6  -3   2    6.31    1.14
   6   3  -2    8.42    1.35
  -6  -3   1   12.22    1.63
   6   3  -1   14.31    1.73
  -6  -3   0   60.31    2.91
   6   3   0   61.24    3.02
  -6  -3  -1    3.62    0.96
   6   3   1    2.05    0.84
  -6  -3  -2   34.21    2.24
   6   3   2   39.79    2.56
   6   3   3   21.67    2.33
   6   3   4   16.94    2.27
   6   3   5   17.37    2.25
   6   3   6    4.48    1.32
  -5  -2  13   11.47    2.28
  -5  -2  12    0.12    0.92
  -5  -2  11   17.93    3.00
  -5  -2  10   17.27    2.73
  -5  -2   9    5.49    1.07
   5   2  -9    4.80    0.80
  -5  -2   8   29.90    1.95
  -5  -2   8   26.15    1.87
   5   2  -8   28.52    1.52
  -5  -2   7    0.15    0.39
  -5  -2   7   -0.20    0.39
  -5  -2   7    0.10    0.47
   5   2  -7    0.06    0.28
  -5  -2   6   31.47    1.91
  -5  -2   6   41.06    2.18
  -5  -2   6   37.18    1.86
   5   2  -6   35.85    1.51
   5   2  -6   36.94    1.77
  -5  -2   5   35.21    1.96
  -5  -2   5   34.63    1.99
   5   2  -5   34.02    1.35
   5   2  -5   37.50    1.51
  -5  -2   4   47.76    1.78
  -5  -2   4   40.40    2.12
  -5  -2   4   43.14    2.15
   5   2  -4   44.88    1.35
   5   2  -4   47.89    1.60
  -5  -2   3   60.73    2.53
  -5  -2   3   59.76    1.97
  -5  -2   3   62.03    2.59
   5   2  -3   61.40    1.81
  -5  -2   2   -0.04    0.34
  -5  -2   2    0.13    0.23
  -5  -2   2   -0.19    0.23
   5   2  -2    0.10    0.31
   5   2  -2    0.20    0.24
  -5  -2   1   62.90    2.65
  -5  -2   1   65.75    2.67
   5   2  -1   65.25    1.99
   5   2  -1   64.18    2.61
  -5  -2   0   11.90    1.36
  -5  -2   0   12.96    1.47
   5   2   0    8.93    1.26
   5   2   0   12.19    1.07
  -5  -2  -1   44.58    2.21
  -5  -2  -1   49.16    2.41
   5   2   1   45.36    2.33
  -5  -2  -2   33.09    2.03
  -5  -2  -2   29.65    1.80
   5   2   2   30.88    1.85
   5   2   2   30.27    1.97
   5   2   2   30.24    1.67
  -5  -2  -3   21.37    1.55
   5   2   3   21.74    1.59
   5   2   3   18.73    1.44
   5   2   3   20.21    2.05
   5   2   4   39.63    2.23
   5   2   4   33.29    2.25
   5   2   5    1.09    0.72
   5   2   5    0.95    0.76
   5   2   6   16.57    2.12
   5   2   7    9.02    1.63
   5   2   8    1.90    1.13
  -4  -1  13    6.41    1.80
  -4  -1  12    1.76    1.12
  -4  -1  11   12.63    2.54
  -4  -1  10   12.08    2.43
   4   1 -10    8.20    1.30
   4   1 -10    8.56    1.10
  -4  -1   9    4.61    0.99
  -4  -1   9    3.97    1.39
   4   1  -9    4.61    1.01
   4   1  -9    4.53    0.82
  -4  -1   8   35.56    2.66
  -4  -1   8   37.50    1.92
  -4  -1   8   37.72    1.83
  -4  -1   8   39.82    2.21
   4   1  -8   42.32    1.81
   4   1  -8   42.69    2.13
  -4  -1   7    4.07    0.80
  -4  -1   7    1.55    0.50
  -4  -1   7    1.96    0.62
   4   1  -7    1.94    0.56
   4   1  -7    1.77    0.53
   4   1  -7    2.87    0.55
  -4  -1   6   88.17    2.95
  -4  -1   6   97.40    3.24
  -4  -1   6   91.41    2.84
   4   1  -6   93.80    2.98
   4   1  -6   90.15    2.56
   4   1  -6   91.18    2.78
  -4  -1   5    5.94    0.83
  -4  -1   5    6.30    0.94
  -4  -1   5    7.86    1.05
   4   1  -5    7.22    0.72
   4   1  -5    5.91    0.75
  -4  -1   4    1.00    0.48
  -4  -1   4    2.51    0.62
   4   1  -4    1.42    0.33
   4   1  -4    1.67    0.34
   4   1  -4    1.25    0.32
   4   1  -4    1.27    0.34
  -4  -1   3   46.44    1.30
  -4  -1   3   43.33    1.47
  -4  -1   3   46.61    1.92
  -4  -1   3   47.03    1.94
   4   1  -3   46.50    1.40
   4   1  -3   44.73    1.31
   4   1  -3   45.70    1.28
   4   1  -3   42.80    1.27
  -4  -1   2    7.89    0.89
  -4  -1   2    7.10    0.39
  -4  -1   2    9.53    1.10
  -4  -1   2    8.61    0.58
  -4  -1   2    7.86    0.46
   4   1  -2    8.69    0.49
   4   1  -2    8.08    0.43
  -4  -1   1   42.46    1.79
  -4  -1   1   42.15    0.91
  -4  -1   1   42.91    1.82
  -4  -1   1   43.68    1.25
  -4  -1   1   40.91    1.14
   4   1  -1   39.37    1.77
   4   1  -1   43.29    1.24
   4   1  -1   40.35    1.73
  -4  -1   0   22.43    1.00
  -4  -1   0   21.88    1.33
  -4  -1   0   23.17    1.34
  -4  -1   0   22.40    0.72
   4   1   0   23.36    0.98
   4   1   0   23.75    1.36
   4   1   0   23.96    1.37
  -4  -1  -1   27.69    1.00
  -4  -1  -1   26.88    1.26
  -4  -1  -1   30.35    1.55
  -4  -1  -1   26.78    1.50
   4   1   1   28.68    1.55
   4   1   1   25.92    1.46
  -4  -1  -2    8.07    1.01
  -4  -1  -2    7.90    0.74
  -4  -1  -2    7.34    0.96
   4   1   2    7.20    0.84
   4   1   2    7.04    0.96
   4   1   2    7.55    1.00
  -4  -1  -3   15.06    1.16
  -4  -1  -3   16.32    1.03
  -4  -1  -3   14.46    0.98
  -4  -1  -3   15.59    1.50
   4   1   3   14.87    1.16
   4   1   3   13.96    1.45
   4   1   3   19.12    1.27
  -4  -1  -4   29.73    1.63
  -4  -1  -4   28.19    1.78
  -4  -1  -4   28.83    1.57
   4   1   4   32.34    1.92
   4   1   4   32.03    1.72
   4   1   4   32.51    1.84
  -4  -1  -5    3.65    0.85
   4   1   5    4.44    0.92
   4   1   5    4.10    0.96
   4   1   6   16.07    1.78
   4   1   6   18.52    1.91
   4   1   7    2.81    0.93
   4   1   8   31.66    2.33
  -3   0  11   43.56    4.85
  -3   0  10    9.89    2.14
  -3   0   9   73.91    4.28
  -3   0   8    0.94    0.68
  -3   0   8    0.22    0.32
  -3   0   8    0.37    0.47
   3   0  -8    0.16    0.26
  -3   0   7   77.00    2.38
  -3   0   7   79.78    2.98
  -3   0   7   72.70    3.65
  -3   0   7   78.62    2.62
   3   0  -7   79.48    2.35
  -3   0   6    2.36    0.56
  -3   0   6    2.05    0.53
  -3   0   6    1.50    0.64
  -3   0   6    3.16    0.62
   3   0  -6    2.41    0.45
   3   0  -6    2.06    0.57
  -3   0   5   49.84    1.82
  -3   0   5   51.07    2.03
  -3   0   5   47.49    1.70
  -3   0   5   47.26    2.41
   3   0  -5   47.32    1.93
   3   0  -5   48.55    1.59
  -3   0   4  145.25    3.60
  -3   0   4  130.88    3.26
  -3   0   4  138.72    3.27
  -3   0   4  137.87    3.37
   3   0  -4  131.05    3.08
   3   0  -4  129.30    3.31
   3   0  -4  138.59    2.98
  -3   0   3   20.30    1.04
  -3   0   3   19.45    0.94
  -3   0   3   21.55    1.06
  -3   0   3   19.33    1.09
   3   0  -3   18.90    0.94
   3   0  -3   20.48    0.83
   3   0  -3   19.07    1.07
   3   0  -3   19.15    0.80
   3   0  -3   19.06    0.79
  -3   0   2  251.49    4.99
  -3   0   2  242.06    4.56
  -3   0   2  246.61    5.04
   3   0  -2  252.98    4.21
   3   0  -2  251.61    4.18
   3   0  -2  246.84    4.35
   3   0  -2  248.33    5.00
   3   0  -2  252.40    4.37
   3   0  -2  250.67    5.05
   3   0  -2  248.34    4.61
  -3   0   1   63.91    1.50
  -3   0   1   63.07    1.93
  -3   0   1   64.87    1.16
  -3   0   1   64.25    1.40
  -3   0   1   63.40    1.39
  -3   0   1   64.86    1.92
   3   0  -1   61.94    1.90
   3   0  -1   66.71    1.97
   3   0  -1   65.32    1.50
   3   0  -1   62.47    1.16
  -3   0   0   46.01    1.17
  -3   0   0   44.69    1.59
  -3   0   0   44.95    1.11
   3   0   0   43.35    1.53
   3   0   0   44.56    1.56
   3   0   0   44.78    1.15
   3   0   0   43.70    1.58
   3   0   0   43.80    1.08
  -3   0  -1  216.14    4.63
  -3   0  -1  217.96    4.10
  -3   0  -1  217.06    4.17
  -3   0  -1  219.55    4.61
   3   0   1  221.62    4.65
   3   0   1  221.45    4.62
   3   0   1  220.64    4.67
  -3   0  -2   27.82    1.22
  -3   0  -2   29.37    1.15
  -3   0  -2   27.02    1.29
  -3   0  -2   28.66    1.33
   3   0   2   29.46    1.35
   3   0   2   27.70    1.20
   3   0   2   28.81    1.34
   3   0   2   26.87    1.30
  -3   0  -3  162.08    4.00
  -3   0  -3  162.01    3.88
   3   0   3  161.08    3.99
   3   0   3  157.87    3.89
   3   0   3  158.24    3.88
  -3   0  -4    0.40    0.29
  -3   0  -4   -0.04    0.30
   3   0   4   -0.07    0.27
   3   0   4    0.44    0.31
   3   0   4   -0.47    0.24
  -3   0  -5  131.93    3.58
  -3   0  -5  129.06    3.80
   3   0   5  128.75    3.76
   3   0   5  129.51    3.56
   3   0   5  130.20    3.92
  -3   0  -6   32.20    1.83
   3   0   6   29.95    1.76
   3   0   6   27.52    1.83
  -3   0  -7   78.83    3.17
   3   0   7   77.96    3.36
   3   0   7   76.54    3.04
   3   0   8   15.37    1.63
  -2   1   9    2.42    0.69
  -2   1   8   36.22    1.93
  -2   1   8   40.32    2.32
  -2   1   7   35.21    1.99
  -2   1   7   39.62    2.78
  -2   1   7   37.76    1.82
  -2   1   6    1.10    0.64
  -2   1   6    1.85    0.54
  -2   1   6    1.28    0.42
   2  -1  -6    1.15    0.31
   2  -1  -6    0.81    0.40
  -2   1   5   61.13    2.93
  -2   1   5   65.65    2.34
  -2   1   5   62.32    2.32
  -2   1   5   61.20    2.12
   2  -1  -5   64.20    2.38
   2  -1  -5   63.63    1.73
  -2   1   4   62.85    2.17
  -2   1   4   61.07    2.05
  -2   1   4   63.21    2.18
  -2   1   4   64.05    2.67
  -2   1   4   60.95    1.99
   2  -1  -4   64.43    1.66
   2  -1  -4   60.58    2.14
   2  -1  -4   66.65    2.24
  -2   1   3   16.77    0.89
  -2   1   3   16.16    0.93
  -2   1   3   16.37    1.15
  -2   1   3   17.91    0.98
  -2   1   3   18.03    0.91
   2  -1  -3   16.73    0.86
   2  -1  -3   17.33    0.96
   2  -1  -3   17.07    0.97
   2  -1  -3   15.74    0.69
  -2   1   2   20.45    0.81
  -2   1   2   22.37    1.00
  -2   1   2   22.36    0.97
  -2   1   2   22.01    0.74
  -2   1   2   23.61    1.00
  -2   1   2   21.95    1.10
   2  -1  -2   23.03    0.78
   2  -1  -2   22.16    0.97
   2  -1  -2   24.12    0.86
   2  -1  -2   24.43    1.03
  -2   1   1    0.44    0.14
  -2   1   1    0.22    0.19
  -2   1   1   -0.06    0.19
  -2   1   1   -0.05    0.10
  -2   1   1    0.14    0.17
   2  -1  -1    0.20    0.18
   2  -1  -1    0.24    0.12
   2  -1  -1    0.03    0.11
   2  -1  -1   -0.22    0.14
  -2   1   0  116.75    2.33
  -2   1   0  110.25    1.96
  -2   1   0  108.79    2.30
   2  -1   0  113.62    2.32
   2  -1   0  111.64    2.31
   2  -1   0  115.80    1.98
  -2   1  -1    0.22    0.15
  -2   1  -1    0.17    0.16
  -2   1  -1   -0.03    0.13
  -2   1  -1    0.26    0.16
   2  -1   1    0.22    0.15
   2  -1   1    0.29    0.19
   2  -1   1    0.17    0.18
  -2   1  -2  251.80    4.83
  -2   1  -2  259.34    4.70
  -2   1  -2  248.03    4.74
   2  -1   2  256.30    4.70
   2  -1   2  251.57    4.67
   2  -1   2  262.64    5.07
  -2   1  -3   14.68    0.87
  -2   1  -3   12.83    0.73
   2  -1   3   14.05    0.86
   2  -1   3   13.40    0.75
   2  -1   3   14.10    0.92
  -2   1  -4   43.17    1.57
   2  -1   4   43.19    1.72
   2  -1   4   44.74    1.77
   2  -1   4   41.42    1.50
  -2   1  -5   69.90    2.27
   2  -1   5   65.48    2.32
   2  -1   5   70.46    2.18
   2  -1   5   71.26    2.53
  -2   1  -6   23.11    1.36
   2  -1   6   24.58    1.60
   2  -1   6   22.86    1.26
  -2   1  -7   29.93    1.70
   2  -1   7   30.91    1.59
   2  -1   7   32.76    2.01
  -2   1  -8   -0.23    0.29
   2  -1   8   -0.42    0.37
  -2   1  -9   16.74    1.85
  -1   2   9    0.59    0.54
  -1   2   8   14.93    1.61
  -1   2   7   12.32    1.53
  -1   2   7   13.36    1.41
  -1   2   6   18.54    1.30
  -1   2   6   21.25    1.54
  -1   2   5   18.91    1.35
  -1   2   5   19.84    1.26
   1  -2  -5   17.96    0.77
   1  -2  -5   20.23    1.37
  -1   2   4   38.30    1.68
  -1   2   4   43.14    1.84
  -1   2   4   40.79    1.81
   1  -2  -4   39.37    1.13
   1  -2  -4   41.65    1.82
  -1   2   3   78.26    2.36
  -1   2   3   76.66    2.36
  -1   2   3   75.24    2.27
   1  -2  -3   71.10    2.29
   1  -2  -3   76.67    2.36
   1  -2  -3   75.55    1.67
  -1   2   2   -0.07    0.18
  -1   2   2   -0.04    0.19
  -1   2   2    0.09    0.24
   1  -2  -2   -0.01    0.12
   1  -2  -2   -0.08    0.17
   1  -2  -2    0.03    0.19
   1  -2  -2    0.38    0.20
  -1   2   1  262.91    4.97
  -1   2   1  267.64    4.43
  -1   2   1  259.29    4.92
   1  -2  -1  263.95    4.89
   1  -2  -1  263.80    4.96
   1  -2  -1  266.30    4.98
   1  -2  -1  266.04    4.52
  -1   2   0   18.79    0.78
  -1   2   0   18.54    0.73
  -1   2   0   18.67    0.62
  -1   2   0   18.47    0.77
   1  -2   0   19.45    0.79
   1  -2   0   17.63    0.65
   1  -2   0   18.17    0.61
  -1   2  -1   71.71    1.43
  -1   2  -1   71.75    1.73
  -1   2  -1   72.39    1.74
   1  -2   1   73.16    1.39
   1  -2   1   71.68    1.29
   1  -2   1   69.53    1.71
   1  -2   1   71.30    1.73
  -1   2  -2   11.66    0.30
  -1   2  -2   11.96    0.66
  -1   2  -2    9.85    0.62
   1  -2   2   13.37    0.69
   1  -2   2   11.54    0.66
  -1   2  -3    1.36    0.35
  -1   2  -3    1.90    0.37
  -1   2  -3    1.48    0.22
   1  -2   3    1.73    0.39
   1  -2   3    2.38    0.47
   1  -2   3    1.73    0.45
  -1   2  -4  109.69    2.45
  -1   2  -4  109.78    2.88
   1  -2   4  105.76    3.28
   1  -2   4  109.09    2.79
  -1   2  -5    6.92    0.70
  -1   2  -5    9.09    1.04
   1  -2   5    7.39    0.48
   1  -2   5    8.80    1.26
   1  -2   5    8.09    0.93
  -1   2  -6   24.22    1.46
  -1   2  -6   22.29    1.21
   1  -2   6   24.56    1.35
   1  -2   6   24.28    1.87
   1  -2   6   21.03    0.94
  -1   2  -7   39.48    2.06
   1  -2   7   43.96    1.96
   1  -2   7   40.78    1.48
   1  -2   7   44.46    2.76
  -1   2  -8    2.87    0.75
   1  -2   8    4.22    1.13
   1  -2   8    3.21    0.77
  -1   2  -9   56.53    2.89
   0   3  10    8.80    1.51
   0   3   9   24.56    2.42
   0   3   8   36.53    2.32
   0   3   7    7.60    1.28
   0   3   6  117.71    4.19
   0   3   6  112.80    3.90
   0   3   5   12.95    1.41
   0   3   5   11.07    1.37
   0  -3  -5   11.63    1.35
   0   3   4  137.81    3.93
   0   3   4  132.21    3.99
   0  -3  -4  134.39    3.84
   0   3   3   97.71    2.88
   0   3   3   90.88    2.93
   0   3   3   94.93    3.07
   0  -3  -3   95.74    2.85
   0  -3  -3   94.12    1.97
   0   3   2   27.49    1.41
   0   3   2   25.05    1.20
   0   3   2   23.90    1.29
   0  -3  -2   25.61    1.22
   0  -3  -2   24.98    0.81
   0   3   1  205.24    4.48
   0   3   1  205.36    4.57
   0   3   1  208.80    4.23
   0  -3  -1  201.64    4.43
   0  -3  -1  207.39    3.75
   0  -3  -1  204.61    4.23
   0   3   0    2.91    0.51
   0   3   0    2.18    0.43
   0   3   0    2.67    0.27
   0   3   0    1.93    0.33
   0  -3   0    2.97    0.41
   0  -3   0    3.41    0.38
   0  -3   0    2.88    0.51
   0  -3   0    3.97    0.62
   0  -3   0    2.70    0.43
   0   3  -1  273.00    4.95
   0   3  -1  256.54    5.14
   0   3  -1  259.42    4.83
   0  -3   1  270.13    4.89
   0  -3   1  263.62    4.80
   0  -3   1  261.34    5.04
   0  -3   1  258.22    4.68
   0   3  -2   18.92    0.99
   0   3  -2   19.99    0.79
   0   3  -2   19.97    0.86
   0   3  -2   20.46    0.77
   0   3  -2   20.81    0.77
   0  -3   2   21.62    0.88
   0  -3   2   20.20    1.00
   0  -3   2   21.71    1.05
   0  -3   2   19.84    0.79
   0  -3   2   20.20    0.77
   0   3  -3  169.46    3.68
   0   3  -3  178.63    3.94
   0   3  -3  179.70    3.30
   0  -3   3  183.99    3.99
   0  -3   3  174.54    3.30
   0  -3   3  179.21    3.92
   0   3  -4   96.82    2.17
   0   3  -4   98.52    2.65
   0   3  -4  100.90    2.77
   0  -3   4   98.20    2.73
   0  -3   4   95.33    2.16
   0   3  -5   14.98    0.81
   0   3  -5   16.62    1.09
   0  -3   5   14.57    1.00
   0  -3   5   14.73    0.77
   0   3  -6  120.32    2.99
   0   3  -6  115.02    3.43
   0  -3   6  108.93    3.22
   0  -3   6  117.76    2.88
   0  -3   6  122.25    4.07
   0   3  -7    0.08    0.29
   0   3  -7   -0.01    0.33
   0  -3   7    0.15    0.34
   0  -3   7    0.42    0.47
   0   3  -8   98.85    3.56
   0  -3   8  100.15    4.39
   0  -3   8   98.85    3.21
   0   3  -9    5.67    1.08
   0  -3   9    5.94    1.49
   0  -3   9    5.94    0.98
   0  -3  10   14.55    1.82
   0  -3  11   28.60    3.35
   0  -3  12    0.98    0.92
   1   4   9   19.45    2.31
   1   4   8    1.96    0.89
   1   4   7   33.07    2.32
   1   4   6    1.49    0.70
   1   4   5   24.87    1.91
   1   4   5   21.81    2.08
   1   4   4   21.97    1.68
   1   4   4   22.83    1.70
  -1  -4  -4   23.54    1.53
  -1  -4  -4   24.78    1.72
   1   4   3   16.71    1.61
   1   4   3   13.77    1.49
  -1  -4  -3   17.48    1.20
  -1  -4  -3   16.70    1.56
   1   4   2   99.22    3.30
   1   4   2   99.59    3.31
  -1  -4  -2   98.43    3.27
  -1  -4  -2   98.31    2.61
  -1  -4  -2   94.25    2.81
   1   4   1   -0.01    0.21
   1   4   1    0.03    0.25
   1   4   1    0.19    0.21
  -1  -4  -1    0.00    0.22
  -1  -4  -1   -0.12    0.18
  -1  -4  -1   -0.07    0.18
  -1  -4  -1   -0.27    0.12
   1   4   0  120.93    3.38
   1   4   0  120.14    3.33
   1   4   0  115.90    2.72
  -1  -4   0  117.76    3.30
  -1  -4   0  117.23    3.08
  -1  -4   0  117.51    2.66
  -1  -4   0  119.04    2.76
   1   4  -1   41.48    1.06
   1   4  -1   40.70    1.73
   1   4  -1   39.42    1.06
   1   4  -1   41.11    1.75
   1   4  -1   44.93    1.72
   1   4  -1   42.69    1.32
  -1  -4   1   38.66    1.64
  -1  -4   1   42.02    1.39
  -1  -4   1   42.14    1.31
  -1  -4   1   43.27    1.70
   1   4  -2   91.36    2.18
   1   4  -2   91.72    2.19
   1   4  -2   92.85    2.54
   1   4  -2   94.85    2.58
   1   4  -2   93.82    2.75
  -1  -4   2   94.25    2.20
  -1  -4   2  100.47    2.87
  -1  -4   2   91.29    2.57
  -1  -4   2   94.88    2.36
   1   4  -3   67.09    2.01
   1   4  -3   66.44    1.87
   1   4  -3   65.86    1.94
   1   4  -3   67.89    2.27
  -1  -4   3   68.70    2.03
  -1  -4   3   70.51    1.94
  -1  -4   3   68.91    2.36
   1   4  -4   55.09    1.79
   1   4  -4   52.84    1.54
   1   4  -4   52.50    2.03
   1   4  -4   55.46    1.75
  -1  -4   4   54.58    1.76
  -1  -4   4   49.31    2.05
  -1  -4   4   56.21    1.68
   1   4  -5  124.28    3.28
   1   4  -5  128.47    3.03
   1   4  -5  124.04    3.52
  -1  -4   5  122.43    3.04
  -1  -4   5  122.66    3.57
   1   4  -6   -0.02    0.22
   1   4  -6   -0.03    0.27
   1   4  -6   -0.02    0.18
  -1  -4   6    0.17    0.25
  -1  -4   6   -0.14    0.27
   1   4  -7  120.25    3.80
   1   4  -7  119.64    3.38
   1   4  -7  120.41    3.72
  -1  -4   7  121.69    3.74
  -1  -4   7  117.77    3.19
   1   4  -8    6.49    1.11
  -1  -4   8    7.74    0.92
  -1  -4   8    9.39    1.25
   1   4  -9   11.41    1.47
  -1  -4   9   13.51    1.52
  -1  -4   9    8.83    1.58
   1   4 -10   16.92    2.86
  -1  -4  10   15.46    1.71
  -1  -4  11    0.27    0.66
  -1  -4  12   20.44    2.95
  -1  -4  13   -0.11    0.76
  -1  -4  14    9.42    2.29
   2   5   8    4.19    1.32
   2   5   7    6.45    1.51
   2   5   6   11.06    1.76
   2   5   5   29.48    2.71
   2   5   4    0.12    0.46
   2   5   3   44.24    2.46
   2   5   3   42.15    2.45
   2   5   2   34.35    2.11
   2   5   2   34.77    2.11
  -2  -5  -2   34.31    2.15
   2   5   1   30.77    1.88
   2   5   1   25.33    1.69
  -2  -5  -1   23.43    1.66
  -2  -5  -1   26.55    1.52
   2   5   0   39.69    2.08
   2   5   0   41.37    2.10
  -2  -5   0   40.76    1.92
  -2  -5   0   39.86    2.06
   2   5  -1    0.40    0.39
   2   5  -1    0.23    0.38
  -2  -5   1    1.00    0.38
  -2  -5   1    1.01    0.49
  -2  -5   1    1.37    0.51
   2   5  -2   65.68    2.49
   2   5  -2   69.13    1.48
   2   5  -2   67.97    2.59
  -2  -5   2   67.96    2.55
  -2  -5   2   67.05    2.13
  -2  -5   2   65.33    2.59
   2   5  -3   14.56    1.36
   2   5  -3   17.31    1.16
   2   5  -3   18.37    0.84
   2   5  -3   17.40    0.85
  -2  -5   3   18.07    1.35
  -2  -5   3   16.86    1.18
  -2  -5   3   17.33    1.05
   2   5  -4   53.63    1.96
   2   5  -4   51.66    1.71
   2   5  -4   51.58    1.67
   2   5  -4   55.21    2.28
  -2  -5   4   51.79    2.08
  -2  -5   4   53.77    2.41
  -2  -5   4   50.05    1.84
   2   5  -5   36.77    1.90
   2   5  -5   36.26    1.50
   2   5  -5   37.47    1.52
  -2  -5   5   34.91    1.52
  -2  -5   5   33.36    1.92
  -2  -5   5   36.09    1.70
   2   5  -6    3.71    0.80
  -2  -5   6    4.23    0.73
  -2  -5   6    3.55    0.86
   2   5  -7   23.28    1.63
   2   5  -7   24.10    1.48
  -2  -5   7   23.97    1.71
  -2  -5   7   21.49    1.38
   2   5  -8    4.76    0.98
  -2  -5   8    2.97    0.83
   2   5  -9   37.50    2.29
  -2  -5   9   39.20    2.31
  -2  -5  10   14.82    1.80
  -2  -5  11   19.96    2.92
  -2  -5  11   16.49    1.94
  -2  -5  12   14.17    2.41
  -2  -5  13   -0.19    0.69
  -2  -5  14    8.91    2.32
   3   6   6   11.33    1.90
   3   6   5   20.88    2.57
   3   6   4    7.99    1.61
   3   6   3   29.24    2.89
   3   6   2    4.58    1.18
   3   6   1   30.77    2.20
   3   6   1   31.68    2.14
   3   6   0    9.59    1.36
   3   6   0    8.60    1.35
  -3  -6   0    8.74    1.29
   3   6  -1   37.14    2.24
   3   6  -1   37.92    2.18
  -3  -6   1   38.69    2.18
   3   6  -2   23.76    1.72
   3   6  -2   23.70    1.68
  -3  -6   2   23.77    1.74
  -3  -6   2   25.45    1.79
  -3  -6   2   24.69    1.42
   3   6  -3    4.66    0.94
   3   6  -3    4.93    0.97
  -3  -6   3    5.10    1.07
  -3  -6   3    5.65    0.97
  -3  -6   3    4.64    0.75
   3   6  -4   36.92    1.93
   3   6  -4   32.59    1.94
   3   6  -4   33.34    1.22
  -3  -6   4   35.01    2.16
  -3  -6   4   29.98    1.86
  -3  -6   4   34.98    1.72
   3   6  -5    2.84    0.50
   3   6  -5    3.39    0.82
   3   6  -5    3.36    0.73
  -3  -6   5    3.20    0.68
  -3  -6   5    2.28    0.77
  -3  -6   5    2.99    0.74
   3   6  -6   52.49    2.56
   3   6  -6   60.87    2.13
  -3  -6   6   55.39    2.22
  -3  -6   6   53.63    2.77
  -3  -6   6   53.42    2.46
   3   6  -7   31.44    1.59
   3   6  -7   31.97    2.05
  -3  -6   7   33.03    2.22
   3   6  -8   19.59    1.95
   3   6  -8   24.43    1.45
  -3  -6   8   24.37    2.42
   3   6  -9   65.46    3.18
  -3  -6   9   69.63    3.41
  -3  -6  10    0.25    0.64
  -3  -6  11   30.68    2.35
  -3  -6  12    2.81    1.23
  -3  -6  12    3.62    1.09
  -3  -6  13   14.66    2.69
   4   7   3    0.07    0.67
   4   7   2   38.93    2.92
   4   7   1   20.76    2.52
   4   7   0   17.59    2.16
   4   7  -1   42.45    2.74
  -4  -7   1   43.06    2.64
   4   7  -2    2.54    0.89
  -4  -7   2    3.36    0.95
   4   7  -3   59.46    2.99
  -4  -7   3   54.76    3.04
   4   7  -4    9.89    1.47
  -4  -7   4    7.16    1.07
  -4  -7   4    8.26    1.47
  -4  -7   5   40.60    2.67
   4   7  -6   41.74    1.59
  -4  -7   6   42.32    2.71
  -4  -7   7   13.62    1.94
  -4  -7   8   41.85    2.81
  -4  -7   9    1.01    0.82
  -4  -7  10   40.57    2.90
  -4  -7  11    8.10    1.66
  -4  -7  12   21.73    2.83
   5   8  -1    3.69    1.21
   5   8  -2    0.88    0.76
  -5  -8   2    4.28    1.25
   5   8  -3   20.91    2.46
  -5  -8   3   19.54    2.60
   5   8  -4    2.37    0.97
  -5  -8   4    2.35    1.01
  -5  -8   5    7.05    1.63
  -5  -8   6    0.80    0.72
  -5  -8   7    4.50    1.32
  -5  -8   8    6.37    1.59
  -5  -8   9    4.55    1.42
  -5  -8  10    4.41    1.38
  -8  -4  10   43.62    3.20
  -8  -4   9   15.85    2.36
  -8  -4   8   36.41    3.45
  -8  -4   7   28.86    2.99
  -8  -4   6    3.14    1.09
  -8  -4   5   60.37    3.51
  -8  -4   4    3.54    1.14
  -8  -4   3   48.68    3.16
  -8  -4   2   18.85    2.43
   8   4  -2   19.65    2.48
  -8  -4   1    2.47    1.01
   8   4  -1    3.66    1.19
  -8  -4   0   23.59    2.66
   8   4   0   19.93    2.47
   8   4   1    0.82    0.89
  -7  -3  12    1.68    1.19
  -7  -3  11   10.10    1.80
  -7  -3  10    2.56    1.02
  -7  -3   9    3.66    1.14
  -7  -3   8   13.26    1.94
  -7  -3   7   -0.27    0.41
   7   3  -7    0.44    0.31
  -7  -3   6   30.92    2.28
  -7  -3   5    9.28    1.67
  -7  -3   4    8.28    1.52
  -7  -3   3   28.60    2.68
  -7  -3   2    1.69    0.72
   7   3  -2    2.15    0.85
  -7  -3   1   28.83    2.66
   7   3  -1   22.78    2.30
  -7  -3   0    6.55    1.28
   7   3   0   10.99    1.71
  -7  -3  -1   28.62    2.15
   7   3   1   21.32    2.35
  -7  -3  -2   10.65    1.65
   7   3   2   14.34    2.06
   7   3   3   -0.62    0.50
   7   3   4    9.94    1.87
   7   3   5   -0.17    0.80
  -6  -2  13   11.13    2.77
  -6  -2  12   -0.31    0.81
  -6  -2  11   29.57    3.83
  -6  -2  10    6.45    1.97
  -6  -2  10    8.96    1.52
  -6  -2   9   23.49    2.25
  -6  -2   8   55.80    2.84
   6   2  -8   53.18    2.15
  -6  -2   7   -0.04    0.42
  -6  -2   7    1.70    0.73
   6   2  -7    0.95    0.40
  -6  -2   6   58.27    2.82
  -6  -2   6   55.49    2.75
   6   2  -6   59.66    1.95
  -6  -2   5   22.65    2.23
  -6  -2   5   17.09    1.74
   6   2  -5   17.20    0.86
  -6  -2   4   43.15    2.36
  -6  -2   4   43.01    2.30
  -6  -2   4   41.65    1.77
  -6  -2   3   64.21    2.16
  -6  -2   3   65.41    2.84
  -6  -2   3   58.74    2.72
  -6  -2   2    4.17    0.91
  -6  -2   2    4.91    1.07
   6   2  -2    6.58    1.11
  -6  -2   1  125.86    4.24
  -6  -2   1  122.15    4.17
   6   2  -1  130.85    4.25
  -6  -2   0    1.30    0.64
   6   2   0    1.28    0.62
  -6  -2  -1   32.05    2.03
   6   2   1   29.12    2.02
  -6  -2  -2   25.19    1.86
   6   2   2   29.99    2.11
  -6  -2  -3   20.64    2.00
   6   2   3   22.58    2.24
   6   2   4   29.68    2.74
   6   2   5    5.94    1.34
   6   2   6   24.41    2.57
   6   2   7    3.34    1.26
  -5  -1  13    1.24    1.08
  -5  -1  12   29.14    3.80
  -5  -1  11   15.30    2.69
  -5  -1  10   14.17    2.57
   5   1 -10   13.03    1.72
  -5  -1   9   71.65    4.13
   5   1  -9   78.20    2.75
  -5  -1   8   14.94    1.61
  -5  -1   8   13.45    1.42
  -5  -1   8   16.47    1.76
   5   1  -8   12.34    1.19
   5   1  -8    9.09    1.18
  -5  -1   7   77.38    2.84
  -5  -1   7   79.51    3.01
  -5  -1   7   78.99    3.20
   5   1  -7   79.13    2.53
   5   1  -7   79.88    2.72
   5   1  -7   82.95    2.98
  -5  -1   6   33.19    1.98
  -5  -1   6   33.17    1.78
  -5  -1   6   31.69    1.82
   5   1  -6   33.90    1.68
   5   1  -6   33.14    1.52
   5   1  -6   33.00    1.44
  -5  -1   5   97.08    3.11
  -5  -1   5  101.41    3.44
  -5  -1   5   95.94    3.28
   5   1  -5   96.34    2.80
   5   1  -5   96.21    2.57
   5   1  -5  100.98    2.59
  -5  -1   4  128.89    3.78
  -5  -1   4  122.39    3.76
   5   1  -4  124.44    2.79
   5   1  -4  125.87    3.05
   5   1  -4  125.80    3.26
   5   1  -4  123.30    3.73
   5   1  -4  124.48    2.77
  -5  -1   3    7.82    0.48
  -5  -1   3    9.92    0.90
  -5  -1   3    9.04    1.13
  -5  -1   3    8.26    1.15
   5   1  -3    7.95    0.35
   5   1  -3    7.85    0.36
   5   1  -3    7.65    0.55
   5   1  -3    8.18    0.51
  -5  -1   2  128.76    3.75
  -5  -1   2  122.22    2.42
  -5  -1   2  128.42    2.56
  -5  -1   2  127.78    3.80
  -5  -1   2  128.70    2.91
   5   1  -2  128.99    2.57
   5   1  -2  125.89    2.45
  -5  -1   1    6.92    0.95
  -5  -1   1    7.30    0.54
  -5  -1   1    6.84    0.48
  -5  -1   1    6.47    0.32
  -5  -1   1    7.48    1.03
   5   1  -1    9.95    1.20
   5   1  -1    5.25    0.87
   5   1  -1    7.22    0.52
  -5  -1   0   81.75    2.24
  -5  -1   0   80.15    2.91
  -5  -1   0   85.92    2.97
  -5  -1   0   76.85    1.77
   5   1   0   73.86    2.77
   5   1   0   79.11    2.89
   5   1   0   83.79    2.18
  -5  -1  -1   83.02    3.04
  -5  -1  -1   80.18    2.97
   5   1   1   80.65    2.41
   5   1   1   79.86    3.01
   5   1   1   81.84    3.01
  -5  -1  -2   47.19    2.21
  -5  -1  -2   48.03    2.31
   5   1   2   44.37    2.23
   5   1   2   43.21    1.86
   5   1   2   48.08    2.26
  -5  -1  -3   91.06    3.24
  -5  -1  -3   92.10    3.45
   5   1   3   90.03    3.43
   5   1   3   89.94    3.07
   5   1   3   95.44    3.32
  -5  -1  -4    0.67    0.46
   5   1   4    0.50    0.43
   5   1   4    0.09    0.41
   5   1   4    1.93    0.69
   5   1   5   49.76    2.72
   5   1   5   55.92    2.70
   5   1   6    7.95    1.37
   5   1   7   15.85    1.96
   5   1   8    5.81    1.33
  -4   0  12   10.48    2.68
  -4   0  11    4.79    1.64
  -4   0  10   35.73    3.17
   4   0 -10   33.26    3.04
  -4   0   9   -0.26    0.51
   4   0  -9    0.01    0.30
  -4   0   8   24.68    1.75
  -4   0   8   25.46    2.95
  -4   0   8   22.29    1.46
   4   0  -8   23.28    1.32
  -4   0   7   43.91    2.78
  -4   0   7   47.19    2.32
  -4   0   7   45.77    2.00
  -4   0   7   46.33    1.94
   4   0  -7   46.59    1.80
  -4   0   6   32.88    1.63
  -4   0   6   34.03    2.25
  -4   0   6   30.75    1.52
  -4   0   6   31.40    1.77
   4   0  -6   33.50    1.41
   4   0  -6   30.99    1.69
   4   0  -6   32.37    1.57
  -4   0   5   62.32    2.23
  -4   0   5   68.50    2.54
  -4   0   5   63.66    2.26
  -4   0   5   61.68    2.25
   4   0  -5   66.40    1.97
   4   0  -5   63.82    2.30
  -4   0   4    3.42    0.64
  -4   0   4    3.89    0.58
  -4   0   4    4.09    0.72
  -4   0   4    4.67    0.70
   4   0  -4    3.51    0.57
   4   0  -4    3.90    0.50
   4   0  -4    4.13    0.51
   4   0  -4    3.46    0.48
  -4   0   3  190.90    3.93
  -4   0   3  182.61    4.43
  -4   0   3  190.02    4.36
   4   0  -3  183.87    3.44
   4   0  -3  186.42    3.61
   4   0  -3  180.76    3.61
   4   0  -3  182.67    3.92
   4   0  -3  183.58    3.43
  -4   0   2   46.31    1.82
  -4   0   2   48.33    1.39
  -4   0   2   47.57    1.41
  -4   0   2   47.12    1.83
   4   0  -2   45.81    1.81
   4   0  -2   47.04    1.06
   4   0  -2   46.04    0.96
   4   0  -2   46.32    0.97
   4   0  -2   46.84    1.41
   4   0  -2   46.42    1.05
  -4   0   1   97.89    2.83
  -4   0   1  101.17    2.91
  -4   0   1  100.42    2.06
  -4   0   1  100.16    2.21
  -4   0   1  103.18    1.80
   4   0  -1  100.78    1.79
   4   0  -1  104.68    2.23
   4   0  -1  108.12    2.97
  -4   0   0  183.14    3.46
  -4   0   0  175.28    4.15
  -4   0   0  178.43    3.33
  -4   0   0  174.35    4.24
   4   0   0  174.71    3.40
   4   0   0  173.11    4.16
   4   0   0  181.92    3.31
   4   0   0  180.67    4.28
  -4   0  -1    0.78    0.37
  -4   0  -1   -0.03    0.22
  -4   0  -1    0.44    0.23
  -4   0  -1    0.67    0.22
   4   0   1    0.40    0.32
   4   0   1    0.79    0.26
   4   0   1    0.38    0.35
  -4   0  -2   81.60    2.66
  -4   0  -2   75.47    2.57
  -4   0  -2   79.98    2.20
   4   0   2   80.21    2.33
   4   0   2   73.63    2.58
   4   0   2   78.42    2.62
  -4   0  -3   26.44    1.49
  -4   0  -3   26.73    1.30
  -4   0  -3   25.33    1.46
   4   0   3   24.30    1.34
   4   0   3   26.25    1.49
   4   0   3   22.37    1.40
  -4   0  -4   40.17    1.91
  -4   0  -4   42.69    1.85
  -4   0  -4   41.33    2.00
   4   0   4   39.68    1.91
   4   0   4   38.63    1.95
   4   0   4   42.93    1.97
  -4   0  -5   20.37    1.48
  -4   0  -5   19.65    1.36
   4   0   5   20.52    1.50
   4   0   5   20.78    1.42
   4   0   5   22.17    1.55
  -4   0  -6    3.29    0.78
   4   0   6    2.96    0.78
   4   0   6    0.69    0.53
   4   0   7   45.64    2.63
   4   0   7   42.51    2.38
   4   0   8    2.93    0.89
  -3   1   9    2.07    1.11
  -3   1   9    1.03    0.62
  -3   1   9    2.62    0.73
  -3   1   8   42.70    3.10
  -3   1   8   37.90    2.21
  -3   1   8   38.34    1.97
  -3   1   7   23.33    2.63
  -3   1   7   24.84    1.50
  -3   1   7   24.70    1.62
  -3   1   7   29.68    1.81
   3  -1  -7   25.31    1.24
  -3   1   6   44.63    1.94
  -3   1   6   45.08    2.15
  -3   1   6   49.49    2.11
  -3   1   6   47.02    2.72
  -3   1   6   46.24    1.54
   3  -1  -6   50.57    2.27
   3  -1  -6   47.12    1.63
  -3   1   5  114.30    3.39
  -3   1   5  111.66    4.01
  -3   1   5  114.37    3.18
  -3   1   5  111.51    3.16
  -3   1   5  110.94    3.36
  -3   1   5  115.90    2.69
   3  -1  -5  114.44    2.74
   3  -1  -5  114.15    3.40
  -3   1   4    0.14    0.20
  -3   1   4    0.52    0.38
  -3   1   4    0.09    0.23
  -3   1   4   -0.11    0.19
  -3   1   4    0.34    0.30
  -3   1   4    0.22    0.28
   3  -1  -4    0.15    0.18
   3  -1  -4    0.35    0.31
   3  -1  -4    0.05    0.19
  -3   1   3  183.51    3.70
  -3   1   3  184.86    3.59
  -3   1   3  183.90    4.18
  -3   1   3  187.80    3.77
  -3   1   3  180.34    4.03
  -3   1   3  185.26    4.07
   3  -1  -3  174.31    4.14
   3  -1  -3  180.63    4.04
   3  -1  -3  182.25    3.59
   3  -1  -3  177.69    3.66
  -3   1   2   50.30    1.71
  -3   1   2   50.37    1.24
  -3   1   2   50.02    1.58
  -3   1   2   47.69    1.65
  -3   1   2   51.55    1.56
   3  -1  -2   51.51    1.72
   3  -1  -2   47.64    1.22
   3  -1  -2   49.47    1.59
   3  -1  -2   47.31    1.29
   3  -1  -2   49.93    1.56
  -3   1   1   96.17    1.69
  -3   1   1  100.51    2.32
  -3   1   1  100.72    2.02
  -3   1   1   99.53    2.46
  -3   1   1   99.22    2.47
   3  -1  -1   97.76    1.69
   3  -1  -1   96.78    1.81
   3  -1  -1   99.80    2.31
   3  -1  -1  101.07    1.82
   3  -1  -1   97.90    2.46
   3  -1  -1  100.23    2.48
  -3   1   0   10.03    0.91
  -3   1   0    7.76    0.31
  -3   1   0    7.74    0.52
  -3   1   0    7.80    0.31
  -3   1   0    8.22    0.71
   3  -1   0    8.15    0.78
   3  -1   0    7.75    0.57
   3  -1   0    8.51    0.54
  -3   1  -1   35.57    1.26
  -3   1  -1   36.18    1.21
  -3   1  -1   34.68    1.04
  -3   1  -1   35.33    1.44
   3  -1   1   33.55    1.29
   3  -1   1   36.48    1.21
   3  -1   1   35.58    1.43
   3  -1   1   36.13    1.29
  -3   1  -2   76.01    2.10
  -3   1  -2   77.98    2.05
  -3   1  -2   78.03    2.15
   3  -1   2   80.98    2.41
   3  -1   2   81.51    2.19
   3  -1   2   75.50    2.16
   3  -1   2   77.07    2.05
  -3   1  -3   21.62    1.09
  -3   1  -3   20.44    1.09
   3  -1   3   21.01    1.08
   3  -1   3   19.72    1.08
   3  -1   3   20.01    1.08
   3  -1   3   19.87    1.21
  -3   1  -4   72.41    2.32
  -3   1  -4   74.48    2.45
   3  -1   4   69.83    2.28
   3  -1   4   69.73    2.39
   3  -1   4   73.27    2.49
  -3   1  -5   15.66    1.07
   3  -1   5   15.52    1.18
   3  -1   5   14.27    1.04
   3  -1   5   14.85    1.13
  -3   1  -6   17.03    1.23
   3  -1   6   15.70    1.53
   3  -1   6   16.61    1.26
   3  -1   6   19.86    1.30
  -3   1  -7   27.48    1.68
   3  -1   7   24.65    1.78
   3  -1   7   26.07    1.59
  -3   1  -8    0.00    0.34
   3  -1   8   -0.04    0.63
  -2   2   9   59.18    2.80
  -2   2   8   33.58    1.95
  -2   2   8   32.55    2.18
  -2   2   7   45.96    2.21
  -2   2   7   43.89    2.38
  -2   2   6  117.80    3.57
  -2   2   6  123.56    3.90
   2  -2  -6  122.76    2.89
  -2   2   5   -0.03    0.25
  -2   2   5    0.15    0.26
  -2   2   5   -0.20    0.25
   2  -2  -5   -0.08    0.16
   2  -2  -5    0.06    0.30
  -2   2   4  315.97    6.70
  -2   2   4  315.61    6.50
  -2   2   4  323.47    6.61
   2  -2  -4  328.94    5.79
   2  -2  -4  318.04    6.73
  -2   2   3   31.97    1.73
  -2   2   3   27.98    1.26
  -2   2   3   25.98    0.80
  -2   2   3   26.83    1.32
  -2   2   3   24.72    1.23
   2  -2  -3   27.68    1.32
   2  -2  -3   27.46    0.97
   2  -2  -3   25.54    1.30
  -2   2   2  445.79    7.99
  -2   2   2  430.35    7.75
  -2   2   2  433.10    8.40
  -2   2   2  433.49    7.94
  -2   2   2  441.78    7.92
   2  -2  -2  438.07    7.78
   2  -2  -2  453.91    7.96
   2  -2  -2  447.34    7.38
   2  -2  -2  433.75    7.97
  -2   2   1  378.40    6.33
  -2   2   1  382.71    6.59
  -2   2   1  373.29    6.81
  -2   2   1  372.31    6.68
  -2   2   1  377.72    6.78
  -2   2   1  382.27    6.84
   2  -2  -1  385.85    6.70
   2  -2  -1  376.54    6.82
   2  -2  -1  386.08    6.59
   2  -2  -1  377.23    6.34
  -2   2   0   32.05    0.98
  -2   2   0   30.96    1.13
  -2   2   0   31.15    1.08
  -2   2   0   31.11    0.98
  -2   2   0   31.63    0.86
   2  -2   0   32.18    0.99
   2  -2   0   34.38    1.17
   2  -2   0   31.67    0.81
   2  -2   0   33.04    0.99
  -2   2  -1 1000.00   15.51
  -2   2  -1  975.76   15.77
   2  -2   1  957.10   15.74
   2  -2   1  982.25   15.54
  -2   2  -2    4.93    0.56
  -2   2  -2    4.57    0.50
  -2   2  -2    4.82    0.31
   2  -2   2    5.69    0.69
   2  -2   2    4.57    0.52
   2  -2   2    4.25    0.50
   2  -2   2    4.33    0.30
  -2   2  -3   75.67    1.74
  -2   2  -3   75.81    2.13
  -2   2  -3   73.36    2.12
  -2   2  -3   74.58    2.19
   2  -2   3   73.70    2.35
   2  -2   3   74.99    2.31
   2  -2   3   75.17    1.74
  -2   2  -4  121.39    3.25
  -2   2  -4  120.47    3.20
  -2   2  -4  123.55    2.73
   2  -2   4  120.51    3.29
   2  -2   4  122.79    2.64
  -2   2  -5   41.52    1.50
  -2   2  -5   40.53    1.79
   2  -2   5   36.75    1.33
   2  -2   5   37.89    1.78
  -2   2  -6   98.88    3.27
   2  -2   6  101.91    2.63
   2  -2   6   98.11    3.18
  -2   2  -7    5.19    0.96
   2  -2   7    8.88    1.18
   2  -2   7    5.80    0.73
  -2   2  -8   66.55    3.02
  -1   3  10   23.73    2.38
  -1   3   9   25.26    2.36
  -1   3   8   13.73    1.61
  -1   3   7   52.15    2.79
  -1   3   7   51.15    2.53
  -1   3   6    2.20    0.64
  -1   3   6    2.26    0.79
  -1   3   5   93.17    3.36
  -1   3   5   97.30    3.26
   1  -3  -5   96.85    3.35
  -1   3   4   41.32    1.92
  -1   3   4   41.19    1.95
  -1   3   4   39.38    1.85
   1  -3  -4   42.15    1.94
   1  -3  -4   41.20    1.28
  -1   3   3   65.62    2.32
  -1   3   3   66.65    2.41
  -1   3   3   68.78    2.33
   1  -3  -3   63.80    2.28
   1  -3  -3   63.98    1.65
  -1   3   2  136.41    3.37
  -1   3   2  136.83    3.43
  -1   3   2  137.95    3.50
   1  -3  -2  135.51    2.74
   1  -3  -2  126.89    3.29
  -1   3   1    0.91    0.31
  -1   3   1    0.35    0.24
  -1   3   1    0.51    0.15
  -1   3   1    0.82    0.34
   1  -3  -1    0.44    0.24
   1  -3  -1    0.12    0.24
   1  -3  -1    0.60    0.20
  -1   3   0  184.80    3.77
  -1   3   0  181.81    3.91
  -1   3   0  185.46    3.80
  -1   3   0  178.72    3.38
   1  -3   0  186.04    3.92
   1  -3   0  186.12    3.80
   1  -3   0  181.89    3.44
  -1   3  -1    8.58    0.48
  -1   3  -1    8.38    0.51
  -1   3  -1    9.05    0.61
  -1   3  -1   10.00    0.68
   1  -3   1    8.64    0.48
   1  -3   1    8.09    0.59
   1  -3   1    9.32    0.63
  -1   3  -2   76.83    2.12
  -1   3  -2   75.38    1.70
  -1   3  -2   75.22    2.03
   1  -3   2   75.22    1.60
   1  -3   2   80.74    2.09
   1  -3   2   76.78    2.11
   1  -3   2   74.41    1.41
   1  -3   2   78.73    2.12
  -1   3  -3  247.11    3.96
  -1   3  -3  244.84    5.02
  -1   3  -3  243.69    4.96
   1  -3   3  249.69    5.02
   1  -3   3  239.93    3.96
   1  -3   3  254.96    5.05
   1  -3   3  249.11    5.00
  -1   3  -4   14.84    0.61
  -1   3  -4   15.45    0.97
  -1   3  -4   16.00    1.01
   1  -3   4   16.75    1.01
  -1   3  -5  217.12    4.20
  -1   3  -5  223.24    5.02
  -1   3  -5  206.23    4.96
   1  -3   5  216.14    5.47
   1  -3   5  219.33    4.87
  -1   3  -6   24.44    1.16
  -1   3  -6   22.08    1.41
   1  -3   6   26.54    1.45
   1  -3   6   25.92    1.81
  -1   3  -7   40.18    2.05
  -1   3  -7   40.61    1.71
   1  -3   7   43.17    2.59
   1  -3   7   41.97    1.96
  -1   3  -8   37.11    2.13
   1  -3   8   43.40    2.09
   1  -3   8   46.12    2.95
  -1   3  -9    3.62    0.91
   1  -3   9    3.85    0.92
   1  -3   9    3.60    1.11
   0   4  10    8.14    1.59
   0   4   9   -0.77    0.50
   0   4   8   11.73    1.77
   0   4   7   17.46    1.95
   0   4   6    4.55    1.01
   0   4   5   44.06    2.45
   0   4   5   45.52    2.38
   0   4   4    1.03    0.55
   0   4   4    0.43    0.42
   0  -4  -4    0.66    0.38
   0   4   3   27.33    1.50
   0   4   3   28.73    1.72
   0   4   3   29.07    1.67
   0  -4  -3   26.72    1.51
   0  -4  -3   27.61    1.65
   0   4   2    9.47    0.93
   0   4   2    6.39    0.92
   0   4   2    8.99    1.04
   0  -4  -2   10.71    1.03
   0  -4  -2    9.14    1.05
   0  -4  -2   10.42    0.65
   0  -4  -2    9.60    0.60
   0   4   1  113.29    2.95
   0   4   1  118.85    3.40
   0   4   1  116.51    3.27
   0  -4  -1  114.55    2.60
   0  -4  -1  117.28    2.75
   0  -4  -1  115.27    3.22
   0  -4  -1  113.04    2.98
   0   4   0   35.10    1.60
   0   4   0   31.77    1.44
   0   4   0   31.47    0.89
   0  -4   0   32.24    1.29
   0  -4   0   33.19    1.32
   0  -4   0   33.69    1.16
   0  -4   0   33.95    1.44
   0   4  -1   19.83    1.14
   0   4  -1   20.33    0.82
   0   4  -1   19.45    1.02
   0  -4   1   19.05    1.05
   0  -4   1   19.39    0.93
   0  -4   1   21.82    1.04
   0  -4   1   20.68    0.90
   0   4  -2  140.42    3.52
   0   4  -2  130.93    3.08
   0   4  -2  143.29    3.12
   0   4  -2  143.14    3.05
   0  -4   2  138.99    3.07
   0  -4   2  140.89    3.14
   0  -4   2  144.22    3.47
   0  -4   2  141.36    3.02
   0   4  -3   17.36    0.76
   0   4  -3   17.34    0.78
   0   4  -3   17.86    0.93
   0   4  -3   14.62    1.01
   0  -4   3   17.06    0.81
   0  -4   3   19.03    0.81
   0  -4   3   16.51    0.91
   0  -4   3   20.08    1.16
   0   4  -4   93.76    2.15
   0   4  -4   93.84    2.83
   0   4  -4   94.83    2.64
   0  -4   4   94.24    2.18
   0  -4   4   96.60    2.88
   0   4  -5   18.73    1.23
   0   4  -5   17.67    1.13
   0   4  -5   18.70    0.83
   0  -4   5   17.73    0.84
   0  -4   5   19.54    1.24
   0   4  -6    8.13    1.06
   0   4  -6    8.38    1.01
   0   4  -6    8.51    0.64
   0  -4   6   10.32    1.18
   0  -4   6    9.52    0.66
   0   4  -7   67.16    2.12
   0   4  -7   64.29    2.65
   0  -4   7   70.33    2.65
   0  -4   7   71.53    3.30
   0  -4   7   65.04    2.06
   0   4  -8    1.93    0.68
   0  -4   8    2.68    0.73
   0  -4   8    1.21    0.75
   0   4  -9   77.31    3.30
   0  -4   9   78.80    3.07
   0  -4   9   81.79    4.13
   0  -4  10    3.64    1.09
   0  -4  10    6.00    1.09
   0  -4  11    5.84    1.60
   0  -4  12   14.13    2.66
   0  -4  13   -0.47    0.70
   1   5   8   19.22    2.32
   1   5   7    2.08    0.95
   1   5   6   41.45    2.67
   1   5   5   13.41    1.73
   1   5   4   51.52    2.77
   1   5   4   54.72    2.81
   1   5   3   95.66    3.67
   1   5   3  103.40    3.85
  -1  -5  -3   98.34    3.69
   1   5   2    8.77    1.22
   1   5   2    6.75    1.10
  -1  -5  -2    4.95    0.91
  -1  -5  -2    7.94    1.23
   1   5   1  128.60    3.95
   1   5   1  133.66    4.03
   1   5   1  126.02    3.27
  -1  -5  -1  124.08    3.04
  -1  -5  -1  120.94    3.36
  -1  -5  -1  128.18    3.35
  -1  -5  -1  131.28    3.94
   1   5   0   32.89    1.74
   1   5   0   35.86    1.42
   1   5   0   33.93    1.82
  -1  -5   0   34.52    1.42
  -1  -5   0   36.64    1.85
  -1  -5   0   37.98    1.70
  -1  -5   0   36.94    1.41
   1   5  -1   75.62    2.10
   1   5  -1   76.36    2.72
   1   5  -1   76.38    1.57
   1   5  -1   78.19    1.58
   1   5  -1   76.54    2.62
  -1  -5   1   79.87    2.24
  -1  -5   1   75.41    2.60
  -1  -5   1   78.45    2.63
  -1  -5   1   76.76    2.14
   1   5  -2   60.19    1.68
   1   5  -2   62.16    2.20
   1   5  -2   60.13    1.80
   1   5  -2   59.06    2.34
  -1  -5   2   61.84    1.94
  -1  -5   2   64.03    1.83
  -1  -5   2   61.09    2.33
  -1  -5   2   64.03    2.24
   1   5  -3   10.77    0.73
   1   5  -3   11.53    0.84
   1   5  -3    9.03    1.04
   1   5  -3   12.00    0.85
  -1  -5   3   10.16    0.71
  -1  -5   3    9.21    1.11
  -1  -5   3   11.95    1.06
  -1  -5   3   10.96    0.79
   1   5  -4   76.90    2.30
   1   5  -4   84.38    2.82
   1   5  -4   75.95    2.19
   1   5  -4   75.28    2.27
  -1  -5   4   76.95    2.23
  -1  -5   4   76.00    2.33
  -1  -5   4   74.44    2.75
   1   5  -5   22.14    1.13
   1   5  -5   21.18    1.20
   1   5  -5   22.09    1.44
   1   5  -5   22.65    0.98
  -1  -5   5   23.55    1.19
  -1  -5   5   19.80    1.41
   1   5  -6   82.74    2.42
   1   5  -6   86.39    2.79
   1   5  -6   83.43    3.03
  -1  -5   6   77.99    2.99
  -1  -5   6   83.98    2.50
   1   5  -7   63.69    2.55
   1   5  -7   63.08    2.68
  -1  -5   7   62.82    2.70
  -1  -5   7   61.96    2.14
   1   5  -8   23.07    2.09
  -1  -5   8   21.03    1.61
   1   5  -9   38.49    2.32
  -1  -5   9   40.01    2.24
  -1  -5  10    0.96    0.64
  -1  -5  10    0.69    0.59
  -1  -5  11   47.80    3.58
  -1  -5  11   62.42    3.05
  -1  -5  12    4.66    1.60
  -1  -5  13   11.02    2.22
  -1  -5  14   21.46    3.55
   2   6   6    9.94    1.97
   2   6   5    5.00    1.25
   2   6   4   22.50    2.47
   2   6   3   -0.01    0.45
   2   6   2   44.32    2.57
   2   6   2   43.20    2.59
   2   6   1    2.37    0.78
   2   6   1    5.21    1.08
   2   6   0   49.60    2.53
   2   6   0   49.09    2.52
  -2  -6   0   53.20    2.60
  -2  -6   0   52.37    2.37
   2   6  -1   74.06    3.03
   2   6  -1   78.47    3.07
  -2  -6   1   71.16    2.40
  -2  -6   1   77.50    2.98
  -2  -6   1   74.85    3.01
   2   6  -2   12.19    1.42
   2   6  -2    8.76    1.19
  -2  -6   2   15.33    1.28
  -2  -6   2    9.09    1.22
  -2  -6   2    9.10    1.20
   2   6  -3  143.11    4.24
   2   6  -3  136.93    3.98
   2   6  -3  136.62    2.97
  -2  -6   3  135.38    3.60
  -2  -6   3  145.74    4.13
  -2  -6   3  132.07    4.24
   2   6  -4   14.07    0.87
   2   6  -4   12.38    1.22
   2   6  -4   17.79    1.74
  -2  -6   4   13.56    1.20
  -2  -6   4   10.94    1.18
  -2  -6   4   14.48    1.63
   2   6  -5   68.02    2.84
   2   6  -5   67.64    2.35
   2   6  -5   67.32    2.18
  -2  -6   5   67.56    2.96
  -2  -6   5   68.72    2.55
  -2  -6   5   72.75    2.39
   2   6  -6   61.75    2.73
  -2  -6   6   61.09    2.38
  -2  -6   6   55.85    2.72
   2   6  -7   23.99    1.76
  -2  -6   7   27.18    1.93
   2   6  -8   53.56    2.73
  -2  -6   8   53.99    2.79
   2   6  -9    1.40    0.74
  -2  -6   9    0.43    0.53
  -2  -6  10   46.79    2.75
  -2  -6  11    9.29    1.60
  -2  -6  11    8.40    1.89
  -2  -6  12   13.17    1.91
  -2  -6  12    6.90    1.83
  -2  -6  13    8.20    2.12
   3   7   4    2.88    1.14
   3   7   3    5.53    1.31
   3   7   2   16.88    2.24
   3   7   1    0.47    0.56
   3   7   0   30.70    2.32
   3   7  -1   11.58    1.62
   3   7  -1   12.14    1.71
  -3  -7   1    6.75    1.21
   3   7  -2   17.88    1.93
   3   7  -2   13.45    1.68
  -3  -7   2   19.67    2.08
   3   7  -3   29.60    2.01
   3   7  -3   27.16    1.87
  -3  -7   3   28.65    1.67
  -3  -7   3   29.20    2.07
   3   7  -4    7.34    1.26
   3   7  -4    7.81    1.23
  -3  -7   4    7.97    1.41
  -3  -7   4    5.75    1.02
  -3  -7   4    6.54    0.96
   3   7  -5   53.68    2.73
   3   7  -5   58.98    1.89
  -3  -7   5   60.45    2.45
  -3  -7   5   60.91    3.04
  -3  -7   5   51.67    2.63
   3   7  -6    0.30    0.33
   3   7  -6    0.02    0.49
  -3  -7   6   -0.31    0.38
  -3  -7   6   -0.05    0.44
   3   7  -7   29.22    2.09
  -3  -7   7   29.03    2.19
   3   7  -8   24.02    2.35
  -3  -7   8   28.72    2.23
  -3  -7   9   10.45    1.67
  -3  -7  10   16.37    2.17
  -3  -7  11   -0.18    0.51
  -3  -7  12   10.50    1.82
  -3  -7  13    5.27    1.44
  -3  -7  13    3.76    1.44
   4   8   1    4.95    1.45
   4   8   0   19.16    2.55
   4   8  -1    2.62    1.11
   4   8  -2   28.35    2.74
  -4  -8   2   27.04    2.65
   4   8  -3   11.10    1.72
  -4  -8   3    8.36    1.57
   4   8  -4   24.73    2.47
  -4  -8   4   22.27    2.43
  -4  -8   5   34.08    2.54
  -4  -8   6    4.98    1.27
  -4  -8   7   34.37    2.60
  -4  -8   8    0.24    0.58
  -4  -8   9   34.04    3.30
  -4  -8  10    9.62    2.00
  -4  -8  11   17.25    2.59
  -5  -9   4   35.40    3.60
  -5  -9   5    7.32    1.71
  -5  -9   6   49.50    3.43
  -5  -9   7    8.35    1.76
  -9  -4   9    3.75    1.35
  -9  -4   8   14.99    2.50
  -9  -4   7    0.16    0.71
  -9  -4   6    3.06    1.15
  -9  -4   5    1.92    0.98
  -9  -4   4    1.16    0.84
  -9  -4   3   14.20    2.29
  -9  -4   2    0.22    0.74
  -9  -4   1   28.10    3.15
   9   4  -1   21.69    2.74
  -8  -3  11   14.41    2.18
  -8  -3  10   12.38    2.11
  -8  -3   9    1.42    0.82
  -8  -3   8   13.07    2.03
  -8  -3   7   -0.07    0.47
  -8  -3   6   36.61    2.66
  -8  -3   5    5.91    1.43
  -8  -3   4   34.81    2.57
  -8  -3   3   36.37    2.61
  -8  -3   2   21.06    2.44
  -8  -3   1   33.74    2.49
   8   3  -1   29.58    2.91
  -8  -3   0    0.75    0.72
   8   3   0   -0.34    0.64
  -8  -3  -1   30.53    2.84
   8   3   1   26.09    2.76
   8   3   2    5.67    1.38
   8   3   3   11.77    1.96
  -7  -2  12   11.16    2.45
  -7  -2  11   20.26    3.11
  -7  -2  10   11.15    1.83
  -7  -2   9   80.75    3.73
  -7  -2   8   -0.25    0.38
  -7  -2   7   97.77    4.04
  -7  -2   7   93.32    3.66
   7   2  -7  101.44    2.82
  -7  -2   6   21.56    2.23
   7   2  -6   20.47    0.98
  -7  -2   5   54.76    2.88
  -7  -2   4   43.19    1.93
  -7  -2   4   42.08    2.48
  -7  -2   3   38.31    2.35
  -7  -2   2   25.21    1.95
  -7  -2   1    0.75    0.56
   7   2  -1    0.80    0.60
  -7  -2   0   54.20    2.87
   7   2   0   55.20    2.93
  -7  -2  -1   26.06    2.42
   7   2   1   24.80    2.45
  -7  -2  -2   25.51    2.51
   7   2   2   22.55    2.38
  -7  -2  -3   39.16    2.49
   7   2   3   36.39    2.62
   7   2   4    1.93    0.96
   7   2   5   40.72    2.95
   7   2   6   -0.73    0.63
  -6  -1  13    5.11    2.05
  -6  -1  12   25.15    3.66
  -6  -1  11    1.02    0.97
  -6  -1  10   24.29    3.19
  -6  -1   9   10.23    2.06
  -6  -1   9   10.91    1.52
  -6  -1   8   28.92    1.84
  -6  -1   8   29.26    1.95
   6   1  -8   30.76    1.61
  -6  -1   7   11.57    1.60
  -6  -1   7   11.11    1.39
  -6  -1   7   12.19    1.56
   6   1  -7   11.20    1.10
  -6  -1   6   13.99    1.60
  -6  -1   6   16.27    1.74
  -6  -1   6   17.50    1.71
   6   1  -6   17.25    1.03
  -6  -1   5   32.74    1.98
  -6  -1   5   33.07    2.00
   6   1  -5   32.09    1.26
  -6  -1   4    0.80    0.53
  -6  -1   4    0.64    0.51
   6   1  -4    0.27    0.17
  -6  -1   3   22.52    1.18
  -6  -1   3   24.08    1.63
  -6  -1   3   22.96    1.63
  -6  -1   2   43.68    2.18
  -6  -1   2   39.25    2.13
  -6  -1   1   21.92    1.57
  -6  -1   1   22.02    1.60
   6   1  -1   22.63    1.61
   6   1  -1   20.36    1.55
  -6  -1   0   28.86    1.84
  -6  -1   0   26.22    1.71
   6   1   0   26.73    1.79
   6   1   0   27.97    1.79
  -6  -1  -1    6.46    1.10
  -6  -1  -1    9.85    1.33
   6   1   1    7.17    1.16
   6   1   1    7.10    1.18
  -6  -1  -2   38.01    2.62
  -6  -1  -2   38.37    2.22
   6   1   2   37.10    2.22
   6   1   2   39.04    2.23
  -6  -1  -3    0.53    0.51
   6   1   3    0.01    0.46
   6   1   3    0.95    0.56
  -6  -1  -4   30.72    2.04
   6   1   4   26.96    1.95
   6   1   4   29.70    2.11
   6   1   5    2.66    0.92
   6   1   6    0.50    0.79
   6   1   7    5.70    1.35
   6   1   8    1.32    0.91
  -5   0  13   10.39    2.62
  -5   0  12    2.34    1.39
  -5   0  11    0.25    0.82
  -5   0  10    9.25    1.99
   5   0 -10   10.28    1.63
   5   0 -10   11.22    1.30
  -5   0   9    1.55    0.93
  -5   0   9    0.16    0.55
   5   0  -9    0.15    0.43
   5   0  -9    0.49    0.40
  -5   0   8   10.19    1.42
  -5   0   8   13.56    2.09
  -5   0   8   12.83    1.44
   5   0  -8   10.48    1.33
   5   0  -8   14.08    1.30
  -5   0   7   29.19    1.66
  -5   0   7   28.06    2.24
  -5   0   7   31.18    1.94
  -5   0   7   29.26    1.71
   5   0  -7   26.55    1.54
   5   0  -7   26.23    1.40
  -5   0   6   27.85    1.61
  -5   0   6   29.06    1.81
  -5   0   6   32.07    1.73
   5   0  -6   30.42    1.39
   5   0  -6   32.38    1.73
  -5   0   5   92.30    3.26
  -5   0   5   90.07    2.82
  -5   0   5   90.72    3.00
  -5   0   5   91.55    3.05
   5   0  -5   89.10    2.43
   5   0  -5   95.44    2.89
   5   0  -5   87.40    2.44
   5   0  -5   87.59    2.39
  -5   0   4    1.73    0.58
  -5   0   4    0.29    0.39
  -5   0   4    0.21    0.22
  -5   0   4    0.84    0.43
   5   0  -4    0.51    0.24
   5   0  -4    0.52    0.23
   5   0  -4    0.36    0.27
   5   0  -4    0.52    0.25
   5   0  -4    0.40    0.18
  -5   0   3  164.87    3.62
  -5   0   3  161.95    4.28
  -5   0   3  153.41    4.20
   5   0  -3  162.78    2.89
   5   0  -3  161.67    3.63
   5   0  -3  168.09    3.15
   5   0  -3  161.91    3.12
   5   0  -3  163.46    2.91
  -5   0   2    0.60    0.40
  -5   0   2    0.51    0.21
  -5   0   2   -0.02    0.18
  -5   0   2    0.08    0.29
   5   0  -2   -0.02    0.30
   5   0  -2    0.18    0.17
  -5   0   1  163.06    4.34
  -5   0   1  171.11    3.38
  -5   0   1  164.61    4.28
  -5   0   1  166.02    3.18
   5   0  -1  169.09    2.82
   5   0  -1  157.02    4.31
   5   0  -1  165.37    3.32
  -5   0   0   15.82    1.20
  -5   0   0   15.00    1.11
  -5   0   0   15.33    0.71
  -5   0   0   15.71    0.76
   5   0   0   16.94    1.23
   5   0   0   14.76    0.68
   5   0   0   15.31    1.14
   5   0   0   15.19    0.75
  -5   0  -1   63.92    1.88
  -5   0  -1   67.46    1.98
  -5   0  -1   64.61    2.48
  -5   0  -1   65.02    2.54
   5   0   1   68.49    2.54
   5   0   1   68.04    1.94
   5   0   1   66.54    2.55
  -5   0  -2   44.16    2.08
  -5   0  -2   40.93    1.56
  -5   0  -2   44.61    2.06
   5   0   2   44.09    2.07
   5   0   2   40.34    2.01
  -5   0  -3    0.39    0.37
  -5   0  -3    0.56    0.28
  -5   0  -3    0.53    0.42
   5   0   3    0.45    0.41
   5   0   3    0.46    0.43
   5   0   3    0.51    0.37
  -5   0  -4   31.38    1.87
  -5   0  -4   32.70    1.88
   5   0   4   31.24    1.75
   5   0   4   33.30    1.97
   5   0   4   29.96    1.82
  -5   0  -5   10.53    1.32
  -5   0  -5   10.07    1.33
   5   0   5    9.63    1.32
   5   0   5    7.14    1.11
   5   0   5    8.56    1.28
   5   0   6   11.28    1.50
   5   0   6   10.48    1.38
   5   0   7   33.39    2.24
   5   0   8   14.16    1.75
  -4   1  11   68.21    4.70
  -4   1  10   10.64    2.35
  -4   1   9   73.21    4.36
  -4   1   9   78.06    3.06
  -4   1   9   76.00    3.39
   4  -1  -9   74.28    2.76
  -4   1   8   86.24    3.15
  -4   1   8   86.76    3.36
  -4   1   8   86.09    4.39
  -4   1   8   84.42    3.47
   4  -1  -8   87.87    2.76
  -4   1   7   36.96    1.96
  -4   1   7   36.65    1.88
  -4   1   7   35.75    2.58
  -4   1   7   39.25    2.17
   4  -1  -7   36.74    1.60
  -4   1   6  151.18    4.42
  -4   1   6  149.02    4.04
  -4   1   6  155.44    4.15
  -4   1   6  157.21    3.69
  -4   1   6  151.57    5.17
   4  -1  -6  150.67    3.62
   4  -1  -6  151.53    4.36
  -4   1   5    5.87    0.89
  -4   1   5    6.26    0.86
  -4   1   5    5.56    0.76
  -4   1   5    5.78    1.09
  -4   1   5    6.12    0.88
  -4   1   5    3.50    0.61
   4  -1  -5    5.70    0.81
   4  -1  -5    4.97    0.61
  -4   1   4  257.15    5.64
  -4   1   4  260.52    5.37
  -4   1   4  258.98    5.62
  -4   1   4  262.77    5.14
  -4   1   4  260.62    5.86
   4  -1  -4  260.23    5.11
   4  -1  -4  261.93    5.05
   4  -1  -4  260.82    5.63
  -4   1   3    1.31    0.37
  -4   1   3    1.20    0.45
  -4   1   3    1.24    0.38
  -4   1   3    1.59    0.47
  -4   1   3    1.45    0.28
   4  -1  -3    1.33    0.27
   4  -1  -3    2.20    0.48
   4  -1  -3    1.69    0.32
   4  -1  -3    1.14    0.37
  -4   1   2  151.84    3.61
  -4   1   2  150.73    3.71
  -4   1   2  154.16    3.42
   4  -1  -2  149.00    3.40
   4  -1  -2  152.33    2.90
   4  -1  -2  154.71    3.76
   4  -1  -2  151.28    2.89
   4  -1  -2  149.71    2.64
   4  -1  -2  146.51    3.59
  -4   1   1   50.44    1.29
  -4   1   1   51.30    1.85
  -4   1   1   52.28    1.59
  -4   1   1   50.16    1.80
   4  -1  -1   51.97    1.58
   4  -1  -1   52.57    1.87
   4  -1  -1   54.17    1.86
  -4   1   0   22.33    0.61
  -4   1   0   21.22    1.11
  -4   1   0   21.70    0.62
  -4   1   0   21.88    0.96
  -4   1   0   23.11    1.25
   4  -1   0   22.26    1.13
   4  -1   0   22.20    1.22
   4  -1   0   22.76    0.97
  -4   1  -1   99.41    2.48
  -4   1  -1   98.46    2.22
  -4   1  -1  100.60    2.94
  -4   1  -1   99.83    2.72
   4  -1   1  103.23    2.83
   4  -1   1  100.87    2.75
   4  -1   1   97.68    2.92
   4  -1   1  101.33    2.48
  -4   1  -2    0.25    0.22
  -4   1  -2    0.38    0.27
  -4   1  -2    0.66    0.27
  -4   1  -2    0.96    0.42
   4  -1   2    0.70    0.35
   4  -1   2    0.35    0.35
   4  -1   2    0.70    0.38
  -4   1  -3  167.68    4.02
  -4   1  -3  170.30    4.38
  -4   1  -3  165.80    4.11
   4  -1   3  170.38    4.20
   4  -1   3  172.10    4.01
   4  -1   3  171.46    4.41
  -4   1  -4   56.50    2.33
  -4   1  -4   59.44    2.24
  -4   1  -4   56.13    2.16
   4  -1   4   57.89    2.22
   4  -1   4   57.96    2.24
   4  -1   4   58.70    2.37
  -4   1  -5   79.49    2.91
  -4   1  -5   79.59    2.85
  -4   1  -5   80.73    2.86
   4  -1   5   82.51    2.96
   4  -1   5   81.01    2.80
   4  -1   5   75.60    2.86
  -4   1  -6  152.21    4.43
  -4   1  -6  160.33    4.54
   4  -1   6  161.47    4.47
   4  -1   6  152.04    4.45
   4  -1   6  156.15    4.69
  -4   1  -7   19.06    1.81
   4  -1   7   14.95    1.66
   4  -1   7   19.11    1.73
  -3   2  10   18.95    3.07
  -3   2   9   19.95    1.95
  -3   2   8   29.56    2.02
  -3   2   8   27.01    1.77
  -3   2   7   80.24    3.18
  -3   2   7   74.67    2.87
  -3   2   7   75.32    3.94
   3  -2  -7   72.42    2.32
  -3   2   6   15.71    1.53
  -3   2   6   16.26    2.15
  -3   2   6   15.84    1.49
  -3   2   6   13.54    1.40
   3  -2  -6   14.29    0.91
  -3   2   5   91.95    2.94
  -3   2   5   88.70    2.90
  -3   2   5   94.67    3.11
  -3   2   5   91.46    3.09
  -3   2   5   82.67    3.61
   3  -2  -5   86.26    3.02
   3  -2  -5   90.90    2.39
  -3   2   4    1.56    0.46
  -3   2   4    1.53    0.47
  -3   2   4    1.59    0.29
  -3   2   4    1.49    0.57
  -3   2   4    1.13    0.37
  -3   2   4    1.43    0.44
   3  -2  -4    0.87    0.38
   3  -2  -4    0.72    0.27
  -3   2   3   24.44    1.47
  -3   2   3   26.07    1.17
  -3   2   3   24.05    1.27
  -3   2   3   26.31    1.33
  -3   2   3   23.84    1.24
   3  -2  -3   27.43    1.37
   3  -2  -3   27.76    1.18
   3  -2  -3   26.30    1.02
   3  -2  -3   24.60    1.30
  -3   2   2   52.59    1.86
  -3   2   2   50.22    1.57
  -3   2   2   49.94    1.48
  -3   2   2   48.98    1.73
  -3   2   2   50.44    1.74
   3  -2  -2   47.27    1.36
   3  -2  -2   51.76    1.80
   3  -2  -2   45.87    1.69
   3  -2  -2   50.05    1.48
  -3   2   1   16.36    0.79
  -3   2   1   15.58    0.90
  -3   2   1   16.09    0.88
  -3   2   1   15.71    0.86
  -3   2   1   14.94    0.66
  -3   2   1   15.05    0.83
  -3   2   1   15.83    0.76
   3  -2  -1   16.07    0.62
   3  -2  -1   15.22    0.66
   3  -2  -1   15.94    0.89
   3  -2  -1   15.69    0.83
   3  -2  -1   14.70    0.84
  -3   2   0   33.11    0.95
  -3   2   0   32.46    1.22
  -3   2   0   31.98    1.23
  -3   2   0   31.40    1.14
  -3   2   0   32.88    0.84
   3  -2   0   30.97    1.12
   3  -2   0   32.83    1.31
   3  -2   0   31.50    1.21
   3  -2   0   33.54    0.96
  -3   2  -1  105.17    2.26
  -3   2  -1  103.15    2.32
  -3   2  -1  103.99    2.57
   3  -2   1  107.60    2.27
   3  -2   1  106.10    2.81
   3  -2   1  105.95    2.35
   3  -2   1  106.17    2.58
  -3   2  -2  122.14    2.59
  -3   2  -2  119.52    2.88
  -3   2  -2  121.35    2.69
   3  -2   2  122.49    2.92
   3  -2   2   96.89    2.47
   3  -2   2  120.53    3.19
  -3   2  -3   93.91    2.55
  -3   2  -3   92.25    2.62
  -3   2  -3   92.91    2.31
  -3   2  -3   99.53    2.57
   3  -2   3   90.51    2.85
   3  -2   3   97.94    2.37
   3  -2   3   91.89    2.35
  -3   2  -4   30.03    1.45
  -3   2  -4   29.76    1.25
  -3   2  -4   30.82    1.49
   3  -2   4   30.02    1.60
   3  -2   4   30.95    1.29
  -3   2  -5   60.52    2.35
  -3   2  -5   60.11    2.01
  -3   2  -5   56.05    2.24
   3  -2   5   61.56    1.99
   3  -2   5   58.12    2.38
  -3   2  -6    9.98    1.04
   3  -2   6    9.36    1.22
   3  -2   6   12.58    0.93
  -3   2  -7   32.44    1.69
   3  -2   7   30.78    1.86
   3  -2   7   32.97    1.62
  -3   2  -8   14.28    1.45
  -3   2  -8   12.90    1.58
  -2   3  10   13.96    1.75
  -2   3   9    1.91    0.79
  -2   3   8    5.91    1.09
  -2   3   7   26.09    1.76
  -2   3   7   26.88    1.94
  -2   3   6    0.07    0.34
  -2   3   6    1.12    0.53
  -2   3   5   34.65    1.81
  -2   3   5   38.60    1.99
   2  -3  -5   37.01    1.97
   2  -3  -5   35.27    1.34
  -2   3   4    5.53    0.84
  -2   3   4    6.49    0.93
  -2   3   4    5.15    0.80
   2  -3  -4    6.10    0.60
   2  -3  -4    6.21    0.89
  -2   3   3   87.67    2.73
  -2   3   3   81.89    1.70
  -2   3   3   86.69    2.71
  -2   3   3   85.86    2.66
   2  -3  -3   87.37    2.12
   2  -3  -3   86.21    2.74
  -2   3   2   37.74    1.11
  -2   3   2   36.59    1.56
  -2   3   2   39.81    1.57
  -2   3   2   40.45    1.60
   2  -3  -2   40.87    1.26
   2  -3  -2   37.36    1.53
   2  -3  -2   39.10    1.63
  -2   3   1   38.13    1.13
  -2   3   1   37.08    1.46
  -2   3   1   38.16    1.46
  -2   3   1   39.24    1.45
   2  -3  -1   39.05    1.38
   2  -3  -1   38.42    1.49
   2  -3  -1   37.37    1.42
   2  -3  -1   38.07    1.18
  -2   3   0  166.44    3.24
  -2   3   0  168.76    3.57
  -2   3   0  168.72    3.37
  -2   3   0  175.12    3.62
  -2   3   0  166.66    3.69
   2  -3   0  169.18    3.19
   2  -3   0  164.91    3.56
   2  -3   0  175.06    3.73
   2  -3   0  170.98    3.35
  -2   3  -1   77.10    2.11
  -2   3  -1   74.04    1.86
  -2   3  -1   74.48    1.59
  -2   3  -1   72.76    1.97
  -2   3  -1   75.03    1.65
   2  -3   1   76.17    2.08
   2  -3   1   76.58    1.54
   2  -3   1   72.25    2.07
   2  -3   1   73.32    1.57
   2  -3   1   74.46    2.00
  -2   3  -2   13.68    0.83
  -2   3  -2   13.65    0.37
  -2   3  -2   13.47    0.48
  -2   3  -2   15.56    0.86
  -2   3  -2   12.99    0.74
   2  -3   2   14.74    0.85
   2  -3   2   13.07    0.35
   2  -3   2   13.67    0.86
   2  -3   2   14.43    0.91
  -2   3  -3    0.70    0.29
  -2   3  -3    0.55    0.28
  -2   3  -3    0.59    0.11
   2  -3   3    0.63    0.36
   2  -3   3    0.46    0.28
   2  -3   3    0.55    0.28
   2  -3   3    0.16    0.23
  -2   3  -4   42.17    1.11
  -2   3  -4   40.43    1.14
  -2   3  -4   41.05    1.70
  -2   3  -4   41.68    1.67
   2  -3   4   42.29    1.85
   2  -3   4   39.52    1.71
  -2   3  -5   18.51    1.21
  -2   3  -5   15.37    0.76
  -2   3  -5   18.62    1.21
  -2   3  -5   17.24    0.85
   2  -3   5   16.66    1.18
   2  -3   5   17.90    0.71
   2  -3   5   18.32    1.40
  -2   3  -6    0.01    0.23
  -2   3  -6    0.23    0.23
  -2   3  -6    0.06    0.24
   2  -3   6   -0.11    0.30
   2  -3   6    0.19    0.43
   2  -3   6    0.02    0.17
  -2   3  -7   78.93    3.03
   2  -3   7   80.86    3.01
   2  -3   7   74.89    3.56
  -2   3  -8    7.75    1.20
   2  -3   8   12.10    1.51
  -2   3  -9   30.67    2.11
  -1   4  10   19.14    2.28
  -1   4   9    1.30    0.81
  -1   4   8   48.49    2.81
  -1   4   7    5.35    1.07
  -1   4   6   52.89    2.64
  -1   4   6   54.88    2.82
  -1   4   5   79.68    3.28
  -1   4   5   81.01    3.12
  -1   4   4   58.31    2.59
  -1   4   4   61.20    2.57
   1  -4  -4   64.10    2.57
  -1   4   3   84.89    2.91
  -1   4   3   82.51    2.81
  -1   4   3   80.98    2.94
   1  -4  -3   91.21    2.92
   1  -4  -3   86.73    2.18
  -1   4   2    2.09    0.56
  -1   4   2    1.13    0.37
  -1   4   2    2.55    0.61
   1  -4  -2    1.52    0.33
   1  -4  -2    0.89    0.38
  -1   4   1  113.37    3.18
  -1   4   1  103.26    2.97
  -1   4   1  106.44    2.90
  -1   4   1  108.87    2.18
   1  -4  -1  107.42    2.92
   1  -4  -1  109.47    2.52
  -1   4   0    0.57    0.27
  -1   4   0    0.85    0.32
  -1   4   0    0.22    0.17
  -1   4   0    0.26    0.27
   1  -4   0    0.09    0.20
   1  -4   0    0.29    0.20
   1  -4   0    0.30    0.24
  -1   4  -1  104.94    2.58
  -1   4  -1  106.79    2.36
  -1   4  -1  101.29    2.82
  -1   4  -1  105.02    2.67
   1  -4   1  103.05    2.64
   1  -4   1  105.01    2.38
   1  -4   1  106.11    2.42
   1  -4   1  102.67    2.65
  -1   4  -2   61.08    1.62
  -1   4  -2   59.71    1.88
  -1   4  -2   57.94    1.98
   1  -4   2   63.39    1.99
   1  -4   2   58.19    1.86
   1  -4   2   58.90    1.56
   1  -4   2   61.42    1.48
  -1   4  -3    9.88    0.75
  -1   4  -3    7.68    0.84
  -1   4  -3    9.67    0.40
   1  -4   3    9.69    0.42
   1  -4   3   10.23    0.78
   1  -4   3    9.11    0.51
   1  -4   3   12.15    1.10
  -1   4  -4  203.41    3.50
  -1   4  -4  206.01    4.63
  -1   4  -4  205.67    4.73
   1  -4   4  204.69    3.52
   1  -4   4  209.19    4.74
  -1   4  -5   23.87    0.80
  -1   4  -5   24.33    1.41
  -1   4  -5   20.58    1.26
   1  -4   5   20.41    1.28
   1  -4   5   22.78    0.78
  -1   4  -6  171.33    4.53
  -1   4  -6  171.41    3.50
  -1   4  -6  166.79    4.50
   1  -4   6  166.37    4.40
   1  -4   6  171.35    4.95
  -1   4  -7   11.37    1.31
  -1   4  -7   15.39    1.67
   1  -4   7   14.77    1.46
   1  -4   7   14.80    1.84
  -1   4  -8   61.64    2.75
   1  -4   8   60.96    3.30
   1  -4   8   57.72    2.53
  -1   4  -9   39.31    2.32
   1  -4   9   37.76    2.86
   1  -4   9   37.82    2.16
   1  -4  10    6.31    1.28
   1  -4  10    7.16    1.29
   1  -4  11   30.23    3.43
   1  -4  12    6.12    1.82
   0   5   9   33.91    3.20
   0   5   8   -0.13    0.63
   0   5   7   33.38    2.49
   0   5   6   14.95    1.93
   0   5   5   28.26    2.05
   0   5   4   28.02    1.91
   0   5   4   28.62    1.97
   0   5   3    0.45    0.44
   0   5   3    0.20    0.35
   0   5   3    0.15    0.33
   0  -5  -3    0.29    0.36
   0  -5  -3    0.39    0.37
   0   5   2   79.70    3.08
   0   5   2   77.65    2.98
   0   5   2   79.22    2.68
   0  -5  -2   83.75    2.77
   0  -5  -2   84.15    2.28
   0  -5  -2   82.29    2.99
   0   5   1   27.27    1.65
   0   5   1   28.28    1.61
   0   5   1   30.42    1.45
   0  -5  -1   26.77    1.52
   0  -5  -1   28.20    1.30
   0  -5  -1   28.74    1.45
   0  -5  -1   28.37    1.20
   0   5   0    6.72    0.98
   0   5   0    2.71    0.50
   0   5   0    6.07    0.34
   0   5   0    6.66    0.90
   0   5   0    5.50    0.33
   0  -5   0    6.69    0.80
   0  -5   0    5.42    0.76
   0  -5   0    5.89    0.63
   0  -5   0    6.30    0.74
   0   5  -1  106.72    3.31
   0   5  -1  109.88    2.49
   0   5  -1  113.03    3.13
   0  -5   1  111.15    2.75
   0  -5   1  109.41    3.04
   0  -5   1  116.35    2.91
   0  -5   1  118.87    3.15
   0   5  -2    4.90    0.80
   0   5  -2    8.48    0.87
   0  -5   2    7.69    0.80
   0  -5   2    4.50    0.58
   0  -5   2    4.51    0.57
   0  -5   2    5.49    0.83
   0   5  -3  132.81    3.07
   0   5  -3  138.66    3.16
   0   5  -3  136.43    3.33
   0   5  -3  138.76    3.76
   0  -5   3  134.69    3.32
   0  -5   3  138.27    3.16
   0  -5   3  137.49    3.13
   0  -5   3  136.74    3.72
   0   5  -4    1.24    0.30
   0   5  -4    1.45    0.40
   0   5  -4    0.80    0.40
   0   5  -4    0.93    0.26
   0  -5   4    0.98    0.35
   0  -5   4    0.87    0.29
   0  -5   4    0.58    0.27
   0  -5   4    0.76    0.40
   0   5  -5  185.83    4.48
   0   5  -5  187.09    3.76
   0   5  -5  191.32    3.86
   0   5  -5  187.75    4.79
   0  -5   5  177.73    4.72
   0  -5   5  182.01    3.80
   0   5  -6   10.90    0.69
   0   5  -6   10.89    1.28
   0   5  -6   14.10    1.32
   0  -5   6   11.04    0.72
   0  -5   6   12.64    1.43
   0   5  -7   50.21    2.40
   0  -5   7   51.85    2.35
   0   5  -8   68.06    2.95
   0  -5   8   65.85    2.82
   0   5  -9    4.62    0.97
   0  -5   9    5.82    1.25
   0  -5   9    7.92    1.28
   0  -5  10   19.56    1.99
   0  -5  10    8.39    1.26
   0  -5  11   11.34    1.56
   0  -5  11    8.71    1.96
   0  -5  12   15.63    2.71
   0  -5  13   19.09    3.09
   0  -5  14    3.19    1.55
   1   6   7    7.72    1.65
   1   6   6   -0.46    0.52
   1   6   5    5.25    1.25
   1   6   4   12.25    1.73
   1   6   3   -0.32    0.36
   1   6   2   24.29    2.21
   1   6   2   24.05    2.27
   1   6   1    1.10    0.55
   1   6   1    0.91    0.51
  -1  -6  -1    3.27    0.83
   1   6   0   31.54    1.95
   1   6   0   34.67    1.94
  -1  -6   0   33.93    1.50
  -1  -6   0   34.14    1.93
  -1  -6   0   33.46    1.72
   1   6  -1    3.11    0.66
   1   6  -1    3.62    0.82
  -1  -6   1    3.84    0.74
  -1  -6   1    3.47    0.73
  -1  -6   1    3.41    0.60
   1   6  -2   42.11    1.95
   1   6  -2   46.30    1.36
   1   6  -2   44.74    2.19
  -1  -6   2   41.66    1.95
  -1  -6   2   38.61    1.97
  -1  -6   2   45.73    1.76
   1   6  -3   41.87    2.10
   1   6  -3   45.46    1.67
   1   6  -3   43.00    1.86
  -1  -6   3   40.05    2.04
  -1  -6   3   40.12    1.57
  -1  -6   3   42.71    1.87
  -1  -6   3   44.72    1.75
   1   6  -4   21.29    1.16
   1   6  -4   15.54    1.54
   1   6  -4   21.32    1.20
  -1  -6   4   19.11    1.13
  -1  -6   4   16.73    1.65
  -1  -6   4   17.60    1.14
   1   6  -5   29.05    1.43
   1   6  -5   28.40    1.77
  -1  -6   5   26.86    1.34
  -1  -6   5   30.26    1.48
  -1  -6   5   31.49    1.88
   1   6  -6   10.94    1.40
   1   6  -6    6.58    0.89
  -1  -6   6    8.86    1.36
  -1  -6   6    5.75    0.80
   1   6  -7   19.77    1.90
   1   6  -7   19.20    2.07
  -1  -6   7   15.86    1.70
   1   6  -8   15.15    1.79
  -1  -6   8   12.23    1.59
   1   6  -9    8.09    1.33
  -1  -6   9    7.10    1.25
  -1  -6  10   27.87    2.07
  -1  -6  11    4.83    1.12
  -1  -6  11    6.40    1.64
  -1  -6  12   12.34    2.27
  -1  -6  12   20.13    2.30
  -1  -6  13   -0.04    0.68
  -1  -6  14    3.16    1.48
   2   7   5   31.71    3.25
   2   7   4    0.99    0.76
   2   7   3   47.97    3.07
   2   7   2    8.25    1.56
   2   7   1   29.34    2.65
   2   7   0   48.37    2.68
   2   7   0   50.29    2.73
   2   7  -1    0.71    0.56
   2   7  -1    1.17    0.59
  -2  -7   1    1.32    0.60
   2   7  -2   49.16    2.48
   2   7  -2   52.16    2.65
  -2  -7   2   49.98    2.51
  -2  -7   2   48.72    2.08
  -2  -7   2   46.28    2.43
   2   7  -3    6.87    1.18
   2   7  -3    6.79    1.06
  -2  -7   3    7.27    1.14
  -2  -7   3    7.14    0.99
  -2  -7   3    5.10    1.04
   2   7  -4    7.61    0.76
   2   7  -4    8.78    1.32
   2   7  -4    8.55    1.15
  -2  -7   4    5.70    0.91
  -2  -7   4    9.11    1.09
  -2  -7   4    7.82    1.33
   2   7  -5   51.41    2.64
   2   7  -5   57.70    2.00
  -2  -7   5   56.54    2.25
  -2  -7   5   56.93    2.84
   2   7  -6   19.69    2.02
   2   7  -6   18.92    1.19
  -2  -7   6   21.61    2.22
  -2  -7   6   18.74    1.29
   2   7  -7   62.56    3.00
  -2  -7   7   57.55    2.99
   2   7  -8   -0.10    0.49
  -2  -7   8    0.07    0.46
  -2  -7   9   61.91    3.24
  -2  -7  10   11.20    1.86
  -2  -7  11   24.34    2.61
  -2  -7  12   15.99    2.29
  -2  -7  12    7.22    1.75
  -2  -7  13   -0.01    0.66
  -2  -7  13    0.23    0.79
   3   8   3   27.38    3.08
   3   8   2   11.02    2.00
   3   8   1   34.70    3.24
   3   8   0    1.08    0.82
   3   8  -1   48.24    2.94
   3   8  -2   15.78    2.02
  -3  -8   2   10.51    1.59
   3   8  -3   32.94    2.25
  -3  -8   3   31.09    1.90
  -3  -8   3   31.29    2.26
   3   8  -4   63.59    3.03
  -3  -8   4   67.87    3.39
   3   8  -5    9.95    1.78
  -3  -8   5   16.99    2.16
  -3  -8   6   59.13    3.23
  -3  -8   7    1.66    0.86
  -3  -8   8   36.40    2.61
  -3  -8   9    6.32    1.48
  -3  -8  10   13.34    2.13
  -3  -8  11   19.01    2.54
  -3  -8  12    0.64    0.78
   4   9  -1   16.15    2.27
   4   9  -2   -0.19    0.75
   4   9  -3   33.69    3.14
  -4  -9   3   36.22    2.75
  -4  -9   4    0.28    0.63
  -4  -9   5   24.02    2.76
  -4  -9   6    1.50    0.89
  -4  -9   7    4.54    1.37
  -4  -9   8   10.90    2.08
  -4  -9   9    0.07    0.60
  -4  -9  10   10.20    2.04
  -9  -3  10    4.34    1.40
  -9  -3   9   42.27    4.00
  -9  -3   8   -0.32    0.53
  -9  -3   7   44.16    3.12
  -9  -3   6    7.99    1.72
  -9  -3   5   41.66    3.03
  -9  -3   4   26.89    2.91
  -9  -3   3   13.87    2.23
  -9  -3   2   38.74    2.90
  -9  -3   1    0.57    0.73
  -9  -3   0   21.54    2.67
   9   3   0   14.15    2.09
  -9  -3  -1   14.40    2.28
   9   3   1   12.78    2.18
  -8  -2  11    3.14    1.40
  -8  -2  10   26.11    2.84
  -8  -2   9    1.24    0.85
  -8  -2   8   35.44    2.54
  -8  -2   7   31.55    3.06
  -8  -2   7   31.84    2.25
  -8  -2   6   20.43    2.37
  -8  -2   5   33.60    2.42
  -8  -2   4    4.19    1.10
  -8  -2   3   33.56    2.35
  -8  -2   2    6.35    1.32
  -8  -2   1   18.46    2.26
   8   2  -1   21.42    2.36
  -8  -2   0   19.38    2.39
   8   2   0   15.88    2.10
  -8  -2  -1    5.57    1.26
   8   2   1    6.51    1.43
  -8  -2  -2   22.14    2.47
   8   2   2   15.34    2.01
   8   2   3    1.73    0.90
   8   2   4    4.23    1.30
  -7  -1  12    3.95    1.56
  -7  -1  11    9.76    2.38
  -7  -1  10   33.11    3.92
  -7  -1   9    0.35    0.53
  -7  -1   8   41.33    2.35
  -7  -1   8   40.29    2.42
  -7  -1   7    8.48    1.39
  -7  -1   7    6.92    1.25
   7   1  -7    8.22    0.93
  -7  -1   6   21.10    2.02
  -7  -1   6   17.52    1.97
   7   1  -6   20.16    1.06
  -7  -1   5   44.28    2.46
   7   1  -5   45.15    1.49
  -7  -1   4   16.90    1.86
  -7  -1   4   18.23    2.03
  -7  -1   3   66.02    3.00
  -7  -1   3   71.35    3.15
  -7  -1   2    3.13    0.79
  -7  -1   2    2.20    0.81
  -7  -1   1   66.37    3.06
   7   1  -1   72.13    3.19
  -7  -1   0   39.61    2.34
   7   1   0   37.65    2.32
   7   1   0   37.77    2.31
  -7  -1  -1   11.05    1.55
   7   1   1   12.86    1.72
   7   1   1    9.67    1.45
  -7  -1  -2   34.76    2.25
   7   1   2   35.14    2.31
   7   1   2   37.31    2.33
  -7  -1  -3    2.77    0.91
   7   1   3    2.69    0.89
   7   1   3    1.96    0.91
  -7  -1  -4   37.18    2.39
   7   1   4   37.86    2.44
   7   1   4   33.40    2.46
   7   1   5    6.38    1.33
   7   1   6   12.39    1.82
   7   1   7    9.46    1.77
  -6   0  13   16.74    3.28
  -6   0  12    8.48    2.16
  -6   0  11   40.99    3.61
  -6   0  10    0.60    0.79
  -6   0   9   91.51    4.77
  -6   0   9   93.81    3.67
  -6   0   8    4.10    0.91
  -6   0   8    5.23    1.00
  -6   0   8    6.51    1.48
   6   0  -8    6.03    0.87
  -6   0   7   65.48    3.05
  -6   0   7   72.94    2.93
  -6   0   7   68.06    2.83
   6   0  -7   70.63    2.40
  -6   0   6  101.85    3.50
  -6   0   6  100.15    3.72
  -6   0   6   96.38    3.42
   6   0  -6   96.11    2.75
   6   0  -6  103.83    3.31
  -6   0   5   21.98    1.66
  -6   0   5   21.47    1.31
  -6   0   5   26.97    1.68
  -6   0   5   25.67    1.62
   6   0  -5   23.40    1.38
   6   0  -5   25.09    1.15
  -6   0   4  169.83    4.79
  -6   0   4  162.92    4.63
  -6   0   4  166.17    3.93
   6   0  -4  164.57    3.96
   6   0  -4  164.66    3.36
  -6   0   3    3.73    0.79
  -6   0   3    3.19    0.72
  -6   0   3    4.32    0.57
   6   0  -3    4.45    0.60
  -6   0   2   96.67    3.33
  -6   0   2   97.49    2.46
  -6   0   2   94.75    2.36
  -6   0   2   88.89    3.18
   6   0  -2   96.94    2.40
   6   0  -2   94.31    3.29
  -6   0   1   47.82    2.32
  -6   0   1   52.07    1.74
  -6   0   1   50.51    2.29
   6   0  -1   52.47    1.78
   6   0  -1   45.81    2.27
  -6   0   0   25.68    1.62
  -6   0   0   26.85    1.72
   6   0   0   24.07    1.59
   6   0   0   22.89    1.59
  -6   0  -1  131.38    4.02
  -6   0  -1  122.05    4.02
   6   0   1  131.24    4.15
   6   0   1  123.86    4.00
  -6   0  -2    1.37    0.63
  -6   0  -2    0.56    0.43
   6   0   2    0.21    0.41
   6   0   2    1.50    0.60
  -6   0  -3  108.01    3.83
  -6   0  -3  110.96    3.87
   6   0   3  108.69    3.87
   6   0   3  114.79    3.93
  -6   0  -4   40.02    2.26
   6   0   4   37.48    2.20
   6   0   4   35.18    2.21
  -6   0  -5   51.64    2.61
   6   0   5   46.76    2.63
   6   0   5   48.49    2.56
   6   0   6   34.89    2.37
   6   0   7    5.60    1.25
   6   0   8   25.03    2.56
  -5   1  12   20.18    3.27
  -5   1  11    2.34    1.25
  -5   1  10   52.46    3.90
   5  -1 -10   55.42    2.42
  -5   1   9   32.62    2.88
  -5   1   9   29.73    1.97
   5  -1  -9   30.87    1.69
  -5   1   8    5.40    1.41
  -5   1   8    6.77    1.06
   5  -1  -8    3.91    0.74
  -5   1   7  108.29    4.60
  -5   1   7  105.93    3.87
  -5   1   7  113.81    3.65
   5  -1  -7  110.80    3.15
  -5   1   6    1.49    0.54
  -5   1   6    1.52    0.51
  -5   1   6    0.80    0.45
  -5   1   6    1.21    0.65
   5  -1  -6    1.15    0.49
   5  -1  -6    0.98    0.38
  -5   1   5   62.43    2.46
  -5   1   5   63.92    2.42
  -5   1   5   64.10    2.27
  -5   1   5   61.85    2.60
   5  -1  -5   61.31    2.42
   5  -1  -5   63.16    1.99
  -5   1   4   14.16    1.03
  -5   1   4   15.86    1.45
  -5   1   4   14.17    1.04
  -5   1   4   14.74    1.39
   5  -1  -4   15.12    0.78
   5  -1  -4   11.74    1.11
   5  -1  -4   13.85    0.80
  -5   1   3   41.56    1.86
  -5   1   3   43.53    1.86
  -5   1   3   44.54    1.71
  -5   1   3   40.29    1.89
   5  -1  -3   44.52    1.13
   5  -1  -3   44.36    1.33
   5  -1  -3   42.63    1.32
   5  -1  -3   43.33    1.12
   5  -1  -3   44.27    1.86
   5  -1  -3   42.88    1.69
  -5   1   2   96.21    2.94
  -5   1   2   95.97    2.56
  -5   1   2   96.94    2.95
   5  -1  -2   91.34    2.90
   5  -1  -2   93.03    2.52
  -5   1   1    7.82    0.73
  -5   1   1    8.17    1.06
  -5   1   1    5.97    0.50
  -5   1   1    8.48    1.00
   5  -1  -1    6.78    0.68
   5  -1  -1    8.75    1.05
  -5   1   0  106.18    3.23
  -5   1   0  100.84    1.96
  -5   1   0   99.43    1.92
  -5   1   0  104.34    2.59
  -5   1   0  103.08    3.02
   5  -1   0  103.35    3.20
   5  -1   0   99.96    2.54
  -5   1  -1   20.78    0.89
  -5   1  -1   19.48    1.02
  -5   1  -1   20.68    1.22
  -5   1  -1   19.66    1.35
   5  -1   1   21.55    1.05
   5  -1   1   18.96    1.31
   5  -1   1   23.21    1.37
  -5   1  -2   29.74    1.69
  -5   1  -2   31.72    1.59
  -5   1  -2   30.14    1.36
  -5   1  -2   29.44    1.29
   5  -1   2   28.36    1.66
   5  -1   2   29.28    1.58
  -5   1  -3   39.26    1.71
  -5   1  -3   38.15    1.85
  -5   1  -3   37.35    1.97
   5  -1   3   42.17    2.09
   5  -1   3   42.07    1.95
   5  -1   3   40.71    1.72
  -5   1  -4   21.29    1.34
  -5   1  -4   21.46    1.44
  -5   1  -4   21.09    1.51
   5  -1   4   24.19    1.47
   5  -1   4   20.17    1.43
   5  -1   4   24.02    1.62
  -5   1  -5   14.76    1.51
  -5   1  -5   12.73    1.48
   5  -1   5   12.98    1.46
   5  -1   5   13.10    1.43
   5  -1   5   12.86    1.53
  -5   1  -6    5.29    1.05
  -5   1  -6    5.10    0.95
   5  -1   6    6.16    1.07
   5  -1   6    4.94    1.04
   5  -1   7   14.71    1.66
  -4   2  10    4.86    1.13
  -4   2   9    0.63    0.65
  -4   2   9    0.96    0.59
  -4   2   9    1.32    0.86
  -4   2   8   10.17    1.34
  -4   2   8   12.44    2.24
  -4   2   8   12.72    1.60
   4  -2  -8   10.66    1.11
  -4   2   7    2.45    0.74
  -4   2   7    2.46    0.97
  -4   2   7    2.71    0.70
  -4   2   7    3.61    0.81
   4  -2  -7    3.79    0.65
  -4   2   6   31.16    1.87
  -4   2   6   31.45    2.29
  -4   2   6   27.37    1.64
  -4   2   6   30.83    1.73
   4  -2  -6   30.43    1.39
  -4   2   5   59.08    2.23
  -4   2   5   61.50    2.41
  -4   2   5   60.04    2.49
  -4   2   5   61.35    2.94
  -4   2   5   63.83    1.88
  -4   2   5   63.97    2.53
   4  -2  -5   60.47    1.95
   4  -2  -5   63.65    2.53
  -4   2   4    1.02    0.49
  -4   2   4    1.84    0.52
  -4   2   4    2.29    0.45
  -4   2   4    1.72    0.49
  -4   2   4    1.45    0.49
  -4   2   4    1.61    0.42
   4  -2  -4    1.39    0.35
   4  -2  -4    1.66    0.48
  -4   2   3   83.33    2.64
  -4   2   3   85.44    2.85
  -4   2   3   81.59    2.29
  -4   2   3   81.06    2.18
  -4   2   3   88.27    2.74
  -4   2   3   85.79    2.64
   4  -2  -3   84.27    2.21
   4  -2  -3   84.70    2.64
   4  -2  -3   84.05    2.30
   4  -2  -3   81.93    2.13
  -4   2   2   81.81    2.51
  -4   2   2   82.07    2.34
  -4   2   2   85.20    2.47
  -4   2   2   82.00    1.93
  -4   2   2   83.72    2.55
   4  -2  -2   81.71    1.95
   4  -2  -2   84.46    2.47
   4  -2  -2   84.20    2.52
   4  -2  -2   83.15    2.35
   4  -2  -2   83.79    1.94
  -4   2   1   46.39    1.14
  -4   2   1   44.00    1.62
  -4   2   1   45.60    1.67
  -4   2   1   47.88    1.73
  -4   2   1   46.08    1.73
   4  -2  -1   47.08    1.14
   4  -2  -1   46.01    1.02
   4  -2  -1   47.19    1.02
   4  -2  -1   49.13    1.75
   4  -2  -1   42.27    1.59
   4  -2  -1   47.67    1.70
  -4   2   0   56.95    1.23
  -4   2   0   60.06    2.09
  -4   2   0   57.12    1.82
  -4   2   0   57.01    1.23
  -4   2   0   57.65    1.32
  -4   2   0   60.56    1.86
   4  -2   0   56.98    1.82
   4  -2   0   60.24    1.34
   4  -2   0   60.00    2.06
   4  -2   0   58.72    1.85
  -4   2  -1    3.69    0.51
  -4   2  -1    4.04    0.44
  -4   2  -1    4.41    0.60
  -4   2  -1    3.30    0.39
   4  -2   1    3.96    0.71
   4  -2   1    3.75    0.55
   4  -2   1    3.51    0.50
  -4   2  -2   70.50    1.96
  -4   2  -2   73.09    2.22
  -4   2  -2   72.64    1.98
  -4   2  -2   68.40    2.05
   4  -2   2   73.09    2.13
   4  -2   2   69.58    2.49
   4  -2   2   73.32    2.24
  -4   2  -3    5.16    0.69
  -4   2  -3    6.30    0.72
  -4   2  -3    7.82    0.82
   4  -2   3    6.36    0.77
   4  -2   3    5.98    0.93
   4  -2   3    7.89    0.81
  -4   2  -4   10.58    1.13
  -4   2  -4   11.27    1.02
  -4   2  -4    9.15    0.99
   4  -2   4   10.18    1.01
   4  -2   4    8.87    1.17
  -4   2  -5   75.86    2.77
  -4   2  -5   74.30    2.70
  -4   2  -5   74.58    2.50
   4  -2   5   72.82    2.50
   4  -2   5   74.20    2.87
  -4   2  -6    0.94    0.47
  -4   2  -6    0.21    0.33
   4  -2   6    0.64    0.41
  -4   2  -7   36.07    2.14
  -4   2  -7   35.19    1.87
   4  -2   7   28.57    1.68
   4  -2   7   32.49    2.00
  -4   2  -8   -0.47    0.36
  -3   3  10   18.66    2.04
  -3   3   9   23.51    2.20
  -3   3   8   80.39    3.35
  -3   3   8   76.03    4.01
  -3   3   7    0.18    0.41
  -3   3   7    0.81    0.52
  -3   3   6   75.49    3.03
  -3   3   6   75.81    2.92
   3  -3  -6   72.68    2.29
  -3   3   5   54.57    2.34
  -3   3   5   56.48    2.35
   3  -3  -5   56.53    1.85
   3  -3  -5   55.31    2.48
  -3   3   4   29.54    1.59
  -3   3   4   27.84    1.58
  -3   3   4   30.00    0.96
  -3   3   4   25.87    1.56
  -3   3   4   26.06    1.45
   3  -3  -4   28.73    1.20
   3  -3  -4   28.66    1.62
  -3   3   3  190.36    3.71
  -3   3   3  191.38    4.41
  -3   3   3  190.83    4.64
  -3   3   3  190.72    4.55
  -3   3   3  186.76    4.54
   3  -3  -3  186.04    4.61
   3  -3  -3  188.23    3.88
  -3   3   2   41.27    1.53
  -3   3   2   42.14    1.70
  -3   3   2   38.98    1.33
  -3   3   2   41.92    1.65
  -3   3   2   41.47    1.71
   3  -3  -2   41.81    1.54
   3  -3  -2   38.00    1.29
   3  -3  -2   40.65    1.70
   3  -3  -2   41.36    1.63
  -3   3   1  250.41    5.22
  -3   3   1  243.86    4.85
  -3   3   1  250.33    4.99
  -3   3   1  248.24    5.15
   3  -3  -1  257.23    4.90
   3  -3  -1  244.90    4.95
   3  -3  -1  247.25    4.55
   3  -3  -1  250.17    4.87
   3  -3  -1  245.16    5.20
  -3   3   0  108.09    2.79
  -3   3   0  102.25    2.64
  -3   3   0  102.38    2.44
  -3   3   0  106.97    2.48
   3  -3   0  107.33    2.47
   3  -3   0  104.04    2.71
   3  -3   0  106.30    2.47
   3  -3   0  104.36    2.74
   3  -3   0  105.35    2.09
  -3   3  -1  448.53    8.15
  -3   3  -1  454.02    7.22
  -3   3  -1  448.22    7.77
  -3   3  -1  456.68    7.89
  -3   3  -1  459.47    7.53
   3  -3   1  409.07    7.43
   3  -3   1  455.77    7.79
   3  -3   1  441.81    8.14
  -3   3  -2  208.45    3.75
  -3   3  -2  207.21    4.23
  -3   3  -2  208.40    4.52
   3  -3   2  203.41    4.49
   3  -3   2  209.73    4.77
   3  -3   2  207.83    3.75
   3  -3   2  210.83    4.26
  -3   3  -3   37.09    1.48
  -3   3  -3   39.90    1.63
  -3   3  -3   39.49    1.13
   3  -3   3   40.74    1.66
   3  -3   3   39.84    1.15
   3  -3   3   41.43    1.83
  -3   3  -4  319.66    6.40
  -3   3  -4  313.01    5.62
  -3   3  -4  302.94    6.49
   3  -3   4  313.41    6.82
  -3   3  -5    0.83    0.39
  -3   3  -5    2.44    0.41
  -3   3  -5    1.84    0.52
   3  -3   5    3.01    0.75
   3  -3   5    1.93    0.39
  -3   3  -6  213.80    4.61
  -3   3  -6  220.52    5.45
   3  -3   6  213.14    5.54
   3  -3   6  217.03    4.50
  -3   3  -7    8.25    0.92
  -3   3  -7    9.28    1.31
   3  -3   7    9.26    1.29
  -3   3  -8   39.07    2.28
   3  -3   8   40.26    2.24
  -2   4  10    4.95    1.23
  -2   4   9   15.26    2.01
  -2   4   8    0.71    0.54
  -2   4   7   36.25    2.26
  -2   4   6    6.37    1.08
  -2   4   6    6.91    1.20
  -2   4   5   24.83    1.68
  -2   4   5   27.58    1.80
   2  -4  -5   22.79    1.49
  -2   4   4   89.17    3.11
  -2   4   4   92.96    3.22
   2  -4  -4   85.92    2.38
   2  -4  -4   90.83    3.19
  -2   4   3    3.77    0.70
  -2   4   3    3.22    0.66
  -2   4   3    2.60    0.64
   2  -4  -3    3.68    0.52
   2  -4  -3    2.62    0.65
  -2   4   2   84.66    1.93
  -2   4   2   79.93    2.67
  -2   4   2   90.49    2.80
  -2   4   2   88.35    2.76
   2  -4  -2   86.70    2.22
   2  -4  -2   87.79    2.76
  -2   4   1   37.17    1.59
  -2   4   1   33.95    1.55
  -2   4   1   39.19    1.61
  -2   4   1   35.75    1.18
   2  -4  -1   37.39    1.28
   2  -4  -1   38.30    1.63
   2  -4  -1   39.64    1.54
  -2   4   0   62.96    2.00
  -2   4   0   64.73    2.11
  -2   4   0   64.32    2.12
   2  -4   0   66.92    2.13
   2  -4   0   66.51    1.87
   2  -4   0   63.08    1.70
   2  -4   0   66.59    1.88
  -2   4  -1   65.90    2.07
  -2   4  -1   66.08    2.06
  -2   4  -1   66.57    1.89
   2  -4   1   61.86    1.59
   2  -4   1   62.16    2.04
   2  -4   1   61.09    1.58
   2  -4   1   63.40    1.94
  -2   4  -2   10.30    0.79
  -2   4  -2   11.09    0.63
  -2   4  -2    9.49    0.90
   2  -4   2   10.31    0.81
   2  -4   2   11.22    0.51
   2  -4   2   10.35    0.41
   2  -4   2    8.97    0.85
  -2   4  -3  203.64    4.55
  -2   4  -3  209.32    4.59
   2  -4   3  200.84    4.58
   2  -4   3  201.12    4.58
  -2   4  -4    1.28    0.41
  -2   4  -4    1.22    0.38
   2  -4   4    1.28    0.42
   2  -4   4    1.83    0.53
  -2   4  -5   84.68    1.82
  -2   4  -5   84.80    2.79
  -2   4  -5   84.28    1.76
  -2   4  -5   82.10    2.79
   2  -4   5   82.15    2.80
   2  -4   5   89.08    3.02
  -2   4  -6    8.52    0.61
  -2   4  -6   11.23    1.28
   2  -4   6   11.62    1.47
   2  -4   6   12.05    1.37
  -2   4  -7    7.29    1.08
   2  -4   7   16.12    2.00
   2  -4   7   11.84    1.39
  -2   4  -8   17.89    1.84
   2  -4   8   26.03    2.86
   2  -4   8   22.74    1.68
  -2   4  -9    1.32    0.63
   2  -4   9    0.79    0.68
   2  -4   9    0.54    0.55
   2  -4  10   14.44    1.78
  -1   5   9    1.55    0.88
  -1   5   8    6.60    1.35
  -1   5   7   15.70    1.92
  -1   5   6    0.59    0.57
  -1   5   5   54.95    2.74
  -1   5   5   53.63    2.80
  -1   5   4    2.86    0.75
  -1   5   4    4.79    1.03
  -1   5   3   14.69    1.40
  -1   5   3   16.59    1.63
  -1   5   3   14.88    1.56
   1  -5  -3   13.18    1.34
   1  -5  -3   13.38    0.88
  -1   5   2   56.31    2.24
  -1   5   2   53.73    2.31
  -1   5   2   54.12    2.39
   1  -5  -2   53.41    2.20
   1  -5  -2   57.51    1.81
  -1   5   1    7.03    0.88
  -1   5   1    6.45    0.98
  -1   5   1    5.34    0.84
  -1   5   1    5.61    0.36
   1  -5  -1    5.79    0.66
   1  -5  -1    6.23    0.82
   1  -5  -1    6.42    0.71
  -1   5   0  114.11    3.18
  -1   5   0  106.94    2.45
  -1   5   0  112.86    3.34
  -1   5   0  112.74    3.08
   1  -5   0  107.52    3.04
   1  -5   0  103.54    2.95
   1  -5   0  111.17    2.85
   1  -5   0  113.20    2.72
  -1   5  -1   22.22    1.33
  -1   5  -1   24.81    1.26
  -1   5  -1   23.57    1.20
   1  -5   1   22.39    1.09
   1  -5   1   22.36    1.20
   1  -5   1   23.43    1.22
   1  -5   1   21.81    1.02
  -1   5  -2   38.98    1.60
  -1   5  -2   43.20    1.83
  -1   5  -2   41.00    1.46
   1  -5   2   39.04    1.37
   1  -5   2   39.61    1.68
   1  -5   2   36.91    1.55
   1  -5   2   42.11    1.39
  -1   5  -3   82.07    2.06
  -1   5  -3   83.52    2.72
  -1   5  -3   82.76    2.50
   1  -5   3   80.82    2.49
   1  -5   3   80.04    1.90
   1  -5   3   81.68    2.06
   1  -5   3   84.42    2.65
  -1   5  -4    0.42    0.33
  -1   5  -4    0.37    0.16
  -1   5  -4    1.28    0.38
  -1   5  -4    0.96    0.18
   1  -5   4    0.68    0.37
   1  -5   4    0.17    0.25
   1  -5   4    0.74    0.20
  -1   5  -5   50.56    2.06
  -1   5  -5   48.86    2.14
  -1   5  -5   50.58    1.21
   1  -5   5   46.73    2.09
   1  -5   5   50.34    1.23
  -1   5  -6    8.03    1.14
  -1   5  -6    7.08    0.95
  -1   5  -6    6.26    0.43
   1  -5   6    6.72    0.45
   1  -5   6    5.96    0.93
  -1   5  -7   26.44    1.73
   1  -5   7   24.34    1.63
   1  -5   7   24.93    1.91
  -1   5  -8   50.58    2.55
   1  -5   8   52.80    3.01
   1  -5   8   50.69    2.44
  -1   5  -9   20.91    2.15
   1  -5   9   18.28    2.22
   1  -5   9   19.12    1.91
   1  -5  10   31.78    2.71
   1  -5  10   32.15    2.15
   1  -5  11   -0.35    0.43
   1  -5  11    0.44    0.56
   1  -5  12    8.90    2.03
   1  -5  13   -0.26    0.66
   0   6   8    5.70    1.35
   0   6   7   25.07    2.69
   0   6   6    0.93    0.67
   0   6   5   31.27    2.33
   0   6   4    3.40    0.94
   0   6   3   69.24    3.16
   0   6   3   72.79    3.30
   0   6   2   27.17    1.92
   0   6   2   28.40    1.88
   0   6   2   28.70    1.67
   0  -6  -2   31.54    1.92
   0  -6  -2   27.50    1.89
   0   6   1   40.10    2.21
   0   6   1   40.80    2.13
   0   6   1   36.63    1.75
   0  -6  -1   36.70    1.98
   0  -6  -1   36.34    1.55
   0  -6  -1   38.32    2.50
   0  -6  -1   39.32    1.84
   0   6   0  107.65    3.64
   0   6   0  105.57    3.45
   0  -6   0  111.19    2.92
   0  -6   0  109.02    3.12
   0  -6   0  106.97    3.14
   0  -6   0  100.69    3.32
   0   6  -1   14.79    1.51
   0   6  -1   16.06    1.47
   0  -6   1   13.94    0.99
   0  -6   1   14.70    1.12
   0  -6   1   15.34    1.14
   0  -6   1   15.81    0.99
   0   6  -2  123.78    3.43
   0   6  -2  117.94    3.75
   0  -6   2  124.92    3.25
   0  -6   2  123.39    3.61
   0  -6   2  127.37    3.40
   0  -6   2  125.31    3.16
   0   6  -3    2.82    0.52
   0   6  -3    4.11    0.63
   0   6  -3    3.06    0.72
   0   6  -3    2.05    0.46
   0  -6   3    4.61    0.83
   0  -6   3    2.32    0.47
   0  -6   3    3.37    0.57
   0  -6   3    4.05    0.61
   0   6  -4  135.25    3.55
   0   6  -4  137.03    4.03
   0   6  -4  133.23    3.16
   0   6  -4  132.24    3.19
   0  -6   4  133.76    3.21
   0  -6   4  126.25    3.89
   0  -6   4  133.32    3.23
   0  -6   4  129.81    3.49
   0   6  -5   80.05    3.01
   0   6  -5   78.22    2.19
   0   6  -5   79.41    2.67
   0  -6   5   77.79    2.19
   0  -6   5   79.16    2.99
   0   6  -6   21.08    1.39
   0   6  -6   18.41    1.73
   0  -6   6   22.39    1.60
   0   6  -7  130.60    4.26
   0  -6   7  122.82    4.07
   0   6  -8    0.17    0.46
   0  -6   8    0.36    0.45
   0   6  -9   27.09    2.47
   0  -6   9   21.87    2.14
   0  -6  10   16.05    1.87
   0  -6  10    9.30    1.32
   0  -6  11    7.36    1.31
   0  -6  11    7.74    1.82
   0  -6  12   13.67    2.55
   0  -6  12   15.69    2.02
   0  -6  13   -0.08    0.74
   0  -6  14   15.29    2.99
   1   7   6   28.84    2.97
   1   7   5   -0.01    0.70
   1   7   4   47.82    3.02
   1   7   3   31.42    2.36
   1   7   2   32.68    2.28
   1   7   1   90.99    3.70
   1   7   1   86.67    3.68
   1   7   0    7.28    1.19
   1   7   0    8.92    1.41
  -1  -7   0    9.95    1.40
  -1  -7   0    8.57    1.26
   1   7  -1  120.67    4.20
   1   7  -1  120.74    4.01
  -1  -7   1  123.72    3.46
  -1  -7   1  127.55    3.94
  -1  -7   1  115.18    3.93
   1   7  -2   25.10    1.63
   1   7  -2   24.51    0.89
   1   7  -2   24.36    1.77
  -1  -7   2   22.34    1.60
  -1  -7   2   26.33    1.68
  -1  -7   2   24.86    1.42
   1   7  -3  109.49    2.69
   1   7  -3  104.62    3.75
   1   7  -3  107.46    3.43
  -1  -7   3  106.15    3.44
  -1  -7   3  104.00    3.66
  -1  -7   3  104.39    3.12
   1   7  -4   46.92    2.40
   1   7  -4   44.08    1.98
  -1  -7   4   43.12    2.30
  -1  -7   4   45.80    2.01
  -1  -7   4   45.11    1.91
   1   7  -5   20.70    2.04
  -1  -7   5   16.01    1.80
  -1  -7   5   16.75    1.36
   1   7  -6   72.25    3.13
  -1  -7   6   70.46    3.12
   1   7  -7    0.86    0.59
  -1  -7   7    1.34    0.62
   1   7  -8   59.02    2.96
  -1  -7   8   51.89    2.80
  -1  -7   9   22.73    2.38
  -1  -7  10    8.05    1.44
  -1  -7  11   36.95    3.15
  -1  -7  11   44.13    2.79
  -1  -7  12    2.69    1.19
  -1  -7  12    2.77    1.06
  -1  -7  13   37.06    2.72
  -1  -7  13   25.43    3.25
   2   8   4    6.16    1.50
   2   8   3   -0.30    0.58
   2   8   2   18.75    2.32
   2   8   1    1.93    0.86
   2   8   0   11.31    1.67
   2   8  -1   23.11    2.28
   2   8  -2    3.42    0.97
  -2  -8   2    3.12    0.74
  -2  -8   2    2.98    0.85
   2   8  -3   23.49    2.26
   2   8  -3   22.99    2.11
  -2  -8   3   26.04    1.95
  -2  -8   3   17.56    2.24
  -2  -8   3   28.01    1.68
   2   8  -4    7.87    1.43
   2   8  -4    5.95    0.76
   2   8  -4    7.60    1.18
  -2  -8   4    5.48    1.15
  -2  -8   4    6.76    0.99
   2   8  -5   40.48    1.67
   2   8  -5   43.11    2.58
  -2  -8   5   41.36    2.54
   2   8  -6   23.21    2.37
  -2  -8   6   24.90    2.54
  -2  -8   7    1.12    0.67
  -2  -8   8   33.07    2.41
  -2  -8   9    3.02    1.10
  -2  -8  10   21.65    2.51
  -2  -8  11    2.84    1.04
  -2  -8  12   11.50    1.94
  -2  -8  13    1.48    1.12
  -2  -8  13    3.02    1.14
   3   9   1    0.08    0.77
   3   9   0   28.50    3.13
   3   9  -1    0.91    0.82
   3   9  -2   28.77    2.79
   3   9  -3   31.92    2.90
  -3  -9   3   27.26    2.77
  -3  -9   4    5.72    1.33
  -3  -9   5   53.20    3.18
  -3  -9   6    1.71    0.81
  -3  -9   7   35.08    2.68
  -3  -9   8    9.93    1.77
  -3  -9   9   20.01    2.67
  -3  -9  10   25.57    2.94
  -3  -9  11    2.16    0.99
 -10  -3   7    6.19    1.67
 -10  -3   6    8.09    1.90
 -10  -3   5    4.74    1.48
 -10  -3   4    0.04    0.64
 -10  -3   3   12.73    2.26
 -10  -3   2    4.88    1.42
  -9  -2  10   22.15    2.73
  -9  -2   9    3.89    1.26
  -9  -2   8   25.44    2.90
  -9  -2   7    0.89    0.80
  -9  -2   7    1.07    0.92
  -9  -2   6   21.43    2.64
  -9  -2   5   27.20    2.89
  -9  -2   4    7.62    1.57
  -9  -2   3   30.88    2.41
  -9  -2   2    0.72    0.73
  -9  -2   1   22.47    2.61
  -9  -2   0    3.62    1.14
  -9  -2  -1   12.17    2.00
   9   2   1   11.11    1.93
  -9  -2  -2   17.88    2.36
   9   2   2   15.86    2.23
   9   2   3    4.33    1.36
  -8  -1  12    2.33    1.47
  -8  -1  11   18.78    3.30
  -8  -1  10   -0.16    0.72
  -8  -1   9   34.74    2.49
  -8  -1   8   14.18    1.85
  -8  -1   8   15.61    2.03
  -8  -1   7   30.69    2.17
  -8  -1   7   30.88    2.27
   8   1  -7   28.11    1.32
  -8  -1   6   46.33    2.74
  -8  -1   6   45.98    2.61
  -8  -1   5    3.87    1.07
  -8  -1   4   60.54    3.10
  -8  -1   3    0.02    0.38
  -8  -1   2   50.88    2.86
  -8  -1   1   21.50    2.32
  -8  -1   0    7.88    1.46
   8   1   0    5.73    1.24
   8   1   0    7.72    1.44
  -8  -1  -1   62.12    3.25
   8   1   1   69.28    3.44
   8   1   1   61.65    3.30
  -8  -1  -2    1.04    0.73
   8   1   2   -0.37    0.52
   8   1   2    0.10    0.57
  -8  -1  -3   38.61    2.59
   8   1   3   30.63    2.88
   8   1   3   35.39    2.55
   8   1   4    7.19    1.51
   8   1   5   25.91    2.85
  -7   0  12   24.19    3.84
  -7   0  11    3.02    1.36
  -7   0  10    7.21    1.86
  -7   0   9   25.91    2.37
  -7   0   9   22.92    3.09
  -7   0   8    4.72    1.07
  -7   0   8    6.14    1.17
  -7   0   7   45.40    2.45
  -7   0   7   46.88    2.45
   7   0  -7   40.06    1.78
  -7   0   6    3.14    0.85
  -7   0   6    4.02    0.93
   7   0  -6    4.62    0.65
  -7   0   5   67.78    3.10
  -7   0   5   64.33    2.85
  -7   0   5   68.74    2.96
   7   0  -5   66.09    1.87
  -7   0   4    7.61    1.27
  -7   0   4    8.95    1.31
  -7   0   3   32.05    1.96
  -7   0   3   32.22    2.02
  -7   0   2   46.52    2.37
  -7   0   2   45.13    2.39
   7   0  -2   47.20    2.46
  -7   0   1    2.14    0.71
  -7   0   1    2.87    0.84
   7   0  -1    2.07    0.72
  -7   0   0   65.50    2.89
  -7   0   0   69.00    3.08
   7   0   0   65.76    3.03
  -7   0  -1    0.04    0.30
  -7   0  -1    0.61    0.51
   7   0   1    0.25    0.46
   7   0   1    0.00    0.45
  -7   0  -2   51.91    2.71
   7   0   2   51.00    2.72
   7   0   2   55.83    2.80
  -7   0  -3   15.98    1.89
   7   0   3   15.17    1.85
   7   0   3   12.97    1.65
  -7   0  -4   26.72    1.99
   7   0   4   24.33    2.35
   7   0   4   26.44    2.47
  -7   0  -5   14.94    2.10
   7   0   5   16.90    1.98
   7   0   5   17.62    2.30
   7   0   6    0.78    0.74
   7   0   7    5.33    1.29
  -6   1  12    8.03    2.37
  -6   1  11    0.49    0.87
  -6   1  10   31.54    3.83
  -6   1   9    1.11    0.62
  -6   1   9    1.05    0.91
  -6   1   8   18.35    1.81
  -6   1   8   19.12    2.63
   6  -1  -8   17.73    1.48
  -6   1   7   15.60    1.86
  -6   1   7   20.89    1.46
  -6   1   7   22.32    2.05
  -6   1   7   22.20    2.66
   6  -1  -7   19.01    1.21
  -6   1   6    0.48    0.44
  -6   1   6    1.04    0.56
  -6   1   6    0.29    0.43
   6  -1  -6    1.06    0.37
   6  -1  -6    1.03    0.50
  -6   1   5   28.44    1.78
  -6   1   5   29.22    1.64
  -6   1   5   31.31    1.75
  -6   1   5   32.45    1.94
   6  -1  -5   34.16    1.77
   6  -1  -5   33.45    1.38
  -6   1   4   23.31    1.49
  -6   1   4   22.09    1.56
  -6   1   4   19.14    1.42
  -6   1   4   20.89    1.28
   6  -1  -4   23.04    1.34
   6  -1  -4   20.31    0.96
  -6   1   3    6.65    0.79
  -6   1   3    7.58    1.07
   6  -1  -3    6.61    0.80
   6  -1  -3    7.54    0.42
   6  -1  -3    6.27    0.97
  -6   1   2   46.26    2.09
  -6   1   2   43.49    2.09
  -6   1   2   45.48    1.68
   6  -1  -2   44.49    1.67
   6  -1  -2   43.05    2.06
  -6   1   1   27.20    1.01
  -6   1   1   29.21    1.28
  -6   1   1   27.34    1.65
  -6   1   1   31.61    1.71
   6  -1  -1   29.35    1.28
   6  -1  -1   28.67    1.69
  -6   1   0   41.48    2.10
  -6   1   0   44.14    2.03
  -6   1   0   41.88    1.31
  -6   1   0   44.01    1.62
   6  -1   0   45.42    1.61
   6  -1   0   44.10    2.16
  -6   1  -1    9.55    1.13
  -6   1  -1    8.23    0.84
  -6   1  -1    9.87    1.30
  -6   1  -1    8.64    0.59
   6  -1   1    7.53    0.79
   6  -1   1    9.32    1.25
  -6   1  -2   35.39    2.02
  -6   1  -2   35.83    1.86
  -6   1  -2   32.38    1.51
   6  -1   2   36.04    2.06
   6  -1   2   35.53    1.96
  -6   1  -3   15.78    1.74
  -6   1  -3   14.95    1.53
   6  -1   3   15.07    1.56
   6  -1   3   13.93    1.62
  -6   1  -4   16.04    1.61
  -6   1  -4   17.16    1.87
   6  -1   4   14.82    1.76
   6  -1   4   17.11    1.69
  -6   1  -5   25.57    1.87
  -6   1  -5   26.28    1.82
   6  -1   5   28.07    1.88
   6  -1   5   26.05    1.91
  -6   1  -6    4.69    1.05
   6  -1   6    3.25    0.97
   6  -1   6    2.36    0.83
   6  -1   7   28.63    2.11
  -5   2  10   13.33    2.51
  -5   2  10   11.49    1.62
  -5   2   9   10.75    1.47
  -5   2   9    9.44    2.09
  -5   2   9    9.88    1.50
   5  -2  -9   12.93    1.34
  -5   2   8   23.14    1.73
  -5   2   8   26.11    1.82
  -5   2   8   27.52    3.18
   5  -2  -8   26.09    1.51
  -5   2   7    0.45    0.59
  -5   2   7    0.19    0.45
  -5   2   7    0.55    0.45
  -5   2   7   -0.10    0.27
   5  -2  -7   -0.36    0.24
  -5   2   6   52.72    2.96
  -5   2   6   51.75    2.19
  -5   2   6   53.00    2.39
  -5   2   6   55.32    2.59
   5  -2  -6   53.52    1.95
  -5   2   5   27.38    1.40
  -5   2   5   24.22    1.56
  -5   2   5   26.84    1.71
  -5   2   5   25.49    1.95
  -5   2   5   29.18    1.98
   5  -2  -5   28.51    1.30
   5  -2  -5   28.75    1.66
  -5   2   4  101.73    3.36
  -5   2   4  103.37    2.73
  -5   2   4  106.84    3.33
  -5   2   4  101.73    2.91
  -5   2   4  107.26    3.60
  -5   2   4  109.34    3.30
   5  -2  -4  100.83    3.21
   5  -2  -4  105.19    2.68
   5  -2  -4  103.95    2.95
   5  -2  -4  110.27    2.74
  -5   2   3  171.20    4.21
  -5   2   3  173.30    3.45
  -5   2   3  167.76    4.06
  -5   2   3  163.28    4.32
  -5   2   3  168.82    4.37
   5  -2  -3  166.51    3.39
   5  -2  -3  165.26    3.47
   5  -2  -3  160.55    4.12
   5  -2  -3  167.39    4.05
  -5   2   2   41.04    1.75
  -5   2   2   40.78    1.81
  -5   2   2   41.82    1.70
  -5   2   2   40.39    1.06
  -5   2   2   40.38    1.80
   5  -2  -2   41.11    1.13
   5  -2  -2   39.87    1.04
   5  -2  -2   40.06    1.12
   5  -2  -2   39.64    1.72
   5  -2  -2   41.41    1.68
  -5   2   1  173.55    4.00
  -5   2   1  165.03    4.10
  -5   2   1  168.75    4.27
   5  -2  -1  171.76    3.97
   5  -2  -1  177.36    4.31
  -5   2   0   12.89    0.50
  -5   2   0   13.92    0.91
  -5   2   0   12.04    1.21
  -5   2   0   13.49    0.49
  -5   2   0   11.99    1.09
  -5   2   0   13.12    0.49
   5  -2   0   13.02    1.25
   5  -2   0   13.14    0.88
  -5   2  -1   79.76    2.82
  -5   2  -1   78.77    1.90
  -5   2  -1   80.67    1.93
  -5   2  -1   82.97    2.52
  -5   2  -1   81.99    2.43
   5  -2   1   82.18    2.43
   5  -2   1   84.00    2.86
  -5   2  -2   68.78    2.24
  -5   2  -2   63.63    1.89
  -5   2  -2   66.92    2.21
  -5   2  -2   62.70    2.56
  -5   2  -2   66.88    1.95
   5  -2   2   61.73    2.15
   5  -2   2   61.64    2.52
  -5   2  -3   69.29    2.77
  -5   2  -3   68.73    2.35
  -5   2  -3   65.72    2.34
  -5   2  -3   71.72    2.24
   5  -2   3   64.11    2.40
   5  -2   3   66.53    2.71
  -5   2  -4  102.51    3.14
  -5   2  -4  103.01    3.12
  -5   2  -4  104.93    3.61
  -5   2  -4  100.29    3.21
   5  -2   4   99.90    3.16
   5  -2   4  113.01    3.71
  -5   2  -5   13.42    1.61
  -5   2  -5   13.27    1.33
  -5   2  -5   12.38    1.33
   5  -2   5   16.59    1.80
   5  -2   5   15.34    1.44
  -5   2  -6  125.60    4.04
  -5   2  -6  118.71    3.76
  -5   2  -6  121.76    4.15
   5  -2   6  120.22    4.13
   5  -2   6  120.94    3.79
  -5   2  -7    0.23    0.37
  -5   2  -7   -0.06    0.38
  -5   2  -7   -0.02    0.52
   5  -2   7    0.02    0.50
   5  -2   7    0.61    0.59
  -4   3  10    0.83    0.71
  -4   3   9   23.95    2.22
  -4   3   8   17.82    1.90
  -4   3   8   18.23    2.06
  -4   3   7   47.98    2.50
  -4   3   7   50.80    2.48
   4  -3  -7   51.25    2.01
  -4   3   6   69.04    3.53
  -4   3   6   64.42    2.89
  -4   3   6   63.75    2.72
  -4   3   6   67.67    2.78
   4  -3  -6   68.51    2.25
  -4   3   5   28.36    1.69
  -4   3   5   31.70    1.83
  -4   3   5   29.51    1.63
  -4   3   5   31.81    2.19
   4  -3  -5   30.07    1.35
  -4   3   4   45.16    2.08
  -4   3   4   48.07    2.11
  -4   3   4   51.41    2.55
  -4   3   4   46.55    1.91
  -4   3   4   47.07    1.47
  -4   3   4   42.59    2.04
   4  -3  -4   49.21    1.67
   4  -3  -4   46.85    1.48
   4  -3  -4   47.27    2.14
  -4   3   3    0.68    0.30
  -4   3   3    0.45    0.33
  -4   3   3    1.02    0.31
  -4   3   3    0.52    0.36
  -4   3   3    0.29    0.27
  -4   3   3    0.57    0.39
   4  -3  -3    0.36    0.31
   4  -3  -3    0.75    0.28
   4  -3  -3    0.69    0.26
  -4   3   2   60.47    2.19
  -4   3   2   61.96    2.14
  -4   3   2   58.55    2.13
  -4   3   2   60.33    1.90
  -4   3   2   61.13    1.85
  -4   3   2   59.66    2.17
   4  -3  -2   62.29    2.23
   4  -3  -2   58.53    2.12
   4  -3  -2   60.83    1.88
   4  -3  -2   59.42    1.83
   4  -3  -2   58.60    1.68
  -4   3   1    4.69    0.68
  -4   3   1    4.63    0.64
  -4   3   1    4.31    0.51
  -4   3   1    4.51    0.67
  -4   3   1    3.83    0.63
  -4   3   1    4.61    0.58
   4  -3  -1    5.00    0.66
   4  -3  -1    6.14    0.77
   4  -3  -1    4.72    0.44
   4  -3  -1    3.92    0.49
   4  -3  -1    4.54    0.66
  -4   3   0   60.98    2.04
  -4   3   0   60.06    2.01
  -4   3   0   60.05    1.62
  -4   3   0   57.20    1.82
   4  -3   0   59.52    1.62
   4  -3   0   60.01    2.02
   4  -3   0   58.33    2.07
   4  -3   0   58.71    1.81
  -4   3  -1   81.16    2.04
  -4   3  -1   80.32    1.51
  -4   3  -1   82.26    2.46
  -4   3  -1   81.87    2.12
  -4   3  -1   76.82    2.29
   4  -3   1   76.93    2.59
   4  -3   1   80.51    2.10
   4  -3   1   81.61    2.44
   4  -3   1   87.32    2.10
  -4   3  -2   17.65    1.07
  -4   3  -2   19.12    0.88
  -4   3  -2   20.31    0.98
   4  -3   2   18.00    0.95
   4  -3   2   17.58    1.24
   4  -3   2   16.52    1.05
  -4   3  -3  164.81    3.49
  -4   3  -3  166.52    4.09
  -4   3  -3  162.24    3.78
   4  -3   3  166.06    4.10
   4  -3   3  158.78    4.40
  -4   3  -4    0.39    0.26
  -4   3  -4    0.54    0.30
  -4   3  -4    0.66    0.26
   4  -3   4    0.57    0.48
  -4   3  -5   42.22    1.63
  -4   3  -5   42.98    2.03
  -4   3  -5   44.27    1.97
   4  -3   5   42.68    2.21
   4  -3   5   45.62    1.74
  -4   3  -6   11.60    1.09
  -4   3  -6   11.66    1.35
   4  -3   6   10.66    1.40
   4  -3   6   10.84    1.03
  -4   3  -7    7.20    1.12
   4  -3   7    6.96    1.20
  -4   3  -8   19.74    2.03
   4  -3   8   24.34    2.27
  -3   4  10    7.47    1.44
  -3   4   9   24.29    2.46
  -3   4   8    1.37    0.63
  -3   4   7   26.09    1.92
  -3   4   7   28.85    2.10
  -3   4   6    0.37    0.43
  -3   4   6    0.25    0.44
   3  -4  -6    0.24    0.32
  -3   4   5   10.60    1.30
  -3   4   5   10.78    1.42
   3  -4  -5   10.48    0.94
  -3   4   4    9.99    1.21
  -3   4   4   13.85    1.42
   3  -4  -4   11.63    0.82
   3  -4  -4   13.47    1.44
  -3   4   3   14.91    1.38
  -3   4   3   11.48    0.63
  -3   4   3   11.24    1.20
  -3   4   3   11.97    1.23
   3  -4  -3   10.30    1.11
   3  -4  -3   11.14    0.76
  -3   4   2   49.54    1.93
  -3   4   2   46.75    1.97
  -3   4   2   48.69    2.02
   3  -4  -2   46.53    1.98
   3  -4  -2   50.07    1.59
  -3   4   1   10.69    1.01
  -3   4   1    9.58    1.02
  -3   4   1   13.23    1.16
  -3   4   1   10.03    0.93
   3  -4  -1    9.18    0.95
   3  -4  -1   10.34    0.93
   3  -4  -1   10.44    0.75
   3  -4  -1   10.48    0.66
  -3   4   0   72.58    2.03
  -3   4   0   76.26    2.24
  -3   4   0   74.60    2.28
  -3   4   0   72.74    2.37
   3  -4   0   72.25    2.23
   3  -4   0   74.22    1.84
   3  -4   0   76.07    2.04
   3  -4   0   71.70    2.34
   3  -4   0   74.17    2.43
  -3   4  -1    2.95    0.52
  -3   4  -1    1.62    0.30
  -3   4  -1    1.99    0.44
  -3   4  -1    1.93    0.46
   3  -4   1    1.77    0.26
   3  -4   1    2.53    0.53
   3  -4   1    2.63    0.59
   3  -4   1    2.01    0.46
   3  -4   1    1.79    0.33
  -3   4  -2   12.28    0.52
  -3   4  -2   13.55    0.77
  -3   4  -2   12.70    0.85
  -3   4  -2   12.56    0.91
   3  -4   2   14.60    1.05
   3  -4   2   14.14    0.96
   3  -4   2   13.50    0.52
  -3   4  -3    1.24    0.38
  -3   4  -3    1.74    0.36
  -3   4  -3    1.70    0.19
  -3   4  -3    1.98    0.47
   3  -4   3    1.47    0.54
   3  -4   3    1.17    0.40
   3  -4   3    2.34    0.45
   3  -4   3    2.26    0.20
  -3   4  -4    4.75    0.71
  -3   4  -4    6.29    0.58
  -3   4  -4    5.08    0.77
  -3   4  -4    4.86    0.30
   3  -4   4    5.83    0.83
   3  -4   4    3.93    0.82
   3  -4   4    5.45    0.79
  -3   4  -5   18.87    1.30
  -3   4  -5   17.66    1.21
  -3   4  -5   17.26    0.72
   3  -4   5   17.97    1.36
   3  -4   5   17.55    1.36
  -3   4  -6    0.38    0.21
  -3   4  -6    0.09    0.28
  -3   4  -6    0.30    0.19
   3  -4   6    0.61    0.54
   3  -4   6    0.39    0.40
  -3   4  -7   15.57    1.64
   3  -4   7   13.03    1.60
   3  -4   7   15.49    1.94
  -3   4  -8   31.28    2.04
   3  -4   8   31.67    2.09
   3  -4   9    8.73    1.47
  -2   5  10   18.23    2.32
  -2   5   9    2.21    1.00
  -2   5   8   31.73    2.38
  -2   5   7   14.39    1.81
  -2   5   6    1.42    0.65
  -2   5   5  140.81    4.69
  -2   5   5  145.11    4.62
  -2   5   4    4.64    0.93
  -2   5   4    5.32    0.96
   2  -5  -4    5.18    0.69
  -2   5   3  178.02    4.94
  -2   5   3  171.37    4.83
   2  -5  -3  181.92    4.01
   2  -5  -3  172.21    4.75
  -2   5   2   75.10    2.75
  -2   5   2   75.97    2.73
  -2   5   2   76.11    2.80
  -2   5   2   75.56    1.75
   2  -5  -2   81.04    2.27
   2  -5  -2   78.45    2.76
  -2   5   1  100.90    3.08
  -2   5   1  100.83    3.19
  -2   5   1  104.04    3.12
  -2   5   1  102.71    2.37
   2  -5  -1  104.22    2.61
   2  -5  -1   98.69    2.51
   2  -5  -1  102.72    3.12
  -2   5   0  164.21    4.15
  -2   5   0  173.19    4.35
  -2   5   0  173.10    4.13
   2  -5   0  173.66    3.67
   2  -5   0  174.43    3.93
   2  -5   0  170.88    4.21
   2  -5   0  170.71    3.82
  -2   5  -1   58.60    2.16
  -2   5  -1   54.78    2.05
  -2   5  -1   57.78    1.92
   2  -5   1   56.85    2.06
   2  -5   1   60.23    2.00
   2  -5   1   54.59    1.65
  -2   5  -2  141.81    3.68
  -2   5  -2  150.38    3.83
  -2   5  -2  144.34    3.28
   2  -5   2  145.47    3.70
   2  -5   2  146.35    3.69
   2  -5   2  147.43    2.92
   2  -5   2  145.60    2.90
   2  -5   2  147.57    3.06
  -2   5  -3    8.83    0.94
  -2   5  -3   10.68    1.10
  -2   5  -3    8.70    0.57
   2  -5   3    9.03    0.35
   2  -5   3    7.86    1.00
   2  -5   3    8.59    0.35
   2  -5   3   10.18    0.53
   2  -5   3    9.56    0.97
  -2   5  -4   86.61    2.84
  -2   5  -4   86.77    2.79
   2  -5   4   89.47    2.84
   2  -5   4   86.14    2.84
  -2   5  -5  102.21    3.25
  -2   5  -5  108.36    3.35
   2  -5   5  107.79    3.37
  -2   5  -6   37.67    1.95
   2  -5   6   35.31    1.89
   2  -5   6   33.60    1.96
  -2   5  -7   96.00    3.45
   2  -5   7   88.20    3.28
   2  -5   7   91.61    3.70
  -2   5  -8    6.08    1.15
   2  -5   8    4.67    1.22
   2  -5   8    3.15    0.84
  -2   5  -9   74.82    3.34
   2  -5   9   75.47    3.26
   2  -5   9   73.41    3.90
   2  -5  10    6.93    1.27
   2  -5  10    2.91    0.93
   2  -5  11   22.53    3.18
  -1   6   8   22.29    2.54
  -1   6   7   -0.24    0.55
  -1   6   6   58.85    3.22
  -1   6   5   -0.46    0.35
  -1   6   4   42.93    2.58
  -1   6   4   44.15    2.49
  -1   6   3   14.31    1.64
  -1   6   3   13.53    1.63
   1  -6  -3   14.25    1.64
  -1   6   2   70.76    2.99
  -1   6   2   73.95    2.76
  -1   6   2   67.46    2.86
   1  -6  -2   72.59    2.79
   1  -6  -2   69.44    2.85
   1  -6  -2   70.78    2.30
  -1   6   1   66.55    2.79
  -1   6   1   62.22    2.41
  -1   6   1   64.44    2.60
   1  -6  -1   60.56    2.05
   1  -6  -1   63.07    2.51
   1  -6  -1   61.84    2.42
   1  -6  -1   61.08    2.05
  -1   6   0   19.31    1.44
  -1   6   0   20.82    1.30
  -1   6   0   21.38    1.36
   1  -6   0   18.18    1.22
   1  -6   0   21.09    1.31
   1  -6   0   20.34    1.19
   1  -6   0   18.90    1.07
  -1   6  -1   57.38    2.16
  -1   6  -1   58.87    2.23
  -1   6  -1   65.87    2.60
   1  -6   1   60.83    2.21
   1  -6   1   59.67    2.19
   1  -6   1   60.87    2.12
   1  -6   1   60.12    1.96
  -1   6  -2   19.48    1.13
  -1   6  -2   20.05    1.22
  -1   6  -2   19.93    1.38
   1  -6   2   20.50    1.29
   1  -6   2   21.06    1.08
   1  -6   2   18.72    1.05
   1  -6   2   20.12    1.21
  -1   6  -3   72.00    2.44
  -1   6  -3   71.61    2.14
  -1   6  -3   69.57    2.68
   1  -6   3   73.45    2.47
   1  -6   3   67.83    1.97
   1  -6   3   73.18    2.62
   1  -6   3   70.17    2.07
  -1   6  -4   73.27    1.97
  -1   6  -4   76.49    2.82
  -1   6  -4   74.29    2.55
   1  -6   4   69.66    2.49
   1  -6   4   70.42    1.83
   1  -6   4   70.78    1.98
   1  -6   4   71.76    2.66
  -1   6  -5   56.94    2.49
  -1   6  -5   62.48    2.41
   1  -6   5   65.30    1.60
   1  -6   5   61.29    2.41
   1  -6   5   66.22    2.63
  -1   6  -6   76.80    3.02
   1  -6   6   76.99    2.98
  -1   6  -7   -0.17    0.29
   1  -6   7   -0.28    0.33
  -1   6  -8   63.52    2.95
   1  -6   8   61.98    2.86
  -1   6  -9    3.15    0.88
   1  -6   9    3.02    0.86
   1  -6   9    4.84    1.24
   1  -6  10    4.36    1.07
   1  -6  10    7.17    1.30
   1  -6  11   12.80    1.74
   1  -6  11    9.11    1.88
   1  -6  12    2.25    1.22
   1  -6  12    2.24    1.22
   1  -6  13   20.21    3.04
   0   7   7   23.36    2.92
   0   7   6    4.01    1.14
   0   7   5   15.96    2.08
   0   7   4   18.81    2.19
   0   7   3    1.01    0.70
   0   7   2   19.27    2.04
   0   7   1    9.39    1.37
   0   7   1    7.92    1.36
   0  -7  -1    6.50    1.13
   0   7   0    5.73    1.08
   0   7   0    6.58    1.17
   0  -7   0    6.75    1.02
   0  -7   0    5.02    0.95
   0  -7   0    4.94    0.76
   0   7  -1   22.85    0.87
   0   7  -1   29.98    1.76
   0   7  -1   24.05    1.75
   0  -7   1   21.94    1.30
   0  -7   1   22.74    1.52
   0  -7   1   22.21    1.48
   0   7  -2    2.06    0.70
   0   7  -2    2.60    0.71
   0   7  -2    3.54    0.74
   0  -7   2    2.86    0.66
   0  -7   2    2.32    0.68
   0  -7   2    3.02    0.58
   0   7  -3   67.58    2.91
   0   7  -3   69.71    2.48
   0  -7   3   69.17    2.77
   0  -7   3   68.44    2.43
   0  -7   3   67.84    2.31
   0  -7   3   66.71    2.38
   0   7  -4    0.15    0.26
   0   7  -4    0.03    0.23
   0   7  -4   -0.35    0.27
   0  -7   4   -0.09    0.30
   0  -7   4   -0.01    0.26
   0  -7   4    0.10    0.25
   0  -7   4   -0.11    0.39
   0   7  -5   31.23    1.66
   0   7  -5   26.26    1.82
   0  -7   5   28.21    1.37
   0  -7   5   29.71    1.89
   0   7  -6   19.79    1.97
   0   7  -6   17.06    1.31
   0  -7   6   14.78    1.74
   0   7  -7    9.71    1.43
   0  -7   7   10.50    1.49
   0   7  -8   25.81    1.95
   0  -7   8   26.31    1.92
   0  -7   9    0.21    0.47
   0  -7  10   51.80    3.50
   0  -7  10   54.91    3.03
   0  -7  11    2.64    1.06
   0  -7  11    8.63    1.57
   0  -7  12   20.16    2.93
   0  -7  12   26.76    2.75
   0  -7  13   12.72    1.99
   0  -7  13    9.99    2.23
   1   8   5   10.68    2.01
   1   8   4   12.06    1.99
   1   8   3    5.81    1.40
   1   8   2   37.09    2.59
   1   8   1    0.00    0.55
   1   8   0   54.58    2.89
   1   8  -1   13.24    1.65
  -1  -8   1   14.09    1.58
  -1  -8   1   13.90    1.39
   1   8  -2   47.86    2.68
   1   8  -2   40.08    2.29
  -1  -8   2   40.05    2.28
  -1  -8   2   41.37    2.30
  -1  -8   2   44.06    2.04
   1   8  -3   17.70    2.00
   1   8  -3   16.26    0.87
   1   8  -3   12.85    1.47
  -1  -8   3   13.11    1.45
  -1  -8   3   15.29    1.77
  -1  -8   3   14.66    1.39
   1   8  -4    0.01    0.35
   1   8  -4    0.19    0.43
   1   8  -4    0.00    0.24
  -1  -8   4    0.14    0.41
  -1  -8   4   -0.23    0.35
   1   8  -5   52.38    2.75
  -1  -8   5   47.13    2.07
  -1  -8   5   44.25    2.54
   1   8  -6    4.13    1.03
  -1  -8   6    4.63    1.03
  -1  -8   6    5.24    0.85
   1   8  -7   49.48    2.78
  -1  -8   7   48.69    2.78
  -1  -8   8   28.59    2.19
  -1  -8   9   20.46    2.37
  -1  -8  10   39.15    2.66
  -1  -8  11    3.20    1.11
  -1  -8  12   17.73    2.90
  -1  -8  12   18.45    2.42
  -1  -8  13    0.50    0.71
  -1  -8  13   -0.03    0.78
   2   9   2    0.05    0.79
   2   9   1   42.34    3.01
   2   9   0    4.76    1.34
   2   9  -1   31.84    2.88
   2   9  -2   32.13    2.33
  -2  -9   2   26.87    2.82
   2   9  -3    5.10    1.18
  -2  -9   3    4.51    1.14
  -2  -9   4   72.85    3.56
  -2  -9   5    5.42    1.29
  -2  -9   6   52.42    3.09
  -2  -9   7   31.88    2.45
  -2  -9   8   25.24    2.70
  -2  -9   9   39.04    2.82
  -2  -9  10    4.32    1.24
  -2  -9  11   34.03    3.37
  -2  -9  12    4.49    1.42
   3  10  -2    6.45    1.50
  -3 -10   4   12.34    2.00
  -3 -10   5    9.07    1.75
  -3 -10   6    9.18    1.75
  -3 -10   7    4.00    1.22
  -3 -10   8   16.88    2.50
  -3 -10   9    3.10    1.24
 -10  -2   9   21.11    2.78
 -10  -2   8   17.38    2.60
 -10  -2   7   15.64    2.44
 -10  -2   7   19.30    2.49
 -10  -2   6   40.21    3.06
 -10  -2   5    0.75    0.83
 -10  -2   4   53.03    3.48
 -10  -2   3    1.62    0.95
 -10  -2   2   38.16    2.91
 -10  -2   1   14.16    2.17
 -10  -2   0   10.11    1.94
  -9  -1  11    0.13    0.89
  -9  -1   9   13.69    2.06
  -9  -1   8    3.88    1.20
  -9  -1   8    3.51    1.06
  -9  -1   7   54.51    3.10
  -9  -1   7   50.63    3.13
  -9  -1   6    1.53    0.84
  -9  -1   6    0.33    0.70
  -9  -1   5   34.44    2.49
  -9  -1   4   12.47    1.88
  -9  -1   3    9.21    1.60
  -9  -1   2   34.36    2.55
  -9  -1   1    3.02    1.02
  -9  -1   0   23.05    2.55
  -9  -1  -1    3.03    1.12
  -9  -1  -2   18.72    2.35
   9   1   2   17.09    2.35
  -9  -1  -3    6.26    1.46
   9   1   3    5.43    1.50
   9   1   4    1.18    1.11
  -8   0  12    8.74    2.38
  -8   0  11    0.60    0.97
  -8   0  10   34.73    4.03
  -8   0   9    0.33    0.58
  -8   0   9   -0.68    0.55
  -8   0   8   29.91    2.64
  -8   0   8   28.24    2.62
  -8   0   7    7.67    1.42
  -8   0   7    7.89    1.40
   8   0  -7    7.49    0.85
  -8   0   6    1.91    0.74
  -8   0   6    1.20    0.73
   8   0  -6    1.54    0.37
  -8   0   5   21.00    2.16
  -8   0   5   26.70    2.36
  -8   0   4    4.36    1.03
  -8   0   3   44.89    2.59
  -8   0   2   29.88    2.12
   8   0  -2   30.17    2.13
  -8   0   1   10.64    1.55
   8   0  -1   10.26    1.51
  -8   0   0   77.71    3.56
   8   0   0   75.44    3.50
  -8   0  -1    2.26    0.89
   8   0   1    1.11    0.68
  -8   0  -2   29.36    2.23
   8   0   2   29.25    2.81
   8   0   2   24.72    2.37
  -8   0  -3    5.83    1.31
   8   0   3    5.46    1.29
   8   0   3    5.74    1.26
  -8   0  -4   22.90    2.46
   8   0   4   18.10    2.24
   8   0   4   21.53    2.39
   8   0   5   13.22    1.89
   8   0   6    4.17    1.26
  -7   1  12   -0.33    0.76
  -7   1  11   30.69    3.83
  -7   1  10   11.76    2.40
  -7   1   9   21.57    2.15
  -7   1   9   17.30    2.70
  -7   1   8   34.25    2.21
  -7   1   8   34.61    2.79
  -7   1   7    0.14    0.45
  -7   1   7    0.50    0.61
  -7   1   7   -0.09    0.37
   7  -1  -7    0.41    0.36
  -7   1   6   72.08    3.10
  -7   1   6   77.75    3.05
   7  -1  -6   79.18    2.43
  -7   1   5   47.33    2.37
  -7   1   5   50.60    2.20
  -7   1   5   44.24    2.48
  -7   1   5   45.86    2.43
   7  -1  -5   49.84    2.20
   7  -1  -5   48.65    1.65
  -7   1   4   76.27    3.18
  -7   1   4   80.26    3.15
  -7   1   4   78.41    3.13
  -7   1   4   83.87    2.75
   7  -1  -4   80.75    2.74
   7  -1  -4   83.63    1.89
  -7   1   3   75.59    3.04
  -7   1   3   74.26    2.58
  -7   1   3   75.66    3.05
   7  -1  -3   74.34    3.00
   7  -1  -3   76.53    2.83
  -7   1   2   14.00    1.67
  -7   1   2   13.89    1.52
   7  -1  -2   12.18    1.50
  -7   1   1   93.20    3.37
  -7   1   1   91.58    3.46
   7  -1  -1   95.36    3.55
  -7   1   0    0.01    0.30
  -7   1   0   -0.06    0.35
   7  -1   0    0.12    0.44
  -7   1  -1   72.66    2.94
  -7   1  -1   73.99    3.17
   7  -1   1   76.38    3.22
  -7   1  -2   34.57    2.01
  -7   1  -2   30.96    2.07
   7  -1   2   39.06    2.30
   7  -1   2   34.47    2.08
  -7   1  -3   27.42    1.98
  -7   1  -3   23.52    1.73
   7  -1   3   25.36    1.88
   7  -1   3   26.60    1.98
  -7   1  -4   54.60    2.86
   7  -1   4   59.22    2.92
   7  -1   4   57.57    2.96
  -7   1  -5    0.99    0.64
   7  -1   5    1.78    0.74
   7  -1   5    0.00    0.53
   7  -1   6   31.47    2.27
   7  -1   7    2.88    1.02
  -6   2  11    5.59    1.90
  -6   2  10    0.72    1.06
  -6   2  10    1.44    0.71
  -6   2   9   29.80    2.10
  -6   2   9   25.56    3.21
  -6   2   8   15.03    1.83
  -6   2   8   16.65    2.47
   6  -2  -8   14.49    1.39
  -6   2   7   55.20    3.30
  -6   2   7   58.98    2.72
   6  -2  -7   56.14    2.17
  -6   2   6   58.47    2.66
  -6   2   6   54.14    2.20
  -6   2   6   53.80    2.69
  -6   2   6   63.47    3.21
  -6   2   6   55.75    2.24
   6  -2  -6   57.10    2.07
  -6   2   5   67.39    2.79
  -6   2   5   71.79    3.16
  -6   2   5   63.53    2.83
  -6   2   5   68.74    2.53
  -6   2   5   72.62    2.27
   6  -2  -5   71.62    2.79
   6  -2  -5   65.53    2.15
  -6   2   4   68.87    2.71
  -6   2   4   67.88    2.55
  -6   2   4   60.92    2.64
  -6   2   4   62.37    1.85
  -6   2   4   69.24    2.50
   6  -2  -4   64.74    2.44
   6  -2  -4   59.69    1.89
   6  -2  -4   71.13    2.60
  -6   2   3    6.43    0.99
  -6   2   3    6.12    0.84
  -6   2   3    5.47    0.93
  -6   2   3    4.76    0.84
   6  -2  -3    6.08    0.95
   6  -2  -3    4.52    0.71
   6  -2  -3    6.00    0.56
  -6   2   2  135.16    3.95
  -6   2   2  140.86    4.00
  -6   2   2  144.93    4.04
  -6   2   2  143.32    3.71
   6  -2  -2  143.51    3.70
   6  -2  -2  142.53    3.98
  -6   2   1   14.76    1.00
  -6   2   1   11.91    1.37
  -6   2   1   11.38    1.19
   6  -2  -1   14.36    1.45
   6  -2  -1   12.42    0.92
  -6   2   0   30.79    0.75
  -6   2   0   32.37    1.83
  -6   2   0   30.07    1.60
  -6   2   0   31.78    1.47
  -6   2   0   30.25    0.87
   6  -2   0   31.30    1.79
   6  -2   0   32.33    1.47
  -6   2  -1   45.49    1.34
  -6   2  -1   48.62    2.29
  -6   2  -1   46.75    1.67
  -6   2  -1   45.11    1.81
  -6   2  -1   46.58    2.00
   6  -2   1   49.86    1.91
   6  -2   1   41.65    2.15
  -6   2  -2    0.41    0.30
  -6   2  -2    0.25    0.30
  -6   2  -2    0.43    0.24
  -6   2  -2    0.21    0.40
   6  -2   2    0.87    0.37
   6  -2   2    0.83    0.51
  -6   2  -3   42.15    2.31
  -6   2  -3   44.62    1.76
  -6   2  -3   44.42    2.03
  -6   2  -3   41.65    1.90
   6  -2   3   45.04    2.36
   6  -2   3   44.65    2.15
  -6   2  -4    0.21    0.44
  -6   2  -4   -0.08    0.24
  -6   2  -4    0.27    0.32
  -6   2  -4    0.12    0.27
   6  -2   4   -0.13    0.40
   6  -2   4    0.03    0.38
  -6   2  -5   23.61    1.57
  -6   2  -5   21.58    2.13
  -6   2  -5   22.69    1.57
   6  -2   5   23.92    1.84
   6  -2   5   24.96    1.68
  -6   2  -6    5.20    0.97
  -6   2  -6    4.86    0.98
  -6   2  -6    5.06    1.08
   6  -2   6    7.74    1.37
   6  -2   6    4.17    0.91
  -6   2  -7    5.48    1.11
  -6   2  -7    5.65    1.24
   6  -2   7    4.46    1.03
   6  -2   7    7.25    1.36
  -5   3  10   16.80    2.00
  -5   3   9   29.40    2.62
   5  -3  -9   24.06    1.57
  -5   3   8    9.70    1.46
  -5   3   8   11.81    2.19
  -5   3   8    8.45    1.30
   5  -3  -8    8.82    1.09
  -5   3   7   43.21    3.02
  -5   3   7   40.59    2.26
  -5   3   7   45.56    2.42
   5  -3  -7   43.29    1.90
  -5   3   6    0.31    0.35
  -5   3   6    0.02    0.40
  -5   3   6    0.36    0.37
  -5   3   6   -0.08    0.29
   5  -3  -6    0.16    0.27
  -5   3   5   47.90    2.05
  -5   3   5   45.90    2.63
  -5   3   5   51.00    2.41
  -5   3   5   45.88    2.25
   5  -3  -5   49.93    1.83
  -5   3   4   21.32    1.16
  -5   3   4   23.76    1.56
  -5   3   4   27.13    1.36
  -5   3   4   25.14    1.73
  -5   3   4   23.86    1.53
  -5   3   4   24.90    1.58
   5  -3  -4   26.69    1.27
   5  -3  -4   27.41    1.63
   5  -3  -4   27.39    1.24
  -5   3   3   10.99    1.16
  -5   3   3    9.50    1.06
  -5   3   3    8.73    1.07
  -5   3   3   11.60    1.10
  -5   3   3   12.99    1.40
  -5   3   3    9.14    0.71
   5  -3  -3    9.55    1.09
   5  -3  -3    9.47    0.86
   5  -3  -3    9.31    0.68
   5  -3  -3   10.56    1.02
  -5   3   2   77.89    2.60
  -5   3   2   78.45    2.63
  -5   3   2   80.54    2.06
  -5   3   2   80.14    2.51
  -5   3   2   80.54    2.52
  -5   3   2   79.66    2.70
   5  -3  -2   78.53    2.48
   5  -3  -2   79.21    2.05
   5  -3  -2   77.69    1.95
   5  -3  -2   76.32    2.62
  -5   3   1    3.96    0.71
  -5   3   1    3.62    0.43
  -5   3   1    3.61    0.74
  -5   3   1    4.08    0.67
  -5   3   1    6.21    0.83
   5  -3  -1    3.34    0.24
   5  -3  -1    3.70    0.42
   5  -3  -1    3.13    0.57
   5  -3  -1    4.06    0.70
   5  -3  -1    3.39    0.24
  -5   3   0  106.29    2.36
  -5   3   0  107.07    2.93
  -5   3   0  110.83    3.09
  -5   3   0  104.85    3.06
  -5   3   0  105.00    3.24
   5  -3   0  108.44    2.93
   5  -3   0  114.02    3.09
   5  -3   0  110.57    2.37
   5  -3   0  102.33    3.17
  -5   3  -1   11.90    0.92
  -5   3  -1   10.95    0.66
  -5   3  -1   11.19    0.82
   5  -3   1   12.18    0.85
   5  -3   1   11.41    1.29
   5  -3   1   10.59    0.99
   5  -3   1   10.78    0.67
  -5   3  -2   78.62    2.19
  -5   3  -2   82.87    2.38
  -5   3  -2   78.84    2.59
  -5   3  -2   80.60    2.24
   5  -3   2   82.30    2.63
   5  -3   2   80.45    2.37
   5  -3   2   80.32    2.92
  -5   3  -3   36.80    1.53
  -5   3  -3   39.37    1.55
  -5   3  -3   43.91    1.88
   5  -3   3   37.50    1.78
   5  -3   3   32.29    1.90
   5  -3   3   38.96    1.58
  -5   3  -4    0.54    0.32
  -5   3  -4    0.65    0.33
  -5   3  -4    0.60    0.29
   5  -3   4    0.47    0.47
  -5   3  -5   45.87    1.88
  -5   3  -5   40.67    1.96
   5  -3   5   44.62    2.36
   5  -3   5   42.45    1.90
  -5   3  -6   23.22    1.40
  -5   3  -6   23.69    1.63
   5  -3   6   20.37    2.06
   5  -3   6   23.75    1.46
  -5   3  -7    8.17    1.27
   5  -3   7    7.48    1.33
  -5   3  -8   18.32    2.99
   5  -3   8   19.19    2.14
  -4   4  10   29.65    2.77
  -4   4   9    1.35    0.81
  -4   4   8   36.19    2.34
  -4   4   7   17.25    1.87
  -4   4   7   19.60    2.08
   4  -4  -7   16.58    1.18
  -4   4   6   18.32    1.83
  -4   4   6   17.24    1.79
   4  -4  -6   19.88    1.23
  -4   4   5   86.28    3.24
  -4   4   5   86.72    3.17
   4  -4  -5   84.72    2.57
  -4   4   4    1.33    0.53
  -4   4   4    2.08    0.62
  -4   4   4    1.17    0.47
   4  -4  -4    0.88    0.49
   4  -4  -4    1.13    0.37
  -4   4   3  202.56    4.82
  -4   4   3  203.43    4.12
  -4   4   3  202.59    5.09
  -4   4   3  206.71    5.10
  -4   4   3  202.09    5.19
   4  -4  -3  212.27    4.39
   4  -4  -3  203.11    5.17
   4  -4  -3  208.27    4.12
  -4   4   2   21.14    1.34
  -4   4   2   23.34    1.38
  -4   4   2   21.62    1.20
  -4   4   2   23.21    1.33
   4  -4  -2   23.17    1.06
   4  -4  -2   22.20    1.39
   4  -4  -2   23.22    1.09
  -4   4   1  213.13    4.69
  -4   4   1  218.35    5.03
  -4   4   1  205.87    4.88
  -4   4   1  215.74    4.59
   4  -4  -1  213.05    4.63
   4  -4  -1  208.88    4.13
   4  -4  -1  211.96    4.69
   4  -4  -1  213.35    4.98
  -4   4   0  203.34    4.71
  -4   4   0  193.18    4.48
  -4   4   0  199.63    4.24
  -4   4   0  196.33    4.19
   4  -4   0  203.22    4.64
   4  -4   0  189.89    4.60
   4  -4   0  193.71    4.15
   4  -4   0  195.04    3.60
   4  -4   0  202.93    4.24
  -4   4  -1   30.29    1.36
  -4   4  -1   28.59    1.12
  -4   4  -1   28.52    1.24
  -4   4  -1   28.23    1.44
   4  -4   1   30.41    1.27
   4  -4   1   28.57    1.45
   4  -4   1   29.06    1.50
  -4   4  -2  200.38    4.33
  -4   4  -2  194.61    4.29
  -4   4  -2  199.92    3.83
  -4   4  -2  196.16    4.66
   4  -4   2  199.67    4.92
   4  -4   2  197.72    4.69
   4  -4   2  200.99    3.82
  -4   4  -3   15.85    1.13
  -4   4  -3   18.12    0.97
  -4   4  -3   16.43    0.74
  -4   4  -3   16.89    1.04
   4  -4   3   15.83    0.73
   4  -4   3   16.68    1.27
   4  -4   3   18.08    1.20
  -4   4  -4   50.22    2.02
  -4   4  -4   54.75    2.22
  -4   4  -4   53.39    1.50
   4  -4   4   52.89    2.23
   4  -4   4   56.22    2.46
  -4   4  -5   76.17    2.68
  -4   4  -5   72.92    1.99
   4  -4   5   71.17    2.92
  -4   4  -6   54.11    2.39
  -4   4  -6   56.17    1.89
   4  -4   6   55.10    2.63
  -4   4  -7   73.57    3.02
   4  -4   7   71.68    3.14
  -4   4  -8    3.26    0.87
   4  -4   8    2.92    0.93
   4  -4   9   75.88    3.49
  -3   5  10   -0.21    0.63
  -3   5   9    9.44    1.63
  -3   5   8   17.45    2.03
  -3   5   7   11.71    1.61
  -3   5   6   66.30    3.19
  -3   5   6   64.14    3.08
  -3   5   5   -0.09    0.35
  -3   5   5    0.33    0.46
   3  -5  -5    0.92    0.41
  -3   5   4  134.69    4.30
  -3   5   4  133.69    4.22
   3  -5  -4  142.96    3.52
  -3   5   3   36.13    1.93
  -3   5   3   35.73    1.91
   3  -5  -3   34.55    1.48
   3  -5  -3   38.80    2.01
  -3   5   2   89.06    3.01
  -3   5   2   87.34    2.26
  -3   5   2   94.33    3.13
  -3   5   2   91.39    3.05
   3  -5  -2   86.36    3.04
   3  -5  -2   92.37    2.36
   3  -5  -2   95.44    2.55
  -3   5   1   49.40    2.05
  -3   5   1   50.12    2.12
  -3   5   1   50.87    2.07
   3  -5  -1   48.45    2.07
   3  -5  -1   49.51    1.74
   3  -5  -1   48.93    1.64
  -3   5   0    4.79    0.75
  -3   5   0    5.48    0.82
  -3   5   0    5.18    0.77
   3  -5   0    4.76    0.74
   3  -5   0    4.45    0.60
   3  -5   0    5.49    0.60
   3  -5   0    6.55    0.84
  -3   5  -1   54.00    2.09
  -3   5  -1   55.02    2.04
  -3   5  -1   56.84    1.94
   3  -5   1   54.76    2.00
   3  -5   1   51.89    1.55
   3  -5   1   51.32    1.50
   3  -5   1   54.05    2.10
  -3   5  -2   30.08    1.51
  -3   5  -2   30.95    1.29
  -3   5  -2   30.01    1.47
   3  -5   2   30.87    1.54
   3  -5   2   30.12    1.53
   3  -5   2   30.17    0.95
   3  -5   2   31.19    0.92
  -3   5  -3  107.95    2.62
  -3   5  -3  114.62    3.30
  -3   5  -3  112.73    3.20
   3  -5   3  108.58    3.25
   3  -5   3  107.34    3.29
  -3   5  -4  165.11    4.32
  -3   5  -4  161.06    4.22
  -3   5  -4  160.46    3.33
   3  -5   4  160.83    4.39
   3  -5   4  173.22    3.97
   3  -5   4  165.11    4.37
  -3   5  -5   31.25    1.69
  -3   5  -5   32.84    1.49
  -3   5  -5   29.63    1.67
   3  -5   5   33.15    1.84
   3  -5   5   31.58    1.68
   3  -5   5   30.41    1.74
  -3   5  -6  118.94    3.79
   3  -5   6  121.75    3.97
   3  -5   6  115.75    3.87
  -3   5  -7    3.05    0.77
   3  -5   7    2.13    0.77
   3  -5   7    3.54    0.91
  -3   5  -8   49.97    2.59
   3  -5   8   55.37    2.81
   3  -5   8   57.01    3.16
   3  -5   9    9.74    1.53
   3  -5   9   12.55    1.99
   3  -5  10   21.03    2.31
  -2   6   9   27.95    2.97
  -2   6   8    0.03    0.60
  -2   6   7   28.48    2.72
  -2   6   6   23.03    2.38
  -2   6   5   20.90    2.10
  -2   6   4   21.79    2.19
  -2   6   4   19.36    2.02
  -2   6   3   11.97    1.53
  -2   6   3   13.54    1.54
   2  -6  -3   11.49    1.06
  -2   6   2   14.71    1.61
  -2   6   2   13.58    1.49
   2  -6  -2   12.47    1.35
   2  -6  -2   13.46    1.14
  -2   6   1    6.39    1.01
  -2   6   1    8.27    1.19
  -2   6   1    6.59    0.93
   2  -6  -1    5.87    0.71
   2  -6  -1    6.93    0.97
   2  -6  -1    7.21    0.82
  -2   6   0   56.37    2.23
  -2   6   0   50.41    2.15
  -2   6   0   49.73    2.23
   2  -6   0   49.43    1.75
   2  -6   0   50.18    2.11
   2  -6   0   50.25    1.88
  -2   6  -1   81.74    2.75
  -2   6  -1   79.42    2.61
  -2   6  -1   77.92    2.82
   2  -6   1   86.32    2.43
   2  -6   1   79.78    2.27
   2  -6   1   81.69    2.72
   2  -6   1   78.48    2.57
  -2   6  -2    8.67    0.91
  -2   6  -2   10.25    1.20
  -2   6  -2    9.03    1.00
   2  -6   2    7.72    0.73
   2  -6   2    9.21    1.11
   2  -6   2    7.87    0.97
   2  -6   2    8.46    0.62
  -2   6  -3   83.49    2.91
  -2   6  -3   85.04    2.32
  -2   6  -3   85.80    2.81
   2  -6   3   84.62    1.96
   2  -6   3   88.79    2.19
   2  -6   3   85.08    2.89
   2  -6   3   83.34    2.79
  -2   6  -4   10.86    0.64
  -2   6  -4   12.54    1.26
  -2   6  -4    9.22    1.13
   2  -6   4   10.82    0.38
   2  -6   4   10.17    1.20
   2  -6   4   11.17    0.39
   2  -6   4   11.62    1.19
  -2   6  -5   35.50    1.83
  -2   6  -5   35.63    1.90
   2  -6   5   37.43    1.91
   2  -6   5   34.80    1.90
  -2   6  -6   12.74    1.42
   2  -6   6   15.01    1.57
  -2   6  -7    2.66    0.74
   2  -6   7    3.36    0.93
   2  -6   7    1.87    0.68
  -2   6  -8   34.61    2.15
   2  -6   8   38.65    2.50
   2  -6   8   37.84    2.24
  -2   6  -9    1.44    0.77
   2  -6   9    1.03    0.65
   2  -6   9    1.11    0.82
   2  -6  10   18.96    2.30
   2  -6  10   23.59    2.34
   2  -6  11    4.78    1.23
   2  -6  11    1.93    0.82
   2  -6  12    1.66    1.11
   2  -6  13    3.31    1.43
  -1   7   7   13.04    2.09
  -1   7   6    2.40    1.06
  -1   7   5   23.36    2.44
  -1   7   4    7.37    1.37
  -1   7   3   27.98    2.55
  -1   7   2   98.58    3.78
  -1   7   2   97.97    3.88
   1  -7  -2   99.37    3.72
   1  -7  -2   99.67    3.07
  -1   7   1    0.43    0.42
  -1   7   1    1.58    0.67
   1  -7  -1    1.45    0.53
   1  -7  -1    1.88    0.50
   1  -7  -1    1.07    0.50
  -1   7   0  136.06    3.95
  -1   7   0  134.79    4.16
  -1   7   0  140.24    4.48
   1  -7   0  136.77    4.06
   1  -7   0  135.69    3.95
   1  -7   0  136.47    3.74
   1  -7   0  139.86    3.62
  -1   7  -1    6.65    0.93
  -1   7  -1    5.81    0.94
  -1   7  -1    6.57    1.11
   1  -7   1    7.87    0.98
   1  -7   1    8.03    1.06
   1  -7   1    5.67    0.75
   1  -7   1    7.92    1.04
  -1   7  -2   64.48    2.76
  -1   7  -2   67.04    2.46
  -1   7  -2   66.11    2.47
   1  -7   2   64.20    2.53
   1  -7   2   64.71    2.29
   1  -7   2   66.06    2.20
   1  -7   2   64.96    2.45
  -1   7  -3   40.67    1.74
  -1   7  -3   40.85    1.89
  -1   7  -3   39.08    2.13
   1  -7   3   39.32    1.59
   1  -7   3   42.69    1.92
   1  -7   3   41.91    2.05
   1  -7   3   41.45    1.66
  -1   7  -4   17.45    1.02
  -1   7  -4   20.11    1.86
  -1   7  -4   17.48    1.26
   1  -7   4   19.11    1.30
   1  -7   4   20.82    1.86
   1  -7   4   20.62    1.05
   1  -7   4   21.33    1.13
  -1   7  -5   95.01    3.51
  -1   7  -5   99.36    3.27
   1  -7   5   94.92    2.52
   1  -7   5   97.36    3.45
   1  -7   5   95.46    3.22
  -1   7  -6    6.13    1.07
   1  -7   6    7.10    1.20
  -1   7  -7  103.37    3.87
   1  -7   7  102.97    3.81
  -1   7  -8   33.74    2.21
   1  -7   8   32.18    2.17
   1  -7   9   22.30    2.35
   1  -7   9   28.12    2.07
   1  -7  10   53.43    2.95
   1  -7  11    1.83    0.99
   1  -7  11    1.52    0.77
   1  -7  12   47.89    3.03
   1  -7  12   43.81    3.53
   1  -7  13    1.63    1.10
   0   8   5   11.84    1.99
   0   8   4    2.05    0.95
   0   8   3   44.22    2.86
   0   8   2    0.77    0.58
   0   8   1   87.54    3.75
   0   8   0    0.88    0.59
   0  -8   0    1.49    0.78
   0  -8   0    1.09    0.52
   0   8  -1   48.91    2.51
   0   8  -1   52.57    2.82
   0  -8   1   52.71    2.20
   0  -8   1   52.03    2.42
   0  -8   1   52.67    2.55
   0   8  -2   93.23    3.76
   0   8  -2   96.42    3.43
   0  -8   2   97.74    3.06
   0  -8   2   93.11    3.34
   0  -8   2   94.00    3.46
   0   8  -3   12.79    1.39
   0   8  -3   10.72    1.51
   0  -8   3   14.05    1.68
   0  -8   3   12.35    1.23
   0   8  -4  124.34    3.78
   0   8  -4  127.53    4.42
   0  -8   4  116.75    4.11
   0  -8   4  122.05    3.47
   0   8  -5    4.59    1.04
   0  -8   5    4.88    0.79
   0  -8   5    6.27    1.22
   0   8  -6   73.61    3.31
   0  -8   6   68.94    3.18
   0   8  -7   29.27    2.11
   0  -8   7   27.59    2.04
   0  -8   8   41.81    2.55
   0  -8   9   33.79    2.38
   0  -8  10    0.65    0.62
   0  -8  11   20.74    2.47
   0  -8  11   13.27    2.17
   0  -8  12    1.63    0.92
   0  -8  12    0.82    0.85
   0  -8  13    8.58    1.66
   0  -8  13    6.32    1.78
   1   9   3    0.51    0.85
   1   9   2   13.29    2.08
   1   9   1    4.44    1.18
   1   9   0    0.39    0.70
   1   9  -1   19.34    2.16
   1   9  -2    0.99    0.67
  -1  -9   2    0.37    0.53
   1   9  -3   20.04    2.03
  -1  -9   3   22.08    2.20
   1   9  -4   13.25    0.91
  -1  -9   4   14.83    1.87
  -1  -9   5   17.79    2.12
  -1  -9   6   36.60    2.48
  -1  -9   7    2.28    0.95
  -1  -9   8   15.42    2.12
  -1  -9   9    2.21    0.97
  -1  -9  10    7.01    1.52
  -1  -9  11    6.15    1.56
  -1  -9  12   -0.59    0.61
   2  10   0    9.03    1.91
   2  10  -1   23.33    2.82
   2  10  -2    4.53    1.26
  -2 -10   3   32.64    2.46
  -2 -10   4    3.97    1.13
  -2 -10   5   25.13    2.79
  -2 -10   6   23.08    2.77
  -2 -10   7    5.33    1.45
  -2 -10   8   35.07    3.46
  -2 -10   9    0.60    0.74
  -2 -10  10   31.59    3.29
  -2 -10  11    6.54    1.58
 -10  -1   9    1.68    0.94
 -10  -1   8    4.28    1.33
 -10  -1   8    3.82    1.28
 -10  -1   7    6.38    1.47
 -10  -1   7    8.27    1.70
 -10  -1   6    0.59    0.96
 -10  -1   6    0.24    0.56
 -10  -1   5   40.13    2.90
 -10  -1   4    0.66    0.63
 -10  -1   3   33.45    3.27
 -10  -1   2   13.11    2.08
 -10  -1   1   10.57    1.89
 -10  -1   0   15.76    2.39
 -10  -1  -1    1.52    0.97
 -10  -1  -2   13.08    2.18
  -9   0  11   18.42    3.23
  -9   0  10    5.19    1.70
  -9   0   9    7.72    1.57
  -9   0   9    6.64    1.55
  -9   0   8   55.96    3.10
  -9   0   8   48.96    2.98
  -9   0   7   -0.37    0.56
  -9   0   7    0.38    0.65
  -9   0   6   69.43    3.45
  -9   0   6   60.95    3.23
  -9   0   5    3.34    1.09
  -9   0   5    3.24    1.07
  -9   0   4   38.73    2.59
  -9   0   3   18.14    2.24
  -9   0   2   37.66    2.57
  -9   0   1   14.06    2.03
   9   0  -1   18.14    2.24
  -9   0   0    0.25    0.57
   9   0   0    0.00    0.50
  -9   0  -1   37.58    2.66
   9   0   1   32.93    2.50
  -9   0  -2    8.83    1.65
   9   0   2    8.89    1.61
  -9   0  -3    8.73    1.67
   9   0   3    9.20    1.71
   9   0   3    9.55    1.73
  -9   0  -4   23.10    2.64
   9   0   4   26.93    2.83
   9   0   4   31.18    3.09
   9   0   5    2.11    1.08
  -8   1  12    9.33    2.42
  -8   1  11   13.42    2.70
  -8   1  10    0.64    0.91
  -8   1   9   38.12    2.52
  -8   1   9   38.98    3.21
  -8   1   8    8.10    1.45
  -8   1   8   10.89    2.10
  -8   1   7   56.63    2.79
  -8   1   7   54.72    2.87
   8  -1  -7   47.26    2.07
  -8   1   6   15.06    1.86
  -8   1   6   10.19    1.50
   8  -1  -6   11.04    0.99
  -8   1   5   24.31    1.83
  -8   1   5   24.40    2.32
   8  -1  -5   21.24    1.27
  -8   1   4   44.71    2.46
  -8   1   4   42.56    2.43
  -8   1   3    1.40    0.66
   8  -1  -3    0.91    0.56
  -8   1   2   30.59    2.00
  -8   1   2   29.40    2.07
   8  -1  -2   29.62    2.05
  -8   1   1   21.76    2.25
  -8   1   1   20.55    1.92
   8  -1  -1   17.81    2.00
  -8   1   0   26.37    2.52
   8  -1   0   23.00    2.29
  -8   1  -1   30.44    2.15
   8  -1   1   22.85    2.27
  -8   1  -2    7.26    1.42
   8  -1   2    6.93    1.38
  -8   1  -3   54.78    2.99
   8  -1   3   45.78    2.78
   8  -1   3   43.23    2.63
  -8   1  -4    0.39    0.56
   8  -1   4    0.20    0.54
   8  -1   4    0.06    0.54
  -8   1  -5   27.46    2.82
   8  -1   5   24.59    2.58
   8  -1   5   18.72    2.16
   8  -1   6    3.74    1.07
   8  -1   7    4.28    1.29
  -7   2  12   -0.26    0.87
  -7   2  11   12.55    2.70
  -7   2  10    7.71    2.02
  -7   2  10    9.37    1.59
  -7   2   9    7.05    1.34
  -7   2   9    6.73    1.82
  -7   2   8   11.53    1.60
  -7   2   8   13.12    2.23
  -7   2   7    8.06    1.35
  -7   2   7    7.41    1.55
   7  -2  -7    6.86    0.86
  -7   2   6    6.87    1.06
  -7   2   6    5.83    1.12
  -7   2   6    5.81    1.26
   7  -2  -6    6.73    0.87
  -7   2   5   25.85    1.83
  -7   2   5   24.88    1.78
  -7   2   5   26.73    1.69
   7  -2  -5   29.51    1.32
   7  -2  -5   29.23    1.91
  -7   2   4   17.41    1.76
  -7   2   4   18.46    1.82
  -7   2   4   19.78    1.45
  -7   2   4   17.39    1.58
   7  -2  -4   17.95    1.72
   7  -2  -4   17.90    0.90
   7  -2  -4   16.79    1.30
  -7   2   3    2.17    0.56
  -7   2   3    0.63    0.42
  -7   2   3    1.46    0.60
  -7   2   3    1.41    0.59
   7  -2  -3    2.36    0.58
   7  -2  -3    1.48    0.64
  -7   2   2   62.78    2.70
  -7   2   2   58.82    2.25
  -7   2   2   62.18    2.64
   7  -2  -2   57.33    2.60
   7  -2  -2   62.61    2.27
  -7   2   1    0.63    0.35
  -7   2   1    1.10    0.50
  -7   2   1    2.08    0.70
   7  -2  -1    0.61    0.36
   7  -2  -1    1.19    0.54
  -7   2   0  102.71    3.40
  -7   2   0   96.91    2.97
  -7   2   0   97.71    3.60
   7  -2   0  100.02    3.63
   7  -2   0   94.99    2.90
  -7   2  -1    1.39    0.60
  -7   2  -1    1.18    0.49
  -7   2  -1    1.22    0.44
   7  -2   1    0.52    0.35
   7  -2   1    1.25    0.61
  -7   2  -2   30.80    1.78
  -7   2  -2   28.26    1.98
   7  -2   2   30.80    2.03
  -7   2  -3    8.24    1.42
  -7   2  -3    7.44    1.11
   7  -2   3    8.24    1.40
  -7   2  -4    0.50    0.42
  -7   2  -4    1.42    0.71
   7  -2   4   -0.62    0.37
   7  -2   4    0.55    0.56
  -7   2  -5   13.55    1.58
  -7   2  -5   11.98    1.68
   7  -2   5   11.83    1.53
   7  -2   5   13.90    1.86
  -7   2  -6    0.42    0.56
   7  -2   6   -0.25    0.46
   7  -2   6    0.84    0.64
   7  -2   7    6.49    1.26
  -6   3  10   64.65    3.33
  -6   3   9    0.21    0.46
  -6   3   9   -0.30    0.60
  -6   3   8   34.81    2.91
  -6   3   8   32.70    2.20
  -6   3   8   29.67    3.57
   6  -3  -8   32.48    1.77
  -6   3   7   36.68    2.04
  -6   3   7   30.70    2.07
  -6   3   7   33.59    2.63
   6  -3  -7   36.54    1.76
  -6   3   6   22.25    1.47
  -6   3   6   19.95    1.90
  -6   3   6   23.67    1.78
  -6   3   6   23.19    2.01
   6  -3  -6   22.88    1.32
  -6   3   5   49.18    2.44
  -6   3   5   53.44    2.10
  -6   3   5   54.38    2.60
  -6   3   5   55.39    2.85
   6  -3  -5   56.43    1.99
  -6   3   4    2.63    0.69
  -6   3   4    4.09    0.90
  -6   3   4    3.81    0.83
  -6   3   4    3.79    0.61
  -6   3   4    3.02    0.67
   6  -3  -4    4.17    0.76
   6  -3  -4    3.30    0.75
   6  -3  -4    3.57    0.56
  -6   3   3  154.36    3.34
  -6   3   3  145.85    3.98
  -6   3   3  145.56    4.16
  -6   3   3  147.27    4.25
  -6   3   3  145.28    4.16
  -6   3   3  154.17    4.34
   6  -3  -3  149.98    3.97
   6  -3  -3  151.10    3.33
   6  -3  -3  153.37    3.31
   6  -3  -3  154.20    4.25
  -6   3   2    1.10    0.48
  -6   3   2    1.11    0.26
  -6   3   2    1.50    0.47
  -6   3   2    1.59    0.54
  -6   3   2    2.37    0.65
   6  -3  -2    0.57    0.39
   6  -3  -2    2.01    0.61
   6  -3  -2    1.12    0.27
   6  -3  -2    0.99    0.22
   6  -3  -2    1.17    0.24
  -6   3   1  108.36    3.23
  -6   3   1  106.62    3.19
  -6   3   1  104.42    3.37
  -6   3   1  105.69    2.19
  -6   3   1  105.55    3.33
   6  -3  -1  106.43    2.18
   6  -3  -1  107.04    3.39
   6  -3  -1  107.93    3.18
  -6   3   0   19.32    1.24
  -6   3   0   18.82    1.39
  -6   3   0   22.75    1.32
  -6   3   0   20.47    0.77
   6  -3   0   19.04    1.39
   6  -3   0   23.04    1.32
  -6   3  -1   11.45    1.37
  -6   3  -1   13.05    0.71
  -6   3  -1   13.97    1.26
  -6   3  -1   11.21    0.66
  -6   3  -1   13.73    1.22
   6  -3   1   13.17    1.03
   6  -3   1   12.18    1.40
  -6   3  -2   85.42    2.70
  -6   3  -2   82.42    2.28
  -6   3  -2   79.84    3.19
  -6   3  -2   86.45    2.36
  -6   3  -2   83.40    2.79
   6  -3   2   84.25    3.23
   6  -3   2   89.88    2.88
  -6   3  -3    2.67    0.76
  -6   3  -3    3.84    0.71
  -6   3  -3    4.16    0.70
  -6   3  -3    3.20    0.56
   6  -3   3    3.90    0.91
   6  -3   3    3.52    0.71
  -6   3  -4  142.34    3.90
  -6   3  -4  143.44    4.68
  -6   3  -4  144.85    3.87
   6  -3   4  143.13    4.68
  -6   3  -5   57.22    2.41
  -6   3  -5   54.06    2.78
  -6   3  -5   56.41    2.33
   6  -3   5   60.99    2.52
   6  -3   5   50.41    2.72
  -6   3  -6   40.65    2.49
  -6   3  -6   44.71    2.27
   6  -3   6   49.84    2.34
   6  -3   6   40.55    2.50
  -6   3  -7  111.84    4.32
  -6   3  -7  110.52    4.03
   6  -3   7  113.78    4.37
  -6   3  -8    7.22    1.75
   6  -3   8    7.96    1.60
  -5   4  10    0.37    0.70
  -5   4   9    9.93    1.60
  -5   4   8   29.46    2.13
   5  -4  -8   36.25    1.89
  -5   4   7   13.69    1.63
  -5   4   7   14.25    1.71
   5  -4  -7   18.49    1.54
  -5   4   6   95.57    3.73
  -5   4   6   91.84    3.58
  -5   4   6   86.97    3.35
   5  -4  -6   90.96    2.86
  -5   4   5    0.63    0.48
  -5   4   5   -0.09    0.25
  -5   4   5    1.30    0.55
   5  -4  -5    0.12    0.28
  -5   4   4   63.26    2.39
  -5   4   4   66.06    2.75
  -5   4   4   69.69    3.06
  -5   4   4   67.34    2.75
   5  -4  -4   67.03    2.18
  -5   4   3   20.29    1.20
  -5   4   3   15.71    0.98
  -5   4   3   17.33    1.32
  -5   4   3   19.59    1.34
  -5   4   3   20.31    1.45
  -5   4   3   18.77    1.35
   5  -4  -3   21.45    1.46
   5  -4  -3   19.38    1.03
   5  -4  -3   17.85    1.05
  -5   4   2   17.66    1.27
  -5   4   2   17.25    1.25
  -5   4   2   16.70    1.14
  -5   4   2   17.83    1.11
  -5   4   2   14.37    1.09
  -5   4   2   17.61    1.02
   5  -4  -2   12.28    1.21
   5  -4  -2   16.55    0.86
   5  -4  -2   14.98    1.01
  -5   4   1   19.66    1.00
  -5   4   1   18.15    1.22
  -5   4   1   20.22    1.02
  -5   4   1   20.11    1.31
  -5   4   1   18.45    1.16
   5  -4  -1   20.03    1.02
   5  -4  -1   18.19    0.78
   5  -4  -1   20.81    1.32
   5  -4  -1   18.96    1.19
  -5   4   0    3.74    0.71
  -5   4   0    4.44    0.65
  -5   4   0    3.59    0.53
  -5   4   0    3.93    0.70
   5  -4   0    3.72    0.60
   5  -4   0    4.02    0.69
   5  -4   0    3.92    0.55
   5  -4   0    4.83    0.85
  -5   4  -1   39.35    1.45
  -5   4  -1   40.09    1.53
  -5   4  -1   43.17    1.79
  -5   4  -1   43.39    1.89
   5  -4   1   42.79    1.88
   5  -4   1   37.15    1.89
   5  -4   1   41.10    1.50
   5  -4   1   41.75    1.53
  -5   4  -2   82.84    2.37
  -5   4  -2   85.74    2.81
  -5   4  -2   83.09    2.26
  -5   4  -2   80.79    2.53
   5  -4   2   83.01    2.78
   5  -4   2   81.44    2.99
  -5   4  -3   98.10    2.81
  -5   4  -3   97.32    2.51
  -5   4  -3   98.29    3.16
   5  -4   3  100.47    3.20
   5  -4   3   98.25    2.56
   5  -4   3  100.67    3.50
  -5   4  -4   33.54    1.36
  -5   4  -4   36.91    1.71
  -5   4  -4   34.44    1.82
   5  -4   4   37.63    1.92
   5  -4   4   37.00    1.44
   5  -4   4   38.47    2.16
  -5   4  -5   26.81    1.27
  -5   4  -5   27.05    1.58
   5  -4   5   31.35    2.02
  -5   4  -6   54.85    2.46
   5  -4   6   55.52    2.80
  -5   4  -7   10.18    1.33
   5  -4   7   15.35    1.86
  -5   4  -8   49.18    2.68
   5  -4   8   46.75    2.73
   5  -4   9    2.43    0.93
  -4   5  10    0.23    0.72
  -4   5   9   26.41    2.62
  -4   5   8   -0.20    0.53
  -4   5   7   23.25    2.33
  -4   5   6    7.32    1.23
  -4   5   6    6.76    1.28
   4  -5  -6    7.68    1.00
  -4   5   5   27.93    1.87
  -4   5   5   25.59    1.78
   4  -5  -5   28.28    1.46
  -4   5   4   21.97    1.96
  -4   5   4   19.42    1.46
   4  -5  -4   22.28    1.24
  -4   5   3    5.89    0.95
  -4   5   3    4.92    0.89
   4  -5  -3    6.02    0.73
   4  -5  -3    6.31    1.09
  -4   5   2   59.73    2.45
  -4   5   2   63.98    2.56
  -4   5   2   60.30    2.34
   4  -5  -2   60.85    1.95
   4  -5  -2   62.94    1.96
   4  -5  -2   59.67    2.49
  -4   5   1   47.81    1.90
  -4   5   1   48.67    2.15
  -4   5   1   50.24    2.08
  -4   5   1   46.32    1.92
   4  -5  -1   48.09    1.59
   4  -5  -1   48.59    2.12
   4  -5  -1   48.47    1.83
  -4   5   0   88.16    2.97
  -4   5   0   94.73    2.89
  -4   5   0   94.73    2.81
  -4   5   0   90.28    2.57
   4  -5   0   91.61    2.53
   4  -5   0   90.77    2.97
   4  -5   0   94.04    2.23
   4  -5   0   91.33    2.82
  -4   5  -1  106.96    2.61
  -4   5  -1  110.45    3.03
  -4   5  -1  108.91    3.26
  -4   5  -1  106.21    3.00
   4  -5   1  107.22    3.27
   4  -5   1  103.09    3.22
   4  -5   1  107.98    2.57
   4  -5   1  107.67    2.18
  -4   5  -2  106.79    2.88
  -4   5  -2  115.03    3.36
  -4   5  -2  104.09    3.00
  -4   5  -2  107.50    2.39
   4  -5   2  108.33    3.40
   4  -5   2  109.22    2.35
   4  -5   2  106.07    3.25
  -4   5  -3   19.74    1.32
  -4   5  -3   22.92    1.31
  -4   5  -3   21.52    0.73
  -4   5  -3   21.14    1.07
   4  -5   3   21.23    1.38
   4  -5   3   21.16    0.71
   4  -5   3   22.91    1.53
   4  -5   3   23.18    0.94
  -4   5  -4    1.48    0.49
  -4   5  -4    1.30    0.46
  -4   5  -4    2.66    0.48
  -4   5  -4    1.29    0.21
   4  -5   4    2.40    0.54
   4  -5   4    1.27    0.55
   4  -5   4    2.18    0.59
  -4   5  -5   59.71    2.41
  -4   5  -5   58.08    1.78
   4  -5   5   59.26    2.35
   4  -5   5   59.76    2.58
   4  -5   5   59.99    2.70
  -4   5  -6    6.09    1.00
   4  -5   6    7.63    1.32
  -4   5  -7    2.29    0.72
   4  -5   7    3.37    0.98
  -4   5  -8   23.71    1.80
   4  -5   8   26.26    2.01
   4  -5   9    3.10    0.95
   4  -5  10   16.35    2.06
  -3   6   9   10.94    1.86
  -3   6   8    2.85    1.00
  -3   6   7   17.69    2.10
  -3   6   6    1.40    0.73
  -3   6   5   20.19    2.10
  -3   6   5   12.68    1.66
  -3   6   4   52.56    2.69
  -3   6   4   60.15    2.87
   3  -6  -4   54.06    2.11
  -3   6   3   21.07    1.61
  -3   6   3   22.96    1.65
   3  -6  -3   19.51    1.20
  -3   6   2   80.62    3.02
  -3   6   2   76.29    3.02
   3  -6  -2   80.18    3.05
   3  -6  -2   82.92    2.48
  -3   6   1   15.55    1.51
  -3   6   1   12.55    1.37
  -3   6   1   12.85    1.34
   3  -6  -1   11.33    1.21
   3  -6  -1   13.87    0.92
   3  -6  -1   12.95    0.93
  -3   6   0  123.63    3.65
  -3   6   0  118.93    3.63
  -3   6   0  114.88    3.44
   3  -6   0  119.85    2.98
   3  -6   0  116.74    3.21
   3  -6   0  112.38    3.52
  -3   6  -1    4.52    0.73
  -3   6  -1    6.77    0.98
  -3   6  -1    5.76    0.92
   3  -6   1    6.89    0.92
   3  -6   1    5.33    0.60
   3  -6   1    3.61    0.50
   3  -6   1    4.30    0.75
  -3   6  -2   85.40    2.87
  -3   6  -2   81.00    2.83
  -3   6  -2   86.30    2.52
   3  -6   2   81.81    2.77
   3  -6   2   80.02    2.81
   3  -6   2   82.55    2.03
   3  -6   2   81.88    2.08
  -3   6  -3   65.69    2.49
  -3   6  -3   58.61    2.37
  -3   6  -3   63.18    1.97
   3  -6   3   62.98    1.35
   3  -6   3   61.99    1.49
   3  -6   3   63.99    2.47
   3  -6   3   69.67    2.57
   3  -6   3   62.96    1.37
  -3   6  -4   15.36    0.81
  -3   6  -4   16.82    1.24
  -3   6  -4   17.00    1.29
   3  -6   4   17.15    1.33
   3  -6   4   14.72    1.41
  -3   6  -5  112.01    3.61
   3  -6   5  115.54    3.69
   3  -6   5  109.22    3.68
  -3   6  -6    3.45    0.79
   3  -6   6    3.33    0.86
   3  -6   6    5.39    1.01
  -3   6  -7   84.38    3.36
   3  -6   7   95.50    3.69
   3  -6   7   90.05    3.53
  -3   6  -8   10.82    1.49
   3  -6   8   14.36    1.97
   3  -6   8   11.39    1.55
   3  -6   9   48.35    3.10
   3  -6   9   50.25    2.81
   3  -6  10   36.11    2.52
   3  -6  10   32.84    2.77
   3  -6  11    5.88    1.25
   3  -6  11    6.11    1.41
  -2   7   8   16.45    2.41
  -2   7   7    1.08    0.91
  -2   7   6   15.14    1.99
  -2   7   5   24.67    2.48
  -2   7   4   18.85    2.07
  -2   7   3   60.47    2.94
  -2   7   3   58.71    3.01
   2  -7  -3   61.34    2.33
  -2   7   2    1.51    0.61
  -2   7   2    0.78    0.51
   2  -7  -2    0.56    0.35
  -2   7   1   67.77    3.01
  -2   7   1   67.47    2.83
   2  -7  -1   64.15    2.26
   2  -7  -1   65.73    2.72
   2  -7  -1   65.99    2.71
  -2   7   0   10.57    1.29
  -2   7   0    9.18    1.26
  -2   7   0    9.60    1.17
   2  -7   0   11.42    1.06
   2  -7   0    8.66    1.10
   2  -7   0   11.31    1.19
   2  -7   0   11.67    1.22
  -2   7  -1    5.56    0.91
  -2   7  -1    6.37    0.95
  -2   7  -1    6.84    1.11
   2  -7   1    6.18    0.92
   2  -7   1    3.12    0.62
   2  -7   1    6.19    0.77
   2  -7   1    5.88    0.88
  -2   7  -2   69.99    2.84
  -2   7  -2   64.71    2.36
  -2   7  -2   65.68    2.58
   2  -7   2   66.80    2.57
   2  -7   2   65.99    2.14
   2  -7   2   68.92    2.16
   2  -7   2   74.90    2.72
  -2   7  -3    9.68    1.28
  -2   7  -3    8.16    0.89
  -2   7  -3    9.94    1.15
   2  -7   3    8.85    1.07
   2  -7   3    9.80    0.89
   2  -7   3    9.88    0.68
   2  -7   3   10.61    1.32
  -2   7  -4  110.37    3.72
  -2   7  -4  105.06    3.45
  -2   7  -4  115.41    2.85
   2  -7   4  110.63    3.53
   2  -7   4  113.33    3.72
   2  -7   4  114.63    2.69
  -2   7  -5   10.17    1.33
   2  -7   5    7.45    1.04
   2  -7   5    6.72    1.10
  -2   7  -6  149.88    4.64
   2  -7   6  146.59    4.59
  -2   7  -7    9.10    1.32
   2  -7   7   10.12    1.46
  -2   7  -8   79.69    3.44
   2  -7   8   82.83    3.49
   2  -7   8   79.16    3.65
   2  -7   9   25.29    2.22
   2  -7   9   27.88    2.08
   2  -7  10    9.53    1.56
   2  -7  10   12.25    1.73
   2  -7  11   15.43    2.07
   2  -7  11    6.24    1.28
   2  -7  12    2.02    0.96
   2  -7  12    3.96    1.45
  -1   8   6   25.00    2.81
  -1   8   5    1.25    0.81
  -1   8   4   24.68    2.60
  -1   8   3    2.09    0.88
  -1   8   2    4.22    1.06
  -1   8   1   21.82    2.11
   1  -8  -1   23.35    1.47
  -1   8   0    0.06    0.44
  -1   8   0    0.26    0.49
   1  -8   0    0.00    0.36
   1  -8   0    0.11    0.36
  -1   8  -1   57.51    2.85
  -1   8  -1   49.37    2.43
   1  -8   1   54.97    2.45
   1  -8   1   54.88    2.39
   1  -8   1   53.32    2.15
  -1   8  -2    2.14    0.62
  -1   8  -2    1.62    0.61
   1  -8   2    1.95    0.64
   1  -8   2    2.00    0.56
   1  -8   2    3.12    0.63
  -1   8  -3   46.63    2.17
  -1   8  -3   46.88    2.52
  -1   8  -3   46.28    2.08
   1  -8   3   44.86    2.28
   1  -8   3   47.53    2.17
   1  -8   3   46.32    1.91
  -1   8  -4   31.70    1.78
  -1   8  -4   30.54    2.04
   1  -8   4   28.18    1.85
   1  -8   4   27.35    1.67
   1  -8   4   27.98    1.44
  -1   8  -5   10.27    1.50
   1  -8   5   12.13    1.33
   1  -8   5   11.68    1.04
   1  -8   5    9.64    1.32
  -1   8  -6   16.93    1.97
   1  -8   6   13.93    1.77
  -1   8  -7   -0.33    0.36
   1  -8   7    0.59    0.53
   1  -8   8    1.97    0.83
   1  -8   9    2.39    0.93
   1  -8  10    1.94    0.87
   1  -8  10    0.55    0.53
   1  -8  11   16.14    2.53
   1  -8  11   14.77    2.12
   1  -8  12    1.98    1.08
   1  -8  12    3.30    1.08
   1  -8  13    3.31    1.57
   1  -8  13    8.01    1.65
   0   9   4   10.37    1.92
   0   9   2   35.52    2.63
   0   9   1    5.78    1.32
   0   9   0   27.04    2.58
   0  -9   0   25.93    3.11
   0   9  -1   30.10    2.61
   0  -9   1   24.53    1.61
   0   9  -2    5.10    1.01
   0  -9   2    6.88    1.22
   0  -9   2    8.10    1.07
   0   9  -3   22.26    1.64
   0  -9   3   22.80    2.21
   0  -9   3   20.01    1.44
   0  -9   4    0.02    0.43
   0  -9   4   -0.04    0.43
   0  -9   5    7.13    1.32
   0  -9   6   26.37    2.60
   0  -9   7   11.23    1.66
   0  -9   8   52.52    3.00
   0  -9   9    0.54    0.53
   0  -9  10   55.46    3.29
   0  -9  11    5.26    1.32
   0  -9  12   12.14    1.91
   0  -9  12    8.33    1.91
   0  -9  13   11.66    2.16
   0  -9  13    7.46    1.86
   1  10   1   12.04    1.98
   1  10   0   25.29    2.74
   1  10  -1    1.12    0.79
   1  10  -2   38.89    2.63
  -1 -10   3    3.79    1.09
  -1 -10   4   31.61    2.93
  -1 -10   5   42.43    2.76
  -1 -10   6    7.92    1.54
  -1 -10   7   54.66    3.26
  -1 -10   8    0.09    0.51
  -1 -10   9   37.14    2.75
  -1 -10  10    2.82    1.11
  -1 -10  11   12.02    2.09
  -2 -11   4   24.69    2.87
  -2 -11   5   -0.59    0.52
  -2 -11   6   15.77    2.30
  -2 -11   7    1.82    0.97
  -2 -11   8    4.99    1.42
 -11  -1   7    1.63    1.00
 -11  -1   7    1.03    1.02
 -11  -1   6   41.28    3.19
 -11  -1   6   44.82    3.94
 -11  -1   5    3.35    1.24
 -11  -1   4   33.84    3.52
 -11  -1   3   29.98    3.38
 -11  -1   2    6.74    1.63
 -11  -1   1   27.59    3.33
 -10   0  10    4.75    1.66
 -10   0   9   20.26    2.60
 -10   0   8    1.42    0.93
 -10   0   8    0.12    0.65
 -10   0   7   30.69    2.94
 -10   0   7   28.19    2.93
 -10   0   6    7.21    1.50
 -10   0   6   11.03    1.83
 -10   0   5   16.30    2.19
 -10   0   5   14.95    2.09
 -10   0   4   13.98    2.10
 -10   0   3    0.41    0.61
 -10   0   2   21.23    2.56
 -10   0   1    1.61    0.85
 -10   0   0   18.84    2.54
  10   0   0   12.49    2.03
 -10   0  -1   18.90    2.47
  10   0   1   19.21    2.52
 -10   0  -2    6.57    1.50
  10   0   2    6.31    1.52
 -10   0  -3   17.99    2.49
  10   0   3   17.71    2.50
  -9   1  11   10.48    2.46
  -9   1  10   18.11    2.87
  -9   1   9   24.82    3.43
  -9   1   9   21.75    2.45
  -9   1   8    1.73    0.81
  -9   1   8    1.12    0.67
  -9   1   7   29.83    2.24
  -9   1   7   26.80    2.56
   9  -1  -7   26.35    1.42
  -9   1   6    3.36    0.96
  -9   1   6    4.30    1.11
  -9   1   5   22.65    2.42
  -9   1   5   16.33    2.07
  -9   1   4   25.06    2.57
  -9   1   4   29.36    2.72
  -9   1   3    8.47    1.49
   9  -1  -3    6.80    1.37
  -9   1   2   39.33    2.54
   9  -1  -2   42.10    2.60
  -9   1   1    8.31    1.51
   9  -1  -1    5.11    1.19
  -9   1   0   50.99    3.02
   9  -1   0   53.70    3.09
  -9   1  -1   13.14    1.96
   9  -1   1   13.06    1.89
  -9   1  -2    7.89    1.56
   9  -1   2    7.68    1.52
  -9   1  -3   23.02    2.60
   9  -1   3   22.50    2.63
  -9   1  -4    0.49    0.65
   9  -1   4    0.51    0.68
  -9   1  -5   27.28    2.85
   9  -1   5   19.93    2.48
   9  -1   5   22.04    2.60
   9  -1   6   -0.13    0.70
  -8   2  11   21.44    3.39
  -8   2  10   26.13    2.64
  -8   2  10   18.93    2.99
  -8   2   9    0.40    0.58
  -8   2   9    0.49    0.84
  -8   2   8   73.51    3.52
  -8   2   8   75.21    4.22
  -8   2   7    1.96    0.83
  -8   2   7    1.58    0.79
  -8   2   6   39.15    2.39
  -8   2   6   41.75    2.31
   8  -2  -6   43.02    1.73
  -8   2   5   85.72    3.56
  -8   2   5   82.88    3.35
   8  -2  -5   84.45    2.29
  -8   2   4    4.86    1.09
  -8   2   4    5.58    1.50
  -8   2   4    6.35    1.13
   8  -2  -4    5.23    1.06
  -8   2   3  112.25    4.01
  -8   2   3  114.59    4.11
  -8   2   3  111.85    4.00
   8  -2  -3  109.71    3.99
  -8   2   2    8.75    1.39
  -8   2   2    8.91    1.28
   8  -2  -2    8.06    1.36
  -8   2   1   61.80    2.97
  -8   2   1   60.96    2.76
   8  -2  -1   61.95    2.97
  -8   2   0   27.99    2.01
  -8   2   0   22.68    1.68
   8  -2   0   23.43    2.22
  -8   2  -1    7.86    1.42
  -8   2  -1    8.50    1.23
   8  -2   1    8.24    1.44
  -8   2  -2   70.18    3.38
  -8   2  -2   75.95    3.14
   8  -2   2   73.98    3.49
  -8   2  -3    0.15    0.51
   8  -2   3   -0.41    0.40
  -8   2  -4   40.08    2.66
   8  -2   4   57.88    3.17
  -8   2  -5   13.69    1.94
   8  -2   5   12.32    1.85
   8  -2   5   13.42    1.83
  -8   2  -6   18.60    2.31
   8  -2   6   18.89    2.29
   8  -2   6   17.16    2.03
  -7   3  11   14.22    2.89
  -7   3  10    0.86    0.74
  -7   3  10    1.35    1.11
  -7   3   9   39.41    4.27
  -7   3   9   40.46    2.63
  -7   3   8   28.09    3.35
  -7   3   8   28.09    2.60
  -7   3   7    2.81    1.03
  -7   3   7    6.27    1.23
   7  -3  -7    3.98    0.72
  -7   3   6   89.82    4.05
  -7   3   6   93.13    3.70
   7  -3  -6   90.69    2.83
  -7   3   5    0.81    0.48
  -7   3   5    1.52    0.62
  -7   3   5    0.89    0.58
  -7   3   5    0.51    0.49
   7  -3  -5    1.09    0.41
   7  -3  -5    1.04    0.52
  -7   3   4  102.12    3.68
  -7   3   4  104.28    3.68
  -7   3   4  100.33    3.65
  -7   3   4   95.55    3.33
   7  -3  -4   96.68    4.11
   7  -3  -4   99.99    2.61
   7  -3  -4   95.57    3.29
  -7   3   3    7.72    1.12
  -7   3   3    9.70    1.31
  -7   3   3    8.07    1.15
  -7   3   3    9.13    1.15
   7  -3  -3    8.56    0.53
   7  -3  -3    5.73    0.88
   7  -3  -3    6.19    1.00
  -7   3   2   77.35    3.04
  -7   3   2   78.55    3.02
  -7   3   2   81.09    3.03
  -7   3   2   78.68    2.82
   7  -3  -2   85.49    2.91
   7  -3  -2   81.92    3.05
  -7   3   1   93.94    3.21
  -7   3   1   94.04    3.08
  -7   3   1   93.61    3.43
  -7   3   1   96.23    3.34
   7  -3  -1   96.10    3.44
   7  -3  -1   90.20    2.99
  -7   3   0    3.04    0.63
  -7   3   0    2.72    0.67
  -7   3   0    2.05    0.68
   7  -3   0    2.14    0.70
   7  -3   0    2.77    0.60
  -7   3  -1  126.65    3.73
  -7   3  -1  126.21    3.76
  -7   3  -1  132.08    4.33
   7  -3   1  126.27    3.69
   7  -3   1  131.74    4.34
  -7   3  -2   15.13    1.41
  -7   3  -2   18.26    1.28
  -7   3  -2   15.49    1.81
   7  -3   2   18.25    1.32
   7  -3   2   18.91    1.96
  -7   3  -3   44.52    2.54
  -7   3  -3   45.18    2.10
   7  -3   3   45.81    2.55
  -7   3  -4   43.52    2.60
  -7   3  -4   47.89    2.20
   7  -3   4   45.57    2.64
  -7   3  -5   12.85    1.79
  -7   3  -5   12.26    1.91
   7  -3   5   16.10    2.02
  -7   3  -6   35.52    2.42
   7  -3   6   33.85    2.12
   7  -3   6   33.25    2.37
  -7   3  -7    2.30    0.86
   7  -3   7    4.37    1.23
  -6   4  10    0.67    0.69
  -6   4   9    4.66    1.18
  -6   4   8    0.72    0.62
  -6   4   8    0.05    0.43
  -6   4   7   25.89    2.36
  -6   4   7   26.79    3.06
  -6   4   7   23.13    1.77
   6  -4  -7   21.75    1.43
  -6   4   6    5.15    1.09
  -6   4   6    5.33    0.95
  -6   4   6    4.83    1.19
   6  -4  -6    6.72    0.92
  -6   4   5   26.22    1.58
  -6   4   5   28.90    2.15
  -6   4   5   27.07    1.86
  -6   4   5   29.05    1.91
   6  -4  -5   30.30    1.49
  -6   4   4   37.26    2.17
  -6   4   4   32.38    1.97
  -6   4   4   31.70    1.60
  -6   4   4   35.49    2.00
   6  -4  -4   32.25    1.45
   6  -4  -4   34.85    1.61
  -6   4   3    1.96    0.61
  -6   4   3    0.88    0.50
  -6   4   3    1.75    0.54
  -6   4   3    1.80    0.45
  -6   4   3    1.69    0.61
   6  -4  -3    1.62    0.60
   6  -4  -3    1.64    0.50
   6  -4  -3    1.98    0.41
  -6   4   2   40.28    2.00
  -6   4   2   43.26    2.00
  -6   4   2   41.04    1.79
  -6   4   2   42.98    2.08
  -6   4   2   39.30    1.51
  -6   4   2   39.63    1.87
   6  -4  -2   41.74    1.89
   6  -4  -2   38.90    1.29
   6  -4  -2   42.09    1.54
   6  -4  -2   41.19    2.00
  -6   4   1   45.28    2.07
  -6   4   1   44.74    1.95
  -6   4   1   41.83    2.02
  -6   4   1   45.11    1.59
  -6   4   1   43.83    1.49
  -6   4   1   43.95    2.04
   6  -4  -1   45.47    2.06
   6  -4  -1   45.76    2.06
   6  -4  -1   46.36    1.52
  -6   4   0   62.82    2.47
  -6   4   0   62.45    2.59
  -6   4   0   64.12    2.48
  -6   4   0   61.37    1.81
  -6   4   0   63.72    2.28
   6  -4   0   61.18    2.41
   6  -4   0   66.45    1.87
   6  -4   0   64.46    2.60
  -6   4  -1   16.80    1.49
  -6   4  -1   15.40    1.19
  -6   4  -1   15.02    0.86
  -6   4  -1   16.13    1.07
   6  -4   1   14.94    0.87
   6  -4   1   14.58    1.59
   6  -4   1   16.50    1.22
  -6   4  -2   17.69    1.08
  -6   4  -2   14.96    0.92
  -6   4  -2   15.98    1.20
   6  -4   2   14.78    1.36
   6  -4   2   18.39    1.80
  -6   4  -3   47.67    1.84
  -6   4  -3   44.31    2.10
  -6   4  -3   45.54    1.77
   6  -4   3   44.90    2.13
   6  -4   3   46.78    2.42
  -6   4  -4    0.18    0.29
  -6   4  -4    0.45    0.30
   6  -4   4    0.18    0.48
   6  -4   4    0.13    0.45
  -6   4  -5   23.02    1.50
   6  -4   5   21.84    2.17
  -6   4  -6    4.32    0.86
   6  -4   6    6.71    1.36
  -6   4  -7    8.45    1.30
   6  -4   7   11.33    1.72
   6  -4   8    2.16    0.85
  -5   5  10   26.78    2.83
  -5   5   9   13.93    2.00
  -5   5   8   26.00    2.49
  -5   5   7   46.65    2.70
  -5   5   7   28.78    2.91
   5  -5  -7   42.64    2.04
  -5   5   6    0.33    0.49
  -5   5   6    0.24    0.42
   5  -5  -6   -0.05    0.33
  -5   5   5   43.14    2.21
  -5   5   5   31.06    2.05
   5  -5  -5   35.39    1.69
  -5   5   4   49.93    2.46
  -5   5   4   51.02    2.52
  -5   5   4   52.76    2.36
   5  -5  -4   54.85    2.02
  -5   5   3   65.08    2.69
  -5   5   3   59.03    2.22
  -5   5   3   56.32    2.32
  -5   5   3   61.93    2.57
   5  -5  -3   60.30    2.05
   5  -5  -3   59.01    2.16
  -5   5   2  128.15    3.75
  -5   5   2  129.54    3.94
  -5   5   2  133.86    3.63
   5  -5  -2  133.05    3.40
   5  -5  -2  122.68    3.91
   5  -5  -2  128.99    3.12
  -5   5   1   74.87    2.46
  -5   5   1   82.15    2.85
  -5   5   1   80.04    2.60
  -5   5   1   75.15    2.83
   5  -5  -1   76.83    2.57
   5  -5  -1   74.95    2.02
   5  -5  -1   73.10    2.79
  -5   5   0  136.80    3.78
  -5   5   0  134.60    3.44
  -5   5   0  138.54    3.47
  -5   5   0  138.35    3.98
   5  -5   0  129.82    3.85
   5  -5   0  134.98    2.69
   5  -5   0  131.41    3.38
   5  -5   0  136.02    3.82
  -5   5  -1   19.93    1.34
  -5   5  -1   20.79    1.07
  -5   5  -1   22.30    1.31
  -5   5  -1   21.41    1.19
   5  -5   1   19.02    1.39
   5  -5   1   20.64    1.39
  -5   5  -2  211.74    4.30
  -5   5  -2  217.91    4.81
  -5   5  -2  211.32    4.84
  -5   5  -2  217.99    5.30
   5  -5   2  210.94    5.27
   5  -5   2  210.12    4.25
   5  -5   2  215.71    5.48
  -5   5  -3   38.05    1.64
  -5   5  -3   40.66    1.75
  -5   5  -3   39.06    1.95
  -5   5  -3   39.16    1.31
   5  -5   3   39.11    2.10
   5  -5   3   36.89    1.91
   5  -5   3   38.92    1.30
  -5   5  -4   27.69    1.34
  -5   5  -4   27.57    1.53
  -5   5  -4   28.10    1.08
   5  -5   4   27.00    1.82
   5  -5   4   29.31    1.24
   5  -5   4   27.80    1.72
  -5   5  -5   80.84    2.93
   5  -5   5   84.96    3.42
  -5   5  -6    2.38    0.65
   5  -5   6    2.11    0.78
  -5   5  -7   73.99    3.11
   5  -5   7   68.93    3.27
  -5   5  -8   10.74    1.51
   5  -5   8   13.15    1.97
   5  -5   9   21.96    2.41
   5  -5  10   20.00    2.33
  -4   6   9    3.82    1.20
  -4   6   8   12.95    1.87
  -4   6   7    2.15    0.82
  -4   6   6   38.05    2.48
   4  -6  -6   46.01    2.10
  -4   6   5   33.31    2.18
  -4   6   5   30.87    2.11
   4  -6  -5   32.83    1.68
  -4   6   4   42.40    2.34
  -4   6   4   45.09    2.44
   4  -6  -4   46.11    1.93
  -4   6   3  111.85    3.84
  -4   6   3  115.94    3.92
   4  -6  -3  112.80    3.18
  -4   6   2    7.72    1.09
  -4   6   2   11.63    1.39
   4  -6  -2    9.66    0.95
  -4   6   1   62.94    2.51
  -4   6   1   60.72    2.50
   4  -6  -1   58.64    1.95
   4  -6  -1   57.87    2.50
   4  -6  -1   61.89    2.18
  -4   6   0   31.76    1.78
  -4   6   0   33.09    1.71
  -4   6   0   30.92    1.68
   4  -6   0   32.54    1.30
   4  -6   0   29.50    1.58
   4  -6   0   30.19    1.43
   4  -6   0   35.29    1.85
  -4   6  -1   56.79    2.26
  -4   6  -1   61.56    2.48
  -4   6  -1   55.23    2.15
   4  -6   1   51.88    2.23
   4  -6   1   58.79    2.40
   4  -6   1   56.41    1.63
   4  -6   1   52.50    1.75
  -4   6  -2   47.57    1.90
  -4   6  -2   50.82    2.23
  -4   6  -2   49.90    2.10
   4  -6   2   50.66    1.46
   4  -6   2   48.93    1.23
   4  -6   2   47.96    2.18
   4  -6   2   46.93    2.16
  -4   6  -3    4.50    0.66
  -4   6  -3    4.65    0.83
  -4   6  -3    4.10    0.77
   4  -6   3    3.34    0.29
   4  -6   3    3.56    0.81
   4  -6   3    4.46    0.77
  -4   6  -4  103.24    2.70
  -4   6  -4  102.07    3.32
   4  -6   4  103.10    2.76
   4  -6   4  108.91    3.58
   4  -6   4  103.34    3.59
  -4   6  -5    6.89    1.07
   4  -6   5    9.47    1.11
   4  -6   5    6.42    1.10
  -4   6  -6   39.55    2.11
   4  -6   6   43.20    2.44
   4  -6   6   48.06    2.38
  -4   6  -7   26.81    1.85
   4  -6   7   27.87    2.07
  -4   6  -8   10.63    1.48
   4  -6   8   12.01    1.73
   4  -6   9   14.34    1.93
   4  -6  10    3.10    1.04
   4  -6  11   15.15    2.11
  -3   7   8    2.95    1.18
  -3   7   7   13.73    1.94
  -3   7   6   33.77    2.47
  -3   7   5    6.45    1.30
  -3   7   4   46.28    2.63
   3  -7  -4   46.00    2.07
  -3   7   3    0.93    0.57
  -3   7   3    0.88    0.61
   3  -7  -3    0.51    0.40
  -3   7   2   12.51    1.51
  -3   7   2   14.00    1.73
   3  -7  -2   13.82    1.22
  -3   7   1   45.42    2.29
  -3   7   1   50.23    2.47
   3  -7  -1   45.92    1.85
  -3   7   0   22.48    1.49
  -3   7   0   23.66    1.63
   3  -7   0   24.92    1.30
   3  -7   0   24.89    1.40
   3  -7   0   22.08    1.54
  -3   7  -1   72.56    2.62
  -3   7  -1   71.04    2.85
  -3   7  -1   69.79    2.96
   3  -7   1   70.23    2.76
   3  -7   1   70.31    2.56
   3  -7   1   71.10    2.21
  -3   7  -2    0.81    0.41
  -3   7  -2    1.02    0.50
  -3   7  -2    1.13    0.41
   3  -7   2    1.83    0.38
   3  -7   2    1.69    0.39
   3  -7   2    1.33    0.55
   3  -7   2    1.23    0.37
   3  -7   2    1.86    0.59
  -3   7  -3   37.81    2.02
  -3   7  -3   38.24    1.61
  -3   7  -3   38.21    2.48
   3  -7   3   37.61    1.33
   3  -7   3   39.45    1.99
   3  -7   3   38.40    1.21
   3  -7   3   40.83    2.03
  -3   7  -4   28.93    1.26
  -3   7  -4   30.92    1.82
   3  -7   4   26.66    1.72
   3  -7   4   31.20    1.81
  -3   7  -5   22.78    1.61
   3  -7   5   20.30    1.57
  -3   7  -6   26.78    1.83
   3  -7   6   24.04    1.77
  -3   7  -7    2.66    0.83
   3  -7   7    1.49    0.68
   3  -7   7    2.96    0.86
  -3   7  -8   25.38    1.93
   3  -7   8   26.77    2.05
   3  -7   8   27.02    2.08
   3  -7   9   21.31    2.27
   3  -7  10   13.56    1.92
   3  -7  11   11.42    1.75
   3  -7  12    0.91    0.89
  -2   8   7    8.31    1.74
  -2   8   6    5.02    1.34
  -2   8   5    3.50    1.08
  -2   8   4   19.63    2.26
  -2   8   3    1.98    0.84
  -2   8   2   82.46    3.57
   2  -8  -2   79.30    2.81
  -2   8   1   10.04    1.50
  -2   8   1   10.51    1.47
   2  -8  -1    9.67    1.07
   2  -8  -1    9.23    1.31
  -2   8   0   41.29    2.40
  -2   8   0   37.11    2.12
   2  -8   0   37.12    1.79
   2  -8   0   40.14    2.08
  -2   8  -1   54.44    2.43
  -2   8  -1   54.91    2.72
   2  -8   1   51.76    2.23
   2  -8   1   54.11    2.09
   2  -8   1   52.44    2.43
   2  -8   1   54.02    2.36
  -2   8  -2   17.00    1.56
  -2   8  -2   20.80    2.10
   2  -8   2   17.76    1.39
   2  -8   2   19.51    1.47
   2  -8   2   18.10    1.17
   2  -8   2   17.31    1.17
  -2   8  -3   63.63    2.92
  -2   8  -3   69.35    2.47
   2  -8   3   63.37    2.75
   2  -8   3   68.25    2.74
   2  -8   3   69.70    2.26
  -2   8  -4   -0.13    0.38
   2  -8   4    0.24    0.44
   2  -8   4    0.05    0.30
   2  -8   4    0.38    0.33
  -2   8  -5   34.18    2.12
   2  -8   5   36.01    2.15
  -2   8  -6   48.24    2.59
   2  -8   6   46.93    2.55
  -2   8  -7    1.14    0.60
   2  -8   7    0.37    0.53
   2  -8   8   53.64    2.86
   2  -8   9    0.15    0.49
   2  -8   9    0.38    0.75
   2  -8  10   10.76    2.15
   2  -8  10    8.85    1.61
   2  -8  11   19.86    2.42
   2  -8  12   13.37    2.02
   2  -8  13   17.80    2.53
  -1   9   5   33.80    3.33
  -1   9   4    3.75    1.23
  -1   9   3   43.51    2.98
  -1   9   2   12.57    1.79
  -1   9   1   26.17    2.52
   1  -9  -1   31.91    1.87
  -1   9   0   42.72    2.56
   1  -9   0   46.72    2.18
  -1   9  -1    4.87    1.05
   1  -9   1    7.11    1.02
  -1   9  -2   68.03    2.95
   1  -9   2   70.19    2.96
   1  -9   2   63.00    2.50
  -1   9  -3   12.82    2.13
  -1   9  -3   12.84    1.47
   1  -9   3   13.58    1.67
   1  -9   3   10.47    1.16
  -1   9  -4   45.92    2.74
   1  -9   4   42.43    1.92
   1  -9   4   43.61    2.43
  -1   9  -5   38.41    2.96
   1  -9   5   33.65    2.21
   1  -9   5   38.11    1.76
   1  -9   6    9.14    1.44
   1  -9   7   67.09    3.31
   1  -9   8    2.29    0.84
   1  -9   9   40.73    2.72
   1  -9  10   16.39    2.16
   1  -9  11   15.81    2.24
   1  -9  12   18.79    2.46
   1  -9  13    0.21    0.86
   0  10   2    1.24    0.86
   0  10   1   22.75    2.59
   0  10   0    3.80    1.06
   0  10  -1   14.60    1.91
   0  10  -2   27.81    2.11
   0 -10   3    1.35    0.73
   0 -10   4   47.90    2.79
   0 -10   5    3.12    1.06
   0 -10   6   56.80    3.14
   0 -10   7   12.50    1.92
   0 -10   8    3.89    1.11
   0 -10   9   24.57    2.64
   0 -10  10    0.33    0.66
   0 -10  11   11.75    2.11
   0 -10  12    0.16    0.73
   1  11  -1   21.66    2.57
   1  11  -2   -0.01    0.77
  -1 -11   4    9.73    1.73
  -1 -11   5    3.44    1.19
  -1 -11   6   23.46    2.76
  -1 -11   7    0.78    0.78
  -1 -11   8   26.81    3.00
  -1 -11   9    3.64    1.20
  -1 -11  10   11.07    2.02
 -11   0   8    0.28    0.74
 -11   0   8   -0.24    0.77
 -11   0   7   14.92    2.37
 -11   0   7   13.00    2.17
 -11   0   6    3.80    1.30
 -11   0   6    3.50    1.27
 -11   0   5   15.72    2.29
 -11   0   5   10.93    1.88
 -11   0   4   17.79    2.58
 -11   0   3    2.83    1.10
 -11   0   2   25.36    3.02
 -11   0   1    1.37    0.89
 -11   0   0   19.38    2.80
 -11   0  -1    2.35    1.17
 -10   1  10   14.25    2.66
 -10   1   9   -0.30    0.71
 -10   1   9    1.56    0.92
 -10   1   8   56.10    3.28
 -10   1   8   53.53    3.24
 -10   1   7   12.03    1.82
 -10   1   7   14.68    2.09
 -10   1   6   35.07    2.58
 -10   1   6   43.60    2.78
 -10   1   5   41.80    2.79
 -10   1   5   39.09    2.65
 -10   1   4    8.31    1.55
 -10   1   2    1.19    0.71
  10  -1  -2    0.80    0.74
 -10   1   1   39.32    2.81
  10  -1  -1   43.12    2.92
 -10   1   0   18.58    2.39
  10  -1   0   19.53    2.41
 -10   1  -1   12.51    2.14
  10  -1   1   15.63    2.29
 -10   1  -2   40.30    3.03
  10  -1   2   44.20    3.15
 -10   1  -3    0.82    0.76
  10  -1   3    0.23    0.70
 -10   1  -4   15.63    2.33
  10  -1   4   20.64    2.74
  -9   2  11   14.16    2.88
  -9   2  10    0.65    1.12
  -9   2  10    1.59    0.88
  -9   2   9   11.48    2.28
  -9   2   9   11.41    1.76
  -9   2   8    5.48    1.35
  -9   2   8   10.09    2.04
  -9   2   7   20.02    2.31
  -9   2   7   15.41    1.88
  -9   2   7   14.46    2.20
  -9   2   6   26.08    2.42
  -9   2   6   23.83    2.43
   9  -2  -6   22.71    1.28
  -9   2   5   10.64    1.73
  -9   2   5    8.22    1.40
  -9   2   4   51.54    2.85
  -9   2   4   55.92    2.91
   9  -2  -4   54.87    2.87
  -9   2   3    1.44    0.72
  -9   2   3    0.62    0.55
   9  -2  -3    0.79    0.68
  -9   2   2   18.83    2.23
   9  -2  -2   23.47    2.42
  -9   2   1   31.50    2.91
   9  -2  -1   32.63    2.34
  -9   2   0   10.08    1.58
   9  -2   0   10.11    1.57
  -9   2  -1   41.88    2.71
   9  -2   1   43.11    2.74
  -9   2  -2    1.54    0.84
   9  -2   2    2.65    0.99
  -9   2  -3   29.19    2.82
   9  -2   3   34.51    2.57
  -9   2  -4   10.03    1.90
   9  -2   4   11.43    1.90
  -9   2  -5   21.19    2.58
   9  -2   5   19.04    2.38
  -9   2  -6   15.97    2.24
   9  -2   6   14.02    2.08
  -8   3  11    5.25    1.78
  -8   3  10   -0.93    0.69
  -8   3  10    0.28    0.68
  -8   3   9   24.20    2.61
  -8   3   9   21.11    3.20
  -8   3   8    0.44    0.73
  -8   3   8    1.46    0.67
  -8   3   7    3.58    1.10
  -8   3   7    4.34    1.26
  -8   3   6   21.56    3.02
  -8   3   6   19.54    2.12
  -8   3   6   13.41    1.93
   8  -3  -6   17.93    1.17
  -8   3   5    1.43    0.68
  -8   3   5    0.06    0.45
  -8   3   5    1.95    0.67
   8  -3  -5    1.32    0.41
   8  -3  -5    1.57    0.67
  -8   3   4   16.68    1.79
  -8   3   4   13.30    1.61
  -8   3   4   14.48    1.76
   8  -3  -4   14.85    0.77
   8  -3  -4   16.49    1.73
  -8   3   3   10.51    1.56
  -8   3   3    8.60    1.31
  -8   3   3    8.61    1.31
   8  -3  -3   12.47    1.36
   8  -3  -3   10.05    1.43
  -8   3   2   27.84    1.89
  -8   3   2   29.72    1.72
  -8   3   2   27.00    1.87
  -8   3   2   27.03    1.81
   8  -3  -2   31.60    1.99
   8  -3  -2   26.92    1.64
  -8   3   1    7.20    1.31
  -8   3   1    8.91    1.09
  -8   3   1    7.14    1.10
   8  -3  -1    9.06    1.39
   8  -3  -1    8.76    1.07
  -8   3   0   46.96    2.18
  -8   3   0   53.76    2.44
  -8   3   0   50.73    2.68
   8  -3   0   47.69    2.61
   8  -3   0   45.97    2.11
  -8   3  -1   21.84    1.59
  -8   3  -1   22.50    2.20
   8  -3   1   24.00    2.30
  -8   3  -2   10.62    1.29
  -8   3  -2    9.18    1.56
   8  -3   2    9.49    1.57
  -8   3  -3   34.18    2.00
  -8   3  -3   32.24    2.31
   8  -3   3   32.90    2.36
  -8   3  -4   -0.09    0.53
  -8   3  -4    0.31    0.39
   8  -3   4    0.84    0.67
  -8   3  -5   18.45    2.22
   8  -3   5   19.38    2.33
  -8   3  -6    1.23    0.73
   8  -3   6    2.69    1.04
  -8   3  -7    0.83    0.79
   8  -3   7    0.85    0.82
  -7   4  10   31.64    3.01
  -7   4   9   17.30    2.19
  -7   4   8   17.01    2.15
  -7   4   8   10.66    2.06
  -7   4   7   52.15    2.89
  -7   4   7   58.83    3.57
  -7   4   6    0.19    0.43
  -7   4   6    0.33    0.57
   7  -4  -6    0.61    0.39
  -7   4   5   98.66    3.82
  -7   4   5  101.73    3.88
  -7   4   5   95.11    3.98
   7  -4  -5   99.30    2.91
  -7   4   4   35.98    1.84
  -7   4   4   35.91    2.10
  -7   4   4   33.85    2.08
  -7   4   4   30.94    2.00
   7  -4  -4   34.04    1.80
   7  -4  -4   35.70    1.51
  -7   4   3  132.90    3.94
  -7   4   3  137.36    4.23
  -7   4   3  128.27    3.97
  -7   4   3  126.95    4.18
   7  -4  -3  134.23    3.01
   7  -4  -3  128.25    3.86
  -7   4   2   79.50    3.00
  -7   4   2   79.28    2.98
  -7   4   2   71.95    2.97
   7  -4  -2   76.29    2.92
   7  -4  -2   79.91    2.98
   7  -4  -2   81.35    1.59
  -7   4   1   17.61    1.74
  -7   4   1   19.41    1.72
  -7   4   1   19.56    1.70
  -7   4   1   20.55    1.97
   7  -4  -1   16.30    1.28
   7  -4  -1   15.25    1.58
  -7   4   0   55.30    2.62
  -7   4   0   57.20    2.49
  -7   4   0   60.39    2.39
  -7   4   0   59.59    2.48
   7  -4   0   58.50    2.44
   7  -4   0   61.37    2.72
  -7   4  -1    6.49    0.96
  -7   4  -1    6.40    1.19
  -7   4  -1    3.88    0.72
   7  -4   1    4.05    0.91
   7  -4   1    3.86    0.78
  -7   4  -2   47.30    2.01
  -7   4  -2   45.23    2.51
   7  -4   2   50.75    2.28
   7  -4   2   40.49    2.37
  -7   4  -3    9.27    1.05
  -7   4  -3    6.07    1.19
   7  -4   3   12.21    1.70
   7  -4   3    9.23    1.45
  -7   4  -4   39.43    1.87
  -7   4  -4   34.64    2.35
   7  -4   4   37.53    2.40
  -7   4  -5   25.07    2.46
   7  -4   5   21.38    2.32
  -7   4  -6    1.18    0.70
   7  -4   6    2.56    0.92
  -7   4  -7   61.26    3.29
   7  -4   7   55.54    3.20
  -7   4  -8    0.69    0.77
   7  -4   8    0.07    0.64
  -6   5  10   10.71    1.82
  -6   5   9    5.33    1.31
  -6   5   8   30.12    2.79
  -6   5   7    1.24    0.59
  -6   5   7    0.99    0.65
   6  -5  -7    1.16    0.53
  -6   5   6   85.06    3.38
  -6   5   6   82.35    3.65
   6  -5  -6   84.12    2.88
  -6   5   5    8.91    1.24
  -6   5   5   11.27    1.46
  -6   5   5   15.19    1.77
   6  -5  -5   10.16    1.06
  -6   5   4   81.33    2.92
  -6   5   4   79.91    3.31
  -6   5   4   89.67    3.41
   6  -5  -4   83.92    2.62
  -6   5   3    7.46    1.09
  -6   5   3    8.72    1.28
  -6   5   3   10.48    1.17
   6  -5  -3    7.50    0.95
   6  -5  -3    7.43    0.81
  -6   5   2   17.88    1.32
  -6   5   2   17.86    1.24
  -6   5   2   14.79    1.04
  -6   5   2   18.40    1.74
   6  -5  -2   17.28    0.93
   6  -5  -2   15.59    1.17
  -6   5   1   69.26    2.26
  -6   5   1   70.50    2.74
  -6   5   1   68.27    2.48
   6  -5  -1   67.19    2.73
   6  -5  -1   69.34    2.61
   6  -5  -1   66.94    1.71
  -6   5   0    1.09    0.35
  -6   5   0    2.12    0.59
  -6   5   0    1.61    0.47
  -6   5   0    1.19    0.48
   6  -5   0    1.29    0.53
   6  -5   0    0.24    0.35
  -6   5  -1   66.95    2.18
  -6   5  -1   64.08    2.49
  -6   5  -1   71.61    2.29
  -6   5  -1   71.38    2.73
   6  -5   1   69.81    2.82
   6  -5   1   70.17    2.25
   6  -5   1   64.45    2.64
  -6   5  -2   63.58    2.03
  -6   5  -2   60.58    2.32
  -6   5  -2   58.34    2.05
   6  -5   2   54.37    2.58
   6  -5   2   46.61    1.78
   6  -5   2   60.28    2.51
  -6   5  -3    9.35    0.87
  -6   5  -3   11.02    1.17
  -6   5  -3   10.15    1.05
   6  -5   3   10.67    0.92
   6  -5   3   12.37    1.62
   6  -5   3    9.74    1.20
  -6   5  -4   72.90    2.60
   6  -5   4   73.38    3.25
  -6   5  -5    6.24    0.95
   6  -5   5    6.42    1.30
  -6   5  -6   45.51    2.29
   6  -5   6   44.82    2.69
  -6   5  -7   12.94    1.58
   6  -5   7   10.06    1.59
   6  -5   8   11.46    1.73
   6  -5   9   27.66    2.78
  -5   6  10    4.48    1.36
  -5   6   9    6.85    1.50
  -5   6   8   13.54    1.99
  -5   6   7    1.21    0.72
   5  -6  -7    2.27    0.66
  -5   6   6    6.96    1.28
   5  -6  -6    6.75    0.97
  -5   6   5    0.67    0.48
  -5   6   5    0.31    0.48
   5  -6  -5   -0.20    0.30
  -5   6   4    2.34    0.74
  -5   6   4    1.38    0.57
   5  -6  -4    2.13    0.55
  -5   6   3   10.07    1.44
  -5   6   3   11.83    1.36
   5  -6  -3   12.44    1.11
  -5   6   2   12.66    1.34
  -5   6   2   14.98    1.62
   5  -6  -2   14.51    0.97
   5  -6  -2   16.42    1.09
  -5   6   1   27.84    1.70
  -5   6   1   26.76    1.56
  -5   6   1   29.97    1.59
   5  -6  -1   25.98    1.48
   5  -6  -1   29.96    1.28
  -5   6   0    0.07    0.25
  -5   6   0   -0.08    0.26
  -5   6   0    0.57    0.38
   5  -6   0   -0.02    0.20
   5  -6   0   -0.29    0.25
   5  -6   0    0.29    0.34
  -5   6  -1   36.81    1.79
  -5   6  -1   36.24    1.50
  -5   6  -1   36.51    1.74
   5  -6   1   35.11    1.89
   5  -6   1   37.55    1.49
   5  -6   1   37.43    1.96
   5  -6   1   36.73    1.03
  -5   6  -2    3.04    0.64
  -5   6  -2    2.82    0.45
  -5   6  -2    3.38    0.67
   5  -6   2    3.75    0.89
   5  -6   2    2.77    0.44
   5  -6   2    2.73    0.67
  -5   6  -3   13.09    1.30
  -5   6  -3   15.50    1.06
  -5   6  -3   15.87    0.74
   5  -6   3   16.60    1.55
   5  -6   3   19.10    1.95
  -5   6  -4    2.44    0.62
  -5   6  -4    3.11    0.59
   5  -6   4    1.75    0.75
  -5   6  -5   29.83    1.75
   5  -6   5   24.74    1.88
  -5   6  -6   16.12    1.69
   5  -6   6   15.37    1.88
  -5   6  -7    0.28    0.45
   5  -6   7    0.11    0.50
  -5   6  -8   17.44    1.92
   5  -6   8   17.72    2.09
   5  -6   9    6.50    1.40
   5  -6  10    7.85    1.56
  -4   7   8    0.61    0.71
  -4   7   7   25.35    2.68
  -4   7   6   17.11    2.15
  -4   7   5    1.50    0.79
   4  -7  -5    2.18    0.65
  -4   7   4  156.43    5.19
  -4   7   4  155.44    5.17
   4  -7  -4  161.14    4.30
  -4   7   3   -0.05    0.37
  -4   7   3   -0.39    0.33
   4  -7  -3    1.64    0.48
  -4   7   2   91.14    3.51
  -4   7   2   91.26    3.47
   4  -7  -2   91.24    2.81
  -4   7   1   19.75    1.84
  -4   7   1   15.42    1.62
   4  -7  -1   15.72    1.05
   4  -7  -1   16.62    1.18
  -4   7   0   36.56    1.94
  -4   7   0   40.77    2.10
   4  -7   0   37.89    1.87
   4  -7   0   41.18    1.62
  -4   7  -1   43.82    2.01
  -4   7  -1   41.60    2.08
   4  -7   1   40.12    1.60
   4  -7   1   38.31    1.48
   4  -7   1   41.51    2.14
   4  -7   1   38.98    1.95
  -4   7  -2   20.20    1.29
  -4   7  -2   21.41    1.50
   4  -7   2   19.60    0.93
   4  -7   2   23.51    1.56
   4  -7   2   19.77    1.48
   4  -7   2   22.07    1.15
  -4   7  -3   57.53    2.09
  -4   7  -3   56.63    2.45
   4  -7   3   51.17    2.41
   4  -7   3   53.55    3.60
  -4   7  -4    1.85    0.65
  -4   7  -4    1.87    0.48
   4  -7   4    1.64    0.67
  -4   7  -5   27.83    1.79
   4  -7   5   29.87    1.98
  -4   7  -6   36.69    2.13
   4  -7   6   34.84    2.22
  -4   7  -7   24.34    1.82
   4  -7   7   24.23    2.39
  -4   7  -8   32.68    2.17
   4  -7   8   31.71    2.30
   4  -7   9    3.65    1.17
   4  -7  10   45.73    2.99
   4  -7  11    9.92    1.81
   4  -7  12   21.05    2.62
  -3   8   7   17.32    2.42
  -3   8   6    3.98    1.19
  -3   8   5   56.33    3.23
  -3   8   4   12.97    1.83
  -3   8   3   47.93    2.75
   3  -8  -3   45.95    2.12
  -3   8   2    4.67    1.25
  -3   8   2    7.66    1.26
   3  -8  -2    6.73    0.96
  -3   8   1   43.72    2.38
  -3   8   1   44.31    2.54
   3  -8  -1   48.80    2.03
  -3   8   0   57.99    2.65
  -3   8   0   56.34    2.78
   3  -8   0   56.89    2.17
   3  -8   0   57.70    2.50
  -3   8  -1    0.05    0.32
  -3   8  -1    0.99    0.56
   3  -8   1    0.44    0.43
   3  -8   1    0.97    0.43
   3  -8   1    0.83    0.42
  -3   8  -2   59.59    2.79
  -3   8  -2   59.86    2.44
   3  -8   2   60.29    2.09
   3  -8   2   64.51    2.64
  -3   8  -3   36.32    2.16
  -3   8  -3   41.62    1.84
   3  -8   3   39.19    2.12
   3  -8   3   40.27    1.56
  -3   8  -4   45.09    2.43
   3  -8   4   45.21    2.37
   3  -8   4   47.72    1.54
  -3   8  -5   89.39    3.50
   3  -8   5   83.39    3.39
  -3   8  -6   28.88    1.99
   3  -8   6   24.30    1.85
  -3   8  -7   64.39    3.08
   3  -8   7   60.83    3.05
   3  -8   8    1.62    0.78
   3  -8   9   46.21    2.86
   3  -8  10    1.81    0.88
   3  -8  11   15.04    2.15
   3  -8  12    8.54    1.72
   3  -8  13    5.00    1.52
  -2   9   5    0.35    0.74
  -2   9   4    5.52    1.35
  -2   9   3    5.79    1.30
  -2   9   2    0.85    0.69
   2  -9  -2    0.85    0.54
  -2   9   1   13.08    1.74
   2  -9  -1   12.25    1.33
  -2   9   0    3.00    0.87
   2  -9   0    1.88    0.69
   2  -9   0    1.95    0.55
  -2   9  -1   16.62    1.73
   2  -9   1   16.05    1.41
  -2   9  -2   18.03    2.06
  -2   9  -2   18.34    1.76
   2  -9   2   15.76    1.36
   2  -9   2   19.52    1.96
  -2   9  -3   16.66    1.57
  -2   9  -3   18.07    2.00
   2  -9   3   17.62    1.85
   2  -9   3   15.23    1.30
  -2   9  -4   62.33    3.09
   2  -9   4   63.80    2.99
   2  -9   4   62.79    2.24
  -2   9  -5    9.75    1.57
   2  -9   5    7.69    1.36
   2  -9   5    6.58    0.80
   2  -9   6   30.43    2.15
   2  -9   7    6.52    1.19
   2  -9   8   28.56    2.20
   2  -9   9   24.62    2.57
   2  -9  10    5.22    1.25
   2  -9  11   26.61    2.82
   2  -9  12    0.21    0.67
   2  -9  13    6.79    1.66
  -1  10   3   11.14    1.96
  -1  10   2   19.36    2.49
  -1  10   1   22.95    2.55
  -1  10   0    2.85    1.04
  -1  10  -1   46.72    2.75
  -1  10  -2    1.93    0.75
   1 -10   3   23.81    2.28
   1 -10   4    3.02    0.95
   1 -10   5    0.34    0.48
   1 -10   6   33.97    2.39
   1 -10   7   -0.14    0.53
   1 -10   8   32.12    2.47
   1 -10   9    8.55    1.65
   1 -10  10    8.02    1.57
   1 -10  11   22.23    2.64
   1 -10  12    3.28    1.24
   0  11   0   27.05    2.92
   0  11  -1    5.12    1.40
   0  11  -2   22.82    2.45
   0 -11   4    1.29    0.82
   0 -11   6    1.31    0.81
   0 -11   7   33.91    2.61
   0 -11   8   15.71    2.30
   0 -11   9   21.66    2.77
   0 -11  10   26.00    3.08
   0 -11  11    3.46    1.24
 -11   1   9   19.97    2.70
 -11   1   8    6.32    1.53
 -11   1   8    6.49    1.55
 -11   1   7    9.78    1.84
 -11   1   7    9.74    1.91
 -11   1   6   37.17    2.79
 -11   1   6   39.64    3.61
 -11   1   5    1.69    0.98
 -11   1   5    1.48    0.90
 -11   1   4   25.15    2.98
 -11   1   4   19.02    2.42
 -11   1   3    5.05    1.39
 -11   1   2   14.08    2.22
 -11   1   1   14.88    2.23
  11  -1  -1   15.37    2.27
 -11   1   0    7.40    1.63
  11  -1   0    9.66    1.86
 -11   1  -1    7.55    1.75
  11  -1   1    7.21    1.69
 -11   1  -2    0.09    0.77
  11  -1   2   -0.45    0.71
 -10   2  10    1.14    1.22
 -10   2   9   22.63    2.66
 -10   2   8    0.88    0.87
 -10   2   7   18.43    2.32
 -10   2   7   18.83    2.25
 -10   2   6   11.08    1.82
 -10   2   6   11.44    1.81
 -10   2   5    2.00    0.93
 -10   2   5    1.84    0.82
 -10   2   4   34.62    2.48
 -10   2   4   35.50    2.52
  10  -2  -4   33.89    2.46
 -10   2   3    0.36    0.52
 -10   2   3   -0.29    0.55
  10  -2  -3    0.60    0.66
 -10   2   2   32.27    3.12
  10  -2  -2   24.41    2.58
 -10   2   1   15.82    2.25
  10  -2  -1   10.78    1.79
 -10   2   0    2.15    0.94
  10  -2   0    1.51    0.75
 -10   2  -1   36.10    2.71
  10  -2   1   36.54    2.76
 -10   2  -2    0.03    0.61
  10  -2   2   -0.09    0.53
 -10   2  -3   12.85    2.09
  10  -2   3   15.29    2.25
 -10   2  -4    1.36    0.83
  10  -2   4    2.48    1.06
 -10   2  -5   11.69    2.04
  10  -2   5   12.03    2.10
  -9   3  10   28.18    2.96
  -9   3   9   18.44    2.38
  -9   3   8   33.97    3.12
  -9   3   7   35.05    2.51
  -9   3   6    8.68    1.54
  -9   3   6    7.64    1.31
   9  -3  -6    7.69    0.86
  -9   3   5  104.42    3.93
  -9   3   5   93.54    3.96
   9  -3  -5   93.13    3.73
  -9   3   4    2.49    0.80
  -9   3   4    2.33    0.92
   9  -3  -4    1.42    0.66
  -9   3   3   79.62    3.49
  -9   3   3   77.34    3.46
   9  -3  -3   79.92    3.48
  -9   3   2   24.12    2.37
  -9   3   2   23.53    2.32
   9  -3  -2   18.26    2.00
  -9   3   1   21.27    2.33
   9  -3  -1   20.73    2.31
  -9   3   0   83.25    3.76
   9  -3   0   81.95    3.74
  -9   3  -1    0.90    0.62
   9  -3   1    0.88    0.68
  -9   3  -2   85.56    3.98
   9  -3   2   86.17    4.02
  -9   3  -3   14.31    2.05
   9  -3   3   15.57    2.10
  -9   3  -4   12.45    1.98
   9  -3   4   15.04    2.09
  -9   3  -5   29.49    2.94
   9  -3   5   28.98    2.94
  -9   3  -6    0.32    0.77
   9  -3   6    1.32    0.90
  -9   3  -7   14.95    2.23
   9  -3   7   20.86    2.66
  -8   4  10   12.64    2.03
  -8   4   9   13.49    2.65
  -8   4   9   11.31    1.84
  -8   4   8   33.17    3.01
  -8   4   8   32.52    3.55
  -8   4   7    2.60    0.88
  -8   4   7    2.52    1.04
  -8   4   6   62.10    3.16
   8  -4  -6   55.13    2.68
  -8   4   5    7.98    1.42
  -8   4   5    8.07    1.18
   8  -4  -5    7.38    1.15
   8  -4  -5    6.54    0.85
  -8   4   4   29.22    2.05
  -8   4   4   29.82    2.07
  -8   4   4   30.17    1.87
   8  -4  -4   29.99    1.26
   8  -4  -4   32.17    1.89
  -8   4   3   20.43    1.91
  -8   4   3   22.99    2.10
  -8   4   3   24.64    1.72
   8  -4  -3   20.20    1.56
  -8   4   2    0.11    0.40
  -8   4   2    0.86    0.59
  -8   4   2    0.04    0.45
   8  -4  -2    0.01    0.40
  -8   4   1   78.27    3.23
  -8   4   1   83.90    3.42
  -8   4   1   86.29    3.21
   8  -4  -1   81.42    3.35
   8  -4  -1   78.23    3.02
  -8   4   0    1.77    0.62
  -8   4   0    1.42    0.67
  -8   4   0    1.65    0.71
   8  -4   0    0.65    0.55
   8  -4   0    0.79    0.47
  -8   4  -1   22.26    1.54
  -8   4  -1   21.58    2.27
   8  -4   1   24.12    1.61
   8  -4   1   23.20    2.29
  -8   4  -2    1.96    0.61
  -8   4  -2    3.07    1.03
   8  -4   2    2.18    0.90
  -8   4  -3    0.54    0.61
  -8   4  -3    0.22    0.41
   8  -4   3    0.47    0.63
  -8   4  -4   17.91    2.18
   8  -4   4   18.83    2.24
  -8   4  -5    1.17    0.69
   8  -4   5    1.68    0.81
  -8   4  -6   17.46    2.23
   8  -4   6   15.97    2.20
  -8   4  -7    9.37    1.68
   8  -4   7    8.76    1.62
  -8   4  -8    7.56    1.59
   8  -4   8    6.69    1.49
  -7   5  10    1.81    0.96
  -7   5   9    8.16    1.58
  -7   5   8    4.63    1.25
  -7   5   7    3.80    1.02
  -7   5   6   12.55    1.68
   7  -5  -6   10.55    1.15
  -7   5   5    1.68    0.72
  -7   5   5    1.51    1.17
   7  -5  -5    1.46    0.45
  -7   5   4   29.69    1.96
  -7   5   4   31.63    2.06
   7  -5  -4   29.37    1.43
  -7   5   3   25.82    1.75
  -7   5   3   23.30    2.19
  -7   5   3   25.98    1.58
   7  -5  -3   23.26    1.15
   7  -5  -3   22.43    1.46
  -7   5   2   17.39    1.66
  -7   5   2   20.48    1.78
  -7   5   2   16.87    1.14
  -7   5   2   17.55    1.80
   7  -5  -2   18.15    1.37
   7  -5  -2   18.03    0.85
  -7   5   1   22.89    1.59
  -7   5   1   22.51    1.45
  -7   5   1   21.37    1.13
  -7   5   1   21.48    1.54
   7  -5  -1   18.97    1.47
  -7   5   0    0.58    0.40
  -7   5   0    1.35    0.57
  -7   5   0    0.29    0.41
  -7   5   0    0.99    0.36
   7  -5   0    0.79    0.54
   7  -5   0   -0.05    0.39
  -7   5  -1   22.47    1.56
  -7   5  -1   25.78    1.25
  -7   5  -1   24.77    1.44
   7  -5   1   28.07    1.87
   7  -5   1   24.73    1.79
  -7   5  -2   11.39    1.32
  -7   5  -2   10.32    1.01
  -7   5  -2   13.94    1.23
   7  -5   2    8.98    1.36
  -7   5  -3   32.82    1.59
  -7   5  -3   30.78    1.53
   7  -5   3   30.80    2.13
  -7   5  -4   26.21    1.53
   7  -5   4   25.74    1.99
  -7   5  -5    0.06    0.35
   7  -5   5    0.08    0.55
  -7   5  -6   28.34    1.85
   7  -5   6   25.54    2.51
   7  -5   7    1.83    0.88
   7  -5   8    6.01    1.44
   7  -5   9   -0.28    0.60
  -6   6  10    8.77    1.87
  -6   6   9   37.65    2.82
  -6   6   8   -0.75    0.50
  -6   6   7   63.25    3.36
  -6   6   6   28.25    2.65
  -6   6   6   26.88    2.01
  -6   6   5   33.31    2.07
  -6   6   5   34.12    2.30
   6  -6  -5   34.28    1.75
  -6   6   4   81.93    3.47
  -6   6   4   82.13    3.38
  -6   6   4   74.82    3.07
   6  -6  -4   78.46    2.67
  -6   6   3    5.02    1.00
  -6   6   3    4.77    0.87
  -6   6   3    4.07    0.80
   6  -6  -3    3.80    0.64
  -6   6   2  124.04    3.91
  -6   6   2  128.71    3.69
  -6   6   2  119.03    4.07
  -6   6   2  127.22    3.76
   6  -6  -2  129.05    3.19
   6  -6  -2  124.81    3.60
  -6   6   1   22.67    1.99
  -6   6   1   17.93    1.25
  -6   6   1   19.20    1.32
   6  -6  -1   18.42    0.95
   6  -6  -1   22.30    1.46
  -6   6   0   74.37    2.54
  -6   6   0   73.50    2.84
  -6   6   0   72.13    2.55
   6  -6   0   76.85    2.91
   6  -6   0   75.08    1.71
  -6   6  -1  202.04    4.81
  -6   6  -1  199.91    4.58
  -6   6  -1  200.25    5.09
   6  -6   1  201.24    5.44
  -6   6  -2   20.40    1.29
  -6   6  -2   22.05    1.39
  -6   6  -2   16.49    0.99
   6  -6   2   22.48    1.68
   6  -6   2   22.17    1.18
  -6   6  -3  141.66    3.89
  -6   6  -3  138.57    3.83
   6  -6   3  138.96    4.58
  -6   6  -4    5.78    0.87
  -6   6  -4    4.69    0.84
   6  -6   4    5.54    1.08
  -6   6  -5   73.18    2.84
   6  -6   5   72.02    3.34
  -6   6  -6   28.52    1.86
   6  -6   6   27.96    2.63
  -6   6  -7   40.11    2.34
   6  -6   7   38.31    2.60
   6  -6   8   31.58    2.45
   6  -6   9    1.07    0.76
   6  -6  10   28.59    2.93
  -5   7   9    1.29    0.84
  -5   7   8   18.50    2.35
  -5   7   7   10.60    1.86
  -5   7   6   45.83    2.88
  -5   7   5   31.63    2.25
   5  -7  -5   30.48    1.76
  -5   7   4    5.58    1.08
  -5   7   4    5.98    1.22
   5  -7  -4    6.32    0.89
  -5   7   3   58.21    2.85
  -5   7   3   49.81    2.59
   5  -7  -3   51.09    2.08
  -5   7   2   22.54    1.64
  -5   7   2   14.95    1.67
   5  -7  -2   17.88    1.17
  -5   7   1   32.75    1.97
  -5   7   1   35.46    1.97
   5  -7  -1   32.02    1.47
   5  -7  -1   33.95    1.75
  -5   7   0   54.56    2.42
  -5   7   0   57.92    2.54
   5  -7   0   54.10    1.82
   5  -7   0   52.66    2.33
  -5   7  -1   20.24    1.39
  -5   7  -1   18.33    1.37
   5  -7   1   19.01    1.12
   5  -7   1   19.06    0.92
   5  -7   1   18.54    1.79
  -5   7  -2   71.62    2.62
  -5   7  -2   69.51    2.69
   5  -7   2   69.99    1.44
   5  -7   2   71.50    2.96
  -5   7  -3    3.91    0.74
  -5   7  -3    4.41    0.85
   5  -7   3    2.93    0.86
  -5   7  -4  100.60    3.46
  -5   7  -4  102.06    2.95
   5  -7   4  103.02    3.88
  -5   7  -5   39.74    2.15
   5  -7   5   38.80    2.40
  -5   7  -6   23.68    1.74
   5  -7   6   24.80    2.44
  -5   7  -7   44.44    2.44
   5  -7   7   42.96    2.68
   5  -7   8    2.70    0.91
   5  -7   9   55.25    3.26
   5  -7  10    7.38    1.52
   5  -7  11   30.27    3.15
  -4   8   7   -0.04    0.64
  -4   8   6    7.93    1.65
  -4   8   5    9.83    1.68
  -4   8   4   11.43    1.78
   4  -8  -4   10.52    1.24
  -4   8   3   18.27    2.14
   4  -8  -3   20.66    1.41
  -4   8   2    5.75    1.13
  -4   8   2    6.86    1.26
   4  -8  -2    8.28    0.99
  -4   8   1   42.40    2.42
  -4   8   1   50.87    2.55
   4  -8  -1   44.61    1.92
  -4   8   0    3.24    0.87
  -4   8   0    3.21    0.80
   4  -8   0    2.32    0.65
   4  -8   0    2.73    0.58
  -4   8  -1   49.77    2.54
  -4   8  -1   58.36    2.49
   4  -8   1   54.61    1.95
   4  -8   1   50.50    2.34
  -4   8  -2   37.78    2.15
  -4   8  -2   40.21    1.96
   4  -8   2   40.48    1.55
   4  -8   2   42.73    2.18
  -4   8  -3    5.57    0.86
  -4   8  -3    5.44    1.03
   4  -8   3    6.22    0.63
   4  -8   3    4.08    0.93
  -4   8  -4   29.41    1.91
   4  -8   4   29.58    1.99
  -4   8  -5    5.37    1.04
   4  -8   5    5.81    1.11
  -4   8  -6   27.14    1.91
   4  -8   6   27.00    2.51
  -4   8  -7   10.00    1.44
   4  -8   7   12.13    1.68
   4  -8   8   18.02    2.18
   4  -8   9   18.44    2.32
   4  -8  10    4.83    1.23
   4  -8  11    2.67    1.07
   4  -8  12    1.64    0.96
  -3   9   6   22.89    2.77
  -3   9   5   -0.18    0.67
  -3   9   4   37.07    2.76
  -3   9   3   16.08    2.08
  -3   9   2   26.19    2.57
   3  -9  -2   28.89    1.73
  -3   9   1   51.61    2.82
   3  -9  -1   51.10    2.28
   3  -9  -1   56.82    2.79
  -3   9   0   -0.11    0.39
   3  -9   0    0.15    0.34
  -3   9  -1   64.32    3.14
  -3   9  -1   60.17    2.79
   3  -9   1   63.34    2.40
   3  -9   1   69.57    2.80
  -3   9  -2    3.56    0.83
  -3   9  -2    2.07    0.72
   3  -9   2    2.37    0.59
   3  -9   2    2.35    0.75
  -3   9  -3   44.52    2.09
  -3   9  -3   42.06    2.48
   3  -9   3   44.26    1.80
   3  -9   3   39.35    2.25
  -3   9  -4   30.27    2.13
   3  -9   4   30.04    2.03
   3  -9   4   33.82    1.46
  -3   9  -5   28.26    2.08
   3  -9   5   32.77    2.14
  -3   9  -6   62.19    3.20
   3  -9   6   67.98    3.23
   3  -9   7    0.46    0.55
   3  -9   8   38.46    2.59
   3  -9   9    4.18    1.13
   3  -9  10    2.28    1.05
   3  -9  11   27.07    2.92
   3  -9  12    0.37    0.78
  -2  10   4    6.97    1.61
  -2  10   3    9.83    1.84
  -2  10   2   45.16    3.03
  -2  10   1    2.00    0.86
  -2  10   0  104.95    4.31
  -2  10  -1    5.07    1.15
  -2  10  -2   56.27    2.79
   2 -10   2   54.51    2.76
   2 -10   3  106.09    4.07
   2 -10   4   31.74    2.20
   2 -10   5   83.44    3.73
   2 -10   6    0.34    0.54
   2 -10   7   38.74    2.61
   2 -10   8   12.77    1.87
   2 -10   9   12.58    1.94
   2 -10  10   43.14    2.99
   2 -10  11    1.32    0.90
   2 -10  12   16.60    2.41
  -1  11   1   14.25    2.17
  -1  11   0    6.13    1.41
  -1  11  -1    1.89    0.98
  -1  11  -2   24.69    2.51
   1 -11   4   12.96    1.80
   1 -11   5    5.88    1.35
   1 -11   6    8.78    1.62
   1 -11   7   22.72    2.67
   1 -11   8    1.03    0.79
   1 -11   9   23.42    2.77
   1 -11  10    0.81    0.75
   1 -11  11    8.99    1.83
   0 -12   5    1.58    0.96
   0 -12   6   23.01    2.69
   0 -12   7    5.22    1.42
   0 -12   8   12.64    2.17
   0 -12   9    8.88    1.83
 -12   1   6    5.29    1.45
 -12   1   6    7.57    1.84
 -12   1   5    9.96    2.07
 -12   1   5   12.89    2.21
 -12   1   4   24.17    2.96
 -12   1   4   27.39    3.17
 -12   1   3    1.66    1.11
 -12   1   2   13.21    2.36
 -12   1   1    3.35    1.33
 -11   2   9   13.34    2.28
 -11   2   8   11.85    2.05
 -11   2   7   32.14    3.16
 -11   2   7   31.06    3.17
 -11   2   6    3.44    1.20
 -11   2   6    2.42    1.00
 -11   2   5   24.90    2.80
 -11   2   5   29.62    3.06
 -11   2   4    0.18    0.59
 -11   2   4   -0.09    0.67
 -11   2   3   13.74    2.10
 -11   2   3   17.55    2.35
  11  -2  -3    9.44    1.73
 -11   2   2    5.98    1.41
  11  -2  -2    5.60    1.33
 -11   2   1   12.44    2.08
  11  -2  -1   12.07    2.03
 -11   2   0   25.31    3.07
  11  -2   0   27.12    3.13
 -11   2  -1    0.60    0.84
  11  -2   1    0.03    0.61
 -11   2  -2   32.28    3.35
  11  -2   2   33.43    3.43
  11  -2   3    1.61    1.02
 -10   3  10   18.52    2.58
 -10   3   9    4.53    1.38
 -10   3   8   25.14    2.80
 -10   3   7    0.34    0.75
 -10   3   6   25.05    2.58
 -10   3   6   22.48    2.51
 -10   3   5    3.48    1.01
 -10   3   5    3.49    1.10
 -10   3   4    7.19    1.49
 -10   3   4   11.84    1.87
  10  -3  -4    6.96    1.40
 -10   3   3   39.98    2.69
 -10   3   3   44.33    2.75
  10  -3  -3   43.57    2.75
 -10   3   2    2.01    0.87
 -10   3   2    0.63    0.63
  10  -3  -2    0.88    0.63
 -10   3   1   47.15    2.97
  10  -3  -1   51.94    3.09
 -10   3   0    0.74    0.64
  10  -3   0   -0.18    0.43
 -10   3  -1   31.94    3.14
  10  -3   1   32.52    3.17
 -10   3  -2    4.65    1.31
  10  -3   2    4.45    1.22
 -10   3  -3    7.64    1.68
  10  -3   3    6.09    1.47
 -10   3  -4   24.12    2.85
  10  -3   4   21.64    2.69
 -10   3  -5    0.47    0.69
  10  -3   5    0.11    0.73
 -10   3  -6    5.58    1.50
  10  -3   6    6.97    1.60
  -9   4  10    1.27    0.81
  -9   4   9   10.25    1.82
  -9   4   8    1.42    0.81
  -9   4   7    3.83    1.13
  -9   4   6   13.44    1.87
  -9   4   5   16.57    2.06
  -9   4   5   12.80    1.62
   9  -4  -5   12.93    1.67
   9  -4  -5   14.58    0.91
  -9   4   4   37.91    2.42
  -9   4   4   37.63    2.31
   9  -4  -4   43.19    2.45
  -9   4   3    8.29    1.42
  -9   4   3    7.32    1.30
   9  -4  -3    8.01    1.33
  -9   4   2    3.61    0.98
  -9   4   2    2.45    0.83
  -9   4   2    5.65    1.10
   9  -4  -2    3.17    0.91
  -9   4   1   17.65    1.81
  -9   4   1   12.78    1.77
  -9   4   1   13.65    1.75
   9  -4  -1   12.78    1.66
  -9   4   0   -0.05    0.57
  -9   4   0    2.20    0.80
  -9   4   0    1.17    0.56
   9  -4   0    1.00    0.63
  -9   4  -1   21.79    2.41
  -9   4  -1   20.33    1.88
   9  -4   1   22.76    2.41
  -9   4  -2    9.54    1.29
  -9   4  -2   10.36    1.67
   9  -4   2    8.89    1.53
  -9   4  -3    2.95    1.01
   9  -4   3    5.56    1.36
  -9   4  -4   15.20    2.16
   9  -4   4   15.36    2.20
  -9   4  -5    0.90    0.72
   9  -4   5    0.06    0.57
  -9   4  -6   17.40    2.34
   9  -4   6   16.95    2.39
  -9   4  -7    0.97    0.79
   9  -4   7    1.30    0.82
  -9   4  -8    8.43    1.97
   9  -4   8    4.78    1.45
  -8   5  10    4.15    1.27
  -8   5   9   27.22    2.97
  -8   5   8    0.94    0.67
  -8   5   7   28.37    2.80
  -8   5   6   11.99    1.78
  -8   5   5   44.03    2.64
   8  -5  -5   44.82    1.88
  -8   5   4   10.56    1.54
  -8   5   4   11.36    1.45
   8  -5  -4   10.19    1.34
   8  -5  -4   11.49    0.99
  -8   5   3   11.90    1.57
  -8   5   3   14.89    1.67
  -8   5   3   12.38    1.46
   8  -5  -3   13.71    0.79
   8  -5  -3   16.48    1.70
  -8   5   2   57.64    2.70
  -8   5   2   58.43    2.81
  -8   5   2   59.37    2.68
   8  -5  -2   61.08    2.73
  -8   5   1    6.98    1.24
  -8   5   1    5.14    0.95
  -8   5   1    6.35    1.18
   8  -5  -1    7.40    1.22
  -8   5   0   70.65    2.78
  -8   5   0   71.02    3.20
  -8   5   0   67.09    2.95
   8  -5   0   65.49    3.04
  -8   5  -1   53.93    2.35
  -8   5  -1   54.53    2.59
  -8   5  -1   53.93    2.85
   8  -5   1   58.45    2.93
  -8   5  -2   34.09    2.30
  -8   5  -2   33.55    2.00
  -8   5  -2   37.69    1.90
   8  -5   2   31.58    2.21
  -8   5  -3  117.37    4.52
   8  -5   3  114.52    4.48
  -8   5  -4    3.53    1.07
   8  -5   4    3.98    1.18
  -8   5  -5  109.64    4.63
   8  -5   5  120.49    4.82
  -8   5  -6   10.05    1.78
   8  -5   6    8.50    1.61
  -8   5  -7   35.00    2.65
   8  -5   7   29.93    3.10
  -8   5  -8   30.08    3.04
   8  -5   8   25.90    2.91
  -8   5  -9    3.96    1.30
   8  -5   9    3.64    1.29
  -7   6   9    2.50    1.15
  -7   6   8   24.73    2.65
  -7   6   7   32.17    3.03
  -7   6   6   16.45    2.10
  -7   6   5   34.85    2.36
   7  -6  -5   36.57    1.83
  -7   6   4    1.70    0.58
  -7   6   4    1.55    0.75
  -7   6   4    2.41    0.85
   7  -6  -4    1.68    0.53
  -7   6   3   21.71    1.95
  -7   6   3   25.11    1.54
  -7   6   3   20.99    2.11
   7  -6  -3   22.43    1.24
  -7   6   2   31.14    1.65
  -7   6   2   39.09    2.05
  -7   6   2   32.13    1.84
  -7   6   2   37.01    2.17
   7  -6  -2   34.94    1.39
   7  -6  -2   36.88    1.93
  -7   6   1   37.29    2.13
  -7   6   1   41.61    1.83
  -7   6   1   41.27    2.16
  -7   6   1   40.43    2.01
   7  -6  -1   37.61    2.06
   7  -6  -1   41.23    1.19
  -7   6   0   37.23    1.72
  -7   6   0   40.04    2.11
  -7   6   0   36.88    1.81
   7  -6   0   39.88    2.20
  -7   6  -1   17.70    1.16
  -7   6  -1   16.29    1.15
  -7   6  -1   17.34    1.71
   7  -6   1   17.15    1.85
  -7   6  -2   65.02    2.65
  -7   6  -2   63.41    2.33
  -7   6  -2   64.69    2.34
   7  -6   2   64.90    3.01
  -7   6  -3    0.28    0.36
  -7   6  -3   -0.04    0.35
   7  -6   3    0.28    0.54
  -7   6  -4   58.39    2.42
  -7   6  -4   54.26    2.33
   7  -6   4   57.45    3.01
  -7   6  -5   -0.08    0.30
   7  -6   5    0.50    0.57
  -7   6  -6    8.56    1.26
   7  -6   6    8.27    1.58
  -7   6  -7   19.28    1.93
   7  -6   7   19.87    2.30
   7  -6   8    0.98    0.73
   7  -6   9   42.11    2.97
   7  -6  10    2.31    1.03
  -6   7   9    7.05    1.63
  -6   7   8    9.59    1.78
  -6   7   7    0.16    0.59
  -6   7   6    6.12    1.31
  -6   7   5   12.86    1.75
  -6   7   5    8.30    1.38
  -6   7   4   18.94    1.98
  -6   7   4   16.26    1.98
   6  -7  -4   17.66    1.52
  -6   7   3   46.42    2.41
  -6   7   3   39.82    2.42
   6  -7  -3   42.13    1.86
  -6   7   2   11.87    1.45
  -6   7   2   11.61    1.56
   6  -7  -2   13.04    1.13
  -6   7   1   42.73    2.12
  -6   7   1   40.12    2.03
  -6   7   1   42.28    2.26
   6  -7  -1   40.02    1.58
   6  -7  -1   39.50    1.99
  -6   7   0    2.15    0.55
  -6   7   0    1.41    0.49
  -6   7   0    2.06    0.64
   6  -7   0    2.03    0.69
   6  -7   0    2.23    0.42
  -6   7  -1   28.36    1.67
  -6   7  -1   26.92    1.67
  -6   7  -1   30.65    1.49
   6  -7   1   28.82    1.85
   6  -7   1   28.12    0.75
  -6   7  -2    3.33    0.74
  -6   7  -2    2.90    0.65
   6  -7   2    3.15    0.85
  -6   7  -3   10.38    1.21
  -6   7  -3   11.67    1.28
   6  -7   3    9.62    1.39
  -6   7  -4    1.70    0.61
  -6   7  -4    2.41    0.61
   6  -7   4    3.21    1.00
  -6   7  -5    3.89    0.81
   6  -7   5    3.39    0.94
  -6   7  -6   37.63    2.21
   6  -7   6   39.55    2.58
  -6   7  -7    4.36    0.96
   6  -7   7    6.17    1.37
   6  -7   8    9.17    1.59
   6  -7   9    6.47    1.46
   6  -7  10    0.62    0.83
   6  -7  11    7.24    1.67
  -5   8   8    8.77    1.79
  -5   8   7    2.96    1.12
  -5   8   6   26.02    2.79
  -5   8   5    0.45    0.65
  -5   8   4   47.56    2.83
  -5   8   3   14.10    1.87
  -5   8   3   12.99    1.73
   5  -8  -3   10.96    1.16
  -5   8   2   30.58    2.12
  -5   8   2   34.72    2.24
   5  -8  -2   36.72    1.75
  -5   8   1   44.78    2.44
  -5   8   1   44.14    2.43
   5  -8  -1   45.08    1.90
  -5   8   0   11.96    1.51
  -5   8   0   12.70    1.55
   5  -8   0    9.33    1.27
   5  -8   0    9.64    0.96
  -5   8  -1  110.18    3.90
  -5   8  -1  113.46    3.80
   5  -8   1  120.33    3.96
   5  -8   1  119.31    2.97
  -5   8  -2    4.17    0.90
  -5   8  -2    4.59    0.85
   5  -8   2    4.06    0.92
   5  -8   2    4.43    0.54
  -5   8  -3  113.70    3.87
  -5   8  -3  114.33    3.53
   5  -8   3  113.03    4.10
  -5   8  -4   87.90    3.36
   5  -8   4   88.25    3.66
  -5   8  -5   47.10    2.47
   5  -8   5   48.01    2.74
  -5   8  -6   62.25    2.95
   5  -8   6   58.98    3.16
  -5   8  -7    3.41    0.88
   5  -8   7    5.39    1.28
   5  -8   8   21.78    2.49
   5  -8   9    4.74    1.28
   5  -8  10   11.72    2.00
   5  -8  11   19.94    2.57
   5  -8  12    1.21    0.89
  -4   9   6    0.08    0.65
  -4   9   5   22.69    2.59
  -4   9   4    5.73    1.32
  -4   9   3    8.34    1.48
  -4   9   2   36.06    2.43
  -4   9   1    2.31    0.77
   4  -9  -1    3.34    0.69
  -4   9   0   53.89    2.79
  -4   9   0   53.03    2.87
   4  -9   0   58.24    2.27
  -4   9  -1    1.03    0.56
  -4   9  -1    0.82    0.54
   4  -9   1    1.64    0.50
   4  -9   1    1.12    0.57
  -4   9  -2   45.99    2.55
  -4   9  -2   49.72    2.36
   4  -9   2   46.51    1.86
   4  -9   2   40.53    2.30
  -4   9  -3   18.60    1.65
  -4   9  -3   14.39    1.71
   4  -9   3   17.71    1.95
   4  -9   3   16.04    1.01
  -4   9  -4   78.23    3.40
   4  -9   4   82.37    2.06
   4  -9   4   78.31    3.42
  -4   9  -5   33.09    2.21
   4  -9   5   32.23    2.21
  -4   9  -6   21.06    2.11
   4  -9   6   30.25    2.77
   4  -9   7   44.42    2.78
   4  -9   8   17.60    2.22
   4  -9   9   31.20    2.97
   4  -9  10   24.98    2.78
   4  -9  11    3.10    1.12
   4  -9  12   16.04    2.44
  -3  10   5   13.66    2.29
  -3  10   4    3.02    1.16
  -3  10   3   24.44    2.70
  -3  10   2    0.18    0.62
  -3  10   1   13.03    1.84
  -3  10   0   11.61    1.71
  -3  10  -1   11.72    1.62
  -3  10  -2   18.26    1.92
   3 -10   2   15.65    1.77
   3 -10   3    0.54    0.55
   3 -10   4    4.89    1.06
   3 -10   4    7.31    0.92
   3 -10   5   12.90    1.06
   3 -10   5   15.37    1.95
   3 -10   6   -0.57    0.39
   3 -10   7   21.38    2.37
   3 -10   8    1.56    0.86
   3 -10   9   12.08    1.91
   3 -10  10   -0.01    0.54
   3 -10  11   20.40    2.68
   3 -10  12    4.32    1.40
  -2  11   2    0.22    0.76
  -2  11   1   21.92    2.63
  -2  11   0    0.15    0.63
  -2  11  -1   11.10    1.86
  -2  11  -2   23.64    2.35
   2 -11   3   -0.22    0.53
   2 -11   4   26.19    2.64
   2 -11   5    1.22    0.76
   2 -11   6   22.54    2.51
   2 -11   7    9.42    1.73
   2 -11   8    5.98    1.35
   2 -11   9   13.55    2.09
   2 -11  10    0.16    0.63
   2 -11  11   10.49    1.94
  -1  12  -1   19.33    2.42
   1 -12   5   44.31    2.99
   1 -12   6    7.87    1.57
   1 -12   7    7.51    1.64
   1 -12   8   30.44    3.24
   1 -12   9    0.60    0.79
   1 -12  10   28.93    3.24
 -12   2   7    0.78    0.75
 -12   2   7   -0.46    0.76
 -12   2   6   11.46    2.10
 -12   2   6   14.47    2.27
 -12   2   5   15.33    2.43
 -12   2   5   17.44    2.46
 -12   2   4    8.67    1.82
 -12   2   4    9.28    1.81
 -12   2   3   30.79    3.35
 -12   2   3   40.12    3.64
 -12   2   2    2.48    1.06
  12  -2  -2    2.91    1.14
 -12   2   1   33.90    3.69
  12  -2  -1   32.56    3.47
 -12   2   0    1.20    0.96
  12  -2   0    0.70    0.91
 -12   2  -1   12.32    2.26
  12  -2   1   10.03    2.02
 -11   3   9   10.44    1.92
 -11   3   8   11.04    2.07
 -11   3   7    1.33    0.91
 -11   3   6   15.68    2.14
 -11   3   6   20.15    2.49
 -11   3   5    0.64    0.71
 -11   3   5   -0.28    0.68
 -11   3   4   22.65    2.66
 -11   3   4   24.55    2.81
  11  -3  -4   26.19    2.73
 -11   3   3    0.41    0.65
 -11   3   3   -0.62    0.57
  11  -3  -3   -0.13    0.61
 -11   3   2   10.78    1.82
 -11   3   2    8.54    1.73
  11  -3  -2    7.89    1.61
 -11   3   1    8.62    1.64
  11  -3  -1    7.34    1.54
 -11   3   0    3.69    1.14
  11  -3   0    5.62    1.38
 -11   3  -1   26.86    3.04
  11  -3   1   32.32    3.28
 -11   3  -2    6.49    1.65
  11  -3   2   10.86    1.95
 -11   3  -3    9.34    1.92
  11  -3   3    5.28    1.48
 -11   3  -4   20.35    2.75
  11  -3   4   19.77    2.72
 -10   4   9   29.17    3.16
 -10   4   8   -0.16    0.62
 -10   4   7   71.73    3.81
 -10   4   6    2.86    1.06
 -10   4   5   27.53    2.80
 -10   4   5   25.47    2.52
  10  -4  -5   25.58    2.46
 -10   4   4   33.07    2.41
 -10   4   4   39.04    2.55
  10  -4  -4   36.73    2.41
 -10   4   3    1.09    0.87
 -10   4   3    2.48    0.85
  10  -4  -3    0.91    0.64
 -10   4   2   43.27    2.70
 -10   4   2   38.51    2.61
  10  -4  -2   43.93    2.73
 -10   4   1   23.17    2.63
 -10   4   1   25.72    2.52
  10  -4  -1   23.84    2.59
 -10   4   0   43.18    2.84
  10  -4   0   42.02    2.79
  10  -4   1   28.40    2.91
 -10   4  -2   20.18    2.55
  10  -4   2   19.34    2.51
 -10   4  -3   42.76    3.05
  10  -4   3   48.37    3.24
 -10   4  -4    6.19    1.50
  10  -4   4    7.74    1.70
 -10   4  -5   23.55    2.86
  10  -4   5   23.11    2.90
 -10   4  -6   -0.52    0.69
  10  -4   6    0.29    0.78
 -10   4  -7    7.36    1.75
  10  -4   7    2.61    1.07
  -9   5  10   25.70    2.93
  -9   5   9    2.00    1.05
  -9   5   8   36.48    3.34
  -9   5   7   11.37    1.84
  -9   5   6    5.13    1.26
  -9   5   5   49.89    2.96
   9  -5  -5   53.64    1.95
  -9   5   4   -0.12    0.37
  -9   5   4    0.00    0.49
   9  -5  -4   -0.01    0.50
   9  -5  -4    0.26    0.27
  -9   5   3   95.55    3.94
  -9   5   3   98.41    3.79
   9  -5  -3   99.72    3.77
  -9   5   2   25.46    1.85
  -9   5   2   26.70    1.96
  -9   5   2   27.72    2.49
   9  -5  -2   21.04    2.18
  -9   5   1  114.26    4.27
  -9   5   1  122.73    4.21
  -9   5   1  118.64    4.44
   9  -5  -1  121.86    4.44
  -9   5   0   66.50    3.09
  -9   5   0   59.75    3.11
  -9   5   0   57.85    2.72
   9  -5   0   63.63    3.20
  -9   5  -1   29.26    1.87
  -9   5  -1   28.10    2.70
  -9   5  -1   29.48    2.04
   9  -5   1   28.73    2.22
  -9   5  -2   47.88    2.96
   9  -5   2   51.86    3.02
  -9   5  -3   -0.17    0.53
   9  -5   3   -0.14    0.52
  -9   5  -4   13.05    2.07
   9  -5   4   12.95    1.95
  -9   5  -5    4.75    1.28
   9  -5   5    6.18    1.43
  -9   5  -6   -0.08    0.61
   9  -5   6    1.69    0.90
  -9   5  -7   22.07    2.74
   9  -5   7   11.88    2.02
  -9   5  -8    1.69    1.00
   9  -5   8    0.58    0.79
  -8   6   9    6.41    1.55
  -8   6   8    2.78    1.07
  -8   6   7   -0.04    0.58
  -8   6   6   26.45    2.66
  -8   6   5   14.52    1.93
  -8   6   4   47.40    2.72
   8  -6  -4   47.64    1.89
  -8   6   3   33.97    2.27
  -8   6   3   33.86    2.11
  -8   6   3   34.24    1.99
   8  -6  -3   34.86    2.00
   8  -6  -3   35.38    1.43
  -8   6   2    7.11    1.13
  -8   6   2   11.99    1.62
  -8   6   2    9.63    1.35
   8  -6  -2    9.50    1.32
   8  -6  -2    9.34    0.57
  -8   6   1   20.04    2.01
  -8   6   1   17.44    1.63
  -8   6   1   22.13    2.06
   8  -6  -1   16.68    1.76
  -8   6   0    0.20    0.46
  -8   6   0   -0.06    0.33
  -8   6   0    0.46    0.53
   8  -6   0   -0.02    0.46
  -8   6  -1   11.16    1.58
  -8   6  -1   15.02    1.74
  -8   6  -1   15.59    1.43
   8  -6   1   14.56    1.76
  -8   6  -2    4.08    0.94
   8  -6   2    6.15    1.28
  -8   6  -3    0.13    0.46
   8  -6   3    0.87    0.64
  -8   6  -4   34.18    2.01
   8  -6   4   41.53    2.69
   8  -6   5    4.20    1.13
   8  -6   6   29.49    3.00
   8  -6   7    5.19    1.41
   8  -6   8    7.00    1.60
   8  -6   9   -0.41    0.66
   8  -6  10    1.01    0.92
  -7   7   9   10.83    1.97
  -7   7   8   15.02    2.24
  -7   7   7   17.87    2.38
  -7   7   6   33.82    2.54
  -7   7   5    5.69    1.34
  -7   7   5    2.89    0.83
  -7   7   4   21.74    2.33
  -7   7   4   18.53    1.91
   7  -7  -4   19.49    1.40
  -7   7   3    7.18    1.14
  -7   7   3    5.18    0.98
  -7   7   3    4.71    1.07
   7  -7  -3    6.08    0.83
  -7   7   2   34.11    3.14
  -7   7   2   29.50    1.88
  -7   7   2   30.81    2.12
  -7   7   2   30.58    1.82
   7  -7  -2   31.13    2.89
   7  -7  -2   29.15    1.40
  -7   7   1   41.15    2.31
  -7   7   1   45.29    2.18
  -7   7   1   40.30    2.02
   7  -7  -1   39.44    1.43
   7  -7  -1   42.30    2.21
  -7   7   0    6.18    0.94
  -7   7   0    9.10    1.07
  -7   7   0    9.30    1.33
   7  -7   0    9.89    1.34
  -7   7  -1   99.84    3.55
  -7   7  -1  102.83    3.32
   7  -7   1  105.61    3.86
  -7   7  -2   16.56    1.25
  -7   7  -2   18.68    1.71
   7  -7   2   16.74    1.91
  -7   7  -3  147.35    4.21
  -7   7  -3  149.67    4.30
   7  -7   3  147.66    5.03
  -7   7  -4   11.40    1.32
  -7   7  -4   11.95    1.34
   7  -7   4   12.35    1.73
  -7   7  -5   55.86    2.59
   7  -7   5   61.96    3.29
  -7   7  -6   23.43    1.76
   7  -7   6   17.24    2.19
  -7   7  -7    7.18    1.21
   7  -7   7    9.32    1.63
   7  -7   8   25.84    2.78
   7  -7   9    6.40    1.51
   7  -7  10   14.00    2.24
   7  -7  11   13.27    2.11
  -6   8   8    7.59    1.74
  -6   8   7   25.50    2.89
  -6   8   6    1.16    0.79
  -6   8   5   38.97    2.67
  -6   8   4   15.10    2.00
  -6   8   3   31.16    2.24
  -6   8   3   31.28    2.15
   6  -8  -3   30.28    1.68
  -6   8   2   84.13    3.60
  -6   8   2   78.76    3.36
   6  -8  -2   78.43    2.65
  -6   8   1    2.93    0.79
  -6   8   1    4.63    1.02
   6  -8  -1    2.21    0.53
  -6   8   0   75.36    3.22
  -6   8   0   84.24    3.26
   6  -8   0   83.52    3.20
   6  -8   0   87.73    2.45
  -6   8  -1    7.47    1.15
  -6   8  -1    5.97    1.03
   6  -8   1    9.13    1.42
   6  -8   1    8.18    0.70
  -6   8  -2   94.21    3.42
  -6   8  -2   87.43    3.23
   6  -8   2   93.03    3.65
  -6   8  -3   13.53    1.56
  -6   8  -3   13.48    1.45
   6  -8   3   11.60    1.65
  -6   8  -4   17.90    1.79
   6  -8   4   17.85    2.11
  -6   8  -5   15.53    1.66
   6  -8   5   18.91    2.19
  -6   8  -6    5.03    1.06
   6  -8   6    3.81    1.10
  -6   8  -7   12.31    1.65
   6  -8   7    7.71    1.58
   6  -8   8   17.22    2.26
   6  -8   9   12.38    1.97
   6  -8  10   13.47    2.15
   6  -8  11    4.42    1.33
  -5   9   7    1.87    0.99
  -5   9   6    8.34    1.70
  -5   9   5   27.29    2.91
  -5   9   4    1.34    0.88
  -5   9   3   36.23    2.55
  -5   9   2    1.23    0.65
  -5   9   1   22.19    2.59
  -5   9   1   23.47    2.26
   5  -9  -1   23.56    1.47
  -5   9   0    5.14    1.06
  -5   9   0    6.94    1.29
   5  -9   0    7.37    0.95
  -5   9  -1   26.20    1.81
  -5   9  -1   26.03    1.94
   5  -9   1   32.57    1.53
   5  -9   1   27.43    1.91
  -5   9  -2    2.88    0.76
  -5   9  -2    3.37    0.84
   5  -9   2    2.90    0.55
   5  -9   2    3.58    0.90
  -5   9  -3    0.52    0.40
  -5   9  -3    1.38    0.61
   5  -9   3   -0.15    0.45
   5  -9   3    0.11    0.26
  -5   9  -4    2.05    0.74
   5  -9   4    0.61    0.55
  -5   9  -5   31.92    2.12
   5  -9   5   33.79    2.35
  -5   9  -6   11.10    1.69
   5  -9   6    8.41    1.47
   5  -9   7   33.16    2.49
   5  -9   8    1.72    0.93
   5  -9   9   19.87    2.52
   5  -9  10    3.45    1.25
   5  -9  11    5.72    1.58
   5  -9  12   -0.34    0.68
  -4  10   5    1.97    1.02
  -4  10   4   12.81    2.01
  -4  10   3   15.12    2.13
  -4  10   2    2.88    0.97
  -4  10   1   42.37    2.68
  -4  10   0    4.88    1.10
  -4  10  -1   13.96    1.72
  -4  10  -2   53.00    2.62
   4 -10   2   56.28    2.83
   4 -10   2   54.16    2.88
   4 -10   3    6.26    1.27
   4 -10   3    6.64    0.87
   4 -10   4  103.24    2.75
   4 -10   4  104.20    4.16
   4 -10   5    0.35    0.48
   4 -10   6   48.06    2.90
   4 -10   7   12.62    1.90
   4 -10   8    3.13    1.06
   4 -10   9   19.37    2.46
   4 -10  10   -0.69    0.52
   4 -10  11    9.58    1.89
   4 -10  12   13.23    2.23
  -3  11   3    0.73    0.72
  -3  11   2   15.72    2.26
  -3  11   1   12.09    1.97
  -3  11   0   23.36    2.67
  -3  11  -1   50.55    2.95
  -3  11  -2    2.54    0.85
   3 -11   3   78.99    3.55
   3 -11   4    0.36    0.57
   3 -11   5   39.06    2.62
   3 -11   6    4.82    1.10
   3 -11   7    8.75    1.67
   3 -11   8   37.36    2.75
   3 -11   9    1.21    0.84
   3 -11  10   26.53    2.96
   3 -11  11   13.25    2.28
  -2  12   0   14.79    2.22
  -2  12  -1   -0.05    0.63
   2 -12   4    2.02    0.94
   2 -12   5   19.60    2.41
   2 -12   6    3.27    1.06
   2 -12   7   37.44    3.47
   2 -12   8   12.01    2.05
   2 -12   9    5.74    1.45
   2 -12  10   17.39    2.46
 -12   3   7   46.54    3.32
 -12   3   6    2.51    1.10
 -12   3   6    1.68    1.03
 -12   3   5   21.52    2.67
 -12   3   5   26.07    3.02
 -12   3   4   14.73    2.34
 -12   3   4   14.26    2.25
 -12   3   3    3.94    1.34
 -12   3   3    2.45    1.02
  12  -3  -3    3.94    1.35
 -12   3   2   47.61    3.37
 -12   3   2   40.38    3.01
  12  -3  -2   43.49    3.20
 -12   3   1    0.74    0.84
  12  -3  -1    0.21    0.78
 -12   3   0   25.10    3.07
  12  -3   0   25.37    3.00
 -12   3  -1   16.71    2.63
  12  -3   1   17.25    2.63
 -12   3  -2   15.63    2.59
  12  -3   2   12.32    2.22
 -11   4   8   24.13    2.92
 -11   4   7    2.67    1.08
 -11   4   6   10.75    1.89
 -11   4   5   29.39    2.96
 -11   4   5   30.98    2.39
  11  -4  -5   27.73    2.77
 -11   4   4    1.27    0.85
 -11   4   4    0.44    0.65
  11  -4  -4    0.84    0.67
 -11   4   3   65.30    3.58
 -11   4   3   72.28    3.78
  11  -4  -3   68.06    3.67
 -11   4   2    4.23    1.15
 -11   4   2    4.88    1.28
  11  -4  -2    4.68    1.19
 -11   4   1   38.70    3.40
 -11   4   1   31.08    3.26
  11  -4  -1   24.10    2.69
 -11   4   0   24.12    2.82
  11  -4   0   20.58    2.56
 -11   4  -1   17.52    2.42
  11  -4   1   18.89    2.44
 -11   4  -2   13.46    2.29
  11  -4   2   15.32    2.35
 -11   4  -3    2.44    1.16
  11  -4   3    2.34    1.13
 -11   4  -4   11.72    2.11
  11  -4   4   14.17    2.26
 -11   4  -5    2.25    1.12
  11  -4   5    6.63    1.54
 -10   5   9    0.25    0.76
 -10   5   8    2.18    0.98
 -10   5   7    0.15    0.63
 -10   5   6    3.60    1.14
 -10   5   5    6.95    1.46
 -10   5   4   10.59    1.69
 -10   5   4   10.90    1.80
  10  -5  -4   13.34    1.78
 -10   5   3    0.55    0.70
 -10   5   3    0.64    0.57
  10  -5  -3    1.42    0.73
 -10   5   2    8.42    1.51
 -10   5   2    8.09    1.47
  10  -5  -2    9.14    1.58
 -10   5   1   16.80    2.09
 -10   5   1   17.00    2.12
  10  -5  -1   14.07    1.84
 -10   5   0    1.38    0.79
 -10   5   0    2.62    1.02
  10  -5   0    1.15    0.79
 -10   5  -1   22.96    2.34
 -10   5  -1   19.48    2.27
  10  -5   1   16.01    2.06
 -10   5  -2    5.72    1.44
  10  -5   2    8.24    1.58
 -10   5  -3    1.79    0.94
  10  -5   3    2.38    1.07
 -10   5  -4   18.39    2.47
  10  -5   4   18.48    2.39
 -10   5  -5    0.34    0.76
  10  -5   5    0.07    0.62
 -10   5  -6   12.73    2.15
  10  -5   6   22.47    2.94
 -10   5  -7    0.24    0.83
  10  -5   7    0.87    0.94
  -9   6   9   30.72    3.41
  -9   6   8   22.16    2.81
  -9   6   7   21.45    2.61
  -9   6   6   39.65    2.82
  -9   6   5    6.71    1.43
  -9   6   4   39.23    2.61
   9  -6  -4   39.46    1.57
  -9   6   3    8.54    1.33
  -9   6   3    8.28    1.47
   9  -6  -3    8.32    1.35
  -9   6   2   32.29    2.06
  -9   6   2   27.27    2.07
  -9   6   2   30.93    2.10
   9  -6  -2   29.06    2.03
  -9   6   1   24.93    2.33
  -9   6   1   24.36    1.73
  -9   6   1   27.75    2.02
   9  -6  -1   22.45    2.19
  -9   6   0   -0.05    0.36
  -9   6   0    0.08    0.46
  -9   6   0   -0.55    0.43
   9  -6   0    0.80    0.63
  -9   6  -1   28.98    2.07
  -9   6  -1   33.74    2.35
   9  -6   1   29.90    2.25
  -9   6  -2    3.28    1.06
  -9   6  -2    2.26    0.86
   9  -6   2    1.48    0.79
  -9   6  -3   43.55    2.85
  -9   6  -3   45.00    2.50
   9  -6   3   49.74    3.01
  -9   6  -4    4.92    1.27
  -9   6  -4    3.20    0.91
   9  -6   4    2.38    0.90
  -9   6  -5   36.20    3.42
   9  -6   5   32.83    3.26
  -9   6  -6   12.78    2.07
   9  -6   6   13.60    2.09
  -9   6  -7   -0.63    0.57
   9  -6   7    0.48    0.75
  -9   6  -8   42.75    3.20
   9  -6   8   43.50    3.21
  -9   6  -9    1.70    1.05
   9  -6   9    0.99    0.92
  -8   7   9   12.40    2.16
  -8   7   8   11.96    2.03
  -8   7   7   31.65    3.17
  -8   7   6    1.16    0.79
  -8   7   5   41.22    2.78
  -8   7   4    4.59    1.17
  -8   7   3   21.33    2.28
   8  -7  -3   22.23    1.25
  -8   7   2   16.47    1.88
  -8   7   2   21.22    1.98
  -8   7   2   18.40    1.79
   8  -7  -2   21.47    1.04
   8  -7  -2   15.89    1.70
  -8   7   1    3.18    0.75
  -8   7   1    2.84    0.90
  -8   7   1    3.98    1.02
   8  -7  -1    4.16    0.97
  -8   7   0   77.10    3.26
   8  -7   0   71.81    3.21
  -8   7  -1    0.80    0.52
   8  -7   1   -0.25    0.40
  -8   7  -2   47.10    2.39
   8  -7   2   46.33    2.71
  -8   7  -3   22.04    1.98
   8  -7   3   19.57    2.16
  -8   7  -4   10.44    1.38
   8  -7   4   10.01    1.64
   8  -7   5   23.87    2.60
   8  -7   6    3.29    1.15
   8  -7   7   35.09    2.72
   8  -7   8    2.52    1.04
   8  -7   9   15.99    2.32
   8  -7  10   16.13    2.50
  -7   8   8    6.25    1.60
  -7   8   7    0.70    0.86
  -7   8   6    1.31    0.88
  -7   8   5    4.52    1.24
  -7   8   4    3.88    1.11
  -7   8   4    4.90    1.09
  -7   8   3   29.52    2.82
  -7   8   3   31.36    2.12
  -7   8   2    0.59    0.48
  -7   8   2    0.55    0.50
   7  -8  -2    0.53    0.39
  -7   8   1   50.96    2.49
  -7   8   1   49.57    2.65
   7  -8  -1   45.37    1.74
   7  -8  -1   49.53    2.42
  -7   8   0    5.13    0.97
  -7   8   0    6.25    1.14
   7  -8   0    7.37    1.23
   7  -8   0    6.48    0.63
  -7   8  -1   10.73    1.47
  -7   8  -1   10.22    1.29
   7  -8   1   11.00    1.55
  -7   8  -2   13.85    1.51
  -7   8  -2   13.03    1.46
   7  -8   2   14.55    1.84
  -7   8  -3    2.12    0.66
  -7   8  -3    3.17    0.81
   7  -8   3    2.83    0.89
  -7   8  -4   10.63    1.36
   7  -8   4    8.93    1.50
  -7   8  -5    8.46    1.22
   7  -8   5   12.07    1.76
  -7   8  -6   25.17    1.92
   7  -8   6   27.62    2.73
   7  -8   7   10.01    1.76
   7  -8   8    0.22    0.69
   7  -8   9    4.22    1.32
   7  -8  10    1.05    0.91
   7  -8  11    3.96    1.53
  -6   9   7    2.89    1.29
  -6   9   6   24.05    2.91
  -6   9   5   12.92    1.98
  -6   9   4    2.14    0.91
  -6   9   3   42.40    2.72
  -6   9   2    0.58    0.63
  -6   9   1    5.91    1.28
  -6   9   1    7.45    1.34
   6  -9  -1    7.06    0.92
  -6   9   0   11.85    1.62
  -6   9   0    8.11    1.28
   6  -9   0    9.56    0.97
   6  -9   0   11.73    2.31
  -6   9  -1    6.56    1.18
  -6   9  -1    8.32    1.28
   6  -9   1    7.54    1.31
   6  -9   1    9.23    0.89
  -6   9  -2   31.27    1.95
  -6   9  -2   27.20    1.93
   6  -9   2   30.47    1.15
   6  -9   2   29.23    2.13
  -6   9  -3   15.26    1.60
  -6   9  -3   10.58    1.40
   6  -9   3    9.15    1.54
  -6   9  -4   47.36    2.58
   6  -9   4   52.16    2.94
  -6   9  -5    1.83    0.76
   6  -9   5    2.54    0.96
  -6   9  -6   21.72    2.42
   6  -9   6   25.27    2.69
   6  -9   7    7.18    1.48
   6  -9   8   22.62    2.59
   6  -9   9   17.57    2.42
   6  -9  10    1.43    0.98
   6  -9  11   26.45    3.10
  -5  10   5    7.73    1.66
  -5  10   4   19.89    2.49
  -5  10   3    5.17    1.31
  -5  10   2   25.15    2.65
  -5  10   1   29.82    2.77
  -5  10   0   25.92    2.45
  -5  10  -1   77.96    3.40
  -5  10  -2    0.71    0.53
   5 -10   2    0.54    0.64
   5 -10   2    1.41    0.49
   5 -10   3   70.12    2.13
   5 -10   4    4.19    1.15
   5 -10   5   41.05    2.69
   5 -10   6   20.41    2.43
   5 -10   7   22.03    2.52
   5 -10   8   22.89    2.52
   5 -10   9    0.66    0.73
   5 -10  10   35.18    3.49
   5 -10  11   -0.60    0.69
  -4  11   3    4.93    1.42
  -4  11   2   13.24    2.03
  -4  11   1    2.02    0.86
  -4  11   0   24.38    2.48
  -4  11  -1    1.02    0.68
  -4  11  -2   24.22    2.24
   4 -11   3    3.05    1.04
   4 -11   4    6.96    1.41
   4 -11   5   34.47    2.50
   4 -11   6    0.91    0.71
   4 -11   7   15.44    2.12
   4 -11   8    4.90    1.30
   4 -11   9   10.82    1.91
   4 -11  10    7.92    1.64
   4 -11  11    2.67    1.20
  -3  12   1   15.52    2.22
  -3  12   0    3.34    1.16
  -3  12  -1    0.87    0.70
   3 -12   4   18.40    2.29
   3 -12   5    1.16    0.78
   3 -12   6    5.18    1.32
   3 -12   7   31.35    3.07
   3 -12   9   18.66    2.57
   3 -12  10    2.10    1.06
   2 -13   5    5.46    1.47
   2 -13   6   36.73    3.52
   2 -13   7    0.60    0.70
 -12   4   7    3.65    1.28
 -12   4   6   24.24    2.84
 -12   4   6   17.12    2.63
 -12   4   5    5.81    1.56
 -12   4   5    5.67    1.41
 -12   4   4    4.27    1.31
 -12   4   4    3.06    1.19
  12  -4  -4    2.19    1.05
 -12   4   3   14.55    2.22
 -12   4   3   16.18    2.32
  12  -4  -3   14.28    2.14
 -12   4   2    0.39    0.83
 -12   4   2    0.03    0.66
  12  -4  -2    1.81    0.97
 -12   4   1    5.42    1.48
 -12   4   1    2.26    1.03
  12  -4  -1    4.43    1.40
 -12   4   0    5.08    1.49
 -12   4   0    6.32    1.49
  12  -4   0    4.08    1.38
 -12   4  -1    0.43    0.73
  12  -4   1    0.37    0.77
 -12   4  -2    7.42    1.80
  12  -4   2    8.92    1.87
 -12   4  -3    0.01    0.77
  12  -4   3    0.25    0.74
 -11   5   8    8.14    1.84
 -11   5   7   54.71    3.53
 -11   5   6   11.67    2.02
 -11   5   5   13.07    2.06
 -11   5   4   32.21    3.07
 -11   5   4   37.16    2.64
  11  -5  -4   34.27    2.51
 -11   5   3    0.34    0.56
 -11   5   3    0.61    0.58
  11  -5  -3    0.19    0.72
 -11   5   2   26.21    2.82
 -11   5   2   27.98    2.99
  11  -5  -2   26.61    2.72
 -11   5   1   12.45    1.89
 -11   5   1   12.39    2.03
  11  -5  -1   12.11    1.89
 -11   5   0    8.05    1.65
 -11   5   0    8.21    1.51
  11  -5   0    6.11    1.38
 -11   5  -1   44.71    2.89
 -11   5  -1   45.02    3.10
  11  -5   1   44.52    3.09
 -11   5  -2    0.02    0.74
  11  -5   2    0.74    0.79
 -11   5  -3   39.69    3.78
  11  -5   3   35.59    3.55
 -11   5  -4    8.21    1.89
  11  -5   4    6.19    1.51
 -11   5  -5    2.38    1.20
  11  -5   5    3.73    1.30
 -11   5  -6   14.59    2.45
  11  -5   6   12.65    2.33
 -10   6   8   20.71    2.69
 -10   6   7   22.30    2.76
 -10   6   6    1.15    0.69
 -10   6   5   33.72    3.13
 -10   6   4    8.28    1.57
 -10   6   3   12.18    1.76
 -10   6   3   16.34    2.07
  10  -6  -3   14.40    1.90
 -10   6   2   40.51    2.62
 -10   6   2   38.07    2.51
  10  -6  -2   38.88    2.52
 -10   6   1    1.47    0.74
 -10   6   1    0.58    0.59
  10  -6  -1    0.85    0.65
 -10   6   0   65.61    3.45
 -10   6   0   67.41    3.33
  10  -6   0   61.22    3.33
 -10   6  -1    0.39    0.57
 -10   6  -1    0.15    0.54
  10  -6   1   -0.19    0.57
 -10   6  -2   21.64    2.68
 -10   6  -2   29.22    2.68
  10  -6   2   22.03    2.57
 -10   6  -3    4.14    1.20
 -10   6  -3    4.23    1.14
  10  -6   3    3.47    1.03
 -10   6  -4    3.68    1.23
 -10   6  -4    4.18    1.13
  10  -6   4    3.41    1.11
 -10   6  -5   32.79    3.33
  10  -6   5   27.70    3.04
 -10   6  -6    1.69    0.92
  10  -6   6    0.78    0.87
 -10   6  -7   18.79    2.59
  10  -6   7   17.24    2.52
  -9   7   8    0.25    0.72
  -9   7   7    3.90    1.40
  -9   7   6    3.87    1.26
  -9   7   5   14.75    2.03
  -9   7   4    0.67    0.59
  -9   7   3   28.98    2.71
   9  -7  -3   29.04    1.26
  -9   7   2    0.56    0.65
  -9   7   2    2.09    0.82
  -9   7   2    1.93    0.76
   9  -7  -2    0.76    0.65
  -9   7   1   20.78    2.23
  -9   7   1   15.23    1.77
  -9   7   1   14.95    1.88
   9  -7  -1   16.99    1.94
  -9   7   0    2.65    0.92
  -9   7   0    3.41    0.94
   9  -7   0    1.89    0.83
  -9   7  -1    3.30    0.90
  -9   7  -1    5.25    1.23
   9  -7   1    5.05    1.16
  -9   7  -2    8.76    1.41
   9  -7   2    7.91    1.41
  -9   7  -3    1.88    0.78
   9  -7   3    1.31    0.77
  -9   7  -4   25.49    2.28
   9  -7   4   18.77    2.31
   9  -7   5    2.67    1.02
   9  -7   6    2.06    1.00
   9  -7   7    2.19    1.06
   9  -7   8    3.16    1.25
   9  -7   9    1.43    1.02
  -8   8   8   29.45    3.23
  -8   8   7    0.73    0.79
  -8   8   6   46.35    3.13
  -8   8   5    4.00    1.16
  -8   8   4   22.72    2.54
  -8   8   3   24.73    2.50
  -8   8   2    2.70    0.73
  -8   8   2    4.09    1.07
   8  -8  -2    3.06    0.61
  -8   8   1   50.22    2.80
   8  -8  -1   52.22    1.66
   8  -8  -1   54.14    2.65
  -8   8   0   21.72    2.18
   8  -8   0   16.27    1.84
  -8   8  -1   33.89    2.16
   8  -8   1   34.51    2.28
  -8   8  -2  119.56    4.07
   8  -8   2  108.07    4.32
  -8   8  -3   21.32    1.99
   8  -8   3   19.74    2.16
   8  -8   4   48.24    2.94
   8  -8   5    1.90    0.84
   8  -8   6   34.34    2.62
   8  -8   7    7.64    1.58
   8  -8   8   12.10    2.04
   8  -8   9   10.38    1.91
   8  -8  10   -0.55    0.66
  -7   9   7   17.19    2.50
  -7   9   6    4.61    1.30
  -7   9   5   17.65    2.39
  -7   9   4   23.87    2.67
  -7   9   3    1.76    0.79
  -7   9   2   31.55    2.20
  -7   9   2   31.80    2.36
  -7   9   1   24.84    2.41
  -7   9   1   19.64    2.04
   7  -9  -1   26.65    1.41
  -7   9   0   24.62    1.86
  -7   9   0   27.24    2.51
   7  -9   0   24.91    1.23
   7  -9   0   23.67    1.82
  -7   9  -1   48.02    2.56
  -7   9  -1   51.23    2.68
   7  -9   1   50.76    2.73
  -7   9  -2   25.06    1.85
  -7   9  -2   25.58    1.80
   7  -9   2   30.63    2.16
  -7   9  -3   45.45    2.46
  -7   9  -3   47.65    2.41
   7  -9   3   47.01    2.78
  -7   9  -4    0.84    0.57
   7  -9   4    1.52    0.82
  -7   9  -5   57.68    2.89
   7  -9   5   60.19    3.34
   7  -9   6   26.08    2.80
   7  -9   7    8.16    1.67
   7  -9   8   26.02    2.89
   7  -9   9   -0.19    0.65
   7  -9  10   20.91    2.64
   7  -9  11    1.26    1.07
  -6  10   5   10.31    1.87
  -6  10   4    8.08    1.69
  -6  10   3   37.99    2.74
  -6  10   2   19.82    2.35
  -6  10   1   25.37    2.56
  -6  10   0   54.79    2.96
  -6  10  -1    3.47    0.99
   6 -10   1    3.12    0.95
   6 -10   1    3.38    0.66
  -6  10  -2   33.98    2.16
   6 -10   2   34.67    1.41
   6 -10   2   37.53    2.45
   6 -10   3    8.60    1.49
   6 -10   4    5.68    1.38
   6 -10   5   14.44    2.04
   6 -10   6    0.30    0.66
   6 -10   7   22.93    2.58
   6 -10   8    0.65    0.70
   6 -10   9   15.04    2.34
   6 -10  10    7.96    1.83
   6 -10  11    3.45    1.41
  -5  11   4    0.01    0.68
  -5  11   3   20.77    2.61
  -5  11   2    3.85    1.13
  -5  11   1   14.32    1.97
  -5  11   0   11.82    1.71
  -5  11  -1   -0.24    0.51
  -5  11  -2   30.25    2.14
   5 -11   3    1.28    0.73
   5 -11   4   31.45    2.40
   5 -11   5   12.55    1.82
   5 -11   6   12.41    1.94
   5 -11   7   26.79    2.86
   5 -11   8   -0.51    0.53
   5 -11   9    7.65    1.72
   5 -11  10    2.71    1.12
   5 -11  11    0.74    0.84
  -4  12   1   28.80    2.99
  -4  12   0    2.42    1.02
  -4  12  -1   75.93    3.81
   4 -12   4   36.63    2.66
   4 -12   5   24.21    2.59
   4 -12   6   25.22    2.63
   4 -12   7    0.28    0.67
   4 -12   8   26.42    3.01
   4 -12   9    8.40    1.87
   4 -12  10    6.92    1.67
   3 -13   5    6.79    1.52
   3 -13   6    7.59    1.62
   3 -13   7    6.31    1.51
   3 -13   8   14.81    2.25
 -13   4   4   12.34    2.17
 -13   4   4   15.82    2.47
  13  -4  -4   15.25    2.29
 -13   4   3    0.69    1.00
 -13   4   3    0.50    0.75
  13  -4  -3    0.57    0.88
 -13   4   2   20.32    2.75
 -13   4   2   20.74    3.04
  13  -4  -2   19.15    2.76
 -13   4   1    4.33    1.41
 -13   4   1    5.85    1.78
  13  -4  -1    4.54    1.46
 -12   5   7    5.45    1.52
 -12   5   6    1.70    1.03
 -12   5   5   11.73    1.88
 -12   5   5   10.34    1.93
  12  -5  -5   11.42    1.89
 -12   5   4    0.33    0.68
 -12   5   4    0.12    0.72
  12  -5  -4    1.29    0.85
 -12   5   3   17.56    2.36
 -12   5   3   13.73    2.20
  12  -5  -3   13.82    2.15
 -12   5   2   16.10    2.36
 -12   5   2   15.10    2.19
  12  -5  -2   17.87    2.40
 -12   5   1    3.16    1.14
 -12   5   1    2.95    1.03
  12  -5  -1    3.88    1.28
 -12   5   0   32.29    3.19
 -12   5   0   24.47    2.94
  12  -5   0   21.26    2.60
 -12   5  -1    0.59    0.74
 -12   5  -1    0.72    0.72
  12  -5   1   -0.11    0.69
 -12   5  -2   18.67    2.58
 -12   5  -2   23.18    2.70
  12  -5   2   15.25    2.25
 -12   5  -3    3.85    1.39
  12  -5   3    3.61    1.30
 -12   5  -4   11.20    2.23
  12  -5   4    8.23    1.90
 -11   6   8    5.12    1.49
 -11   6   7    3.44    1.26
 -11   6   6   -0.29    0.61
 -11   6   5   13.89    2.11
 -11   6   4    6.08    1.44
 -11   6   4    7.07    1.42
  11  -6  -4    5.35    1.28
 -11   6   3   18.02    2.34
 -11   6   3   19.12    2.42
  11  -6  -3   15.22    2.01
 -11   6   2    7.03    1.45
 -11   6   2    3.97    1.17
  11  -6  -2    4.19    1.15
 -11   6   1    1.42    0.78
 -11   6   1    3.36    1.10
  11  -6  -1    2.83    1.03
 -11   6   0   10.83    1.79
 -11   6   0    9.70    1.73
  11  -6   0    6.79    1.48
 -11   6  -1    0.57    0.75
 -11   6  -1    0.47    0.68
  11  -6   1    0.55    0.68
 -11   6  -2   17.19    2.19
 -11   6  -2   12.66    2.11
  11  -6   2   15.50    2.28
 -11   6  -3   -0.36    0.58
 -11   6  -3    0.23    0.78
  11  -6   3    0.10    0.61
 -11   6  -4    8.02    1.67
 -11   6  -4    5.31    1.34
  11  -6   4    6.03    1.55
 -11   6  -5   -0.06    0.71
  11  -6   5    0.46    0.82
 -11   6  -6    3.60    1.30
  11  -6   6    1.70    1.06
 -10   7   8   20.61    2.81
 -10   7   7    1.77    1.04
 -10   7   6   30.00    3.18
 -10   7   5    5.08    1.31
 -10   7   4   27.99    2.83
 -10   7   3   19.96    2.33
 -10   7   2    7.20    1.39
 -10   7   2    9.00    1.58
  10  -7  -2    7.17    1.29
 -10   7   1   43.92    2.75
 -10   7   1   49.39    2.88
  10  -7  -1   41.50    2.66
 -10   7   0    1.05    0.67
 -10   7   0    1.15    0.73
  10  -7   0    1.68    0.76
 -10   7  -1   32.87    2.51
 -10   7  -1   36.06    2.41
  10  -7   1   40.90    2.76
 -10   7  -2   16.56    2.26
 -10   7  -2   14.87    1.91
  10  -7   2   17.56    2.25
 -10   7  -3   15.67    1.97
 -10   7  -3   17.43    2.46
  10  -7   3   15.69    2.25
 -10   7  -4   32.42    2.27
 -10   7  -4   36.11    2.80
  10  -7   4   37.03    2.83
 -10   7  -5    0.08    0.60
  10  -7   5    0.25    0.68
 -10   7  -6   26.33    3.05
  10  -7   6   30.62    3.24
 -10   7  -7    8.04    1.75
  10  -7   7    8.71    1.84
 -10   7  -8   13.98    2.51
  10  -7   8   11.06    2.07
  -9   8   7   26.01    3.04
  -9   8   6   17.29    2.39
  -9   8   5   20.69    2.55
  -9   8   4   26.89    2.83
  -9   8   3    1.44    0.83
  -9   8   2   30.94    2.29
  -9   8   1    8.13    1.47
  -9   8   1    8.17    1.43
   9  -8  -1    7.95    1.41
  -9   8   0   55.57    2.97
  -9   8   0   55.49    2.96
   9  -8   0   56.21    3.01
  -9   8  -1   17.62    1.98
   9  -8   1   17.08    2.04
  -9   8  -2   12.27    1.61
   9  -8   2   11.38    1.75
  -9   8  -3   43.07    2.44
   9  -8   3   47.33    2.95
   9  -8   4    1.79    0.85
   9  -8   5   31.28    2.98
   9  -8   6    5.76    1.49
   9  -8   7    9.32    1.75
   9  -8   8   19.39    2.61
   9  -8   9    0.84    0.89
  -8   9   7    9.82    1.99
  -8   9   6   -0.24    0.60
  -8   9   5    7.45    1.60
  -8   9   4    4.95    1.28
  -8   9   3    9.44    1.72
  -8   9   2   19.72    2.31
  -8   9   1    7.95    1.44
   8  -9  -1    9.62    0.91
  -8   9   0   14.69    1.85
   8  -9   0   13.28    1.69
  -8   9  -1    0.06    0.43
   8  -9   1   -0.37    0.52
  -8   9  -2   23.14    2.17
   8  -9   2   16.65    2.06
  -8   9  -3    0.45    0.44
   8  -9   3    0.60    0.67
   8  -9   4   19.72    2.39
   8  -9   5    3.44    1.08
   8  -9   6    5.48    1.29
   8  -9   7   19.03    2.58
   8  -9   8    0.45    0.73
   8  -9   9    3.72    1.24
   8  -9  10    1.87    1.10
  -7  10   5   19.65    2.59
  -7  10   4    0.25    0.64
  -7  10   3   39.19    2.83
  -7  10   2    3.81    1.17
  -7  10   1   27.32    2.67
  -7  10   0   22.33    2.31
  -7  10  -1   10.24    1.55
   7 -10   1   10.87    0.94
   7 -10   1   11.59    1.60
  -7  10  -2   53.95    2.78
  -7  10  -2   52.29    2.88
   7 -10   2   44.87    2.75
  -7  10  -3    0.35    0.52
   7 -10   3    1.51    0.81
   7 -10   4   33.27    3.11
   7 -10   5   15.85    2.17
   7 -10   6    5.37    1.36
   7 -10   7   12.85    2.01
   7 -10   8    0.93    0.87
   7 -10   9   12.86    2.14
   7 -10  10    4.41    1.58
  -6  11   4   21.21    2.63
  -6  11   3   -0.65    0.53
  -6  11   2   11.43    1.90
  -6  11   1   13.23    1.98
  -6  11   0    3.42    1.05
  -6  11  -1   30.37    2.27
  -6  11  -2    0.54    0.66
   6 -11   2    1.10    0.74
   6 -11   3   24.84    2.67
   6 -11   4   17.20    2.15
   6 -11   5   17.74    2.27
   6 -11   6   39.33    2.92
   6 -11   7    1.20    0.87
   6 -11   8   25.69    2.84
   6 -11   9   14.23    2.27
   6 -11  10   23.36    2.95
   6 -11  11    9.62    2.12
  -5  12   2    6.03    1.51
  -5  12   1    0.65    0.83
  -5  12   0    8.94    1.64
  -5  12  -1    1.45    0.85
   5 -12   3   12.58    2.00
   5 -12   4    2.02    0.94
   5 -12   5   16.88    2.37
   5 -12   6   -0.03    0.64
   5 -12   7   10.82    1.91
   5 -12   8   11.64    2.05
   5 -12   9   13.20    2.22
   5 -12  10    9.87    1.98
   4 -13   5    1.59    1.05
   4 -13   6    1.53    0.91
   4 -13   7    6.43    1.63
   4 -13   8    2.43    1.10
   4 -13   9    2.19    1.18
 -13   5   4    0.58    0.81
 -13   5   4    0.06    0.75
  13  -5  -4   -0.47    0.75
 -13   5   3    9.42    1.93
 -13   5   3    8.51    1.85
  13  -5  -3   14.15    2.30
 -13   5   2    0.89    0.97
 -13   5   2    3.45    1.37
  13  -5  -2    3.19    1.34
 -13   5   1    5.01    1.48
 -13   5   1    7.52    1.78
  13  -5  -1    5.36    1.48
 -13   5   0   14.04    2.45
 -13   5   0   21.12    2.79
  13  -5   0   14.72    2.40
 -13   5  -1    0.46    0.85
 -13   5  -1    0.66    1.00
  13  -5   1    0.00    0.76
 -12   6   6   47.19    3.42
 -12   6   5    9.60    1.92
 -12   6   4   24.17    2.85
 -12   6   4   24.46    2.80
  12  -6  -4   24.66    2.72
 -12   6   3   35.54    3.34
 -12   6   3   34.13    3.32
  12  -6  -3   32.72    3.18
 -12   6   2    2.68    1.05
 -12   6   2    5.30    1.36
  12  -6  -2    3.28    1.13
 -12   6   1   29.30    2.99
 -12   6   1   26.88    2.97
  12  -6  -1   21.87    2.58
 -12   6   0    0.28    0.75
 -12   6   0    0.85    0.74
  12  -6   0    0.91    0.76
 -12   6  -1   27.42    3.20
 -12   6  -1   29.97    3.08
  12  -6   1   33.50    3.56
 -12   6  -2    1.15    0.97
 -12   6  -2    2.00    1.10
  12  -6   2    1.63    0.93
 -12   6  -3    8.60    1.68
 -12   6  -3    9.62    2.01
  12  -6   3    6.86    1.65
 -12   6  -4   14.89    2.24
 -12   6  -4   22.14    2.96
  12  -6   4   19.50    2.86
 -11   7   7   31.95    3.45
 -11   7   6    9.42    1.89
 -11   7   5   18.58    2.42
 -11   7   4   34.23    3.36
 -11   7   3   10.72    1.69
 -11   7   3   11.97    1.91
  11  -7  -3    9.25    1.56
 -11   7   2   41.45    2.78
 -11   7   2   44.98    2.95
  11  -7  -2   41.45    2.75
 -11   7   1    2.53    0.99
 -11   7   1    3.05    1.04
  11  -7  -1    2.08    0.92
 -11   7   0   32.81    2.47
 -11   7   0   37.66    2.75
  11  -7   0   35.56    2.69
 -11   7  -1   14.55    2.00
 -11   7  -1   13.35    2.12
  11  -7   1   15.23    2.18
 -11   7  -2    2.77    1.00
 -11   7  -2    3.94    1.29
  11  -7   2    1.67    0.94
 -11   7  -3   10.96    2.02
 -11   7  -3   13.49    1.99
  11  -7   3    8.98    1.79
 -11   7  -4   -1.01    0.57
  11  -7   4    0.80    0.85
 -11   7  -5    9.31    1.90
  11  -7   5    8.40    1.85
 -11   7  -6    3.04    1.15
  11  -7   6    2.86    1.22
 -10   8   7    0.27    0.83
 -10   8   6    2.68    1.16
 -10   8   5   11.74    1.94
 -10   8   4    3.69    1.20
 -10   8   3   13.62    1.96
 -10   8   2   14.19    2.07
 -10   8   1    2.16    0.91
 -10   8   1    2.88    0.99
  10  -8  -1    1.45    0.85
 -10   8   0   16.34    2.21
 -10   8   0   15.40    2.01
  10  -8   0   13.56    1.88
 -10   8  -1    0.26    0.49
 -10   8  -1    1.73    0.80
  10  -8   1    0.50    0.65
 -10   8  -2   17.30    2.01
 -10   8  -2   20.85    2.43
  10  -8   2   20.75    2.42
 -10   8  -3    7.27    1.33
  10  -8   3    4.63    1.30
  10  -8   4    7.15    1.56
  10  -8   5   12.69    2.14
  10  -8   6    0.06    0.73
  10  -8   7    7.41    1.78
  10  -8   8   -0.54    0.79
  -9   9   6   10.98    2.00
  -9   9   5   26.72    2.97
  -9   9   4    0.36    0.60
  -9   9   3   36.17    3.31
  -9   9   2    4.28    1.17
  -9   9   1   38.66    2.65
  -9   9   0   18.99    2.16
   9  -9   0   17.17    1.94
  -9   9  -1    7.73    1.38
   9  -9   1    8.12    1.55
  -9   9  -2   44.40    2.58
   9  -9   2   41.94    2.75
  -9   9  -3    0.92    0.58
   9  -9   3    0.16    0.61
   9  -9   4   35.68    2.66
   9  -9   5    5.16    1.30
   9  -9   6   15.92    2.33
   9  -9   7   17.16    2.38
   9  -9   8    2.23    1.01
   9  -9   9   16.93    2.63
  -8  10   5    9.21    1.79
  -8  10   4   50.94    3.41
  -8  10   3    1.19    0.80
  -8  10   2   34.95    3.22
  -8  10   1   20.68    2.33
  -8  10   0    5.56    1.29
  -8  10  -1   33.30    2.39
  -8  10  -1   34.41    2.37
   8 -10   1   36.31    2.43
  -8  10  -2    1.87    0.76
  -8  10  -2    1.96    0.72
   8 -10   2    0.60    0.69
  -8  10  -3   20.69    2.10
   8 -10   3   26.94    2.71
   8 -10   4   12.99    1.94
   8 -10   5    3.83    1.24
   8 -10   6   24.90    2.67
   8 -10   7    0.93    0.88
   8 -10   8   19.48    2.54
   8 -10   9    3.45    1.35
   8 -10  10   18.80    2.77
  -7  11   4    7.21    1.73
  -7  11   3    1.23    0.83
  -7  11   2   10.64    1.84
  -7  11   1   -0.02    0.59
  -7  11   0   11.26    1.78
  -7  11  -1    7.53    1.47
   7 -11   2   12.67    1.97
   7 -11   3   10.47    1.77
   7 -11   4    1.52    0.83
   7 -11   5   13.93    2.16
   7 -11   6    4.28    1.34
   7 -11   7   17.04    2.42
   7 -11   8    3.65    1.22
   7 -11   9    0.83    0.81
   7 -11  10    3.70    1.46
  -6  12   2   15.58    2.35
  -6  12   1    0.55    0.72
  -6  12   0   25.51    2.84
  -6  12  -1    2.13    0.90
   6 -12   3   12.88    2.08
   6 -12   4    6.71    1.43
   6 -12   5   17.68    2.45
   6 -12   6    1.60    0.95
   6 -12   7   10.30    1.96
   6 -12   8    3.94    1.40
   6 -12   9    3.32    1.32
   6 -12  10    5.27    1.59
  -5  13   0    4.56    1.39
   5 -13   4   50.96    3.35
   5 -13   5    1.20    0.89
   5 -13   6   21.97    2.84
   5 -13   7   10.85    2.09
   5 -13   8   10.45    2.06
   5 -13   9   25.73    3.17
 -13   6   4   13.31    2.23
 -13   6   4   11.95    2.12
  13  -6  -4   11.18    1.93
 -13   6   3    1.48    0.88
 -13   6   3    1.92    1.04
  13  -6  -3    2.38    1.15
 -13   6   2   16.41    2.40
 -13   6   2   25.75    3.13
  13  -6  -2   18.41    2.65
 -13   6   1    0.04    0.59
 -13   6   1   -0.33    0.66
  13  -6  -1    0.65    0.81
 -13   6   0    7.95    1.76
 -13   6   0    6.31    1.68
  13  -6   0    7.03    1.68
 -13   6  -1   10.38    2.08
 -13   6  -1    9.64    1.92
  13  -6   1    4.59    1.37
 -12   7   6    0.55    0.83
 -12   7   5   -0.06    0.64
 -12   7   4    2.21    1.04
 -12   7   3    3.38    1.16
 -12   7   3    3.76    1.20
  12  -7  -3    8.25    1.71
 -12   7   2    1.44    0.85
 -12   7   2    3.26    1.10
  12  -7  -2    0.89    0.80
 -12   7   1    1.54    0.93
 -12   7   1    1.43    0.97
  12  -7  -1    1.87    0.93
 -12   7   0   13.98    2.11
 -12   7   0   16.63    2.42
  12  -7   0   18.74    2.58
 -12   7  -1   -0.22    0.66
 -12   7  -1    0.11    0.74
  12  -7   1   -0.27    0.65
 -12   7  -2   16.00    2.40
 -12   7  -2   11.01    1.93
  12  -7   2   15.25    2.42
 -12   7  -3    2.77    1.16
 -12   7  -3    2.70    1.06
  12  -7   3    1.54    0.92
 -12   7  -4    0.96    0.93
  12  -7   4    1.91    1.03
 -11   8   6    6.92    1.63
 -11   8   5   27.24    3.03
 -11   8   4   10.37    1.87
 -11   8   3   32.42    3.19
 -11   8   2    0.94    0.73
 -11   8   2    1.21    0.75
  11  -8  -2    0.13    0.58
 -11   8   1   32.33    2.48
 -11   8   1   27.96    2.85
  11  -8  -1   33.76    2.54
 -11   8   0    9.74    1.77
 -11   8   0    8.27    1.53
  11  -8   0    7.99    1.66
 -11   8  -1    6.51    1.42
 -11   8  -1    7.14    1.60
  11  -8   1    9.03    1.71
 -11   8  -2   15.09    1.94
 -11   8  -2   16.98    2.44
  11  -8   2   13.42    2.18
 -11   8  -3    0.82    0.76
 -11   8  -3    0.30    0.67
  11  -8   3    0.55    0.73
 -11   8  -4   35.42    3.49
  11  -8   4   24.81    2.90
 -11   8  -5    7.75    1.76
  11  -8   5    6.91    1.64
 -11   8  -6   17.61    2.61
  11  -8   6   21.08    2.81
 -10   9   6   26.70    3.14
 -10   9   5    0.51    0.81
 -10   9   4   25.41    2.88
 -10   9   3   -0.54    0.49
 -10   9   2    8.27    1.59
 -10   9   1    6.60    1.41
 -10   9   1    5.10    1.20
  10  -9  -1    6.54    1.38
 -10   9   0    5.32    1.31
 -10   9   0    5.63    1.31
  10  -9   0    5.01    1.24
 -10   9  -1   25.21    2.55
 -10   9  -1   19.89    2.34
  10  -9   1   18.46    2.19
 -10   9  -2    0.95    0.62
  10  -9   2    0.27    0.69
  10  -9   3   18.67    2.36
  10  -9   4   16.27    2.20
  10  -9   5   12.06    2.01
  10  -9   6   17.53    2.52
  10  -9   7    1.97    1.01
  10  -9   8   15.17    2.38
  -9  10   5    0.48    0.71
  -9  10   4    0.21    0.59
  -9  10   3    1.36    0.89
  -9  10   2   18.58    2.37
  -9  10   1    0.76    0.65
  -9  10   0   18.52    2.15
  -9  10  -1    7.56    1.39
   9 -10   1    8.56    1.57
  -9  10  -2   10.67    1.64
   9 -10   2    9.99    1.75
   9 -10   3   14.16    2.00
   9 -10   4   12.08    2.00
   9 -10   5    5.10    1.41
   9 -10   6   -0.29    0.67
   9 -10   7    7.73    1.76
   9 -10   8    1.35    0.94
   9 -10   9   -0.74    0.60
  -8  11   4   23.70    2.99
  -8  11   3    2.69    1.17
  -8  11   2   26.19    2.90
  -8  11   1    0.93    0.72
  -8  11   0   15.48    2.08
  -8  11  -1    1.30    0.69
   8 -11   2   24.98    2.72
   8 -11   3   10.69    1.88
   8 -11   4    5.09    1.33
   8 -11   5   28.41    2.89
   8 -11   6    0.43    0.78
   8 -11   7   14.36    2.27
   8 -11   8    6.94    1.64
   8 -11   9   10.87    2.13
  -7  12   2    5.48    1.48
  -7  12   1   20.34    2.60
  -7  12   0    5.13    1.34
  -7  12  -1   18.67    2.25
   7 -12   3    3.10    1.08
   7 -12   4   24.45    2.76
   7 -12   5    0.66    0.80
   7 -12   6   46.50    3.36
   7 -12   7    1.69    1.04
   7 -12   8   15.20    2.44
   7 -12   9   10.94    2.20
  -6  13   0    4.08    1.33
   6 -13   4    2.50    1.05
   6 -13   5    9.07    1.77
   6 -13   6    4.51    1.42
   6 -13   7    0.27    0.77
   6 -13   8    1.71    1.01
 -13   7   3   18.34    2.51
 -13   7   3   18.24    2.56
  13  -7  -3   18.40    2.50
 -13   7   2    0.39    0.80
 -13   7   2    1.49    0.96
  13  -7  -2    1.36    0.89
 -13   7   1   16.95    2.48
 -13   7   1   16.75    2.55
  13  -7  -1   13.30    2.19
 -13   7   0    8.59    1.80
 -13   7   0   10.55    2.04
  13  -7   0    8.35    1.81
 -13   7  -1    5.19    1.50
 -13   7  -1    6.26    1.65
  13  -7   1    4.16    1.34
 -13   7  -2   19.30    2.63
 -13   7  -2   14.16    2.47
  13  -7   2   18.46    2.85
 -12   8   5    0.86    0.84
 -12   8   4   23.62    2.81
 -12   8   3    2.17    1.01
 -12   8   2   21.23    2.50
 -12   8   2   17.87    2.40
  12  -8  -2   20.51    2.36
 -12   8   1   22.37    2.66
 -12   8   1   19.68    2.47
  12  -8  -1   21.91    2.58
 -12   8   0    9.09    1.82
 -12   8   0    7.79    1.71
  12  -8   0    7.34    1.61
 -12   8  -1   26.74    2.94
 -12   8  -1   27.81    2.80
  12  -8   1   29.28    3.03
 -12   8  -2    0.30    0.70
 -12   8  -2   -0.10    0.60
  12  -8   2    0.35    0.79
 -12   8  -3   14.81    2.26
 -12   8  -3   18.29    2.27
  12  -8   3   23.22    2.84
 -12   8  -4    3.54    1.41
  12  -8   4    1.12    0.89
 -12   8  -5   16.75    2.72
  12  -8   5   10.10    2.08
 -11   9   5    2.94    1.15
 -11   9   4    8.88    1.78
 -11   9   3    0.26    0.73
 -11   9   2   13.51    2.03
 -11   9   1    1.27    0.84
 -11   9   1   -0.01    0.54
  11  -9  -1    0.28    0.65
 -11   9   0    3.30    1.16
 -11   9   0    3.68    1.16
  11  -9   0    3.25    1.10
 -11   9  -1    3.04    1.06
 -11   9  -1    1.03    0.71
  11  -9   1    2.48    1.10
 -11   9  -2    4.16    1.26
 -11   9  -2    4.16    1.25
  11  -9   2    4.08    1.28
 -11   9  -3    5.85    1.56
  11  -9   3    4.42    1.33
 -11   9  -4    0.21    0.70
  11  -9   4   -0.44    0.61
 -11   9  -5    2.75    1.17
  11  -9   5    3.00    1.16
 -11   9  -6    0.01    0.81
  11  -9   6    0.91    0.90
 -10  10   5   22.77    2.95
 -10  10   4    1.35    0.89
 -10  10   3    7.71    1.66
 -10  10   2   20.76    2.55
 -10  10   1    2.70    1.03
 -10  10   0   50.86    3.06
 -10  10   0   51.33    3.12
  10 -10   0   49.34    3.02
 -10  10  -1    3.96    1.12
  10 -10   1    3.18    1.07
 -10  10  -2   24.84    2.52
  10 -10   2   21.64    2.50
  10 -10   3   31.75    3.14
  10 -10   4   10.67    1.91
  10 -10   5   17.87    2.57
  10 -10   6    0.62    0.68
  10 -10   7   22.42    2.94
  10 -10   8    1.57    0.98
  -9  11   4    4.15    1.34
  -9  11   3   26.09    3.04
  -9  11   2   -0.12    0.61
  -9  11   1   36.03    3.29
  -9  11   0    1.36    0.92
  -9  11  -1   22.72    2.47
   9 -11   2   14.64    2.15
   9 -11   3   14.60    2.26
   9 -11   4   18.86    2.47
   9 -11   5   -0.26    0.68
   9 -11   6   26.13    3.16
   9 -11   7    6.35    1.78
   9 -11   8    4.61    1.45
  -8  12   2   35.45    3.48
  -8  12   1    0.49    0.74
  -8  12   0    9.67    1.72
  -8  12  -1   14.33    2.00
   8 -12   3    5.99    1.37
   8 -12   4    0.98    0.81
   8 -12   5    2.33    1.07
   8 -12   6    3.23    1.22
   8 -12   7    0.41    0.83
   8 -12   8    6.05    1.59
  -7  13   0   12.39    2.08
   7 -13   4   -0.19    0.75
   7 -13   5   27.41    3.14
   7 -13   6    6.20    1.63
   7 -13   7    2.75    1.22
   7 -13   8   13.11    2.39
 -13   8   2    2.43    1.05
 -13   8   2    2.03    1.17
  13  -8  -2    1.05    0.89
 -13   8   1    0.60    0.82
 -13   8   1    1.22    0.79
  13  -8  -1   -0.09    0.69
 -13   8   0    3.20    1.19
 -13   8   0    4.45    1.40
  13  -8   0    3.14    1.19
 -13   8  -1    2.99    1.18
 -13   8  -1    0.97    0.95
  13  -8   1    2.57    1.16
 -13   8  -2    8.56    1.85
 -13   8  -2    5.94    1.45
  13  -8   2    5.81    1.60
 -12   9   4   -0.10    0.59
 -12   9   3    4.99    1.43
 -12   9   2   16.17    2.30
 -12   9   1    2.62    1.01
 -12   9   1    4.67    1.31
  12  -9  -1    2.42    1.00
 -12   9   0   17.14    2.28
 -12   9   0   14.63    2.16
  12  -9   0   14.86    2.07
 -12   9  -1    0.25    0.65
 -12   9  -1   -0.05    0.56
  12  -9   1   -0.71    0.59
 -12   9  -2    7.61    1.84
 -12   9  -2    9.79    1.72
  12  -9   2    7.77    1.67
 -12   9  -3    3.04    1.28
  12  -9   3    3.52    1.30
 -12   9  -4    3.56    1.38
  12  -9   4    3.21    1.24
 -11  10   4   15.57    2.45
 -11  10   3   32.40    3.34
 -11  10   2    6.08    1.54
 -11  10   1   32.84    3.32
 -11  10   0    0.24    0.58
 -11  10   0    0.85    0.76
  11 -10   0    0.05    0.74
 -11  10  -1   26.50    2.92
 -11  10  -1   18.60    2.27
  11 -10   1   25.75    2.89
 -11  10  -2    6.64    1.38
 -11  10  -2    6.69    1.50
  11 -10   2    3.16    1.04
  11 -10   3    2.18    1.03
  11 -10   4   20.31    2.70
  11 -10   5    0.28    0.92
  11 -10   6   13.65    2.36
 -10  11   3    1.38    0.95
 -10  11   2   14.76    2.31
 -10  11   1    2.96    1.19
 -10  11   0    5.87    1.41
 -10  11  -1   10.01    1.68
  10 -11   1    5.24    1.35
  10 -11   2   -0.09    0.70
  10 -11   3   16.70    2.24
  10 -11   4    0.04    0.79
  10 -11   5    7.59    1.73
  10 -11   6    5.63    1.47
  10 -11   7    1.07    0.95
  -9  12   2   11.88    2.14
  -9  12   1    1.85    1.01
  -9  12   0   13.38    2.05
  -9  12  -1    8.84    1.67
   9 -12   2    6.05    1.78
   9 -12   3   20.49    2.78
   9 -12   4    0.56    0.81
   9 -12   5   14.99    2.42
   9 -12   6    2.28    1.14
   9 -12   7    4.73    1.57
  -8  13   0   14.37    2.25
   8 -13   4   14.57    2.32
   8 -13   5   14.12    2.29
   8 -13   6    9.17    1.89
   8 -13   7   31.59    3.52
 -13   9   1   25.33    2.97
 -13   9   1   22.22    2.77
  13  -9  -1   25.53    2.96
 -13   9   0    2.87    1.24
 -13   9   0    3.20    1.22
  13  -9   0    2.70    1.16
 -13   9  -1   11.50    2.16
 -13   9  -1   12.17    2.07
  13  -9   1    9.44    1.92
 -12  10   2    6.88    1.60
 -12  10   1    1.77    1.00
 -12  10   0    1.18    0.79
 -12  10   0    2.62    1.08
  12 -10   0    1.74    1.04
 -12  10  -1    6.67    1.47
 -12  10  -1    9.18    1.77
  12 -10   1    4.32    1.22
 -12  10  -2    0.78    1.04
 -12  10  -2    1.26    0.80
  12 -10   2    0.97    0.91
 -12  10  -3   11.75    2.09
  12 -10   3    9.59    1.90
 -12  10  -4    1.23    0.89
  12 -10   4    2.16    1.26
 -11  11   2    7.22    1.72
 -11  11   1    3.35    1.25
 -11  11   0   17.07    2.33
 -11  11  -1    7.38    1.70
 -11  11  -1   10.05    1.72
  11 -11   1   10.35    1.91
  11 -11   2    1.91    1.01
  11 -11   3   24.14    2.76
  11 -11   4    1.06    1.01
  11 -11   5   10.62    2.06
 -10  12   1   10.98    1.94
 -10  12   0   14.40    2.15
  10 -12   2   19.10    2.45
  10 -12   3    0.72    0.83
  10 -12   4    6.88    1.68
  10 -12   5    9.88    1.95
  10 -12   6    2.42    1.20
   9 -13   3    9.41    2.12
   9 -13   4   17.05    2.58
   9 -13   5    1.76    1.05
   9 -13   6   17.21    2.45
 -12  11   0   11.10    1.97
 -12  11  -1   10.64    1.93
 -12  11  -1    9.67    1.82
  12 -11   1    9.08    1.82
 -12  11  -2   19.54    2.69
  12 -11   2   16.44    2.44
 -11  12   0    0.40    0.79
  11 -12   2    0.85    0.87
  11 -12   3    8.15    1.79
  11 -12   4    3.16    1.31
   0   0   0    0.00    0.00
;
_shelx_hkl_checksum              22801
_olex2_submission_special_instructions 'No special instructions were received'
loop_
_space_group_symop_operation_xyz
'x, y, z'
'-x, -y, -z'
loop_
_atom_site_label
_atom_site_type_symbol
_atom_site_fract_x
_atom_site_fract_y
_atom_site_fract_z
_atom_site_U_iso_or_equiv
_atom_site_adp_type
_atom_site_occupancy
_atom_site_site_symmetry_order
_atom_site_calc_flag
_atom_site_refinement_flags_posn
_atom_site_refinement_flags_adp
_atom_site_refinement_flags_occupancy
_atom_site_disorder_assembly
_atom_site_disorder_group
I1 I 0.36293(2) 0.26885(2) 0.29159(2) 0.01635(7) Uani 1 1 d . . . . .
P1 P 1.02586(8) 0.90785(9) 0.28786(8) 0.01144(17) Uani 1 1 d . . . . .
O1 O 1.0962(2) 0.8191(2) 0.1927(2) 0.0124(4) Uani 1 1 d . . . . .
O2 O 0.9550(2) 0.9415(2) 0.1711(2) 0.0131(5) Uani 1 1 d . . . . .
O3 O 1.1373(2) 1.0480(2) 0.4158(2) 0.0135(5) Uani 1 1 d . . . . .
N1 N 0.8857(3) 0.7807(3) 0.3238(3) 0.0124(6) Uani 1 1 d . . . . .
H1 H 0.881(3) 0.815(4) 0.399(3) 0.015 Uiso 1 1 d . U . . .
C1 C 1.1818(3) 0.7645(3) 0.2509(3) 0.0137(7) Uani 1 1 d . . . . .
C2 C 1.1033(4) 0.6117(4) 0.2405(3) 0.0203(7) Uani 1 1 d . . . . .
H2 H 0.993658 0.545534 0.198265 0.024 Uiso 1 1 calc R U . . .
C3 C 1.1878(4) 0.5574(4) 0.2929(4) 0.0243(8) Uani 1 1 d . . . . .
H3 H 1.136056 0.452648 0.286524 0.029 Uiso 1 1 calc R U . . .
C4 C 1.3475(4) 0.6546(4) 0.3548(3) 0.0190(7) Uani 1 1 d . . . . .
H4 H 1.404848 0.617328 0.392179 0.023 Uiso 1 1 calc R U . . .
C5 C 1.4232(4) 0.8061(4) 0.3621(3) 0.0201(7) Uani 1 1 d . . . . .
H5 H 1.532933 0.872364 0.403670 0.024 Uiso 1 1 calc R U . . .
C6 C 1.3402(3) 0.8621(4) 0.3091(3) 0.0180(7) Uani 1 1 d . . . . .
H6 H 1.391953 0.965756 0.313096 0.022 Uiso 1 1 calc R U . . .
C7 C 0.7565(3) 0.6302(3) 0.2319(3) 0.0114(6) Uani 1 1 d . . . . .
C8 C 0.6470(3) 0.5464(3) 0.2887(3) 0.0120(6) Uani 1 1 d . . . . .
H8 H 0.658593 0.591193 0.385658 0.014 Uiso 1 1 calc R U . . .
C9 C 0.5214(3) 0.3971(3) 0.2022(3) 0.0135(7) Uani 1 1 d . . . . .
C10 C 0.5013(3) 0.3280(3) 0.0609(3) 0.0158(7) Uani 1 1 d . . . . .
H10 H 0.415189 0.225000 0.003145 0.019 Uiso 1 1 calc R U . . .
C11 C 0.6103(3) 0.4132(3) 0.0059(3) 0.0165(7) Uani 1 1 d . . . . .
H11 H 0.598103 0.367683 -0.091131 0.020 Uiso 1 1 calc R U . . .
C12 C 0.7366(3) 0.5631(3) 0.0891(3) 0.0156(7) Uani 1 1 d . . . . .
H12 H 0.809313 0.620082 0.049098 0.019 Uiso 1 1 calc R U . . .
C13 C 0.8878(3) 1.0368(3) 0.1966(3) 0.0131(7) Uani 1 1 d . . . . .
C14 C 0.8403(4) 1.0755(4) 0.3139(3) 0.0198(7) Uani 1 1 d . . . . .
H14 H 0.852878 1.039602 0.383235 0.024 Uiso 1 1 calc R U . . .
C15 C 0.7731(4) 1.1687(4) 0.3281(4) 0.0258(8) Uani 1 1 d . . . . .
H15 H 0.740118 1.197381 0.408237 0.031 Uiso 1 1 calc R U . . .
C16 C 0.7543(4) 1.2195(4) 0.2263(4) 0.0247(8) Uani 1 1 d . . . . .
H16 H 0.708524 1.282807 0.236495 0.030 Uiso 1 1 calc R U . . .
C17 C 0.8022(4) 1.1779(4) 0.1097(4) 0.0224(8) Uani 1 1 d . . . . .
H17 H 0.788418 1.212265 0.039477 0.027 Uiso 1 1 calc R U . . .
C18 C 0.8701(3) 1.0869(3) 0.0943(3) 0.0147(7) Uani 1 1 d . . . . .
H18 H 0.903981 1.059211 0.014562 0.018 Uiso 1 1 calc R U . . .
loop_
_atom_site_aniso_label
_atom_site_aniso_U_11
_atom_site_aniso_U_22
_atom_site_aniso_U_33
_atom_site_aniso_U_23
_atom_site_aniso_U_13
_atom_site_aniso_U_12
I1 0.01394(10) 0.01179(11) 0.01986(13) 0.00697(9) 0.00716(8) 0.00337(8)
P1 0.0114(4) 0.0104(4) 0.0128(5) 0.0052(3) 0.0056(3) 0.0052(3)
O1 0.0151(10) 0.0141(10) 0.0120(12) 0.0057(9) 0.0065(9) 0.0099(9)
O2 0.0168(11) 0.0161(11) 0.0129(12) 0.0077(9) 0.0077(9) 0.0117(9)
O3 0.0136(10) 0.0124(10) 0.0111(12) 0.0038(9) 0.0047(9) 0.0047(9)
N1 0.0126(13) 0.0129(13) 0.0063(15) 0.0016(12) 0.0047(11) 0.0039(11)
C1 0.0179(16) 0.0187(16) 0.0116(18) 0.0060(14) 0.0081(13) 0.0143(14)
C2 0.0154(16) 0.0184(17) 0.027(2) 0.0097(16) 0.0068(15) 0.0086(14)
C3 0.0265(19) 0.0199(18) 0.033(2) 0.0140(17) 0.0117(16) 0.0146(16)
C4 0.0276(18) 0.0260(18) 0.0123(19) 0.0075(15) 0.0058(14) 0.0211(16)
C5 0.0178(16) 0.0225(18) 0.0146(19) 0.0019(15) 0.0027(14) 0.0108(15)
C6 0.0170(16) 0.0137(16) 0.0190(19) 0.0035(14) 0.0067(14) 0.0066(13)
C7 0.0130(15) 0.0076(14) 0.0125(18) 0.0029(13) 0.0037(13) 0.0053(12)
C8 0.0158(15) 0.0129(15) 0.0102(17) 0.0049(13) 0.0060(13) 0.0092(13)
C9 0.0108(14) 0.0103(15) 0.021(2) 0.0085(14) 0.0062(13) 0.0055(12)
C10 0.0138(15) 0.0108(15) 0.0164(19) 0.0041(14) 0.0013(13) 0.0032(13)
C11 0.0204(17) 0.0173(16) 0.0092(18) 0.0033(14) 0.0017(13) 0.0099(14)
C12 0.0142(15) 0.0137(15) 0.0172(19) 0.0067(14) 0.0059(14) 0.0056(13)
C13 0.0119(15) 0.0101(15) 0.0150(18) 0.0030(13) 0.0031(13) 0.0055(12)
C14 0.0243(18) 0.0251(18) 0.020(2) 0.0136(16) 0.0112(15) 0.0172(15)
C15 0.032(2) 0.034(2) 0.025(2) 0.0123(18) 0.0159(17) 0.0260(18)
C16 0.0313(19) 0.031(2) 0.031(2) 0.0176(18) 0.0152(17) 0.0259(17)
C17 0.0262(18) 0.0258(18) 0.024(2) 0.0161(17) 0.0082(16) 0.0160(16)
C18 0.0167(16) 0.0146(16) 0.0161(19) 0.0091(14) 0.0077(14) 0.0084(13)
loop_
_atom_type_symbol
_atom_type_description
_atom_type_scat_dispersion_real
_atom_type_scat_dispersion_imag
_atom_type_scat_source
C C 0.0033 0.0016 'International Tables Vol C Tables 4.2.6.8 and 6.1.1.4'
H H 0.0000 0.0000 'International Tables Vol C Tables 4.2.6.8 and 6.1.1.4'
N N 0.0061 0.0033 'International Tables Vol C Tables 4.2.6.8 and 6.1.1.4'
O O 0.0106 0.0060 'International Tables Vol C Tables 4.2.6.8 and 6.1.1.4'
P P 0.1023 0.0942 'International Tables Vol C Tables 4.2.6.8 and 6.1.1.4'
I I -0.4742 1.8119 'International Tables Vol C Tables 4.2.6.8 and 6.1.1.4'
loop_
_geom_angle_atom_site_label_1
_geom_angle_atom_site_label_2
_geom_angle_atom_site_label_3
_geom_angle
_geom_angle_site_symmetry_1
_geom_angle_site_symmetry_3
_geom_angle_publ_flag
O1 P1 N1 108.31(12) . . ?
O2 P1 O1 95.44(11) . . ?
O2 P1 N1 109.77(12) . . ?
O3 P1 O1 116.13(11) . . ?
O3 P1 O2 115.46(11) . . ?
O3 P1 N1 110.70(12) . . ?
C1 O1 P1 119.34(18) . . ?
C13 O2 P1 123.55(18) . . ?
P1 N1 H1 114(2) . . ?
C7 N1 P1 129.0(2) . . ?
C7 N1 H1 116(2) . . ?
C2 C1 O1 118.8(3) . . ?
C6 C1 O1 118.9(3) . . ?
C6 C1 C2 122.2(3) . . ?
C1 C2 H2 120.7 . . ?
C3 C2 C1 118.5(3) . . ?
C3 C2 H2 120.7 . . ?
C2 C3 H3 119.8 . . ?
C2 C3 C4 120.4(3) . . ?
C4 C3 H3 119.8 . . ?
C3 C4 H4 120.1 . . ?
C5 C4 C3 119.8(3) . . ?
C5 C4 H4 120.1 . . ?
C4 C5 H5 119.8 . . ?
C4 C5 C6 120.5(3) . . ?
C6 C5 H5 119.8 . . ?
C1 C6 C5 118.5(3) . . ?
C1 C6 H6 120.7 . . ?
C5 C6 H6 120.7 . . ?
C8 C7 N1 117.8(3) . . ?
C12 C7 N1 122.6(3) . . ?
C12 C7 C8 119.5(3) . . ?
C7 C8 H8 120.4 . . ?
C9 C8 C7 119.3(3) . . ?
C9 C8 H8 120.4 . . ?
C8 C9 I1 118.6(2) . . ?
C10 C9 I1 119.4(2) . . ?
C10 C9 C8 121.9(3) . . ?
C9 C10 H10 120.9 . . ?
C9 C10 C11 118.2(3) . . ?
C11 C10 H10 120.9 . . ?
C10 C11 H11 119.3 . . ?
C12 C11 C10 121.5(3) . . ?
C12 C11 H11 119.3 . . ?
C7 C12 H12 120.2 . . ?
C11 C12 C7 119.7(3) . . ?
C11 C12 H12 120.2 . . ?
C14 C13 O2 122.9(3) . . ?
C18 C13 O2 115.2(2) . . ?
C18 C13 C14 121.9(3) . . ?
C13 C14 H14 120.8 . . ?
C13 C14 C15 118.3(3) . . ?
C15 C14 H14 120.8 . . ?
C14 C15 H15 119.8 . . ?
C16 C15 C14 120.4(3) . . ?
C16 C15 H15 119.8 . . ?
C15 C16 H16 120.1 . . ?
C15 C16 C17 119.9(3) . . ?
C17 C16 H16 120.1 . . ?
C16 C17 H17 119.7 . . ?
C18 C17 C16 120.5(3) . . ?
C18 C17 H17 119.7 . . ?
C13 C18 C17 118.9(3) . . ?
C13 C18 H18 120.5 . . ?
C17 C18 H18 120.5 . . ?
loop_
_geom_bond_atom_site_label_1
_geom_bond_atom_site_label_2
_geom_bond_distance
_geom_bond_site_symmetry_2
_geom_bond_publ_flag
I1 C9 2.106(3) . ?
P1 O1 1.5838(19) . ?
P1 O2 1.582(2) . ?
P1 O3 1.467(2) . ?
P1 N1 1.625(2) . ?
O1 C1 1.421(3) . ?
O2 C13 1.412(3) . ?
N1 H1 0.78(3) . ?
N1 C7 1.416(4) . ?
C1 C2 1.383(4) . ?
C1 C6 1.371(4) . ?
C2 H2 0.9500 . ?
C2 C3 1.379(4) . ?
C3 H3 0.9500 . ?
C3 C4 1.384(4) . ?
C4 H4 0.9500 . ?
C4 C5 1.382(4) . ?
C5 H5 0.9500 . ?
C5 C6 1.385(4) . ?
C6 H6 0.9500 . ?
C7 C8 1.396(4) . ?
C7 C12 1.394(4) . ?
C8 H8 0.9500 . ?
C8 C9 1.385(4) . ?
C9 C10 1.381(4) . ?
C10 H10 0.9500 . ?
C10 C11 1.386(4) . ?
C11 H11 0.9500 . ?
C11 C12 1.384(4) . ?
C12 H12 0.9500 . ?
C13 C14 1.381(4) . ?
C13 C18 1.380(4) . ?
C14 H14 0.9500 . ?
C14 C15 1.397(4) . ?
C15 H15 0.9500 . ?
C15 C16 1.382(4) . ?
C16 H16 0.9500 . ?
C16 C17 1.382(4) . ?
C17 H17 0.9500 . ?
C17 C18 1.382(4) . ?
C18 H18 0.9500 . ?
loop_
_geom_torsion_atom_site_label_1
_geom_torsion_atom_site_label_2
_geom_torsion_atom_site_label_3
_geom_torsion_atom_site_label_4
_geom_torsion
_geom_torsion_site_symmetry_1
_geom_torsion_site_symmetry_2
_geom_torsion_site_symmetry_3
_geom_torsion_site_symmetry_4
_geom_torsion_publ_flag
I1 C9 C10 C11 -177.9(2) . . . . ?
P1 O1 C1 C2 92.3(3) . . . . ?
P1 O1 C1 C6 -91.0(3) . . . . ?
P1 O2 C13 C14 -17.6(4) . . . . ?
P1 O2 C13 C18 163.6(2) . . . . ?
P1 N1 C7 C8 -176.8(2) . . . . ?
P1 N1 C7 C12 4.1(4) . . . . ?
O1 P1 O2 C13 -172.7(2) . . . . ?
O1 P1 N1 C7 -50.7(3) . . . . ?
O1 C1 C2 C3 177.8(3) . . . . ?
O1 C1 C6 C5 -178.2(3) . . . . ?
O2 P1 O1 C1 178.10(19) . . . . ?
O2 P1 N1 C7 52.4(3) . . . . ?
O2 C13 C14 C15 -179.1(3) . . . . ?
O2 C13 C18 C17 178.6(3) . . . . ?
O3 P1 O1 C1 56.3(2) . . . . ?
O3 P1 O2 C13 -50.3(2) . . . . ?
O3 P1 N1 C7 -179.0(2) . . . . ?
N1 P1 O1 C1 -69.0(2) . . . . ?
N1 P1 O2 C13 75.6(2) . . . . ?
N1 C7 C8 C9 -178.4(3) . . . . ?
N1 C7 C12 C11 177.8(3) . . . . ?
C1 C2 C3 C4 0.2(5) . . . . ?
C2 C1 C6 C5 -1.6(5) . . . . ?
C2 C3 C4 C5 -1.1(5) . . . . ?
C3 C4 C5 C6 0.7(5) . . . . ?
C4 C5 C6 C1 0.6(5) . . . . ?
C6 C1 C2 C3 1.1(5) . . . . ?
C7 C8 C9 I1 177.4(2) . . . . ?
C7 C8 C9 C10 0.3(4) . . . . ?
C8 C7 C12 C11 -1.2(4) . . . . ?
C8 C9 C10 C11 -0.8(4) . . . . ?
C9 C10 C11 C12 0.2(4) . . . . ?
C10 C11 C12 C7 0.8(4) . . . . ?
C12 C7 C8 C9 0.7(4) . . . . ?
C13 C14 C15 C16 0.4(5) . . . . ?
C14 C13 C18 C17 -0.2(4) . . . . ?
C14 C15 C16 C17 0.0(5) . . . . ?
C15 C16 C17 C18 -0.5(5) . . . . ?
C16 C17 C18 C13 0.6(5) . . . . ?
C18 C13 C14 C15 -0.3(5) . . . . ?

_cod_database_fobs_code 2108937
