#------------------------------------------------------------------------------
#$Date: 2020-05-23 07:57:44 +0300 (Sat, 23 May 2020) $
#$Revision: 252310 $
#$URL: file:///home/coder/svn-repositories/cod/cif/2/10/86/2108614.cif $
#------------------------------------------------------------------------------
#
# This file is available in the Crystallography Open Database (COD),
# http://www.crystallography.net/. The original data for this entry
# were provided by IUCr Journals, http://journals.iucr.org/.
#
# The file may be used within the scientific community so long as
# proper attribution is given to the journal article from which the
# data were obtained.
#
data_2108614
loop_
_publ_author_name
'Yakubovich, Olga'
'Kiriukhina, Galina'
'Shvanskaya, Larisa'
'Volkov, Anatoliy'
'Dimitrova, Olga'
_publ_section_title
;
 Joint crystallization of KCuAl[PO~4~]~2~ and K(Al,Zn)~2~[(P,Si)O~4~]~2~:
 crystal chemistry and mechanism of formation of phosphate-silicate
 epitaxial heterostructure
;
_journal_coeditor_code           JE5028SUP1
_journal_issue                   3
_journal_name_full               'Acta Crystallographica Section B'
_journal_page_first
;
;
_journal_paper_doi               10.1107/S2052520620005715
_journal_volume                  76
_journal_year                    2020
_chemical_formula_moiety         'Al Cu K O8 P2'
_chemical_formula_sum            'Al Cu K O8 P2'
_chemical_formula_weight         319.56
_chemical_name_common            'potassium copper aluminium phosphate'
_chemical_name_systematic        'potassium copper aluminium bis(phosphate)'
_space_group_crystal_system      monoclinic
_space_group_IT_number           14
_space_group_name_Hall           '-P 2ybc'
_space_group_name_H-M_alt        'P 1 21/c 1'
_atom_sites_solution_primary     direct
_atom_sites_solution_secondary   difmap
_audit_creation_method           SHELXL-2016/6
_cell_angle_alpha                90
_cell_angle_beta                 102.290(10)
_cell_angle_gamma                90
_cell_formula_units_Z            4
_cell_length_a                   5.0270(8)
_cell_length_b                   14.047(2)
_cell_length_c                   9.2630(10)
_cell_measurement_reflns_used    3068
_cell_measurement_temperature    293(2)
_cell_measurement_theta_max      30.0450
_cell_measurement_theta_min      3.6590
_cell_volume                     639.11(15)
_computing_cell_refinement
;
CrysAlisPro, Agilent Technologies,
Version 1.171.37.35 (release 13-08-2014 CrysAlis171 .NET)
(compiled Aug 13 2014,18:06:01)
;
_computing_data_collection
;
CrysAlisPro, Agilent Technologies,
Version 1.171.37.35 (release 13-08-2014 CrysAlis171 .NET)
(compiled Aug 13 2014,18:06:01)
;
_computing_data_reduction
;
CrysAlisPro, Agilent Technologies,
Version 1.171.37.35 (release 13-08-2014 CrysAlis171 .NET)
(compiled Aug 13 2014,18:06:01)
;
_computing_molecular_graphics    'DIAMOND (Brandenburg, 2006)'
_computing_structure_refinement  'SHELXL-2016/6 (Sheldrick, 2016)'
_computing_structure_solution    'SHELXT (Sheldrick, 2015)'
_diffrn_ambient_temperature      293(2)
_diffrn_detector_area_resol_mean 16.0630
_diffrn_measured_fraction_theta_full 1.000
_diffrn_measured_fraction_theta_max 1.000
_diffrn_measurement_device_type  'Xcalibur, Sapphire3'
_diffrn_measurement_method       \w
_diffrn_radiation_type           MoK\a
_diffrn_radiation_wavelength     0.71073
_diffrn_reflns_av_R_equivalents  0.0573
_diffrn_reflns_av_unetI/netI     0.0370
_diffrn_reflns_Laue_measured_fraction_full 1.000
_diffrn_reflns_Laue_measured_fraction_max 1.000
_diffrn_reflns_limit_h_max       6
_diffrn_reflns_limit_h_min       -6
_diffrn_reflns_limit_k_max       18
_diffrn_reflns_limit_k_min       -18
_diffrn_reflns_limit_l_max       12
_diffrn_reflns_limit_l_min       -12
_diffrn_reflns_number            9355
_diffrn_reflns_point_group_measured_fraction_full 1.000
_diffrn_reflns_point_group_measured_fraction_max 1.000
_diffrn_reflns_theta_full        25.242
_diffrn_reflns_theta_max         27.494
_diffrn_reflns_theta_min         2.677
_diffrn_source                   'Enhance(Mo)X-ray Source'
_exptl_absorpt_coefficient_mu    4.718
_exptl_absorpt_correction_T_max  1.000
_exptl_absorpt_correction_T_min  0.957
_exptl_absorpt_correction_type   multi-scan
_exptl_absorpt_process_details
;
CrysAlisPro, Agilent Technologies,
Version 1.171.37.35 (release 13-08-2014 CrysAlis171 .NET)
(compiled Aug 13 2014,18:06:01)
Empirical absorption correction using spherical harmonics,
 implemented in SCALE3 ABSPACK scaling algorithm.
;
_exptl_crystal_colour            'light green'
_exptl_crystal_density_diffrn    3.321
_exptl_crystal_density_meas      ?
_exptl_crystal_description       isometric
_exptl_crystal_F_000             620
_exptl_crystal_size_max          0.066
_exptl_crystal_size_mid          0.062
_exptl_crystal_size_min          0.056
_refine_diff_density_max         0.625
_refine_diff_density_min         -1.019
_refine_diff_density_rms         0.166
_refine_ls_extinction_method     none
_refine_ls_goodness_of_fit_ref   1.229
_refine_ls_hydrogen_treatment    undef
_refine_ls_matrix_type           full
_refine_ls_number_parameters     122
_refine_ls_number_reflns         1469
_refine_ls_number_restraints     0
_refine_ls_restrained_S_all      1.229
_refine_ls_R_factor_all          0.0556
_refine_ls_R_factor_gt           0.0485
_refine_ls_shift/su_max          0.000
_refine_ls_shift/su_mean         0.000
_refine_ls_structure_factor_coef Fsqd
_refine_ls_weighting_details
'w=1/[\s^2^(Fo^2^)+(0.0140P)^2^+5.5000P] where P=(Fo^2^+2Fc^2^)/3'
_refine_ls_weighting_scheme      calc
_refine_ls_wR_factor_gt          0.0905
_refine_ls_wR_factor_ref         0.0930
_reflns_Friedel_coverage         0.000
_reflns_number_gt                1360
_reflns_number_total             1469
_reflns_threshold_expression     'I > 2\s(I)'
_cod_data_source_file            je5028sup1.cif
_cod_data_source_block           I
_cod_depositor_comments
;
The following automatic conversions were performed:

data item '_exptl_crystal_density_meas' value 'not measured' was
changed to '?' -- the value is perceived as not measured.

Automatic conversion script
Id: cif_fix_values 7556 2019-12-06 15:28:31Z antanas 
;
_cod_original_sg_symbol_H-M      'P 21/c'
_cod_database_code               2108614
_shelx_shelxl_version_number     2016/6
_shelx_space_group_comment
;
The symmetry employed for this shelxl refinement is uniquely defined
by the following loop, which should always be used as a source of
symmetry information in preference to the above space-group names.
They are only intended as comments.
;
_shelx_estimated_absorpt_t_min   0.746
_shelx_estimated_absorpt_t_max   0.778
_shelx_res_file
;
TITL shelxt_a.res in P2(1)/c
    shelx.res
    created by SHELXL-2016/6 at 13:46:56 on 23-Dec-2019
CELL  0.71073   5.0270  14.047   9.263   90.000  102.29   90.000
ZERR     4.00   0.0008   0.002   0.001    0.000    0.01    0.000
LATT   1
SYMM  - X, 1/2 + Y, 1/2 - Z
SFAC  O    AL   P    K  CU
UNIT  32 4 8 4 4
MERG   2
FMAP   2
PLAN   20
OMIT -3 55
ACTA
EADP K1 K2
BOND
SIZE 0.066x0.062x0.056
LIST
L.S. 16
WGHT    0.014000    5.500000
FVAR       2.12968   0.79663
CU1   5    0.740856    0.955397    0.456315    11.00000    0.01223    0.00966 =
         0.01578    0.00050    0.00678    0.00070
K1    4    0.684302    0.827896    0.804488    21.00000    0.02043    0.01851 =
         0.01549   -0.00111    0.00139    0.00014
K2    4    0.726013    0.822375    0.777329   -21.00000    0.02043    0.01851 =
         0.01549   -0.00111    0.00139    0.00014
P1    3    0.235789    0.826797    0.454586    11.00000    0.00934    0.00485 =
         0.00797    0.00026    0.00322   -0.00075
P2    3    0.788997    0.509610    0.668711    11.00000    0.00920    0.00641 =
         0.00824   -0.00168    0.00392   -0.00043
AL1   2    0.258535    0.629402    0.612649    11.00000    0.00672    0.00302 =
         0.00501   -0.00090    0.00167   -0.00033
O1    1    0.410355    0.913707    0.523189    11.00000    0.00964    0.00445 =
         0.01283   -0.00099    0.00369   -0.00192
O2    1   -0.061958    0.835921    0.465514    11.00000    0.00917    0.00797 =
         0.01896   -0.00079    0.00353   -0.00108
O3    1    0.912494    0.588142    0.589268    11.00000    0.01085    0.01113 =
         0.01417    0.00159    0.00416   -0.00208
O4    1    0.361171    0.741236    0.546755    11.00000    0.01670    0.00553 =
         0.00975    0.00322    0.00276   -0.00034
O5    1    0.744870    0.418186    0.580718    11.00000    0.02509    0.00805 =
         0.01369   -0.00275    0.01018   -0.00312
O6    1    0.264064    0.811858    0.296168    11.00000    0.01936    0.01013 =
         0.00971   -0.00036    0.00394   -0.00035
O7    1    0.514539    0.545761    0.696821    11.00000    0.01203    0.01706 =
         0.01909    0.00442    0.00923    0.00547
O8    1    0.966745    0.490659    0.821076    11.00000    0.01173    0.01640 =
         0.01144    0.00252    0.00335    0.00182
HKLF 4




REM  shelxt_a.res in P2(1)/c
REM R1 =  0.0485 for    1360 Fo > 4sig(Fo)  and  0.0556 for all    1469 data
REM    122 parameters refined using      0 restraints

END

WGHT      0.0157      5.6558

REM Highest difference peak  0.625,  deepest hole -1.019,  1-sigma level  0.166
Q1    1   0.3683  0.6324  0.6158  11.00000  0.05    0.63
Q2    1   0.2548  0.5956  0.6317  11.00000  0.05    0.61
Q3    1   0.1759  0.6364  0.6068  11.00000  0.05    0.55
Q4    1   0.6377  0.5230  0.7433  11.00000  0.05    0.53
Q5    1   0.8557  0.4620  0.8225  11.00000  0.05    0.53
Q6    1   0.8719  0.9075  0.3754  11.00000  0.05    0.52
Q7    1   1.0618  0.5668  0.6962  11.00000  0.05    0.51
Q8    1   0.9647  0.5204  0.8744  11.00000  0.05    0.51
Q9    1   0.2903  0.8075  0.5158  11.00000  0.05    0.50
Q10   1   0.3022  0.6149  0.6765  11.00000  0.05    0.50
Q11   1  -0.1270  0.8923  0.5151  11.00000  0.05    0.50
Q12   1   0.2876  0.7053  0.5503  11.00000  0.05    0.49
Q13   1   0.3620  0.8359  0.2697  11.00000  0.05    0.49
Q14   1   0.8129  0.9585  0.5610  11.00000  0.05    0.47
Q15   1   0.7962  0.4622  0.6143  11.00000  0.05    0.47
Q16   1   1.0428  0.5949  0.6084  11.00000  0.05    0.41
Q17   1   0.4958  0.5222  0.6555  11.00000  0.05    0.41
Q18   1   0.1676  0.8249  0.3146  11.00000  0.05    0.41
Q19   1   0.6419  0.4072  0.4920  11.00000  0.05    0.40
Q20   1   0.9534  0.6500  0.6262  11.00000  0.05    0.40
;
_shelx_res_checksum              58685
_shelx_hkl_file
;
   0   0  -2 44623.6 1011.36   9
   0   0  -2 41369.1 1078.00   6
   0   0   2 41324.1 1081.06  10
   0   0   2 44971.3 889.353   3
   0   0   2 46084.1 1104.40   6
   0   0  -2 45633.5 1112.37   7
   0   0   2 44320.1 1094.92   7
   0   0  -3 71.0531 160.746   6
   0   0  -3 51.9179 101.595   9
   0   0   3 5.60858 150.466  10
   0   0   3 34.6822 65.3924   3
   0   0   3 15.2209 133.963   7
   0   0   4 8581.97 367.578   3
   0   0   4 9497.00 582.983   7
   0   0   4 8689.24 574.517  10
   0   0  -4 8521.85 564.478   6
   0   0  -5 112.439 192.957   6
   0   0   5 104.265 80.3298   3
   0   0   5-116.605 188.980  10
   0   0   6 2311.02 217.548   3
   0   0  -6 2593.03 435.608   6
   0   0   6 2082.22 363.135  10
   0   0  -7 227.310 309.991   6
   0   0   7 258.476 256.686  10
   0   0   8 39590.2 1810.89  10
   0   0  -8 40738.3 1839.79   6
   0   0   9 201.714 239.007  10
   0   0  -9 108.457 307.895   6
   0   0  10 2475.14 544.187  10
   0   0 -10 2062.75 535.981   6
   0   0 -11 465.295 410.101   6
   0   0  11 651.533 385.832  10
   0   0 -12 9120.70 1121.71   6
   0   0  12 10042.0 1162.06  10
   0  -1  -1 19082.2 508.132   9
   0   1   1 18143.3 511.427   6
   0   1  -1 18072.2 504.924   5
   0   1  -1 18312.6 496.198   7
   0   1  -1 18527.1 505.634  10
   0  -1   1 18482.9 507.038   2
   0   1  -1 18235.0 467.187   1
   0  -1   2 5728.99 289.702   1
   0   1  -2 5103.06 282.123   1
   0   1  -2 5232.27 318.677   7
   0  -1  -2 5137.47 291.711   9
   0  -1   2 4988.66 300.314   6
   0  -1  -2 4554.46 314.003   6
   0   1   2 4766.59 292.726   9
   0   1   2 5131.22 317.635   6
   0  -1   2 4505.66 191.676   3
   0   1  -2 5225.09 313.149  10
   0  -1   2 5399.84 326.309   7
   0  -1   2 5068.59 313.574  10
   0   1  -2 4732.72 291.931   6
   0  -1  -2 4550.60 232.137   4
   0  -1  -2 5633.06 315.180   7
   0   1  -2 5590.73 332.250   2
   0   1  -2 4560.37 189.378   3
   0   1   3 133394. 2686.09   9
   0  -1   3 129892. 2363.31   3
   0  -1  -3 135646. 2547.46   4
   0  -1   3 131009. 2764.61  10
   0   1  -3 130574. 2735.41   6
   0  -1  -3 126289. 2774.77   6
   0  -1  -3 140556. 2688.78   9
   0   1  -3 135578. 2561.93   9
   0  -1   3 135523. 2632.57   1
   0  -1   3 133171. 2777.16   7
   0   1  -3 129728. 2356.60   3
   0   1   4 1702.83 242.880   9
   0  -1  -4 1819.36 223.131   4
   0   1  -4 1429.33 197.929   9
   0  -1   4 1474.51 141.904   3
   0  -1   4 1277.65 256.872  10
   0  -1  -4 1741.96 297.645   6
   0   1   4 1528.69 298.442  10
   0  -1   4 1826.85 286.693   7
   0   1  -4 1451.48 266.712   6
   0   1  -5 9454.84 655.177   6
   0   1   5 9557.60 688.399  10
   0   1   5 9039.44 444.911   3
   0  -1   5 9228.10 660.366  10
   0  -1  -5 8563.47 651.044   6
   0  -1   5 8111.05 365.000   3
   0  -1  -6 41999.8 1610.76   6
   0  -1   6 35232.4 960.700   3
   0   1   6 42918.5 1629.51  10
   0   1  -6 43025.1 1602.70   6
   0  -1   6 43319.0 1609.49  10
   0   1   6 37643.5 1088.46   3
   0  -1  -7 456.778 338.964   6
   0   1  -7 394.167 246.633   6
   0   1   7 323.805 281.771  10
   0  -1   7 546.158 333.088  10
   0   1  -8 1733.16 446.010   6
   0  -1   8 1640.18 420.763  10
   0  -1  -8 1656.89 413.211   6
   0   1   8 964.310 377.085  10
   0  -1   9 7560.39 825.804  10
   0   1  -9 7817.32 859.053   6
   0   1   9 7836.77 879.358  10
   0  -1  -9 7646.35 858.651   6
   0   1  10 584.865 353.091  10
   0   1 -10 470.764 380.664   6
   0  -1 -10 113.466 321.607   6
   0  -1  10 512.934 343.468  10
   0  -1  11 14348.6 1280.74  10
   0  -1 -11 14273.7 1307.73   6
   0   1  11 14266.5 1277.92  10
   0   1 -11 13067.0 1225.66   6
   0   1 -12 755.537 429.767   6
   0   1  12-72.1368 410.616  10
   0  -1  12 818.701 484.527  10
   0  -1 -12 1387.42 498.381   6
   0   2   0 51962.4 1109.00   5
   0  -2   0 53714.0 1081.01   9
   0   2   1 10842.0 418.990   9
   0  -2   1 11763.8 401.909   2
   0   2  -1 11169.0 371.532   7
   0   2  -1 11540.2 410.419  10
   0  -2   1 11271.0 418.617   5
   0  -2  -1 11178.9 425.613   9
   0   2  -1 11434.1 397.307   2
   0  -2   1 11350.4 406.217  10
   0   2  -1 11155.6 415.879   5
   0  -2  -1 10129.8 391.622   6
   0   2   1 10808.0 403.378   6
   0  -2   1 11606.3 371.501   7
   0   2  -2 2511.55 170.593   3
   0   2   2 2739.76 248.278   6
   0   2  -2 2944.28 256.035  10
   0   2  -2 2906.41 255.765   5
   0   2  -2 2488.89 223.526   1
   0   2  -2 2894.68 240.231   7
   0  -2   2 2596.09 233.982   7
   0  -2   2 2442.19 242.541   5
   0   2   2 2324.44 164.744   4
   0  -2  -2 2848.46 249.531   9
   0  -2  -2 3102.22 270.397   6
   0   2   2 2409.96 242.386   9
   0  -2   2 2493.60 233.673  10
   0  -2  -2 2668.66 220.641   7
   0   2  -2 2982.59 256.518   2
   0   2   3 56916.9 1479.93   9
   0  -2   3 57536.2 1191.09   3
   0   2  -3 56205.3 1404.12   1
   0  -2   3 57209.1 1498.05  10
   0   2  -3 57024.6 1463.57   6
   0  -2   3 58940.8 1406.13   1
   0   2  -3 53779.1 1170.65   3
   0  -2  -3 56994.3 1533.75   6
   0  -2   3 57660.6 1509.47   7
   0  -2  -4 2791.01 256.030   4
   0  -2   4 2933.08 198.163   3
   0   2  -4 2588.33 324.779   6
   0  -2  -4 2994.12 359.216   6
   0  -2   4 3293.97 374.810  10
   0   2   4 2607.08 314.095   9
   0  -2   4 2733.05 356.527   7
   0   2  -4 2981.56 201.885   3
   0  -2   5 12369.9 759.353  10
   0  -2   5 11220.4 432.480   3
   0  -2   5 12245.3 757.592   7
   0  -2  -5 12079.4 773.087   6
   0   2  -5 11562.1 723.244   6
   0   2   5 11295.3 764.368  10
   0   2   5 11949.2 703.600   9
   0   2  -6 5117.67 550.941   6
   0  -2   6 4965.07 542.205  10
   0  -2   6 4166.61 263.232   3
   0  -2  -6 4345.54 555.154   6
   0   2   6 3367.17 497.284  10
   0   2   7 899.348 354.927  10
   0  -2   7 1577.19 393.236  10
   0   2  -7 1870.50 395.694   6
   0  -2  -7 772.727 309.754   6
   0  -2  -8 2946.76 538.408   6
   0  -2   8 2213.48 469.199  10
   0   2   8 3460.67 574.107  10
   0   2  -8 2874.07 497.591   6
   0  -2  -9 4761.11 678.150   6
   0  -2   9 5069.41 694.412  10
   0   2   9 5319.27 721.641  10
   0   2  -9 4750.99 667.411   6
   0   2 -10 2402.42 527.492   6
   0  -2  10 2581.03 578.295  10
   0   2  10 1608.86 485.713  10
   0  -2 -10 2684.91 588.107   6
   0   2 -11 1988.18 562.380   6
   0   2  11 863.724 452.874  10
   0  -2 -11 1747.32 526.321   6
   0  -2  11 373.787 366.060  10
   0  -2 -12 2198.15 607.751   6
   0  -2  12 1343.04 493.835  10
   0   2 -12 2337.43 576.888   6
   0   2  12 1302.42 505.209  10
   0   3   0 35.3759 45.3722   2
   0  -3   0 84.9968 56.1059   2
   0   3   0 54.2116 86.6185   9
   0  -3   0 138.423 101.351   5
   0   3   0 16.8991 76.9629   5
   0  -3   0 78.1400 81.3072   9
   0   3  -1 964.322 136.572   2
   0  -3  -1 861.115 149.366   6
   0  -3  -1 1006.51 155.947   9
   0  -3   1 1136.24 158.362  10
   0   3  -1 1015.33 122.979   7
   0  -3  -1 1212.30 169.132   5
   0  -3   1 787.245 128.180   2
   0   3   1 1027.33 143.459   6
   0   3  -1 1136.33 160.914   5
   0   3  -1 1451.77 171.872  10
   0  -3   1 1064.68 163.451   5
   0  -3   1 1100.20 124.181   7
   0   3   1 961.786 158.786   9
   0  -3   2 2205.93 246.198  10
   0  -3  -2 2192.95 238.301   9
   0   3  -2 1911.34 231.387   5
   0   3  -2 1571.28 168.042   3
   0  -3   2 2008.14 230.587   2
   0   3  -2 1869.50 203.436   7
   0   3  -2 2247.35 237.478  10
   0   3   2 2148.64 251.169   6
   0   3   2 1808.06 239.378   9
   0  -3  -2 1912.60 230.208   6
   0  -3   2 1574.13 223.243   5
   0  -3   2 2040.34 220.370   7
   0   3  -2 1916.90 225.700   2
   0  -3  -2 1972.65 193.845   7
   0   3  -3 1132.29 146.450   3
   0   3  -3 1343.92 222.123   6
   0  -3  -3 1364.11 206.400   7
   0  -3   3 1395.09 229.129   7
   0  -3   3 1228.93 231.837  10
   0   3  -3 1190.92 197.075   1
   0   3   3 1122.84 143.419   4
   0   3   3 973.285 215.342   9
   0  -3  -3 1278.99 237.340   6
   0   3  -4 35167.5 1152.86   1
   0  -3   4 36989.7 1256.19  10
   0   3   4 34782.6 1232.73   9
   0   3  -4 34455.9 1193.50   6
   0   3  -4 34042.3 899.607   3
   0  -3   4 35658.1 1246.13   7
   0  -3  -4 35687.4 1276.42   6
   0   3  -5 2056.70 336.601   6
   0   3   5 1991.94 318.460   9
   0  -3   5 1821.14 340.381  10
   0  -3   5 2093.78 349.845   7
   0  -3  -5 1753.58 359.121   6
   0   3  -5 1641.17 175.069   3
   0   3   6 11990.2 793.321   9
   0   3   6 10187.3 815.065  10
   0   3  -6 10867.2 460.828   3
   0   3  -6 10783.8 780.532   6
   0  -3   6 11449.0 815.515  10
   0  -3  -6 11002.2 817.040   6
   0   3  -7 1691.60 382.882   6
   0   3   7 2135.64 444.525  10
   0  -3   7 1200.99 320.948  10
   0  -3  -7 2162.57 448.999   6
   0  -3   8 5608.78 687.929  10
   0   3  -8 6813.99 748.241   6
   0  -3  -8 7004.01 767.384   6
   0   3   8 6577.01 749.310  10
   0   3  -9 5852.01 737.786   6
   0  -3  -9 5334.65 718.267   6
   0  -3   9 4422.62 670.067  10
   0   3   9 5328.24 728.625  10
   0   3 -10 428.155 367.988   6
   0  -3  10 204.082 274.703  10
   0  -3 -10 258.617 344.590   6
   0   3  10 265.338 301.825  10
   0   3  11 368.888 418.325  10
   0  -3 -11 473.863 377.445   6
   0  -3  11 722.458 372.058  10
   0   3 -11 423.937 357.131   6
   0  -3  12 921.975 436.384  10
   0   3  12 1920.25 562.193  10
   0   3 -12 836.179 482.036   6
   0   4   0 745.629 146.584   5
   0   4   0 621.315 154.784   9
   0   4   0 690.764 99.2812   2
   0  -4   0 620.542 163.108   5
   0  -4   0 654.588 95.8298   2
   0  -4   0 745.088 163.075   9
   0  -4   1 13171.2 578.834   5
   0   4  -1 14376.1 575.786  10
   0  -4  -1 13210.5 399.463   2
   0  -4  -1 13617.7 583.871   5
   0  -4   1 14051.1 503.833   2
   0   4  -1 13809.1 500.155   2
   0  -4  -1 11594.2 506.829   6
   0  -4   1 12792.4 431.224   7
   0   4  -1 12381.8 494.655   9
   0  -4   1 13845.1 573.617  10
   0   4  -1 14254.1 596.576   5
   0  -4  -1 13839.5 596.311   9
   0   4   1 13562.3 537.014   6
   0   4  -1 12514.4 426.450   7
   0   4   1 12511.6 578.957   9
   0  -4   2 5023.16 360.821   2
   0  -4   2 4703.53 325.725   7
   0  -4   2 4379.97 354.726   5
   0  -4  -2 4704.45 283.615   7
   0   4   2 4840.85 386.956   9
   0   4  -2 4926.49 329.327   7
   0  -4   2 4874.95 362.150  10
   0   4  -2 4590.82 344.847   2
   0  -4  -2 4316.49 353.506   6
   0  -4  -3 2174.67 246.826   7
   0   4  -3 2339.65 265.640   1
   0  -4   3 2497.30 302.595   5
   0  -4   3 2496.41 287.558   7
   0  -4  -3 2270.58 298.147   6
   0  -4   3 2495.92 301.728  10
   0   4   3 2092.11 299.167   9
   0   4  -3 2098.29 213.074   3
   0   4  -4 2452.12 315.502   1
   0  -4   4 2210.25 319.718  10
   0   4   4 2305.04 205.865   4
   0  -4  -4 2728.91 374.983   6
   0   4  -4 2485.56 232.620   3
   0  -4   4 2948.57 362.534   7
   0   4   4 2734.25 359.991   9
   0   4  -4 2287.86 306.651   6
   0  -4   5 115.857 183.848   7
   0   4  -5 67.0816 180.303   1
   0  -4   5 2.39260 205.830  10
   0   4  -5 169.643 185.210   6
   0   4  -5 111.883 100.309   3
   0  -4  -5 21.0574 214.446   6
   0   4   5 227.696 198.169   9
   0   4   6 13152.3 861.053   9
   0   4  -6 12850.7 849.599   6
   0  -4   6 12889.2 873.085  10
   0  -4  -6 12723.5 877.703   6
   0   4  -6 13531.9 551.912   3
   0  -4   7 2539.80 473.713  10
   0   4   7 2889.49 529.317  10
   0   4  -7 2687.26 462.558   6
   0  -4  -7 3449.08 560.078   6
   0   4   7 2595.79 434.650   9
   0  -4  -8 10341.2 921.145   6
   0  -4   8 8860.02 858.743  10
   0   4  -8 9279.04 848.140   6
   0   4   8 10320.0 934.689  10
   0   4   9 1088.45 425.957  10
   0   4  -9 1002.88 378.346   6
   0  -4   9 1367.61 406.882  10
   0  -4  -9 788.526 357.947   6
   0  -4  10 6953.17 851.677  10
   0  -4 -10 6794.03 885.258   6
   0   4 -10 6259.22 849.617   6
   0   4  10 7040.78 886.664  10
   0   4  11 196.200 393.109  10
   0   4 -11 406.944 379.150   6
   0  -4 -11-147.438 320.665   6
   0  -4  11 113.141 256.603  10
   0  -4  12 1186.42 470.360  10
   0   4 -12 1307.88 561.911   6
   0   5   0 75.9962 130.153   9
   0  -5   0 115.005 76.4125   2
   0  -5   0 27.7036 38.1367   7
   0  -5   0 177.377 145.346   5
   0   5   0 90.1978 80.9632   2
   0  -5   0 13.2899 126.222   9
   0  -5  -1 17700.2 476.621   8
   0   5   1 19778.1 711.340   6
   0   5  -1 18150.9 544.735   7
   0   5  -1 19609.8 639.663   2
   0  -5   1 18690.5 554.078   7
   0   5  -1 18258.5 682.250   9
   0  -5   1 18761.7 760.438   5
   0  -5  -1 17860.4 748.769   5
   0  -5   1 18936.7 636.795   2
   0   5   1 19281.0 791.809   9
   0  -5  -1 18382.0 515.927   2
   0  -5  -2 1830.90 277.197   5
   0  -5   2 1528.01 216.063   2
   0  -5   2 1631.13 219.401   7
   0  -5   2 1426.62 237.359  10
   0  -5  -2 1486.71 233.762   6
   0   5   2 1683.05 267.598   9
   0  -5   2 1591.52 247.503   5
   0   5  -2 1667.84 198.758   7
   0  -5  -2 1465.36 161.978   7
   0   5  -3 3977.41 323.976   3
   0  -5  -3 3447.94 297.131   7
   0   5   3 3117.74 384.756   9
   0  -5   3 3899.47 391.675   5
   0  -5   3 3814.97 346.999   7
   0  -5   3 3761.39 376.973  10
   0  -5  -3 4353.31 403.909   6
   0   5  -4 34119.8 1211.76   6
   0   5   4 33625.1 1305.93   9
   0   5  -4 32173.7 1176.94   1
   0   5  -4 33787.2 1035.41   3
   0  -5   4 34119.4 1301.76   5
   0   5   4 33346.7 907.946   4
   0  -5   4 34872.2 1254.76   7
   0  -5  -4 35911.3 1315.10   6
   0  -5   4 34630.2 1276.79  10
   0   5  -5 14297.0 809.643   1
   0  -5  -5 17054.0 960.073   6
   0   5  -5 15884.1 858.772   6
   0  -5   5 15927.9 903.500   7
   0   5   5 16178.3 923.693   9
   0   5  -5 14978.1 637.656   3
   0  -5   5 13724.8 850.714  10
   0   5  -6 8721.75 468.587   3
   0   5   6 9253.07 764.665   9
   0  -5  -6 7264.41 682.864   6
   0   5  -6 7791.02 650.645   1
   0   5  -6 8857.20 701.442   6
   0  -5   6 7863.48 691.973  10
   0   5  -7 3545.14 517.588   6
   0   5  -7 3436.26 283.642   3
   0   5   7 4363.52 576.572   9
   0  -5  -7 3389.95 526.577   6
   0  -5   7 2247.53 437.906  10
   0  -5   8 211.059 274.010  10
   0  -5  -8 128.509 307.842   6
   0   5  -8 467.794 270.797   6
   0   5   8 231.618 284.201   9
   0   5   8 203.556 273.766  10
   0   5  -9 1152.85 406.526   6
   0   5   9 263.688 328.203  10
   0  -5   9 923.269 370.339  10
   0  -5  -9 825.787 369.865   6
   0  -5  10 1728.29 479.789  10
   0   5  10 1532.44 494.881  10
   0  -5 -10 2892.65 590.403   6
   0   5 -10 2036.59 561.376   6
   0   5 -11 1577.64 516.207   6
   0   5  11 775.687 392.827  10
   0  -5 -11 1068.67 404.043   6
   0  -5  11 1561.32 464.197  10
   0   5 -12 1132.25 473.415   6
   0  -5  12 382.599 364.638  10
   0   6   0 35412.2 1147.97   9
   0  -6   0 35615.7 754.089   7
   0  -6   0 36586.2 904.595   2
   0   6   0 37151.9 897.302   2
   0  -6   0 35803.2 1183.40   5
   0  -6  -1 3087.99 171.626   8
   0   6  -1 3481.29 202.617   8
   0   6  -1 3597.01 220.611   7
   0  -6  -1 3862.79 225.931   2
   0  -6   1 4139.05 382.698   5
   0   6  -1 3696.67 332.723   9
   0   6  -1 4731.25 308.383   2
   0  -6   1 3925.04 285.727   2
   0  -6   1 3890.68 235.694   7
   0   6   1 3736.13 368.588   9
   0  -6  -1 3654.96 367.640   5
   0   6  -2 33977.9 1066.63   9
   0  -6  -2 37215.3 1170.93   6
   0  -6   2 36718.8 1219.58  10
   0   6  -2 38751.7 1043.79   7
   0  -6  -2 36690.3 922.776   7
   0   6   2 35940.7 1279.06   9
   0  -6  -2 35103.4 1250.78   5
   0  -6   2 36537.2 1134.23   2
   0  -6   2 37169.8 1046.62   7
   0  -6   2 35053.5 1237.30   5
   0   6  -3 3082.20 318.045   3
   0   6   3 2571.04 364.286   9
   0  -6   3 2881.63 316.748   7
   0  -6   3 2263.26 333.599   5
   0  -6  -3 3233.56 363.401   6
   0  -6  -3 2841.18 266.796   7
   0  -6   3 2904.31 351.617  10
   0  -6   4 547.086 235.955  10
   0  -6  -4 1086.23 281.053   6
   0   6  -4 611.360 207.674   1
   0   6   4 1438.21 322.800   9
   0  -6   4 511.540 236.742   5
   0  -6   4 395.290 173.282   7
   0   6   4 1813.64 206.458   4
   0   6  -4 363.600 128.049   3
   0  -6   5 26244.3 1190.52   7
   0  -6  -5 29065.3 1292.88   6
   0   6   5 26003.3 831.815   4
   0  -6   5 27579.1 1240.95  10
   0   6  -5 28209.7 985.409   3
   0   6  -5 27357.5 1171.19   6
   0   6  -5 25272.6 1137.66   1
   0   6   5 27307.9 1285.52   9
   0   6  -6 15628.4 697.417   3
   0  -6   6 14849.9 970.246  10
   0  -6  -6 13884.6 947.125   6
   0   6  -6 16388.0 971.331   6
   0   6   6 15690.1 1012.45   9
   0   6  -6 14230.9 892.669   1
   0   6   7 39086.9 1729.44   9
   0  -6   7 38242.8 1694.59  10
   0  -6  -7 37760.6 1719.55   6
   0   6  -7 35848.2 1118.89   3
   0   6  -7 38060.1 1629.45   6
   0   6   8 5991.17 768.862  10
   0   6   8 7903.67 810.336   9
   0   6  -8 6937.86 731.768   6
   0  -6   8 7697.68 796.874  10
   0  -6  -8 8217.93 846.998   6
   0  -6   9 2256.35 507.588  10
   0  -6  -9 2622.52 565.928   6
   0   6   9 3537.78 632.076  10
   0   6  -9 2207.31 490.799   6
   0  -6  10 545.730 352.665  10
   0   6  10 998.150 503.685  10
   0  -6 -10 413.103 306.060   6
   0   6 -10 833.757 388.272   6
   0  -6 -11 979.481 491.802   6
   0   6  11 1830.08 563.376  10
   0   6 -11 796.465 414.274   6
   0  -6  11 632.470 332.463  10
   0  -7   0-91.0282 156.050   5
   0   7   0 101.230 92.8788   2
   0  -7   0 45.6128 76.0015   2
   0  -7   0 79.2136 48.6944   7
   0   7   0 0.78287 128.298   9
   0  -7   1 3160.62 271.446   2
   0   7  -1 3184.32 274.174   2
   0  -7  -1 2284.09 145.973   8
   0  -7   1 3331.91 223.132   7
   0   7  -1 2735.97 198.261   7
   0  -7   1 3565.15 390.151   5
   0  -7  -1 3186.39 369.409   5
   0   7  -1 2807.91 178.745   8
   0  -7  -1 3165.33 213.465   2
   0   7   1 3311.91 376.552   9
   0   7  -1 3412.51 348.652   9
   0  -7   2 49809.3 1545.29  10
   0  -7  -2 47364.0 1148.12   2
   0   7  -2 47829.4 1391.70   9
   0   7   2 49487.7 1614.27   9
   0  -7   2 50248.1 1413.95   2
   0  -7   2 47962.7 1560.94   5
   0   7  -2 48573.1 1257.50   7
   0  -7   2 48330.6 1271.50   7
   0  -7  -2 48438.9 1119.81   7
   0  -7  -2 47420.5 1569.42   5
   0   7  -3 3031.56 312.847   9
   0  -7  -3 2749.62 383.197   5
   0   7   3 3089.31 430.912   9
   0  -7   3 2550.28 387.513   5
   0  -7  -3 2853.68 266.787   7
   0  -7   3 2735.12 312.825   7
   0  -7  -3 3195.06 382.185   6
   0  -7   3 2729.54 355.637  10
   0   7  -4 48082.9 1457.96   3
   0   7   4 47198.1 1711.97   9
   0  -7   4 44578.4 1650.34   5
   0   7  -4 44198.9 1546.71   1
   0  -7   4 46193.1 1609.36  10
   0  -7   4 43943.8 1481.75   7
   0  -7  -4 44894.4 1602.14   6
   0   7   5 1722.72 373.712   9
   0  -7   5 1617.50 352.470   7
   0   7   5 1524.89 205.165   4
   0   7  -5 971.283 271.479   1
   0  -7   5 2049.09 392.403  10
   0   7  -5 1314.28 275.828   6
   0   7  -5 1413.85 250.649   3
   0  -7  -5 1330.41 334.001   6
   0  -7   5 1376.25 336.972   5
   0  -7   6 50876.9 1920.12  10
   0   7  -6 49468.6 1808.22   1
   0   7   6 53414.2 2045.00   9
   0   7  -6 53702.6 1555.92   3
   0  -7  -6 52083.4 1979.98   6
   0   7  -6 53350.0 1863.83   6
   0  -7   7 1480.99 364.411  10
   0  -7  -7 2083.66 445.653   6
   0   7  -7 2020.35 410.581   6
   0   7   7 2594.57 484.595   9
   0   7  -7 1246.39 343.914   1
   0   7  -8 4005.61 581.034   6
   0  -7  -8 4931.05 694.568   6
   0  -7   8 4527.69 633.371  10
   0   7   8 3985.22 595.458   9
   0  -7   9 200.718 276.292  10
   0   7  -9 684.524 315.521   6
   0   7   9-124.180 224.237   9
   0  -7  -9 83.3486 262.339   6
   0   7   9 819.371 411.579  10
   0   7 -10 7674.17 896.618   6
   0  -7 -10 8810.85 1014.98   6
   0   7  10 8202.15 1032.27  10
   0  -7  10 6547.46 838.602  10
   0   7 -11 23.7753 286.368   6
   0   7  11 869.733 488.344  10
   0  -7 -11 267.304 353.542   6
   0  -7  11-219.628 261.875  10
   0   8   0 19363.1 929.903   9
   0  -8   0 20304.7 973.977   5
   0  -8   0 19963.7 501.187   7
   0   8   0 20772.5 676.614   2
   0  -8   0 22074.3 702.095   2
   0  -8  -1 2331.89 360.674   5
   0  -8   1 2245.47 243.858   2
   0   8  -1 2027.77 150.119   8
   0   8   1 2304.02 347.813   9
   0   8  -1 2350.36 319.826   9
   0  -8  -1 1269.91 110.620   7
   0  -8  -1 2129.70 188.091   2
   0   8  -1 1659.13 208.516   2
   0  -8   1 1871.38 171.150   7
   0  -8   1 2133.88 327.964   5
   0  -8  -2 7048.20 326.800   7
   0  -8   2 7718.19 505.724   2
   0   8  -2 7638.18 516.190   9
   0  -8  -2 7812.38 374.602   2
   0  -8  -2 7517.42 613.422   5
   0  -8   2 7251.32 591.736   5
   0  -8  -2 6945.50 333.977   8
   0   8   2 8048.44 638.537   9
   0   8  -2 6731.06 392.352   7
   0   8  -2 7999.25 402.588   8
   0  -8   2 7540.24 427.624   7
   0  -8   3 30076.6 1229.44  10
   0  -8   3 28395.0 1246.71   5
   0  -8  -3 26988.7 1137.38   6
   0   8  -3 26948.0 1009.99   9
   0  -8   3 27514.3 1010.67   7
   0  -8  -3 25858.8 850.073   7
   0   8   3 26969.8 1250.79   9
   0  -8  -3 26229.4 1224.61   5
   0  -8  -4 30829.3 1296.61   6
   0   8  -4 32205.2 1226.34   3
   0  -8   4 30290.7 1188.27   7
   0  -8  -4 27727.7 1338.96   5
   0   8  -4 30595.7 1089.44   9
   0  -8   4 29933.0 1362.28   5
   0   8   4 29152.6 1371.15   9
   0  -8   4 30300.2 1309.63  10
   0  -8   5 17847.7 1095.65   5
   0  -8  -5 20208.3 1101.45   6
   0   8  -5 17455.7 994.697   1
   0  -8   5 17855.4 1041.32  10
   0   8   5 17741.2 1102.06   9
   0   8  -5 19625.7 1002.58   6
   0   8   5 17897.9 664.799   4
   0   8  -5 18826.8 901.543   3
   0  -8   5 18041.8 1000.32   7
   0  -8  -6 2341.45 457.494   6
   0   8  -6 1730.78 348.298   6
   0   8  -6 1619.30 271.827   3
   0  -8   6 1803.50 394.724  10
   0   8   6 1617.10 437.215   9
   0   8  -6 2106.62 395.445   1
   0  -8  -7 14627.4 1090.11   6
   0   8  -7 15883.3 1032.53   6
   0   8   7 12828.1 1061.16   9
   0   8  -7 13541.0 968.486   1
   0  -8   7 14642.3 1059.46  10
   0   8   8 7515.27 842.483   9
   0  -8  -8 8126.07 853.899   6
   0   8  -8 7606.83 792.250   6
   0  -8   8 7370.20 804.089  10
   0   8   9 7730.43 943.011   9
   0   8  -9 7544.81 809.391   6
   0   8   9 7849.53 980.265  10
   0  -8  -9 7154.52 869.504   6
   0  -8   9 9031.90 945.590  10
   0  -8 -10 950.497 409.887   6
   0  -8  10 1205.14 441.620  10
   0   8 -10 920.195 408.918   6
   0   8  10 1413.70 572.049  10
   0   8 -11 422.690 327.789   6
   0  -8  11-5.60914 277.422  10
   0  -9   0 24.9355 37.1395   7
   0  -9   0 24.0560 82.3552   2
   0  -9   0-145.458 171.805   5
   0   9   0-144.151 166.160   9
   0   9   0 170.261 115.237   2
   0  -9  -1 59416.4 1309.23   2
   0  -9   1 57007.8 1492.28   2
   0   9  -1 57201.3 1756.30   9
   0  -9  -1 58865.1 1900.29   5
   0  -9   1 58722.3 1259.22   7
   0   9  -1 48853.8 1095.23   8
   0  -9   1 60550.1 1896.70   5
   0   9   1 57363.1 1858.45   9
   0  -9   2 11736.2 793.233   5
   0  -9   2 12229.9 662.839   2
   0   9  -2 10060.1 483.202   7
   0  -9  -2 10904.6 458.149   2
   0  -9   2 12617.8 561.885   7
   0  -9  -2 10884.7 398.401   7
   0   9  -2 11336.5 481.057   8
   0   9   2 11558.6 808.326   9
   0   9  -2 12184.5 708.566   9
   0  -9  -2 8918.97 376.687   8
   0  -9  -2 11367.9 786.209   5
   0  -9   3 22593.2 1170.59   5
   0  -9   3 21629.3 893.011   7
   0  -9  -3 20136.0 732.240   2
   0   9  -3 23692.5 975.305   9
   0  -9  -3 20307.6 1120.71   5
   0  -9   3 22577.8 1104.71  10
   0   9   3 22903.8 1186.40   9
   0  -9  -3 21318.1 733.683   7
   0  -9  -4 13290.0 934.990   5
   0  -9  -4 13924.2 878.144   6
   0   9  -4 12844.2 712.877   9
   0   9   4 13450.7 943.718   9
   0  -9   4 11779.4 872.571   5
   0   9  -4 14298.6 840.573   3
   0  -9   4 12949.0 768.503   7
   0  -9   4 11829.1 838.578  10
   0   9  -5 1947.48 327.536   3
   0  -9   5 1910.72 403.953  10
   0   9  -5 2060.18 392.114   1
   0   9  -5 1926.03 285.438   9
   0   9   5 2454.82 250.603   4
   0  -9  -5 1667.28 411.128   5
   0   9   5 1662.57 395.058   9
   0  -9  -5 1719.36 388.921   6
   0  -9   5 1191.04 344.984   5
   0  -9   6 1019.85 311.286  10
   0   9  -6 832.164 226.415   3
   0   9   6 1364.22 417.935   9
   0   9  -6 405.721 231.871   1
   0  -9  -6 889.475 332.065   6
   0   9  -6 1317.51 320.592   6
   0   9  -7-61.1365 181.462   6
   0  -9  -7-37.9274 249.108   6
   0  -9   7 1001.50 352.291  10
   0   9  -7 267.664 249.279   1
   0   9   7 782.397 373.245   9
   0  -9  -8 2002.62 473.979   6
   0   9  -8 2855.54 497.365   6
   0   9   8 2430.56 521.477   9
   0   9  -8 2521.60 468.686   1
   0  -9   8 2451.11 494.048  10
   0   9  -9 9822.73 971.670   6
   0  -9  -9 10616.2 1051.91   6
   0  -9   9 11199.4 1075.87  10
   0   9   9 9160.58 1016.02   9
   0   9  10 1016.62 485.453  10
   0   9 -10 1086.80 430.595   6
   0  -9 -10 980.655 424.345   6
   0  -9  10 1093.19 429.329  10
   0   9  10 789.050 432.121   9
   0   9 -11 5880.10 866.964   6
   0  -9  11 5955.97 858.490  10
   0 -10   0 7270.95 648.092   5
   0 -10   0 7451.11 422.716   2
   0  10   0 7606.59 628.299   9
   0  10   0 7009.26 405.301   2
   0 -10   1 11930.0 607.503   2
   0 -10  -1 12071.0 830.956   5
   0  10   1 13132.6 860.332   9
   0 -10   1 12595.8 848.429   5
   0  10  -1 12239.6 770.016   9
   0 -10  -1 12574.3 503.870   2
   0 -10   1 11245.9 428.525   7
   0 -10  -2 23093.4 1179.61   5
   0 -10  -2 19315.0 521.562   7
   0 -10   2 21796.1 918.684   2
   0  10  -2 20260.9 712.486   7
   0  10  -2 22595.1 685.929   8
   0 -10   2 23525.2 785.815   7
   0 -10   2 21591.1 1139.04   5
   0  10   2 24973.3 1232.51   9
   0  10  -2 24359.8 1060.02   9
   0 -10  -2 22029.4 686.786   2
   0 -10  -3 686.269 302.714   5
   0  10  -3 182.973 134.427   9
   0  10   3 626.706 305.574   9
   0 -10  -3 201.365 112.904   2
   0 -10   3 391.595 174.610   7
   0  10  -3 235.904 150.133   8
   0 -10   3 291.252 280.351   5
   0 -10  -4 6288.09 429.055   2
   0  10  -4 6906.56 545.463   9
   0 -10  -4 6405.55 701.985   5
   0  10  -4 6353.38 596.039   3
   0 -10   4 7333.15 676.489  10
   0 -10  -4 8110.67 681.342   6
   0  10   4 6608.03 704.453   9
   0 -10   4 6021.92 676.779   5
   0  10   5 2284.03 498.815   9
   0  10  -5 2318.80 407.432   1
   0 -10  -5 2194.70 480.251   5
   0  10  -5 2769.84 350.753   9
   0 -10   5 2878.01 469.359  10
   0 -10  -5 2450.79 452.363   6
   0  10  -5 2278.85 364.419   3
   0 -10   5 2127.19 449.016   5
   0  10  -6 2493.10 340.251   9
   0  10  -6 2868.53 400.381   3
   0  10   6 2820.62 527.171   9
   0  10  -6 2205.49 391.764   6
   0 -10  -6 3086.14 583.883   5
   0 -10   6 2401.29 462.113  10
   0 -10   6 2828.98 507.521   5
   0  10  -6 2842.35 470.046   1
   0 -10  -6 2654.01 501.809   6
   0 -10   7 258.924 290.392  10
   0  10  -7 379.176 259.762   6
   0  10  -7 161.784 211.809   1
   0  10   7 468.072 295.777   9
   0 -10  -7 558.200 302.420   6
   0  10  -8 438.296 278.778   1
   0  10   8 458.402 328.044   9
   0 -10  -8 1095.11 396.508   6
   0  10  -8 1127.21 353.538   6
   0 -10   8 499.227 322.195  10
   0  10  -9 781.977 346.025   6
   0 -10   9 465.676 336.395  10
   0  10   9-31.7915 270.121   9
   0  10  10 3288.80 704.316   9
   0 -10 -10 3818.62 700.253   6
   0  10 -10 3180.84 655.044   6
   0  10  10 3656.09 744.935  10
   0 -10  10 3502.29 651.264  10
   0  10 -11 1317.79 481.557   6
   0 -11   0 228.050 135.838   2
   0 -11   0 133.855 229.542   5
   0  11   0 126.354 194.237   9
   0 -11  -1 2163.81 217.524   2
   0 -11   1 1628.53 240.836   2
   0  11  -1 1741.37 317.070   9
   0  11   1 2330.88 432.629   9
   0 -11   1 2200.98 416.845   5
   0 -11  -1 2488.48 428.088   5
   0 -11   2 10625.6 652.818   2
   0  11  -2 9368.65 409.999   8
   0  11  -2 10840.9 751.929   9
   0 -11  -2 10043.3 450.630   2
   0 -11  -2 10925.3 850.351   5
   0 -11   2 10357.0 818.828   5
   0  11   2 9522.13 809.274   9
   0  11   3 237.131 308.672   9
   0  11  -3 114.942 104.458   8
   0 -11  -3 65.2344 87.5671   2
   0 -11   3 104.448 254.152   5
   0  11  -3 211.718 193.695   9
   0 -11  -3 555.417 258.852   5
   0 -11  -4 835.295 164.675   2
   0 -11  -4 951.596 332.131   5
   0  11  -4 893.086 234.284   9
   0  11  -4 669.235 194.802   8
   0  11  -4 965.978 288.461   3
   0 -11   4 1201.35 350.967   5
   0  11   4 1125.68 358.018   9
   0  11  -5 1294.47 257.053   9
   0  11   5 1619.25 423.644   9
   0 -11  -5 1151.73 381.822   5
   0 -11   5 1233.13 330.507  10
   0 -11   5 807.320 354.473   5
   0  11  -5 1172.17 286.301   3
   0 -11  -5 1230.11 358.506   6
   0  11  -5 663.853 293.750   1
   0  11   6 968.091 420.387   9
   0  11  -6 598.685 272.093   1
   0 -11  -6 963.775 326.138   6
   0  11  -6 1127.55 287.098   6
   0  11  -6 965.788 293.611   3
   0 -11  -6 315.893 318.577   5
   0 -11   6 1051.29 375.065   5
   0 -11   6 779.270 357.696  10
   0  11  -7 1154.70 345.584   1
   0  11   7 1171.67 440.036   9
   0 -11  -7 697.434 429.255   5
   0 -11   7 1041.77 376.591  10
   0 -11  -7 1698.19 474.086   6
   0  11  -7 1225.58 362.645   6
   0  11   8 527.866 317.217   9
   0  11  -8 781.484 312.207   6
   0 -11  -8 550.006 341.827   6
   0 -11  -8 1427.79 502.830   5
   0  11  -8 446.690 302.054   1
   0 -11   8 1477.58 469.043  10
   0 -11   9 5176.78 758.994  10
   0  11   9 4937.12 797.230   9
   0  11  -9 4416.45 679.597   6
   0 -11  -9 4909.59 810.280   6
   0 -11  10 817.213 402.463  10
   0 -11 -10 743.014 367.268   6
   0  11  10 443.204 437.702   9
   0  11 -10-224.351 313.730   6
   0 -12   0 5288.42 610.364   5
   0  12   0 5454.33 612.310   9
   0 -12   0 5779.01 395.253   2
   0 -12   1 119.925 117.701   2
   0 -12  -1 188.647 239.831   5
   0  12  -1 196.504 229.521   9
   0 -12   1 82.1657 207.886   5
   0 -12  -1 69.8602 88.4686   2
   0  12   1 68.3512 238.544   9
   0  12   2 2523.97 458.138   9
   0  12  -2 3115.91 454.512   9
   0 -12  -2 2322.70 462.560   5
   0 -12   2 2045.93 417.922   5
   0  12  -3 165.762 212.721   9
   0 -12   3 364.960 293.096   5
   0  12   3 425.631 304.764   9
   0 -12  -3-212.665 245.151   5
   0  12  -4 539.572 254.008   3
   0  12   4 592.312 319.690   9
   0  12  -4 703.916 252.543   9
   0 -12   4 390.099 317.514   5
   0 -12  -4 215.411 282.428   5
   0  12  -5 654.402 264.172   3
   0  12   5 592.802 344.263   9
   0 -12   5 882.834 315.933   5
   0 -12  -5 868.112 398.612   5
   0 -12   5 438.926 270.031  10
   0  12  -5 938.788 252.239   9
   0  12   6 3206.93 629.365   9
   0 -12   6 2324.49 540.653   5
   0  12  -6 3078.49 465.488   3
   0 -12  -6 2169.19 517.304   5
   0  12  -6 2770.21 506.998   1
   0 -12  -6 2132.05 467.253   6
   0  12  -6 2562.27 437.212   6
   0 -12   6 3023.96 550.705  10
   0  12  -7 290.893 245.634   6
   0 -12  -7 683.694 355.996   6
   0 -12   7 1205.21 512.751  10
   0 -12  -7 419.928 360.185   5
   0  12  -7 528.051 330.600   1
   0  12   7 351.550 386.196   9
   0 -12   8 4269.54 670.144  10
   0  12   8 3606.48 744.985   9
   0 -12  -8 5019.95 739.945   6
   0 -12  -8 3468.03 689.304   5
   0  12  -8 3245.19 541.880   6
   0  12  -8 2679.59 537.375   1
   0  12  -9 452.821 333.128   1
   0 -12  -9 759.559 440.311   6
   0 -12  -9-8.76967 279.757   5
   0  12   9 888.149 557.077   9
   0 -12   9 154.013 262.506  10
   0 -12  10 581.155 422.083  10
   0 -13   0 95.6151 203.550   5
   0  13   0 85.8720 199.157   9
   0 -13  -1 10517.8 916.340   5
   0  13   1 10451.0 897.157   9
   0  13  -1 9863.00 835.689   9
   0 -13   1 10985.7 917.817   5
   0  13   2 1379.66 399.094   9
   0  13  -2 917.951 301.760   9
   0 -13  -2 1589.09 419.445   5
   0 -13   2 1483.66 366.908   5
   0 -13  -3 1019.08 340.575   5
   0  13  -3 1590.72 337.320   9
   0  13   3 868.730 302.232   9
   0 -13   3 1293.19 392.171   5
   0 -13   4 131.280 274.749   5
   0 -13  -4 494.789 358.005   5
   0  13   4 364.362 321.763   9
   0  13  -4 62.0244 165.697   3
   0  13  -4 631.528 261.604   9
   0  13   5 373.353 405.703   9
   0 -13   5 81.9813 240.485   5
   0 -13  -5 413.298 343.004   5
   0  13  -5 657.482 275.205   3
   0 -13  -6 43.5656 277.461   5
   0  13  -6 666.246 305.776   3
   0  13  -6 387.792 236.366   1
   0  13   6 616.690 353.620   9
   0 -13   6 53.1430 247.007  10
   0 -13   6-78.9825 251.875   5
   0  13  -6 151.443 159.174   6
   0  13  -7 1423.23 369.098   6
   0  13  -7 2130.12 487.573   1
   0 -13   7 1695.52 468.675  10
   0 -13  -7 2344.47 590.235   5
   0  13   7 2024.85 544.760   9
   0 -13  -8 4043.76 683.400   6
   0 -13  -8 3620.77 695.820   5
   0  13  -8 3324.88 610.086   1
   0 -13   8 4342.68 719.528  10
   0  13   8 3543.57 675.419   9
   0  13  -9 3426.06 626.355   1
   0 -13  -9 4266.42 735.048   6
   0  14   0 13515.8 1035.94   9
   0 -14   0 14842.4 1125.01   5
   0  14   1 2312.52 480.359   9
   0  14  -1 2882.91 487.194   9
   0 -14   1 2984.56 541.541   5
   0 -14  -1 2093.41 467.998   5
   0  14   2 6089.72 738.480   9
   0 -14  -2 4872.97 661.365   5
   0  14  -2 6203.28 669.340   9
   0 -14   2 5644.24 708.430   5
   0  14  -3 711.757 278.637   9
   0 -14   3 620.369 333.061   5
   0  14   3 874.703 390.987   9
   0  14  -3 953.102 378.939   3
   0 -14  -3 664.410 315.999   5
   0 -14  -4 11738.6 1062.07   5
   0  14  -4 9177.15 881.057   3
   0  14  -4 8649.61 750.393   9
   0 -14   4 9800.18 980.734   5
   0  14   4 10287.9 1006.96   9
   0 -14   5 1074.16 425.714   5
   0  14   5 2040.03 504.635   9
   0  14  -5 761.538 317.708   3
   0 -14  -5 2506.90 541.034   5
   0 -14   6 891.139 406.382   5
   0  14   6 540.183 390.925   9
   0 -14  -6 1669.88 518.721   5
   0  14  -6 282.108 278.713   1
   0 -14  -7 1093.92 496.733   5
   0  14   7 267.735 396.234   9
   0  14  -7-45.7902 269.854   1
   0  14  -8 4109.00 672.306   1
   0 -14  -8 4418.74 780.678   5
   0  14   8 3740.91 739.349   9
   0 -14   8 4292.56 727.815  10
   0  14  -9-54.3899 226.766   1
   0  15   0-46.3214 210.474   9
   0 -15   0 323.687 263.966   5
   0 -15  -1 14409.2 1161.88   5
   0 -15   1 11670.2 1050.75   5
   0  15   1 10993.4 1011.28   9
   0  15  -1 12042.6 985.053   9
   0  15   2 6604.72 802.131   9
   0 -15  -2 7282.69 845.050   5
   0 -15   2 8661.37 908.908   5
   0  15  -2 8383.29 805.475   9
   0  15  -3 2735.34 533.803   3
   0  15   3 3027.93 592.838   9
   0  15  -3 3175.01 485.126   9
   0 -15  -3 3621.89 618.347   5
   0 -15   3 3544.37 613.704   5
   0 -15  -4 338.356 321.647   5
   0 -15   4 430.828 334.744   5
   0  15   4 456.299 328.820   9
   0  15  -4 656.444 323.486   3
   0 -15   5 1714.14 488.652   5
   0  15  -5 1977.25 464.494   3
   0 -15  -5 1381.42 462.853   5
   0  15   5 863.388 444.892   9
   0  15  -6 11913.9 1111.20   1
   0 -15   6 11813.0 1179.30   5
   0 -15  -6 13322.8 1258.32   5
   0  15   6 12094.2 1209.92   9
   0  15   7 541.023 378.635   9
   0 -15  -7 710.637 409.179   5
   0  15  -7-1.86720 236.641   1
   0  15  -8 5267.63 770.508   1
   0  16   0 1699.04 428.821   9
   0 -16   0 2396.43 542.450   5
   0  16  -1 547.497 328.355   9
   0 -16  -1 299.166 293.276   5
   0  16   1 731.555 378.960   9
   0 -16   1 356.917 307.181   5
   0  16  -2 2471.67 505.656   9
   0 -16   2 2867.27 586.364   5
   0 -16  -2 3192.04 627.014   5
   0  16   2 2205.57 534.909   9
   0  16  -3 12167.4 1118.85   3
   0  16   3 11173.5 1106.63   9
   0 -16  -3 13170.9 1175.17   5
   0 -16   3 14582.5 1239.84   5
   0  16  -3 11035.9 959.144   9
   0 -16   4 1743.13 494.345   5
   0  16  -4 1316.43 421.192   3
   0 -16  -4 2398.14 570.815   5
   0  16   4 2011.08 521.977   9
   0 -16   5 25109.1 1711.16   5
   0  16  -5 26706.6 1617.32   3
   0 -16  -5 23726.4 1692.19   5
   0  16   5 22853.4 1702.50   9
   0  16  -6 405.026 253.882   1
   0 -16   6 256.951 348.572   5
   0  16   6 1158.90 456.997   9
   0 -16  -6 626.094 361.555   5
   0  16  -7 6976.65 883.649   1
   0 -17   0 143.597 290.491   5
   0  17   0-74.3552 247.621   9
   0 -17  -1 687.158 333.198   5
   0  17  -1 445.947 285.766   9
   0  17   1 106.291 267.961   9
   0 -17   1 543.069 340.974   5
   0  17   2 10895.4 1097.40   9
   0 -17   2 12774.0 1196.15   5
   0  17  -2 11908.0 1031.04   9
   0 -17  -2 14500.6 1276.00   5
   0  17   3 3110.45 618.166   9
   0 -17   3 3966.39 697.656   5
   0 -17  -3 3361.74 670.213   5
   0  17  -3 2318.98 558.816   3
   0  17   4 3838.72 716.736   9
   0 -17  -4 4214.93 735.238   5
   0 -17   4 4330.78 763.727   5
   0  17  -4 3719.49 642.637   3
   0 -17  -5 1718.44 542.999   5
   0  17   5 1180.38 484.800   9
   0 -17   5 1591.71 473.587   5
   0  17  -5 1939.72 478.774   3
   0  17  -6 3093.29 598.567   1
   0  18   0 2347.17 559.922   9
   0 -18   0 2394.76 570.121   5
   0 -18  -1 921.480 418.407   5
   0  18   1 329.230 294.754   9
   0  18  -1 70.9062 227.400   9
   0 -18   1 484.540 300.619   5
   0 -18   2 142.706 306.256   5
   0  18  -2 710.055 363.646   9
   0  18   2 172.348 374.060   9
   0  18  -2-17.8090 235.611   3
   0 -18  -2 513.853 408.272   5
   0  18   3 510.376 415.248   9
   0 -18  -3 327.732 361.694   5
   0 -18   3 876.664 503.032   5
   0  18  -3 67.3217 264.801   3
   0  18  -4 659.840 339.908   3
   0  19   0 143.728 279.104   9
   0  19   1 2898.07 651.193   9
   0  19  -1 3339.03 662.975   9
   0  19   2 671.071 434.179   9
   0  19  -2 76.2664 315.843   3
   0  19  -3 730.704 405.808   3
   0  19  -4 518.425 326.326   3
   0  20   0 7.17031 236.875   9
   1   0 -12 4371.04 765.563   6
  -1   0  12 4982.98 838.022  10
  -1   0  11 496.896 382.477  10
   1   0 -11 226.293 317.209   6
   1   0 -10 8089.31 883.559   6
  -1   0  10 8589.62 945.938  10
   1   0  -9 527.612 374.267   6
  -1   0   9 419.615 313.337  10
   1   0  -8 827.497 313.458   6
  -1   0   8 468.330 287.172  10
   1   0  -7 41.4028 189.628   6
  -1   0   7-246.048 226.197  10
   1   0  -6 7667.75 629.428   6
  -1   0   6 7505.79 671.530  10
   1   0  -5 3.40729 173.591   6
  -1   0   5-139.440 183.720  10
  -1   0   4 1640.09 272.140  10
   1   0  -4 2294.50 292.964   6
  -1   0   4 2062.23 288.391   2
  -1   0   4 2049.25 293.219   4
  -1   0   3 20.5224 118.033   2
  -1   0   3-204.397 146.016   4
  -1   0   3 39.9877 46.7662   3
   1   0  -3 104.278 141.639   6
  -1   0   3 34.1518 107.467   6
  -1   0   3 55.0196 149.968  10
   1   0  -2 9805.17 351.811   3
  -1   0   2 9140.69 429.931  10
  -1   0   2 10350.2 465.935   2
   1   0  -2 10807.9 462.420  10
  -1   0   2 10267.4 427.569   6
  -1   0   2 9906.27 472.044   4
   1   0  -2 11508.9 484.564   2
  -1   0   2 9991.60 352.182   3
   1   0  -2 9451.68 459.496   8
   1   0  -2 10101.3 425.420   6
  -1   0   1 85.8797 85.0961   3
  -1   0   1 34.0846 78.6023   2
   1   0  -1 164.422 87.5510   8
  -1   0   1 64.3537 64.6426  10
   1   0  -1 133.533 70.7830   3
   1   0  -1 4.88356 60.3801  10
  -1   0   1 92.6689 88.0883   8
   1   0  -1 123.986 86.5796   2
  -1   0   0 601.730 75.1046   1
   1   0   0 462.512 110.045   8
  -1   0   0 499.652 119.691   3
   1   0   0 629.507 127.924   3
  -1   0   0 577.633 69.7683   5
  -1   0   0 551.390 115.725   8
  -1   0  -1 73.4112 88.4054   7
  -1   0  -1 55.8139 110.454   3
   1   0   1-31.9949 100.902   7
   1   0   1 28.9891 100.107   3
   1   0   2 3260.81 287.248   3
   1   0   2 2729.76 185.976   9
   1   0   2 2615.21 274.426   7
  -1   0  -2 2378.77 175.334   9
  -1   0  -2 2331.89 271.828   6
  -1   0  -2 2381.27 262.557   3
   1   0   3 64.5155 86.4042   9
  -1   0  -3 70.6821 160.101   6
   1   0   3 145.146 88.5309   1
   1   0   3-6.35493 123.531   7
   1   0   3 63.1322 138.690  10
  -1   0  -3 68.2485 82.8143   9
  -1   0  -3-4.41633 106.973   3
  -1   0  -4 32678.2 944.762   9
   1   0   4 32309.9 1226.49   7
   1   0   4 30621.5 915.577   1
   1   0   4 32252.0 950.725   9
   1   0   4 32733.5 1169.80  10
  -1   0  -4 31706.7 1224.60   6
   1   0   5 168.318 166.497   7
   1   0   5 192.335 235.058  10
  -1   0  -5-4.01672 209.208   6
   1   0   5 13.9960 124.186   9
   1   0   6 7609.55 676.117  10
  -1   0  -6 7585.69 717.021   6
   1   0   6 6935.59 659.298   7
   1   0   7 668.589 302.711   7
   1   0   7 192.295 235.323  10
  -1   0  -7 245.839 306.346   6
   1   0   8-61.1251 206.846   7
  -1   0  -8 26.2153 291.973   6
   1   0   8 647.509 334.351  10
  -1   0  -9 294.383 376.635   6
   1   0   9-59.2644 251.212  10
  -1   0 -10 12078.7 1163.78   6
   1   0  10 12846.4 1145.89  10
  -1   0 -11 712.632 416.625   6
   1   0  11 282.202 286.700  10
   1   0  12 575.103 396.401  10
  -1   1  12 1176.20 532.258  10
   1  -1 -12 628.444 442.407   6
   1   1 -12 1038.37 470.448   6
  -1  -1  12 905.295 432.554  10
   1   1 -11 3670.03 676.862   6
   1  -1 -11 4081.47 722.041   6
  -1   1  11 4281.82 745.886  10
  -1  -1  11 4490.81 747.253  10
   1   1 -10 579.657 305.273   6
   1  -1 -10 29.5073 299.936   6
  -1  -1  10-8.05689 255.630  10
  -1   1  10 263.612 349.339  10
  -1   1   9 2815.28 580.049  10
   1   1  -9 1022.95 362.755   6
  -1  -1   9 2135.33 482.969  10
   1  -1  -9 1667.79 418.295   6
  -1   1   8 5004.65 668.610  10
   1   1  -8 5575.08 650.338   6
   1  -1  -8 4915.61 626.064   6
  -1  -1   8 4944.82 656.687  10
  -1   1   7 18836.3 1123.98  10
   1   1  -7 19679.8 1073.08   6
   1  -1  -7 20110.1 1109.33   6
  -1  -1   7 18009.7 1087.24  10
   1  -1  -6 121.730 203.620   6
  -1   1   6 69.3525 48.1349   3
   1   1  -6 93.4365 221.206   6
  -1   1   6 419.932 298.634  10
  -1  -1   6-57.5271 194.937  10
  -1   1   5 28200.9 759.369   3
  -1   1   5 31892.1 1275.23  10
  -1  -1   5 33025.9 1287.97  10
   1   1  -5 32068.5 1201.38   6
   1  -1  -5 32756.1 1243.00   6
  -1   1   5 33684.6 1185.49   4
  -1  -1   5 33076.2 1283.05   2
  -1   1   4 949.526 246.758  10
   1  -1  -4 937.366 236.199   6
  -1   1   4 971.471 124.091   3
  -1   1   4 1497.16 248.606   2
   1   1  -4 1280.50 228.272   6
  -1   1   4 1429.85 245.170   4
  -1  -1   4 1114.97 246.505  10
  -1  -1   4 1076.88 229.238   2
  -1  -1   3 5566.48 407.405   4
  -1   1   3 5349.17 402.118  10
   1  -1  -3 5588.45 391.151   6
  -1   1   3 5657.93 375.731   2
  -1  -1   3 5991.88 372.237   6
   1   1  -3 5092.95 352.793   6
   1  -1  -3 5168.27 362.768   2
  -1   1   3 4998.20 267.699   3
  -1   1   3 5173.56 381.499   4
  -1  -1   3 4612.30 384.249  10
  -1  -1   3 6020.75 422.066   2
   1  -1  -2 19018.1 657.212   8
   1  -1  -2 18299.9 571.366   3
  -1  -1   2 17791.0 651.735  10
  -1  -1   2 18447.3 568.827   6
   1  -1  -2 19877.6 622.157   2
  -1   1   2 17231.4 620.877  10
   1   1  -2 20164.0 690.234   4
   1  -1  -2 17607.5 635.148   6
  -1  -1   2 20131.4 681.098   1
  -1  -1   2 19739.7 698.323   2
  -1   1   2 18049.2 566.129   3
   1   1  -2 19777.1 693.750   2
   1   1  -2 19826.1 678.850  10
   1   1  -2 19610.1 513.922   3
   1   1  -2 17365.8 553.980   6
  -1   1   2 19995.9 664.639   6
   1   1  -2 17331.7 664.772   8
  -1  -1   2 18433.9 678.009   4
  -1   1   2 18611.0 625.299   2
   1   1  -1 3696.84 227.718   3
   1   1  -1 3206.84 240.093   8
   1   1  -1 3927.39 266.108   2
  -1  -1   1 3492.24 250.127   4
  -1   1   1 3380.04 212.370   2
   1  -1  -1 3382.51 173.054   5
   1  -1  -1 3426.48 235.212   8
  -1  -1   1 3204.05 164.795   6
   1  -1  -1 3870.96 222.536   2
  -1  -1   1 3758.60 234.781   1
  -1  -1   1 4114.27 270.604   2
  -1  -1   1 3617.60 252.817   8
  -1  -1   1 3261.98 217.952  10
   1   1  -1 3455.71 225.569  10
  -1  -1   1 3571.84 231.249   3
  -1   1   1 3501.09 231.328   8
  -1   1   1 3603.43 187.997  10
  -1   1   1 3512.74 240.436   3
   1  -1  -1 3708.30 244.228   3
   1   1  -1 3643.85 237.186   1
   1  -1   0 10174.8 346.121   5
  -1  -1   0 11646.3 452.382   8
  -1   1   0 10713.4 458.822   3
   1   1   0 10903.1 340.002   1
   1   1   0 11644.2 473.426   3
  -1  -1   0 10460.2 454.267   3
  -1   1   0 10424.0 409.070   8
  -1  -1   0 11059.2 454.004   2
  -1   1   0 10323.6 349.258   5
   1  -1   0 11444.5 467.376   3
   1   1   0 10211.3 428.133   8
   1  -1   0 10233.7 409.120   8
  -1  -1  -1 6646.93 347.877   6
  -1   1  -1 6986.77 380.741   7
   1   1   1 7015.74 362.198   7
   1  -1   1 6829.02 255.663  10
  -1  -1  -1 7583.11 368.265   7
  -1  -1  -1 6971.11 382.171   8
  -1   1  -1 7230.33 357.642   5
  -1   1  -1 7650.11 408.720   3
   1   1   1 7689.49 422.828   3
   1  -1   1 6899.71 384.941   7
   1   1   1 7278.19 334.991   9
   1  -1   1 6871.08 386.107   3
  -1  -1  -2 12748.3 567.997   7
  -1  -1  -2 13014.0 490.019   9
   1  -1   2 12668.2 558.929   3
  -1   1  -2 11804.2 556.082   3
   1   1   2 11943.3 560.735   7
  -1   1  -2 13342.3 582.547   5
  -1  -1  -2 11665.0 557.938   6
   1   1   2 12962.0 491.925   9
   1  -1   2 12098.3 585.923   7
   1   1   2 13890.6 607.333   3
   1  -1   2 12242.0 495.694  10
   1  -1   2 10818.9 327.117   9
   1   1   3 58755.2 1602.70   7
   1   1   3 61314.0 1430.65   9
   1  -1   3 58370.3 1513.63  10
  -1   1  -3 58334.4 1640.63   6
  -1  -1  -3 62153.9 1433.82   9
  -1   1  -3 56450.5 1196.89   9
   1  -1   3 59892.9 1662.27   7
   1  -1   3 58459.9 1213.71   9
  -1  -1  -3 58049.0 1623.36   6
  -1   1  -3 58915.8 1524.41   3
   1  -1   3 58747.5 1255.10   1
   1  -1   4 11407.6 499.893   1
   1   1   4 13954.6 758.888   7
  -1   1  -4 11850.4 615.304   3
   1   1   4 13091.4 603.159   9
   1  -1   4 12050.7 672.138  10
  -1   1  -4 10769.5 696.143   6
  -1   1  -4 12433.6 478.127   9
   1  -1   4 12766.4 754.675   7
  -1  -1  -4 12448.0 742.935   6
   1  -1   5 848.207 268.190  10
  -1   1  -5 1317.05 316.337   6
  -1  -1  -5 1010.69 274.762   6
   1   1   5 1147.94 217.708   9
   1   1   5 1314.22 299.146  10
   1  -1   5 1077.23 316.031   7
   1   1   5 1229.40 314.188   7
  -1   1  -5 936.352 161.914   9
  -1   1  -6 5909.73 621.056   6
   1   1   6 5237.28 574.034   7
   1   1   6 5058.18 587.217  10
   1  -1   6 5091.37 561.720  10
   1  -1   6 4812.95 586.382   7
   1   1   6 5649.80 478.240   9
  -1  -1  -6 5271.15 602.921   6
   1  -1   7 25772.8 1327.10  10
  -1   1  -7 27593.2 1435.48   6
  -1  -1  -7 27088.2 1432.29   6
   1  -1   7 26315.9 1403.73   7
   1   1   7 26729.8 1396.94  10
   1   1   7 27817.6 1425.60   7
   1   1   8 633.226 310.072  10
  -1   1  -8 554.111 371.264   6
   1  -1   8 642.183 330.114   7
  -1  -1  -8 549.246 363.643   6
   1  -1   8 734.934 318.665  10
   1   1   9 1568.37 463.669  10
   1  -1   9 2003.97 472.181  10
  -1  -1  -9 1393.63 431.562   6
  -1   1  -9 1546.77 465.976   6
   1  -1  10 1679.26 486.354  10
  -1   1 -10 2533.23 633.139   6
  -1  -1 -10 2131.12 567.477   6
   1   1  10 1179.52 470.696  10
  -1  -1 -11 3432.05 691.398   6
  -1   1 -11 3968.38 724.303   6
   1   1  11 4251.29 729.557  10
   1  -1  11 4264.06 719.883  10
   1  -1  12 624.886 405.041  10
  -1  -2  12 357.224 360.472  10
  -1   2  12-59.5554 321.248  10
   1  -2 -12 97.8926 302.662   6
   1   2 -12 934.290 448.783   6
  -1   2  11 1327.25 466.986  10
   1   2 -11 1063.53 436.311   6
   1  -2 -11 1182.65 482.822   6
  -1  -2  11 652.669 389.021  10
   1  -2 -10 7081.81 825.369   6
  -1  -2  10 6751.25 851.789  10
  -1   2  10 6915.50 847.080  10
   1   2 -10 7240.83 843.429   6
   1  -2  -9 552.660 344.719   6
   1   2  -9 782.983 393.299   6
  -1  -2   9 936.042 369.547  10
  -1   2   9 201.851 280.476  10
  -1  -2   8 1481.78 417.193  10
  -1   2   8 1245.06 435.978  10
   1   2  -8 1509.22 404.982   6
   1  -2  -8 1796.33 418.653   6
  -1   2   7 196.248 250.886  10
  -1  -2   7 650.557 311.233  10
   1  -2  -7 1198.07 412.421   6
   1   2  -7 395.409 302.621   6
   1  -2  -6 16809.9 967.105   6
  -1  -2   6 19591.7 1071.13  10
   1   2  -6 17525.0 935.885   6
  -1   2   6 18289.2 1045.24  10
   1   2  -5 51411.7 1564.78   6
  -1   2   5 50693.0 1521.10   4
  -1   2   5 46990.1 1640.46  10
  -1  -2   5 49342.1 1661.42  10
  -1  -2   5 46490.5 1634.49   2
   1  -2  -5 50445.6 1640.52   6
  -1  -2   4 20443.0 931.890   2
   1  -2  -4 19902.6 897.724   6
   1   2  -4 21981.3 840.982   6
  -1  -2   4 22306.7 956.867  10
  -1   2   4 20996.9 934.542  10
  -1   2   4 20857.7 840.526   4
   1   2  -3 196.615 117.448   6
  -1  -2   3 263.624 130.141   6
   1  -2  -3 190.782 104.216   2
  -1   2   3 187.479 161.987  10
   1   2  -3 174.774 197.700   1
  -1   2   3 159.978 93.8679   3
  -1  -2   3 114.987 149.618  10
   1  -2  -3 224.000 153.578   6
   1   2  -3 43.6014 89.7277   5
   1   2  -3 119.525 47.1932   3
  -1  -2   3 158.445 150.996   2
  -1   2   3 191.005 120.550   2
   1   2  -2 6658.63 402.771   8
   1   2  -2 8871.62 458.500  10
   1   2  -2 6934.44 298.508   6
   1   2  -2 7449.54 429.940   2
   1  -2  -2 8262.00 455.179   9
  -1  -2   2 8296.38 436.808   1
   1  -2  -2 6574.68 407.171   6
  -1  -2   2 6986.47 424.020   2
   1  -2  -2 7987.68 348.892   2
  -1   2   2 7292.18 345.553   2
   1   2  -2 7325.27 423.522   1
   1   2  -2 8624.65 454.136   4
  -1  -2   2 7636.74 438.386  10
  -1   2   2 8177.31 439.347   6
   1  -2  -2 7495.15 389.188   8
   1   2  -2 7503.80 338.754   5
  -1  -2   2 7633.33 313.741   6
  -1   2   2 7261.14 377.396   3
   1   2  -1 1053.38 162.683   1
   1  -2  -1 831.948 124.267   5
  -1   2   1 937.586 113.074   2
  -1  -2   1 1215.63 163.389   8
  -1  -2   1 744.646 147.556   2
  -1   2   1 997.153 171.345   3
   1   2  -1 1018.52 166.689   2
   1   2  -1 1078.97 166.428   4
  -1  -2   1 858.412 160.188   4
   1   2  -1 858.910 97.4380   5
   1  -2  -1 1088.26 113.787   2
  -1  -2   1 864.947 102.869   5
  -1   2   1 1119.44 141.083   5
   1  -2  -1 1137.78 158.950   9
   1  -2  -1 810.206 123.589   8
   1   2  -1 910.598 143.368  10
   1   2  -1 1037.48 161.109   8
  -1   2   1 1075.64 131.829   8
   1  -2  -1 1138.22 161.944   3
  -1  -2   1 762.086 144.276  10
   1   2   0 3957.50 279.936   2
  -1   2   0 3712.99 288.743   3
  -1  -2   0 3714.19 274.658   2
  -1   2   0 3717.54 237.588   5
   1  -2   0 3434.33 205.468   9
  -1  -2   0 3589.93 256.345   8
  -1  -2   0 3548.05 166.252   6
   1  -2   0 3218.07 224.260   5
   1  -2   0 3363.01 219.433   8
   1   2   0 3237.62 249.747   8
  -1  -2   0 3234.17 201.249   4
  -1   2   0 3966.42 235.541   8
   1  -2   0 4320.02 296.983   3
  -1   2  -1 10716.2 484.773   7
   1   2   1 9798.81 454.059   9
  -1   2  -1 9713.94 489.343   3
   1  -2   1 10060.1 478.180   7
  -1   2  -1 9375.87 327.109  10
   1  -2   1 10130.9 328.775  10
  -1  -2  -1 10555.2 419.169   7
   1  -2   1 10481.6 464.270   5
   1  -2   1 10929.2 508.714   3
  -1  -2  -1 10907.1 484.684   8
  -1   2  -1 10363.9 464.823   5
  -1  -2  -1 10098.3 417.902   6
   1   2   1 9307.17 406.091   7
   1   2   2 620.961 159.475   6
  -1  -2  -2 333.507 131.676   7
  -1  -2  -2 313.784 141.126   6
  -1  -2  -2 484.869 143.128   9
  -1   2  -2 277.618 90.9022   1
   1   2   2 518.523 151.858   7
  -1   2  -2 356.647 139.029   3
   1  -2   2 440.451 147.954   3
  -1   2  -2 392.450 137.723  10
   1  -2   2 188.234 163.539   7
   1  -2   2 230.716 115.868  10
   1   2   2 150.685 118.748   9
   1  -2   3 19321.9 856.739   7
  -1   2  -3 19303.2 620.331   1
   1   2   3 20232.4 769.199   9
   1  -2   3 20587.6 767.775  10
  -1  -2  -3 19542.9 842.665   6
  -1   2  -3 20408.3 788.700   3
   1   2   3 21249.0 839.198   7
   1  -2   4 58416.5 1603.31  10
  -1   2  -4 49374.0 1115.56   9
   1   2   4 51062.1 1605.65   7
  -1   2  -4 54864.1 1501.77   3
   1  -2   4 55783.1 1718.20   7
  -1  -2  -4 53237.0 1683.16   6
   1   2   4 54347.2 1494.82   9
  -1   2  -4 54665.0 1698.72   6
   1  -2   5 13132.5 847.827   7
  -1   2  -5 11450.1 475.334   9
  -1   2  -5 11657.1 783.776   6
   1   2   5 11753.4 779.736   7
  -1   2  -5 11927.0 651.366   3
   1   2   5 12358.3 682.702   9
   1  -2   5 11776.5 739.518  10
  -1  -2  -5 11993.6 815.448   6
   1   2   6 9315.98 641.803   9
   1  -2   6 9439.67 723.001  10
  -1  -2  -6 9016.47 774.329   6
  -1   2  -6 8799.41 752.473   6
   1   2   6 7889.47 724.961  10
  -1   2  -6 8424.28 576.143   3
  -1   2  -6 7826.15 445.775   9
   1  -2   6 8616.06 763.766   7
   1   2   6 9156.55 743.036   7
   1   2   7 4773.83 597.648   7
   1   2   7 4178.56 474.664   9
   1   2   7 4962.57 631.651  10
  -1  -2  -7 5121.83 667.172   6
   1  -2   7 4255.01 556.713  10
   1  -2   7 3646.35 543.834   7
  -1   2  -7 3860.15 559.000   6
   1   2   8 6330.19 756.418  10
   1  -2   8 7735.02 814.566   7
  -1  -2  -8 7153.99 804.570   6
  -1   2  -8 8225.49 852.552   6
   1  -2   8 6996.48 745.951  10
   1  -2   9 822.977 344.905  10
  -1   2  -9 1469.10 471.123   6
   1   2   9 857.406 409.625  10
  -1  -2  -9 1183.91 487.644   6
   1   2  10 4808.67 738.880  10
  -1   2 -10 3565.08 686.725   6
   1  -2  10 4645.45 703.725  10
  -1  -2 -10 4521.34 752.388   6
   1   2  11 394.438 383.549  10
  -1  -2 -11 289.449 387.130   6
  -1   2 -11-451.927 339.566   6
   1  -2  11 1022.42 411.777  10
   1  -2  12 1852.96 547.026  10
  -1  -3  12 2465.74 676.628  10
   1  -3 -12 3871.08 719.886   6
  -1   3  12 3608.11 751.956  10
   1   3 -12 3754.14 725.777   6
   1  -3 -11 3494.48 674.881   6
   1   3 -11 2093.80 503.235   6
  -1   3  11 3158.38 676.542  10
  -1  -3  11 3052.42 647.183  10
   1  -3 -10 14120.4 1185.25   6
  -1   3  10 12930.6 1161.92  10
  -1  -3  10 12764.6 1136.07  10
   1   3 -10 12117.7 1065.86   6
  -1  -3   9 698.899 334.511  10
   1   3  -9 1053.11 358.232   6
   1  -3  -9 540.089 320.677   6
  -1   3   9 27.9196 295.810  10
  -1  -3   8 8763.19 833.782  10
   1   3  -8 9128.30 819.270   6
   1  -3  -8 10163.0 874.557   6
  -1   3   8 9218.45 871.406  10
   1  -3  -7 35096.8 1563.30   6
  -1  -3   7 34769.5 1572.63  10
   1   3  -7 33478.8 1453.17   6
  -1   3   7 33621.4 1588.25  10
   1   3  -6 243.313 226.562   6
   1  -3  -6-149.589 189.521   6
  -1   3   6 627.530 303.569  10
  -1  -3   6-8.03031 204.091  10
  -1   3   6 130.312 160.377   4
  -1   3   5 7380.98 623.026  10
   1  -3  -5 7822.57 623.888   6
  -1  -3   5 6468.18 576.805   2
   1   3  -5 7284.22 546.036   6
  -1  -3   5 7514.79 616.231  10
  -1   3   5 6894.85 512.873   4
   1  -3  -4 28748.9 1119.28   6
  -1  -3   4 29412.5 1154.52   2
  -1   3   4 28102.4 999.681   4
   1   3  -4 27690.3 958.546   6
   1   3  -4 28311.1 1102.58   1
  -1  -3   4 28396.1 1119.23  10
  -1   3   3 1367.01 247.048   9
   1   3  -3 1172.45 159.690   6
  -1  -3   3 1193.53 214.266  10
   1  -3  -3 1210.40 163.883   2
   1   3  -3 1371.99 201.182   5
  -1  -3   3 1172.69 174.868   6
   1  -3  -3 1317.99 243.734   6
  -1  -3   3 1113.84 229.897   2
   1   3  -3 1275.78 251.212   1
   1  -3  -2 17942.6 620.092   8
  -1  -3   2 17885.3 727.451  10
  -1  -3   2 18870.0 625.071   5
  -1  -3   2 19111.8 747.241   2
   1   3  -2 17342.1 682.314   8
  -1   3   2 17440.6 738.169   9
   1   3  -2 17180.8 491.682   6
  -1   3   2 18491.9 538.042   2
   1   3  -2 18556.4 615.103   5
   1  -3  -2 19011.5 689.963   5
  -1   3   2 18225.4 694.540   3
   1  -3  -2 18654.9 524.165   2
   1   3  -2 17199.7 704.562   1
   1   3  -1 99867.9 2092.03   2
   1  -3  -1 95163.0 1998.59   5
  -1   3   1 95396.4 2103.04   3
   1   3  -1 97564.8 2010.31   4
  -1  -3   1 94089.4 2066.07   2
   1   3  -1 101823. 2116.26  10
  -1   3   1 96914.4 1860.91   8
  -1  -3   1 93878.3 2067.62  10
  -1   3   1 93880.3 2043.95   9
   1  -3  -1 100997. 2065.21   9
  -1   3   1 98029.2 1737.60   2
  -1  -3   1 100918. 2035.34   8
   1  -3  -1 93307.1 1858.55   8
  -1   3   1 101722. 2025.36   5
   1   3  -1 94486.5 2011.96   8
  -1  -3   1 95084.5 1887.84   5
   1   3  -1 98798.9 1901.78   5
  -1   3   0 13907.0 493.881   9
   1   3   0 14424.3 378.254   6
   1  -3   0 13772.7 540.768   7
   1   3   0 14973.5 593.566   2
   1  -3   0 15460.2 639.899   3
   1  -3   0 15300.5 499.193   9
  -1   3   0 14989.3 468.689   8
  -1  -3   0 14279.6 383.932   6
   1   3   0 13739.4 535.650   8
  -1  -3   0 15539.6 567.385   8
  -1  -3   0 14698.0 586.025   2
  -1  -3   0 14238.2 501.120   5
   1   3   0 14997.6 476.475   4
  -1   3   0 15375.4 578.967   5
  -1   3   0 14675.5 624.263   3
   1  -3   0 14150.9 557.712   5
  -1   3  -1 175468. 3323.04   5
  -1   3  -1 166225. 3347.65   3
   1  -3   1 167051. 3271.87   7
   1   3   1 164163. 3066.17   7
  -1  -3  -1 177133. 3271.95   8
  -1   3  -1 171603. 3028.11  10
   1  -3   1 169080. 3007.52  10
   1  -3   1 164786. 3293.75   5
   1  -3   1 175446. 3373.96   3
  -1  -3  -1 167641. 3119.21   6
   1  -3   1 167532. 2898.95   9
  -1  -3  -1 169766. 3064.94   7
   1   3   1 174092. 3118.01   6
   1   3   1 168610. 3306.40   9
  -1   3  -1 174613. 3283.58   7
   1  -3   2 4240.25 366.375   5
  -1   3  -2 4514.00 301.687  10
   1   3   2 4670.69 327.163   7
   1   3   2 4104.10 333.651   6
   1   3   2 4714.18 375.223   9
  -1   3  -2 4830.84 372.355   3
  -1  -3  -2 4396.67 314.229   7
  -1  -3  -2 4113.30 338.636   6
   1  -3   2 4880.85 306.757  10
   1  -3   2 4526.81 373.656   7
   1  -3   3 24186.5 957.392   7
  -1   3  -3 24044.7 715.252   1
   1  -3   3 24967.6 840.647  10
   1   3   3 25850.2 928.542   9
   1   3   3 26207.5 900.580   7
  -1   3  -3 23975.6 869.611   3
  -1  -3  -3 25668.9 966.474   6
   1  -3   4 2230.25 354.570   7
   1   3   4 1979.14 297.926   7
  -1   3  -4 1133.15 98.8137   9
   1   3   4 1865.71 286.380   9
  -1   3  -4 1617.59 218.923   1
  -1  -3  -4 1393.22 150.611   4
  -1  -3  -4 1844.90 323.756   6
  -1   3  -4 1763.77 250.929   3
   1  -3   4 1670.76 268.400  10
  -1   3  -4 2206.83 325.291   6
  -1   3  -5 7081.85 327.425   9
   1   3   5 7444.31 607.495   7
   1  -3   5 8438.51 632.656  10
   1  -3   5 7464.98 651.238   7
   1   3   5 8158.92 588.044   9
  -1   3  -5 7643.79 524.284   3
  -1   3  -5 8692.98 678.206   6
  -1  -3  -5 6244.94 374.641   4
  -1  -3  -5 8415.48 693.726   6
   1  -3   6 1953.66 410.676   7
  -1   3  -6 1273.80 365.745   6
  -1  -3  -6 945.884 336.357   6
   1   3   6 1081.70 287.322   9
  -1   3  -6 1202.13 248.528   3
   1  -3   6 1091.98 298.380  10
   1   3   6 1161.07 316.549   7
   1   3   7 25496.5 1388.52  10
   1  -3   7 25874.4 1410.47   7
  -1  -3  -7 25056.4 1398.11   6
   1   3   7 24508.3 1217.87   9
   1  -3   7 26986.4 1346.04  10
  -1   3  -7 24281.1 1355.23   6
   1   3   8 5112.65 691.491  10
   1  -3   8 4483.22 645.368   7
  -1  -3  -8 5339.74 706.051   6
   1   3   8 5727.75 619.926   9
   1  -3   8 5508.62 653.019  10
  -1   3  -8 6434.47 744.100   6
   1   3   9 306.432 274.751  10
   1  -3   9 355.595 322.004  10
  -1  -3  -9-121.407 279.624   6
  -1   3  -9 407.368 303.979   6
  -1   3 -10 3671.39 689.154   6
   1   3  10 3508.64 667.230  10
   1  -3  10 3539.05 618.291  10
  -1  -3 -10 4922.80 777.873   6
  -1  -3 -11 918.379 488.161   6
   1   3  11-14.9324 283.005  10
  -1   3 -11 646.398 360.358   6
   1  -3  11 387.985 395.987  10
   1  -3  12 393.295 355.453  10
   1  -4 -12 1085.88 547.784   6
  -1  -4  12 756.532 399.668  10
   1   4 -12 1532.92 529.562   6
  -1   4  12 956.218 478.427  10
  -1  -4  11 5679.70 829.062  10
   1  -4 -11 4949.62 813.215   6
  -1   4  11 5891.32 856.682  10
   1   4 -11 5801.75 809.542   6
   1  -4 -10 1557.80 473.641   6
  -1  -4  10 779.536 381.347  10
   1   4 -10 695.068 340.891   6
  -1   4  10 597.508 354.378  10
   1   4  -9 7850.60 829.178   6
   1  -4  -9 7595.49 844.860   6
  -1  -4   9 9039.89 913.685  10
  -1   4   9 8617.18 912.218  10
   1   4  -8 786.867 315.125   6
  -1   4   8 1025.04 374.505  10
  -1  -4   8 1293.15 394.693  10
   1  -4  -8 1085.80 408.645   6
   1  -4  -7 8189.03 763.152   6
  -1   4   7 9877.13 857.850  10
   1   4  -7 8133.45 694.095   6
  -1  -4   7 8153.12 760.938  10
   1   4  -6 30158.6 1256.20   6
   1  -4  -6 33200.9 1423.34   6
  -1   4   6 30090.2 1170.23   4
  -1   4   6 31258.3 1435.13  10
  -1  -4   6 29142.2 1382.83   2
  -1  -4   6 29956.3 1377.52  10
  -1   4   5 11474.1 768.798   9
  -1  -4   5 10390.8 738.062   2
  -1   4   5 10792.8 618.799   4
   1  -4  -5 11278.4 751.754   6
   1   4  -5 10640.6 633.776   6
  -1  -4   5 10973.5 747.533  10
   1   4  -5 10899.9 718.698   1
   1  -4  -4 32461.1 1223.32   6
   1   4  -4 30840.8 1010.64   6
  -1  -4   4 31894.1 1241.93   2
  -1   4   4 31546.4 1244.62   9
   1   4  -4 29501.5 1160.76   1
  -1  -4   4 30335.8 1200.28  10
  -1  -4   3 108.265 121.494   5
   1   4  -3 10.4457 111.203   8
  -1   4   3 169.457 189.705   9
   1  -4  -3 123.234 92.3500   2
  -1  -4   3 188.717 178.654  10
   1   4  -3 286.215 178.998   1
   1  -4  -3-100.731 144.995   6
  -1  -4   3 117.519 168.323   2
   1   4  -3-42.6180 91.9877   6
   1   4  -2 22002.3 737.175   5
   1  -4  -2 18967.5 750.515   5
   1  -4  -2 20118.2 509.119   2
  -1  -4   2 20132.0 816.590  10
  -1  -4   2 20393.8 811.153   2
  -1   4   2 19987.8 824.270   9
   1   4  -2 19730.0 737.005   8
  -1  -4   2 19367.8 708.746   5
   1  -4  -2 19536.6 631.853   8
   1   4  -2 19330.4 519.810   6
  -1  -4   1 107947. 2325.23   2
  -1   4   1 116276. 2348.31   5
   1   4  -1 111554. 2337.42   2
  -1   4   1 104120. 2311.90   9
   1  -4  -1 109010. 2014.24   8
  -1  -4   1 110957. 2247.05   8
   1  -4  -1 105423. 2306.75   5
   1   4  -1 104585. 2224.07   8
   1   4  -1 110862. 2269.53   4
  -1  -4   1 104846. 2363.10  10
   1  -4  -1 111617. 2324.88   9
   1   4  -1 112018. 2224.38   5
  -1  -4   1 105625. 2195.26   5
  -1   4   1 106910. 2413.29   3
  -1   4   0 112.955 68.3897   8
   1  -4   0 44.1077 99.9575   7
  -1  -4   0 112.789 116.738   5
   1   4   0 46.8776 103.098   4
   1   4   0 40.3063 55.8460   7
   1   4   0 53.5939 60.3744   6
  -1   4   0-75.0402 102.793   9
  -1  -4   0 175.798 139.685   2
   1   4   0 185.320 132.899   2
  -1  -4   0-16.7942 62.5258   6
   1  -4   0 114.574 98.1746   9
   1   4   0 47.4239 94.9543   8
  -1   4   0 120.733 155.618   3
  -1  -4   0 33.1303 99.7297   8
   1  -4   0-5.60567 125.825   5
  -1  -4  -1 31599.0 782.342   7
   1  -4   1 32223.0 852.344  10
  -1  -4  -1 34427.2 980.855   8
   1   4   1 30867.1 783.110   7
  -1   4  -1 29049.2 754.759   9
  -1   4  -1 32417.6 857.925  10
  -1   4  -1 31295.1 1054.26   3
   1   4   1 31926.3 1050.23   9
   1  -4   1 29830.8 1015.20   5
  -1  -4  -1 30397.1 859.058   6
  -1   4  -1 32521.2 977.487   7
   1  -4   1 32229.3 978.931   7
  -1  -4  -1 32196.0 995.859   2
   1  -4   1 32961.9 770.356   9
   1   4   1 32369.8 875.418   6
  -1   4  -2 86.9080 35.2847   9
   1  -4   2 245.308 140.072   5
   1   4   2 210.387 115.837   7
  -1  -4  -2 323.713 161.714   6
  -1  -4  -2 199.147 93.8549   7
  -1   4  -2 171.858 102.925  10
   1  -4   2 243.798 123.425  10
  -1   4  -2 436.723 162.291   3
   1   4   2 364.569 171.109   9
   1  -4   2 157.737 127.131   7
   1   4   3 10354.6 559.520   7
   1  -4   3 10615.1 555.629  10
   1   4   3 11531.0 665.840   9
   1  -4   3 10284.6 637.266   7
  -1  -4  -3 10843.2 642.733   6
  -1   4  -3 10917.6 605.519   3
   1  -4   3 9805.12 638.663   5
   1   4   4 35555.2 1248.84   7
  -1   4  -4 36464.3 1118.16   1
  -1  -4  -4 35728.6 1353.64   6
  -1   4  -4 35199.4 1210.31   3
   1  -4   4 36535.1 1246.86  10
   1  -4   4 37917.9 1396.16   7
   1   4   4 36533.7 1311.76   9
  -1   4  -5 8361.49 565.538   3
   1  -4   5 9470.21 668.067  10
   1   4   5 9301.96 667.295   9
  -1  -4  -5 9078.60 729.089   6
   1  -4   5 9070.18 725.152   7
  -1   4  -5 9741.74 582.610   1
  -1   4  -5 10846.1 771.674   6
   1   4   5 8969.27 654.906   7
  -1   4  -5 6449.42 282.578   9
  -1   4  -6 3726.87 516.853   6
   1  -4   6 3782.63 531.684   7
  -1  -4  -6 3349.43 523.433   6
   1   4   6 3086.67 452.150   7
   1  -4   6 3493.01 455.509  10
  -1   4  -6 2807.36 347.847   3
   1   4   6 3541.61 456.735   9
   1   4   7 25548.5 1299.36   9
   1  -4   7 29757.7 1523.35   7
   1   4   7 25193.5 1429.39  10
   1  -4   7 29033.8 1399.18  10
  -1   4  -7 28296.1 1467.23   6
  -1   4  -7 29593.5 1159.19   3
  -1  -4  -7 27173.4 1462.29   6
  -1  -4  -8 1514.21 455.925   6
   1   4   8 1396.14 333.649   9
   1  -4   8 1920.99 482.208   7
   1   4   8 1335.22 395.796  10
  -1   4  -8 1924.42 449.999   6
   1  -4   8 1211.50 355.624  10
  -1  -4  -9 2311.19 545.570   6
   1   4   9 2446.28 545.792  10
   1  -4   9 2988.53 540.074  10
  -1   4  -9 1824.25 445.534   6
  -1   4 -10 354.027 406.074   6
   1   4  10 61.5194 307.976  10
  -1  -4 -10 153.306 332.044   6
   1  -4  10 4.01138 291.747  10
   1   4  11 7228.23 960.624  10
  -1  -4 -11 5870.99 879.675   6
   1  -4  11 8599.19 996.117  10
  -1   4 -11 8116.59 1032.58   6
   1   5 -12 4166.69 744.663   6
  -1  -5  12 5859.58 905.836  10
   1  -5 -11 1142.39 462.467   6
  -1   5  11 1378.03 518.216  10
   1   5 -11 758.236 369.573   6
  -1  -5  11 902.800 466.699  10
   1  -5 -10 8772.46 972.990   6
   1   5 -10 7606.89 825.554   6
  -1   5  10 8933.06 1008.29  10
  -1  -5  10 9282.51 993.433  10
   1  -5  -9 2196.97 504.134   6
  -1  -5   9 922.688 433.825  10
   1   5  -9 1657.90 422.071   6
  -1   5   9 942.195 420.123  10
   1   5  -8 317.310 275.252   6
  -1  -5   8-85.1062 225.423  10
   1  -5  -8 145.245 294.169   6
  -1  -5   7 1454.63 371.176  10
  -1   5   7 1504.96 440.498  10
   1   5  -7 1190.55 329.644   6
  -1   5   7 1390.87 300.088   4
   1  -5  -7 1307.24 397.186   6
   1   5  -6 2655.84 447.016   1
  -1   5   6 2751.74 435.962   9
   1  -5  -6 2457.51 435.010   6
   1   5  -6 3622.34 424.709   6
  -1   5   6 2742.35 361.184   4
   1   5  -6 1991.64 156.269   3
  -1  -5   6 3226.57 467.703  10
  -1  -5   6 3149.78 478.054   2
   1   5  -5 8197.79 645.312   1
  -1  -5   5 8263.54 673.960  10
  -1   5   5 9010.60 579.219   4
   1   5  -5 8299.45 388.093   3
   1  -5  -5 10017.2 728.405   6
   1   5  -5 9282.55 587.433   6
  -1  -5   5 8562.49 692.224   2
  -1   5   5 8501.70 712.182   9
  -1  -5   4 3811.62 390.062   5
  -1  -5   4 3316.12 416.374  10
   1  -5  -4 3030.06 282.493   2
   1   5  -4 3190.04 300.676   6
   1  -5  -4 3309.62 423.364   6
  -1  -5   4 3269.28 404.617   2
   1   5  -4 3112.22 382.773   1
  -1   5   4 3582.60 433.851   9
   1   5  -3 316.985 106.128   6
  -1  -5   3 231.676 141.671   5
   1   5  -3 401.678 151.842   8
   1   5  -3 114.165 160.351   1
  -1   5   3 450.155 235.848   9
  -1  -5   3 338.215 181.048  10
   1  -5  -3 352.276 94.8075   2
   1  -5  -3 109.449 168.673   6
   1  -5  -3 375.181 196.747   5
  -1  -5   3 269.484 152.407   2
  -1  -5   2 30002.0 1055.06   2
   1   5  -2 29317.8 721.419   6
  -1   5   2 30446.0 1108.82   9
  -1  -5   2 30250.6 1089.83  10
   1  -5  -2 30963.9 815.792   8
   1   5  -2 29887.1 958.596   8
  -1  -5   2 29394.3 978.438   5
   1  -5  -2 31459.8 1068.46   5
   1  -5  -1 5594.90 238.759   8
  -1  -5   1 5398.85 391.794   2
  -1  -5   1 5932.40 358.379   8
   1   5  -1 6112.42 360.684   8
   1  -5  -1 5928.13 424.189   5
  -1  -5   1 5306.60 369.647   5
  -1   5   1 5987.13 430.755   9
   1  -5   0 43312.0 1102.92   9
   1  -5   0 40717.9 1223.53   5
  -1  -5   0 40983.0 1151.59   5
   1  -5   0 37629.2 1047.11   7
  -1   5   0 39591.3 1073.41   9
  -1  -5   0 43119.1 1085.66   8
  -1   5   0 38297.3 837.108   8
   1   5   0 37177.0 1022.44   8
  -1  -5   0 40896.3 1141.86   2
   1   5   0 40337.3 1240.57   9
   1   5   0 38900.7 884.670   6
  -1   5   0 39344.8 1262.82   3
   1  -5   1 25089.6 711.189   9
  -1  -5  -1 25186.2 823.195   8
  -1  -5  -1 24912.2 863.311   2
  -1   5  -1 23610.1 943.007   3
   1   5   1 21355.7 602.394   4
   1  -5   1 24717.1 848.699   7
  -1   5  -1 23261.1 699.645   9
  -1  -5  -1 22685.3 734.382   6
   1   5   1 23322.2 935.923   9
  -1   5  -1 25857.9 800.730  10
   1   5   1 23960.2 756.113   6
  -1  -5  -1 23467.5 876.853   5
   1  -5   1 23777.6 930.627   5
   1   5   1 22760.3 608.785   7
  -1  -5  -2 33994.1 930.676   7
  -1   5  -2 34058.0 1179.84   3
   1   5   2 36328.2 1246.90   9
   1  -5   2 35421.8 1040.71  10
   1   5   2 33600.5 935.265   7
   1  -5   2 34680.9 1229.98   5
   1  -5   2 34695.0 1141.65   7
  -1  -5  -2 35570.6 1086.11   6
  -1   5  -2 32369.8 795.556   9
  -1   5  -3 76.8277 136.017   3
   1  -5   3 319.791 176.127   7
  -1  -5  -3 372.247 211.536   6
   1   5   3 51.9172 179.016   9
   1   5   3 166.598 128.055   7
  -1   5  -3 65.6632 34.8196   9
   1  -5   3 41.3178 155.045   5
   1  -5   3 9.58548 144.499  10
   1  -5   4 3662.19 383.967  10
   1   5   4 3779.20 451.927   9
   1   5   4 3269.15 347.508   7
  -1   5  -4 3655.29 347.582   1
   1  -5   4 3344.57 413.527   7
  -1  -5  -4 3867.73 458.690   6
  -1   5  -4 3327.79 373.449   3
  -1   5  -5 21619.8 910.191   1
   1   5   5 23451.5 1050.75   7
   1   5   5 22575.8 1083.92   9
  -1  -5  -5 22659.0 1134.61   6
  -1   5  -5 23341.2 1159.70   6
   1  -5   5 22929.3 1145.77   7
   1  -5   5 23726.6 1058.45  10
  -1   5  -5 22951.5 966.891   3
   1   5   6 204.840 217.399   9
  -1  -5  -6 282.020 256.094   6
   1  -5   6 282.969 242.119   7
  -1   5  -6 718.728 314.559   6
  -1   5  -6 25.0894 131.900   3
   1  -5   6 301.804 211.448  10
   1  -5   7 139.075 237.959  10
  -1  -5  -7 285.428 282.920   6
   1  -5   7 233.459 219.588   7
  -1   5  -7 536.263 280.355   6
   1   5   7 4.50258 224.581   9
  -1   5  -7 387.700 183.461   3
   1  -5   8 1585.48 411.125  10
   1  -5   8 2004.01 474.076   7
   1   5   8 1319.51 372.815   9
  -1   5  -8 1631.98 424.385   6
  -1  -5  -8 1427.77 408.414   6
   1   5   8 2357.54 496.201  10
   1  -5   9 1103.25 382.272   7
   1  -5   9 1215.48 429.980  10
  -1  -5  -9 1799.23 491.090   6
  -1   5  -9 783.129 329.987   6
   1   5   9 1241.41 431.718  10
   1   5   9 1148.53 342.061   9
   1  -5  10 6682.37 818.800  10
  -1   5 -10 5721.91 827.156   6
   1   5  10 5818.99 851.551  10
  -1  -5 -10 7022.38 917.986   6
   1  -5  11 1503.53 444.545  10
   1   5  11 1992.52 560.108  10
  -1  -5 -11 2478.75 647.025   6
  -1   5 -11 1462.12 552.452   6
   1   6 -12 463.428 276.537   6
   1   6 -11 2767.50 587.709   6
   1  -6 -11 4278.65 715.846   6
  -1  -6  11 3513.16 684.966  10
  -1   6  11 3629.83 734.584  10
   1   6 -10 2160.70 504.675   6
  -1   6  10 1919.35 524.487  10
   1  -6 -10 1842.51 491.041   6
  -1  -6  10 1012.18 420.327  10
  -1   6   9 10717.8 1055.70  10
  -1  -6   9 11677.8 1067.87  10
   1  -6  -9 10077.2 975.749   6
   1   6  -9 10781.7 929.707   6
  -1   6   8 20304.9 1359.91  10
  -1  -6   8 23206.3 1408.92  10
   1  -6  -8 23092.5 1399.00   6
   1   6  -8 22595.8 1249.57   6
   1  -6  -7 124.779 314.515   6
  -1   6   7 209.181 346.776  10
  -1   6   7 244.786 270.386   9
   1   6  -7 371.945 242.053   6
  -1   6   7 330.363 197.068   4
  -1  -6   7 305.553 298.071  10
   1   6  -6 20.8624 76.5245   3
  -1  -6   6 17.0901 204.515  10
   1  -6  -6 388.927 293.149   6
  -1   6   6 327.843 206.124   4
   1   6  -6-11.5185 139.651   6
  -1  -6   6 115.522 202.523   2
  -1   6   6 223.149 259.023   9
   1   6  -6-19.1308 196.707   1
   1   6  -5 1565.53 327.479   1
  -1  -6   5 1850.58 347.893   2
   1  -6  -5 1849.16 337.887   6
  -1  -6   5 1724.50 364.835  10
   1   6  -5 1861.74 276.417   6
  -1   6   5 1688.35 356.136   9
   1  -6  -4 206.737 234.385   6
   1   6  -4 29.5345 180.070   1
  -1  -6   4 333.077 253.306  10
   1  -6  -4 141.526 100.171   2
  -1  -6   4 170.944 162.320   2
   1   6  -4 192.297 138.016   6
  -1   6   4 126.170 205.147   9
  -1  -6   4 272.076 184.089   5
  -1  -6   3 43370.8 1448.62   2
  -1  -6   3 43514.2 1487.02  10
   1  -6  -3 43580.2 1457.32   5
   1  -6  -3 41533.3 954.382   2
   1   6  -3 42299.1 1102.35   6
  -1   6   3 42621.6 1513.42   9
   1   6  -3 41621.4 1310.04   8
  -1  -6   3 43075.6 1376.94   5
  -1  -6   2 2942.73 311.227   5
  -1   6   2 2155.86 318.525   9
   1   6  -2 2427.46 214.545   7
   1   6  -2 2205.56 253.842   8
  -1  -6   2 3037.06 339.701   2
   1  -6  -2 2433.24 316.601   5
  -1  -6   2 2497.97 343.901  10
   1  -6  -2 2592.55 194.109   8
   1   6  -1 15086.0 612.650   8
   1   6  -1 13907.9 458.885   6
   1   6  -1 14845.1 448.359   7
  -1  -6   1 16564.0 720.597   5
  -1   6   1 14997.3 720.245   9
  -1  -6   1 16672.0 713.633   2
  -1  -6   1 17561.0 653.320   8
   1  -6  -1 14311.6 387.483   8
   1  -6  -1 16667.6 786.909   5
  -1   6   0 9022.75 308.782   8
  -1   6   0 10811.7 546.060   9
  -1   6   0 11148.7 668.787   3
   1   6   0 11096.5 428.153   6
  -1  -6   0 11191.8 503.419   8
  -1  -6   0 10850.1 553.854   2
   1  -6   0 11212.5 515.512   7
   1   6   0 10510.9 625.586   9
  -1  -6   0 10463.9 577.921   5
  -1   6   0 10626.5 359.029   2
   1   6   0 10494.4 482.605   8
   1  -6   0 10630.3 616.352   5
  -1   6  -1 982.058 259.722   3
  -1   6  -1 1269.36 180.991   9
  -1  -6  -1 702.601 195.960   5
   1  -6   1 776.060 195.610   5
  -1  -6  -1 957.216 165.912   6
   1  -6   1 906.125 190.323   7
   1   6   1 1085.83 268.139   9
  -1  -6  -1 939.902 193.001   2
   1  -6   1 829.415 140.428   9
   1   6   1 948.408 99.2356   7
   1   6   1 1037.20 172.549   6
  -1  -6  -1 940.980 166.640   8
  -1   6  -1 1000.77 155.913   2
   1  -6   2 9194.62 519.277  10
   1   6   2 8239.00 387.990   7
  -1  -6  -2 8007.27 488.728   6
  -1   6  -2 9517.71 611.461   3
  -1   6  -2 8738.93 389.798   9
   1   6   2 8559.48 603.999   9
   1  -6   2 8665.54 619.863   5
  -1  -6  -2 7547.84 369.384   7
   1  -6   2 8983.73 546.459   7
   1  -6   3 39662.3 1272.04  10
   1  -6   3 41215.4 1376.47   7
  -1   6  -3 38756.7 1356.83   3
   1  -6   3 37299.3 1433.47   5
  -1  -6  -3 36754.6 1286.73   6
   1   6   3 36776.9 1126.34   7
  -1   6  -3 37625.8 895.787   9
   1   6   3 40481.8 1472.36   9
   1  -6   4 9370.66 690.296   7
  -1  -6  -4 8194.30 628.936   6
   1  -6   4 9881.78 753.745   5
   1  -6   4 9964.69 638.864  10
  -1   6  -4 9868.50 598.490   1
  -1   6  -4 8139.63 308.376   9
  -1   6  -4 10104.4 651.535   3
   1   6   4 8392.78 678.792   9
   1  -6   5 121.937 198.978   7
  -1  -6  -5 262.123 271.607   6
   1  -6   5 143.381 165.753  10
  -1   6  -5 285.810 62.7038   9
  -1   6  -5 213.280 189.898   1
  -1   6  -5 33.8954 38.7459   9
  -1   6  -5 603.600 227.205   3
   1   6   5 293.309 244.437   9
   1  -6   6 12995.5 959.287   7
   1   6   6 10625.3 850.284   9
   1  -6   6 12054.0 850.016  10
  -1  -6  -6 12477.6 920.886   6
  -1   6  -6 12065.0 742.445   3
  -1   6  -6 11908.0 761.907   1
  -1   6  -6 12470.0 915.238   6
   1   6   7 2227.07 462.499   9
  -1   6  -7 2872.89 378.430   3
  -1   6  -7 2442.92 484.768   6
   1  -6   7 2862.15 473.848  10
  -1  -6  -7 3326.64 566.807   6
   1  -6   7 2836.29 497.021   7
  -1  -6  -8 11997.0 1038.32   6
  -1   6  -8 13557.0 1083.43   6
   1   6   8 12762.5 1026.61   9
   1  -6   8 12472.4 991.055  10
   1  -6   8 11200.5 1018.85   7
  -1   6  -9 6382.79 823.416   6
   1   6   9 4251.28 629.959   9
   1   6   9 6341.77 834.440  10
  -1  -6  -9 5070.07 766.311   6
   1  -6   9 5602.34 721.034  10
   1   6  10 1266.38 529.401  10
  -1  -6 -10 1604.46 551.604   6
  -1   6 -10 1109.26 446.264   6
   1  -6  10 1051.10 421.089  10
   1  -6  11 3760.37 689.023  10
   1   6  11 3105.62 701.436  10
  -1  -6 -11 3660.74 741.955   6
  -1   6 -11 4092.48 754.521   6
   1   7 -12 556.601 365.496   6
   1   7 -11 2030.01 526.233   6
  -1   7  11 2130.76 572.471  10
  -1  -7  11 1530.80 513.279  10
   1  -7 -11 1420.09 465.552   6
   1   7 -10 541.803 325.687   6
  -1  -7  10 419.777 349.805  10
  -1   7  10 457.471 390.104  10
   1  -7 -10-136.931 308.763   6
  -1   7   9 406.542 358.917  10
  -1  -7   9 252.566 294.372  10
   1  -7  -9 464.792 367.203   6
   1   7  -9 898.926 374.867   6
  -1   7   8 657.978 393.919  10
   1   7  -8 1246.82 351.756   6
  -1  -7   8 1089.73 407.389  10
   1  -7  -8 720.722 304.390   6
   1   7  -7 1742.92 344.902   6
   1   7  -7 1847.98 426.455   1
  -1   7   7 2484.75 533.960   9
   1  -7  -7 2074.78 447.665   6
  -1   7   7 1710.14 311.136   4
  -1  -7   7 1989.96 463.171  10
  -1  -7   6 1657.23 375.710   2
  -1   7   6 1435.91 310.542   4
   1   7  -6 1500.97 281.092   6
  -1   7   6 1472.21 381.737   9
  -1  -7   6 1542.90 386.112  10
   1   7  -6 2081.52 401.216   1
   1   7  -6 1718.83 217.673   3
   1  -7  -6 2307.89 438.515   6
  -1  -7   5 8434.29 681.444   5
   1  -7  -5 9493.28 749.849   6
   1   7  -5 8701.63 581.137   6
  -1  -7   5 9130.86 755.629  10
   1   7  -5 9367.93 722.177   1
  -1   7   5 9596.39 788.513   9
  -1  -7   5 9381.14 747.919   2
   1  -7  -4 87.7063 79.7865   2
   1   7  -4 160.693 142.356   6
  -1  -7   4 303.486 216.891   2
   1   7  -4 97.1440 127.433   8
   1   7  -4-36.9027 203.640   1
   1  -7  -4 63.8204 194.230   5
   1  -7  -4 149.076 218.202   6
  -1  -7   4 34.2566 193.299  10
  -1   7   4 225.401 207.566   9
  -1  -7   4-69.1504 141.036   5
  -1   7   3 16382.8 906.743   9
  -1  -7   3 14627.5 801.774   2
  -1  -7   3 14636.3 846.239  10
   1   7  -3 15538.3 728.303   8
  -1  -7   3 15738.9 811.036   5
   1  -7  -3 15040.5 834.040   5
   1  -7  -2 5118.42 252.634   8
  -1   7   2 6094.29 525.573   9
   1  -7  -2 5337.34 492.134   5
  -1  -7   2 5372.03 456.030   5
  -1  -7   2 5842.51 463.939   2
   1   7  -2 5544.70 392.015   8
   1   7  -2 5719.51 321.076   7
   1  -7  -1 2738.08 341.882   5
  -1  -7   1 2232.63 235.319   8
  -1  -7   1 1975.37 282.794   5
   1   7  -1 1966.23 127.693   7
   1   7  -1 2106.14 227.619   8
  -1  -7   1 2510.86 294.316   2
   1   7  -1 1708.33 167.065   6
  -1   7   1 2110.55 294.159   9
   1   7  -1 1726.56 299.416   9
   1  -7   0 64789.3 1864.50   5
   1   7   0 64269.6 1446.94   6
  -1   7   0 63773.4 1920.42   3
  -1  -7   0 67951.7 1551.25   8
   1   7   0 62460.8 1504.89   8
  -1  -7   0 63169.6 1669.34   2
  -1   7   0 65019.9 1691.67   9
  -1   7   0 60284.9 1259.68   2
  -1  -7   0 64247.6 1801.03   5
   1  -7   0 63251.9 1553.73   7
   1   7   0 64574.2 1879.87   9
   1  -7   1 8818.23 506.326   7
   1   7   1 8807.98 650.415   9
  -1  -7  -1 8447.16 583.842   5
  -1   7  -1 8125.73 607.480   3
  -1  -7  -1 8415.70 505.610   2
   1  -7   1 9237.27 639.838   5
   1   7   1 7521.48 449.983   6
  -1   7  -1 8207.01 421.616   2
  -1   7  -1 7779.07 466.658   9
  -1  -7  -1 7997.76 447.338   6
   1  -7   2 2062.85 348.728   5
  -1   7  -2 2453.13 234.977   9
  -1  -7  -2 2158.88 335.546   5
  -1  -7  -2 2259.84 294.650   2
  -1   7  -2 2356.85 347.075   3
  -1  -7  -2 2870.51 305.923   6
   1   7   2 2623.08 376.286   9
   1  -7   2 2886.07 344.179   7
  -1  -7  -2 2176.93 185.998   7
   1  -7   3 23223.1 1020.90   7
   1  -7   3 24281.4 1156.97   5
  -1  -7  -3 19495.0 765.356   7
  -1   7  -3 23872.7 1070.79   3
   1  -7   3 25774.8 1017.57  10
  -1  -7  -3 23396.2 1001.20   6
   1   7   3 24427.3 1157.44   9
  -1   7  -3 23762.4 718.808   9
   1   7   4 1658.27 337.361   9
  -1   7  -4 1344.10 146.093   9
   1  -7   4 1287.39 292.532   7
   1  -7   4 1724.31 373.875   5
  -1  -7  -4 1505.43 326.486   6
   1  -7   4 2226.52 336.796  10
  -1   7  -4 1884.85 312.516   3
   1  -7   5 12026.7 843.511   7
   1   7   5 10222.0 820.894   9
  -1   7  -5 10283.0 682.866   1
  -1   7  -5 8501.33 344.221   9
  -1  -7  -5 10424.3 785.866   6
   1  -7   5 10713.5 740.993  10
  -1   7  -5 11483.8 738.134   3
  -1  -7  -6 599.480 314.258   6
  -1   7  -6 36.1569 169.340   1
  -1   7  -6 55.0146 244.298   6
   1  -7   6-130.537 224.199   7
   1   7   6 443.866 284.131   9
   1  -7   6 117.156 184.043  10
  -1   7  -6 269.253 181.234   3
   1  -7   7 2828.44 470.814  10
   1  -7   7 2244.92 462.238   7
  -1   7  -7 2043.00 406.404   6
  -1   7  -7 2191.12 345.277   3
  -1  -7  -7 5222.49 666.200   6
   1   7   7 4577.10 663.428   9
  -1   7  -8 3205.22 575.161   6
   1  -7   8 2462.08 560.986   7
  -1  -7  -8 2030.13 463.783   6
   1   7   8 2164.58 507.498   9
   1  -7   8 1943.88 428.998  10
  -1   7  -9 902.265 351.200   6
  -1  -7  -9 468.620 344.787   6
   1  -7   9 721.934 365.419  10
   1   7   9 887.532 490.518  10
   1   7   9 323.038 257.625   9
   1   7  10 457.314 328.207   9
   1  -7  10-2.97203 269.733  10
  -1  -7 -10 690.129 386.303   6
  -1   7 -10 224.811 348.390   6
   1   7  10 1011.33 439.841  10
   1  -7  11 1474.36 508.640  10
  -1   7 -11 2394.75 623.274   6
   1  -8 -11 1742.02 548.457   6
  -1  -8  11 1889.77 562.843  10
   1   8 -11 1692.03 487.234   6
  -1   8  11 1793.35 554.801  10
   1   8 -10 3006.79 552.510   6
  -1   8  10 2159.61 566.815  10
   1  -8 -10 3995.33 704.220   6
  -1  -8  10 4866.49 765.421  10
  -1   8   9 259.853 322.260  10
   1   8  -9 267.045 249.929   6
   1  -8  -9 74.9273 338.064   6
  -1  -8   9 112.680 248.926  10
   1  -8  -8 10740.7 992.046   6
   1   8  -8 10709.1 862.007   6
  -1   8   8 9892.17 984.940   9
  -1  -8   8 11695.9 1031.02  10
   1   8  -7-30.0969 252.795   1
  -1   8   7 378.655 208.907   4
   1  -8  -7 204.758 327.914   6
  -1  -8   7 595.020 308.367  10
  -1   8   7 520.841 318.159   9
   1   8  -7-284.584 199.011   6
  -1  -8   6 1155.57 334.201  10
   1   8  -6 1218.37 313.166   1
   1   8  -6 881.079 186.011   3
   1  -8  -6 1157.07 349.653   6
  -1   8   6 778.970 320.939   9
  -1   8   6 1426.50 301.816   4
   1   8  -6 1359.65 295.586   6
  -1  -8   6 833.533 302.001   2
   1   8  -5 1671.35 305.790   8
   1   8  -5 1442.14 249.551   6
  -1   8   5 2019.20 437.707   9
   1  -8  -5 2081.84 416.001   5
   1   8  -5 1239.14 310.552   1
   1  -8  -5 2003.26 402.571   6
  -1  -8   5 1401.31 332.179   5
  -1  -8   5 1433.47 375.838  10
  -1  -8   5 1625.83 332.850   2
  -1  -8   4 6276.50 587.025   2
  -1   8   4 6430.53 641.307   9
   1   8  -4 5962.11 596.541   1
   1  -8  -4 4710.00 281.459   2
   1   8  -4 6127.28 431.674   6
  -1  -8   4 6132.89 576.792   5
  -1  -8   4 5938.34 607.777  10
   1  -8  -4 5053.11 559.707   5
   1   8  -4 6260.64 512.541   8
  -1   8   3 18677.5 1027.75   9
  -1  -8   3 18725.8 947.214   2
   1  -8  -3 17021.4 960.370   5
   1   8  -3 17285.0 796.627   8
  -1  -8   3 17913.5 933.275   5
  -1  -8   3 17958.9 988.394  10
  -1   8   2 3951.27 443.819   9
   1  -8  -2 3252.41 174.117   8
   1   8  -2 3880.45 257.495   7
   1   8  -2 4684.39 465.932   9
  -1  -8   2 4013.34 430.166   5
   1   8  -2 4532.93 359.652   8
   1  -8  -2 4291.42 460.259   5
  -1  -8   2 4700.61 439.262   2
   1  -8  -1 6090.95 536.394   5
  -1  -8   1 6164.80 507.576   5
  -1   8   1 7073.29 543.823   9
   1   8  -1 6219.33 388.978   8
  -1  -8   1 6118.34 467.063   2
   1   8  -1 6190.30 350.109   6
   1   8  -1 6929.77 572.820   9
   1  -8   0 3040.97 425.092   5
  -1  -8   0 3143.68 270.762   8
  -1  -8   0 3656.83 356.327   2
  -1   8   0 2817.40 175.122   2
   1   8   0 3186.13 406.500   9
   1   8   0 3059.53 266.473   6
  -1  -8   0 3521.19 406.529   5
   1   8   0 3352.63 283.476   8
   1  -8   0 3972.60 323.753   7
  -1   8   0 3674.92 377.298   9
  -1   8  -1 1396.63 304.180   3
  -1   8  -1 975.940 112.236   8
   1  -8   1 1147.65 274.135   5
  -1  -8  -1 1473.34 241.843   2
  -1  -8  -1 1410.26 297.493   5
   1   8   1 1302.43 337.586   9
   1  -8   1 1836.41 258.418   7
  -1   8  -1 1709.63 250.709   9
  -1   8  -1 1113.52 166.408   2
   1  -8   2 6671.74 611.474   5
  -1  -8  -2 7434.05 501.516   6
   1  -8   2 7885.92 536.158   7
  -1  -8  -2 7103.96 594.262   5
  -1   8  -2 7424.67 609.285   3
  -1  -8  -2 6695.56 491.652   2
   1   8   2 6632.49 617.252   9
  -1   8  -2 7567.76 454.135   9
  -1   8  -3 11651.5 526.492   9
   1  -8   3 11115.3 692.368  10
  -1   8  -3 12193.3 788.341   3
  -1  -8  -3 11337.5 676.663   2
  -1  -8  -3 9133.13 467.128   7
  -1  -8  -3 11045.5 794.854   5
   1  -8   3 11746.2 833.062   5
  -1  -8  -3 11395.1 693.337   6
   1  -8   3 10932.8 690.000   7
   1   8   3 11531.3 822.100   9
   1  -8   4 5950.51 651.717   5
  -1   8  -4 5595.94 548.528   3
   1   8   4 5219.79 599.905   9
   1  -8   4 6609.42 569.372  10
  -1  -8  -4 5731.43 557.768   6
   1  -8   4 5609.27 554.177   7
  -1   8  -4 5860.44 338.622   9
   1   8   5 1411.64 332.654   9
   1  -8   5 1358.90 344.231   7
   1  -8   5 906.688 272.798  10
  -1   8  -5 1033.80 302.024   1
   1  -8   5 908.758 337.641   5
  -1  -8  -5 1368.99 335.337   6
  -1   8  -5 1569.76 331.689   3
   1   8   6 12960.6 982.445   9
   1  -8   6 13268.6 988.689   7
  -1   8  -6 12873.5 859.735   1
  -1  -8  -6 13400.1 974.262   6
  -1   8  -6 13774.6 862.312   3
   1  -8   6 12757.0 908.100  10
  -1   8  -6 13269.7 983.507   6
   1   8   7 1013.08 379.862   9
   1  -8   7 383.749 270.179  10
   1  -8   7 127.278 212.108   7
  -1  -8  -7 498.038 343.347   6
  -1   8  -7 778.342 271.289   1
  -1   8  -7 1366.65 368.845   6
  -1   8  -7 753.110 255.001   3
   1   8   8 2050.52 477.250   9
  -1  -8  -8 1951.23 489.555   6
   1  -8   8 1060.00 387.099   7
  -1   8  -8 1309.40 390.766   6
   1  -8   8 1372.25 395.926  10
  -1  -8  -9 532.569 383.149   6
   1  -8   9 89.7345 235.100  10
  -1   8  -9 567.406 318.057   6
   1   8   9 100.624 269.491   9
  -1   8 -10 155.541 267.322   6
   1   8  10 649.294 451.241  10
  -1  -8 -10 238.038 292.008   6
   1  -8  10 24.8829 272.217  10
   1   8  10 76.5616 236.339   9
   1  -8  11 851.283 405.270  10
  -1  -9  11 496.613 395.946  10
  -1  -9  10 2754.88 610.572  10
   1  -9 -10 3166.57 679.847   6
   1   9 -10 3175.99 562.037   6
  -1   9  10 4832.14 823.714  10
  -1  -9   9 3726.41 663.034  10
   1  -9  -9 3541.77 621.583   6
  -1   9   9 4448.04 745.766  10
   1   9  -9 3913.94 563.796   6
   1   9  -8 1111.29 394.043   1
  -1  -9   8 2195.85 514.826  10
   1   9  -8 2300.84 441.952   6
   1  -9  -8 2644.30 529.401   6
  -1   9   8 2655.58 577.721   9
   1  -9  -7 3865.20 618.710   6
  -1   9   7 3348.77 426.800   4
  -1  -9   7 3107.04 528.607  10
   1   9  -7 4237.84 499.963   6
   1   9  -7 3634.06 547.408   1
  -1   9   7 3690.57 648.006   9
   1   9  -6 898.846 249.811   8
   1   9  -6 1496.58 301.489   6
  -1  -9   6 1498.84 391.741   2
   1   9  -6 1472.38 375.111   1
  -1  -9   6 1518.97 403.769  10
   1  -9  -6 1732.33 396.020   6
   1  -9  -6 896.051 365.153   5
  -1   9   6 1327.30 446.096   9
   1   9  -6 1414.51 248.427   3
   1   9  -5 13556.2 845.709   8
  -1  -9   5 14833.7 1015.45  10
  -1   9   5 14755.5 1048.27   9
   1   9  -5 12989.2 736.126   6
  -1  -9   5 13303.0 921.143   5
  -1  -9   5 16278.4 1024.04   2
   1  -9  -5 13981.7 989.779   5
   1   9  -5 12821.5 934.507   1
  -1  -9   4 4588.52 550.164  10
  -1   9   4 4737.31 560.730   9
  -1  -9   4 4895.53 535.416   5
   1  -9  -4 3800.27 526.536   5
   1   9  -4 5042.66 466.181   8
  -1  -9   4 4263.84 504.320   2
   1   9  -4 5583.02 431.285   6
   1   9  -3 10621.7 613.632   8
  -1   9   3 11271.1 813.107   9
  -1  -9   3 10852.5 799.459  10
   1  -9  -3 10651.8 791.964   5
  -1  -9   3 10602.6 720.338   2
   1  -9  -3 9029.88 403.126   8
  -1  -9   3 11582.5 778.418   5
  -1  -9   2 3060.50 404.152   5
   1   9  -2 2456.80 193.708   7
   1  -9  -2 3173.23 444.185   5
  -1  -9   2 3048.78 364.954   2
   1   9  -2 3288.85 310.510   8
   1   9  -2 2565.94 372.682   9
  -1   9   2 2886.23 412.121   9
   1   9  -1 2192.73 238.062   8
   1  -9  -1 2262.93 392.766   5
   1  -9  -1 1942.65 236.580   7
  -1  -9   1 2385.04 317.068   2
  -1  -9   1 2520.49 382.269   5
   1   9  -1 2088.98 227.259   6
  -1   9   1 2419.31 345.008   9
   1   9  -1 2315.18 387.970   9
  -1   9   0 9619.21 633.594   9
  -1  -9   0 9387.74 476.092   8
  -1  -9   0 10100.8 592.777   2
  -1   9   0 7698.97 305.413   2
   1  -9   0 9832.87 516.324   7
  -1  -9   0 9596.83 689.890   5
   1   9   0 10002.7 723.875   9
   1  -9   0 9644.36 722.911   5
   1  -9   1 15055.8 683.834   7
  -1   9  -1 12156.1 526.587   2
  -1  -9  -1 13407.1 681.406   2
  -1   9  -1 14881.1 911.642   3
   1  -9   1 13273.7 848.306   5
  -1  -9  -1 13244.5 827.268   5
   1   9   1 15015.3 923.311   9
  -1   9  -1 13989.8 720.934   9
  -1  -9  -2 8034.25 555.773   6
  -1  -9  -2 8657.73 569.085   2
   1  -9   2 8488.93 712.503   5
  -1   9  -2 9157.76 726.995   3
  -1   9  -2 9277.52 554.041   9
   1  -9   2 9197.09 588.259   7
   1   9   2 9848.90 777.160   9
  -1  -9  -2 8446.80 693.712   5
   1  -9   3 14788.6 828.259   7
  -1  -9  -3 14050.2 795.836   6
  -1  -9  -3 13428.6 755.799   2
   1  -9   3 14642.6 973.682   5
   1   9   3 14107.1 961.344   9
  -1   9  -3 15898.8 951.201   3
  -1  -9  -3 14556.1 948.304   5
  -1   9  -3 14109.5 654.597   9
   1  -9   4 6322.83 686.509   5
   1  -9   4 7735.98 637.297  10
  -1   9  -4 7239.24 421.615   9
  -1  -9  -4 7476.08 723.898   5
  -1  -9  -4 7713.44 652.964   6
  -1   9  -4 7104.33 645.573   3
   1   9   4 7958.48 741.153   9
   1  -9   4 8542.58 676.926   7
   1  -9   5 1833.13 385.244   7
  -1   9  -5 2076.88 356.426   1
  -1  -9  -5 2067.01 409.507   6
   1  -9   5 2285.76 390.009  10
   1  -9   5 1275.22 336.472   5
  -1   9  -5 2054.25 368.149   3
   1   9   5 1914.57 425.354   9
  -1   9  -6 1447.27 371.920   6
  -1   9  -6 1336.63 324.596   1
   1  -9   6 1707.53 383.564  10
   1  -9   6 1838.80 423.613   7
  -1  -9  -6 1361.03 362.990   6
  -1   9  -6 1727.68 337.027   3
   1   9   6 1024.03 343.390   9
   1  -9   7 977.080 360.492   7
   1   9   7 1223.86 412.446   9
  -1  -9  -7 1320.93 418.849   6
  -1   9  -7 1115.07 365.993   6
   1  -9   7 1511.02 396.711  10
  -1   9  -7 964.106 329.404   1
  -1   9  -7 1371.16 307.266   3
   1  -9   8 7977.72 885.604   7
  -1  -9  -8 9017.61 943.365   6
  -1   9  -8 9317.68 935.803   6
   1  -9   8 9239.13 887.910  10
   1   9   8 7767.71 891.525   9
   1   9   9 2821.84 590.810   9
   1  -9   9 2631.46 530.268  10
  -1   9  -9 3569.39 664.024   6
  -1  -9  -9 3567.61 634.966   6
  -1   9 -10 2969.44 627.519   6
   1   9  10 5079.16 851.890  10
   1  -9  10 3945.28 685.429  10
   1   9  10 2830.96 641.146   9
  -1  -9 -10 3446.15 686.539   6
   1  -9  11-237.191 284.409  10
  -1 -10  10 629.611 439.592  10
   1 -10 -10 620.067 369.085   6
  -1  10  10 88.7928 403.242  10
  -1 -10   9 259.058 305.523  10
   1 -10  -9 868.774 428.549   6
  -1  10   9 244.644 337.195  10
   1 -10  -8 11372.3 1052.87   6
   1  10  -8 9603.94 816.575   6
  -1 -10   8 10239.4 1003.83  10
   1  10  -8 9642.06 960.639   1
   1 -10  -8 8464.97 950.174   5
  -1  10   8 9724.72 1047.85   9
   1 -10  -7 1972.36 485.867   5
   1  10  -7 1029.41 287.577   6
  -1  10   7 672.501 362.650   9
   1  10  -7 161.172 250.609   1
   1 -10  -7 1067.36 367.819   6
  -1 -10   7 1321.25 462.374  10
   1  10  -7 575.167 270.767   8
   1  10  -6 9219.77 755.836   8
  -1  10   6 9062.32 908.460   9
  -1 -10   6 9121.28 838.092   2
   1  10  -6 8658.17 636.533   3
   1  10  -6 10194.7 709.972   6
   1 -10  -6 10832.9 930.950   6
   1  10  -6 8254.67 803.376   1
  -1 -10   6 10212.2 876.855   5
   1 -10  -6 10181.4 931.289   5
  -1 -10   6 9395.18 860.731  10
  -1 -10   5 3537.99 533.302  10
   1  10  -5 3518.96 434.862   8
   1  10  -5 4065.64 405.896   6
  -1 -10   5 3197.33 489.571   2
   1 -10  -5 3994.53 576.338   5
  -1  10   5 3191.20 530.593   9
   1  10  -5 3410.39 510.251   1
  -1 -10   5 3292.67 499.878   5
  -1 -10   4 9056.97 793.382  10
   1  10  -4 8124.76 592.246   8
   1  10  -4 9199.33 571.599   6
  -1 -10   4 9406.69 755.763   2
  -1 -10   4 9986.88 797.823   5
   1 -10  -4 8879.51 796.662   5
  -1  10   4 9012.14 804.551   9
   1 -10  -3 3280.39 507.850   5
   1  10  -3 3198.27 339.478   8
  -1  10   3 3392.91 495.337   9
  -1 -10   3 3515.21 437.478   2
  -1 -10   3 3944.61 492.425   5
   1  10  -3 3669.73 469.935   9
   1  10  -2 36690.5 1129.08   8
   1 -10  -2 39191.5 1602.03   5
  -1 -10   2 36703.3 1469.78   5
  -1 -10   2 39805.2 1409.66   2
  -1  10   2 37913.8 1528.69   9
   1  10  -2 38413.7 1511.85   9
   1  10  -1 43999.0 1225.30   8
   1  10  -1 44494.5 1670.25   9
  -1  10   1 41340.6 1585.97   9
   1 -10  -1 44994.4 1729.92   5
  -1 -10   1 44699.0 1466.78   2
   1 -10  -1 43480.7 1234.54   7
  -1 -10   1 42846.4 1612.18   5
  -1 -10   0 3874.37 305.108   8
   1 -10   0 3572.40 491.015   5
  -1  10   0 3014.45 180.768   2
  -1 -10   0 4386.95 409.166   2
  -1  10   0 4702.26 492.601   9
  -1 -10   0 4379.13 501.657   5
   1 -10   0 4676.81 358.888   7
   1  10   0 4331.16 520.243   9
   1 -10   1 11287.3 605.033   7
  -1 -10  -1 10102.6 617.074   2
  -1  10  -1 8479.96 451.129   2
  -1  10  -1 11193.2 842.933   3
  -1 -10  -1 10590.9 784.470   5
  -1  10  -1 10562.9 671.775   9
   1  10   1 10217.8 803.974   9
   1 -10   1 12061.9 848.909   5
  -1  10  -2 12825.4 906.878   3
   1 -10   2 12272.6 694.131   7
  -1 -10  -2 12157.3 698.361   2
   1  10   2 13386.9 948.223   9
  -1  10  -2 12322.5 692.932   9
   1 -10   2 13147.0 928.465   5
  -1 -10  -2 13376.4 908.387   5
  -1  10  -3 54.8011 150.694   9
  -1  10  -3 42.1876 175.939   3
   1 -10   3 3.14621 134.554   7
  -1 -10  -3 166.845 238.521   5
  -1 -10  -3 440.554 229.113   6
  -1 -10  -3-15.8901 116.914   2
   1  10   3 486.537 303.060   9
   1 -10   3-82.1455 210.377   5
  -1  10  -4 1460.06 225.023   9
  -1 -10  -4 2141.75 451.846   5
  -1 -10  -4 1410.33 308.631   6
  -1 -10  -4 1513.30 294.991   2
   1 -10   4 1990.21 379.031   7
   1  10   4 1802.63 428.655   9
  -1  10  -4 2204.81 405.660   3
   1 -10   4 1764.47 344.423  10
   1 -10   4 2215.00 426.193   5
   1 -10   5 280.385 303.950   5
  -1 -10  -5 339.712 320.996   5
  -1  10  -5 146.429 216.332   1
  -1  10  -5-22.0912 152.082   3
   1 -10   5-81.7095 194.899   7
  -1 -10  -5 233.797 245.051   6
   1 -10   5 178.741 173.395  10
   1  10   5 594.557 352.245   9
   1 -10   6 10721.3 872.654  10
   1 -10   6 9427.91 850.176   7
  -1 -10  -6 10128.7 874.314   6
  -1  10  -6 9972.77 801.855   3
  -1  10  -6 8901.06 771.370   1
   1  10   6 9957.55 938.783   9
   1 -10   7 8050.67 839.478   7
  -1  10  -7 7895.30 754.401   1
   1 -10   7 9261.56 867.677  10
  -1 -10  -7 8418.90 860.289   6
   1  10   7 8751.62 924.087   9
  -1  10  -7 8363.19 846.789   6
  -1  10  -8 793.536 340.548   1
   1 -10   8 766.111 329.265   7
   1 -10   8 422.521 286.153  10
  -1 -10  -8 610.069 305.201   6
  -1  10  -8 926.736 418.007   6
   1  10   8 611.329 425.664   9
   1 -10   9 918.290 396.182  10
  -1 -10  -9 907.044 457.408   6
  -1  10  -9 81.0237 304.536   6
   1  10   9 484.733 318.873   9
  -1  10 -10-522.585 290.059   6
   1  10  10 90.8964 268.657   9
  -1 -10 -10-149.327 350.862   6
   1 -10  10 263.799 313.866  10
   1  11 -11 151.688 318.740   8
   1  11 -10 2382.50 534.217   8
   1 -11 -10 2796.64 650.833   5
   1 -11 -10 4034.67 734.795   6
  -1 -11  10 4895.55 796.020  10
  -1  11  10 2967.55 698.308  10
   1  11  -9 1514.04 427.305   8
   1 -11  -9 2178.28 582.705   5
   1  11  -9 1068.43 486.152   1
   1 -11  -9 2381.98 598.848   6
  -1  11   9 2258.97 546.742   9
  -1 -11   9 3053.84 598.477  10
   1  11  -8 4.40097 175.062   8
   1 -11  -8 349.278 286.048   5
   1  11  -8-67.5147 201.758   1
   1 -11  -8-224.628 289.518   6
  -1 -11   8 422.791 333.472  10
  -1  11   8 313.849 354.149   9
  -1  11   7 16798.4 1319.43   9
  -1 -11   7 17714.6 1293.23  10
   1  11  -7 16076.5 1192.98   1
   1  11  -7 16190.2 1097.79   8
   1 -11  -7 19193.7 1363.88   5
   1  11  -6 1406.82 287.247   3
   1  11  -6 1865.97 307.392   6
  -1  11   6 1354.40 417.622   9
   1 -11  -6 2725.96 536.307   5
   1  11  -6 1384.78 320.640   8
  -1 -11   6 1842.99 436.508  10
   1  11  -6 1178.11 363.017   1
  -1 -11   6 1027.39 338.806   5
   1  11  -5 24969.2 1177.76   8
   1 -11  -5 30137.2 1591.25   5
   1  11  -5 27290.2 1326.15   9
  -1 -11   5 26597.7 1400.90   2
  -1  11   5 29907.0 1633.19   9
   1  11  -5 24263.9 1392.06   1
   1  11  -5 26254.5 1111.52   6
  -1 -11   5 27333.9 1488.01  10
  -1 -11   5 25792.0 1421.49   5
  -1 -11   4 1297.68 356.202   5
   1 -11  -4 1267.01 371.913   5
   1  11  -4 747.898 210.645   8
   1  11  -4 1072.56 249.862   9
  -1 -11   4 1094.20 291.130   2
  -1  11   4 1638.83 422.524   9
   1  11  -3 104.167 120.508   8
  -1 -11   3 295.147 187.367   2
   1  11  -3 581.338 276.485   9
   1 -11  -3 483.355 317.127   5
  -1 -11   3 839.706 293.985   5
  -1  11   3 85.4085 278.835   9
   1  11  -2 7961.80 484.367   8
   1 -11  -2 7445.27 461.293   7
   1  11  -2 7093.21 668.707   9
   1 -11  -2 6868.21 699.738   5
  -1 -11   2 7268.44 599.043   2
  -1  11   2 6905.87 685.411   9
  -1 -11   2 6889.99 662.901   5
  -1 -11   1 3016.22 449.054   5
  -1 -11   1 2554.52 338.457   2
   1  11  -1 2644.85 430.667   9
   1  11  -1 2011.65 241.105   8
   1 -11  -1 1641.27 232.342   7
   1 -11  -1 2074.55 407.088   5
  -1  11   1 2601.59 414.337   9
  -1  11   0 931.906 262.728   9
  -1 -11   0 693.075 219.252   2
   1  11   0 1352.51 382.933   9
   1 -11   0 959.805 178.577   7
   1 -11   0 1123.72 339.983   5
  -1 -11   0 1155.80 326.248   5
   1 -11   1 144.596 235.559   5
  -1 -11  -1 178.362 208.647   5
  -1 -11  -1 106.249 143.098   2
   1 -11   1 212.659 134.023   7
  -1  11  -1 232.803 196.227   9
  -1  11  -1 125.729 197.752   3
   1  11   1 148.137 254.859   9
  -1  11  -2 1687.40 364.903   3
  -1  11  -2 1432.19 293.769   9
   1 -11   2 2153.87 303.674   7
  -1 -11  -2 977.760 319.911   5
   1 -11   2 1666.76 405.532   5
  -1 -11  -2 1413.28 257.897   2
   1  11   2 1110.22 382.972   9
   1  11   3-105.527 215.974   9
  -1 -11  -3 380.405 294.582   5
   1 -11   3-25.4183 175.426   7
   1 -11   3-9.12056 207.355   5
  -1  11  -3 160.381 132.015   9
  -1 -11  -3-41.8176 122.496   2
  -1  11  -3 195.883 228.073   3
  -1  11  -4 126.866 206.946   3
   1 -11   4 286.955 189.371   7
  -1 -11  -4 126.986 271.562   5
  -1 -11  -4 101.921 156.615   2
  -1 -11  -4 276.817 189.498   6
   1  11   4 198.036 280.771   9
   1 -11   4 38.0200 262.972   5
  -1 -11  -5 23286.8 1163.61   2
   1 -11   5 27726.2 1390.27   7
  -1 -11  -5 26669.7 1537.15   5
  -1 -11  -5 29389.8 1439.18   6
   1  11   5 28359.4 1598.35   9
  -1  11  -5 28708.9 1445.36   3
   1 -11   5 29178.4 1425.11  10
   1 -11   5 29264.3 1638.72   5
   1  11   6 710.991 380.446   9
  -1  11  -6 118.056 220.053   1
  -1 -11  -6-258.651 201.774   6
   1 -11   6 680.746 290.473  10
  -1  11  -6-6.09482 156.428   3
  -1 -11  -6 330.434 357.927   5
   1 -11   6 498.651 271.774   7
  -1  11  -7 14720.6 1059.64   1
   1 -11   7 12695.0 1064.34   7
   1 -11   7 15010.8 1117.95  10
  -1 -11  -7 15753.3 1176.90   6
  -1  11  -7 14712.7 1149.58   6
   1  11   7 12869.9 1167.07   9
  -1 -11  -7 14121.9 1251.91   5
  -1 -11  -8 3558.50 624.523   6
   1 -11   8 3277.54 582.369  10
   1  11   8 1797.89 504.834   9
  -1  11  -8 3880.30 630.686   6
   1 -11   9 63.6461 235.203  10
  -1  11  -9 558.962 361.328   6
  -1 -11  -9 590.001 391.569   6
   1  11   9 465.643 421.090   9
  -1  11 -10 2314.02 606.297   6
   1 -11  10 2868.60 610.017  10
   1 -12  -9 1214.27 483.472   5
   1  12  -9 1039.89 348.831   8
   1 -12  -9 1648.35 489.761   6
  -1  12   9 1711.91 553.672   9
   1  12  -9 1359.74 413.578   1
  -1 -12   9 1372.52 450.380  10
   1  12  -8 5557.27 687.326   8
   1  12  -8 7557.36 883.198   1
  -1 -12   8 7841.92 916.823  10
   1 -12  -8 7254.39 910.880   5
  -1  12   8 6961.39 923.256   9
   1  12  -7 783.856 350.904   1
  -1 -12   7 659.241 327.337  10
   1  12  -7 582.585 248.808   8
   1 -12  -7 922.057 425.794   5
  -1  12   7 720.735 456.309   9
   1 -12  -6 1844.54 492.813   5
   1  12  -6 1331.72 292.616   8
  -1 -12   6 1985.90 488.803  10
   1  12  -6 2079.80 454.144   1
  -1  12   6 2592.54 565.176   9
  -1 -12   6 1961.41 449.201   5
   1  12  -6 1695.86 323.144   3
   1  12  -6 1710.65 370.786   9
   1  12  -5 2738.68 372.951   8
   1 -12  -5 3737.12 599.486   5
  -1 -12   5 2934.52 477.608   2
   1  12  -5 2669.88 509.066   1
  -1  12   5 3821.26 628.057   9
  -1 -12   5 3639.15 563.701   5
   1  12  -5 3337.54 481.226   9
  -1 -12   4 28760.3 1413.94   2
   1 -12  -4 30515.9 1630.11   5
  -1  12   4 27818.0 1566.36   9
  -1 -12   4 33346.2 1614.73   5
   1  12  -4 31595.7 1471.69   9
   1  12  -4 29964.3 1201.48   8
  -1  12   3 357.755 252.875   9
   1 -12  -3 733.247 319.161   5
   1  12  -3 1089.79 332.341   9
  -1 -12   3 505.304 260.907   5
   1  12  -3 709.746 162.252   8
  -1 -12   3 862.468 271.635   2
   1  12  -2 24460.4 878.555   8
  -1  12   2 23640.7 1296.12   9
  -1 -12   2 22733.2 1111.08   2
  -1 -12   2 22724.5 1269.60   5
   1 -12  -2 24722.6 1372.21   5
   1  12  -2 22582.1 1261.81   9
   1 -12  -1 16382.3 684.702   7
  -1 -12   1 16251.3 881.937   2
  -1 -12   1 19104.5 1142.55   5
  -1  12   1 16141.7 1015.24   9
   1 -12  -1 18712.5 1178.04   5
   1  12  -1 18037.6 1119.75   9
   1 -12   0 1708.09 399.987   5
  -1 -12   0 1563.59 371.643   5
   1 -12   0 1825.57 243.838   7
  -1 -12   0 2395.85 316.997   2
  -1  12   0 1676.86 354.572   9
   1  12   0 2141.48 429.086   9
  -1  12  -1 9718.55 878.647   3
   1 -12   1 9312.96 839.499   5
  -1  12  -1 8821.54 699.578   9
   1  12   1 8768.08 821.492   9
  -1 -12  -1 10450.2 841.816   5
  -1 -12  -1 9697.88 626.273   2
   1 -12   1 10188.3 591.572   7
  -1  12  -2 21288.9 1273.40   3
   1 -12   2 18697.5 922.632   7
  -1 -12  -2 17758.4 873.408   2
  -1 -12  -2 18393.0 1186.72   5
   1 -12   2 20716.4 1279.97   5
  -1  12  -2 21225.8 1046.71   9
   1  12   2 20617.8 1281.86   9
  -1  12  -3 2227.03 438.671   3
   1 -12   3 1223.89 276.999   7
  -1 -12  -3 2007.80 298.334   2
   1 -12   3 1939.43 457.797   5
  -1  12  -3 1336.74 267.895   9
  -1 -12  -3 1267.81 386.771   5
   1  12   3 2372.79 507.834   9
  -1 -12  -4 14339.7 829.075   2
   1 -12   4 13856.0 913.955   7
   1  12   4 14540.8 1149.31   9
  -1  12  -4 16590.3 1115.41   3
  -1 -12  -4 14972.9 1134.86   5
   1 -12   4 16518.3 1214.08   5
   1  12   5 825.848 381.272   9
  -1 -12  -5 1462.26 426.381   5
   1 -12   5 1542.11 338.446   7
  -1 -12  -5 751.729 308.133   6
  -1  12  -5 1460.85 373.391   3
   1 -12   5 1460.92 478.980   5
   1 -12   6 1594.87 442.887  10
  -1 -12  -6 1411.73 405.103   6
   1 -12   6 1824.21 423.308   7
  -1  12  -6 2192.21 455.687   1
  -1  12  -6 2086.23 444.383   3
  -1 -12  -6 2083.35 499.766   5
   1  12   6 1925.93 485.028   9
   1 -12   6 1922.19 515.872   5
   1 -12   7 1645.62 450.975   7
  -1 -12  -7 954.675 421.891   5
  -1  12  -7 1355.91 429.070   6
   1 -12   7 1476.79 381.062  10
  -1 -12  -7 1211.24 448.575   6
  -1  12  -7 1056.64 341.194   1
   1  12   7 966.519 432.021   9
  -1  12  -8 2275.19 502.728   6
   1 -12   8 3101.13 571.091  10
  -1 -12  -8 2617.60 579.662   6
  -1 -12  -8 2635.15 638.162   5
   1  12   8 2442.57 594.183   9
   1 -12   9 351.824 249.384  10
  -1  12  -9 1107.85 406.552   6
  -1 -12  -9 1463.03 451.679   6
   1  12   9 1754.78 488.973   9
  -1 -13   9 4483.54 771.452  10
   1  13  -9 4001.56 700.488   1
   1 -13  -8 312.279 351.939   5
   1  13  -8-4.39885 214.890   1
  -1 -13   8 349.140 305.920  10
  -1  13   8-457.186 372.270   9
  -1  13   7 1986.85 546.100   9
   1 -13  -7 1985.25 545.093   5
  -1 -13   7 2836.73 575.570  10
   1  13  -7 2001.27 499.504   1
  -1  13   6 1005.73 455.656   9
   1 -13  -6 877.244 378.436   5
  -1 -13   6 674.428 402.171  10
   1  13  -6 765.995 298.201   1
  -1 -13   6 631.972 310.577   5
   1  13  -6 151.473 159.133   9
  -1  13   5 10080.6 1001.66   9
   1  13  -5 7460.53 829.457   1
  -1 -13   5 9150.34 845.362   2
   1  13  -5 9563.92 840.612   9
  -1 -13   5 9989.33 937.275   5
   1 -13  -5 10447.9 985.253   5
  -1 -13   4 21564.4 1239.76   2
   1 -13  -4 23332.2 1466.56   5
  -1  13   4 21631.5 1405.97   9
  -1 -13   4 22173.7 1369.92   5
   1  13  -4 23966.6 1318.96   9
  -1 -13   3 529.223 269.345   5
   1 -13  -3 812.105 332.967   5
  -1 -13   3 954.783 289.373   2
  -1  13   3 1032.07 412.781   9
   1  13  -3 439.019 244.908   9
  -1  13   2 12737.7 991.096   9
  -1 -13   2 12792.7 844.755   2
   1 -13  -2 14528.8 1097.52   5
  -1 -13   2 14050.0 1021.37   5
   1  13  -2 13533.5 991.535   9
   1 -13  -1 1977.00 452.528   5
  -1 -13   1 2748.76 375.842   2
  -1 -13   1 2589.98 475.182   5
  -1  13   1 2645.97 458.893   9
   1  13  -1 2484.65 462.270   9
   1 -13   0 264.913 299.669   5
  -1 -13   0 186.030 157.684   2
   1  13   0 408.609 283.863   9
  -1  13   0 350.383 248.481   9
  -1 -13   0 339.532 268.130   5
  -1  13   0-130.902 237.150   3
  -1 -13  -1 2287.58 314.363   2
  -1  13  -1 2504.79 410.235   9
  -1 -13  -1 1980.55 433.830   5
  -1  13  -1 1818.69 429.287   3
   1 -13   1 1867.81 456.269   5
   1  13   1 2154.72 465.179   9
  -1 -13  -2 25551.6 1464.92   5
  -1  13  -2 27213.5 1514.30   3
  -1  13  -2 25824.1 1220.55   9
   1  13   2 27040.9 1539.56   9
   1 -13   2 27160.9 1545.15   5
  -1  13  -3 3474.64 549.090   3
   1 -13   3 3324.81 564.768   5
  -1 -13  -3 3325.53 548.369   5
   1  13   3 3166.75 570.850   9
  -1  13  -3 2974.43 401.352   9
  -1 -13  -4 1281.11 395.983   5
   1 -13   4 1203.03 300.937   7
  -1  13  -4 502.532 270.042   3
   1  13   4 986.417 486.727   9
   1 -13   4 1220.78 459.136   5
   1  13   5 7778.03 903.542   9
   1 -13   5 6611.95 677.974   7
  -1  13  -5 7876.07 808.730   3
   1 -13   5 7915.29 924.184   5
  -1 -13  -5 7660.76 898.921   5
   1 -13   6 1627.76 478.452   5
   1 -13   6 893.539 308.873   7
   1  13   6 2169.81 543.043   9
  -1 -13  -6 1434.61 439.479   5
  -1  13  -6 1606.61 412.443   1
  -1 -13  -6 1067.69 378.395   6
  -1  13  -6 1806.09 422.923   3
   1 -13   7 2799.09 531.714  10
  -1  13  -7 2270.93 503.358   6
  -1 -13  -7 1517.88 506.591   5
  -1  13  -7 1307.71 373.177   1
  -1 -13  -7 2218.69 484.463   6
   1  13   7 2455.67 589.241   9
   1  13   8 4564.48 797.750   9
  -1 -13  -8 3638.16 698.965   5
   1 -13   8 2812.95 534.752  10
  -1  13  -8 3936.03 677.865   6
  -1 -13  -8 3436.60 647.267   6
  -1  13  -9 163.796 283.190   6
  -1 -13  -9 665.026 353.571   6
   1 -14  -8 3528.88 675.887   5
   1  14  -8 2572.50 579.663   1
  -1  14   8 2179.67 603.277   9
  -1 -14   8 2955.65 599.928  10
   1 -14  -7 617.999 339.672   5
  -1  14   7 36.8948 271.985   9
   1  14  -7 290.645 308.304   1
   1 -14  -6 1651.40 480.461   5
   1  14  -6 1217.77 451.143   1
  -1  14   6 1647.24 522.733   9
  -1 -14   6 1183.43 409.983   5
  -1 -14   5 1142.66 387.037   5
   1  14  -5 760.120 335.516   1
  -1  14   5 756.980 386.904   9
   1  14  -5 738.679 311.017   9
   1 -14  -4 683.847 307.619   5
  -1 -14   4 278.532 209.744   2
   1  14  -4 396.661 287.421   9
  -1 -14   4-9.35405 225.110   5
  -1  14   4 714.992 359.078   9
  -1 -14   3 401.889 308.556   5
  -1 -14   3 378.136 210.121   2
   1 -14  -3 311.801 278.594   5
  -1  14   3 603.254 330.664   9
   1  14  -3 814.007 331.692   9
  -1 -14   2 4792.74 642.822   5
   1  14  -2 6204.83 725.073   9
  -1 -14   2 6689.52 619.822   2
  -1  14   2 6392.09 743.369   9
   1 -14  -2 7326.99 820.386   5
  -1 -14   1 26112.7 1475.09   5
   1 -14  -1 26611.0 1540.74   5
  -1  14   1 23825.2 1381.23   9
   1  14  -1 24896.4 1447.65   9
   1  14   0 1619.90 421.050   9
  -1 -14   0 1730.66 393.839   5
  -1  14   0 1963.35 423.247   9
  -1  14   0 1628.78 432.836   3
   1 -14   0 1864.31 466.422   5
   1 -14   1 10328.8 958.930   5
  -1  14  -1 9193.56 929.138   3
  -1 -14  -1 10052.5 920.245   5
  -1  14  -1 9769.26 794.905   9
   1  14   1 9855.70 956.868   9
   1 -14   2 271.352 247.552   5
  -1  14  -2 693.633 321.865   3
  -1  14  -2 552.577 262.088   9
   1  14   2 332.538 292.727   9
  -1 -14  -2 884.141 369.364   5
  -1  14  -3 1208.61 422.140   3
   1  14   3 1021.31 373.315   9
   1 -14   3 556.986 330.514   5
  -1 -14  -3 760.314 332.202   5
  -1 -14  -4 270.967 243.510   5
   1 -14   4 1197.05 425.450   5
   1  14   4 1133.11 444.071   9
  -1  14  -4 1249.53 403.672   3
  -1  14  -5 645.208 313.829   3
  -1 -14  -5 412.184 341.396   5
   1  14   5 512.046 358.955   9
   1 -14   5 351.033 310.778   5
  -1  14  -6 3111.44 551.315   1
   1  14   6 3960.68 690.861   9
  -1 -14  -6 4659.20 740.225   5
   1 -14   6 5765.27 833.707   5
  -1  14  -6 4292.89 630.608   3
  -1  14  -7 606.217 373.690   1
  -1 -14  -7 413.819 335.011   5
  -1 -14  -7 857.330 387.851   6
  -1  14  -7 192.346 252.480   6
   1  14   7 24.9532 261.070   9
  -1  14  -8 684.729 358.079   6
  -1 -14  -8-86.9555 243.060   6
   1 -15  -7 5081.79 812.736   5
  -1  15   7 5455.67 866.086   9
  -1 -15   7 4012.21 703.008   5
   1  15  -7 3691.19 646.243   1
   1 -15  -6 769.610 351.137   5
   1  15  -6 481.653 270.593   1
  -1 -15   6 184.128 268.329   5
   1 -15  -5 1265.77 464.559   5
   1  15  -5 690.731 276.053   3
   1  15  -5 526.611 281.123   1
  -1  15   5 1549.46 491.828   9
  -1 -15   5 1103.65 367.611   5
   1  15  -5 1015.13 366.754   9
  -1 -15   4 4837.86 715.782   5
   1 -15  -4 4741.12 752.930   5
  -1  15   4 4854.63 750.626   9
   1  15  -4 5363.79 696.597   9
   1 -15  -3 2863.05 550.875   5
  -1 -15   3 2775.21 534.037   5
  -1  15   3 2435.35 526.149   9
   1  15  -3 2054.62 486.030   9
   1 -15  -2 1302.79 417.615   5
  -1 -15   2 1761.03 428.837   5
  -1  15   2 562.687 292.704   9
   1  15  -2 1367.30 398.219   9
  -1 -15   1 105.357 203.450   5
   1 -15  -1 939.999 398.894   5
  -1  15   1 190.284 267.697   9
   1  15  -1 263.910 302.581   9
  -1  15   0 340.543 217.881   3
   1 -15   0 988.916 367.458   5
  -1 -15   0 487.662 286.653   5
   1  15   0 677.555 400.449   9
  -1  15   0 819.572 294.966   9
  -1 -15  -1 2152.91 488.113   5
   1  15   1 1605.91 446.772   9
  -1  15  -1 2487.01 458.544   9
  -1  15  -1 1527.47 428.876   3
   1 -15   1 1732.35 451.477   5
  -1  15  -2 6739.01 669.482   9
   1  15   2 5109.26 742.667   9
   1 -15   2 5566.10 763.131   5
  -1  15  -2 6226.66 797.781   3
  -1 -15  -2 4957.15 706.245   5
  -1  15  -3 2194.34 504.426   3
  -1 -15  -3 2000.25 492.223   5
   1 -15   3 1843.30 487.227   5
   1  15   3 2879.00 637.032   9
  -1 -15  -4 1472.84 458.922   5
  -1  15  -4 1643.08 443.820   3
   1 -15   4 1463.14 460.083   5
   1  15   4 1548.61 506.833   9
  -1  15  -5 508.781 296.796   3
  -1 -15  -5-198.308 260.460   5
   1  15   5 887.409 466.724   9
   1 -15   5 729.767 382.931   5
  -1 -15  -6 680.283 445.154   5
  -1  15  -6 651.574 331.265   1
   1  15   6 112.102 344.621   9
   1 -15   6 234.360 350.153   5
  -1  15  -7 2830.25 557.748   6
  -1 -16   7 1006.06 470.145   5
   1  16  -6 1574.62 459.496   1
   1 -16  -6 2135.34 597.031   5
  -1  16   6 921.681 456.344   9
  -1 -16   6 1840.94 513.190   5
  -1 -16   5 1175.64 392.017   5
   1 -16  -5 119.186 327.362   5
   1  16  -5 2084.51 491.044   1
   1  16  -5 703.168 305.280   3
  -1  16   5 1255.73 529.899   9
   1 -16  -4 991.204 419.239   5
  -1 -16   4 1546.96 474.565   5
   1  16  -4 1225.13 396.134   9
  -1  16   4 1743.59 505.879   9
   1 -16  -3 3339.48 615.436   5
   1  16  -3 2071.74 466.873   9
  -1 -16   3 2247.45 516.664   5
  -1  16   3 2787.10 599.686   9
   1 -16  -2 463.974 284.496   5
  -1 -16   2-145.183 265.204   5
   1  16  -2 29.4754 205.308   9
  -1  16   2 524.280 373.562   9
   1 -16  -1 1590.60 476.791   5
   1  16  -1 1845.94 482.911   9
  -1  16   1 1783.01 515.507   3
  -1  16   1 2000.82 464.328   9
  -1 -16   1 1393.33 383.951   5
  -1 -16   0 164.828 289.617   5
  -1  16   0-306.127 270.808   3
  -1  16   0 474.603 291.679   9
   1  16   0 413.495 328.925   9
   1 -16   0 229.014 316.914   5
   1 -16   1 1521.58 440.118   5
  -1 -16  -1 1162.28 407.862   5
  -1  16  -1 1249.21 452.980   3
   1  16   1 1489.95 447.988   9
  -1  16  -1 1406.15 417.292   9
   1 -16   2 700.078 368.496   5
  -1  16  -2 507.727 301.363   3
  -1 -16  -2 322.942 369.490   5
   1  16   2 1215.91 455.836   9
   1 -16   3 767.430 405.790   5
  -1  16  -3 133.035 193.057   3
   1  16   3 1428.31 449.291   9
  -1 -16  -3 745.797 350.450   5
  -1  16  -4 506.462 292.901   3
  -1 -16  -4 875.871 427.407   5
   1 -16   4 912.806 423.381   5
   1  16   4 654.226 487.220   9
  -1 -16  -5-506.748 368.823   5
  -1  16  -5 14.8889 312.018   3
   1  16   5 598.474 428.660   9
   1 -16   5 505.488 388.534   5
  -1  16  -6 3374.23 605.415   1
  -1 -17   6 3198.42 651.792   5
   1 -17  -5 2548.80 626.107   5
   1  17  -5 2532.75 561.054   1
  -1  17   5 2294.78 583.662   9
  -1 -17   5 2829.01 605.794   5
  -1 -17   4 1072.24 413.650   5
   1 -17  -4 2008.94 541.009   5
   1  17  -4 1722.36 488.728   9
  -1  17   4 1960.66 530.893   9
   1 -17  -3 1636.86 490.890   5
  -1  17   3 1112.11 389.130   9
   1  17  -3 474.831 306.002   9
  -1 -17   3 881.795 392.613   5
  -1 -17   2 3786.57 646.702   5
   1 -17  -2 4108.09 726.654   5
   1  17  -2 2301.35 564.647   9
  -1  17   2 2669.91 588.754   9
  -1 -17   1 301.913 277.827   5
   1 -17  -1 71.4538 274.272   5
  -1  17   1 196.982 408.285   3
  -1  17   1 545.108 308.888   9
   1  17  -1 282.444 286.591   9
   1 -17   0 11571.4 1141.44   5
  -1  17   0 11535.6 1168.44   3
  -1  17   0 8416.52 871.960   9
   1  17   0 10717.6 1087.16   9
  -1 -17   0 12741.9 1161.25   5
  -1 -17  -1 5849.56 805.803   5
  -1  17  -1 4132.71 727.019   3
   1 -17   1 5747.40 834.996   5
   1  17   1 5248.97 796.038   9
   1  17   2 5950.85 846.091   9
  -1  17  -2 7947.93 990.457   3
   1 -17   2 7258.16 933.794   5
  -1 -17  -2 7415.48 929.891   5
  -1  17  -3 1591.08 467.058   3
   1  17   3 2204.49 578.552   9
  -1 -17  -3 2087.95 543.406   5
   1 -17   3 2331.25 582.571   5
   1 -17   4 489.216 374.477   5
  -1 -17  -4 6.39512 264.648   5
  -1  17  -4 219.018 282.920   3
  -1  17  -5 3362.95 640.042   3
  -1  17  -6 689.370 348.139   1
  -1 -18   4 623.783 410.800   5
  -1  18   4 197.779 341.841   9
  -1 -18   3-190.457 353.808   5
   1 -18  -3 254.563 355.083   5
  -1  18   3 125.332 301.431   9
   1  18  -3 451.525 296.430   9
   1 -18  -2 524.633 418.385   5
  -1 -18   2 233.364 316.418   5
  -1  18   2 458.523 349.446   9
   1  18  -2 170.792 294.593   9
  -1  18   2 1289.49 490.655   3
  -1  18   1 6812.13 863.927   9
   1  18  -1 6526.71 855.898   9
  -1  18   1 7466.29 986.756   3
   1 -18  -1 9376.52 1069.40   5
  -1 -18   1 7270.44 924.231   5
  -1 -18   0 674.254 360.040   5
  -1  18   0 664.391 443.181   3
   1 -18   0 170.795 316.069   5
   1  18   0 944.551 425.372   9
  -1  18   0 1003.09 425.830   9
   1 -18   1 6280.86 900.399   5
  -1  18  -1 5419.10 856.977   3
  -1 -18  -1 4678.25 760.856   5
   1  18   1 4700.45 767.357   9
  -1 -18  -2 905.515 455.070   5
  -1  18  -2 699.199 350.917   3
   1  18   2 1035.34 429.536   9
   1 -18   2 832.060 377.194   5
  -1  18  -3 500.842 283.716   3
  -1 -18  -3 583.674 359.965   5
  -1  18  -4 847.154 390.100   3
  -1  18  -5 5685.92 822.169   3
   1  19  -4 3173.34 622.628   3
   1  19  -3 1446.06 467.644   9
  -1  19   2 7661.76 954.265   9
   1  19  -2 5569.71 807.163   9
  -1 -19   1 4250.77 740.023   5
  -1  19   1 2585.90 576.267   9
   1  19  -1 2354.25 571.877   9
  -1 -19   0 735.938 352.674   5
   1  19   0 840.580 441.451   9
  -2   0  12 6413.31 934.063  10
   2   0 -12 6577.44 885.953   6
   2   0 -11-466.549 273.690   6
  -2   0  11-19.1823 307.087  10
   2   0 -10 9288.79 918.574   6
  -2   0  10 8387.50 931.873  10
   2   0  -9 125.725 212.287   6
  -2   0   9 208.022 308.741  10
  -2   0   8 5932.59 715.310  10
   2   0  -8 7377.91 716.090   6
  -2   0   7 41.2863 168.267   2
   2   0  -7-63.8687 217.750   6
  -2   0   7 557.086 305.500  10
  -2   0   6 1022.68 278.458   2
  -2   0   6 1254.27 315.314  10
  -2   0   6 1858.44 357.633   4
  -2   0   6 1281.99 117.453   3
   2   0  -6 2192.48 366.326   6
   2   0  -5 268.289 238.196   8
  -2   0   5 15.5065 215.587   4
   2   0  -5 20.2014 166.573   6
  -2   0   5-20.4953 186.485  10
  -2   0   5 92.6992 173.415   2
  -2   0   5 137.502 82.7577   3
  -2   0   4 1513.79 277.009   2
   2   0  -4 1526.18 281.800   8
  -2   0   4 1937.40 207.305   3
   2   0  -4 1458.87 244.674   6
  -2   0   4 1919.32 343.454   4
  -2   0   4 1468.12 246.965  10
   2   0  -4 1714.98 196.786   3
   2   0  -3 121.048 156.311   8
  -2   0   3 34.3977 128.431   2
  -2   0   3 52.9493 100.111   3
  -2   0   3-15.6043 124.309  10
   2   0  -3 157.890 126.627   3
   2   0  -2 74498.4 1846.68   8
   2   0  -2 81492.2 1642.97  10
  -2   0   2 76478.9 1797.68   2
  -2   0   2 80203.9 1672.59   6
  -2   0   2 75012.0 1751.95   3
  -2   0   2 74534.8 1599.87  10
   2   0  -1 104.632 143.733   8
  -2   0   1 73.8111 81.9955  10
  -2   0   1 73.8647 108.133   1
   2   0  -1-6.69645 69.1472  10
  -2   0   1 50.1304 148.716   3
  -2   0   1 135.355 123.917   2
  -2   0   0 197722. 3380.16   1
  -2   0   0 197245. 3826.07   2
   2   0   0 187176. 3334.23  10
   2   0   0 190853. 3826.74   8
  -2   0   0 190086. 3902.07   3
  -2   0   0 187978. 3371.46   5
  -2   0  -1-100.874 146.238   3
  -2   0  -1 32.1389 100.970   5
   2   0   1 85.3933 136.386   7
   2   0   2 88.9528 140.590   7
   2   0   2 73.4634 96.6347   9
  -2   0  -2 324.605 264.720   3
   2   0   3 151.964 206.173   7
  -2   0  -3-205.822 158.142   3
   2   0   3 168.104 93.3264   9
  -2   0  -3 71.5750 221.841   6
   2   0   4 197.370 191.627   7
  -2   0  -4 219.246 204.380   3
  -2   0  -4 165.127 232.061   6
   2   0   4 609.985 243.141  10
   2   0   4 230.493 119.185   9
   2   0   5 120.166 217.924  10
   2   0   5-64.5437 201.307   7
  -2   0  -5 106.409 264.809   6
   2   0   5 69.9960 105.253   9
   2   0   6 8385.90 776.518   7
  -2   0  -6 6183.10 701.502   6
   2   0   6 6056.30 449.792   9
   2   0   6 7206.62 658.579  10
  -2   0  -7 219.085 309.394   6
   2   0   7 253.297 253.665  10
   2   0   7 400.123 297.485   7
   2   0   8 11030.1 1019.23   7
   2   0   8 8858.82 856.806  10
  -2   0  -8 10206.4 993.112   6
   2   0   9 721.921 293.799  10
  -2   0  -9 422.626 326.939   6
   2   0   9 400.105 358.491   7
   2   0  10 3467.29 628.687  10
   2   0  10 2276.59 570.588   7
  -2   0 -10 1771.70 527.953   6
   2   0  11-61.2749 259.993  10
   2  -1 -12 285.989 286.879   6
  -2  -1  12 259.426 410.684  10
  -2   1  12 471.377 398.993  10
   2   1 -12 326.028 333.362   6
  -2  -1  11 9673.47 1068.56  10
  -2   1  11 10129.1 1093.96  10
   2  -1 -11 11937.5 1105.99   6
   2   1 -11 12238.5 1114.68   6
   2   1 -10 675.997 346.218   6
  -2  -1  10 1322.79 466.335  10
  -2   1  10 1129.54 406.918  10
   2  -1 -10 1056.69 417.520   6
  -2   1   9 420.823 312.931  10
  -2  -1   9 170.945 307.008  10
   2   1  -9 815.282 338.856   6
   2  -1  -9 886.288 358.136   6
   2   1  -8 1484.73 401.403   6
   2  -1  -8 2839.45 488.803   6
  -2  -1   8 3220.39 553.371  10
  -2   1   8 2567.96 473.813  10
  -2   1   7 7321.47 686.995   4
  -2  -1   7 8032.29 732.990   2
  -2   1   7 5680.23 258.594   3
   2  -1  -7 7855.87 700.604   6
   2   1  -7 8540.87 693.302   6
  -2  -1   7 7490.65 733.219  10
  -2   1   7 7895.29 736.844  10
  -2   1   7 7723.34 695.622   2
  -2  -1   6 29392.6 1343.08   2
  -2  -1   6 28796.2 1324.63  10
  -2   1   6 27717.4 1284.20   4
  -2   1   6 30308.4 1353.10  10
   2  -1  -6 30935.3 1302.00   6
   2   1  -6 30087.9 1227.55   6
  -2   1   6 29894.1 826.309   3
  -2   1   6 28395.3 1282.23   2
   2   1  -5 7591.13 624.230   8
   2  -1  -5 8034.80 628.789   8
   2   1  -5 6485.10 317.971   3
  -2   1   5 8501.47 654.666   4
   2  -1  -5 7968.43 596.467   6
   2   1  -5 7870.73 554.413   6
  -2   1   5 8597.98 425.831   3
  -2  -1   5 8110.82 625.402   2
  -2   1   5 7526.50 580.367   2
  -2  -1   5 7999.58 631.909  10
  -2   1   5 8862.07 647.295  10
  -2  -1   5 8534.68 669.021   4
   2  -1  -4-5.37489 93.8945   3
   2   1  -4-16.8567 173.358   8
  -2  -1   4 184.613 191.149   4
  -2   1   4 199.218 207.305   4
  -2   1   4 288.973 121.851   3
   2  -1  -4-14.3953 150.040   6
   2   1  -4-116.819 136.541   6
  -2  -1   4 123.415 152.169   2
   2  -1  -4 115.002 136.778   8
  -2  -1   4-21.4263 79.3956   3
  -2   1   4 93.5237 157.441   2
  -2  -1   4-104.175 149.133  10
   2   1  -4-36.9693 68.0109   3
  -2   1   4 114.413 141.723  10
  -2   1   3 51630.2 1436.00  10
  -2   1   3 55945.9 1530.20   2
  -2  -1   3 56873.5 1407.79   3
   2   1  -3 54050.4 1627.14   8
  -2  -1   3 56895.2 1412.04   6
  -2   1   3 54908.9 1443.88   3
   2   1  -3 59139.2 1415.49   3
  -2  -1   3 52238.8 1599.69   4
   2  -1  -3 55853.9 1445.01   3
  -2  -1   3 54343.9 1601.44   2
  -2  -1   3 53026.2 1502.74  10
   2  -1  -3 53284.8 1581.01   8
   2  -1  -2 49296.2 1419.35   8
   2   1  -2 47739.3 1446.34   8
  -2  -1   2 46192.5 1255.98  10
   2   1  -2 52984.2 1313.23  10
   2  -1  -2 52103.1 1220.23  10
  -2   1   2 49518.4 1348.16   2
  -2  -1   2 46786.2 1405.11   2
  -2  -1   2 49172.4 1188.67   6
  -2   1   2 45502.0 1165.24  10
  -2  -1   2 48929.7 1343.67   3
  -2   1   2 47661.2 1370.53   3
   2  -1  -2 46400.3 1021.72   5
   2  -1  -1 977.373 107.501   5
   2  -1  -1 671.047 187.147   8
   2   1  -1 1279.92 158.445  10
  -2   1   1 881.331 104.312   5
  -2  -1   1 719.943 140.916  10
  -2  -1   1 1260.69 242.141   3
  -2  -1   1 1124.53 178.998   1
  -2   1   1 1031.63 112.039  10
   2   1  -1 916.039 214.934   8
   2  -1  -1 997.953 114.662  10
  -2   1   1 981.722 215.936   3
  -2  -1   1 1430.56 226.481   2
  -2   1   1 1159.88 201.150   2
  -2  -1   0 3108.04 334.795   3
  -2   1   0 2696.96 290.825   2
  -2  -1   0 3010.42 323.192   2
   2  -1   0 3119.37 320.818   7
   2   1   0 3065.78 335.227   8
   2  -1   0 2604.41 308.676   8
  -2   1   0 2568.26 308.277   3
   2   1   0 2937.62 223.889  10
  -2   1   0 2746.43 211.640   5
   2   1   1 22334.9 865.186   7
   2  -1   1 22362.2 902.740   7
  -2  -1  -1 22633.1 975.865   3
  -2   1  -1 23207.9 975.432   3
   2   1   1 21307.1 540.260   1
  -2   1  -1 23476.9 788.953   5
   2  -1   2 680.721 120.912   9
  -2  -1  -2 1034.07 269.088   3
  -2   1  -2 786.561 243.977   3
   2  -1   2 817.158 222.776   7
   2   1   2 886.555 227.719   7
   2  -1   2 1023.87 155.181  10
   2   1   2 771.897 168.061   9
   2   1   3 38297.2 1368.22   7
   2  -1   3 38164.3 1137.62  10
   2  -1   3 35903.6 1386.91   7
  -2   1  -3 38281.9 1399.32   3
  -2  -1  -3 35511.6 1313.98   6
   2   1   3 39340.3 1136.15   9
   2  -1   3 38051.5 933.642   9
  -2   1  -4-27.1500 159.651   3
  -2   1  -4 31.3194 181.001   6
   2   1   4 428.496 249.041   7
   2  -1   4 180.170 204.964   7
  -2  -1  -4 400.950 253.389   6
   2  -1   4 231.262 171.904  10
   2   1   4 57.1113 124.524   9
   2  -1   4 59.4944 71.8481   9
   2   1   4 111.782 65.1618   1
   2   1   5 600.099 130.121   1
   2  -1   5 745.713 133.363   9
   2   1   5 480.686 279.560   7
   2  -1   5 701.119 258.005   7
   2   1   5 1326.03 341.940  10
  -2  -1  -5 984.445 309.724   6
  -2   1  -5 864.136 253.976   3
  -2   1  -5 1169.76 349.311   6
   2  -1   5 886.436 268.950  10
   2   1   5 828.042 196.641   9
   2  -1   6 30514.8 1516.71   7
   2   1   6 30115.7 1490.71   7
  -2  -1  -6 32502.0 1550.49   6
  -2   1  -6 30385.6 1508.04   6
   2  -1   6 30005.8 1335.42  10
   2   1   6 30918.5 1407.11  10
   2   1   6 28856.2 1114.12   9
   2   1   7 2862.02 507.098   7
   2  -1   7 3551.26 593.896   7
   2   1   7 2809.55 356.957   9
  -2  -1  -7 3490.63 558.948   6
   2   1   7 3094.60 511.991  10
   2  -1   7 3817.33 523.122  10
  -2   1  -7 3939.06 603.128   6
   2   1   8-130.983 239.106   7
   2  -1   8 10.7882 221.355   7
   2  -1   8 437.797 287.516  10
  -2  -1  -8 440.648 335.171   6
   2   1   8-32.2555 229.350  10
  -2   1  -8 877.073 372.819   6
   2   1   9 6152.68 836.279   7
   2  -1   9 6964.07 883.644   7
   2  -1   9 6324.53 778.379  10
  -2  -1  -9 7158.14 897.412   6
   2   1   9 5458.38 746.829  10
  -2   1  -9 5647.75 817.638   6
   2  -1  10 456.136 306.996   7
  -2  -1 -10 715.244 464.285   6
  -2   1 -10 861.034 455.961   6
   2  -1  10 443.689 320.429  10
   2   1  10 289.371 311.660  10
   2   1  11 7686.39 971.046  10
   2  -1  11 7375.02 920.680  10
   2  -2 -12 621.535 361.575   6
  -2   2  12 335.709 361.159  10
   2   2 -12 434.354 445.835   6
  -2  -2  12 440.339 331.171  10
  -2   2  11 1250.56 469.277  10
  -2  -2  11 1027.13 409.570  10
   2  -2 -11 1775.67 546.058   6
   2   2 -11 1016.64 400.511   6
   2  -2 -10 8940.04 926.655   6
   2   2 -10 10303.9 959.237   6
  -2   2  10 10525.5 1046.41  10
  -2  -2  10 11872.1 1105.38  10
  -2  -2   9 13649.9 1140.61  10
   2  -2  -9 12117.0 999.795   6
   2   2  -9 12225.0 956.977   6
  -2   2   9 11411.4 1028.52  10
  -2  -2   8-84.6211 219.959   2
  -2   2   8 345.142 314.695  10
   2  -2  -8 106.652 262.328   6
   2   2  -8 386.029 270.299   6
  -2  -2   8 94.5528 237.423  10
  -2  -2   7 2843.12 461.124   2
  -2   2   7 2818.06 446.103   4
  -2   2   7 2691.72 234.882   3
   2  -2  -7 2764.36 441.372   6
  -2  -2   7 2580.02 463.150  10
  -2   2   7 2652.59 460.117  10
   2   2  -7 2109.64 364.211   6
   2   2  -6 574.915 263.579   8
  -2   2   6 260.472 173.634   2
  -2   2   6 719.855 282.166   4
  -2   2   6 697.838 272.030  10
   2   2  -6 1073.65 264.127   6
   2  -2  -6 844.204 272.488   6
  -2   2   6 836.324 152.970   3
  -2  -2   6 276.868 220.480  10
  -2  -2   6 470.063 256.979   2
   2  -2  -5 29524.2 1242.87   8
   2   2  -5 31055.2 1308.54   8
   2  -2  -5 31816.4 1241.47   6
  -2  -2   5 29244.9 1241.13  10
   2   2  -5 32523.7 1114.85   6
  -2  -2   5 30688.3 1293.74   2
  -2   2   5 31505.9 970.840   3
  -2   2   5 29000.4 1158.89   2
  -2   2   5 30866.0 1246.78  10
  -2   2   5 29763.8 1233.60   4
  -2   2   4 74.2447 93.6573   3
  -2  -2   4 145.302 191.313   4
   2  -2  -4 290.003 196.827   6
  -2  -2   4 88.3505 185.512   2
   2   2  -4 123.083 120.534   6
  -2  -2   4 115.492 188.880  10
  -2   2   4 260.381 186.554  10
   2   2  -4 83.2938 135.491   8
   2  -2  -4 147.600 166.350   8
  -2   2   4 384.050 151.932   2
   2   2  -4 224.188 107.100   5
   2   2  -4 73.9023 84.2796   3
  -2  -2   3 21643.9 888.149  10
  -2  -2   3 20748.5 935.848   4
  -2  -2   3 21729.7 942.018   2
   2   2  -3 23672.1 795.342   3
  -2   2   3 21448.6 828.645   2
   2  -2  -3 22018.4 905.964   8
  -2  -2   3 22778.6 731.781   6
  -2   2   3 21137.4 836.004   3
  -2   2   3 20472.0 801.933  10
   2   2  -3 20634.6 925.520   8
   2   2  -3 19943.9 614.428   5
  -2  -2   2 32293.3 1095.95   4
   2  -2  -2 32442.4 1058.52   8
   2  -2  -2 33804.6 998.229   2
   2   2  -2 32134.0 1128.86   8
  -2   2   2 32769.6 981.106   2
  -2  -2   2 32325.4 1123.81   2
  -2   2   2 31057.5 854.541  10
  -2  -2   2 33697.2 817.658   6
  -2   2   2 31922.0 1080.35   3
  -2  -2   2 31945.8 1011.58  10
   2  -2  -2 31721.2 830.936   5
   2   2  -2 31745.3 1045.53   1
   2  -2  -1 1473.65 221.164   8
   2  -2  -1 1689.52 171.492   5
   2   2  -1 1909.67 215.317  10
  -2   2   1 1439.62 115.651  10
   2   2  -1 1979.96 234.543   1
   2   2  -1 1543.97 249.176   8
  -2   2   1 1504.33 152.477   5
  -2   2   1 1596.73 207.888   2
  -2   2   1 1795.19 281.114   3
  -2  -2   1 1758.96 264.112   2
   2   2   0 832.040 204.537   8
  -2   2   0 1000.93 151.122   5
  -2   2   0 964.486 237.476   3
   2   2   0 1081.35 154.488   1
   2   2   0 952.235 160.478  10
   2  -2   0 884.995 199.938   7
   2   2   0 609.330 172.291   7
  -2  -2   0 784.331 197.959   2
   2  -2   0 909.780 195.613   8
   2  -2   0 729.722 141.062   5
   2   2   1 230.999 140.114   7
   2  -2   1 146.211 147.888   7
  -2   2  -1 212.365 161.873   3
   2   2   2 24009.0 887.056   9
   2  -2   2 24219.4 1020.86   7
   2   2   2 23572.7 948.113   7
  -2   2  -2 22909.4 1031.61   3
  -2  -2  -2 23332.8 919.430   6
   2  -2   2 23834.4 681.965  10
   2   2   3 22989.6 857.688   9
   2   2   3 21057.5 946.143   7
   2  -2   3 22248.3 1030.19   7
   2  -2   3 22152.6 756.869  10
  -2   2  -3 21290.0 994.156   3
  -2  -2  -3 20106.8 919.899   6
   2   2   4 434.919 221.610   7
   2  -2   4 685.773 307.542   7
  -2   2  -4 412.914 211.398   3
  -2  -2  -4 362.904 241.924   6
   2  -2   4 946.344 194.841  10
   2   2   4 362.440 162.217   9
  -2   2  -5 479.080 247.850   3
   2   2   5 494.865 188.550   9
   2   2   5 332.253 246.882   7
   2  -2   5 318.128 251.071   7
  -2   2  -5 728.172 275.225   6
  -2  -2  -5 103.847 202.880   6
   2  -2   5 212.743 174.977  10
   2   2   6 1295.28 361.094   7
   2  -2   6 2177.23 454.568   7
  -2  -2  -6 2145.27 434.129   6
   2  -2   6 2164.20 370.721  10
  -2   2  -6 1449.19 402.906   6
   2   2   6 1441.54 364.249  10
   2   2   6 1416.65 287.191   9
  -2   2  -6 1712.76 357.818   3
   2   2   7 1153.58 261.663   9
   2  -2   7 1335.98 376.808   7
   2   2   7 1099.03 381.171   7
  -2  -2  -7 2455.23 508.157   6
  -2   2  -7 2437.67 545.657   6
   2  -2   7 1397.74 340.944  10
   2   2   7 1724.00 413.415  10
  -2  -2  -8 1273.00 415.562   6
   2   2   8 661.602 343.335   7
   2  -2   8 673.737 358.212   7
  -2   2  -8 1455.01 475.006   6
   2  -2   8 1381.70 393.974  10
   2   2   8 438.509 290.932  10
   2  -2   9 3395.51 656.830   7
  -2  -2  -9 2732.57 596.988   6
   2   2   9 2940.16 597.737   7
  -2   2  -9 3029.06 627.437   6
   2   2   9 4348.26 665.750  10
   2  -2   9 3112.59 547.624  10
   2  -2  10 1930.64 523.619   7
   2   2  10 3605.67 650.527  10
   2  -2  10 4400.17 685.967  10
  -2  -2 -10 4164.32 755.813   6
  -2   2 -10 3709.41 726.660   6
   2  -2  11 510.372 361.561  10
   2   2  11 23.2518 330.607  10
   2   3 -13 3728.42 684.320   6
   2  -3 -12 1012.90 442.086   6
   2   3 -12 286.957 265.049   6
  -2  -3  12 166.423 384.665  10
  -2   3  12 233.752 335.854  10
  -2  -3  11 516.827 456.506  10
   2   3 -11 1438.44 452.562   6
   2  -3 -11 39.3895 338.704   6
  -2   3  11 278.619 316.910  10
   2   3 -10 397.543 295.402   6
  -2  -3  10 417.926 384.829  10
   2  -3 -10 792.092 407.662   6
  -2   3  10 704.354 376.178  10
  -2   3   9 3689.36 628.281  10
   2  -3  -9 4763.38 676.184   6
   2   3  -9 4737.97 600.727   6
  -2  -3   9 4071.49 644.265  10
  -2   3   8 6305.71 660.860   4
   2  -3  -8 7610.18 746.823   6
  -2  -3   8 7099.61 766.132  10
   2   3  -8 6467.30 657.203   6
  -2  -3   8 5197.85 669.006   2
  -2   3   8 6444.06 742.954  10
  -2   3   7 1706.30 380.852   4
  -2   3   7 1098.05 195.673   3
  -2  -3   7 1108.37 326.063   2
   2  -3  -7 1562.54 353.573   6
  -2  -3   7 876.884 327.083  10
  -2   3   7 1205.73 402.247  10
   2   3  -7 908.029 277.104   6
   2  -3  -6 20669.6 1086.92   6
   2   3  -6 20563.0 949.239   6
  -2   3   6 20972.7 825.427   3
  -2  -3   6 18350.2 1090.37   2
  -2  -3   6 19781.8 1108.89  10
  -2   3   6 18040.8 965.876   2
  -2   3   6 19948.1 1055.40   4
  -2   3   6 18654.2 1065.47  10
   2   3  -6 19418.1 1119.43   8
  -2   3   5 386.416 169.351   3
  -2  -3   5 399.589 238.784   2
  -2   3   5 539.978 309.308   4
   2  -3  -5 907.642 262.106   6
   2   3  -5 423.769 190.213   6
  -2   3   5 448.647 232.865  10
  -2  -3   5 617.844 283.288  10
   2   3  -5 130.598 65.6602   3
   2  -3  -5 53.0891 154.119   8
  -2   3   5 297.187 155.982   2
   2   3  -5 383.094 214.648   8
   2  -3  -4 14958.6 780.244   8
   2   3  -4 13983.9 804.730   8
  -2  -3   4 14616.6 812.070  10
   2   3  -4 13012.7 591.447   6
   2   3  -4 13994.4 570.118   3
  -2  -3   4 13824.0 813.059   2
  -2  -3   4 14288.6 617.276   6
  -2   3   4 14091.9 696.322   2
   2   3  -4 13938.3 607.882   5
  -2   3   4 14426.7 698.350   3
  -2   3   4 13526.9 735.501  10
   2  -3  -3 5054.40 414.104   8
   2   3  -3 5591.16 475.251   8
  -2  -3   3 4391.28 436.528   4
  -2  -3   3 5581.36 495.627   2
   2   3  -3 5134.61 365.529   3
  -2   3   3 4833.17 359.645   2
  -2  -3   3 4924.71 297.255   6
  -2   3   3 5414.41 432.194   3
  -2  -3   3 5274.94 450.583  10
  -2   3   3 4705.03 383.050  10
   2   3  -3 5041.00 289.986   5
   2   3  -3 5209.71 472.788   1
   2  -3  -3 5058.41 367.764   5
  -2  -3   2 8694.07 527.866  10
   2  -3  -2 8508.12 506.138   8
   2   3  -2 8004.61 544.045   8
   2  -3  -2 8346.48 434.966   2
  -2  -3   2 8258.48 533.967   4
  -2   3   2 7944.56 428.321   2
  -2  -3   2 8518.79 559.804   2
  -2  -3   2 8073.65 307.224   6
  -2   3   2 8661.59 555.818   3
  -2   3   2 8291.90 408.357  10
   2   3  -2 7547.26 310.081   5
   2   3  -2 8067.54 517.716   1
  -2  -3   2 8116.54 317.648   5
   2  -3  -2 8231.35 438.030   5
   2   3  -1 14672.8 726.962   8
  -2   3   1 15878.5 607.960   5
  -2   3   1 15588.8 610.440   2
  -2  -3   1 15105.7 672.398   4
   2  -3  -1 15804.5 669.511   8
  -2   3   1 16231.9 790.041   3
   2   3  -1 14215.1 641.691   1
  -2  -3   1 15687.9 758.983   2
  -2   3   1 14835.5 438.369  10
   2  -3  -1 14570.1 588.282   5
  -2  -3   1 14624.5 450.609   5
   2  -3   0 1030.95 190.069   8
  -2   3   0 1136.18 202.816   3
   2  -3   0 932.924 178.368   5
  -2  -3   0 1373.68 209.041   4
   2   3   0 1380.67 217.486   7
   2  -3   0 1257.30 240.517   7
  -2  -3   0 1015.48 217.934   2
  -2  -3   0 1358.52 162.869   6
  -2   3   0 1265.74 183.505   5
   2   3   0 1255.39 234.679   8
  -2  -3  -1 1346.12 271.408   2
  -2   3  -1 1430.97 263.363   3
   2  -3   1 1998.52 257.096   5
   2   3   1 1510.22 228.127   7
   2  -3   1 2090.03 294.974   7
  -2  -3  -1 1650.67 217.945   6
   2  -3   2 3189.30 374.057   7
  -2   3  -2 3103.96 395.601   3
   2  -3   2 3054.72 209.526  10
  -2  -3  -2 2138.39 273.634   6
   2   3   2 2894.22 329.818   7
   2   3   2 2857.85 324.186   9
   2   3   3 4683.27 454.845   7
   2  -3   3 4851.28 495.960   7
   2  -3   3 5083.39 352.360  10
  -2   3  -3 4989.88 494.461   3
  -2  -3  -3 5030.31 461.228   6
  -2   3  -3 4493.29 243.571   1
   2   3   3 4836.46 436.578   9
   2   3   4 15050.0 883.446   7
  -2   3  -4 16063.7 928.381   3
  -2  -3  -4 17063.5 942.157   6
   2  -3   4 16630.8 767.351  10
   2   3   4 17585.2 854.477   9
   2  -3   4 16385.4 983.388   7
  -2  -3  -5 3758.37 516.750   6
   2   3   5 4118.59 519.960   7
  -2   3  -5 3972.92 488.080   3
   2  -3   5 4653.81 573.144   7
   2  -3   5 4931.92 470.178  10
  -2   3  -5 4374.39 542.682   6
   2   3   5 4084.32 455.860   9
   2   3   6 11719.1 894.569   7
   2  -3   6 11889.9 943.441   7
  -2   3  -6 11570.3 820.809   3
  -2  -3  -6 11106.1 913.354   6
  -2   3  -6 12682.9 966.401   6
   2  -3   6 11763.9 800.819  10
   2   3   6 11212.3 749.287   9
   2   3   7 930.312 323.314   7
  -2  -3  -7 1375.23 417.902   6
  -2   3  -7 1253.75 320.135   3
   2  -3   7 1301.57 397.769   7
   2  -3   7 1304.95 328.898  10
  -2   3  -7 1488.02 416.754   6
   2   3   7 927.458 290.102   9
   2   3   7 803.676 325.732  10
   2   3   8 687.269 264.172   9
   2  -3   8 2890.73 508.487  10
   2   3   8 763.779 364.358   7
   2  -3   8 2739.28 600.159   7
  -2  -3  -8 1687.96 479.836   6
  -2   3  -8 2110.35 512.346   6
   2   3   8 530.873 291.379  10
   2  -3   9 6249.03 868.082   7
   2   3   9 6257.78 835.085   7
  -2   3  -9 7899.69 965.392   6
   2  -3   9 7582.05 814.233  10
   2   3   9 6522.31 825.255  10
  -2  -3  -9 6746.58 862.843   6
  -2   3 -10 740.745 385.507   6
   2  -3  10 1007.77 426.695  10
   2  -3  10 1788.72 513.357   7
   2   3  10 189.504 290.782  10
  -2  -3 -10 949.894 442.219   6
   2   3  11 3607.57 708.833  10
   2  -3  11 2187.92 562.356  10
   2   4 -13-340.228 314.159   6
  -2  -4  12 295.800 402.064  10
   2   4 -12 107.732 285.526   6
   2  -4 -12 487.654 344.987   6
  -2   4  12 46.2604 299.017  10
   2   4 -11 530.588 337.338   6
  -2   4  11 495.234 395.804  10
   2  -4 -11-88.5716 324.918   6
  -2  -4  11 91.5293 352.780  10
   2  -4 -10 7599.46 872.062   6
   2   4 -10 7704.48 809.840   6
  -2  -4  10 8026.58 945.182  10
  -2   4  10 7736.81 897.992  10
   2  -4  -9 3864.44 616.250   6
   2   4  -9 4465.23 572.734   6
  -2  -4   9 3116.17 580.140  10
  -2   4   9 4095.90 640.005  10
   2   4  -8 58.8342 196.598   6
  -2  -4   8-165.047 205.772   2
  -2  -4   8 122.087 258.365  10
  -2   4   8 354.980 332.152  10
  -2   4   8 283.576 239.103   4
   2  -4  -8 634.720 327.946   6
  -2   4   7 19283.2 1080.60   4
  -2   4   7 17822.4 1136.83  10
   2  -4  -7 20295.7 1178.09   6
   2   4  -7 19587.9 1006.72   6
  -2   4   7 18368.8 840.882   3
  -2  -4   7 16533.8 1126.91   2
  -2  -4   7 19015.3 1179.87  10
   2   4  -7 17429.8 1129.63   8
   2   4  -6 6276.05 623.613   8
  -2   4   6 7206.87 627.366   4
  -2   4   6 6297.61 639.485  10
   2  -4  -6 5918.46 595.814   6
  -2  -4   6 6112.09 632.601   2
   2   4  -6 5826.36 489.133   6
  -2   4   6 5919.94 459.259   3
  -2  -4   6 6243.71 650.264  10
   2   4  -5 2132.68 402.523   8
   2   4  -5 1267.64 237.230   6
  -2   4   5 1142.09 245.919   2
   2   4  -5 1033.25 166.202   3
   2  -4  -5 1044.57 259.471   8
   2  -4  -5 1444.68 302.589   6
  -2   4   5 1373.81 255.506   3
  -2   4   5 1741.53 362.350  10
  -2  -4   5 1845.46 356.458   2
  -2  -4   5 1732.89 376.380  10
   2  -4  -4 8767.88 582.302   8
   2   4  -4 9407.71 664.768   8
  -2   4   4 8267.56 580.912  10
   2   4  -4 8437.23 464.364   3
   2   4  -4 8447.22 438.261   6
  -2  -4   4 8991.37 664.421   2
  -2  -4   4 8144.78 433.827   6
  -2   4   4 8572.82 507.220   2
  -2   4   4 9238.93 592.831   3
  -2  -4   4 8697.03 646.869  10
   2   4  -4 8924.93 656.718   1
   2  -4  -4 9410.77 579.843   5
   2  -4  -3 8093.55 516.930   8
   2  -4  -3 8110.77 427.793   2
  -2  -4   3 7959.68 593.812   2
  -2   4   3 8403.40 446.757   2
  -2  -4   3 7189.50 320.904   6
  -2   4   3 8742.13 579.050   3
   2   4  -3 8610.81 598.406   8
  -2   4   3 8773.17 535.054  10
  -2  -4   3 8455.93 592.733  10
   2  -4  -3 8564.96 513.956   5
   2   4  -3 7419.14 561.109   1
  -2  -4   3 8223.54 424.087   5
   2   4  -3 8233.84 416.349   5
   2  -4  -2 5751.20 398.515   8
   2   4  -2 5283.46 454.025   8
  -2  -4   2 4987.13 428.642   4
  -2   4   2 5658.97 337.603   2
  -2  -4   2 5423.04 478.238   2
  -2   4   2 6210.34 501.539   3
   2   4  -2 5432.36 439.099   1
  -2  -4   2 5225.24 443.606  10
  -2  -4   2 5735.62 311.686   5
   2  -4  -2 5106.03 378.142   5
   2   4  -2 5227.26 300.016   5
   2  -4  -1 799.615 173.220   8
   2  -4  -1 952.099 183.817   5
   2   4  -1 997.658 224.736   8
  -2  -4   1 712.153 182.807   2
  -2   4   1 753.442 252.072   3
  -2  -4   1 1115.85 203.289   4
   2   4  -1 822.083 203.973   1
  -2   4   1 923.127 144.210   2
  -2  -4   1 999.290 142.065   5
   2   4   0 267.968 173.462   8
  -2  -4   0 100.587 82.1531   5
  -2  -4   0 246.689 126.212   4
   2   4   0 298.154 129.832   7
   2  -4   0 266.097 179.004   7
   2  -4   0 160.112 142.930   5
  -2   4   0 30.4382 38.6850  10
  -2  -4   0 208.058 177.322   2
   2  -4   0 305.846 132.434   9
  -2   4   0 211.254 191.841   3
  -2  -4   0 231.447 95.9111   6
   2   4   1 2768.99 282.273   7
  -2  -4  -1 2025.07 200.791   4
   2  -4   1 2918.01 354.079   7
  -2  -4  -1 2978.75 264.853   6
  -2   4  -1 2062.74 156.208  10
  -2  -4  -1 2548.17 353.807   2
   2  -4   1 2702.20 207.623   9
   2  -4   1 2859.48 327.658   5
   2   4   1 3341.14 366.705   9
  -2   4  -1 2700.98 357.959   3
   2   4   2 3572.90 345.510   7
   2  -4   2 5235.09 531.936   7
  -2  -4  -2 3571.19 221.901   4
   2  -4   2 5045.50 548.427   5
  -2   4  -2 5033.15 513.615   3
  -2  -4  -2 3864.03 368.902   6
   2  -4   2 4932.09 322.136  10
   2   4   2 3544.71 372.896   9
  -2   4  -2 3479.02 261.806  10
   2  -4   3 2577.15 388.918   7
  -2   4  -3 2182.63 204.189   1
   2  -4   3 2221.46 241.773  10
   2   4   3 1761.02 287.921   7
  -2  -4  -3 2206.86 338.634   6
  -2   4  -3 1979.04 348.947   3
   2   4   3 2019.09 325.656   9
   2   4   4 2393.12 358.426   7
   2  -4   4 2519.24 418.971   7
  -2  -4  -4 2587.65 411.785   6
   2  -4   4 1904.15 269.354  10
  -2   4  -4 2567.70 405.727   3
  -2   4  -4 2549.08 243.306   1
   2   4   4 2420.32 350.850   9
  -2   4  -5 4401.27 504.426   3
  -2  -4  -5 4293.90 562.196   6
   2  -4   5 4324.76 441.776  10
   2  -4   5 4834.41 582.320   7
  -2   4  -5 4173.74 547.844   6
   2   4   5 4178.29 482.728   9
   2   4   5 4061.16 497.375   7
   2   4   6 1842.36 409.106   7
   2   4   6 1823.70 343.964   9
   2  -4   6 1932.30 414.905   7
   2  -4   6 1693.90 321.096  10
  -2   4  -6 1983.76 440.726   6
  -2  -4  -6 1903.25 435.648   6
  -2   4  -6 1533.62 323.261   3
  -2  -4  -7 1520.40 357.826   6
  -2   4  -7 1820.97 376.270   3
   2  -4   7 843.757 339.268   7
   2   4   7 1514.81 381.665   7
   2  -4   7 1537.57 360.263  10
  -2   4  -7 2093.10 482.610   6
   2   4   7 1290.83 312.847   9
   2   4   8 6425.96 764.098   7
   2  -4   8 5550.59 755.551   7
  -2   4  -8 7492.55 870.830   6
   2  -4   8 5290.78 642.101  10
   2   4   8 6033.79 749.020  10
  -2  -4  -8 5841.04 772.639   6
   2   4   8 4839.10 591.246   9
   2  -4   9 1711.84 544.996   7
  -2  -4  -9 1615.04 471.845   6
   2  -4   9 1322.24 430.261  10
  -2   4  -9 1426.29 467.017   6
   2   4   9 1032.23 436.420  10
   2   4  10 2337.55 574.860  10
   2  -4  10 1923.85 517.002   7
   2  -4  10 2089.73 494.282  10
  -2  -4 -10 3471.68 705.884   6
  -2   4 -10 2843.01 636.982   6
   2   4  11 762.778 486.040  10
   2   5 -12 221.262 287.107   6
   2   5 -11 4437.00 676.409   6
  -2  -5  11 5124.56 810.956  10
   2  -5 -11 5069.10 772.134   6
  -2   5  11 4798.65 794.780  10
   2  -5 -10 2300.29 537.637   6
   2   5 -10 2869.87 517.909   6
  -2  -5  10 2019.46 536.083  10
  -2   5  10 2722.27 594.797  10
  -2   5   9 1683.65 494.493  10
   2  -5  -9 2057.34 477.034   6
  -2  -5   9 1893.53 496.181  10
   2   5  -9 1577.77 407.583   6
  -2   5   8 210.273 361.589  10
  -2  -5   8 146.610 210.478   2
  -2   5   8 474.947 313.048   4
   2  -5  -8 147.885 262.023   6
   2   5  -8 202.355 209.309   6
  -2  -5   8-25.9943 274.917  10
   2   5  -7 13578.5 1001.56   8
  -2   5   7 13301.5 897.921   4
  -2  -5   7 11953.5 952.775  10
  -2  -5   7 12962.4 1001.85   2
   2  -5  -7 12457.8 948.302   6
   2   5  -7 13989.4 829.994   6
  -2   5   7 13352.2 758.758   3
  -2   5   7 12203.3 950.537  10
  -2   5   6 2141.64 415.328  10
  -2  -5   6 1752.22 362.052  10
  -2   5   6 2058.32 324.589   3
  -2   5   6 1947.03 390.899   4
   2  -5  -6 2730.61 442.368   6
   2   5  -6 2273.05 310.352   6
  -2  -5   6 1948.98 381.221   2
   2   5  -6 2419.58 420.622   8
   2   5  -5 3893.89 489.807   8
  -2   5   5 3522.14 465.899  10
   2   5  -5 3402.83 292.032   3
   2  -5  -5 4521.24 516.551   6
   2   5  -5 3796.26 331.233   6
  -2   5   5 3209.54 385.679   3
  -2  -5   5 3442.02 483.183  10
   2  -5  -5 3654.83 417.522   8
   2   5  -5 3358.48 473.019   1
  -2  -5   5 3962.83 507.916   2
   2  -5  -4 28568.9 1085.26   8
  -2  -5   4 28121.4 1228.78  10
   2   5  -4 28890.2 1212.65   8
   2   5  -4 27158.3 810.675   6
  -2  -5   4 29662.3 1285.38   2
  -2   5   4 27410.1 1137.81   3
  -2   5   4 28557.1 943.045   2
   2   5  -4 26500.2 1202.95   1
   2  -5  -4 26782.9 1096.71   5
   2  -5  -3 28070.4 995.086   8
   2  -5  -3 28017.8 827.659   2
  -2  -5   3 27894.5 1164.94  10
  -2  -5   3 28152.7 1188.87   2
   2   5  -3 28636.3 1149.20   8
  -2   5   3 29232.6 854.140   2
  -2   5   3 26114.2 1115.54   3
   2   5  -3 27637.6 1157.01   1
  -2  -5   3 28409.0 933.125   5
   2  -5  -3 29059.7 1069.17   5
   2  -5  -2 12698.2 592.049   8
   2   5  -2 12329.1 538.926   5
  -2  -5   2 12882.4 742.127   2
  -2   5   2 13136.6 484.042   2
   2   5  -2 11905.4 689.621   8
   2   5  -2 12825.3 719.131   1
  -2   5   2 13680.5 774.289   3
  -2  -5   2 12971.4 730.806  10
  -2  -5   2 12863.9 551.687   5
   2  -5  -2 11740.4 639.065   5
  -2  -5   1-102.238 131.566   2
   2  -5  -1 141.393 119.323   8
   2  -5  -1 96.1636 150.921   5
   2   5  -1-26.7979 150.424   8
  -2  -5   1 76.8639 101.092   5
  -2   5   1 114.062 103.774   8
  -2   5   1 54.9295 164.333   3
  -2   5   1 21.6354 86.1299   2
  -2  -5   0 4679.98 441.703   2
   2   5   0 4119.50 304.067   7
   2  -5   0 4888.65 424.258   7
  -2   5   0 4196.84 242.655  10
  -2  -5   0 4368.41 235.963   6
  -2   5   0 4514.56 467.560   3
   2  -5   0 4781.32 343.540   9
   2  -5   0 4498.58 398.605   5
  -2  -5   0 4168.45 336.981   5
   2   5   0 4139.29 400.139   8
  -2  -5  -1 20132.3 957.887   2
   2   5   1 20664.5 764.043   7
   2  -5   1 22283.4 961.378   7
   2  -5   1 20564.9 655.169   9
  -2  -5  -1 20857.2 729.180   6
  -2   5  -1 21933.3 1041.56   3
  -2   5  -1 19593.0 608.282  10
   2   5   1 20285.3 951.430   9
   2  -5   1 20678.1 936.349   5
   2   5   2 13243.9 643.829   7
   2  -5   2 13268.9 780.861   7
  -2   5  -2 11759.6 513.302  10
  -2   5  -2 13593.1 815.392   3
   2  -5   2 13950.7 521.331  10
   2  -5   2 13459.5 776.800   5
   2   5   2 13310.3 776.032   9
  -2  -5  -2 13504.9 665.588   6
   2   5   3 5674.61 468.329   7
   2  -5   3 6621.71 597.586   7
  -2  -5  -3 6001.33 520.541   6
  -2   5  -3 5747.56 552.388   3
   2  -5   3 5429.11 378.119  10
   2   5   3 5640.76 532.406   9
   2   5   4 16121.8 878.149   7
   2  -5   4 15845.9 989.098   7
   2   5   4 17348.8 960.148   9
  -2   5  -4 17162.7 982.467   3
  -2  -5  -4 15446.3 913.994   6
  -2   5  -4 16568.4 669.470   1
   2  -5   4 17410.5 792.705  10
   2   5   5 8015.41 679.343   7
   2  -5   5 6958.65 704.065   7
  -2   5  -5 6935.27 642.132   3
  -2  -5  -5 6634.28 668.547   6
   2  -5   5 7585.29 584.011  10
   2   5   5 8564.11 696.870   9
  -2   5  -6 81.3072 217.514   3
   2   5   6 325.495 240.224   7
   2  -5   6 351.073 278.262   7
  -2  -5  -6 443.944 257.542   6
  -2   5  -6 226.323 233.120   6
   2  -5   6 306.210 218.641  10
   2   5   6 51.5704 203.472   9
   2   5   7 1361.29 395.200   7
   2  -5   7 1957.96 459.349   7
  -2   5  -7 1987.22 460.064   6
  -2  -5  -7 1557.46 437.337   6
   2  -5   7 1676.62 354.275  10
  -2   5  -7 1492.11 350.055   3
   2   5   7 1823.81 392.314   9
   2   5   8 2090.36 460.716   7
   2  -5   8 1966.24 494.034   7
   2   5   8 2999.30 602.096  10
  -2  -5  -8 3013.93 597.926   6
   2  -5   8 2204.90 450.691  10
  -2   5  -8 2094.05 507.165   6
   2   5   8 2044.48 425.866   9
   2  -5   9 534.189 393.865   7
  -2  -5  -9 426.792 352.043   6
   2  -5   9 332.537 225.749  10
  -2   5  -9 408.232 333.589   6
   2   5   9 1500.11 494.841  10
  -2  -5 -10 813.347 470.256   6
   2  -5  10 227.154 309.729   7
  -2   5 -10 536.349 354.633   6
   2   5  10 448.376 331.184  10
  -2  -6  11 340.107 398.816  10
   2   6 -11 912.844 382.984   6
   2  -6 -11 756.843 439.952   6
  -2   6  11 1009.40 489.599  10
   2  -6 -10 883.278 399.991   6
   2   6 -10 1036.41 345.552   6
  -2  -6  10 809.162 388.556  10
  -2   6  10 1298.66 463.000  10
   2   6  -9 6482.01 801.247   8
  -2   6   9 8087.34 762.546   4
   2  -6  -9 8487.72 897.459   6
   2   6  -9 7470.13 736.177   6
  -2  -6   9 9241.56 953.810  10
  -2   6   9 8044.79 913.227  10
   2   6  -8 3047.73 535.862   8
  -2  -6   8 4021.02 623.624   2
  -2   6   8 4398.64 581.085   4
   2   6  -8 3937.81 517.502   6
   2  -6  -8 4309.26 656.099   6
  -2   6   8 3770.15 433.953   3
  -2   6   8 4612.82 667.322  10
  -2  -6   8 4519.33 648.682  10
  -2  -6   7 28299.6 1506.21  10
   2   6  -7 26767.2 1440.31   8
  -2   6   7 27153.9 1312.87   4
  -2  -6   7 27235.2 1495.97   2
   2  -6  -7 29463.6 1495.31   6
   2   6  -7 28586.7 1213.64   6
  -2   6   7 26885.9 1204.17   3
  -2   6   7 25617.1 1426.80  10
  -2  -6   6 2234.09 439.529  10
  -2   6   6 1744.95 325.437   3
   2   6  -6 1782.33 359.494   8
   2   6  -6 2005.79 442.212   1
   2  -6  -6 2524.68 467.530   6
  -2  -6   6 1984.23 396.891   2
   2   6  -6 1902.76 284.978   6
  -2   6   6 2160.38 429.022  10
   2   6  -5 20042.1 773.696   6
  -2  -6   5 20686.5 1151.30   2
  -2   6   5 20431.2 1018.50   3
  -2  -6   5 19726.5 1115.31  10
   2   6  -5 19300.3 1055.04   8
   2  -6  -5 19337.6 960.601   8
   2   6  -5 20147.7 1111.66   1
   2  -6  -5 21746.2 1081.88   5
  -2  -6   4 10384.0 767.880  10
   2  -6  -4 10806.6 626.140   8
   2  -6  -4 10666.8 698.720   5
   2   6  -4 10458.4 764.586   1
   2   6  -4 11105.7 741.835   8
   2   6  -4 9901.02 422.284   6
  -2  -6   4 10575.0 765.393   2
   2  -6  -4 9504.39 460.084   2
  -2   6   4 11316.8 739.262   3
  -2  -6   4 10256.8 613.258   5
   2  -6  -3 2448.61 284.332   8
  -2   6   3 2256.04 350.338   3
   2  -6  -3 2285.72 326.314   5
   2  -6  -3 2201.27 186.945   2
  -2  -6   3 1932.79 335.736   2
   2   6  -3 2416.91 358.820   1
  -2   6   3 2058.27 187.182   2
  -2  -6   3 2227.94 356.087  10
  -2  -6   3 2397.99 274.796   5
   2   6  -3 1825.69 307.379   8
   2  -6  -2 4945.58 352.643   8
  -2  -6   2 5047.28 475.770   2
  -2  -6   2 5462.41 394.570   5
  -2   6   2 4475.53 242.650   2
  -2   6   2 4736.60 487.836   3
   2   6  -2 4986.60 453.689   8
   2  -6  -2 4703.94 433.352   5
  -2   6   1 496.345 240.543   3
   2   6  -1 339.277 153.818   8
   2  -6  -1 454.575 205.115   5
  -2  -6   1 629.026 171.863   5
  -2  -6   1 436.848 198.009   2
  -2   6   1 261.796 101.207   8
  -2   6   1 303.842 90.0985   2
   2  -6  -1 471.733 130.022   8
  -2   6   0 22843.0 708.545  10
   2   6   0 20614.7 712.009   7
   2  -6   0 21478.0 926.314   7
  -2  -6   0 19818.4 570.059   6
  -2   6   0 21604.7 1063.70   3
  -2   6   0 22620.0 790.235   8
   2  -6   0 21365.1 954.345   5
  -2  -6   0 22403.0 864.092   5
   2   6   0 22325.7 1040.31   9
  -2  -6   0 22682.8 1008.14   2
   2   6   0 20587.7 919.784   8
   2  -6   1 1302.26 277.455   5
  -2  -6  -1 1548.17 269.587   5
   2   6   1 1573.52 207.914   7
  -2   6  -1 1603.59 321.734   3
   2  -6   1 1811.02 320.133   7
  -2  -6  -1 1536.01 199.628   6
  -2   6  -1 1206.13 166.359  10
  -2  -6  -1 1394.53 286.471   2
   2  -6   1 1620.95 186.114   9
   2   6   1 1341.01 305.641   9
  -2   6  -2 2858.75 404.423   3
   2   6   2 2980.52 307.766   7
   2  -6   2 2774.24 389.504   7
  -2  -6  -2 3543.84 354.603   6
  -2   6  -2 2845.77 274.170  10
  -2  -6  -2 2587.04 374.381   2
   2  -6   2 2396.31 160.282   9
   2   6   2 3117.79 425.239   9
   2  -6   2 2804.75 375.778   5
   2   6   3 8395.10 561.819   7
   2  -6   3 8561.60 674.094   7
  -2  -6  -3 8434.00 603.039   6
   2  -6   3 8428.86 702.397   5
  -2   6  -3 9261.99 725.228   3
   2  -6   3 8748.99 508.223  10
   2   6   3 8818.69 699.348   9
   2  -6   4 14048.7 937.232   7
   2  -6   4 14840.1 745.867  10
  -2   6  -4 13429.2 657.617   1
  -2   6  -4 15824.8 957.856   3
   2   6   4 12885.9 772.176   7
   2   6   4 14070.5 898.997   9
  -2  -6  -4 13343.7 848.813   6
  -2   6  -5 15830.1 753.780   1
   2   6   5 15978.0 944.753   7
   2  -6   5 15985.5 1074.80   7
  -2   6  -5 16119.0 997.082   3
  -2  -6  -5 14139.7 952.336   6
   2  -6   5 15701.0 851.315  10
   2   6   5 16186.7 1004.86   9
   2   6   6 1633.13 355.873   7
   2  -6   6 1801.93 419.025   7
  -2   6  -6 2070.39 453.358   6
  -2  -6  -6 2114.94 442.510   6
   2  -6   6 1401.09 335.678  10
  -2   6  -6 1591.92 355.068   3
   2   6   6 1648.50 389.943   9
   2   6   7 17646.7 1165.60   7
   2  -6   7 20629.6 1379.95   7
  -2   6  -7 20494.7 1178.06   3
  -2  -6  -7 21002.5 1348.39   6
  -2   6  -7 18868.7 1301.04   6
   2  -6   7 22146.1 1206.43  10
   2   6   7 17400.3 1135.64   9
   2  -6   8 915.291 368.764   7
  -2   6  -8 727.486 370.438   6
   2   6   8 446.055 249.551   9
   2  -6   8 1306.77 361.874  10
  -2  -6  -9 438.427 344.797   6
  -2   6  -9 1159.26 454.754   6
   2  -6   9 102.892 227.648  10
   2  -6   9 692.894 391.062   7
   2   6   9 866.311 392.273  10
   2   6   9 147.591 237.461   9
   2  -6  10 344.423 404.918   7
  -2  -6 -10 807.150 405.266   6
  -2   6 -10 1369.30 501.347   6
   2   6  10 1168.39 452.199  10
   2   7 -11 503.935 288.959   8
   2  -7 -11 1184.99 471.350   6
  -2   7  11 397.527 365.832  10
  -2  -7  11 463.969 359.643  10
   2   7 -10 3134.48 599.411   8
   2  -7 -10 3600.00 634.520   6
  -2  -7  10 3213.37 633.278  10
  -2   7  10 2605.12 619.715  10
   2   7  -9-19.4564 223.125   8
  -2   7   9 66.2437 227.254   4
   2   7  -9 574.133 282.644   6
  -2   7   9 752.315 352.937  10
   2  -7  -9 467.102 335.769   6
  -2  -7   9 606.566 379.468  10
   2   7  -8 7326.15 797.355   8
  -2   7   8 8249.40 744.252   4
   2  -7  -8 7531.26 824.257   6
  -2  -7   8 6241.06 764.221  10
   2   7  -8 6927.16 628.999   6
  -2   7   8 6395.07 607.486   3
  -2  -7   8 6013.37 763.058   2
  -2   7   8 6646.73 806.024  10
  -2   7   7 3572.14 576.845  10
  -2  -7   7 2625.83 488.066   2
  -2   7   7 3442.76 458.187   3
   2   7  -7 2768.16 492.430   8
  -2   7   7 3351.06 503.052   4
   2   7  -7 3343.57 551.813   1
   2   7  -7 3969.27 450.105   6
   2  -7  -7 3601.01 547.922   6
  -2  -7   7 3457.72 562.272  10
   2   7  -6 41402.4 1716.36   8
   2  -7  -6 42435.9 1577.26   8
   2   7  -6 42355.3 1353.09   6
  -2  -7   6 39249.3 1763.40   2
  -2  -7   6 41156.9 1796.30  10
  -2   7   6 42228.1 1633.42   3
   2   7  -6 38653.4 1738.57   1
   2  -7  -6 40461.0 1691.34   5
  -2   7   5 626.587 224.742   3
  -2  -7   5 727.783 342.542  10
   2  -7  -5 703.230 219.374   8
   2   7  -5 339.093 228.486   8
   2  -7  -5 413.501 233.927   5
   2   7  -5 921.211 342.406   1
   2   7  -5 525.254 153.036   6
  -2  -7   5 812.110 272.658   2
  -2   7   4 2965.05 419.170   3
   2   7  -4 3093.89 424.952   8
   2  -7  -4 2488.33 294.046   8
   2  -7  -4 3029.13 415.746   5
   2  -7  -4 2361.27 199.139   2
   2   7  -4 2453.65 198.081   6
  -2  -7   4 2628.00 430.770   2
   2   7  -4 2949.79 456.561   1
  -2  -7   4 3760.18 509.010  10
  -2  -7   4 3322.06 390.855   5
   2   7  -3 14981.4 840.231   8
  -2  -7   3 13988.8 871.469   2
   2   7  -3 13070.9 843.638   1
   2  -7  -3 14717.6 656.438   8
  -2   7   3 15026.8 925.157   3
  -2  -7   3 15518.0 920.085  10
  -2   7   3 14600.0 902.639   9
  -2  -7   3 15421.1 764.527   5
   2  -7  -3 14688.2 843.861   5
   2   7  -2 21028.6 937.573   8
  -2   7   2 21381.4 1015.67   9
  -2  -7   2 21176.8 865.327   5
  -2  -7   2 19141.6 977.411   2
   2  -7  -2 22242.8 735.808   8
  -2   7   2 17256.5 446.708   2
  -2   7   2 20546.7 1069.30   3
   2  -7  -2 21796.6 996.926   5
   2   7  -1 27042.3 1072.13   8
  -2   7   1 26864.9 824.779   8
  -2   7   1 25149.8 666.058   2
  -2  -7   1 27149.1 1145.58   2
  -2   7   1 27069.8 1245.02   3
  -2   7   1 26836.1 1090.56   9
   2  -7  -1 28623.5 1167.09   5
  -2  -7   1 28268.9 1032.11   5
   2   7   0 13892.3 528.225   7
   2  -7   0 14649.2 765.679   7
  -2  -7   0 13086.8 774.818   2
  -2   7   0 15347.1 921.725   3
  -2   7   0 13978.6 596.749  10
  -2   7   0 14245.7 589.566   8
  -2   7   0 13960.9 693.848   9
   2   7   0 14377.4 873.216   9
  -2  -7   0 13753.6 717.691   5
   2  -7   0 13926.6 818.782   5
   2   7   0 13721.6 747.548   8
  -2   7  -1 4087.26 485.000   3
  -2   7  -1 4472.50 334.094  10
  -2  -7  -1 5102.79 489.817   2
   2  -7   1 4242.41 439.367   7
  -2  -7  -1 4034.10 311.040   6
   2   7   1 3741.94 308.355   6
   2  -7   1 4193.27 320.399   9
   2  -7   1 3661.25 451.950   5
   2   7   1 4589.37 516.576   9
  -2  -7  -1 4702.60 449.615   5
   2   7   1 5230.66 330.643   7
   2   7   2 29916.8 979.397   7
  -2  -7  -2 30098.8 1275.98   2
   2  -7   2 31883.5 1288.02   7
  -2  -7  -2 28437.0 1201.32   5
  -2  -7  -2 27104.2 1012.15   6
  -2   7  -2 29617.3 1355.22   3
   2  -7   2 29807.4 1319.00   5
   2   7   2 30614.5 1338.46   9
   2   7   3 7539.10 669.110   9
   2   7   3 7068.01 499.432   7
   2  -7   3 7246.29 641.564   7
  -2  -7  -3 7652.28 576.812   6
  -2   7  -3 7980.38 688.096   3
   2  -7   3 7603.10 496.770  10
   2  -7   3 6617.37 652.870   5
  -2  -7  -3 7076.72 636.892   2
   2   7   4 8532.03 609.093   7
   2  -7   4 9434.88 785.269   7
  -2  -7  -4 8714.60 685.360   6
  -2   7  -4 8688.60 736.990   3
   2  -7   4 9280.85 609.735  10
   2   7   4 10154.5 811.289   9
   2   7   5 2722.57 388.510   7
   2  -7   5 2851.08 492.385   7
  -2   7  -5 2544.43 420.992   3
  -2  -7  -5 3027.58 469.434   6
   2  -7   5 2792.15 378.906  10
  -2   7  -5 2252.64 307.625   1
   2   7   5 1729.55 397.184   9
   2   7   6 22249.7 1204.14   7
   2  -7   6 23121.8 1397.69   7
  -2   7  -6 22006.2 1010.22   1
  -2   7  -6 23193.5 1262.50   3
  -2  -7  -6 24137.1 1364.92   6
  -2   7  -6 25915.4 1476.01   6
   2  -7   6 23397.2 1160.74  10
   2   7   6 23630.6 1335.29   9
   2  -7   7 1602.73 446.697   7
  -2  -7  -7 2256.34 483.486   6
   2  -7   7 1259.39 339.519  10
  -2   7  -7 1635.87 359.244   3
  -2   7  -7 1408.27 420.243   6
   2   7   7 718.621 325.261   9
   2  -7   8 134.538 340.895   7
  -2   7  -8 428.996 377.770   6
  -2  -7  -8 1069.23 413.779   6
   2  -7   8-120.182 224.109  10
   2   7   8 48.0209 227.067   9
   2  -7   9 647.720 381.172   7
   2   7   9-85.6274 218.211   9
  -2   7  -9 840.741 390.012   6
   2   7   9 890.542 380.585  10
  -2  -7 -10 3647.82 707.843   6
   2   7  10 3470.78 751.397  10
   2   8 -11 260.652 269.287   8
   2  -8 -11 1064.63 483.082   6
  -2  -8  11 355.164 339.654  10
  -2   8  11 1052.74 532.751  10
   2   8 -10 2925.72 590.834   8
   2  -8 -10 2255.87 567.651   6
  -2  -8  10 1906.51 529.335  10
  -2   8  10 3013.01 688.487  10
  -2   8   9 3699.78 545.743   4
   2  -8  -9 3865.00 644.101   6
  -2  -8   9 3595.46 662.622  10
  -2   8   9 4321.40 736.869  10
   2   8  -9 3240.54 594.241   8
   2   8  -8 12911.5 1061.79   8
  -2   8   8 14231.0 968.471   4
  -2   8   8 13413.0 1143.53  10
   2  -8  -8 14516.7 1144.82   6
  -2  -8   8 13698.4 1148.99  10
  -2   8   8 12926.4 924.858   3
  -2  -8   8 11890.3 1084.48   2
   2   8  -7 1034.10 352.716   1
  -2  -8   7 1204.79 351.894   2
  -2   8   7 1270.74 325.523   3
   2   8  -7 1478.56 391.108   8
   2  -8  -7 1202.45 352.182   5
  -2   8   7 1495.38 384.466   4
   2   8  -7 1368.45 259.520   6
  -2  -8   7 1628.79 450.583  10
  -2   8   7 1716.20 464.586  10
  -2   8   6 104.095 193.092   3
  -2  -8   6 56.2499 179.083   2
   2   8  -6 469.279 240.547   8
   2  -8  -6 176.011 250.387   5
   2   8  -6-162.245 257.533   1
   2   8  -6 166.112 141.245   6
  -2  -8   6-128.677 242.510  10
   2  -8  -6 75.2967 143.037   8
   2   8  -5 8438.40 697.123   8
   2  -8  -5 7638.24 566.447   8
   2   8  -5 8054.42 454.569   6
  -2  -8   5 7841.56 740.627   2
  -2  -8   5 7815.27 767.508  10
  -2   8   5 8489.05 722.619   3
   2   8  -5 7785.47 741.377   1
  -2  -8   5 8781.79 693.679   5
   2  -8  -5 7605.99 696.807   5
   2  -8  -4 14404.8 695.618   8
   2   8  -4 14827.2 874.192   8
   2   8  -4 12818.4 454.071   6
  -2  -8   4 14789.6 952.745   2
   2   8  -4 13316.0 908.345   1
  -2  -8   4 15402.5 979.872  10
  -2   8   4 16511.4 994.842   3
  -2   8   4 15208.7 1006.38   9
  -2  -8   4 15537.4 843.921   5
   2  -8  -4 14411.8 909.592   5
   2   8  -3 18747.5 951.982   8
   2   8  -3 18652.2 1048.34   1
  -2  -8   3 19016.0 1042.70   2
  -2  -8   3 18984.9 1086.71  10
  -2   8   3 17967.4 1060.14   3
   2  -8  -3 19519.9 1040.06   5
   2  -8  -3 19334.7 733.939   8
  -2   8   3 18480.6 1046.08   9
  -2  -8   3 19003.6 915.165   5
   2  -8  -2 4409.06 298.592   8
   2   8  -2 4460.09 444.018   8
  -2  -8   2 4548.35 494.762   2
  -2   8   2 4369.40 542.896   3
  -2   8   2 4401.97 497.619   9
  -2  -8   2 5013.66 442.640   5
   2  -8  -2 4618.89 492.235   5
  -2   8   1 2601.23 423.873   3
   2   8  -1 2469.29 329.227   8
   2  -8  -1 2694.73 388.611   5
  -2  -8   1 2747.88 351.852   5
  -2  -8   1 2441.51 356.367   2
  -2   8   1 1692.78 109.176   2
   2  -8  -1 2983.81 346.447   7
  -2   8   1 1907.27 117.671   2
   2   8  -1 2482.18 395.385   9
  -2   8   1 2856.93 377.710   9
  -2   8   0 7108.34 383.469   8
   2   8   0 8626.75 365.873   7
   2  -8   0 8781.34 599.093   7
  -2  -8   0 8398.34 629.656   2
   2   8   0 6834.79 327.985   6
  -2   8   0 8645.84 724.582   3
  -2   8   0 7723.94 544.569   9
   2   8   0 7401.06 651.556   9
   2  -8   0 7810.48 640.649   5
  -2  -8   0 8333.07 596.186   5
   2   8   0 8210.80 578.571   8
   2  -8   1 1599.95 346.434   5
  -2   8  -1 1239.77 236.601   9
  -2  -8  -1 1645.67 295.331   5
   2   8   1 1490.23 165.521   7
   2   8   1 1478.75 335.251   9
   2  -8   1 1253.31 277.370   7
  -2  -8  -1 1318.81 198.894   6
  -2   8  -1 1982.88 376.951   3
   2   8   1 917.926 172.287   6
  -2  -8  -1 1875.36 324.077   2
   2   8   2 4572.90 337.472   7
  -2  -8  -2 5390.19 536.750   2
   2  -8   2 5447.17 535.340   7
   2   8   2 5673.03 607.174   9
  -2  -8  -2 5070.47 421.349   6
  -2   8  -2 5192.67 588.809   3
   2  -8   2 5454.82 581.511   5
  -2  -8  -2 4985.32 511.107   5
   2   8   3 25247.1 964.651   7
  -2  -8  -3 25482.2 1235.40   2
   2  -8   3 28053.2 1290.43   7
  -2  -8  -3 25927.1 1119.51   6
  -2   8  -3 28548.2 1376.70   3
   2  -8   3 26026.2 1336.47   5
   2   8   3 27625.6 1362.17   9
  -2  -8  -3 24880.2 1242.65   5
   2   8   4 14316.5 781.065   7
   2  -8   4 15123.1 999.024   7
  -2  -8  -4 12919.0 852.969   6
  -2   8  -4 16025.7 1032.02   3
   2  -8   4 14219.8 1019.23   5
   2   8   4 15133.1 1044.87   9
   2  -8   4 16671.3 842.763  10
   2   8   5 6464.85 584.830   7
   2  -8   5 7285.47 745.493   7
  -2  -8  -5 7396.11 686.260   6
  -2   8  -5 7165.27 702.291   3
  -2   8  -5 7196.29 563.181   1
   2  -8   5 6104.96 571.004  10
   2   8   5 7034.48 749.811   9
   2  -8   6 1282.13 404.103   7
  -2  -8  -6 1552.59 399.782   6
  -2   8  -6 1412.99 352.118   3
   2  -8   6 1973.36 379.614  10
   2   8   6 2185.71 439.770   9
   2  -8   7 7642.33 859.221   7
  -2   8  -7 7742.27 757.830   3
  -2  -8  -7 7754.35 822.509   6
  -2   8  -7 6740.32 817.553   6
   2  -8   7 7696.74 713.852  10
   2   8   7 6098.14 747.448   9
   2  -8   8 3837.63 673.934   7
  -2  -8  -8 3653.65 642.909   6
  -2   8  -8 4299.28 692.424   6
   2   8   8 3161.57 572.516   9
   2  -8   9 202.431 302.575   7
  -2  -8  -9 872.999 429.311   6
  -2   8  -9 817.850 381.251   6
   2   8   9 448.628 288.344   9
  -2  -8 -10 1038.44 469.818   6
   2   9 -11 5357.56 841.788   8
  -2  -9  10-11.1586 322.721  10
   2   9 -10-172.808 226.852   8
  -2   9  10 614.340 461.356  10
   2  -9 -10 620.894 361.517   6
  -2  -9   9 7639.90 935.730  10
   2  -9  -9 9505.74 1011.88   6
   2   9  -9 7067.42 846.148   8
  -2   9   9 9042.38 1013.19  10
   2  -9  -9 9326.92 996.644   5
  -2   9   8 1295.78 355.885   3
   2   9  -8 1507.72 392.262   8
   2  -9  -8 2063.48 485.886   5
  -2  -9   8 1647.44 446.981   2
  -2   9   8 2245.08 432.585   4
   2   9  -8 1143.38 442.616   1
  -2  -9   8 1609.09 460.740  10
  -2   9   8 2146.05 534.302  10
  -2  -9   7 708.476 378.343  10
  -2  -9   7 164.835 253.406   2
   2   9  -7 26.9399 181.519   8
   2  -9  -7-129.865 226.246   5
   2   9  -7 554.158 401.753   1
   2  -9  -7 21.8413 138.452   8
  -2   9   7 142.279 232.164   3
   2   9  -6 4040.81 538.994   8
   2  -9  -6 4084.81 448.971   8
   2  -9  -6 4803.93 609.221   5
   2   9  -6 3588.78 577.591   1
  -2   9   6 4468.27 573.206   3
  -2  -9   6 4202.95 620.898  10
  -2  -9   6 3369.65 539.472   2
  -2   9   5 411.465 222.634   3
   2   9  -5 518.073 230.192   8
   2  -9  -5 335.195 163.431   8
   2  -9  -5 688.774 305.081   5
  -2  -9   5 1219.60 377.602  10
   2   9  -5 112.172 222.311   1
  -2  -9   5 357.672 256.838   2
  -2   9   5 698.145 347.048   9
  -2  -9   5 616.409 240.211   5
  -2   9   4 599.925 272.896   3
   2  -9  -4 489.838 150.681   8
   2   9  -4 484.244 227.003   8
   2  -9  -4 301.578 210.375   5
   2   9  -4 517.238 272.189   1
  -2  -9   4 494.356 274.734   2
  -2  -9   4 880.489 343.631  10
  -2   9   4 252.129 277.644   9
  -2  -9   4 728.479 245.022   5
   2  -9  -3 5305.67 341.920   8
   2   9  -3 5064.24 499.556   8
  -2  -9   3 5006.12 554.194   2
  -2   9   3 4808.62 585.019   3
  -2   9   3 5502.86 620.684   9
  -2  -9   3 5558.15 513.362   5
   2  -9  -3 5757.30 592.485   5
   2   9  -2 13995.4 778.122   8
  -2  -9   2 13318.7 858.104   2
  -2   9   2 13972.7 954.139   3
   2  -9  -2 12815.6 481.248   8
  -2   9   2 12841.8 863.744   9
  -2  -9   2 13469.1 783.474   5
   2  -9  -2 13197.6 871.943   5
   2   9  -1 31746.3 847.120   7
   2  -9  -1 37701.7 1323.13   7
  -2  -9   1 39573.1 1480.40   2
  -2   9   1 36695.4 1422.68   9
  -2   9   1 40103.0 1660.60   3
   2   9  -1 39298.0 1606.11   9
   2  -9  -1 41766.5 1593.16   5
  -2  -9   1 41285.4 1441.87   5
   2   9  -1 40161.4 1361.08   8
   2  -9   0 202.436 238.235   5
  -2   9   0 110.787 264.922   3
  -2  -9   0 5.06479 154.911   2
  -2   9   0 16.1049 64.0820   8
   2   9   0 88.1414 48.8129   7
   2  -9   0 2.88499 166.614   7
   2   9   0 392.198 279.006   9
   2   9   0-0.59792 56.7152   6
  -2  -9   0 28.0194 175.532   5
  -2   9   0 266.574 175.440   9
  -2   9   0 32.5750 59.3947   2
   2   9   0 349.714 208.785   8
   2   9   1 28539.3 762.498   7
   2  -9   1 32500.0 1286.00   7
  -2  -9  -1 32647.5 1334.43   2
  -2   9  -1 32648.3 1503.94   3
  -2   9  -1 31677.5 1116.36   9
   2  -9   1 30674.0 1400.00   5
   2   9   1 31202.2 1455.62   9
  -2  -9  -1 32061.7 1329.77   5
   2  -9   2 3829.27 535.241   5
   2   9   2 3229.33 261.245   7
  -2  -9  -2 3233.82 441.009   5
  -2   9  -2 3570.15 523.317   3
   2  -9   2 3214.64 423.619   7
  -2  -9  -2 3297.84 342.810   6
  -2   9  -2 3202.14 295.585   9
  -2  -9  -2 2965.02 420.405   2
   2   9   2 3880.99 545.506   9
   2   9   3 215.700 135.280   7
  -2  -9  -3 721.956 296.512   5
   2  -9   3-149.344 187.231   7
  -2  -9  -3 481.075 202.624   6
  -2  -9  -3 464.691 240.483   2
  -2   9  -3 89.5278 204.812   3
   2   9   3 46.1588 218.750   9
   2  -9   3 513.414 298.977   5
   2  -9   4 2140.91 424.906   7
  -2  -9  -4 1224.96 303.295   2
   2  -9   4 1711.27 320.342  10
  -2  -9  -4 823.661 274.041   6
  -2   9  -4 1237.94 362.131   3
   2   9   4 936.209 358.918   9
   2  -9   4 1260.76 364.113   5
   2  -9   5 322.004 201.065  10
  -2   9  -5 672.910 248.545   1
   2  -9   5 149.478 200.205   7
  -2  -9  -5 449.891 277.512   6
  -2   9  -5 867.536 319.451   3
   2   9   5 733.474 335.649   9
  -2   9  -6 1381.18 369.395   3
   2  -9   6 831.988 332.056   7
  -2  -9  -6 473.946 279.028   6
   2  -9   6 1186.66 319.636  10
   2   9   6 726.815 344.519   9
   2  -9   7 205.098 236.610  10
   2  -9   7 672.719 365.687   7
  -2  -9  -7 396.000 264.210   6
   2   9   7 368.232 294.075   9
  -2   9  -7 577.714 281.550   6
  -2   9  -7 804.985 305.525   3
   2  -9   8 2011.80 534.866   7
  -2  -9  -8 2292.38 531.700   6
  -2   9  -8 3260.07 638.923   6
   2   9   8 2703.51 575.355   9
   2  -9   9 8747.41 1038.16   7
  -2  -9  -9 8048.39 968.057   6
  -2   9  -9 8502.74 1025.54   6
   2   9   9 6887.60 896.866   9
   2  10 -11-38.6162 256.397   8
   2  10 -10 1975.44 487.504   8
   2 -10 -10 2425.11 546.751   5
   2 -10 -10 2605.56 602.946   6
  -2 -10  10 3254.74 648.154  10
  -2  10  10 1826.17 576.400  10
   2 -10  -9 394.424 325.554   5
  -2  10   9 403.606 375.962  10
  -2 -10   9 988.617 410.340  10
   2  10  -9 851.972 355.782   8
  -2  10   8 607.255 300.012   3
   2  10  -8 131.671 256.545   8
   2 -10  -8 775.701 349.259   5
  -2 -10   8 425.400 286.955   2
   2  10  -8 55.1190 240.754   1
  -2  10   8 841.550 418.152  10
  -2 -10   8 1154.11 421.793  10
   2  10  -7 757.989 328.050   8
  -2 -10   7 1087.11 360.435   2
  -2  10   7 259.004 265.748   3
   2 -10  -7 1375.11 436.102   5
   2  10  -7 616.460 348.440   1
  -2 -10   7 368.873 347.147  10
   2  10  -6 801.492 329.643   1
   2  10  -6 969.704 302.119   8
   2 -10  -6 647.429 312.732   5
  -2  10   6 741.119 363.122   9
  -2  10   6 1361.22 377.341   3
  -2 -10   6 1330.98 390.369   2
  -2 -10   6 677.457 297.078  10
   2 -10  -5 10179.7 617.488   8
  -2 -10   5 12465.6 958.433   2
   2  10  -5 11284.4 938.881   1
  -2 -10   5 11219.2 966.674  10
  -2  10   5 12483.4 972.846   3
   2  10  -5 11170.6 822.878   8
  -2  10   5 12603.6 1030.50   9
  -2 -10   5 11957.5 861.574   5
   2 -10  -5 12116.7 958.462   5
  -2 -10   4 3486.16 457.604   5
   2  10  -4 3141.83 497.027   1
   2  10  -4 3489.48 452.519   8
  -2  10   4 3794.20 540.581   3
   2 -10  -4 3532.71 527.657   5
  -2 -10   4 4030.45 533.084   2
  -2  10   4 3773.61 568.687   9
   2  10  -3 4878.67 493.040   8
   2 -10  -3 4438.90 557.253   5
  -2  10   3 5138.82 635.205   3
  -2 -10   3 5369.30 578.384   2
  -2 -10   3 4664.97 512.518   5
  -2  10   3 4825.09 586.736   9
   2  10  -2 16225.3 859.597   8
   2 -10  -2 18818.4 1106.51   5
  -2  10   2 18713.0 1082.26   9
  -2 -10   2 17024.9 1000.24   2
  -2  10   2 17704.4 1175.74   3
   2  10  -2 15509.6 1032.85   9
  -2 -10   2 16687.8 939.361   5
   2  10  -1 2683.97 350.509   8
   2 -10  -1 3037.58 459.916   5
  -2  10   1 3515.15 514.737   3
  -2 -10   1 2778.50 391.971   5
   2 -10  -1 3624.54 411.367   7
  -2 -10   1 2828.74 395.135   2
  -2  10   1 2653.43 407.542   9
   2  10  -1 3071.73 476.512   9
   2 -10   0 5817.08 509.905   7
   2  10   0 6602.54 673.879   9
  -2 -10   0 5244.41 539.704   2
  -2  10   0 6915.13 711.376   3
  -2  10   0 6336.77 559.372   9
   2 -10   0 6866.63 669.244   5
  -2 -10   0 6875.71 613.675   5
   2 -10   1 20806.5 1021.28   7
  -2 -10  -1 21218.5 1072.31   2
  -2  10  -1 20538.6 1237.19   3
  -2  10  -1 20314.7 929.008   9
   2 -10   1 20279.1 1188.81   5
   2  10   1 20809.0 1233.00   9
  -2 -10  -1 21078.6 1109.03   5
   2 -10   2 21783.3 1112.87   7
  -2 -10  -2 20208.2 1081.58   2
  -2 -10  -2 19839.2 879.945   6
  -2  10  -2 20632.4 1240.34   3
  -2  10  -2 19388.0 816.002   9
   2 -10   2 20248.9 1211.35   5
   2  10   2 21876.2 1271.10   9
  -2 -10  -2 19784.3 1118.88   5
  -2 -10  -3-71.4658 179.207   5
  -2  10  -3 201.298 242.497   3
   2 -10   3 397.533 247.917   7
  -2 -10  -3-44.1570 143.337   6
  -2 -10  -3 72.0076 176.036   2
   2  10   3 636.027 322.430   9
   2 -10   3-39.1491 189.090   5
  -2 -10  -4 391.757 291.739   5
   2 -10   4 1107.61 321.460   7
  -2 -10  -4 627.919 254.134   6
  -2 -10  -4 690.759 289.160   2
  -2  10  -4 936.932 317.908   3
   2  10   4 549.392 284.344   9
   2 -10   4 314.671 346.546   5
  -2  10  -5 189.981 174.203   1
  -2 -10  -5 626.080 352.556   5
   2 -10   5 324.943 254.541   7
  -2 -10  -5 383.334 247.694   6
  -2 -10  -5 797.232 312.296   2
   2 -10   5 529.325 235.562  10
  -2  10  -5 321.073 260.631   3
   2  10   5 406.303 272.003   9
   2 -10   6 2283.49 484.761   7
   2 -10   6 2835.19 441.581  10
  -2 -10  -6 2388.72 475.154   6
  -2  10  -6 2920.44 504.928   3
   2  10   6 2662.93 529.781   9
   2 -10   7 581.484 374.741   7
  -2 -10  -7 362.582 260.955   6
  -2  10  -7 303.928 305.423   6
  -2  10  -7 396.731 271.175   3
   2  10   7 510.744 351.282   9
   2 -10   8 631.437 320.260   7
  -2 -10  -8-199.042 233.001   6
  -2  10  -8 400.984 362.953   6
   2  10   8 493.045 308.942   9
   2 -10   9 1486.13 521.670   7
  -2 -10  -9 471.894 332.190   6
  -2  10  -9 681.547 388.133   6
   2  10   9 951.438 491.732   9
  -2  11  10 1079.23 531.311  10
   2  11 -10 523.520 345.451   8
   2 -11 -10 813.351 348.361   5
   2  11  -9 12205.5 1114.42   8
  -2  11   9 14240.0 1286.68  10
  -2 -11   9 15497.6 1347.02  10
   2 -11  -9 14664.9 1292.87   5
   2  11  -8 467.748 248.339   8
   2 -11  -8 140.869 296.387   5
  -2 -11   8 13.8389 261.076   2
  -2 -11   8 533.508 360.674  10
  -2  11   8-93.3050 199.429   3
   2  11  -8 203.741 278.446   1
  -2  11   7 20.4872 173.273   3
   2  11  -7-181.314 198.473   8
  -2 -11   7 80.9130 187.097   2
   2 -11  -7 154.356 313.911   5
   2  11  -7-125.935 271.923   1
  -2 -11   7 325.030 342.762  10
  -2 -11   6-48.8756 204.513   2
   2  11  -6 374.924 266.172   8
   2 -11  -6 272.743 274.935   5
  -2  11   6 525.763 313.615   3
  -2 -11   6 486.428 373.847  10
  -2 -11   6 421.832 283.767   5
  -2  11   6 456.821 321.205   9
   2  11  -6 173.924 235.338   1
   2  11  -5 5002.91 666.975   1
  -2 -11   5 6093.96 697.198   2
  -2 -11   5 7187.89 792.028  10
  -2  11   5 7572.72 801.233   3
   2  11  -5 7321.49 668.461   8
  -2 -11   5 6742.63 683.077   5
  -2  11   5 5885.97 751.377   9
   2 -11  -5 7144.04 750.483   5
  -2 -11   4 228.259 196.361   5
   2  11  -4-119.697 232.264   1
   2  11  -4 466.330 188.862   8
  -2  11   4 732.612 303.753   3
   2 -11  -4 808.905 320.617   5
  -2 -11   4 663.474 293.028   2
  -2  11   4 599.914 334.128   9
  -2 -11   3 588.917 261.360   5
   2  11  -3 697.479 235.267   8
  -2  11   3 1050.43 352.289   3
   2 -11  -3 61.4025 225.953   5
  -2 -11   3 723.489 271.948   2
  -2  11   3 451.776 279.421   9
   2  11  -3 868.295 321.881   9
   2  11  -2 13760.5 789.411   8
   2 -11  -2 13326.2 769.533   7
  -2 -11   2 14524.9 946.419   2
  -2  11   2 15234.7 1092.77   3
  -2 -11   2 14929.8 925.375   5
  -2  11   2 14055.7 980.402   9
   2  11  -2 12689.2 965.339   9
   2 -11  -2 15553.1 1045.58   5
   2  11  -1 21166.4 1254.54   9
   2 -11  -1 20861.8 982.142   7
  -2 -11   1 20056.7 1087.06   2
   2 -11  -1 21304.0 1241.51   5
  -2  11   1 20917.3 1291.58   3
  -2  11   1 20315.3 1110.00   9
  -2 -11   1 20250.1 1108.04   5
   2  11  -1 21550.6 991.459   8
   2 -11   0 207.701 254.686   5
  -2  11   0-1.79748 250.360   3
  -2 -11   0 95.1633 199.229   5
  -2 -11   0 293.543 185.628   2
   2 -11   0 113.547 149.232   7
  -2  11   0 188.644 186.628   9
   2  11   0 517.862 293.180   9
  -2  11  -1 624.052 306.011   3
  -2 -11  -1 599.544 229.877   2
  -2 -11  -1 1208.59 309.093   5
   2 -11   1 775.107 243.931   7
   2 -11   1 783.218 326.161   5
  -2  11  -1 549.319 181.768   9
   2  11   1 668.299 289.784   9
  -2  11  -2 555.141 312.725   3
   2 -11   2 443.668 335.366   5
  -2 -11  -2 762.661 313.832   5
   2 -11   2 660.627 253.244   7
  -2  11  -2 579.830 182.204   9
   2  11   2 309.353 329.618   9
  -2 -11  -2 371.988 223.421   2
   2 -11   3 203.453 270.426   5
  -2 -11  -3 753.550 316.394   5
   2 -11   3 635.250 240.291   7
  -2 -11  -3 287.546 201.098   2
  -2 -11  -3 784.237 235.700   6
   2  11   3 1108.00 450.114   9
  -2  11  -3 1289.17 383.581   3
  -2 -11  -4 469.217 259.174   2
  -2 -11  -4 467.356 299.490   5
   2 -11   4 143.357 176.333   7
   2  11   4 184.619 236.659   9
  -2 -11  -4 454.712 243.823   6
  -2  11  -4 237.713 251.416   3
   2 -11   4 331.427 270.406   5
  -2 -11  -5 12361.4 958.222   2
   2 -11   5 13814.6 1064.51   7
  -2  11  -5 15359.6 982.913   1
  -2 -11  -5 13636.8 971.794   6
  -2  11  -5 14152.2 1090.80   3
   2 -11   5 14295.9 1179.07   5
  -2 -11  -5 12584.9 1085.47   5
   2  11   5 12587.9 1103.54   9
  -2 -11  -6 563.306 315.646   5
   2 -11   6 997.439 385.433   7
  -2 -11  -6 663.102 269.647   6
  -2 -11  -6 504.300 266.026   2
   2  11   6 221.241 268.641   9
  -2  11  -6 650.454 284.165   3
   2 -11   7 1001.03 362.732   7
  -2 -11  -7 2183.38 531.116   6
  -2  11  -7 2147.06 554.503   6
   2  11   7 1287.44 432.359   9
   2 -11   8 438.887 339.070   7
  -2 -11  -8 163.146 325.408   6
  -2  11  -8 608.825 445.337   6
   2  11   8-147.356 304.817   9
   2 -11   9 631.895 469.009   7
  -2 -11  -9 780.885 395.360   6
   2  11   9 835.019 388.558   9
   2  12 -10 212.178 206.450   8
   2  12  -9-168.129 192.086   8
  -2  12   9 149.493 320.123  10
   2  12  -9 1023.94 410.166   1
  -2 -12   9-6.49216 289.542  10
   2 -12  -9 218.641 348.331   5
  -2  12   8 1537.04 438.915   3
   2  12  -8 2257.93 463.058   8
   2 -12  -8 1869.12 517.092   5
   2  12  -8 2836.39 591.151   1
  -2 -12   8 2180.50 545.919   2
  -2 -12   8 2579.85 583.811  10
  -2  12   7 1667.94 457.558   3
  -2 -12   7 1754.84 433.107   2
   2 -12  -7 1805.09 508.076   5
   2  12  -7 894.814 279.220   8
   2  12  -7 1082.82 425.352   1
  -2 -12   7 1601.50 482.283  10
  -2  12   7 1549.90 479.109   9
   2  12  -6 5124.43 609.394   8
   2 -12  -6 3461.38 588.187   5
  -2 -12   6 4275.73 635.765   2
  -2  12   6 4322.59 645.073   3
  -2 -12   6 5463.51 773.190  10
  -2 -12   6 5195.72 665.670   5
   2  12  -6 4976.69 705.969   1
  -2  12   6 5895.11 819.144   9
   2  12  -5 167.008 185.214   8
  -2  12   5 46.6822 200.916   3
  -2 -12   5 135.583 205.612   5
   2  12  -5 545.842 342.015   1
   2 -12  -5 100.431 227.431   5
  -2  12   5 27.9096 242.034   9
  -2 -12   5 216.365 279.482   2
  -2 -12   4 403.889 253.027   5
   2  12  -4 931.029 252.837   8
  -2  12   4 585.669 300.737   3
   2 -12  -4 1069.06 339.682   5
   2  12  -4 238.637 283.525   9
   2  12  -4 483.729 309.572   1
  -2 -12   4 777.386 315.932   2
  -2 -12   3-85.6623 178.131   5
   2  12  -3 585.880 225.380   8
  -2  12   3 156.809 245.538   3
   2 -12  -3-37.4970 201.151   5
  -2 -12   3 54.2842 211.107   2
   2  12  -3 140.050 278.255   9
  -2  12   3 647.196 286.072   9
   2  12  -2 5862.69 525.741   8
  -2  12   2 4969.32 659.193   3
   2 -12  -2 4876.11 625.855   5
   2 -12  -2 5608.21 496.980   7
  -2 -12   2 5554.39 600.368   2
  -2 -12   2 6498.46 654.285   5
  -2  12   2 4666.30 606.403   9
   2  12  -2 4700.54 610.245   9
   2 -12  -1 823.736 329.585   5
  -2 -12   1 1500.78 349.253   5
  -2  12   1 1424.87 383.611   3
  -2 -12   1 1113.02 298.556   2
   2 -12  -1 1068.38 253.991   7
  -2  12   1 2016.32 414.155   9
   2  12  -1 1003.24 330.129   9
   2  12  -1 1348.80 275.466   8
   2 -12   0 2033.01 449.923   5
  -2  12   0 1947.11 466.058   3
  -2 -12   0 1989.90 388.386   5
  -2 -12   0 1900.05 360.270   2
   2 -12   0 2005.35 316.405   7
   2  12   0 1592.31 429.552   9
  -2  12   0 1530.83 332.648   9
  -2  12  -1 985.854 360.537   3
   2 -12   1 318.110 258.590   5
  -2 -12  -1 557.828 218.161   2
  -2 -12  -1 1026.14 307.858   5
   2 -12   1 923.966 251.487   7
  -2  12  -1 782.380 241.890   9
   2  12   1 949.872 351.464   9
   2 -12   2 21971.7 1143.25   7
  -2 -12  -2 22423.9 1177.20   2
  -2  12  -2 21947.4 1393.52   3
   2 -12   2 23307.7 1418.93   5
   2  12   2 23282.1 1439.91   9
  -2 -12  -2 21401.7 1292.50   5
  -2  12  -3 265.576 273.517   3
   2 -12   3 1243.98 403.845   5
  -2 -12  -3 1649.75 412.754   5
   2 -12   3 533.605 290.232   7
  -2 -12  -3 851.851 298.091   2
   2  12   3 1574.68 430.529   9
   2 -12   4 759.926 344.224   5
  -2 -12  -4 688.489 315.741   5
   2 -12   4 754.998 313.403   7
   2  12   4 675.737 347.412   9
  -2 -12  -4 770.455 262.229   6
  -2 -12  -4 578.770 236.423   2
  -2  12  -4 1147.92 383.026   3
  -2 -12  -5 523.740 316.862   5
   2 -12   5 163.510 257.153   7
  -2 -12  -5 583.357 243.211   6
  -2 -12  -5 374.827 263.586   2
   2  12   5 505.396 340.893   9
  -2  12  -5 937.402 322.991   3
   2 -12   5 820.916 382.050   5
  -2 -12  -6-111.358 242.008   5
   2  12   6 465.097 326.056   9
   2 -12   6 46.5581 214.987   7
  -2 -12  -6 426.606 280.022   6
  -2  12  -6 492.187 365.319   3
  -2 -12  -7 1818.36 537.967   5
   2 -12   7 2336.87 530.757   7
  -2 -12  -7 2196.21 482.103   6
  -2  12  -7 2775.69 588.895   6
   2  12   7 2335.52 598.127   9
  -2 -12  -8 744.444 385.583   5
   2 -12   8 1471.43 459.066   7
  -2 -12  -8 955.126 428.658   6
   2  12   8 825.421 418.140   9
  -2 -12  -9-338.332 340.121   6
  -2  13   9 6810.79 960.613  10
   2 -13  -9 7249.56 1004.91   5
   2  13  -8 2708.61 592.815   1
  -2  13   8 1608.32 460.565   3
   2 -13  -8 2286.70 571.299   5
  -2 -13   8 2719.47 583.864  10
  -2  13   7 341.595 296.121   3
   2 -13  -7 461.940 280.270   5
   2  13  -7 453.324 353.898   1
  -2 -13   7 238.542 265.734   2
  -2 -13   7 49.5677 264.852  10
  -2  13   7 175.856 273.044   9
  -2 -13   6-24.4823 206.617   2
  -2  13   6 70.9106 227.314   3
   2 -13  -6 519.193 310.507   5
   2  13  -6-107.643 246.837   1
  -2  13   6 342.842 397.154   9
  -2 -13   6 745.604 311.836   5
   2  13  -6-73.9739 187.041   9
   2  13  -5 4926.18 712.514   1
  -2 -13   5 6695.01 766.415   2
  -2  13   5 7251.11 859.961   3
  -2 -13   5 6795.87 758.593   5
  -2  13   5 6247.41 818.923   9
   2 -13  -5 6377.26 792.072   5
   2  13  -5 4923.08 665.377   9
  -2 -13   4 495.564 302.417   5
  -2  13   4 289.475 287.688   3
   2 -13  -4 227.215 323.519   5
   2  13  -4 466.943 318.469   1
  -2 -13   4 398.076 261.809   2
  -2  13   4 946.562 418.549   9
   2  13  -4 132.455 247.269   9
  -2  13   3 996.206 342.763   3
   2 -13  -3 2017.33 461.751   5
  -2 -13   3 1760.04 409.906   5
  -2 -13   3 1994.40 402.519   2
  -2  13   3 1709.61 412.843   9
   2  13  -3 1413.19 385.866   9
  -2 -13   2 8657.37 768.031   2
  -2  13   2 7362.39 832.499   3
  -2  13   2 7704.93 798.106   9
   2  13  -2 7792.28 818.597   9
  -2 -13   2 9568.89 835.457   5
   2 -13  -2 9130.14 886.371   5
  -2  13   1 19420.0 1182.85   9
  -2 -13   1 22216.6 1273.29   5
  -2 -13   1 21125.7 1168.33   2
  -2  13   1 19673.4 1361.68   3
   2  13  -1 22817.6 1410.02   9
   2 -13  -1 20450.5 1333.12   5
   2 -13   0 835.603 314.525   5
  -2  13   0 347.928 267.339   3
  -2 -13   0 546.780 334.146   5
  -2 -13   0 322.550 187.087   2
   2 -13   0 515.360 210.950   7
  -2  13   0 821.581 287.934   9
   2  13   0 1039.61 403.964   9
   2 -13   1 7837.03 640.857   7
  -2 -13  -1 8420.71 711.417   2
  -2  13  -1 9029.61 906.846   3
  -2  13  -1 7455.13 656.613   9
   2  13   1 9423.16 954.615   9
   2 -13   1 7651.74 823.098   5
  -2 -13  -1 8246.93 796.442   5
   2 -13   2 444.975 334.084   5
  -2  13  -2 392.122 311.458   3
  -2 -13  -2 193.749 190.406   2
  -2 -13  -2 266.356 261.354   5
   2 -13   2 146.166 174.356   7
   2  13   2-14.2130 274.348   9
   2 -13   3-41.1660 232.956   5
  -2  13  -3 222.346 260.952   3
  -2 -13  -3 373.183 273.424   5
   2 -13   3 376.799 264.741   7
   2  13   3 535.148 361.265   9
  -2 -13  -3 373.648 230.818   2
  -2 -13  -4 206.529 306.755   5
   2 -13   4 437.416 268.444   7
   2  13   4 815.536 347.110   9
  -2  13  -4 136.603 217.123   3
   2 -13   4 285.174 396.134   5
  -2 -13  -5 3270.69 620.401   5
   2 -13   5 3794.21 582.648   7
   2 -13   5 4358.58 721.662   5
   2  13   5 3504.43 643.325   9
  -2  13  -5 3899.71 635.588   3
  -2 -13  -6 29.6394 319.459   5
   2 -13   6 72.0282 258.377   7
  -2  13  -6 1099.30 409.822   3
   2  13   6 506.853 342.486   9
  -2 -13  -7 2601.85 601.838   5
   2 -13   7 1598.25 461.719   7
  -2  13  -7 2499.95 562.468   6
   2  13   7 2669.41 623.021   9
   2 -13   8 1578.53 492.042   7
  -2  14   8 3274.83 619.934   3
   2 -14  -8 4049.46 720.097   5
  -2 -14   8 4214.49 764.202  10
   2  14  -8 3860.92 694.895   1
   2  14  -7 1671.55 494.440   1
   2  14  -7 1352.78 379.284   9
  -2  14   7 917.556 385.718   3
   2 -14  -7 1599.25 497.962   5
  -2 -14   7 1069.04 438.327   2
  -2  14   7 1906.77 565.968   9
  -2 -14   6 185.817 242.543   2
  -2  14   6 1140.27 375.935   3
   2 -14  -6 859.845 444.243   5
   2  14  -6 1074.46 434.454   1
  -2  14   6 477.138 407.182   9
  -2 -14   6 205.860 265.858   5
   2  14  -6 845.387 335.165   9
  -2  14   5 2535.12 568.963   3
   2 -14  -5 2885.92 592.735   5
   2  14  -5 1163.26 425.691   1
  -2  14   5 2386.77 555.495   9
   2  14  -5 2089.73 471.380   9
  -2 -14   5 2288.41 475.659   2
  -2 -14   5 2173.64 528.609   5
   2  14  -4 8078.63 885.453   1
  -2 -14   4 6815.75 760.566   2
  -2  14   4 8051.59 929.405   3
  -2  14   4 7403.18 868.542   9
  -2 -14   4 8165.17 829.852   5
   2  14  -4 7196.10 819.975   9
   2 -14  -4 7727.77 864.061   5
  -2 -14   3 2376.12 457.737   5
  -2  14   3 3048.75 572.466   3
   2 -14  -3 3114.31 593.208   5
  -2 -14   3 3178.04 500.392   2
  -2  14   3 2280.84 503.779   9
   2  14  -3 2430.21 523.834   9
  -2  14   2 6095.60 723.205   9
  -2 -14   2 6944.99 706.962   2
  -2  14   2 6376.04 828.801   3
   2  14  -2 6626.62 786.589   9
   2 -14  -2 7829.52 852.556   5
  -2 -14   2 7157.23 749.533   5
   2 -14  -1 998.218 391.382   5
  -2 -14   1 319.467 265.844   5
  -2  14   1 644.497 321.541   3
  -2 -14   1 649.012 251.379   2
  -2  14   1 307.830 252.740   9
   2  14  -1 907.726 421.287   9
  -2  14   0 8202.15 771.684   9
  -2 -14   0 8934.40 752.601   2
   2 -14   0 8125.53 892.871   5
  -2  14   0 9272.91 972.517   3
   2  14   0 7414.64 840.905   9
  -2 -14   0 9283.63 869.569   5
   2 -14   1 999.610 418.225   5
  -2  14  -1 1440.96 469.857   3
  -2 -14  -1 1145.96 363.597   5
  -2 -14  -1 640.021 232.180   2
   2  14   1 443.564 343.957   9
  -2  14  -2 3148.51 583.575   3
   2 -14   2 2186.04 487.135   5
  -2 -14  -2 1843.22 412.862   5
   2  14   2 2695.89 572.499   9
  -2  14  -3 7835.83 905.478   3
   2 -14   3 8714.99 974.094   5
   2  14   3 8304.03 957.290   9
  -2 -14  -3 9031.47 939.114   5
  -2 -14  -4 3887.03 652.564   5
   2  14   4 5175.61 781.276   9
  -2  14  -4 3737.47 632.442   3
   2 -14   4 4894.13 766.281   5
  -2 -14  -5 3955.30 679.930   5
   2 -14   5 4830.39 774.455   5
   2  14   5 3485.95 668.446   9
  -2  14  -5 4685.35 718.794   3
  -2 -14  -6 1271.16 482.094   5
   2  14   6 770.750 463.775   9
  -2  14  -6 1796.46 453.522   3
  -2  14  -7 1033.94 402.992   6
  -2  15   8 5744.07 868.544   3
  -2  15   7 377.515 325.325   3
   2 -15  -7 664.293 398.991   5
  -2 -15   7 165.870 213.836   2
   2  15  -7 493.225 355.690   1
  -2  15   7-347.037 288.899   9
  -2  15   6 8882.39 1038.14   3
   2  15  -6 9876.34 1049.03   1
  -2 -15   6 7187.69 875.208   2
  -2  15   6 9045.46 1073.91   9
  -2 -15   6 10094.4 1002.69   5
   2  15  -6 8668.08 936.109   9
   2 -15  -6 9440.25 1065.87   5
  -2 -15   5 1453.55 395.805   2
  -2  15   5 1896.90 512.995   3
   2 -15  -5 2158.14 523.523   5
   2  15  -5 1767.37 472.977   1
  -2  15   5 1734.90 486.967   9
   2  15  -5 1748.78 442.504   9
  -2 -15   5 1179.19 431.619   5
  -2 -15   4 251.697 294.754   5
  -2  15   4-36.5975 246.883   3
   2 -15  -4 557.443 363.194   5
  -2  15   4 655.151 381.881   9
  -2 -15   4 176.186 215.252   2
   2  15  -4-1.11367 251.300   9
  -2 -15   3 393.703 304.811   5
   2 -15  -3 257.783 281.496   5
  -2  15   3-197.026 281.524   3
  -2 -15   3 475.504 251.494   2
  -2  15   3 69.5116 300.546   9
   2  15  -3 669.223 346.647   9
   2 -15  -2 2778.92 558.517   5
  -2  15   2 2675.54 599.781   3
  -2 -15   2 2837.14 528.767   5
  -2 -15   2 3103.18 488.082   2
  -2  15   2 2976.94 554.630   9
   2  15  -2 2260.70 488.875   9
  -2  15   1 9126.15 1010.59   3
  -2  15   1 7396.89 793.921   9
   2  15  -1 8071.28 915.954   9
   2 -15  -1 9280.66 959.742   5
  -2 -15   1 9490.52 912.457   5
   2 -15   0 4088.60 673.536   5
  -2  15   0 3512.23 650.458   3
  -2 -15   0 3102.43 520.124   5
  -2  15   0 2432.09 452.037   9
   2  15   0 3028.58 576.400   9
   2 -15   1 13579.8 1168.69   5
   2  15   1 12655.0 1181.37   9
  -2  15  -1 10817.4 1088.83   3
  -2 -15  -1 10836.3 990.124   5
  -2  15  -2 4699.08 735.721   3
  -2 -15  -2 3285.62 602.097   5
   2  15   2 3104.71 637.986   9
   2 -15   2 4290.92 704.460   5
   2 -15   3 422.715 356.590   5
  -2  15  -3 463.977 326.410   3
  -2 -15  -3 435.421 274.833   5
   2  15   3 221.424 322.045   9
  -2 -15  -4 294.178 294.966   5
   2  15   4 600.718 443.180   9
   2 -15   4 242.201 272.551   5
  -2  15  -4 335.685 316.335   3
  -2 -15  -5 124.842 266.448   5
   2  15   5-21.2135 280.284   9
  -2  15  -5 167.633 325.740   3
   2 -15   5 124.723 326.745   5
  -2 -15  -6 12827.4 1275.00   5
  -2  16   7 1890.66 568.648   3
  -2  16   6 793.694 386.088   3
   2 -16  -6 355.859 392.576   5
   2  16  -6-45.5803 260.655   1
  -2  16   6 605.480 432.190   9
   2  16  -6 321.120 244.020   9
  -2 -16   6 171.854 273.746   5
   2  16  -5 22647.0 1632.95   1
  -2  16   5 21508.5 1645.77   3
  -2  16   5 25104.1 1761.72   9
  -2 -16   5 21851.5 1522.76   5
   2  16  -5 19156.0 1417.60   9
   2 -16  -5 22827.8 1668.39   5
  -2 -16   4 700.854 321.220   5
  -2  16   4 906.747 386.979   3
   2 -16  -4 1755.85 473.659   5
  -2  16   4 1294.59 434.169   9
   2  16  -4 1663.53 477.168   9
   2 -16  -3 2395.68 553.262   5
  -2  16   3 2426.33 618.476   3
  -2 -16   3 2448.95 503.357   5
  -2  16   3 1929.49 463.393   9
   2  16  -3 1858.55 467.350   9
  -2 -16   2-302.633 271.120   5
  -2  16   2-291.046 259.362   9
   2 -16  -2 355.357 264.256   5
  -2  16   2 3.48902 259.881   3
   2 -16  -1 2704.59 577.083   5
  -2 -16   1 1980.84 485.786   5
  -2  16   1 2161.72 540.311   3
  -2  16   1 1640.18 421.138   9
   2  16  -1 1902.09 496.891   9
  -2  16   0 5275.82 792.616   3
  -2 -16   0 4157.07 645.647   5
   2 -16   0 4872.42 743.462   5
   2  16   0 4086.14 688.259   9
  -2  16  -1 1926.91 503.984   3
  -2 -16  -1 1516.66 421.199   5
   2 -16   1 1389.85 463.225   5
   2  16   1 1102.36 467.534   9
   2 -16   2 285.427 315.786   5
  -2  16  -2 486.376 409.125   3
  -2 -16  -2 699.012 331.525   5
   2  16   2 1399.57 473.699   9
   2  16   3 19380.0 1556.98   9
  -2  16  -3 21668.4 1595.44   3
   2 -16   3 23875.1 1691.36   5
  -2 -16  -3 22560.3 1572.96   5
  -2 -16  -4 745.602 369.229   5
   2  16   4 522.260 360.845   9
   2 -16   4 385.432 380.165   5
  -2  16  -4 121.237 278.393   3
  -2  16  -5 10256.7 1102.93   3
  -2 -16  -5 8660.46 1047.01   5
  -2 -17   6 681.363 365.228   5
  -2  17   5-355.693 332.421   3
  -2  17   5 614.838 472.807   9
   2  17  -5 499.504 340.265   9
  -2 -17   5-7.80514 287.276   5
  -2 -17   4 2477.32 545.426   5
  -2  17   4 2917.63 675.393   3
   2 -17  -4 2451.90 598.018   5
   2  17  -4 2916.87 651.773   1
  -2  17   4 1468.40 496.113   9
   2  17  -4 2489.56 556.739   9
   2 -17  -3 6115.83 874.407   5
  -2 -17   3 7025.18 863.897   5
  -2  17   3 4888.53 767.350   9
  -2  17   3 5591.26 872.430   3
   2  17  -3 6038.53 834.722   9
   2  17  -2 8214.00 982.292   9
  -2  17   2 8379.48 1041.47   3
  -2  17   2 6739.41 864.554   9
   2 -17  -2 8597.39 1017.74   5
  -2 -17   2 7543.63 880.137   5
   2 -17  -1 89.7338 347.165   5
  -2  17   1 325.140 329.114   3
  -2  17   1 35.9328 259.474   9
   2  17  -1 663.240 412.189   9
  -2 -17   1 124.180 272.454   5
   2 -17   0 1982.89 567.075   5
  -2  17   0 1522.88 495.692   3
  -2 -17   0 1353.10 420.950   5
   2  17   0 1520.29 507.521   9
   2 -17   1 2323.97 582.679   5
  -2  17  -1 2460.83 581.348   3
  -2 -17  -1 1889.96 480.538   5
   2  17   1 1875.26 562.324   9
   2 -17   2 6692.12 924.248   5
  -2  17  -2 6150.37 902.001   3
  -2 -17  -2 5522.44 803.797   5
   2  17   2 6275.75 918.235   9
  -2  17  -3 2911.13 607.517   3
  -2 -17  -3 2819.45 593.797   5
  -2 -17  -4 1151.78 440.731   5
  -2  17  -4 2225.90 550.584   3
  -2  17  -5-106.968 280.077   3
   2  18  -5 3271.71 659.329   9
  -2 -18   5 4549.72 748.232   5
  -2 -18   4 375.336 228.489   5
  -2  18   4 62.6984 280.812   9
   2  18  -4-9.65226 275.781   9
  -2 -18   3 88.6823 278.101   5
  -2  18   3 57.6572 278.819   9
   2  18  -3-24.4444 263.022   9
  -2 -18   2 570.333 328.519   5
  -2  18   2 363.428 296.996   9
   2  18  -2 1024.31 416.596   9
  -2 -18   1 551.350 338.337   5
   2  18  -1 945.564 412.039   9
  -2 -18   0 2167.05 536.189   5
   2  18   0 2024.03 545.930   9
  -2 -18  -1 2850.71 597.125   5
  -2 -18  -2 708.804 360.482   5
  -2  19   3 554.002 361.323   9
  -2 -19   2 1856.94 502.581   5
  -2 -19   1 1704.21 512.043   5
   3   0 -12 1576.84 536.136   8
   3   0 -12 2298.56 524.569   6
  -3   0  12 2340.35 609.692  10
   3   0 -11 133.053 288.603   8
  -3   0  11 539.159 375.264  10
   3   0 -11 12.9824 254.181   6
   3   0 -10 1644.06 439.773   8
  -3   0  10 1826.74 530.713  10
   3   0 -10 1026.06 367.184   6
  -3   0   9 452.116 323.672  10
  -3   0   9 72.4670 260.471   2
   3   0  -9 873.827 393.134   6
   3   0  -9 576.678 330.485   8
  -3   0   8 1485.70 367.641   2
  -3   0   8 1974.67 459.829   4
  -3   0   8 1914.96 424.495  10
   3   0  -8 1946.99 430.285   6
   3   0  -8 2030.95 441.232   8
   3   0  -7-60.8640 183.250   8
  -3   0   7 199.796 340.789   4
   3   0  -7 608.076 271.701   6
  -3   0   7 621.406 278.795  10
  -3   0   7-92.0875 174.313   2
   3   0  -6 568.316 282.855   8
  -3   0   6 661.047 332.897   4
  -3   0   6 511.417 157.506   3
  -3   0   6 743.775 274.888  10
  -3   0   6 774.928 270.006   2
   3   0  -5 213.102 247.604   8
  -3   0   5 75.2882 195.806  10
  -3   0   5-58.2066 232.734   4
  -3   0   5 267.111 168.808   2
  -3   0   5 120.301 139.211   3
   3   0  -4 2686.90 401.482   8
  -3   0   4 2298.33 348.726   2
  -3   0   4 2343.75 416.294   4
  -3   0   4 1890.66 308.687  10
  -3   0   4 2287.87 311.845   3
   3   0  -3 47.3165 164.449   8
  -3   0   3 248.618 179.127   2
  -3   0   3-80.0740 134.047   3
  -3   0   3 6.96414 121.547  10
  -3   0   2 269.109 130.094  10
   3   0  -2 123.047 200.747   8
  -3   0   2 43.1039 167.477   2
  -3   0   2 95.0525 138.193   3
   3   0  -2 105.652 96.7918  10
   3   0  -1-5.88937 156.159   8
   3   0  -1 8.04677 78.3871  10
  -3   0   1-0.26286 26.5790   5
  -3   0   1-74.1390 145.335   3
  -3   0   1 17.0439 142.282   2
  -3   0   0 7906.11 610.328   2
   3   0   0 8787.76 623.002   7
  -3   0   0 7628.00 648.698   3
   3   0   0 7378.69 339.735  10
  -3   0   0 7293.38 357.723   5
   3   0   0 7745.97 620.784   8
  -3   0  -1 160.398 210.669   3
   3   0   1 245.120 184.325   7
   3   0   1 88.6195 77.2678  10
   3   0   2 1953.50 355.494   7
  -3   0  -2 1244.75 330.120   3
  -3   0  -3 310.441 276.006   3
   3   0   3 229.892 263.573   7
   3   0   3 341.960 197.991  10
   3   0   3 106.633 112.844   9
   3   0   4 10691.2 849.383   7
  -3   0  -4 10041.1 836.632   3
  -3   0  -4 9154.19 760.170   6
   3   0   4 10148.0 646.620  10
   3   0   4 9448.16 529.688   9
   3   0   5 137.158 211.349   7
  -3   0  -5 459.888 287.354   6
   3   0   5 323.318 217.662  10
  -3   0  -6 1324.20 440.670   6
   3   0   6 2100.99 498.734   7
   3   0   6 1879.67 361.129  10
   3   0   7-95.9674 230.144   7
  -3   0  -7 228.757 295.642   6
   3   0   7 45.3828 216.951  10
  -3   0  -8 5236.09 769.647   6
   3   0   8 4630.18 735.255   7
   3   0   8 4682.15 634.081  10
   3   0   9-469.899 343.026   7
  -3   0  -9 1410.38 491.309   6
  -3   1  12 1261.39 485.849  10
   3  -1 -12 2273.86 594.588   8
   3  -1 -12 1331.48 446.728   6
   3   1 -12 1691.11 493.586   6
  -3  -1  12 1818.52 538.161  10
   3  -1 -11 6633.48 902.816   8
   3   1 -11 6132.02 867.824   8
   3  -1 -11 5582.56 763.523   6
   3   1 -11 6146.12 781.425   6
  -3  -1  11 7598.76 943.075  10
  -3   1  11 4982.88 798.109  10
   3  -1 -10 541.340 364.576   8
   3  -1 -10 1144.64 423.469   6
   3   1 -10 261.274 266.868   6
   3   1 -10 990.035 375.924   8
  -3  -1  10 1294.94 472.712  10
  -3   1  10 1025.87 435.570  10
   3   1  -9 6590.85 816.633   8
  -3  -1   9 5034.87 695.641   2
   3  -1  -9 7677.06 785.852   6
   3   1  -9 7938.77 761.739   6
   3  -1  -9 6859.08 841.998   8
  -3  -1   9 7799.25 867.246  10
  -3   1   9 7609.31 842.673  10
  -3  -1   8 1031.06 330.616   2
   3   1  -8 1567.20 400.434   8
   3  -1  -8 1082.56 372.137   8
  -3   1   8 1481.69 362.883   2
  -3   1   8 1557.23 405.480   4
   3  -1  -8 1986.95 431.709   6
   3   1  -8 1279.01 323.825   6
  -3  -1   8 1395.51 404.970  10
  -3   1   8 2264.07 472.082  10
   3   1  -7 8498.82 802.486   8
  -3  -1   7 9868.06 874.088   4
  -3   1   7 9576.60 848.600   4
   3  -1  -7 9342.33 769.271   6
  -3   1   7 9930.45 523.353   3
   3   1  -7 9890.70 734.059   6
  -3  -1   7 8586.62 799.357   2
  -3   1   7 9253.41 795.410   2
  -3  -1   7 9379.58 812.555  10
  -3   1   7 9407.03 809.148  10
   3  -1  -7 10231.7 864.480   8
   3   1  -6 5783.84 630.180   8
   3  -1  -6 7532.42 703.561   8
  -3  -1   6 6904.67 706.396   4
  -3   1   6 6485.29 693.360   4
   3   1  -6 7035.77 566.223   6
  -3   1   6 6672.80 477.510   3
  -3  -1   6 6576.64 656.646   2
  -3   1   6 7096.15 649.693   2
  -3  -1   6 6687.22 641.565  10
  -3   1   6 6940.16 632.560  10
   3   1  -5 446.304 252.077   8
   3  -1  -5 645.061 291.764   8
  -3  -1   5 527.604 292.380   4
  -3   1   5 529.672 290.743   4
  -3  -1   5 180.072 149.825   3
  -3  -1   5 83.0705 175.166   2
  -3   1   5 20.0120 170.553   2
  -3  -1   5 298.830 202.137  10
  -3   1   5 427.660 231.606  10
  -3   1   5 422.850 179.499   3
   3   1  -5 6.92835 82.1867   5
   3  -1  -4 1192.21 289.441   8
   3   1  -4 1089.19 277.607   8
   3  -1  -4 1198.03 164.943   5
  -3  -1   4 1058.74 259.109   2
  -3  -1   4 985.420 309.487   4
  -3   1   4 1252.39 273.280   2
  -3  -1   4 1078.38 237.358   3
  -3  -1   4 1162.28 252.322  10
  -3   1   4 1342.74 246.268  10
  -3   1   4 1370.04 269.526   3
   3   1  -4 712.433 101.881   5
   3   1  -3 9147.34 692.779   8
  -3  -1   3 9852.70 728.526   4
  -3  -1   3 10060.9 692.536   2
  -3   1   3 9861.74 649.405   2
  -3  -1   3 8862.17 618.064   3
  -3   1   3 10382.1 676.931   3
   3  -1  -3 10734.9 728.917   8
  -3  -1   3 9651.23 580.800  10
  -3   1   3 9775.36 545.304  10
   3  -1  -3 9301.83 351.987   5
  -3   1   2 97.4615 155.401   2
  -3  -1   2 260.747 179.758   2
   3  -1  -2 246.140 211.954   8
   3   1  -2 28.4360 164.683   8
   3  -1  -2 218.570 112.262  10
  -3  -1   2 69.5327 121.134  10
  -3  -1   2 439.600 214.733   3
  -3   1   2 270.283 198.746   3
  -3   1   2 154.192 101.452  10
   3  -1  -2 113.967 48.6289   5
   3  -1  -1 5569.78 501.210   8
   3   1  -1 4472.23 470.065   8
  -3   1   1 4393.26 435.386   2
  -3  -1   1 5055.32 489.939   2
  -3  -1   1 5997.79 555.689   3
  -3   1   1 5351.19 534.970   3
   3   1  -1 4878.72 342.938  10
   3  -1  -1 4676.56 251.435  10
  -3   1   1 4620.52 252.688   5
  -3   1   0 7806.86 593.607   2
  -3  -1   0 7799.14 613.691   2
   3   1   0 7359.54 571.877   7
   3  -1   0 7198.03 573.198   7
   3   1   0 6321.56 590.885   8
  -3  -1   0 7184.96 627.068   3
  -3   1   0 6808.43 603.796   3
   3   1   0 7323.08 399.993  10
  -3   1   0 6670.67 359.317   1
  -3  -1   0 6591.88 320.530   5
  -3   1   0 7113.25 381.124   5
   3  -1   0 7004.96 593.980   8
   3   1   1 1288.40 294.253   7
   3  -1   1 1129.25 273.081   7
   3  -1   1 761.992 94.6744  10
  -3  -1  -1 1756.82 348.498   2
  -3  -1  -1 1684.85 383.735   3
   3  -1   1 972.811 105.392  10
  -3   1  -1 1360.03 323.986   3
   3   1   2 3058.00 434.932   7
   3  -1   2 3567.03 462.378   7
  -3  -1  -2 3619.64 499.850   3
   3  -1   2 3264.89 242.080  10
  -3   1  -2 2634.54 445.675   3
   3   1   2 3064.23 340.490   9
   3   1   3-30.5758 234.377   7
   3  -1   3 69.8570 227.653   7
  -3   1  -3 87.7954 202.341   3
   3  -1   3 462.551 157.143  10
  -3  -1  -3 352.030 253.562   6
   3  -1   3 198.886 116.275   9
   3   1   3 176.624 145.156   9
   3   1   4 15699.3 1012.37   7
   3  -1   4 15119.8 1023.88   7
   3  -1   4 14138.2 726.230  10
  -3   1  -4 15136.4 1027.05   3
  -3  -1  -4 14600.2 943.981   6
  -3   1  -4 14362.4 965.703   6
   3  -1   4 12589.4 547.604   9
   3   1   4 14125.3 722.852   9
   3   1   5 5390.50 640.008   7
   3  -1   5 4345.18 601.182   7
  -3   1  -5 5813.14 664.975   3
  -3  -1  -5 4935.45 629.272   6
  -3   1  -5 5770.01 665.686   6
   3  -1   5 4976.30 484.148  10
   3   1   5 4975.33 527.181  10
   3   1   5 5323.65 441.695   9
   3   1   6 350.031 258.715  10
   3   1   6 320.446 317.199   7
   3  -1   6 370.232 362.820   7
  -3  -1  -6 291.172 288.414   6
  -3   1  -6 388.839 294.033   6
   3  -1   6 186.427 160.073  10
   3   1   7 9887.83 974.024   7
   3  -1   7 9593.85 977.769   7
  -3  -1  -7 7189.53 859.060   6
  -3   1  -7 7448.99 867.565   6
   3  -1   7 8054.20 739.530  10
   3   1   7 7533.77 749.712  10
   3   1   8 859.610 383.493   7
   3  -1   8 815.171 390.378   7
   3   1   8 407.527 287.324  10
  -3  -1  -8 937.143 448.603   6
  -3   1  -8 264.422 344.871   6
   3   1   9 169.359 284.312   7
   3  -1   9 364.661 343.674   7
  -3  -1  -9 496.160 339.771   6
  -3   1  -9-318.541 345.170   6
   3  -2 -12 45.2570 260.479   8
  -3  -2  12 1413.30 499.594  10
   3  -2 -12 1048.38 494.126   6
   3   2 -12 729.430 371.749   6
  -3   2  12 1260.52 500.341  10
   3   2 -11 548.404 406.224   8
   3  -2 -11-101.763 252.108   8
   3  -2 -11 26.4541 289.109   6
   3   2 -11-223.692 276.027   6
  -3  -2  11 692.404 450.063  10
  -3   2  11 522.770 335.400  10
   3   2 -10 8938.50 985.960   8
   3  -2 -10 6440.98 839.606   8
   3  -2 -10 8030.07 871.770   6
   3   2 -10 8313.80 844.336   6
  -3  -2  10 7377.64 894.240  10
  -3   2  10 7715.57 909.277  10
   3   2  -9 6027.57 787.512   8
   3  -2  -9 5620.41 743.170   8
  -3   2   9 4930.04 714.495   4
   3  -2  -9 6707.44 750.921   6
   3   2  -9 5830.90 651.146   6
  -3  -2   9 5814.91 757.970   2
  -3  -2   9 5463.80 737.889  10
  -3   2   9 5548.68 734.523  10
  -3  -2   8 258.062 213.168   2
   3   2  -8 704.299 335.502   8
   3  -2  -8 447.484 311.547   8
  -3   2   8 893.224 314.282   2
  -3   2   8 763.772 327.083   4
  -3  -2   8 1325.67 400.341  10
   3  -2  -8 1154.47 364.892   6
   3   2  -8 866.845 300.978   6
  -3   2   8 963.229 355.055  10
   3   2  -7 661.051 280.286   8
   3  -2  -7 687.747 280.697   8
  -3   2   7 541.391 210.900   2
  -3   2   7 735.470 348.963   4
   3  -2  -7 696.321 324.644   6
   3   2  -7 594.468 240.545   6
  -3  -2   7 434.237 284.990  10
  -3   2   7 810.081 293.854  10
  -3   2   7 631.288 177.383   3
  -3  -2   7 229.155 185.223   2
   3   2  -6 33331.1 1559.50   8
   3  -2  -6 35962.8 1568.85   8
  -3  -2   6 33980.2 1582.70   4
  -3   2   6 35283.5 1567.45   4
   3   2  -6 35164.8 1300.54   6
  -3   2   6 34674.8 1217.40   3
  -3  -2   6 32622.1 1531.37   2
  -3   2   6 32871.2 1427.11   2
  -3  -2   6 34315.2 1500.51  10
  -3   2   6 36036.2 1484.38  10
   3   2  -5 10749.2 820.699   8
   3  -2  -5 10214.3 772.577   8
  -3  -2   5 10200.5 819.001   4
  -3  -2   5 10257.7 786.222   2
  -3   2   5 10497.8 650.806   3
  -3   2   5 10509.3 724.045   2
  -3  -2   5 10778.5 753.054  10
  -3   2   5 10808.2 717.401  10
   3   2  -5 7828.54 433.870   5
   3   2  -4 39528.6 1545.46   8
  -3  -2   4 38400.0 1508.50   4
   3  -2  -4 38468.2 1473.05   8
  -3  -2   4 38635.0 1498.51   2
  -3   2   4 38032.9 1371.16   2
  -3   2   4 39454.1 1364.25   3
  -3  -2   4 38709.5 1377.88  10
  -3   2   4 38080.8 1268.60  10
   3  -2  -4 37699.5 1052.59   5
   3  -2  -3 5128.75 514.100   8
   3   2  -3 4328.56 500.242   8
  -3  -2   3 4476.54 509.906   4
  -3  -2   3 3684.69 443.814   2
  -3   2   3 4469.72 434.878   2
  -3   2   3 4523.97 472.179   3
  -3  -2   3 4567.10 427.840  10
  -3   2   3 4540.24 356.132  10
   3  -2  -3 4181.93 282.561   5
  -3   2   2 604.048 210.087   2
   3  -2  -2 593.080 117.768   5
  -3  -2   2 619.024 219.986   2
   3  -2  -2 356.575 189.536   8
   3   2  -2 651.650 248.610   8
  -3  -2   2 633.359 195.415  10
  -3   2   2 452.041 117.470  10
  -3   2   2 559.902 216.199   3
   3  -2  -1 1957.73 332.061   8
   3   2  -1 2082.57 342.842   8
  -3  -2   1 1730.22 315.850   3
   3  -2  -1 2252.85 209.085   5
  -3   2   1 2200.69 366.099   3
  -3   2   1 2175.76 299.754   2
  -3   2   1 2017.82 195.747   5
  -3  -2   1 2087.67 345.740   2
  -3   2   0 7684.90 574.084   2
  -3  -2   0 6780.15 587.403   2
   3   2   0 8040.68 577.555   7
   3  -2   0 8208.61 634.243   7
  -3   2   0 8631.83 701.029   3
  -3   2   0 7543.48 432.973   5
   3  -2   0 6979.70 572.744   8
   3   2   0 7922.40 649.092   8
  -3  -2  -1 24778.0 1164.22   2
   3   2   1 24614.5 1072.36   7
   3  -2   1 25510.5 1153.96   7
  -3   2  -1 24585.6 1213.32   3
  -3   2  -1 20362.7 570.872   1
   3   2   2 9335.35 598.146   9
   3   2   2 9056.58 682.751   7
   3  -2   2 8752.47 694.147   7
  -3   2  -2 8838.94 733.778   3
  -3  -2  -2 8362.15 618.004   6
   3  -2   2 7066.85 301.371  10
   3   2   3 942.905 283.556   7
   3  -2   3 997.033 330.123   7
  -3   2  -3 155.885 205.028   3
   3  -2   3 744.169 160.380  10
  -3  -2  -3 528.384 233.761   6
   3  -2   3 417.066 109.677   9
   3   2   3 686.135 216.231   9
   3   2   4 26357.0 1333.85   7
   3  -2   4 28842.1 1436.05   7
  -3   2  -4 27391.4 1414.40   3
  -3  -2  -4 28339.7 1340.76   6
   3  -2   4 27559.7 1003.43  10
   3   2   4 28287.6 1131.75   9
   3   2   5 8708.11 806.234   7
   3  -2   5 8698.85 826.784   7
  -3   2  -5 9863.99 867.320   3
  -3  -2  -5 9451.02 824.111   6
  -3   2  -5 10449.7 893.880   6
   3  -2   5 8446.54 609.716  10
   3   2   5 8778.57 622.061   9
   3   2   6 4876.39 657.729   7
   3  -2   6 4594.44 647.545   7
   3  -2   6 4370.89 490.046  10
  -3   2  -6 4543.31 616.747   3
  -3  -2  -6 4864.11 649.226   6
  -3   2  -6 4065.17 616.250   6
   3   2   6 3811.20 537.278  10
   3   2   7 2478.01 524.234   7
   3  -2   7 1659.62 503.992   7
  -3  -2  -7 2842.66 586.531   6
  -3   2  -7 1954.61 464.584   6
   3   2   7 2112.98 455.584  10
   3   2   8 4074.38 672.079   7
   3  -2   8 3659.99 661.063   7
  -3   2  -8 3297.80 668.793   6
  -3  -2  -8 3796.91 677.444   6
   3   2   8 4200.58 636.556  10
   3   2   9 239.129 262.646   7
   3  -2   9-222.467 285.634   7
  -3   2  -9 374.330 424.565   6
   3   2   9 465.828 312.324  10
  -3  -2  -9 1180.31 469.528   6
   3  -3 -12 2444.12 603.702   8
   3  -3 -12 3169.02 674.346   6
  -3   3  12 2266.59 576.045  10
   3   3 -11 614.690 362.577   8
   3  -3 -11 517.432 369.556   8
  -3  -3  11 394.998 365.077  10
   3  -3 -11 280.492 263.995   6
   3   3 -11-23.8223 288.141   6
  -3   3  11-371.145 363.379  10
   3   3 -10 7498.53 938.838   8
   3  -3 -10 5504.91 771.132   8
   3  -3 -10 7441.09 833.603   6
   3   3 -10 7076.19 740.358   6
  -3   3  10 7609.71 897.741  10
  -3  -3  10 7100.97 878.918  10
   3   3  -9 10438.4 1027.34   8
  -3   3   9 10189.8 945.029   4
   3  -3  -9 10523.7 961.290   6
   3   3  -9 10711.4 841.929   6
   3  -3  -9 9313.01 941.493   8
  -3  -3   9 8153.03 904.582   2
  -3  -3   9 9984.35 989.399  10
  -3   3   9 9951.16 972.495  10
  -3  -3   8 472.909 257.130   2
   3   3  -8 962.871 378.308   8
   3  -3  -8 380.026 294.080   8
  -3   3   8 441.563 222.128   2
  -3   3   8 1048.38 362.650   4
   3  -3  -8 674.951 271.639   6
   3   3  -8 1050.70 301.079   6
  -3  -3   8 1071.61 391.911  10
  -3   3   8 1362.02 406.834  10
   3   3  -7 26796.6 1464.31   8
  -3   3   7 26388.9 1403.84   4
   3   3  -7 28318.6 1197.79   6
  -3   3   7 27065.1 1065.94   3
  -3  -3   7 24756.5 1411.99   2
  -3   3   7 25176.2 1281.07   2
  -3  -3   7 27336.8 1436.81  10
   3  -3  -7 25233.3 1382.14   8
  -3   3   7 27343.6 1393.96  10
   3   3  -6 13174.5 960.973   8
   3  -3  -6 14522.9 965.822   8
  -3   3   6 14095.3 982.915   4
   3   3  -6 13532.3 746.123   6
  -3   3   6 14450.0 781.269   3
  -3  -3   6 13971.7 994.126   2
  -3   3   6 13137.6 843.028   2
  -3  -3   6 14159.7 960.964  10
  -3   3   6 14205.7 909.878  10
   3   3  -5 503.927 125.992   5
   3   3  -5 846.848 276.413   8
   3  -3  -5 821.083 269.003   8
   3  -3  -5 860.076 211.937   5
  -3  -3   5 1253.64 376.848   4
  -3  -3   5 824.445 259.328   2
  -3   3   5 1034.20 225.505   2
  -3  -3   5 1316.27 335.941  10
  -3   3   5 1144.84 295.091  10
  -3   3   5 1120.93 274.156   3
   3  -3  -4 25254.6 1156.56   8
  -3  -3   4 21993.3 1131.20   4
   3   3  -4 22929.3 1164.70   8
  -3  -3   4 22320.9 1143.42   2
  -3   3   4 25078.4 1046.31   2
  -3   3   4 25251.6 1094.19   3
  -3  -3   4 23206.7 1077.92  10
  -3   3   4 22665.3 955.911  10
   3  -3  -4 23201.6 856.544   5
   3  -3  -3 71597.0 2081.66   8
   3   3  -3 69233.4 2159.44   8
  -3  -3   3 65552.6 2062.17   4
  -3  -3   3 66898.9 2124.64   2
  -3   3   3 73405.3 1940.67   2
  -3  -3   3 70467.2 1605.09   6
  -3   3   3 69777.3 2084.44   3
  -3  -3   3 69617.6 1966.62  10
  -3   3   3 68760.9 1708.94  10
   3  -3  -3 70639.1 1672.66   5
   3   3  -2 12825.3 810.903   8
   3  -3  -2 12816.8 749.667   8
  -3   3   2 12512.1 681.635   2
  -3  -3   2 12493.3 754.366   4
  -3  -3   2 12910.8 810.684   2
  -3  -3   2 11926.8 496.748   6
  -3   3   2 12764.8 817.822   3
  -3   3   2 10870.1 444.380  10
   3  -3  -2 11684.8 531.378   5
   3  -3  -1 5580.04 494.174   8
   3   3  -1 6067.67 563.138   8
  -3   3   1 7304.89 515.423   2
  -3  -3   1 6714.17 588.731   2
  -3  -3   1 6502.14 524.034   4
  -3   3   1 6126.15 588.324   3
   3  -3  -1 5992.34 387.048   5
  -3   3   1 6142.17 385.850   5
   3   3  -1 6459.77 465.792   1
   3   3   0 1630.95 330.799   8
   3   3   0 1968.49 307.896   7
   3  -3   0 1339.17 303.875   7
   3   3   0 2033.79 256.703   1
  -3   3   0 1913.44 302.912   2
  -3  -3   0 1562.71 298.259   2
  -3   3   0 1591.81 340.695   3
   3  -3   0 1666.03 253.044   5
   3  -3   0 1722.34 299.805   8
  -3  -3  -1 57696.9 1950.13   2
   3   3   1 58726.8 1787.54   7
   3  -3   1 57271.1 1907.16   7
  -3   3  -1 54782.3 1981.58   3
  -3  -3  -1 60902.4 1646.77   6
   3   3   1 59670.9 1413.62   1
   3   3   2 1655.70 308.196   7
   3  -3   2 1761.73 375.683   7
   3   3   2 1336.46 159.684   1
  -3  -3  -2 1547.78 286.259   6
  -3   3  -2 1830.06 385.410   3
   3   3   2 1920.23 310.296   9
   3   3   3 416.685 86.4824   1
   3   3   3 342.822 205.209   7
   3  -3   3 505.075 298.065   7
   3   3   3 723.938 211.524   9
   3  -3   3 453.726 120.426  10
  -3  -3  -3 703.344 235.575   6
  -3   3  -3 1007.08 312.372   3
   3  -3   3 399.765 66.2797   9
   3   3   4 6784.32 667.342   7
   3  -3   4 6289.89 671.315   7
  -3   3  -4 6470.77 682.180   3
  -3  -3  -4 7010.82 653.630   6
   3  -3   4 5710.66 417.283  10
   3   3   4 5998.68 542.162   9
   3   3   5 29621.9 1470.16   7
   3  -3   5 27949.1 1515.25   7
  -3   3  -5 29234.3 1505.77   3
  -3  -3  -5 26051.1 1392.41   6
  -3   3  -5 28534.9 1504.57   6
   3  -3   5 27076.5 1091.51  10
   3   3   5 25404.7 1172.40   9
   3   3   6 815.777 315.507   7
   3  -3   6 272.974 311.752   7
  -3   3  -6 761.547 308.270   3
  -3  -3  -6 825.480 366.131   6
   3  -3   6 539.205 231.231  10
  -3   3  -6 346.012 301.851   6
   3   3   6 651.365 236.755   9
   3   3   7 5261.76 722.947   7
   3  -3   7 4351.07 702.690   7
  -3   3  -7 5317.92 696.280   3
  -3  -3  -7 4181.47 637.661   6
   3   3   7 4669.96 613.425  10
  -3   3  -7 6128.21 784.557   6
   3   3   8 2077.58 521.068   7
   3  -3   8 3873.04 707.094   7
  -3  -3  -8 2928.59 619.521   6
  -3   3  -8 2260.48 597.936   6
   3   3   8 3415.16 587.193  10
   3   3   9 1056.68 481.281   7
   3  -3   9-246.226 287.768   7
  -3  -3  -9 593.903 398.995   6
  -3   3  -9 887.210 467.547   6
   3   3   9 222.377 305.958  10
   3  -4 -12 816.479 425.808   8
   3  -4 -12 400.573 278.957   6
   3   4 -11 4684.90 767.761   8
   3  -4 -11 4519.28 766.246   8
   3  -4 -11 5280.29 806.389   6
  -3  -4  11 6729.17 915.112  10
  -3   4  11 5250.13 796.837  10
   3   4 -10 2478.07 562.422   8
   3  -4 -10 3250.51 607.324   8
  -3  -4  10 2549.75 585.274   2
   3  -4 -10 4203.09 672.678   6
   3   4 -10 3252.70 499.225   6
  -3  -4  10 4728.10 741.519  10
  -3   4  10 3622.86 646.844  10
   3   4  -9 6120.33 798.025   8
   3  -4  -9 6386.52 773.552   8
  -3  -4   9 6090.00 790.080   2
  -3   4   9 5804.73 731.985   4
   3  -4  -9 7463.04 841.783   6
   3   4  -9 6663.87 652.491   6
  -3  -4   9 7155.40 852.869  10
  -3   4   9 7354.38 838.917  10
  -3  -4   8 1444.36 420.802   2
   3   4  -8 2771.99 508.275   8
   3  -4  -8 2487.81 470.233   8
  -3   4   8 3258.17 548.779   4
   3  -4  -8 3174.72 543.796   6
   3   4  -8 2814.58 408.974   6
  -3  -4   8 2909.81 546.718  10
  -3   4   8 2496.69 514.044  10
   3   4  -7 9689.93 874.199   8
   3  -4  -7 8284.42 761.676   8
  -3   4   7 8698.74 813.062   4
   3   4  -7 8569.55 617.586   6
  -3   4   7 8320.36 608.451   3
  -3  -4   7 7495.68 789.073   2
  -3  -4   7 8826.61 821.129  10
  -3   4   7 7789.50 682.489   2
  -3   4   7 7368.04 725.663  10
   3   4  -6 22620.5 1288.82   8
   3  -4  -6 21379.1 1177.30   8
   3   4  -6 23835.1 954.480   6
  -3  -4   6 19856.6 1224.39   2
  -3   4   6 24506.9 1095.00   3
  -3   4   6 22468.9 1106.50   2
  -3  -4   6 22213.8 1241.77  10
  -3   4   6 24430.6 1212.28  10
   3  -4  -6 22850.2 1073.71   5
   3   4  -5 11075.3 857.245   8
   3  -4  -5 10359.0 764.634   8
  -3  -4   5 10431.7 830.743   2
  -3   4   5 11252.0 707.681   2
  -3   4   5 10856.7 744.121   3
  -3  -4   5 11186.2 818.092  10
  -3   4   5 10604.9 723.211  10
   3  -4  -5 10617.3 657.551   5
   3  -4  -4 9728.95 697.116   8
   3   4  -4 8740.61 724.551   8
  -3  -4   4 7839.95 691.052   4
  -3  -4   4 8914.78 747.283   2
  -3   4   4 8902.86 591.816   2
  -3  -4   4 9002.18 451.404   6
  -3   4   4 9607.61 691.375   3
  -3  -4   4 8787.17 673.194  10
  -3   4   4 9369.81 600.021  10
   3   4  -4 7250.43 370.543   5
   3  -4  -4 9626.82 572.699   5
   3   4  -3 16692.6 968.607   8
  -3  -4   3 16733.0 944.766   4
  -3  -4   3 16979.0 987.131   2
  -3   4   3 17545.8 799.016   2
  -3  -4   3 16193.0 549.221   6
  -3   4   3 17041.1 962.382   3
  -3  -4   3 16630.3 893.467  10
  -3   4   3 16428.2 702.776  10
   3  -4  -3 17522.9 896.969   8
   3  -4  -3 17453.5 752.952   5
   3   4  -3 17909.3 944.437   1
   3  -4  -2 19463.3 914.666   8
   3   4  -2 18354.8 991.620   8
  -3  -4   2 19241.4 950.451   4
  -3   4   2 20025.6 844.396   2
  -3  -4   2 18307.4 993.912   2
  -3  -4   2 16455.4 545.612   6
  -3   4   2 19505.1 1043.68   3
  -3   4   2 18278.2 600.760  10
  -3  -4   2 17490.0 466.878   5
   3   4  -2 19811.8 929.318   1
   3  -4  -2 19963.6 786.696   5
   3  -4  -1 88481.3 2294.52   8
   3   4  -1 88578.5 2458.79   8
  -3   4   1 89979.6 2192.12   2
  -3  -4   1 87264.8 2476.60   2
  -3  -4   1 85871.2 2233.08   4
  -3   4   1 87961.1 2547.79   3
   3   4  -1 87910.4 2173.60   1
   3  -4  -1 87400.3 2084.07   5
  -3  -4   1 82662.3 1687.65   5
   3   4   0 1290.36 326.305   8
  -3  -4   0 1280.77 177.319   5
  -3  -4   0 1442.34 285.197   4
  -3   4   0 1213.86 252.834   2
   3   4   0 667.984 198.695   7
   3  -4   0 1036.84 298.613   7
   3   4   0 1595.62 248.027   1
  -3  -4   0 1535.14 212.080   6
  -3  -4   0 1236.69 305.178   2
  -3   4   0 1770.75 376.999   3
   3  -4   0 1276.65 245.209   5
  -3  -4  -1 58855.8 1989.21   2
   3   4   1 58754.6 1766.72   7
   3  -4   1 58974.8 1943.30   7
   3   4   1 58578.2 1500.66   1
  -3   4  -1 59178.2 2068.10   3
  -3  -4  -1 59974.6 1608.12   6
   3  -4   1 55681.9 1468.54   9
   3  -4   1 57881.8 1740.59   5
   3   4   2 262.292 203.429   7
   3  -4   2 620.345 293.431   7
  -3  -4  -2 198.583 209.226   2
  -3  -4  -2 512.840 216.791   6
  -3   4  -2 222.280 243.609   3
   3  -4   2 296.280 87.1496   9
   3   4   2 312.732 178.156   9
   3   4   3 11591.5 790.457   7
   3  -4   3 12747.7 928.798   7
  -3   4  -3 12070.0 915.522   3
  -3  -4  -3 11833.0 767.761   6
   3  -4   3 10664.6 449.942  10
   3   4   3 11278.9 761.774   9
   3   4   4 13515.4 914.687   7
   3  -4   4 14966.6 1043.99   7
  -3   4  -4 14584.9 1030.60   3
  -3  -4  -4 13588.4 909.124   6
   3  -4   4 13177.7 626.996  10
   3   4   4 14165.0 871.601   9
   3   4   5 1429.24 388.625   7
   3  -4   5 1716.69 456.494   7
  -3  -4  -5 1055.24 340.405   6
   3  -4   5 1130.18 231.649  10
  -3   4  -5 1093.57 360.460   3
   3   4   5 1506.96 326.903   9
  -3  -4  -6 3356.99 558.250   6
   3   4   6 2411.38 470.360   7
   3  -4   6 2449.03 524.431   7
  -3   4  -6 3267.91 557.228   3
  -3   4  -6 3613.12 601.255   6
   3   4   6 3437.16 458.361   9
   3   4   7 9331.00 906.053  10
   3   4   7 9245.55 934.287   7
   3  -4   7 9273.76 994.550   7
  -3   4  -7 10023.4 936.523   3
  -3  -4  -7 9346.59 954.831   6
  -3   4  -7 11987.5 1095.80   6
  -3   4  -8 2022.02 529.098   6
   3   4   8 1575.12 462.330   7
   3  -4   8 1403.79 471.310   7
  -3  -4  -8 1509.64 509.945   6
   3   4   8 1785.11 485.529  10
   3   4   9 1520.10 472.640   7
   3  -4   9 2120.01 615.080   7
  -3  -4  -9 2218.24 587.153   6
  -3   4  -9 1553.08 523.062   6
   3   4   9 2006.98 504.357  10
   3   4  10-98.2264 293.797  10
   3  -5 -12 7243.66 971.583   8
   3   5 -11 1416.83 471.086   8
   3  -5 -11 525.297 305.837   8
  -3  -5  11 403.995 387.689  10
   3  -5 -11 932.869 452.052   6
  -3   5  11 1168.14 453.305  10
   3   5 -10 10130.1 1068.80   8
   3  -5 -10 8289.43 924.181   8
  -3   5  10 11128.1 1023.06   4
   3  -5 -10 10048.3 1025.61   6
  -3  -5  10 11273.6 1134.02  10
  -3  -5  10 8901.09 1028.23   2
  -3   5  10 10992.0 1088.50  10
   3   5  -9 2071.86 487.299   8
   3  -5  -9 2812.36 530.763   8
  -3  -5   9 2097.35 516.888   2
  -3   5   9 1836.73 484.651   4
   3  -5  -9 1981.83 459.193   6
  -3  -5   9 2927.45 577.248  10
  -3   5   9 3104.91 599.360  10
  -3  -5   8 891.057 346.941   2
   3   5  -8 1360.43 397.851   8
   3  -5  -8 1136.32 324.110   8
  -3   5   8 1221.61 432.829   4
   3   5  -8 831.351 234.905   6
  -3   5   8 1514.79 390.011  10
  -3  -5   8 1265.39 392.234  10
   3   5  -7 2425.40 468.474   8
   3  -5  -7 2776.08 470.730   8
   3  -5  -7 3476.72 490.375   5
  -3   5   7 3985.52 592.554   4
  -3   5   7 3722.74 433.825   3
   3   5  -7 2819.39 355.506   6
  -3  -5   7 3388.02 568.370  10
  -3   5   7 3349.30 532.433  10
  -3  -5   7 2491.07 497.920   2
  -3   5   6 218.179 188.299   2
   3   5  -6 75.1603 233.200   8
   3  -5  -6 666.848 268.487   8
   3  -5  -6 371.814 217.401   5
  -3  -5   6 110.740 255.202  10
   3   5  -6 508.364 191.185   6
  -3   5   6 208.656 237.912  10
  -3  -5   6 953.121 355.704   2
  -3   5   6 193.401 187.956   3
   3   5  -5 4708.59 573.006   8
   3  -5  -5 3713.59 465.913   8
  -3  -5   5 4610.66 572.942   2
  -3   5   5 4138.40 424.335   2
  -3   5   5 5083.07 536.827   3
  -3  -5   5 3968.03 519.883  10
  -3   5   5 3953.89 475.620  10
   3  -5  -5 4562.83 468.210   5
   3  -5  -4 6313.92 561.508   8
   3   5  -4 6339.58 629.326   8
  -3  -5   4 5379.36 584.341   2
  -3   5   4 6731.87 493.669   2
  -3   5   4 6812.19 608.471   3
  -3  -5   4 6079.24 590.752  10
  -3   5   4 6427.14 508.603  10
   3   5  -4 5416.31 352.705   5
   3  -5  -4 5883.06 493.596   5
   3   5  -4 6620.34 636.994   1
   3  -5  -3 11274.9 700.655   8
   3   5  -3 11100.0 792.141   8
  -3  -5   3 10384.8 745.676   4
  -3  -5   3 10785.4 797.332   2
  -3   5   3 11088.4 602.324   2
  -3   5   3 11326.1 805.574   3
  -3  -5   3 10976.8 745.652  10
  -3   5   3 11503.6 591.934  10
   3   5  -3 10972.7 762.704   1
   3  -5  -3 10753.6 629.128   5
   3   5  -3 9387.41 426.562   5
   3  -5  -2 43402.8 1445.78   8
   3   5  -2 40988.4 1581.30   8
  -3  -5   2 42250.3 1497.99   4
  -3   5   2 44037.9 1311.89   2
  -3  -5   2 42929.8 1647.22   2
  -3   5   2 41635.8 1649.08   3
  -3   5   2 40577.9 1075.33  10
  -3  -5   2 45664.0 1060.16   5
   3  -5  -2 42312.7 1348.86   5
   3   5  -2 41147.0 1484.29   1
  -3  -5   1-71.9260 161.243   2
   3  -5  -1 261.235 161.134   5
   3  -5  -1 44.8898 149.967   8
   3   5  -1 96.3429 188.579   8
  -3  -5   1 169.078 97.2357   5
  -3  -5   1 18.9619 162.961   4
   3   5  -1 85.7306 166.247   1
  -3  -5   1 172.235 66.5034   6
  -3   5   1 257.064 139.615   2
  -3   5   1-107.756 182.368   3
  -3   5   0 62513.4 1762.55   2
  -3  -5   0 59142.3 2005.97   2
   3   5   0 58372.7 1720.02   7
   3  -5   0 59786.8 1957.29   7
  -3  -5   0 61818.5 1690.37   4
   3   5   0 61784.7 1714.38   1
  -3   5   0 61472.1 2118.43   3
  -3  -5   0 62981.1 1458.51   6
   3  -5   0 61270.4 1794.61   5
  -3  -5   0 61905.6 1527.34   5
   3   5   0 62776.0 2013.33   8
  -3  -5  -1 375.021 150.019   4
   3   5   1-52.6242 160.387   7
   3  -5   1 741.241 280.533   7
  -3  -5  -1 713.441 196.331   6
  -3  -5  -1 229.935 230.107   2
  -3   5  -1 305.200 296.610   3
   3  -5   1 408.354 125.253   9
   3  -5   1 453.990 205.842   5
   3   5   1 507.244 246.777   9
  -3  -5  -2 29725.9 1406.37   2
   3   5   2 29857.7 1226.03   7
   3  -5   2 31294.8 1422.11   7
  -3  -5  -2 29760.9 919.853   4
  -3   5  -2 30145.2 1467.22   3
  -3  -5  -2 29454.9 1140.23   6
   3   5   2 29020.6 1303.24   9
   3   5   3 313.887 182.660   7
   3  -5   3 161.148 243.501   7
  -3  -5  -3 67.5915 84.0546   4
  -3   5  -3 108.882 76.5792   1
   3  -5   3 94.9612 82.0155  10
  -3  -5  -3 132.541 198.695   6
  -3   5  -3-28.7107 201.896   3
   3   5   3 344.414 225.624   9
   3   5   4 384.653 209.756   7
   3  -5   4 483.618 293.069   7
  -3  -5  -4 110.322 220.770   6
  -3   5  -4 341.850 266.527   3
   3   5   4 511.552 250.370   9
   3   5   5 3329.94 514.703   7
   3  -5   5 1867.45 419.464   7
  -3   5  -5 2326.23 456.088   3
  -3  -5  -5 2730.62 502.365   6
   3   5   5 2383.20 407.358   9
   3   5   6 802.105 357.205   7
   3  -5   6 835.296 387.119   7
  -3  -5  -6 257.721 232.473   6
  -3   5  -6 285.942 300.937   3
  -3   5  -6-48.2507 301.129   6
   3   5   6 791.455 277.486   9
   3   5   7 286.300 317.790   7
   3  -5   7-115.265 234.061   7
  -3  -5  -7 339.240 314.571   6
  -3   5  -7 352.246 295.210   3
  -3   5  -7 655.814 358.886   6
   3   5   7 117.531 213.316   9
   3   5   8 2663.99 538.991   7
   3  -5   8 3248.78 657.349   7
  -3   5  -8 2719.54 518.861   3
  -3  -5  -8 2535.96 589.728   6
  -3   5  -8 2767.26 603.923   6
   3   5   8 2952.12 596.135  10
   3   5   9 86.2888 319.061   7
   3  -5   9 685.891 470.948   7
  -3  -5  -9 450.960 417.873   6
  -3   5  -9 524.755 389.324   6
   3   5   9 528.769 343.484  10
   3   5  10 2232.41 617.104  10
   3  -6 -12 477.683 275.313   8
   3   6 -11 4791.93 802.665   8
   3  -6 -11 2900.66 614.266   8
   3  -6 -11 5207.09 826.777   6
  -3  -6  11 3636.64 737.051  10
  -3   6  11 3749.56 730.717  10
   3   6 -10 1046.98 410.825   8
   3  -6 -10 1212.69 411.894   8
  -3   6  10 237.012 255.963   4
  -3  -6  10 871.711 411.286   2
   3  -6 -10 1752.93 489.790   6
  -3  -6  10 993.846 444.318  10
  -3   6  10 1071.68 423.087  10
  -3   6   9 3525.12 618.123  10
  -3  -6   9 2407.59 546.847   2
   3   6  -9 3900.83 666.796   8
   3  -6  -9 3466.31 572.521   8
  -3   6   9 3194.87 567.904   4
  -3  -6   9 4233.40 707.509  10
   3  -6  -8 4921.61 619.755   8
   3   6  -8 4606.54 652.819   8
  -3   6   8 4523.54 629.959   4
  -3   6   8 4131.56 602.068  10
  -3  -6   8 3682.59 610.762  10
   3  -6  -8 5058.98 614.960   5
  -3  -6   8 3480.09 599.635   2
   3   6  -7 2141.77 441.294   8
   3  -6  -7 1104.83 299.026   8
   3  -6  -7 1723.80 387.910   5
  -3   6   7 2458.59 510.250   4
  -3  -6   7 1727.52 419.033  10
  -3   6   7 1398.30 394.365  10
  -3  -6   7 1102.53 373.302   2
  -3   6   7 1380.06 308.247   3
   3   6  -6 3319.84 519.698   8
   3  -6  -6 3430.18 467.307   8
   3  -6  -6 3454.63 468.237   5
  -3   6   6 3480.70 410.461   2
  -3  -6   6 3007.56 517.017  10
  -3  -6   6 3207.55 518.006   2
  -3   6   6 3334.60 435.686   3
  -3   6   6 3167.47 467.038  10
   3   6  -5 9964.46 818.708   8
   3  -6  -5 8697.93 684.876   8
  -3  -6   5 8519.36 804.186   2
  -3   6   5 9440.74 756.224   3
  -3   6   5 9194.50 587.115   2
  -3  -6   5 8486.23 771.926  10
  -3   6   5 9194.65 707.989  10
   3  -6  -5 9522.69 696.674   5
   3   6  -5 8621.60 789.279   1
   3  -6  -4 525.631 221.522   8
   3   6  -4 796.053 302.993   8
   3  -6  -4 966.457 258.787   5
  -3  -6   4 460.699 234.226   2
  -3   6   4 1123.94 204.482   2
  -3  -6   4 656.169 269.825  10
  -3   6   4 723.581 234.209  10
   3   6  -4 228.464 227.873   1
  -3   6   4 844.854 281.368   3
   3  -6  -3 25660.5 1065.53   8
   3   6  -3 24190.6 1209.25   8
  -3  -6   3 23943.7 1240.12   2
  -3   6   3 26188.3 918.321   2
  -3   6   3 25857.5 1280.14   3
  -3  -6   3 25360.2 1214.78  10
  -3   6   3 25579.1 962.342  10
   3   6  -3 23434.8 1168.36   1
  -3  -6   3 26133.8 857.337   5
   3  -6  -3 27037.5 1103.77   5
   3   6  -3 23304.3 817.144   5
  -3  -6   2 124.026 94.8082   5
   3  -6  -2 101.141 164.614   5
   3  -6  -2 87.3216 160.143   8
   3   6  -2 196.885 232.049   8
  -3   6   2 133.625 123.158   2
  -3  -6   2 165.629 205.474   2
   3   6  -2 305.952 245.930   1
  -3   6   2 91.3186 124.756  10
  -3   6   2-73.1037 217.840   3
  -3  -6   1 191.490 219.405   2
   3  -6  -1 229.581 193.560   5
   3  -6  -1 358.107 182.207   8
   3   6  -1 324.872 223.644   8
  -3  -6   1 313.675 132.537   5
   3   6  -1 219.503 231.170   1
   3  -6  -1 282.111 245.174   7
  -3   6   1 251.179 83.3907  10
  -3   6   1 136.593 136.087   2
  -3   6   1 133.303 60.2277  10
  -3   6   1-40.5987 218.219   3
   3  -6   0 105.427 178.960   5
   3   6   0 461.278 240.493   8
  -3  -6   0 270.062 160.109   5
   3   6   0 270.128 141.403   7
   3  -6   0 344.337 215.929   7
  -3   6   0 261.504 158.303   2
  -3  -6   0 117.871 88.6912   6
  -3  -6   0 139.519 195.584   2
  -3   6   0-99.7062 214.390   3
  -3  -6  -1 6562.42 648.635   2
   3   6   1 8401.34 573.721   7
   3  -6   1 8459.73 694.978   7
  -3  -6  -1 8016.83 486.960   6
  -3   6  -1 7506.33 721.957   3
   3   6   1 8814.69 722.749   9
   3  -6   1 8702.25 658.266   5
  -3  -6  -1 8399.27 563.305   5
  -3  -6  -2 13796.8 966.532   2
   3   6   2 16471.0 863.980   7
   3  -6   2 17615.9 1044.29   7
  -3  -6  -2 15150.8 784.815   6
  -3   6  -2 15893.2 1071.72   3
   3  -6   2 15352.3 952.654   5
   3   6   2 15597.0 966.150   9
  -3  -6  -3 8057.50 757.940   2
   3   6   3 7639.11 627.929   7
   3  -6   3 8689.01 779.177   7
  -3   6  -3 7084.43 733.088   3
  -3  -6  -3 8219.73 645.702   6
   3   6   3 8889.51 738.126   9
   3   6   4 353.959 229.027   7
   3  -6   4 489.586 279.979   7
  -3  -6  -4 238.679 227.670   6
  -3   6  -4 392.894 252.549   3
   3   6   4 385.700 228.229   9
   3   6   5 508.865 252.510   7
   3  -6   5 229.063 234.870   7
  -3   6  -5 253.118 281.822   3
  -3  -6  -5 283.871 266.236   6
   3   6   5 352.525 220.355   9
  -3   6  -6 2007.15 496.449   6
   3   6   6 1797.02 409.366   7
   3  -6   6 2402.27 523.143   7
  -3  -6  -6 1908.10 441.541   6
  -3   6  -6 2308.45 478.779   3
   3   6   6 1476.78 353.458   9
  -3  -6  -7 370.769 316.211   6
   3   6   7 803.257 365.702   7
   3  -6   7 26.3782 260.123   7
  -3   6  -7 789.973 376.120   3
  -3   6  -7 560.892 385.391   6
   3   6   7 325.712 270.763   9
   3   6   8 2430.41 542.057   7
   3  -6   8 3655.66 720.091   7
  -3  -6  -8 4078.81 718.647   6
  -3   6  -8 3639.19 703.197   6
   3   6   8 3735.26 668.940  10
  -3  -6  -9 4400.55 759.190   6
   3   6   9 5008.89 796.925  10
   3  -7 -12 560.054 392.886   8
   3   7 -11 1652.74 519.281   8
   3  -7 -11 2682.48 577.041   8
  -3  -7  11 3108.48 673.363  10
  -3   7  11 2460.20 588.072  10
   3   7 -10 790.098 377.129   8
   3  -7 -10-110.386 239.641   8
  -3  -7  10 816.834 369.352   2
  -3   7  10 250.833 332.743   4
  -3   7  10-1.95533 290.921  10
  -3  -7  10 356.632 314.010  10
  -3  -7   9 202.319 244.988   2
   3   7  -9 714.340 331.206   8
   3  -7  -9 185.370 224.298   8
   3  -7  -9 280.411 273.409   5
  -3   7   9 875.262 349.136   4
  -3   7   9 1041.63 424.614  10
  -3  -7   9 341.732 293.626  10
  -3  -7   8-33.8471 251.386   2
   3   7  -8 649.716 326.296   8
   3  -7  -8 247.267 233.854   8
   3  -7  -8 36.1857 227.099   5
  -3   7   8 828.040 358.691   4
  -3  -7   8 273.681 328.461  10
  -3   7   8 420.765 264.139  10
  -3   7   7 56.8399 166.324   3
   3   7  -7 630.772 303.388   8
   3  -7  -7 200.383 245.531   8
   3  -7  -7 242.779 260.307   5
  -3  -7   7 204.158 309.779  10
  -3   7   7 629.767 326.086  10
  -3  -7   7 405.739 281.074   2
  -3   7   6 2107.69 379.835   3
   3   7  -6 2982.99 502.224   8
   3  -7  -6 2351.74 396.022   8
   3  -7  -6 2078.73 399.944   5
   3   7  -6 1980.52 457.371   1
  -3  -7   6 3021.67 522.624  10
  -3   7   6 2365.69 451.492  10
  -3  -7   6 2104.13 445.947   2
   3  -7  -5 8597.86 665.034   8
   3   7  -5 7312.30 709.445   8
  -3  -7   5 6233.40 691.987   2
  -3   7   5 8063.47 721.835   3
  -3  -7   5 6277.54 700.653  10
  -3   7   5 6781.38 480.744   2
  -3   7   5 7172.81 638.417  10
   3   7  -5 7024.39 724.405   1
   3  -7  -5 7275.93 637.948   5
   3  -7  -4 9131.74 646.331   8
   3   7  -4 8986.98 758.997   8
  -3   7   4 8954.53 647.089  10
  -3  -7   4 9437.01 802.688   2
  -3   7   4 8924.90 501.121   2
  -3   7   4 10402.1 821.262   3
  -3  -7   4 8370.74 746.328  10
   3   7  -4 8184.82 745.811   1
  -3  -7   4 9841.87 580.846   5
   3  -7  -4 9339.47 691.762   5
   3  -7  -3 4118.37 399.793   8
   3   7  -3 4139.55 513.572   8
   3  -7  -3 3582.66 423.550   5
  -3  -7   3 4421.41 529.362   2
  -3   7   3 3703.81 298.326   2
  -3   7   3 4081.18 395.555  10
  -3  -7   3 4271.52 364.177   5
   3   7  -3 4143.99 510.331   1
  -3   7   3 3452.99 499.117   3
   3  -7  -2 7826.85 538.275   8
   3   7  -2 7718.41 661.597   8
  -3   7   2 7538.74 431.484   2
  -3  -7   2 8224.80 720.988   2
   3   7  -2 7178.26 641.939   1
  -3   7   2 7047.08 699.689   3
  -3  -7   2 8097.97 485.389   5
   3  -7  -2 7917.96 618.919   5
   3   7  -1 752.848 271.609   1
   3  -7  -1 918.097 262.592   5
  -3  -7   1 621.246 248.964   2
   3   7  -1 983.903 284.043   8
  -3  -7   1 664.413 184.966   5
   3   7  -1 614.633 191.741   7
   3  -7  -1 1094.94 292.321   7
  -3   7   1 668.213 169.908   2
  -3   7   1 516.350 277.309   3
  -3   7   0 9115.08 563.304   2
   3   7   0 8663.46 564.406   7
   3  -7   0 8631.49 693.143   7
  -3  -7   0 9416.28 752.370   2
  -3   7   0 9314.72 806.138   3
   3  -7   0 11079.9 746.526   5
   3   7   0 9582.17 790.155   9
  -3  -7   0 10195.0 599.355   5
   3   7   0 9361.03 736.069   8
  -3  -7  -1 331.243 187.093   5
   3   7   1 200.824 157.715   7
   3  -7   1 438.035 292.538   7
  -3  -7  -1 306.058 149.200   6
  -3  -7  -1 45.9158 182.018   2
  -3   7  -1 17.6338 214.950   3
   3   7   1 170.704 222.214   9
   3  -7   1-33.7219 218.898   5
   3   7   2 3620.57 404.610   7
  -3  -7  -2 3023.01 415.514   5
   3  -7   2 3657.00 495.252   7
  -3  -7  -2 3549.07 376.796   6
   3   7   2 4185.26 538.102   9
  -3  -7  -2 3236.94 500.727   2
  -3   7  -2 3656.25 558.154   3
   3  -7   2 3251.13 466.199   5
  -3  -7  -3 8857.34 814.202   2
   3   7   3 11343.7 742.698   7
   3  -7   3 11455.1 903.901   7
  -3  -7  -3 10931.2 735.043   6
  -3   7  -3 12073.6 966.665   3
   3   7   3 10823.7 862.336   9
  -3  -7  -4 333.831 294.910   2
   3   7   4 224.490 213.671   7
   3  -7   4 248.193 276.575   7
  -3  -7  -4 190.359 215.668   6
  -3   7  -4 383.083 289.977   3
   3   7   4 491.914 312.114   9
   3   7   5 1359.84 359.907   7
   3  -7   5 2295.74 471.071   7
  -3  -7  -5 1803.81 380.202   6
  -3   7  -5 1963.67 463.964   3
   3   7   5 1819.49 416.881   9
   3   7   6 4293.83 567.448   7
   3  -7   6 4180.99 653.272   7
  -3  -7  -6 3854.80 576.432   6
  -3   7  -6 3856.75 609.381   3
   3   7   6 3339.36 545.959   9
   3   7   7 1028.28 366.367   7
   3  -7   7 951.589 417.247   7
  -3  -7  -7 1306.15 422.462   6
  -3   7  -7 244.959 209.394   3
  -3   7  -7 659.880 380.398   6
   3   7   7 795.829 302.331   9
   3   7   8-192.049 250.558   7
   3  -7   8-37.2054 261.868   7
  -3  -7  -8 595.334 362.742   6
  -3   7  -8 390.193 309.896   6
  -3  -7  -9 2231.95 559.820   6
   3   7   9 1362.28 498.071  10
   3   8 -11 1314.75 470.711   8
   3  -8 -11 2769.05 621.270   8
   3  -8 -11 1453.56 451.111   5
  -3   8  11 2852.45 668.200  10
   3   8 -10 3237.41 646.227   8
   3  -8 -10 2245.83 502.659   8
   3  -8 -10 2726.07 522.054   5
  -3  -8  10 2183.54 560.110   2
  -3   8  10 2631.05 523.586   4
  -3  -8  10 3403.21 678.632  10
  -3   8  10 2948.30 626.157  10
   3   8  -9 1062.05 404.613   8
   3  -8  -9 107.023 208.523   8
  -3  -8   9 1021.09 403.961   2
   3  -8  -9 342.492 281.510   5
  -3   8   9 259.874 337.622   4
  -3  -8   9 841.865 403.936  10
  -3   8   9 413.543 371.973  10
   3  -8  -8 6420.34 710.701   8
   3   8  -8 6260.96 778.119   8
  -3   8   8 7586.38 812.942   4
  -3  -8   8 7157.73 864.642   2
  -3  -8   8 7762.33 888.976  10
  -3   8   8 7177.74 823.726  10
   3  -8  -8 6161.26 735.899   5
  -3   8   7 1460.09 355.125   3
   3   8  -7 2073.13 457.664   8
   3  -8  -7 1970.15 386.981   8
   3  -8  -7 1414.78 393.862   5
  -3  -8   7 1835.46 452.716  10
  -3   8   7 1554.39 400.687  10
  -3  -8   7 1534.92 411.826   2
  -3   8   6 1032.46 307.644   3
   3   8  -6 935.593 337.856   8
   3  -8  -6 1119.13 274.006   8
   3  -8  -6 1339.07 327.469   5
  -3  -8   6 1737.15 450.511  10
   3   8  -6 929.362 330.084   1
  -3  -8   6 891.458 329.347   2
  -3   8   6 1573.10 410.344  10
  -3   8   5 619.901 288.725   3
   3  -8  -5 457.556 190.866   8
   3   8  -5 448.776 242.096   8
   3  -8  -5 700.964 263.151   5
  -3  -8   5 461.079 294.673   2
   3   8  -5 300.085 328.887   1
  -3  -8   5 387.938 257.335  10
  -3   8   5 1158.69 322.595  10
  -3   8   4 2038.54 411.677   3
   3   8  -4 1309.78 356.796   1
   3  -8  -4 1937.73 304.348   8
   3   8  -4 1760.77 358.095   8
   3  -8  -4 2206.05 376.369   5
  -3  -8   4 1565.91 266.186   5
  -3  -8   4 2182.38 427.061   2
  -3  -8   4 1853.76 434.861  10
   3  -8  -3 4520.49 420.148   8
  -3   8   3 4020.41 553.081   3
   3   8  -3 5005.83 564.465   8
  -3  -8   3 4665.32 578.578   2
  -3   8   3 3840.50 266.991   2
   3   8  -3 3948.38 519.299   1
  -3  -8   3 4220.10 406.791   5
   3  -8  -3 4516.60 505.509   5
  -3   8   2 2172.79 436.206   3
  -3  -8   2 2085.63 290.972   5
   3  -8  -2 1693.12 265.279   8
   3  -8  -2 1610.44 332.640   5
   3   8  -2 1279.74 300.229   8
   3   8  -2 1189.52 315.379   1
  -3  -8   2 1654.88 347.591   2
  -3   8   2 1914.80 198.199   2
   3   8  -1 5503.13 573.133   8
  -3   8   1 5841.13 383.570   2
   3   8  -1 5042.67 423.963   7
   3  -8  -1 7009.56 625.621   7
  -3  -8   1 5483.31 601.784   2
  -3   8   1 6917.70 711.843   3
   3  -8  -1 5150.05 556.926   5
  -3  -8   1 6646.79 503.980   5
   3  -8   0 943.745 319.794   5
  -3  -8   0 1436.06 260.216   5
   3   8   0 1044.75 224.362   7
   3  -8   0 1381.46 311.188   7
  -3   8   0 1446.60 243.496   2
  -3  -8   0 715.603 275.693   2
  -3   8   0 1123.09 393.202   3
   3   8   0 1207.46 361.465   9
   3   8   0 836.352 291.050   8
   3  -8   1 2311.69 425.559   5
  -3  -8  -1 2377.07 354.698   5
   3   8   1 3086.76 340.821   7
   3  -8   1 2556.20 424.760   7
  -3  -8  -1 2045.16 232.608   6
  -3  -8  -1 2251.87 418.092   2
  -3   8  -1 3039.25 521.152   3
   3   8   1 2835.56 470.974   9
  -3  -8  -2 1091.23 293.637   5
   3   8   2 1392.49 267.284   7
   3  -8   2 1974.99 414.907   7
  -3  -8  -2 1326.99 251.236   6
  -3  -8  -2 1010.43 319.933   2
  -3   8  -2 1470.88 397.847   3
   3   8   2 2242.89 441.369   9
   3  -8   2 1564.31 363.800   5
  -3  -8  -3 314.799 230.122   5
   3   8   3 276.210 182.745   7
   3  -8   3 91.7173 216.407   7
  -3  -8  -3 300.479 205.501   6
  -3  -8  -3 93.8578 234.829   2
  -3   8  -3 336.033 256.960   3
   3   8   3 376.319 259.234   9
   3  -8   3 236.588 238.118   5
   3   8   4 1562.21 327.932   7
   3  -8   4 1362.36 349.125   7
  -3  -8  -4 1408.48 334.441   6
  -3  -8  -4 1596.15 403.858   2
  -3   8  -4 1009.16 375.519   3
   3   8   4 1846.96 426.513   9
   3   8   5 574.786 260.975   7
   3  -8   5 793.171 320.319   7
  -3  -8  -5 1321.27 364.701   6
  -3   8  -5 1229.54 389.248   3
   3   8   5 1013.07 382.604   9
   3   8   6 6195.34 680.171   7
   3  -8   6 5449.93 743.731   7
  -3   8  -6 6804.98 797.640   3
  -3  -8  -6 4467.35 634.212   6
   3   8   6 5414.24 696.670   9
   3  -8   7 871.551 391.630   7
  -3   8  -7 920.973 412.244   3
  -3  -8  -7 1761.50 485.069   6
  -3   8  -7 1999.93 555.804   6
   3   8   7 2034.71 460.295   9
   3  -8   8 146.187 243.445   7
  -3  -8  -8 1074.74 446.060   6
  -3   8  -8 1178.75 459.264   6
  -3  -8  -9 2167.74 586.702   6
   3   8   9 1823.93 545.420  10
   3  -9 -11 1948.19 543.452   5
   3   9 -10 3339.61 673.473   8
   3  -9 -10 3370.58 658.345   5
  -3  -9  10 3869.27 740.239   2
  -3  -9  10 5400.06 857.381  10
  -3   9  10 4063.00 705.248  10
   3   9  -9-83.0128 241.032   8
  -3  -9   9-134.775 296.128   2
   3  -9  -9 499.057 358.211   5
  -3   9   9 167.874 278.348   4
  -3  -9   9 707.106 424.586  10
  -3   9   9 36.2953 287.174  10
  -3  -9   8 4769.08 722.521   2
   3  -9  -8 5332.40 663.756   8
   3   9  -8 5244.72 729.439   8
   3  -9  -8 5304.95 698.879   5
  -3   9   8 6449.81 758.983   4
  -3   9   8 6317.31 695.764   3
  -3   9   8 4760.58 673.032  10
  -3  -9   8 5052.04 763.184  10
  -3   9   7 1885.60 420.650   3
   3   9  -7 2114.63 460.810   8
   3  -9  -7 1306.32 318.200   8
   3   9  -7 1512.92 428.210   1
   3  -9  -7 1443.79 388.593   5
  -3  -9   7 1322.58 426.881  10
  -3   9   7 1791.99 482.436  10
  -3  -9   7 1197.29 367.996   2
  -3   9   6 386.150 270.254   3
   3   9  -6 109.198 271.195   1
   3  -9  -6 460.393 206.941   8
   3   9  -6 273.877 250.703   8
   3  -9  -6 130.272 225.925   5
  -3  -9   6 4.03610 236.111  10
  -3  -9   6 105.952 197.767   2
  -3   9   6-131.188 263.208  10
   3  -9  -5 6337.94 547.950   8
   3   9  -5 6633.88 694.564   8
   3   9  -5 5243.95 667.146   1
  -3  -9   5 6098.29 725.136   2
  -3   9   5 5734.38 676.242   3
  -3  -9   5 5344.02 656.188  10
   3  -9  -5 5816.03 644.308   5
  -3   9   4 659.056 275.442   3
   3  -9  -4 1193.12 229.573   8
   3   9  -4 796.310 254.174   8
   3  -9  -4 1563.11 353.709   5
  -3  -9   4 1158.12 352.335   2
   3   9  -4 1138.45 348.612   1
  -3  -9   4 879.902 225.893   5
  -3  -9   3 287.801 166.004   5
  -3   9   3 239.360 214.362   3
   3  -9  -3 435.594 170.758   8
   3   9  -3 183.136 207.862   8
   3  -9  -3 237.542 194.840   5
  -3  -9   3 267.213 200.399   2
   3   9  -3 489.410 281.195   1
   3   9  -2 7001.64 691.925   8
  -3   9   2 2380.63 463.945   3
  -3  -9   2 5757.87 648.744   2
   3   9  -2 6963.65 726.078   1
  -3  -9   2 5339.20 477.585   5
   3  -9  -1 266.110 221.102   5
   3   9  -1 608.814 283.711   8
  -3  -9   1 310.928 166.845   5
  -3  -9   1 556.594 251.717   2
   3   9  -1 473.890 162.882   7
   3  -9  -1 537.051 258.286   7
  -3   9   1 236.596 103.999   2
   3   9  -1 406.661 271.817   9
  -3   9   1 720.458 304.566   3
  -3   9   0 8160.13 495.523   2
   3   9   0 8860.86 506.920   7
   3  -9   0 8534.78 717.600   7
  -3  -9   0 8577.56 763.200   2
  -3   9   0 9841.77 893.351   3
   3  -9   0 9313.18 768.479   5
   3   9   0 8368.18 793.280   9
  -3  -9   0 8951.43 650.378   5
   3  -9   1 1993.84 388.626   5
  -3  -9  -1 1384.20 288.234   5
   3   9   1 1990.82 257.735   7
   3  -9   1 1960.31 379.848   7
  -3  -9  -1 1697.53 376.868   2
  -3   9  -1 1566.79 470.385   3
   3   9   1 2290.88 478.101   9
  -3  -9  -2 1984.92 367.564   5
   3   9   2 2898.39 335.591   7
   3  -9   2 3030.93 482.467   7
  -3  -9  -2 2610.91 440.967   2
  -3   9  -2 3840.57 582.602   3
   3   9   2 2065.74 451.814   9
   3  -9   2 2587.84 487.153   5
  -3  -9  -3 13227.7 1020.64   2
   3  -9   3 15349.7 1079.14   7
  -3  -9  -3 13293.3 804.549   6
  -3   9  -3 16111.4 1164.70   3
   3  -9   3 14257.7 1075.25   5
   3   9   3 14992.3 1099.80   9
  -3  -9  -3 12467.0 929.901   5
  -3  -9  -4 1597.67 389.669   5
   3  -9   4 781.514 337.537   7
  -3  -9  -4 431.584 244.435   6
  -3  -9  -4 808.337 335.681   2
  -3   9  -4 884.820 350.342   3
   3   9   4 1184.85 386.492   9
   3  -9   5 1123.75 381.869   7
  -3  -9  -5 658.713 297.805   6
  -3  -9  -5 158.543 262.970   2
  -3   9  -5 25.8777 253.541   3
   3   9   5 359.239 277.835   9
  -3  -9  -6 456.312 292.457   2
   3  -9   6 357.524 311.249   7
  -3  -9  -6 315.287 267.636   6
  -3   9  -6 345.966 285.348   3
   3   9   6 310.463 249.444   9
   3  -9   7 962.937 375.439   7
  -3  -9  -7 1796.04 472.724   6
  -3   9  -7 90.2504 234.284   3
  -3   9  -7 1108.00 529.700   6
   3   9   7 730.300 356.749   9
   3  -9   8 6308.32 912.667   7
  -3  -9  -8 5215.07 768.026   6
  -3   9  -8 7801.51 982.927   6
   3   9   8 5924.32 801.493   9
  -3  -9  -9 2263.78 556.949   6
   3  10 -10 848.616 388.143   8
   3 -10 -10 1283.43 472.732   5
  -3  10  10 1542.59 482.741  10
   3  10  -9 244.441 326.848   8
  -3 -10   9-141.923 298.560   2
   3 -10  -9 396.853 351.957   5
  -3 -10   9 861.165 442.513  10
  -3  10   9-141.386 318.415  10
   3  10  -8 6497.28 803.275   8
  -3 -10   8 3806.59 661.959   2
   3 -10  -8 4956.37 688.487   5
  -3  10   8 6244.66 753.237   4
  -3  10   8 5779.60 716.387   3
  -3 -10   8 5805.79 813.117  10
  -3  10   8 5339.12 748.248  10
  -3  10   7 449.591 236.512   3
   3  10  -7 858.277 339.986   8
   3 -10  -7 485.584 315.928   5
  -3 -10   7 1032.00 414.413  10
  -3  10   7 1136.43 417.441  10
   3  10  -7 1182.86 424.974   1
  -3 -10   7 558.693 314.965   2
   3  10  -6 6268.34 718.587   8
  -3  10   6 5907.35 717.814   3
  -3 -10   6 6414.08 797.417  10
  -3  10   6 6632.83 720.282  10
   3  10  -6 6045.99 766.830   1
  -3 -10   6 4083.58 629.116   2
   3 -10  -6 5374.80 666.514   5
  -3  10   5 3215.19 546.418   3
   3  10  -5 2220.42 472.526   1
   3  10  -5 2365.83 429.811   8
   3 -10  -5 2545.04 458.614   5
  -3 -10   5 2744.72 538.133  10
  -3 -10   5 2001.01 439.449   2
  -3 -10   5 2346.26 367.156   5
  -3  10   4 1055.33 347.820   3
   3  10  -4 523.128 270.390   8
   3 -10  -4 459.932 303.575   5
  -3 -10   4 543.562 241.877   2
   3  10  -4 506.095 265.174   1
  -3 -10   4 1497.05 286.510   5
  -3 -10   3 1295.66 269.867   5
  -3  10   3 1571.35 433.729   3
   3  10  -3 1333.50 356.457   8
   3 -10  -3 1263.83 327.951   5
   3  10  -3 972.906 331.358   1
  -3 -10   3 1269.07 352.679   2
   3  10  -2 4631.91 524.999   8
  -3  10   2 4684.54 635.812   3
   3  10  -2 4212.47 575.354   1
  -3 -10   2 4865.84 596.768   2
   3 -10  -2 3847.32 496.379   7
  -3 -10   2 5133.00 500.997   5
   3 -10  -2 4533.07 575.952   5
   3 -10  -1 13384.6 886.482   7
  -3 -10   1 12184.8 926.230   2
  -3  10   1 11721.2 1001.42   3
   3 -10  -1 11819.9 884.252   5
   3  10  -1 12468.3 997.875   9
  -3 -10   1 13549.8 814.249   5
   3  10  -1 11539.8 838.183   8
   3 -10   0 2904.05 481.071   5
  -3 -10   0 2132.24 404.184   2
  -3 -10   0 2086.07 357.143   5
   3 -10   0 1508.14 338.070   7
   3  10   0 2205.93 479.920   9
  -3  10   0 2077.26 442.419   3
   3 -10   1 4347.26 586.852   5
   3 -10   1 4757.35 596.111   7
  -3 -10  -1 4443.88 526.082   5
  -3  10  -1 4393.63 639.701   3
   3  10   1 4604.45 640.844   9
  -3 -10  -1 4237.61 559.121   2
   3 -10   2 13323.1 963.360   7
  -3 -10  -2 11165.9 934.732   2
  -3  10  -2 11196.1 1005.62   3
   3 -10   2 12024.3 989.317   5
   3  10   2 12424.3 1032.13   9
  -3 -10  -2 10800.3 826.079   5
  -3 -10  -3 155.275 206.930   5
   3 -10   3 737.132 352.151   7
  -3 -10  -3 203.341 225.667   2
  -3  10  -3 369.419 408.085   3
   3  10   3 133.096 271.303   9
   3 -10   3 958.643 408.560   5
  -3 -10  -4 250.912 240.650   5
   3 -10   4 1.97231 288.870   7
  -3 -10  -4 323.972 265.365   2
   3 -10   4 553.425 307.030   5
  -3  10  -4 303.637 270.739   3
   3  10   4 316.080 280.594   9
  -3 -10  -5 532.250 324.280   5
   3 -10   5 1092.03 390.766   7
  -3 -10  -5 1219.28 369.601   2
  -3  10  -5 927.099 354.690   3
   3  10   5 687.831 302.791   9
   3 -10   6 3933.79 688.054   7
  -3 -10  -6 4104.33 660.081   2
  -3  10  -6 4845.85 706.191   3
   3  10   6 3627.74 656.966   9
  -3 -10  -7 948.627 386.279   2
   3 -10   7 1173.22 415.679   7
  -3  10  -7 1300.69 444.266   3
  -3  10  -7 2359.22 569.764   6
   3  10   7 1637.64 494.971   9
   3  10   8 1252.89 432.439   9
   3  11 -10 716.484 355.346   8
   3 -11 -10 1117.05 457.586   5
  -3  11  10 1512.35 552.207  10
   3  11  -9 1021.58 371.353   8
   3 -11  -9 1444.32 456.180   5
  -3 -11   9 1734.45 486.535   2
  -3 -11   9 2283.42 568.368  10
  -3  11   9 2351.95 595.382  10
  -3  11   8 141.693 251.405   3
   3  11  -8 469.710 463.482   1
  -3 -11   8 482.527 308.194   2
   3  11  -8 598.776 320.847   8
   3 -11  -8 343.776 288.989   5
  -3  11   8 573.186 322.729   4
  -3 -11   8-176.363 326.334  10
  -3  11   8 539.160 416.282  10
   3  11  -7 29733.9 1664.85   8
  -3 -11   7 31122.9 1834.10   2
  -3  11   7 31619.4 1733.44   3
  -3 -11   7 31780.9 1854.25  10
  -3  11   7 28967.5 1675.66  10
   3  11  -7 27631.2 1735.89   1
   3 -11  -7 31550.0 1744.72   5
  -3  11   6 119.928 260.943   3
   3  11  -6 498.049 299.596   8
   3 -11  -6 508.031 317.152   5
   3  11  -6 278.190 299.522   1
  -3 -11   6 667.585 325.569  10
  -3 -11   6 465.243 250.024   2
   3  11  -5 26111.5 1410.83   8
  -3 -11   5 22208.4 1438.23   2
  -3  11   5 23668.3 1485.89   3
   3  11  -5 22574.4 1452.06   1
  -3 -11   5 25636.9 1272.99   5
   3 -11  -5 25049.2 1435.58   5
  -3  11   4 1683.09 424.847   3
   3  11  -4 1382.76 353.935   8
   3 -11  -4 797.345 297.835   5
   3  11  -4 843.430 355.040   1
  -3 -11   4 892.763 318.715   2
  -3 -11   4 903.492 293.851   5
  -3 -11   3 3230.33 442.964   5
  -3  11   3 3887.24 608.305   3
   3  11  -3 3135.46 458.071   8
   3 -11  -3 3919.68 581.205   5
   3  11  -3 1998.29 453.646   1
  -3 -11   3 2456.43 467.244   2
  -3  11   2 1225.55 395.781   3
  -3 -11   2 1009.27 274.785   5
   3  11  -2 1067.35 296.945   8
   3 -11  -2 1648.72 385.467   5
  -3 -11   2 1814.07 407.812   2
   3 -11  -2 1417.77 339.293   7
   3  11  -2 1433.38 405.279   9
  -3  11   1 518.819 293.014   3
   3 -11  -1 599.083 281.855   5
   3  11  -1 768.208 288.369   8
  -3 -11   1 154.815 169.279   5
  -3 -11   1 457.803 236.278   2
   3 -11  -1 815.131 292.284   7
   3  11  -1 1106.16 378.878   9
   3 -11   0 1496.19 355.443   5
  -3 -11   0 1828.56 390.594   2
  -3 -11   0 1562.31 344.407   5
   3 -11   0 1916.44 375.199   7
   3  11   0 1639.39 415.184   9
  -3  11   0 1777.80 443.447   3
   3 -11   1 1134.51 369.590   5
  -3 -11  -1 1584.60 377.649   2
  -3 -11  -1 1277.76 307.182   5
   3 -11   1 1526.91 365.191   7
   3  11   1 1409.97 420.666   9
  -3  11  -1 1442.76 451.661   3
  -3 -11  -2 892.382 303.771   5
   3 -11   2 1466.31 367.475   7
  -3  11  -2 903.882 379.170   3
  -3 -11  -2 800.039 296.812   2
   3  11   2 1258.93 402.396   9
   3 -11   2 504.388 317.864   5
  -3 -11  -3 4830.61 617.218   5
   3 -11   3 5404.23 671.899   7
  -3  11  -3 5916.18 781.950   3
  -3 -11  -3 3672.09 553.911   2
   3  11   3 4488.67 679.734   9
   3 -11   3 4951.79 680.102   5
  -3 -11  -4 32.4561 216.426   5
   3 -11   4 225.274 297.605   7
  -3 -11  -4 475.435 261.265   2
  -3  11  -4 159.116 296.882   3
   3  11   4 345.018 306.364   9
   3 -11   4 473.899 285.952   5
   3 -11   5 26948.3 1628.71   7
  -3 -11  -5 23506.6 1500.88   2
  -3  11  -5 27895.5 1690.38   3
   3  11   5 25076.1 1618.78   9
  -3 -11  -5 22590.2 1492.03   5
  -3 -11  -6 240.434 321.756   5
   3 -11   6 176.877 289.573   7
  -3 -11  -6 406.475 338.581   2
  -3  11  -6 664.792 361.684   3
   3  11   6 898.350 437.862   9
  -3 -11  -7 4630.44 748.943   5
   3 -11   7 4100.84 735.592   7
  -3 -11  -7 4224.63 723.284   2
  -3  11  -7 4384.82 761.253   6
   3  11   7 5092.99 797.494   9
   3  11   8 1630.79 497.327   9
   3  12 -10 4517.81 764.096   8
   3  12  -9 833.372 432.801   8
   3 -12  -9 849.074 408.051   5
  -3 -12   9 577.919 371.828   2
  -3  12   9 1156.29 476.283  10
   3  12  -8 7489.03 860.422   8
  -3  12   8 7637.77 886.910   3
  -3 -12   8 9723.04 1108.21  10
  -3 -12   8 7405.07 946.563   2
  -3  12   8 7264.04 897.092  10
   3 -12  -8 7469.68 897.748   5
   3  12  -8 7825.09 968.013   1
  -3  12   7 498.407 301.165   3
   3  12  -7 332.820 299.714   8
   3 -12  -7 1171.80 403.007   5
  -3 -12   7 851.132 400.100  10
  -3  12   7 1173.15 439.907  10
  -3 -12   7 551.685 302.109   2
   3  12  -7 495.713 353.870   1
   3  12  -6 12490.0 1030.89   8
  -3 -12   6 10617.6 1039.52   2
  -3  12   6 13275.9 1156.51   3
   3  12  -6 13237.1 1175.27   1
   3 -12  -6 12554.7 1075.85   5
  -3  12   5 207.188 259.266   3
   3  12  -5 261.367 230.290   8
   3 -12  -5 471.012 264.765   5
  -3 -12   5 223.885 249.402   2
   3  12  -5 423.108 366.294   1
  -3 -12   5 244.954 166.129   5
   3  12  -4 23745.3 1302.33   8
  -3 -12   4 24694.9 1490.53   2
   3  12  -4 23218.4 1470.60   1
  -3  12   4 25205.9 1582.88   3
  -3 -12   4 25008.2 1285.63   5
   3 -12  -4 23152.7 1439.70   5
  -3 -12   3 318.149 211.992   5
  -3  12   3 675.184 369.897   3
   3  12  -3 309.313 237.531   1
   3  12  -3 174.257 211.788   8
   3 -12  -3 617.909 329.365   5
   3 -12  -3 349.557 214.700   7
  -3 -12   3 403.219 241.337   2
   3  12  -3 639.804 344.210   9
   3 -12  -2 12854.8 896.549   7
  -3 -12   2 12022.5 973.406   2
  -3  12   2 10734.7 1021.94   3
  -3 -12   2 11421.7 835.168   5
   3  12  -2 10545.6 981.917   9
   3 -12  -2 11164.0 953.552   5
   3  12  -2 11565.9 866.298   8
   3 -12  -1 9719.97 780.644   7
  -3 -12   1 8688.27 820.359   2
  -3  12   1 10040.8 992.559   3
   3  12  -1 8608.67 900.870   9
   3 -12  -1 9487.94 888.425   5
  -3 -12   1 8732.62 748.968   5
   3  12  -1 8149.26 735.654   8
  -3  12   0 231.109 258.361   3
   3 -12   0 318.016 264.369   5
  -3 -12   0 55.3266 200.078   5
  -3 -12   0 49.2878 180.817   2
   3 -12   0 768.688 270.159   7
   3  12   0 550.566 315.823   9
   3 -12   1 106.337 206.618   5
  -3 -12  -1 139.153 162.880   2
  -3 -12  -1 527.420 248.311   5
   3 -12   1 659.120 314.440   7
  -3  12  -1 466.946 325.243   3
   3 -12   2 27794.5 1480.98   7
  -3 -12  -2 23752.4 1397.23   2
  -3  12  -2 28815.0 1721.55   3
   3 -12   2 28621.6 1649.58   5
   3  12   2 24494.9 1580.48   9
  -3 -12  -2 27601.8 1464.43   5
  -3 -12  -3 485.755 265.800   5
   3 -12   3 1454.50 393.424   7
  -3 -12  -3 710.033 280.608   2
  -3  12  -3 252.287 298.102   3
   3 -12   3 563.476 322.015   5
   3 -12   4 8759.83 900.612   7
  -3 -12  -4 7236.23 790.743   2
  -3  12  -4 7265.76 882.479   3
   3 -12   4 8382.62 952.938   5
   3  12   4 8633.96 972.366   9
  -3 -12  -4 7692.56 820.343   5
  -3 -12  -5 295.229 238.244   5
   3 -12   5 663.563 360.125   7
  -3 -12  -5 603.004 305.187   2
  -3  12  -5 471.653 353.746   3
   3  12   5 1123.64 426.256   9
  -3 -12  -6 5558.63 818.482   5
   3 -12   6 3712.01 692.101   7
  -3 -12  -6 4604.63 693.824   2
  -3  12  -6 5932.11 830.000   3
   3  12   6 5891.25 851.710   9
  -3 -12  -7 2006.82 557.826   5
   3 -12   7 2157.30 604.997   7
   3  12   7 1864.86 553.627   9
   3 -13  -9 1805.15 549.487   5
  -3  13   9 1756.19 572.106  10
  -3  13   8 626.838 362.782   3
  -3 -13   8 1394.09 471.778   2
   3  13  -8 562.300 266.608   8
   3 -13  -8 608.662 371.041   5
  -3 -13   8 1845.54 534.635  10
  -3  13   8 1626.71 552.030  10
   3  13  -8 1855.84 560.040   1
   3  13  -7 6647.78 795.874   8
  -3  13   7 6170.79 833.398   3
   3  13  -7 6921.43 907.995   1
   3 -13  -7 6635.49 866.178   5
  -3 -13   7 6859.75 885.283   2
  -3  13   6 665.786 323.726   3
   3  13  -6 958.201 333.590   8
   3 -13  -6 1239.15 381.205   5
   3  13  -6 908.531 427.502   1
  -3 -13   6 550.789 296.024   2
   3  13  -5 10000.2 871.767   8
  -3 -13   5 8070.35 895.572   2
  -3  13   5 7855.10 914.971   3
   3  13  -5 7780.98 912.022   1
   3 -13  -5 7793.42 885.210   5
   3  13  -4 15673.6 1047.81   8
  -3 -13   4 12874.9 1098.61   2
   3  13  -4 13715.3 1159.34   1
  -3  13   4 14170.8 1225.43   3
  -3 -13   4 15359.8 1065.40   5
   3  13  -4 12912.7 1141.00   9
   3 -13  -4 13626.8 1126.64   5
  -3 -13   3 854.525 295.958   5
  -3  13   3 1461.70 424.195   3
   3  13  -3 1206.89 393.332   1
   3  13  -3 959.484 291.578   8
   3 -13  -3 1531.73 415.648   5
   3 -13  -3 983.363 300.167   7
  -3 -13   3 483.260 265.560   2
   3  13  -3 988.853 421.595   9
  -3  13   2 5265.61 763.164   3
   3 -13  -2 5382.00 601.557   7
  -3 -13   2 5397.58 666.370   2
  -3 -13   2 6202.44 665.750   5
   3  13  -2 6771.17 812.339   9
   3 -13  -2 6307.66 756.290   5
   3  13  -2 5732.51 623.987   8
  -3  13   1 1176.81 416.041   3
   3 -13  -1 664.231 310.574   5
  -3 -13   1 845.578 295.865   5
  -3 -13   1 950.831 347.047   2
   3 -13  -1 621.413 252.746   7
   3  13  -1 1163.48 399.174   9
  -3  13   0 416.966 280.924   3
   3 -13   0 423.058 300.437   5
  -3 -13   0 535.591 286.040   5
  -3 -13   0 449.108 268.063   2
   3 -13   0 44.2260 166.951   7
   3  13   0 878.946 346.890   9
   3 -13   1 403.838 293.736   5
  -3 -13  -1 255.416 225.978   2
  -3 -13  -1 167.620 225.237   5
   3 -13   1 539.638 265.543   7
   3  13   1 276.135 355.517   9
  -3  13  -1 823.964 383.926   3
   3 -13   2 13640.1 1033.97   7
  -3 -13  -2 9656.66 891.318   2
  -3  13  -2 13629.1 1210.96   3
   3 -13   2 13423.3 1154.93   5
   3  13   2 12874.1 1169.00   9
  -3 -13  -2 11680.8 978.749   5
  -3 -13  -3 3743.33 572.375   5
   3 -13   3 5181.88 683.878   7
  -3  13  -3 5132.23 769.764   3
   3  13   3 4004.08 698.729   9
  -3 -13  -3 4226.23 603.945   2
   3 -13   3 4764.43 722.234   5
  -3 -13  -4-11.0411 213.421   5
   3 -13   4 149.701 222.159   7
  -3 -13  -4 173.217 232.601   2
  -3  13  -4 506.064 343.253   3
   3  13   4 181.088 326.161   9
   3 -13   4-56.2176 251.812   5
  -3 -13  -5 4508.22 695.619   5
   3 -13   5 3636.21 634.932   7
  -3  13  -5 4141.70 707.749   3
   3  13   5 4698.68 748.956   9
  -3 -13  -6 1061.40 407.999   5
   3 -13   6 1083.03 383.543   7
  -3  13  -6 537.863 322.084   3
   3  13   6 877.734 387.284   9
   3 -13   7 110.647 276.627   7
  -3  14   8 1309.22 444.317   3
   3 -14  -8 2324.00 563.809   5
  -3 -14   8 2540.97 609.974   2
  -3  14   8 2244.47 584.063  10
  -3 -14   7 337.295 291.267   2
  -3  14   7 1176.60 422.000   3
   3 -14  -7 951.144 419.542   5
   3  14  -7 1664.87 489.156   1
   3  14  -6 842.890 417.819   1
  -3  14   6 650.878 376.924   3
   3 -14  -6-53.3846 264.369   5
  -3 -14   6 457.447 320.712   2
   3  14  -6 520.059 364.959   9
  -3  14   5 549.378 396.799   3
   3 -14  -5 421.982 350.120   5
   3  14  -5 135.506 364.743   1
  -3 -14   5 260.779 225.486   2
   3  14  -5-187.864 280.021   9
  -3  14   4 545.948 332.907   3
   3 -14  -4 720.046 316.274   5
   3  14  -4 227.863 281.892   1
  -3 -14   4 316.851 250.636   2
   3  14  -4 630.415 357.430   9
   3  14  -3 596.988 384.828   1
  -3 -14   3 457.410 255.895   5
  -3  14   3 848.241 401.775   3
   3 -14  -3 10.8577 222.836   5
  -3 -14   3 860.259 304.951   2
   3  14  -3 1231.26 419.850   9
  -3  14   2 1724.84 545.644   3
  -3 -14   2 1784.02 412.582   5
   3 -14  -2 1968.53 481.016   5
  -3 -14   2 2146.18 446.332   2
   3  14  -2 1555.11 478.845   9
  -3 -14   1 17794.8 1220.95   2
  -3  14   1 15509.2 1322.84   3
   3  14  -1 16209.9 1327.29   9
   3 -14  -1 16056.7 1242.32   5
  -3 -14   1 17271.9 1145.91   5
  -3  14   0 1618.68 471.703   3
   3 -14   0 1109.52 371.302   5
  -3 -14   0 1393.22 359.702   5
  -3 -14   0 2174.02 441.848   2
   3  14   0 907.892 487.735   9
   3 -14   1 2386.41 532.874   5
  -3 -14  -1 2962.15 516.320   5
  -3 -14  -1 2014.24 418.929   2
   3  14   1 2977.80 616.623   9
  -3  14  -1 2291.88 584.821   3
   3 -14   2 275.041 323.649   5
  -3 -14  -2 56.0879 179.882   2
  -3 -14  -2 146.215 210.758   5
   3  14   2 740.352 385.719   9
  -3  14  -2 167.051 251.844   3
  -3 -14  -3 239.314 250.337   5
   3  14   3 342.138 376.462   9
  -3  14  -3 1022.97 464.486   3
   3 -14   3 539.150 374.060   5
  -3 -14  -4 94.4515 241.265   5
  -3  14  -4 555.797 402.166   3
   3  14   4 1306.85 486.659   9
   3 -14   4 588.416 353.268   5
  -3 -14  -5-48.8629 256.060   5
  -3  14  -5 490.112 388.780   3
  -3 -14  -6 696.523 407.808   5
  -3  14  -6 1274.41 454.079   3
  -3  15   8 1296.09 460.179   3
   3  15  -8 932.622 449.419   9
  -3  15   7 2593.16 619.388   3
  -3 -15   7 1452.16 443.493   2
   3 -15  -7 1928.41 578.776   5
   3  15  -7 1325.93 466.626   9
   3  15  -6 879.654 381.467   1
  -3  15   6 545.657 349.769   3
   3 -15  -6 1167.69 420.924   5
  -3 -15   6 611.909 309.851   2
   3  15  -6 196.136 282.715   9
  -3  15   5 1250.35 455.079   3
   3 -15  -5 1766.39 474.953   5
   3  15  -5 1890.39 525.398   1
  -3 -15   5 1575.33 461.228   2
   3  15  -5 692.121 354.763   9
  -3  15   4 483.402 434.574   3
   3 -15  -4 258.146 306.195   5
   3  15  -4 338.920 274.194   1
  -3 -15   4 626.471 321.729   2
   3  15  -4 285.745 376.138   9
  -3  15   3 283.362 305.684   3
   3 -15  -3 284.976 318.055   5
   3  15  -3 271.441 355.895   1
  -3 -15   3 177.370 237.344   2
   3  15  -3 384.743 334.624   9
  -3  15   2 3257.66 636.546   3
  -3 -15   2 2751.73 503.826   5
   3 -15  -2 2294.63 531.766   5
  -3 -15   2 3155.13 554.070   2
   3  15  -2 2661.04 594.903   9
  -3  15   1 1196.96 460.677   3
   3 -15  -1 870.316 426.118   5
  -3 -15   1 350.923 254.959   5
  -3 -15   1-158.791 238.271   2
   3  15  -1 388.578 432.710   9
  -3  15   0 247.064 321.851   3
   3 -15   0 231.315 308.520   5
  -3 -15   0 332.305 262.587   5
   3  15   0 476.787 329.605   9
   3 -15   1 753.566 397.871   5
  -3 -15  -1 467.290 290.859   5
   3  15   1 559.829 381.933   9
  -3  15  -1 892.302 425.501   3
   3 -15   2 2482.19 551.699   5
  -3 -15  -2 2690.66 524.553   5
   3  15   2 2544.57 586.925   9
  -3  15  -2 2881.39 635.671   3
  -3 -15  -3 1781.34 457.332   5
   3  15   3 1144.30 479.971   9
  -3  15  -3 2507.75 600.136   3
   3 -15   3 1765.75 512.298   5
  -3 -15  -4 535.942 304.873   5
  -3  15  -4 1068.84 437.976   3
   3 -15   4 952.648 441.872   5
  -3 -15  -5 396.746 256.479   5
  -3  15  -5 1050.54 451.030   3
   3  16  -6 598.542 403.419   9
  -3 -16   6 862.406 381.753   2
  -3  16   5-197.656 302.955   3
   3 -16  -5 401.097 374.831   5
  -3 -16   5-44.6897 193.555   2
   3  16  -5 564.557 430.569   9
  -3  16   4 1060.47 536.503   3
   3 -16  -4 439.866 272.632   5
   3  16  -4 973.914 413.493   1
  -3 -16   4 433.077 296.028   2
   3  16  -4 60.6049 329.473   9
  -3  16   3 1234.81 455.879   3
   3 -16  -3 734.569 370.168   5
   3  16  -3 1295.20 455.512   1
   3  16  -3 303.997 296.453   9
   3 -16  -2-229.042 232.817   5
   3  16  -2-153.440 287.287   9
  -3  16   1 628.589 405.742   3
   3 -16  -1 240.666 269.823   5
  -3 -16   1 372.369 281.433   5
   3  16  -1 926.884 427.172   9
  -3  16   0 67.9956 296.957   3
   3 -16   0 319.970 309.133   5
  -3 -16   0 8.84106 226.482   5
   3  16   0 187.211 331.097   9
  -3  16  -1-44.6399 270.936   3
   3 -16   1 319.460 311.360   5
  -3 -16  -1-9.19292 256.162   5
   3  16   1 616.170 370.875   9
   3 -16   2 615.606 414.485   5
  -3 -16  -2-268.221 238.263   5
   3  16   2 1050.46 501.674   9
  -3  16  -2 381.525 352.410   3
  -3 -16  -3-69.6897 242.545   5
  -3  16  -3 685.672 450.370   3
  -3 -16  -4 989.434 395.453   5
   3 -17  -3 630.005 371.082   5
   3  17  -3-407.858 348.639   9
   3 -17  -2 3069.72 643.102   5
   3  17  -2 2968.93 651.188   9
   3 -17  -1 1407.11 533.035   5
   3 -17   0 4031.88 736.253   5
  -3 -17  -1 1146.33 416.515   5
  -3 -17  -2 660.533 344.845   5
  -3 -17  -3 144.171 309.158   5
   4   0 -11-157.639 302.399   8
  -4   0  11 523.016 358.828  10
   4   0 -10 7517.33 928.861   8
  -4   0  10 4956.57 747.355   2
  -4   0  10 6327.37 833.213  10
  -4   0   9 665.093 358.535   2
   4   0  -9 204.136 301.879   8
  -4   0   9 448.462 411.125   4
  -4   0   9-86.6832 246.325  10
   4   0  -8 794.569 335.145   8
  -4   0   8 744.931 364.048   4
  -4   0   8 1062.93 323.047  10
  -4   0   8 473.388 303.287   2
   4   0  -7 339.044 278.952   8
  -4   0   7 234.821 247.366  10
  -4   0   7 421.124 352.842   4
  -4   0   7 158.022 213.996   2
   4   0  -6 9746.86 880.196   8
  -4   0   6 10013.4 901.973   4
  -4   0   6 9404.83 699.849   3
  -4   0   6 8832.00 795.081   2
  -4   0   6 9939.67 769.164  10
   4   0  -5-164.209 251.049   8
  -4   0   5 437.369 405.368   4
  -4   0   5-133.006 193.167   2
  -4   0   5-47.6382 157.107   3
  -4   0   5 160.219 178.921  10
   4   0  -4 3299.04 498.571   8
  -4   0   4 3365.17 486.020   2
  -4   0   4 3253.42 392.671  10
  -4   0   4 3482.93 459.950   3
   4   0  -3-148.749 212.080   8
  -4   0   3 312.781 240.819   2
  -4   0   3 283.243 143.582  10
  -4   0   3-189.430 182.447   3
   4   0  -2 33342.9 1505.22   8
  -4   0   2 35179.5 1487.76   2
  -4   0   2 31659.9 1511.17   3
   4   0  -1 133.988 211.729   8
   4   0  -1-146.819 179.039   7
  -4   0   1 84.6752 223.071   3
  -4   0   1 249.571 217.301   2
  -4   0   0 77484.4 2475.98   2
   4   0   0 81996.6 2492.36   7
  -4   0   0 77173.2 2635.72   3
   4   0   0 78694.9 2544.08   8
   4   0   1-97.0682 184.586   7
  -4   0  -1-36.7108 213.061   3
  -4   0  -2 1902.89 421.168   2
   4   0   2 1694.18 389.671   7
  -4   0  -2 2585.10 512.210   3
   4   0   3 5.67026 199.101   7
  -4   0  -3 560.725 318.997   3
   4   0   3 291.606 176.964   9
   4   0   4 3210.00 542.387   7
  -4   0  -4 3890.61 555.904   6
   4   0   5 252.294 338.098   7
  -4   0  -5 413.766 319.318   6
   4   0   6 6184.86 815.385   7
  -4   0  -6 5593.66 766.517   6
   4   0   7 526.178 372.171   7
  -4   0  -7 193.184 264.788   6
   4   0   8 7236.38 990.780   7
  -4   0  -8 6737.23 934.354   6
   4   1 -11 5989.09 908.927   8
   4  -1 -11 6487.62 922.800   8
  -4   1  11 7686.67 976.021  10
  -4  -1  11 6783.98 919.751  10
   4   1 -10 190.451 344.547   8
   4  -1 -10-72.4624 222.704   8
  -4  -1  10 160.112 291.180   2
  -4   1  10-98.5583 188.575   2
  -4  -1  10 289.745 315.522  10
  -4   1  10 90.5287 239.921  10
  -4  -1   9 3127.16 585.985   2
  -4   1   9 2673.18 545.263   2
   4   1  -9 4639.01 727.504   8
   4  -1  -9 4075.87 710.882   8
  -4   1   9 4421.89 710.202   4
  -4  -1   9 4064.26 626.789  10
  -4   1   9 5038.40 710.980  10
   4   1  -8 8865.90 925.223   8
   4  -1  -8 7699.62 857.821   8
  -4  -1   8 7723.16 878.881   4
  -4   1   8 8650.14 900.866   4
  -4  -1   8 5973.70 744.201   2
  -4   1   8 6563.81 785.390   2
  -4  -1   8 7758.32 794.214  10
  -4   1   8 7558.45 802.642  10
   4   1  -7 4725.23 673.223   8
   4  -1  -7 4312.46 634.886   8
  -4  -1   7 5094.31 684.330   4
  -4   1   7 5383.17 737.515   4
  -4   1   7 4764.22 630.208   2
  -4  -1   7 4957.62 611.653  10
  -4  -1   7 4663.55 640.635   2
  -4   1   7 3811.68 517.080  10
   4  -1  -6 16431.3 1131.37   8
   4   1  -6 15826.6 1133.50   8
  -4  -1   6 14493.0 1087.28   4
  -4   1   6 13701.2 1058.93   4
  -4   1   6 13839.7 848.634   3
  -4  -1   6 15767.9 1088.64   2
  -4   1   6 15221.1 1033.57   2
  -4  -1   6 14784.8 961.344  10
  -4   1   6 16763.4 993.478  10
   4  -1  -5 11016.8 887.133   8
   4   1  -5 12266.3 962.383   8
  -4  -1   5 12125.5 957.426   4
  -4   1   5 11148.7 924.985   4
  -4  -1   5 10334.5 743.577   3
  -4  -1   5 11232.0 880.131   2
  -4   1   5 11721.1 872.290   2
  -4   1   5 11454.9 789.552   3
  -4  -1   5 11928.7 798.140  10
  -4   1   5 10711.6 723.055  10
   4  -1  -4 2212.29 413.704   8
   4   1  -4 2881.03 477.320   8
  -4  -1   4 2532.88 420.817   2
  -4   1   4 2272.02 387.036   2
  -4  -1   4 2495.20 485.654   4
  -4  -1   4 2219.94 399.626   3
  -4  -1   4 2287.25 336.472  10
  -4   1   4 2368.78 315.970  10
  -4   1   4 2085.14 368.481   3
   4  -1  -3 38376.8 1615.67   8
   4   1  -3 36552.1 1612.68   8
  -4   1   3 36921.8 1516.36   2
  -4  -1   3 36315.0 1564.85   2
  -4  -1   3 35176.6 1548.81   3
  -4   1   3 37342.8 1597.60   3
  -4  -1   3 34853.8 1248.51  10
  -4   1   3 33959.0 1116.66  10
  -4   1   2 109.563 186.383   2
  -4  -1   2 568.431 252.518   2
   4  -1  -2 1113.91 337.006   8
   4   1  -2 480.754 216.779   8
  -4  -1   2 284.016 205.068   3
  -4   1   2 413.691 261.693   3
   4  -1  -1 1268.05 327.338   8
   4   1  -1 801.365 264.925   8
   4  -1  -1 1174.10 314.961   7
   4   1  -1 270.721 218.964   7
  -4  -1   1 1540.04 341.479   3
  -4   1   1 1468.44 356.925   3
  -4   1   1 1264.32 312.661   2
  -4  -1   1 1008.92 301.049   2
  -4   1   0 6843.81 658.561   2
  -4  -1   0 6397.82 655.924   2
   4   1   0 6983.52 657.884   7
   4  -1   0 5898.66 629.099   7
  -4  -1   0 5908.05 677.536   3
  -4   1   0 7154.77 732.754   3
   4   1   0 6011.04 652.314   8
  -4   1  -1 12244.3 910.142   2
  -4  -1  -1 12451.3 939.699   2
   4   1   1 13383.1 927.914   7
   4  -1   1 13079.7 943.555   7
  -4  -1  -1 13592.5 1047.13   3
  -4   1  -1 14040.1 1056.73   3
   4   1   2 2126.38 392.610   7
   4  -1   2 1596.06 372.762   7
  -4  -1  -2 1291.12 388.987   3
  -4  -1  -2 1517.15 438.676   2
   4   1   2 1979.95 314.097   9
  -4   1  -2 1836.09 448.502   3
   4   1   3 5122.68 631.165   7
   4  -1   3 3857.78 579.780   7
  -4  -1  -3 4006.41 523.840   6
   4   1   3 3631.80 410.777   9
  -4   1  -3 4647.07 657.976   3
   4   1   4 9258.00 873.576   7
   4  -1   4 10281.9 972.722   7
  -4   1  -4 9626.28 970.906   3
  -4  -1  -4 9699.27 878.869   6
  -4   1  -4 9106.56 857.420   6
   4   1   5 1514.19 427.559   7
   4  -1   5 1172.28 362.764   7
  -4  -1  -5 1424.97 409.318   6
  -4   1  -5 999.769 346.323   6
   4   1   6 10706.1 1051.66   7
   4  -1   6 12536.4 1164.36   7
  -4  -1  -6 10578.7 1010.06   6
  -4   1  -6 11312.0 1070.55   6
   4   1   7 464.137 320.254   7
   4  -1   7 485.136 345.001   7
  -4  -1  -7 690.201 371.571   6
   4   1   8-29.3465 273.309   7
   4  -1   8 549.452 404.827   7
  -4  -1  -8 616.869 380.899   6
  -4   1  -8 169.846 281.024   6
   4  -2 -11 7619.97 976.262   8
   4   2 -11 6185.71 909.301   8
  -4  -2  11 6485.80 915.919   2
  -4  -2  11 7264.82 976.799  10
  -4   2  11 6918.65 917.848  10
   4   2 -10 7640.23 970.350   8
   4  -2 -10 8749.66 997.294   8
  -4   2  10 7905.52 962.232   4
  -4  -2  10 7022.18 907.252   2
  -4  -2  10 9841.71 1033.35  10
  -4   2  10 8919.82 977.118  10
  -4  -2   9 5601.88 784.355   2
   4   2  -9 6743.02 855.910   8
   4  -2  -9 7676.36 898.000   8
  -4   2   9 6402.27 831.576   4
  -4   2   9 6068.13 746.875   2
  -4  -2   9 6896.13 836.992  10
  -4   2   9 6281.04 772.168  10
   4   2  -8 1127.51 379.332   8
   4  -2  -8 1010.11 342.337   8
  -4   2   8 1403.15 510.091   4
  -4  -2   8 2070.52 544.365  10
  -4   2   8 1104.93 375.424  10
  -4  -2   8 537.898 306.216   2
  -4   2   8 884.385 334.936   2
   4   2  -7 1969.45 477.749   8
   4  -2  -7 3959.02 628.205   8
  -4   2   7 5852.20 777.726   4
  -4  -2   7 2443.38 510.062   4
  -4   2   7 3939.51 586.175  10
  -4  -2   7 1368.64 385.337   2
  -4  -2   7 2218.55 461.606  10
  -4   2   7 3837.22 571.895   2
   4  -2  -6 1191.76 349.476   8
   4   2  -6 754.004 310.730   8
  -4  -2   6 1148.18 401.364   4
  -4   2   6 1359.82 389.283   4
  -4  -2   6 913.213 316.071   2
  -4   2   6 590.616 240.061   2
  -4  -2   6 1119.42 317.101  10
  -4   2   6 276.428 212.978  10
  -4   2   6 437.715 183.029   3
   4  -2  -5 5891.32 653.619   8
   4   2  -5 5708.83 656.557   8
  -4  -2   5 6263.30 715.845   4
  -4  -2   5 7404.22 727.143   2
  -4   2   5 6884.27 651.376   2
  -4   2   5 6066.01 604.163   3
  -4  -2   5 6042.43 581.609  10
  -4   2   5 5931.51 532.661  10
   4  -2  -4 2427.33 424.934   8
   4   2  -4 1499.80 354.347   8
  -4  -2   4 2594.79 423.752   2
  -4   2   4 2118.14 355.512   2
  -4  -2   4 2625.31 487.654   4
  -4  -2   4 2106.40 344.876  10
  -4   2   4 1841.00 281.454  10
  -4   2   4 1766.37 367.971   3
   4  -2  -3 523.259 293.140   8
   4   2  -3 607.521 274.259   8
  -4   2   3 461.640 195.650   2
  -4  -2   3 191.438 232.151   2
  -4  -2   3 811.693 350.665   4
  -4  -2   3 835.661 222.274  10
  -4   2   3 328.217 149.830  10
  -4   2   3 379.860 235.308   3
   4  -2  -2 5017.93 562.029   8
   4   2  -2 6178.99 648.069   8
  -4   2   2 6337.42 589.952   2
  -4  -2   2 5025.96 574.155   2
  -4   2   2 5773.90 635.211   3
   4  -2  -1 534.644 277.748   8
   4   2  -1 619.729 296.886   8
   4  -2  -1-209.491 253.600   7
   4   2  -1 555.419 257.326   7
  -4   2   1 970.758 329.336   3
  -4   2   1 652.217 270.393   2
  -4  -2   1 717.287 282.370   2
  -4   2   0 14843.7 951.129   2
  -4  -2   0 14804.7 1018.43   2
   4   2   0 15043.0 950.437   7
   4  -2   0 15975.7 1022.88   7
  -4   2   0 15811.2 1083.09   3
   4   2   0 14491.4 1016.25   8
  -4   2  -1 11272.5 860.367   2
  -4  -2  -1 10746.5 873.953   2
   4   2   1 13016.1 894.601   7
   4  -2   1 13711.6 969.889   7
  -4   2  -1 12620.8 1005.92   3
   4   2   2 70.4245 220.572   7
   4  -2   2 497.819 270.750   7
  -4  -2  -2 384.619 273.019   2
  -4   2  -2 652.108 343.633   3
  -4  -2  -2 451.844 228.817   6
   4   2   2 21.2190 162.708   9
   4   2   3 21939.0 1270.33   7
   4  -2   3 21890.7 1331.61   7
  -4   2  -3 19923.3 1337.67   3
  -4  -2  -3 20484.8 1163.93   6
   4   2   3 19519.2 1008.10   9
   4   2   4 2114.66 464.127   7
   4  -2   4 2554.58 493.655   7
  -4   2  -4 1301.89 419.366   3
  -4  -2  -4 1999.51 418.932   6
   4   2   4 1515.02 297.526   9
   4   2   5 939.691 284.088   7
   4  -2   5 934.948 377.416   7
  -4   2  -5 1762.12 483.451   3
  -4  -2  -5 1038.45 348.951   6
  -4   2  -5 1263.21 393.518   6
   4   2   6 1816.86 485.325   7
   4  -2   6 1778.63 511.279   7
  -4  -2  -6 2208.19 508.213   6
  -4   2  -6 1639.55 464.633   6
   4   2   7 3953.59 692.625   7
   4  -2   7 4206.02 730.254   7
  -4  -2  -7 4227.98 694.439   6
  -4   2  -7 4624.93 722.751   6
   4   2   8 4149.50 752.224   7
   4  -2   8 3975.85 761.764   7
  -4  -2  -8 3951.01 811.587   6
  -4   2  -8 4930.06 816.401   6
   4   3 -11 1047.61 475.957   8
   4  -3 -11 737.860 406.393   8
  -4  -3  11 1099.18 441.768   2
  -4  -3  11 1507.24 509.673  10
  -4   3  11 5.47289 310.984  10
  -4  -3  10-130.267 216.785   2
   4   3 -10 318.529 369.789   8
   4  -3 -10 279.830 305.305   8
  -4   3  10 566.176 357.563   4
  -4  -3  10 623.567 373.538  10
  -4   3  10 276.281 364.087  10
   4   3  -9 722.072 358.190   8
   4  -3  -9 258.685 308.247   8
  -4   3   9 628.942 302.830   2
  -4   3   9 653.905 386.976   4
  -4   3   9 538.914 314.518  10
  -4  -3   9 345.893 365.731  10
  -4  -3   9-145.574 260.974   2
  -4   3   8 2651.53 478.997   2
   4   3  -8 1744.06 452.441   8
   4  -3  -8 2683.75 528.131   8
  -4   3   8 2705.37 538.145   4
  -4  -3   8 2460.67 501.616  10
  -4   3   8 3379.50 546.259  10
  -4  -3   8 1978.79 457.662   2
   4   3  -7 556.576 303.879   8
   4  -3  -7 263.375 187.496   8
  -4   3   7 527.028 352.191   4
  -4  -3   7 531.912 283.212   2
  -4  -3   7 871.041 342.322  10
  -4   3   7 570.307 251.691  10
  -4   3   7 407.532 219.536   3
  -4   3   7 597.224 245.507   2
   4  -3  -6 8147.19 784.375   8
   4   3  -6 7152.08 775.585   8
  -4  -3   6 7610.02 799.269   4
  -4   3   6 7918.93 820.415   4
  -4  -3   6 6831.56 758.064   2
  -4   3   6 7868.85 666.213   3
  -4   3   6 7636.71 697.041   2
  -4  -3   6 7222.20 711.578  10
  -4   3   6 7493.28 660.802  10
   4  -3  -5 2128.10 400.861   8
   4   3  -5 2744.83 485.097   8
  -4  -3   5 2459.24 477.805   4
  -4  -3   5 1985.38 414.782   2
  -4   3   5 2517.98 397.906   2
  -4  -3   5 2321.57 396.626  10
  -4   3   5 2533.66 349.962  10
  -4   3   5 2252.93 403.955   3
   4  -3  -4 6621.72 672.422   8
   4   3  -4 7151.57 726.729   8
  -4  -3   4 5477.90 645.778   4
  -4  -3   4 7057.72 708.637   2
  -4   3   4 6653.20 602.603   2
  -4   3   4 7018.40 675.199   3
  -4  -3   4 6977.74 614.818  10
  -4   3   4 5950.27 464.474  10
   4  -3  -4 6307.87 387.570   5
   4  -3  -3 385.864 122.696   5
   4  -3  -3 181.256 237.880   8
   4   3  -3 325.210 278.318   8
  -4   3   3-8.34323 167.594   2
  -4  -3   3-190.676 204.516   2
  -4  -3   3 103.537 213.793   4
  -4   3   3 180.253 120.521  10
  -4   3   3 305.814 275.126   3
  -4   3   2 2579.24 368.100   2
  -4  -3   2 2036.99 414.477   2
   4  -3  -2 2604.86 417.047   8
   4   3  -2 2374.77 424.524   8
  -4  -3   2 2141.97 405.509   4
  -4   3   2 2467.81 452.148   3
   4  -3  -2 2449.50 238.085   5
   4  -3  -1 3382.50 471.381   8
   4   3  -1 3044.76 496.970   8
   4   3  -1 3638.22 462.609   7
   4  -3  -1 2702.56 447.821   7
  -4   3   1 3306.54 506.026   3
  -4   3   1 2684.08 421.904   2
  -4  -3   1 2502.34 445.912   2
   4   3   0 622.501 318.198   8
   4   3   0 1049.76 291.580   7
   4  -3   0 789.850 310.495   7
  -4   3   0 809.882 276.648   2
  -4   3   0 910.874 317.526   3
  -4  -3   0 992.467 320.948   2
   4   3   1 324.834 216.360   7
   4  -3   1 468.430 251.364   7
  -4   3  -1 145.295 195.343   2
  -4   3  -1-38.0728 231.613   3
  -4  -3  -1 200.199 226.215   2
  -4  -3  -1 155.322 182.284   6
   4   3   2 2568.50 428.417   7
   4  -3   2 2648.07 518.141   7
  -4  -3  -2 2226.96 460.171   2
  -4   3  -2 3327.90 579.655   3
  -4  -3  -2 2896.15 423.772   6
   4   3   2 3654.82 454.092   9
  -4  -3  -3 3566.16 583.990   2
   4   3   3 3477.17 538.450   7
   4  -3   3 3951.25 586.199   7
  -4   3  -3 4387.28 664.815   3
  -4  -3  -3 3235.75 476.843   6
   4   3   3 2766.88 402.387   9
   4   3   4 7990.13 796.796   7
   4  -3   4 8285.71 869.360   7
  -4   3  -4 6728.10 811.129   3
  -4  -3  -4 7020.68 708.144   6
   4   3   4 7510.45 648.371   9
   4   3   5 1515.94 419.754   7
   4  -3   5 3216.77 590.115   7
  -4   3  -5 2361.95 520.455   3
  -4  -3  -5 2345.90 503.664   6
  -4   3  -5 2614.93 561.222   6
   4   3   6 1410.76 413.339   7
   4  -3   6 1300.18 409.855   7
  -4   3  -6 911.653 335.167   3
  -4  -3  -6 2397.39 537.476   6
  -4   3  -6 1266.93 447.822   6
   4   3   7 957.942 422.591   7
   4  -3   7-168.825 286.452   7
  -4  -3  -7 66.0456 260.974   6
  -4   3  -7 568.094 376.075   6
   4   3   8 1070.45 456.081   7
  -4  -3  -8 141.409 305.824   6
  -4   3  -8 956.881 518.400   6
   4  -4 -11-118.471 244.591   8
  -4  -4  11-60.3154 291.985   2
  -4  -4  11-28.4108 305.392  10
  -4   4  11 458.100 384.855  10
  -4  -4  10 4124.35 741.947   2
   4   4 -10 4822.12 781.667   8
   4  -4 -10 4700.04 718.764   8
  -4   4  10 5296.99 801.375   4
  -4  -4  10 5717.90 803.811  10
  -4   4  10 3784.24 647.052  10
   4   4  -9 1615.93 481.937   8
   4  -4  -9 2283.50 522.317   8
  -4   4   9 2658.34 487.214   2
  -4   4   9 3067.16 599.561   4
  -4  -4   9 2376.42 523.811  10
  -4   4   9 2458.73 516.671  10
  -4  -4   9 2242.25 525.778   2
  -4   4   8 675.032 245.946   2
   4   4  -8 1049.18 379.443   8
   4  -4  -8 690.345 324.335   8
  -4   4   8 61.8858 246.550   4
  -4  -4   8 181.244 302.776  10
  -4   4   8-122.697 245.931  10
  -4  -4   8 226.171 277.939   2
   4   4  -7 7821.74 854.004   8
   4  -4  -7 8517.96 836.176   8
  -4   4   7 9663.65 923.983   4
  -4   4   7 8336.96 686.301   3
  -4  -4   7 6347.84 773.481   2
  -4   4   7 7830.26 729.702   2
  -4  -4   7 8300.66 818.674  10
  -4   4   7 7547.47 712.833  10
   4  -4  -6 5865.17 683.999   8
   4   4  -6 5269.86 688.619   8
  -4  -4   6 5916.64 702.468   2
  -4   4   6 6697.43 648.530   3
  -4   4   6 5958.17 599.320   2
  -4  -4   6 6221.64 690.847  10
  -4   4   6 5138.47 564.933  10
   4  -4  -5 881.455 308.396   8
   4   4  -5 217.034 243.628   8
   4  -4  -5 486.860 181.729   5
  -4  -4   5 639.942 326.767   4
  -4  -4   5 887.853 295.104   2
  -4   4   5 668.559 262.889   2
  -4  -4   5 1129.20 336.637  10
  -4   4   5 1036.00 271.545  10
  -4   4   5 926.291 309.827   3
   4  -4  -4 253.810 147.310   5
   4  -4  -4 20.1940 178.832   8
   4   4  -4 500.815 306.914   8
  -4  -4   4-34.3077 203.511   2
  -4   4   4 526.121 209.053   2
  -4  -4   4 476.480 307.944   4
  -4  -4   4 165.896 242.670  10
  -4   4   4 243.072 138.919  10
  -4   4   4 701.012 314.176   3
   4  -4  -3 4562.69 531.779   8
   4   4  -3 5105.53 630.675   8
  -4  -4   3 4491.37 608.640   4
  -4   4   3 3945.55 447.982   2
  -4  -4   3 4803.35 612.065   2
  -4   4   3 3874.45 292.747  10
  -4   4   3 4449.94 554.581   3
   4  -4  -3 4589.63 370.225   5
  -4   4   2 1094.67 274.549   2
   4  -4  -2 705.830 244.015   8
   4   4  -2 95.7213 214.280   8
  -4  -4   2 1035.21 313.321   2
  -4  -4   2 515.386 298.338   4
  -4   4   2 729.207 297.895   3
   4  -4  -2 500.453 158.997   5
   4  -4  -1 108.756 247.055   8
   4   4  -1-33.9466 183.225   8
  -4  -4   1 441.378 229.178   4
   4   4  -1 346.036 251.753   7
   4  -4  -1 459.471 272.911   7
  -4   4   1-98.2478 213.617   3
  -4   4   1-33.0506 150.821   2
   4  -4  -1 127.188 141.957   5
  -4  -4   1 332.252 251.925   2
  -4  -4   0 913.378 301.369   4
   4   4   0 513.251 233.973   7
   4  -4   0 1260.00 344.084   7
  -4   4   0 721.876 248.272   2
  -4  -4   0 667.926 197.815   6
  -4   4   0 743.373 314.568   3
  -4  -4   0 244.316 194.864   2
   4   4   0 889.765 331.013   8
   4   4   1 715.562 273.305   7
   4  -4   1 955.530 353.969   7
  -4   4  -1 717.092 277.945   2
  -4  -4  -1 893.419 245.176   6
  -4   4  -1 407.731 306.702   3
  -4  -4  -1 423.935 266.280   2
   4   4   2 2849.24 451.096   7
   4  -4   2 2545.75 474.575   7
  -4  -4  -2 2753.63 509.711   2
  -4  -4  -2 2947.07 399.663   6
  -4   4  -2 3377.28 570.478   3
   4   4   2 3039.49 429.689   9
   4   4   3 2158.64 432.529   7
   4  -4   3 2540.86 514.685   7
  -4  -4  -3 1195.76 372.214   2
  -4  -4  -3 1880.18 368.425   6
  -4   4  -3 1555.91 418.720   3
   4   4   3 1536.02 323.163   9
   4   4   4 3247.51 525.216   7
   4  -4   4 3250.72 577.899   7
  -4   4  -4 2457.14 545.402   3
  -4  -4  -4 4423.35 574.767   6
   4   4   4 2712.09 442.780   9
   4   4   5 8019.55 839.214   7
   4  -4   5 7863.53 896.649   7
  -4   4  -5 6502.40 854.501   3
  -4  -4  -5 6073.78 740.631   6
   4   4   6 2404.06 514.723   7
   4  -4   6 2578.81 577.140   7
  -4   4  -6 1489.31 488.758   3
  -4  -4  -6 2047.77 499.147   6
  -4   4  -6 2865.93 581.577   6
   4   4   7 551.336 328.817   7
   4  -4   7 757.925 422.786   7
  -4   4  -7 574.195 384.604   3
  -4  -4  -7 349.323 256.367   6
  -4   4  -7 980.389 433.177   6
   4   4   8 3042.69 626.962   7
  -4  -4  -8 3417.51 683.957   6
   4  -5 -11 588.170 354.257   8
  -4   5  11-71.1480 345.224   4
  -4  -5  11 733.784 458.152  10
  -4   5  11 554.197 361.196  10
  -4  -5  10 1606.17 502.975   2
   4   5 -10 2506.32 583.698   8
   4  -5 -10 2283.05 553.523   8
  -4   5  10 1206.35 432.204   4
  -4  -5  10 2648.47 619.878  10
  -4   5  10 2300.00 541.322  10
   4   5  -9 3020.11 583.370   8
   4  -5  -9 2669.10 533.770   8
  -4   5   9 2999.33 576.693   4
  -4  -5   9 3649.49 652.958  10
  -4   5   9 2191.28 507.368  10
  -4  -5   9 2186.80 537.928   2
   4   5  -8 636.812 307.675   8
   4  -5  -8 297.826 263.182   8
  -4  -5   8 94.8739 239.305  10
  -4   5   8 503.122 296.933  10
  -4  -5   8 835.049 350.452   2
   4  -5  -7 2313.71 456.349   8
   4   5  -7 2353.83 511.879   8
  -4   5   7 2455.80 524.631   4
  -4  -5   7 1340.40 414.722   2
  -4  -5   7 1612.29 444.337  10
  -4   5   7 1566.00 402.634  10
  -4   5   7 2091.74 382.508   3
  -4   5   7 1607.22 332.249   2
   4  -5  -6 4611.52 590.114   8
   4   5  -6 3746.37 599.550   8
  -4   5   6 3736.42 461.467   2
  -4  -5   6 2632.50 504.155   2
  -4  -5   6 4184.30 583.134  10
  -4   5   6 2863.52 430.206  10
  -4   5   6 3106.32 477.669   3
   4  -5  -6 3746.14 441.841   5
   4  -5  -5 1548.19 358.098   8
   4   5  -5 1680.69 377.545   8
   4  -5  -5 2052.30 312.335   5
  -4  -5   5 2355.31 454.613  10
  -4  -5   5 1788.60 412.217   2
  -4   5   5 2316.65 360.704   2
  -4   5   5 1947.84 335.472  10
  -4   5   5 1596.44 366.917   3
   4  -5  -4 24990.5 1255.05   8
   4   5  -4 22660.1 1327.67   8
  -4  -5   4 22226.6 1262.99   4
  -4  -5   4 21968.2 1316.23   2
  -4   5   4 23482.8 1087.11   2
  -4   5   4 22732.7 1283.47   3
  -4  -5   4 22307.1 1196.96  10
  -4   5   4 21185.9 897.690  10
   4  -5  -4 24193.7 986.284   5
   4  -5  -3 4830.61 535.719   8
   4   5  -3 5889.72 663.554   8
  -4  -5   3 5128.26 593.140   4
  -4   5   3 6313.50 552.371   2
  -4  -5   3 5942.83 667.287   2
  -4   5   3 6946.99 705.898   3
   4  -5  -3 6534.33 489.358   5
   4  -5  -2 861.503 221.798   5
  -4   5   2 1413.42 280.735   2
   4  -5  -2 1359.73 301.719   8
   4   5  -2 1756.52 387.477   8
  -4  -5   2 1505.05 364.997   2
  -4  -5   2 1055.72 308.845   4
   4   5  -2 980.702 309.263   1
  -4   5   2 1599.42 391.921   3
  -4  -5   1 864.829 326.719   2
   4   5  -1 818.781 303.607   8
   4   5  -1 768.624 253.104   1
  -4  -5   1 776.265 277.710   4
   4   5  -1 1046.57 283.023   7
   4  -5  -1 662.075 281.226   7
  -4   5   1 1277.74 364.860   3
  -4   5   1 1155.56 259.897   2
   4  -5  -1 1155.13 252.056   5
   4  -5  -1 1141.81 309.287   8
   4   5   0 2950.53 369.423   1
  -4  -5   0 3066.83 412.489   4
   4   5   0 2711.12 412.822   7
   4  -5   0 3304.72 492.919   7
  -4   5   0 2957.70 415.948   2
  -4  -5   0 2652.02 293.192   6
   4  -5   0 2987.94 382.299   5
  -4   5   0 2992.18 504.167   3
  -4  -5   0 3265.74 507.701   2
   4   5   0 2892.89 478.498   8
  -4   5  -1 18953.6 1071.36   2
  -4  -5  -1 16687.3 1155.53   2
   4   5   1 20026.5 1084.16   7
   4  -5   1 17109.3 1132.69   7
  -4  -5  -1 18717.1 903.407   4
  -4   5  -1 18649.8 1257.14   3
  -4  -5  -1 18222.4 872.676   6
   4   5   1 17503.2 800.181   1
   4   5   1 19403.4 1135.25   9
  -4  -5  -1 14833.1 741.577   5
  -4  -5  -2 8665.24 854.949   2
   4   5   2 11184.8 837.156   7
   4  -5   2 10620.9 913.203   7
  -4   5  -2 9688.97 940.379   3
  -4  -5  -2 8213.67 646.591   6
   4   5   2 9548.01 792.536   9
   4   5   3 371.295 251.202   7
   4  -5   3 344.823 259.989   7
  -4  -5  -3 182.075 213.831   2
  -4  -5  -3 138.255 240.005   6
  -4   5  -3 351.162 335.511   3
   4   5   3 422.473 255.001   9
  -4  -5  -4 5337.94 743.524   2
   4   5   4 7606.57 755.561   7
   4  -5   4 8111.60 893.697   7
  -4   5  -4 6787.86 826.038   3
  -4  -5  -4 5549.14 637.357   6
   4   5   4 6467.01 667.411   9
   4   5   5 2188.07 471.518   7
   4  -5   5 2801.45 623.527   7
  -4  -5  -5 2530.67 493.844   6
  -4   5  -5 2034.47 508.178   3
   4   5   5 2223.12 426.472   9
   4   5   6 241.668 283.807   7
   4  -5   6 672.311 414.916   7
  -4   5  -6 633.169 346.860   3
  -4  -5  -6 922.046 365.734   6
  -4   5  -6 494.858 329.005   6
   4   5   7 495.180 365.294   7
   4  -5   7 340.047 342.688   7
  -4   5  -7 491.335 403.440   3
  -4  -5  -7 258.964 306.181   6
  -4   5  -7 307.169 314.356   6
   4   5   8 1228.44 441.152   7
  -4  -5  -8 1065.05 434.586   6
   4  -6 -11-74.2554 296.707   8
  -4   6  11 40.7514 330.291   4
  -4   6  11 225.119 303.120  10
  -4  -6  10 3431.03 645.322   2
   4   6 -10 2704.56 599.371   8
   4  -6 -10 2079.94 520.098   8
  -4   6  10 2863.65 611.060   4
  -4  -6  10 3177.55 651.850  10
  -4   6  10 3013.54 612.604  10
   4   6  -9 3679.87 661.851   8
   4  -6  -9 3628.90 604.674   8
  -4   6   9 3846.62 670.106   4
  -4  -6   9 5027.32 772.685  10
  -4   6   9 3685.35 609.448  10
  -4  -6   9 4386.40 726.419   2
   4   6  -8 498.470 360.776   8
   4  -6  -8-59.1825 200.374   8
  -4   6   8 554.520 420.977   4
  -4  -6   8 792.962 359.035  10
  -4   6   8 202.669 317.600  10
  -4  -6   8 512.580 330.744   2
   4  -6  -7 22781.4 1355.51   8
   4   6  -7 21641.8 1448.18   8
  -4  -6   7 20441.2 1426.86   2
  -4   6   7 19961.2 1188.71   3
  -4  -6   7 21083.2 1366.51  10
  -4   6   7 19433.9 1174.72  10
   4  -6  -7 18624.8 1066.59   5
   4  -6  -6 9489.40 842.363   8
   4   6  -6 8810.20 898.530   8
  -4  -6   6 8801.84 904.229   2
  -4   6   6 10712.5 879.181   3
  -4   6   6 10549.6 743.086   2
  -4  -6   6 10092.2 901.497  10
  -4   6   6 9128.87 732.804  10
   4  -6  -6 8448.25 674.254   5
   4  -6  -5 11888.9 889.653   8
   4   6  -5 11208.1 962.317   8
  -4  -6   5 10350.7 938.178   2
  -4   6   5 11939.8 765.973   2
  -4   6   5 11498.3 920.150   3
  -4  -6   5 11045.8 901.431  10
  -4   6   5 11245.0 725.987  10
   4  -6  -5 11205.0 736.828   5
   4  -6  -4 706.712 223.675   5
   4  -6  -4 829.088 258.948   8
   4   6  -4 597.051 284.255   8
  -4  -6   4 553.260 265.972   2
  -4   6   4 855.180 249.795   2
  -4   6   4 882.806 314.676   3
   4  -6  -3 564.719 202.452   5
   4  -6  -3 321.364 220.594   8
   4   6  -3 513.860 265.344   8
  -4  -6   3 36.4916 187.312   2
  -4   6   3 299.723 177.390   2
   4   6  -3 314.644 263.839   1
  -4   6   3 238.894 266.471   3
   4   6  -2 14071.8 1015.58   8
  -4  -6   2 15292.4 957.248   4
  -4   6   2 16382.4 860.437   2
  -4  -6   2 16348.6 1115.81   2
  -4   6   2 15530.2 1101.66   3
   4  -6  -2 16188.2 860.682   5
   4   6  -2 14824.1 914.815   1
   4  -6  -2 15102.0 928.064   8
   4  -6  -1 134.589 160.813   5
  -4  -6   1 153.989 198.316   2
   4   6  -1-1.22866 227.319   8
  -4  -6   1 401.393 239.958   4
   4   6  -1 379.626 180.223   7
   4  -6  -1 363.928 244.823   7
   4   6  -1 226.700 185.028   1
  -4   6   1 297.809 325.111   3
  -4   6   1-15.3248 148.742   2
  -4   6   0 12753.5 822.236   2
   4   6   0 15177.0 901.268   7
   4  -6   0 15855.4 1068.96   7
  -4  -6   0 11267.5 942.933   2
  -4  -6   0 14291.8 817.921   4
  -4   6   0 12833.0 1047.64   3
   4   6   0 13515.4 783.355   1
   4  -6   0 14741.1 867.598   5
   4   6   0 12505.3 982.758   8
  -4  -6  -1 2580.69 333.272   4
   4   6   1 3593.43 467.037   7
   4  -6   1 3295.37 522.039   7
  -4   6  -1 2947.38 432.032   2
  -4   6  -1 2441.65 503.729   3
  -4  -6  -1 2496.97 477.093   2
   4   6   1 1981.20 302.822   1
   4   6   1 2838.20 474.785   9
   4   6   2 7055.84 654.193   7
   4  -6   2 6793.63 758.648   7
  -4   6  -2 6339.83 780.700   3
  -4  -6  -2 5168.77 510.605   6
  -4  -6  -2 4931.90 655.481   2
   4   6   2 5033.10 615.286   9
   4   6   3 1746.69 378.364   7
   4  -6   3 2426.19 510.232   7
  -4  -6  -3 1785.59 346.693   6
  -4  -6  -3 1414.17 398.700   2
  -4   6  -3 1462.01 443.007   3
   4   6   3 2221.81 433.696   9
   4   6   4 3580.27 525.801   7
   4  -6   4 2417.06 519.483   7
  -4  -6  -4 2754.92 540.575   2
  -4  -6  -4 2117.31 423.428   6
  -4   6  -4 2472.47 527.502   3
   4   6   4 2359.24 446.629   9
  -4  -6  -5 6726.33 875.406   2
   4   6   5 5858.62 714.255   7
   4  -6   5 7123.40 877.764   7
  -4   6  -5 6794.79 859.015   3
  -4  -6  -5 5994.31 704.629   6
   4   6   5 5141.68 642.878   9
   4   6   6 863.998 373.515   7
   4  -6   6 1759.12 495.032   7
  -4  -6  -6 969.943 405.107   6
  -4   6  -6 1222.21 402.733   3
  -4   6  -6 1216.32 476.670   6
   4   6   7 6621.56 843.089   7
   4  -6   7 8063.15 1039.53   7
  -4   6  -7 6907.40 917.507   3
  -4   6  -7 8578.60 1041.55   6
  -4  -6  -7 5912.94 825.060   6
   4   6   8 1664.83 465.944   7
  -4  -6  -8 1660.58 487.783   6
   4  -7 -11 983.539 388.021   8
  -4   7  11 1336.09 459.364   4
  -4   7  11 633.143 368.167  10
  -4  -7  10 6747.24 939.892   2
   4   7 -10 5266.56 839.525   8
   4  -7 -10 5869.75 791.143   8
  -4   7  10 4989.68 758.313   4
  -4  -7  10 4583.14 777.096  10
  -4   7  10 5480.10 788.340  10
   4   7  -9 1216.59 388.850   8
   4  -7  -9 818.271 330.000   8
  -4   7   9 572.308 382.301   4
  -4  -7   9 1058.91 428.385  10
  -4   7   9 636.494 383.324  10
  -4  -7   9 567.283 317.111   2
   4   7  -8 8030.10 919.061   8
   4  -7  -8 6317.80 740.842   8
  -4   7   8 7201.21 851.691   4
  -4  -7   8 7988.25 954.543   2
  -4  -7   8 7302.85 891.270  10
  -4   7   8 6737.88 762.008  10
   4  -7  -7 516.028 290.805   8
   4   7  -7 353.356 276.694   8
   4  -7  -7 469.507 216.320   5
  -4  -7   7 551.992 299.078  10
  -4  -7   7 380.810 289.189   2
  -4   7   7 254.769 187.430  10
  -4   7   7 597.906 302.605   3
   4  -7  -6 10611.1 864.744   8
   4   7  -6 10120.0 964.945   8
  -4  -7   6 8649.48 926.712   2
  -4   7   6 11747.9 943.555   3
  -4  -7   6 11272.8 963.381  10
  -4   7   6 9715.20 779.639  10
   4  -7  -6 10596.9 804.380   5
   4  -7  -5 3166.60 469.004   8
   4   7  -5 3134.65 536.154   8
   4  -7  -5 3738.01 459.717   5
  -4  -7   5 3086.52 550.005   2
  -4  -7   5 3877.28 576.704  10
  -4   7   5 3184.97 517.967   3
   4  -7  -4 7438.95 657.677   8
   4   7  -4 6763.29 748.582   8
  -4  -7   4 6694.92 754.741   2
  -4   7   4 7889.47 810.830   3
   4  -7  -4 7515.22 617.855   5
   4   7  -4 6711.60 721.104   1
   4  -7  -3 643.605 238.279   5
   4  -7  -3 418.347 183.843   8
   4   7  -3 339.205 284.104   8
   4   7  -3 252.893 225.283   1
  -4  -7   3 8.36115 189.661   2
  -4   7   3 515.627 210.987   2
  -4   7   3 257.576 237.686   3
   4  -7  -2 1484.40 305.789   5
   4  -7  -2 1717.32 347.520   8
   4   7  -2 960.423 310.226   8
  -4   7   2 1690.42 271.298   2
  -4  -7   2 1510.62 384.959   2
   4   7  -2 1870.55 374.891   1
  -4   7   2 1250.74 400.158   3
   4   7  -1 8762.49 676.959   7
  -4   7   1 8653.11 616.354   2
   4  -7  -1 8504.77 777.011   7
  -4  -7   1 9460.35 856.311   2
  -4   7   1 10657.2 951.855   3
   4   7  -1 8632.10 704.753   1
   4  -7  -1 8988.89 699.294   5
   4   7  -1 8470.43 800.958   8
   4   7   0 4301.38 475.730   7
   4  -7   0 3033.78 493.510   7
   4   7   0 3241.78 422.970   1
  -4   7   0 3096.80 411.484   2
  -4   7   0 4654.74 649.959   3
  -4  -7   0 2784.37 480.591   2
   4  -7   0 2896.56 421.765   5
   4   7   0 4299.42 589.438   9
   4   7   1 1224.63 295.233   7
   4  -7   1 230.784 246.132   7
   4   7   1 346.777 214.259   1
  -4   7  -1 449.396 223.379   2
  -4   7  -1 465.995 290.473   3
  -4  -7  -1 430.339 268.980   2
   4  -7   1 582.592 240.827   5
   4   7   1 496.962 273.653   9
   4   7   2 6772.89 633.825   7
   4  -7   2 5746.01 701.169   7
  -4   7  -2 7408.88 853.760   3
  -4  -7  -2 4634.26 656.056   2
   4   7   2 7070.51 750.874   9
  -4  -7  -2 4804.25 514.660   5
   4   7   3 578.169 231.582   7
   4  -7   3 1175.93 430.574   7
  -4  -7  -3 486.241 294.542   2
  -4   7  -3 733.611 344.537   3
   4   7   3 1068.84 379.767   9
  -4  -7  -4 13708.1 1178.74   2
   4   7   4 14035.1 1003.34   7
  -4   7  -4 13557.6 1175.48   3
   4   7   4 11812.6 990.777   9
   4   7   5-78.7201 204.876   7
   4  -7   5 130.564 296.448   7
  -4  -7  -5 412.381 245.632   2
  -4   7  -5-177.442 271.133   3
   4   7   5 203.759 255.166   9
  -4  -7  -6 2625.63 599.264   2
   4   7   6 3457.75 568.973   7
   4  -7   6 2729.95 587.472   7
  -4  -7  -6 3048.71 562.880   6
  -4   7  -6 2533.41 570.363   3
  -4   7  -6 3843.81 711.276   6
   4  -7   7 28.9548 237.645   7
  -4  -7  -7-135.264 260.564   6
  -4   7  -7 375.550 298.670   3
  -4   7  -7 467.349 377.692   6
  -4   8  11 757.074 538.489   4
  -4   8  11 598.288 395.128  10
   4   8 -10 758.169 394.377   8
  -4   8  10 768.713 415.864   4
  -4  -8  10 1900.09 574.154  10
  -4   8  10 1458.43 449.707  10
   4   8  -9 2379.00 558.225   8
   4  -8  -9 2235.30 474.809   8
  -4   8   9 3645.66 680.023   4
  -4  -8   9 3171.17 643.469  10
  -4   8   9 2170.20 494.674  10
  -4  -8   9 3128.43 633.976   2
   4  -8  -8 7977.40 807.248   8
   4   8  -8 8257.32 950.055   8
  -4   8   8 9022.00 965.931   4
  -4  -8   8 8169.46 970.960   2
  -4  -8   8 8909.90 989.833  10
  -4   8   8 7537.18 828.445  10
   4  -8  -7 5747.26 678.816   8
   4   8  -7 6609.11 826.383   8
  -4   8   7 5878.96 688.429   3
  -4   8   7 6202.53 693.232  10
  -4  -8   7 6245.31 788.608  10
  -4  -8   7 6129.08 806.472   2
   4  -8  -7 6328.40 701.545   5
   4  -8  -6 243.922 201.648   8
   4   8  -6 257.392 248.725   8
   4  -8  -6 229.662 205.629   5
  -4  -8   6 177.930 265.909   2
  -4  -8   6 423.400 321.355  10
  -4   8   6 189.406 234.123   3
   4   8  -5 12419.0 1034.77   1
   4  -8  -5 13992.4 944.076   8
   4   8  -5 14507.0 1109.78   8
  -4  -8   5 13774.1 1135.63   2
  -4   8   5 13634.9 1077.49   3
  -4  -8   5 13564.3 1065.20  10
   4  -8  -5 14721.3 953.389   5
   4  -8  -4 19435.0 1058.45   8
   4   8  -4 18758.8 1244.03   8
  -4  -8   4 19109.5 1296.35   2
  -4   8   4 18782.9 1268.87   3
   4  -8  -4 19587.8 1072.24   5
   4   8  -4 18270.2 1195.40   1
   4  -8  -3 7209.20 613.861   8
   4   8  -3 7290.03 753.567   8
  -4  -8   3 6124.77 719.907   2
  -4   8   3 8101.47 843.746   3
   4   8  -3 6346.52 690.188   1
   4  -8  -3 7599.80 661.869   5
   4   8  -2 4189.70 601.872   8
   4   8  -2 3838.87 527.606   1
  -4  -8   2 3580.89 580.694   2
   4   8  -2 3183.00 403.855   7
   4  -8  -2 3438.48 525.580   7
   4  -8  -2 3581.01 469.796   5
  -4   8   2 3832.12 600.539   3
   4  -8  -2 3339.31 426.299   8
   4  -8  -1 1222.94 316.620   5
   4   8  -1 444.377 318.552   8
  -4  -8   1 67.7753 199.724   2
   4   8  -1 413.730 212.269   7
   4  -8  -1 965.276 341.852   7
   4   8  -1 703.789 314.236   1
  -4   8   1 803.257 350.486   3
  -4   8   1 738.461 213.303   2
   4   8   0 4759.18 484.697   7
   4  -8   0 5069.57 637.853   7
   4   8   0 3201.01 447.829   1
  -4   8   0 3450.65 408.309   2
   4  -8   0 4652.22 548.770   5
  -4   8   0 3973.49 648.714   3
   4   8   0 4237.28 591.767   9
  -4  -8   0 2611.42 506.239   2
  -4   8  -1 9400.81 720.416   2
   4   8   1 9500.49 705.183   7
   4  -8   1 9836.95 905.771   7
  -4  -8  -1 8540.08 870.942   2
   4   8   1 8440.54 659.164   1
  -4   8  -1 10326.2 1000.07   3
   4  -8   1 8032.21 750.497   5
   4   8   1 8389.54 833.941   9
   4   8   2 8185.11 678.231   7
   4  -8   2 9093.82 897.888   7
  -4  -8  -2 7579.41 814.918   2
  -4   8  -2 7887.76 879.885   3
   4   8   2 7821.56 818.253   9
   4   8   3 12162.7 868.969   7
  -4  -8  -3 11510.0 1039.85   2
   4  -8   3 12466.6 1083.09   7
  -4   8  -3 12401.2 1131.15   3
   4   8   3 11782.1 1002.05   9
  -4  -8  -3 9741.99 802.739   5
   4  -8   4 4399.52 690.923   7
  -4  -8  -4 3129.94 587.069   2
  -4   8  -4 4103.62 697.620   3
   4   8   4 3731.11 612.698   9
   4  -8   5 1848.38 473.012   7
  -4  -8  -5 2361.44 551.589   2
  -4   8  -5 2588.76 599.386   3
   4   8   5 1805.39 466.951   9
   4  -8   6 4190.92 722.737   7
  -4  -8  -6 3738.32 725.966   2
  -4   8  -6 3111.49 617.800   3
   4   8   6 2858.82 539.488   9
  -4  -8  -7 2000.93 576.220   2
  -4   8  -7 2761.21 605.188   3
  -4   9  10 624.274 371.572   4
  -4   9  10 675.423 419.698  10
   4   9  -9 331.355 304.015   8
  -4   9   9 922.377 404.092   4
  -4  -9   9-168.779 280.199  10
  -4   9   9 508.339 333.594  10
  -4  -9   9 583.689 398.530   2
   4   9  -8 1619.72 484.497   8
  -4   9   8 1311.01 474.463   4
  -4  -9   8 2314.89 549.796  10
  -4  -9   8 1942.52 505.664   2
   4   9  -7 1118.49 392.449   8
   4  -9  -7 1124.13 364.923   5
  -4  -9   7 1056.44 393.878  10
  -4  -9   7 1222.48 411.783   2
  -4   9   7 829.823 344.363   3
   4   9  -6 3263.74 567.223   8
  -4  -9   6 3604.17 638.982   2
  -4  -9   6 4019.76 651.964  10
   4  -9  -6 5051.05 618.891   5
  -4   9   6 4813.86 669.035   3
   4   9  -6 3628.69 630.951   1
   4   9  -5 501.560 305.052   8
   4  -9  -5 837.078 287.427   5
  -4  -9   5 853.503 352.979   2
   4   9  -5 1166.46 378.205   1
  -4   9   5 1328.95 436.382   3
   4  -9  -4 1550.04 338.359   5
   4   9  -4 1990.84 448.797   8
  -4  -9   4 924.098 325.131   2
   4   9  -4 1371.57 410.746   1
  -4   9   4 1058.14 386.088   3
   4   9  -3 14475.7 1079.03   8
  -4  -9   3 15236.0 1159.20   2
  -4   9   3 14660.2 1170.77   3
   4   9  -3 13685.1 1015.84   1
   4  -9  -3 16735.1 1028.56   5
   4  -9  -3 14193.5 854.304   8
   4   9  -2 4005.76 579.938   8
  -4  -9   2 4429.21 622.907   2
   4  -9  -2 4670.61 607.569   7
   4   9  -2 4581.23 591.185   1
   4  -9  -2 5159.80 614.800   5
  -4   9   2 4749.97 693.557   3
   4  -9  -1 16171.0 1104.95   7
  -4  -9   1 13005.6 1064.05   2
  -4   9   1 15582.6 1227.05   3
   4   9  -1 14064.8 972.489   1
   4  -9  -1 17085.8 1059.01   5
   4   9  -1 12744.7 1069.49   9
   4   9  -1 14390.3 1069.57   8
  -4  -9   0 3020.51 544.548   2
   4   9   0 4033.02 515.270   1
   4  -9   0 4107.40 586.292   7
   4  -9   0 4450.28 575.454   5
  -4   9   0 4913.23 711.421   3
   4   9   0 3441.14 612.037   9
   4  -9   1 16102.7 1165.41   7
  -4  -9  -1 14822.7 1148.67   2
   4   9   1 14136.3 934.868   1
  -4   9  -1 16153.7 1269.27   3
   4  -9   1 16530.8 1112.94   5
   4   9   1 14649.4 1145.91   9
   4  -9   2 2793.17 534.072   7
  -4   9  -2 2225.77 499.801   3
  -4  -9  -2 2109.14 468.533   2
   4  -9   2 2477.86 475.147   5
   4   9   2 2446.73 501.238   9
   4  -9   3 659.015 310.627   7
  -4  -9  -3-234.239 220.655   2
  -4   9  -3 516.156 334.763   3
   4   9   3-208.604 213.169   9
   4  -9   4 2150.63 508.669   7
  -4  -9  -4 1494.21 438.084   2
  -4   9  -4 2990.34 597.971   3
   4   9   4 1560.99 443.302   9
   4  -9   5 532.723 375.302   7
  -4  -9  -5 613.029 382.454   2
  -4   9  -5 224.740 258.866   3
   4   9   5 927.728 330.932   9
   4  -9   6 343.066 303.065   7
  -4  -9  -6 28.9217 249.808   2
  -4   9  -6 257.641 326.400   3
   4   9   6-23.8918 227.252   9
  -4   9  -7 1057.94 449.867   3
   4  10  -9 455.236 314.377   8
  -4  10   9 789.474 427.811   4
  -4 -10   9 845.483 417.831  10
   4  10  -8 48.5797 280.944   8
  -4 -10   8 138.004 296.818  10
  -4 -10   8 375.937 288.899   2
   4  10  -7 1120.74 425.480   8
   4 -10  -7 1180.18 392.415   5
  -4 -10   7 2429.52 574.537  10
  -4 -10   7 1093.44 424.293   2
  -4  10   7 1577.98 449.981   3
   4  10  -6 163.418 191.913   8
   4 -10  -6 171.211 229.429   5
   4  10  -6 365.844 292.139   1
  -4 -10   6 471.163 296.704   2
  -4  10   6-11.3083 224.241   3
   4  10  -5 3126.53 567.005   1
   4  10  -5 3989.30 609.120   8
   4 -10  -5 2781.69 473.753   5
  -4 -10   5 2758.34 548.064   2
  -4  10   5 3072.96 566.277   3
   4  10  -4 10991.0 968.305   8
  -4 -10   4 9403.46 948.013   2
  -4  10   4 11468.9 1063.35   3
   4  10  -4 9271.50 904.016   1
   4 -10  -4 11358.6 899.934   5
   4  10  -3 10763.8 943.043   8
  -4 -10   3 9533.70 942.490   2
  -4  10   3 11488.9 1077.12   3
   4  10  -3 9251.46 866.387   1
   4 -10  -3 10801.2 877.296   5
   4  10  -2 7185.57 761.724   8
   4 -10  -2 9165.66 843.216   7
  -4 -10   2 9145.28 901.300   2
  -4  10   2 10095.6 1005.55   3
   4  10  -2 7266.77 749.844   1
   4 -10  -2 7934.88 749.774   5
   4 -10  -1 677.852 317.123   5
   4  10  -1 864.890 327.304   8
  -4 -10   1 941.275 335.819   2
   4  10  -1 926.964 352.092   1
   4 -10  -1 1083.67 326.801   7
  -4  10   1 1001.42 392.045   3
   4  10  -1 541.164 333.378   9
   4 -10   0 3959.16 554.952   5
  -4 -10   0 3837.58 606.017   2
   4  10   0 3726.99 524.476   1
   4 -10   0 4843.22 654.449   7
  -4  10   0 4689.97 755.710   3
   4  10   0 3848.75 627.836   9
   4 -10   1 1126.90 363.620   7
  -4  10  -1 1422.82 456.124   3
   4  10   1 1903.32 491.360   9
   4 -10   1 1083.54 315.042   5
  -4 -10  -1 1599.44 437.698   2
   4 -10   2 5873.41 749.642   7
  -4 -10  -2 5471.38 750.910   2
   4 -10   2 6127.57 736.606   5
  -4  10  -2 5266.06 789.570   3
   4  10   2 5133.63 720.998   9
   4 -10   3 2676.09 538.990   7
  -4  10  -3 2328.64 555.037   3
  -4 -10  -3 2391.08 521.561   2
   4  10   3 1549.82 446.708   9
   4 -10   4-23.8469 262.052   7
  -4 -10  -4 674.558 310.540   2
  -4  10  -4 804.782 376.462   3
   4  10   4 977.802 425.275   9
   4 -10   5 478.334 304.903   7
  -4 -10  -5 427.100 347.408   2
  -4  10  -5 328.492 361.520   3
   4  10   5-81.2850 260.930   9
   4 -10   6 2349.42 604.292   7
  -4 -10  -6 1478.94 491.253   2
  -4  10  -6 2108.52 552.732   3
   4  10   6 2662.12 594.672   9
  -4  10  -7 2334.32 570.512   3
   4  11  -9 3082.78 651.612   8
  -4  11   9 4655.07 742.272   4
   4  11  -8 2232.75 515.304   8
  -4 -11   8 3196.24 681.807  10
  -4 -11   8 1742.50 475.104   2
   4  11  -7 3042.82 579.348   8
   4 -11  -7 2028.54 496.780   5
   4  11  -7 1996.50 507.517   1
  -4 -11   7 2939.33 618.075   2
  -4  11   7 1989.86 521.398   3
   4  11  -6 305.197 224.422   8
   4 -11  -6 1059.77 369.476   5
   4  11  -6 135.542 286.775   1
  -4 -11   6 716.427 369.280   2
  -4  11   6 386.371 289.568   3
   4  11  -5 912.860 349.007   8
   4 -11  -5 215.678 208.842   5
  -4 -11   5 246.083 285.833   2
   4  11  -5 381.209 307.436   1
  -4  11   5 1103.36 427.739   3
   4 -11  -4 872.966 281.116   5
   4  11  -4 428.783 321.943   8
   4  11  -4 255.119 315.063   1
  -4 -11   4 788.527 320.947   2
  -4  11   4 813.849 365.341   3
   4 -11  -3 2078.66 440.050   5
   4  11  -3 1784.50 446.751   8
  -4 -11   3 1345.67 383.172   2
   4 -11  -3 1894.69 428.418   7
   4  11  -3 940.002 400.436   1
  -4  11   3 1014.42 393.264   3
   4 -11  -2 5125.87 628.169   5
   4  11  -2 3239.03 560.535   8
  -4 -11   2 3133.95 567.159   2
   4 -11  -2 4902.45 642.118   7
   4  11  -2 3320.60 544.512   1
  -4  11   2 3805.53 663.183   3
   4  11  -2 4837.05 703.736   9
  -4 -11   1 4838.85 683.385   2
   4  11  -1 4655.17 606.887   1
   4 -11  -1 6056.46 711.057   7
   4 -11  -1 5879.26 697.635   5
  -4  11   1 5937.68 840.957   3
   4  11  -1 4481.85 690.807   9
   4  11  -1 6009.87 725.067   8
  -4 -11   0 4410.74 659.089   2
   4 -11   0 5306.52 671.719   7
   4  11   0 5133.95 630.355   1
  -4  11   0 6613.25 863.753   3
   4 -11   0 6724.33 765.416   5
   4  11   0 6093.31 818.473   9
  -4 -11  -1 179.125 200.201   2
   4 -11   1 337.283 263.550   7
  -4  11  -1 74.6396 220.302   3
   4  11   1 342.902 368.970   9
   4 -11   1 53.4191 200.750   5
   4 -11   2 1560.20 433.541   7
  -4  11  -2 1984.55 527.876   3
   4  11   2 1578.85 498.127   9
  -4 -11  -2 960.431 362.428   2
   4 -11   2 1616.44 467.335   5
   4 -11   3 7436.32 881.029   7
  -4  11  -3 6009.40 874.358   3
  -4 -11  -3 5851.73 784.866   2
   4  11   3 5838.61 798.628   9
   4 -11   4 693.648 401.233   7
  -4  11  -4 703.184 385.381   3
  -4 -11  -4 568.926 350.497   2
   4  11   4 450.048 384.746   9
  -4 -11  -5 547.831 312.642   2
  -4  11  -5 1386.09 465.488   3
   4  11   5 585.666 359.044   9
  -4 -11  -6 779.206 368.876   2
  -4  11  -6 1005.56 470.761   3
   4  11   6 1225.35 406.859   9
   4  12  -8 416.235 315.510   8
   4  12  -7 313.647 327.731   8
   4 -12  -7 182.536 269.030   5
   4  12  -7 1012.35 444.538   1
  -4 -12   7 602.370 350.404   2
  -4  12   7 17.6528 229.887   3
   4  12  -6 2866.78 566.209   8
   4 -12  -6 3012.36 543.788   5
   4  12  -6 4057.84 689.228   1
  -4 -12   6 3132.62 637.334   2
  -4  12   6 3419.44 637.655   3
   4  12  -5 30.4489 194.230   8
   4 -12  -5 285.444 262.330   5
   4  12  -5 302.039 372.737   1
  -4 -12   5-388.193 312.468   2
  -4  12   5 601.491 343.847   3
   4  12  -4 4534.64 676.800   1
   4  12  -4 4848.90 647.292   8
  -4 -12   4 4248.54 680.125   2
   4 -12  -4 5448.19 739.500   5
  -4  12   4 6358.16 856.398   3
   4 -12  -3-46.4529 177.548   5
   4  12  -3-66.6560 228.889   8
  -4 -12   3 348.710 258.769   2
   4 -12  -3-89.8683 200.681   7
   4  12  -3 187.434 342.128   1
  -4  12   3-19.7634 235.471   3
   4  12  -3-126.255 267.928   9
   4 -12  -2 1011.47 332.079   5
   4  12  -2 1429.10 410.017   8
  -4 -12   2 1244.25 400.041   2
   4  12  -2 1161.27 370.048   1
   4 -12  -2 846.177 319.780   7
  -4  12   2 1214.43 469.125   3
   4  12  -2 616.281 337.638   9
   4 -12  -1 111.641 206.244   5
   4  12  -1 180.681 262.033   1
  -4 -12   1 2.79661 223.326   2
   4 -12  -1-71.6356 213.818   7
  -4  12   1 793.140 432.927   3
   4  12  -1 457.026 299.334   9
  -4 -12   0 3897.93 620.516   2
   4  12   0 4399.52 602.114   1
   4 -12   0 4954.53 661.659   7
   4 -12   0 6091.42 749.174   5
  -4  12   0 5369.09 799.525   3
   4  12   0 4655.59 741.239   9
  -4 -12  -1 136.694 196.261   2
   4 -12   1 232.992 272.437   7
  -4  12  -1 811.802 403.930   3
   4  12   1 181.435 312.110   9
   4 -12   1 15.3380 218.281   5
   4 -12   2 6515.85 808.021   7
  -4 -12  -2 6016.65 783.364   2
   4 -12   2 7123.32 879.412   5
  -4  12  -2 6932.38 930.895   3
   4  12   2 6102.06 831.683   9
   4 -12   3 53.2421 257.732   7
   4 -12   3-140.485 254.460   5
  -4  12  -3 460.464 324.914   3
  -4 -12  -3 615.813 327.492   2
   4 -12   4 2762.45 571.465   7
  -4  12  -4 2295.15 609.848   3
  -4 -12  -4 1684.91 452.065   2
   4  12   4 1862.69 496.345   9
   4 -12   5 497.032 346.897   7
  -4  12  -5 31.6256 296.120   3
  -4 -12  -5-288.050 303.457   2
   4  12   5 833.745 419.559   9
   4  13  -8 842.728 321.475   8
   4  13  -7 158.979 224.404   8
   4 -13  -7-61.1485 245.971   5
  -4 -13   7-161.672 268.515   2
  -4  13   7 33.7626 261.486   3
   4  13  -6 462.544 282.106   8
   4 -13  -6 162.603 258.041   5
  -4 -13   6 702.103 361.763   2
   4  13  -6 757.511 388.574   1
  -4  13   6-120.765 251.140   3
   4  13  -5 542.195 311.435   8
   4 -13  -5 889.931 339.296   5
  -4 -13   5 411.794 268.400   2
  -4  13   5 187.501 288.132   3
   4 -13  -4 574.216 303.312   5
   4  13  -4 471.871 273.652   8
   4 -13  -4 717.285 308.742   7
  -4 -13   4 165.071 244.486   2
   4  13  -4 600.693 363.295   1
  -4  13   4 423.330 342.027   3
   4  13  -4 60.9742 281.013   9
   4 -13  -3 2058.34 461.715   5
   4  13  -3 2439.40 497.091   8
  -4 -13   3 2912.06 590.422   2
   4 -13  -3 2083.19 437.614   7
   4  13  -3 1656.15 484.289   1
  -4  13   3 2481.87 564.446   3
   4  13  -3 1966.43 596.051   9
   4 -13  -2 1291.95 397.244   5
   4  13  -2 1056.15 397.691   8
  -4 -13   2 693.860 343.287   2
   4  13  -2 886.579 336.420   1
   4 -13  -2 673.973 239.570   7
  -4  13   2 848.225 442.582   3
   4  13  -2 1705.76 490.935   9
   4 -13  -1 5115.31 703.261   5
   4  13  -1 3341.89 578.919   1
  -4 -13   1 3995.82 651.392   2
   4 -13  -1 6162.94 710.598   7
  -4  13   1 4839.46 776.382   3
   4  13  -1 4097.98 739.545   9
   4 -13   0 666.917 348.925   5
  -4 -13   0 1614.70 450.286   2
   4 -13   0 1262.99 333.860   7
  -4  13   0 1819.78 574.500   3
   4  13   0 1474.37 480.792   9
  -4 -13  -1 2256.79 501.456   2
   4 -13   1 3010.73 555.779   7
  -4  13  -1 2332.79 576.256   3
   4  13   1 2580.63 587.150   9
   4 -13   1 1140.51 418.221   5
  -4 -13  -2 1005.52 352.379   2
   4 -13   2 1320.47 409.523   7
  -4  13  -2 2497.89 618.489   3
   4  13   2 2616.85 603.963   9
   4 -13   2 908.271 375.345   5
   4 -13   3 1024.96 393.433   7
  -4  13  -3 1926.21 535.475   3
   4  13   3 1030.36 433.796   9
   4 -13   3 1519.33 452.979   5
  -4 -13  -3 681.228 329.223   2
   4 -13   4 1653.36 478.997   7
  -4  13  -4 3086.89 670.145   3
   4  13   4 2478.55 593.053   9
  -4 -13  -4 2699.77 568.769   2
  -4 -13  -5 847.851 367.903   2
   4 -14  -7 911.254 384.732   5
  -4  14   7 581.178 322.378   3
   4 -14  -6 1013.60 381.028   5
  -4 -14   6 1902.84 510.699   2
  -4  14   6 1627.00 550.977   3
   4 -14  -5 3257.76 615.034   5
   4  14  -5 3218.69 675.537   1
  -4 -14   5 2876.10 585.328   2
   4  14  -5 3263.77 677.630   9
  -4  14   5 2712.31 617.893   3
  -4 -14   4 7685.80 938.229   2
  -4  14   4 9550.57 1102.68   3
   4  14  -4 8490.74 974.740   1
   4 -14  -4 9664.77 983.532   5
   4  14  -4 7619.47 974.456   9
   4 -14  -3 5988.81 791.530   5
  -4 -14   3 4564.55 712.714   2
   4  14  -3 4529.59 711.731   1
   4  14  -3 3950.90 753.547   9
  -4  14   3 5223.22 832.689   3
   4 -14  -2 4464.42 685.079   5
   4  14  -2 4100.43 659.273   1
  -4 -14   2 3857.00 639.022   2
  -4  14   2 4905.01 824.113   3
   4  14  -2 4453.43 781.156   9
   4 -14  -1 2699.39 569.983   5
   4  14  -1 2104.58 517.612   1
  -4 -14   1 2311.81 507.241   2
  -4  14   1 3095.99 717.936   3
   4  14  -1 2004.44 549.372   9
   4 -14   0 2364.90 523.758   5
  -4 -14   0 2531.65 531.194   2
   4 -14   0 2579.61 491.748   7
  -4  14   0 3931.97 748.352   3
   4  14   0 2750.49 605.236   9
  -4 -14  -1 904.251 366.892   2
   4 -14   1 541.866 313.937   7
  -4  14  -1 799.883 405.557   3
   4  14   1 373.659 335.271   9
   4 -14   1 842.667 343.235   5
  -4 -14  -2 1377.24 414.465   2
   4 -14   2 1925.44 487.617   7
  -4  14  -2 1782.60 549.380   3
   4  14   2 2208.30 591.937   9
   4 -14   2 1699.49 493.623   5
  -4 -14  -3 1299.67 395.521   2
   4 -14   3 842.841 362.138   7
   4 -14   3 896.845 403.212   5
   4 -14   4 435.587 279.382   7
   4 -15  -6 1909.97 489.673   5
   4 -15  -5 447.196 314.715   5
  -4 -15   5 98.1048 218.792   2
   4 -15  -4 1632.61 478.015   5
  -4 -15   4 1436.98 424.682   2
   4  15  -4 2107.20 549.680   1
   4 -15  -3 3892.68 694.890   5
  -4 -15   3 2964.75 597.931   2
   4  15  -3 3636.28 659.739   1
  -4  15   3 4120.65 784.328   3
   4 -15  -2 2889.74 609.665   5
   4  15  -2 2182.67 525.993   1
  -4 -15   2 3915.56 663.123   2
   4  15  -2 3481.85 694.099   9
  -4  15   2 3417.16 740.797   3
  -4 -15   1 8291.20 935.817   2
   4  15  -1 7875.76 912.513   1
   4 -15  -1 8906.44 997.593   5
  -4  15   1 8274.07 1066.75   3
   4  15  -1 7088.69 949.698   9
   4 -15   0 465.678 289.975   5
  -4 -15   0 928.320 370.948   2
   4 -15   1 5835.39 842.145   5
   4 -15   2 974.397 442.634   5
   4 -16  -4 1216.24 449.158   5
  -4 -16   4 1247.84 430.980   2
   4 -16  -3 135.640 291.480   5
  -4 -16   3-404.393 303.088   2
   4 -16  -2-25.1659 280.406   5
   4  16  -2 37.2761 262.773   1
   4 -16  -1-503.658 334.893   5
   4  16  -1 27.4635 251.031   1
   4 -16   0 1630.58 497.596   5
  -5   0  11 798.639 368.305   2
  -5   0  11-99.3256 277.605  10
  -5   0  10 745.037 400.732   2
   5   0 -10 967.085 409.925   8
  -5   0  10 777.018 352.957  10
   5   0  -9 395.491 310.789   8
  -5   0   9 824.307 436.399   4
  -5   0   9 399.031 315.369  10
  -5   0   9-229.417 231.534   2
   5   0  -8 2373.18 534.914   8
  -5   0   8 2889.28 626.060   4
  -5   0   8 2247.89 474.605  10
  -5   0   8 1825.47 470.872   2
   5   0  -7 374.474 341.712   8
  -5   0   7 65.5648 369.397   4
  -5   0   7-197.064 227.732   2
  -5   0   7 645.861 307.378  10
   5   0  -6 3048.32 565.462   8
  -5   0   6 3350.53 612.661   4
  -5   0   6 3320.18 497.135   3
  -5   0   6 3067.74 535.913   2
   5   0  -5 169.449 220.221   8
  -5   0   5-68.5611 184.886   2
  -5   0   5 16.1694 267.574   4
  -5   0   5 336.335 255.819   3
   5   0  -4 2959.53 519.257   8
  -5   0   4 3166.63 520.213   2
  -5   0   4 3411.91 526.729   3
   5   0  -3 100.976 231.408   8
  -5   0   3-2.25458 184.977   2
  -5   0   3-209.874 214.597   3
  -5   0   2 1551.97 381.652   2
   5   0  -2 2002.02 437.133   8
  -5   0   2 1665.65 437.629   3
   5   0  -1 175.079 273.699   8
   5   0  -1 578.392 286.974   7
  -5   0   1 163.612 239.319   3
  -5   0   1 242.366 234.001   2
   5   0   0 1197.18 354.198   7
  -5   0   0 549.700 310.003   3
  -5   0   0 248.872 240.930   2
   5   0   1-158.069 203.282   7
  -5   0  -1 556.441 341.308   3
  -5   0  -1-17.1402 217.482   2
   5   0   2 710.599 306.985   7
  -5   0  -2 172.442 247.498   2
   5   0   3 347.575 296.429   7
  -5   0  -3 236.647 235.422   2
  -5   0  -3 963.287 365.842   6
  -5   0  -4 4013.27 671.828   2
   5   0   4 3071.41 610.280   7
  -5   0  -4 4605.06 680.343   6
   5   0   5 361.065 323.162   7
  -5   0  -5 203.403 288.458   6
   5   0   6 2055.82 597.306   7
  -5   0  -6 1447.10 492.962   6
  -5   1  11 387.607 296.160   2
  -5  -1  11-226.381 320.275  10
  -5   1  11-685.205 376.470  10
  -5  -1  10 180.500 280.690   2
  -5   1  10 1205.31 386.592   2
   5  -1 -10 544.364 390.174   8
   5   1 -10 48.5844 260.651   8
  -5   1  10 584.020 406.675   4
  -5  -1  10 1172.42 443.734  10
  -5   1  10 898.429 395.745  10
   5  -1  -9 4562.24 760.196   8
   5   1  -9 5354.37 832.185   8
  -5  -1   9 5001.80 814.323   4
  -5   1   9 5076.21 817.992   4
  -5  -1   9 4347.45 672.570  10
  -5   1   9 5079.87 727.121  10
  -5  -1   9 5051.11 751.897   2
  -5   1   9 3483.90 616.629   2
   5  -1  -8 159.298 275.344   8
   5   1  -8 69.8496 217.916   8
  -5  -1   8 466.629 404.226   4
  -5   1   8 781.470 419.391   4
  -5  -1   8 506.725 319.246  10
  -5   1   8 548.648 306.673  10
  -5  -1   8 356.723 305.130   2
  -5   1   8 192.936 217.244   2
   5  -1  -7 6535.94 830.930   8
   5   1  -7 6339.28 821.595   8
  -5  -1   7 7124.37 872.468   4
  -5   1   7 6949.65 887.022   4
  -5   1   7 6075.71 745.869   2
  -5  -1   7 5028.61 712.813   2
  -5  -1   7 6201.03 688.972  10
   5  -1  -6 2592.40 500.399   8
   5   1  -6 2643.44 554.206   8
  -5  -1   6 2578.86 575.490   4
  -5   1   6 2872.80 592.473   4
  -5  -1   6 2174.26 490.969   2
  -5   1   6 3129.65 537.955   2
  -5   1   6 2274.73 430.434   3
  -5  -1   6 1919.15 366.211  10
   5  -1  -5 5285.77 695.787   8
   5   1  -5 4029.47 637.877   8
  -5  -1   5 4717.58 639.121   2
  -5   1   5 4187.38 580.198   2
  -5  -1   5 4456.24 706.363   4
  -5   1   5 4721.11 691.079   4
  -5  -1   5 4583.62 508.542  10
  -5   1   5 3858.16 555.082   3
   5  -1  -4 458.733 318.101   8
   5   1  -4 447.796 316.791   8
  -5  -1   4 173.524 249.873   2
  -5   1   4 126.194 224.251   2
  -5  -1   4 624.771 375.077   4
  -5  -1   4 200.460 199.594   3
  -5   1   4 154.678 218.311   3
   5  -1  -3 2664.95 482.464   8
   5   1  -3 2557.41 510.052   8
  -5   1   3 2652.87 469.610   2
  -5  -1   3 2222.96 437.720   2
  -5  -1   3 2642.61 496.987   3
  -5   1   3 3316.62 546.857   3
  -5   1   2 970.448 315.165   2
  -5  -1   2 544.746 246.212   2
   5  -1  -2 604.967 323.998   8
   5   1  -2 941.342 341.321   8
  -5  -1   2 740.536 335.246   3
  -5   1   2 525.102 325.907   3
   5  -1  -1 1811.07 441.876   8
   5   1  -1 2448.74 498.313   8
  -5  -1   1 1577.00 446.238   3
   5   1  -1 2240.10 485.659   7
   5  -1  -1 1926.91 460.350   7
  -5   1   1 2224.51 501.410   3
  -5   1   1 2429.65 461.229   2
  -5  -1   1 1692.10 428.359   2
   5   1   0 1598.87 406.540   7
   5  -1   0 2008.59 443.882   7
  -5  -1   0 1693.35 434.465   3
  -5   1   0 2078.68 527.860   3
  -5   1   0 1299.86 360.350   2
  -5  -1   0 1438.10 409.902   2
   5   1   1 1601.70 424.779   7
   5  -1   1 1124.80 377.222   7
  -5   1  -1 906.712 401.418   3
  -5   1  -1 1304.86 368.248   2
  -5  -1  -1 1381.40 379.946   2
   5   1   2-74.1541 219.805   7
   5  -1   2 419.622 316.105   7
  -5   1  -2 111.693 245.528   3
  -5   1  -2 426.058 317.637   2
  -5  -1  -2-156.872 247.972   2
   5   1   3 654.037 388.346   7
   5  -1   3 1047.90 439.915   7
  -5   1  -3 835.048 398.598   3
  -5   1  -3 697.511 360.523   2
  -5  -1  -3 438.541 313.019   2
  -5  -1  -3 749.401 277.972   6
   5   1   4 3673.69 655.155   7
   5  -1   4 3322.06 633.060   7
  -5  -1  -4 3239.40 643.649   2
  -5  -1  -4 2843.05 562.231   6
  -5   1  -4 3283.26 586.477   6
   5   1   5 1514.57 480.152   7
   5  -1   5 2187.02 564.050   7
  -5  -1  -5 2165.78 512.232   6
  -5   1  -5 2271.04 543.975   6
   5   1   6 189.968 274.550   7
   5  -1   6 1131.16 436.637   7
  -5  -1  -6 337.935 339.880   6
  -5   1  -6 619.860 400.928   6
  -5  -2  11 606.871 317.833  10
  -5   2  11 618.770 372.716  10
  -5  -2  10 2140.06 566.948   2
   5  -2 -10 1918.20 517.339   8
  -5   2  10 2106.60 520.460   2
  -5   2  10 2236.07 589.623   4
  -5  -2  10 1640.77 492.515  10
  -5   2  10 2937.09 583.383  10
   5  -2  -9 938.088 416.697   8
   5   2  -9 685.755 377.518   8
  -5   2   9 1127.87 450.904   4
  -5  -2   9 730.991 364.654  10
  -5  -2   9 605.580 316.173   2
  -5   2   9 914.217 368.467   2
   5  -2  -8 3756.41 650.865   8
   5   2  -8 4886.63 751.568   8
  -5  -2   8 5352.10 827.865   4
  -5   2   8 4789.02 788.428   4
  -5  -2   8 3525.37 599.585  10
  -5  -2   8 3260.09 614.321   2
  -5   2   8 3054.20 545.718   2
   5  -2  -7 652.082 372.227   8
   5   2  -7 81.3060 221.469   8
  -5  -2   7 106.059 298.164   4
  -5   2   7 691.658 378.216   4
  -5  -2   7 432.794 298.307   2
  -5   2   7-81.2960 218.423   2
  -5  -2   7 484.189 292.641  10
   5  -2  -6 36544.5 1864.89   8
   5   2  -6 31821.8 1797.96   8
  -5  -2   6 33840.2 1835.63   4
  -5   2   6 33319.4 1834.57   4
  -5   2   6 32217.0 1596.90   3
  -5  -2   6 29066.5 1700.68   2
  -5   2   6 32009.5 1653.47   2
  -5  -2   6 31076.2 1501.84  10
   5  -2  -5 1149.35 408.942   8
   5   2  -5 1419.80 444.585   8
  -5  -2   5 669.817 305.841   2
  -5  -2   5 884.300 410.826   4
  -5   2   5 805.548 282.396   2
  -5  -2   5 444.682 231.933  10
  -5   2   5 844.119 358.903   3
   5  -2  -4 2964.26 524.860   8
   5   2  -4 4388.69 660.940   8
  -5  -2   4 3837.59 582.233   2
  -5   2   4 3828.03 535.475   2
  -5  -2   4 3606.16 595.897   4
  -5   2   4 3344.86 555.288   3
   5  -2  -3 1850.04 436.073   8
   5   2  -3 1553.14 408.143   8
  -5   2   3 1187.56 324.772   2
  -5  -2   3 2135.06 458.391   2
  -5  -2   3 1945.00 470.832   4
  -5   2   3 1131.44 389.954   3
  -5   2   2 459.899 247.538   2
  -5  -2   2-132.094 199.060   2
   5  -2  -2 348.078 243.039   8
   5   2  -2 378.744 271.440   8
  -5   2   2-50.7585 235.650   3
   5   2  -1 2344.66 489.591   8
   5   2  -1 2449.53 456.478   7
   5  -2  -1 2005.14 464.493   7
  -5   2   1 2371.16 518.676   3
  -5   2   1 2626.09 467.158   2
  -5  -2   1 1857.41 443.179   2
   5  -2  -1 2252.89 475.817   8
   5   2   0 923.487 317.723   7
   5  -2   0 1073.27 347.049   7
  -5   2   0 583.560 322.163   3
  -5   2   0 825.237 311.470   2
  -5  -2   0 676.032 296.181   2
   5   2   1 3502.28 549.340   7
   5  -2   1 3741.10 594.336   7
  -5   2  -1 3589.57 648.264   3
  -5   2  -1 2540.89 488.579   2
  -5  -2  -1 2265.47 483.128   2
  -5   2  -2 8451.69 886.029   2
  -5  -2  -2 9113.75 942.149   2
   5   2   2 11557.8 1002.70   7
   5  -2   2 12427.3 1071.72   7
  -5   2  -2 10647.2 1086.77   3
  -5  -2  -2 11267.8 879.395   6
   5   2   2 10218.5 817.284   9
   5   2   3 1570.30 472.330   7
   5  -2   3 1984.89 494.192   7
  -5   2  -3 1238.52 410.495   2
  -5   2  -3 1862.10 555.516   3
  -5  -2  -3 1071.24 409.364   2
  -5  -2  -3 1625.84 388.333   6
   5   2   4 5910.76 796.823   7
   5  -2   4 5902.66 826.145   7
  -5  -2  -4 6877.28 792.973   6
  -5   2  -4 4858.58 814.780   3
  -5  -2  -4 4872.50 764.961   2
  -5   2  -4 5760.12 775.031   6
  -5  -2  -5 1355.98 518.181   2
   5   2   5 1602.85 518.583   7
   5  -2   5 1812.35 505.864   7
  -5  -2  -5 1758.12 472.896   6
  -5   2  -5 827.028 384.417   6
   5   2   6 1628.77 498.779   7
   5  -2   6 847.596 381.397   7
  -5  -2  -6 994.881 412.099   6
  -5   2  -6 912.513 365.407   6
  -5  -2  -7 756.515 390.849   6
  -5  -3  10 814.278 385.612   2
   5  -3 -10 947.804 444.866   8
  -5   3  10 1691.71 530.894   4
  -5  -3  10 1184.81 452.949  10
   5  -3  -9 5471.56 799.923   8
   5   3  -9 5732.94 852.844   8
  -5   3   9 5039.36 849.414   4
  -5  -3   9 5100.46 728.875  10
  -5  -3   9 5159.64 796.223   2
   5  -3  -8-30.8938 285.340   8
   5   3  -8 50.4894 297.178   8
  -5   3   8 509.776 395.742   4
  -5  -3   8 307.444 304.292  10
  -5  -3   8-162.965 293.279   2
  -5   3   8 211.371 273.533   2
   5  -3  -7 4806.20 712.595   8
   5   3  -7 6218.48 817.444   8
  -5  -3   7 5603.09 799.766   4
  -5   3   7 4118.60 698.969   4
  -5   3   7 5266.79 666.144   2
  -5  -3   7 4960.02 720.570   2
  -5  -3   7 5573.83 689.653  10
   5  -3  -6 1604.79 444.947   8
   5   3  -6 1231.37 422.860   8
  -5  -3   6 1726.27 477.462   4
  -5   3   6 2377.96 537.722   4
  -5  -3   6 1006.98 385.638   2
  -5   3   6 1322.81 339.278   2
  -5  -3   6 1725.35 384.296  10
  -5   3   6 1279.99 392.033   3
   5  -3  -5 1235.96 390.048   8
   5   3  -5 1377.98 421.981   8
  -5  -3   5 1172.55 415.792   4
  -5  -3   5 549.268 278.396   2
  -5   3   5 794.888 272.646   2
  -5  -3   5 859.911 306.698  10
  -5   3   5 1263.57 343.295   3
   5  -3  -4 5280.18 658.273   8
   5   3  -4 5470.04 710.203   8
  -5  -3   4 5288.80 700.633   2
  -5  -3   4 5288.55 701.739   4
  -5   3   4 5742.41 644.311   2
  -5   3   4 6864.35 768.672   3
   5  -3  -3 15921.9 1132.97   8
   5   3  -3 16156.6 1208.99   8
  -5  -3   3 15300.2 1116.87   4
  -5   3   3 15090.4 1025.06   2
  -5  -3   3 14241.5 1116.56   2
  -5   3   3 14842.1 1139.02   3
  -5   3   2 849.361 284.819   2
   5  -3  -2 501.962 282.176   8
   5   3  -2 884.433 399.592   8
  -5  -3   2 672.588 318.502   2
  -5  -3   2 773.770 320.840   4
   5  -3  -2 1330.71 397.675   7
   5   3  -2 921.565 327.328   7
  -5   3   2 841.841 392.943   3
   5   3  -1 283.717 342.216   8
  -5  -3   1 844.360 352.391   4
   5   3  -1-113.806 210.046   7
   5  -3  -1 269.306 243.051   7
  -5   3   1 118.856 245.990   3
  -5   3   1 523.826 287.678   2
  -5  -3   1 272.980 274.035   2
   5   3   0 1594.15 409.579   7
   5  -3   0 1570.32 375.935   7
  -5   3   0 2149.07 544.472   3
  -5   3   0 1133.62 337.854   2
  -5  -3   0 530.273 297.867   2
  -5   3  -1 14055.2 1082.76   2
  -5  -3  -1 15622.6 1218.20   2
   5   3   1 14772.8 1096.99   7
   5  -3   1 16587.9 1223.15   7
  -5   3  -1 14576.8 1237.10   3
  -5  -3  -1 16890.4 995.166   6
   5   3   2 1295.37 380.203   7
   5  -3   2 1360.58 428.943   7
  -5   3  -2 729.073 338.883   2
  -5   3  -2 1330.99 483.052   3
  -5  -3  -2 628.310 269.136   6
  -5  -3  -2 1007.37 367.601   2
   5   3   2 843.067 281.356   9
  -5   3  -3 1139.31 408.379   2
   5   3   3 917.437 364.247   7
   5  -3   3 1132.51 434.517   7
  -5   3  -3 779.875 407.493   3
  -5  -3  -3 899.876 339.135   2
  -5  -3  -3 1328.21 360.362   6
   5   3   4 1038.62 404.027   7
   5  -3   4 1238.96 452.286   7
  -5   3  -4 323.993 355.504   3
  -5  -3  -4 514.295 355.687   2
  -5  -3  -4 976.613 350.518   6
   5   3   5 5171.18 751.016   7
   5  -3   5 5091.82 816.790   7
  -5   3  -5 3029.10 683.713   3
  -5  -3  -5 3470.66 712.540   2
  -5  -3  -5 3529.82 627.949   6
  -5   3  -5 5239.61 800.970   6
   5   3   6 644.192 420.686   7
  -5  -3  -6 45.9842 247.026   6
  -5   3  -6 145.088 312.857   6
  -5  -3  -7 339.672 319.985   6
   5  -4 -10 747.408 425.846   8
  -5  -4  10 408.882 350.468  10
   5  -4  -9 5928.92 834.821   8
   5   4  -9 5386.51 854.057   8
  -5   4   9 5366.47 837.509   4
  -5  -4   9 4628.37 724.616  10
  -5  -4   9 5223.19 816.991   2
   5  -4  -8 449.046 336.296   8
   5   4  -8 380.495 369.084   8
  -5   4   8 616.871 454.488   4
  -5  -4   8 233.817 321.444  10
  -5  -4   8 99.0627 268.278   2
   5  -4  -7 863.627 376.756   8
   5   4  -7 680.101 384.404   8
  -5   4   7 593.078 482.390   4
  -5  -4   7 523.015 330.998   2
  -5  -4   7 416.679 264.491  10
  -5   4   7 280.148 278.149   2
   5  -4  -6 11350.4 999.222   8
   5   4  -6 10403.7 1030.50   8
  -5  -4   6 9443.59 982.918   4
  -5  -4   6 7943.96 887.160   2
  -5   4   6 9634.02 874.535   3
  -5   4   6 10671.8 878.049   2
  -5  -4   6 10666.0 906.745  10
   5  -4  -5 3711.73 585.428   8
   5   4  -5 3632.46 620.065   8
  -5  -4   5 2628.57 524.977   4
  -5  -4   5 3730.87 614.554   2
  -5   4   5 3951.25 535.975   2
  -5  -4   5 4166.35 552.759  10
  -5   4   5 3675.17 579.616   3
   5  -4  -4 526.104 270.783   8
   5   4  -4 401.256 262.957   8
  -5  -4   4 250.237 240.329   2
  -5   4   4 877.720 283.434   2
  -5  -4   4 680.939 330.845   4
  -5   4   4 625.086 329.542   3
   5  -4  -3 13142.9 1018.30   8
   5   4  -3 12490.3 1056.25   8
  -5  -4   3 10290.7 910.665   4
  -5   4   3 10974.3 859.450   2
  -5  -4   3 11179.1 1004.56   2
  -5   4   3 10101.8 962.390   3
  -5   4   2 2752.38 444.456   2
   5  -4  -2 2804.38 471.975   8
   5   4  -2 3921.95 609.248   8
  -5  -4   2 3796.92 591.670   2
  -5  -4   2 3796.33 551.537   4
   5   4  -2 3950.10 561.982   7
   5  -4  -2 3147.17 584.416   7
  -5   4   2 3880.15 642.436   3
   5   4  -1 20508.9 1240.08   7
   5  -4  -1 24328.8 1436.21   7
  -5   4   1 21110.5 1229.21   2
  -5  -4   1 18413.9 1309.02   2
  -5  -4   1 19508.8 1177.52   4
  -5   4   1 20273.1 1431.48   3
   5   4  -1 20793.0 1377.22   8
   5   4   0 4850.36 610.324   7
  -5  -4   0 3658.62 515.079   4
   5  -4   0 3729.20 585.030   7
  -5   4   0 3573.73 653.901   3
  -5   4   0 3485.54 521.422   2
  -5  -4   0 2671.34 528.305   2
   5   4   1 2250.10 454.507   7
   5  -4   1 2488.59 490.629   7
  -5   4  -1 1845.00 481.789   3
  -5   4  -1 1739.03 414.284   2
  -5  -4  -1 1591.17 425.952   2
   5   4   1 1391.81 380.804   9
   5   4   2 1367.95 417.834   7
   5  -4   2 1345.41 510.075   7
  -5   4  -2 637.707 293.710   2
  -5   4  -2 523.556 417.248   3
  -5  -4  -2 383.601 291.202   2
   5   4   2 811.306 311.567   9
  -5   4  -3 2366.91 510.720   2
   5   4   3 2312.78 500.512   7
   5  -4   3 3076.87 589.173   7
  -5   4  -3 2774.21 609.871   3
  -5  -4  -3 2597.85 549.710   2
   5   4   4 1719.21 421.359   7
   5  -4   4 2507.20 611.140   7
  -5   4  -4 3318.64 672.394   3
  -5  -4  -4 1918.16 507.003   2
   5   4   5 1500.78 413.588   7
   5  -4   5 1553.12 520.795   7
  -5   4  -5 907.143 494.644   3
  -5  -4  -5 1754.06 527.101   2
  -5   4  -5 1238.28 452.293   6
   5   4   6 372.515 292.411   7
  -5   4  -6 155.372 346.426   3
  -5   4  -6 292.910 333.061   6
   5  -5 -10 1901.98 506.568   8
  -5  -5  10 1326.44 481.729  10
   5  -5  -9 391.742 325.093   8
   5   5  -9 506.835 298.231   8
  -5  -5   9-40.0839 297.464  10
  -5  -5   9 690.243 406.490   2
   5  -5  -8 145.760 347.142   8
   5   5  -8 196.552 283.071   8
  -5   5   8 1120.28 475.795   4
  -5  -5   8 174.765 317.631  10
  -5  -5   8 675.568 391.756   2
   5  -5  -7 606.097 324.633   8
   5   5  -7 336.962 295.517   8
  -5   5   7 1381.42 527.724   4
  -5  -5   7 536.344 347.072   2
  -5  -5   7 483.622 304.888  10
   5  -5  -6 343.507 255.270   8
   5   5  -6 54.3124 211.825   8
  -5  -5   6 72.0356 251.697   2
  -5  -5   6-260.039 242.194  10
  -5   5   6 642.770 278.353   3
   5  -5  -5 2031.22 435.661   8
   5   5  -5 3213.67 603.499   8
  -5  -5   5 1734.08 489.365   4
  -5  -5   5 1459.22 393.437   2
  -5   5   5 1472.58 348.835   2
  -5   5   5 1677.96 440.286   3
   5  -5  -4 7269.52 762.464   8
   5   5  -4 8215.13 890.356   8
  -5  -5   4 7856.12 831.969   4
  -5  -5   4 5761.12 747.837   2
  -5   5   4 8318.94 729.847   2
  -5   5   4 8048.66 875.453   3
   5  -5  -3 152.121 239.828   8
   5   5  -3 504.792 281.083   8
  -5   5   3 570.210 274.656   2
  -5  -5   3 442.714 306.414   2
  -5  -5   3 876.167 351.663   4
  -5   5   3 665.662 327.389   3
   5   5  -2 10423.4 993.001   8
   5   5  -2 10937.5 886.067   7
   5  -5  -2 11174.0 1004.45   7
  -5  -5   2 10271.8 876.950   4
  -5   5   2 10889.9 842.997   2
  -5  -5   2 9386.52 936.344   2
  -5   5   2 10496.3 1018.72   3
   5  -5  -2 10249.3 894.840   8
  -5  -5   1 33.8368 229.913   2
   5   5  -1 575.763 339.581   8
  -5  -5   1 258.785 242.482   4
   5   5  -1 303.003 218.545   7
   5  -5  -1 121.934 255.816   7
  -5   5   1 841.469 339.666   3
  -5   5   1 449.137 266.020   2
  -5   5   0 21008.7 1260.64   2
   5   5   0 24891.1 1372.53   7
   5  -5   0 24143.5 1492.50   7
  -5  -5   0 21671.9 1445.95   2
  -5  -5   0 24808.2 1254.24   4
  -5   5   0 22748.2 1549.95   3
   5   5   1 3276.31 533.470   7
   5  -5   1 3323.21 599.024   7
  -5   5  -1 3106.34 511.636   2
  -5   5  -1 2374.08 556.971   3
  -5  -5  -1 2448.09 533.354   2
   5   5   1 2716.02 485.354   9
   5   5   2 3314.06 541.232   7
   5  -5   2 3947.51 664.941   7
  -5   5  -2 2778.36 534.770   2
  -5   5  -2 3761.00 687.225   3
  -5  -5  -2 3557.89 644.689   2
   5   5   2 2789.64 472.936   9
  -5   5  -3 194.302 275.452   2
   5   5   3 580.638 281.510   7
   5  -5   3 1223.91 449.791   7
  -5   5  -3 657.981 396.267   3
  -5  -5  -3 570.524 348.959   2
   5   5   3 250.767 279.557   9
   5   5   4 1101.89 361.196   7
   5  -5   4 1903.23 518.308   7
  -5   5  -4 2000.52 549.608   3
  -5  -5  -4 1326.17 482.487   2
   5   5   5 2460.86 549.320   7
   5  -5   5 2540.75 609.206   7
  -5   5  -5 1012.73 456.873   3
  -5  -5  -5 2209.16 593.714   2
   5   5   6 281.754 301.866   7
  -5   5  -6 606.106 429.682   3
   5  -6 -10 1280.67 484.534   8
   5  -6  -9 3214.67 632.184   8
   5   6  -9 4756.99 829.211   8
  -5   6   9 3877.62 717.308   4
  -5  -6   9 3947.23 718.109  10
  -5  -6   9 5308.68 838.119   2
   5  -6  -8 3408.45 612.151   8
   5   6  -8 3456.99 682.445   8
  -5   6   8 3285.90 678.991   4
  -5  -6   8 2171.10 517.537  10
  -5  -6   8 4096.44 730.714   2
   5  -6  -7-37.2095 204.044   8
   5   6  -7 402.736 278.391   8
  -5  -6   7 234.569 303.174   2
  -5  -6   7-22.3358 240.604  10
   5  -6  -6 1268.64 380.961   8
   5   6  -6 1164.27 426.615   8
  -5  -6   6 1132.47 424.663   2
  -5  -6   6 799.570 329.929  10
  -5   6   6 878.419 327.480   3
   5  -6  -5 3822.25 602.371   8
   5   6  -5 3543.19 647.061   8
  -5  -6   5 3200.20 588.374   2
  -5   6   5 4519.34 668.974   3
   5  -6  -4 1479.53 358.787   8
   5   6  -4 1617.39 427.690   8
  -5  -6   4 1865.63 457.711   4
  -5  -6   4 1297.99 384.039   2
  -5   6   4 1401.51 424.961   3
   5   6  -3 7238.83 826.468   8
  -5  -6   3 5604.04 726.901   2
  -5  -6   3 7788.35 786.991   4
  -5   6   3 5856.52 775.058   3
   5  -6  -3 8313.17 792.255   8
   5   6  -2 120.370 230.255   8
  -5   6   2 137.247 192.978   2
  -5  -6   2-182.234 260.899   2
  -5  -6   2-158.612 211.805   4
   5   6  -2 416.898 257.419   7
   5  -6  -2 350.058 332.295   7
  -5   6   2-123.873 292.806   3
   5  -6  -2 98.2462 243.008   8
  -5  -6   1 1076.10 366.600   2
   5   6  -1 759.468 345.378   8
  -5  -6   1 1348.78 352.502   4
   5   6  -1 833.856 284.571   7
   5  -6  -1 877.757 297.366   7
  -5   6   1 884.503 388.121   3
  -5   6   1 530.747 257.786   2
   5   6   0 406.920 280.762   7
   5  -6   0 596.377 306.323   7
  -5   6   0 742.746 387.384   3
  -5   6   0 694.279 277.928   2
  -5  -6   0 616.519 318.537   2
   5   6   1 930.112 329.676   7
   5  -6   1 2059.08 497.345   7
  -5   6  -1 1083.85 356.446   2
  -5   6  -1 1348.80 440.219   3
  -5  -6  -1 1436.32 419.646   2
   5   6   1 1422.18 408.604   9
   5   6   2 251.648 270.915   7
   5  -6   2 229.000 247.324   7
  -5   6  -2 104.844 224.629   2
  -5  -6  -2 188.995 251.233   2
   5   6   2 225.926 195.900   9
  -5   6  -3 4049.76 642.357   2
   5   6   3 5042.57 675.276   7
   5  -6   3 5388.86 792.741   7
  -5   6  -3 5464.23 827.632   3
  -5  -6  -3 3726.85 663.646   2
   5   6   3 3745.76 593.969   9
   5   6   4 2276.34 509.515   7
   5  -6   4 1266.44 453.773   7
  -5   6  -4 1529.20 516.653   3
  -5  -6  -4 1601.01 470.543   2
   5   6   5 471.640 305.452   7
   5  -6   5-25.7020 449.573   7
  -5   6  -5 397.162 376.311   3
  -5  -6  -5 470.789 396.208   2
   5  -7  -9 52.1692 247.776   8
  -5   7   9 508.546 328.390   4
  -5  -7   9 190.636 323.582  10
   5  -7  -8 219.348 245.325   8
   5   7  -8 85.0587 361.807   8
  -5   7   8 819.133 486.450   4
  -5  -7   8-539.537 323.193  10
  -5  -7   8 507.526 337.155   2
   5  -7  -7 343.209 302.262   8
   5   7  -7 141.525 353.296   8
  -5  -7   7-153.360 259.545   2
  -5  -7   7 401.857 325.340  10
  -5   7   7 284.729 272.198   3
   5  -7  -6 78.8431 180.526   8
   5   7  -6 425.661 343.535   8
  -5  -7   6 189.617 249.854   2
  -5   7   6-163.066 253.820   3
   5  -7  -5 4245.85 579.291   8
   5   7  -5 5272.25 786.764   8
  -5  -7   5 5014.60 723.399   2
  -5   7   5 4961.54 694.896   3
   5  -7  -4 1461.54 374.705   8
   5   7  -4 1231.75 410.407   8
  -5  -7   4 904.025 327.883   2
  -5   7   4 1739.02 457.820   3
   5  -7  -3 3246.59 490.719   8
   5   7  -3 2161.36 502.385   8
  -5  -7   3 2690.33 542.877   2
  -5   7   3 3968.74 696.198   3
   5   7  -2 9442.50 826.675   7
   5  -7  -2 9362.62 917.356   7
  -5  -7   2 7339.17 865.015   2
  -5   7   2 8181.86 920.045   3
   5   7  -2 8681.20 927.184   8
  -5  -7   1 996.770 366.210   2
   5   7  -1 812.609 291.811   7
   5  -7  -1 474.598 295.120   7
  -5   7   1 1373.21 440.509   3
   5   7  -1 956.361 390.516   8
   5   7   0 2797.56 480.055   7
   5  -7   0 2304.16 495.107   7
  -5   7   0 2258.13 569.729   3
   5   7   0 2308.21 519.985   9
  -5  -7   0 2419.72 508.807   2
   5   7   1 121.251 229.743   7
   5  -7   1 58.3767 261.948   7
  -5   7  -1 36.2424 203.648   2
  -5   7  -1 272.614 336.970   3
  -5  -7  -1-91.8625 219.221   2
   5   7   1 589.952 279.797   9
   5   7   2-46.1641 176.111   7
   5  -7   2 430.455 347.683   7
  -5   7  -2 234.210 245.144   2
  -5   7  -2 795.836 447.244   3
  -5  -7  -2-472.338 348.597   2
   5   7   2-28.8822 203.161   9
  -5   7  -3 3813.99 622.743   2
   5  -7   3 6004.22 838.001   7
  -5   7  -3 5677.47 878.968   3
  -5  -7  -3 5153.69 788.465   2
   5   7   3 5891.14 736.392   9
  -5   7  -4 462.200 385.006   3
  -5  -7  -4-69.5945 261.157   2
  -5   7  -5 830.635 437.404   3
  -5  -8   9-10.7883 323.763  10
   5   8  -8 13061.6 1276.30   8
  -5   8   8 12601.1 1234.38   4
  -5  -8   8 13282.6 1309.77   2
  -5  -8   8 12015.8 1156.07  10
   5   8  -7 188.816 347.328   8
  -5  -8   7 424.353 330.750  10
  -5  -8   7 861.970 386.065   2
  -5   8   7 553.643 314.919   3
   5   8  -6 760.761 383.113   8
  -5  -8   6-88.8940 272.962   2
  -5   8   6 857.450 355.725   3
   5  -8  -5 813.483 274.136   8
   5   8  -5 624.146 368.280   8
  -5  -8   5 760.426 321.569   2
  -5   8   5 825.491 376.918   3
   5  -8  -4 721.106 303.430   8
   5   8  -4 1338.83 410.932   8
  -5  -8   4 1444.42 436.703   2
  -5   8   4 1460.12 428.035   3
   5  -8  -3 1553.81 357.395   8
   5   8  -3 2276.87 505.475   8
  -5  -8   3 1903.88 528.426   2
   5  -8  -3 1971.65 480.724   7
  -5   8   3 2529.42 557.520   3
   5   8  -2 602.156 328.892   8
  -5  -8   2 560.641 331.823   2
   5   8  -2 923.521 331.953   1
   5   8  -2 492.228 245.915   7
   5  -8  -2 121.935 283.725   7
  -5   8   2 315.362 318.440   3
  -5  -8   1 942.718 345.353   2
   5  -8  -1 1160.09 393.886   7
  -5   8   1 133.994 236.719   3
   5   8  -1 1102.71 418.737   8
  -5  -8   0 4987.34 753.508   2
   5  -8   0 5666.52 750.592   7
  -5   8   0 5785.87 846.174   3
   5   8   0 5175.65 720.464   9
   5  -8   1 6353.90 813.677   7
  -5   8  -1 6531.38 894.991   3
   5   8   1 6930.44 841.723   9
  -5  -8  -1 5521.04 794.299   2
   5  -8   2 6233.33 822.216   7
  -5   8  -2 5267.80 840.111   3
  -5  -8  -2 5336.28 785.707   2
   5   8   2 3344.04 598.326   9
   5  -8   3 1216.98 426.680   7
  -5   8  -3 1291.30 462.034   3
  -5  -8  -3 1381.31 450.307   2
   5   8   3 1246.42 399.474   9
   5  -8   4 1426.39 541.712   7
  -5   8  -4 1144.37 561.430   3
  -5  -8  -4 453.010 359.809   2
   5   8   4 1290.90 495.530   9
   5   9  -8 2658.21 639.597   8
  -5  -9   8 2542.28 629.936  10
   5   9  -7 93.0021 233.012   8
  -5  -9   7 217.559 298.147   2
  -5   9   7 84.9169 232.958   3
   5   9  -6 310.441 318.685   8
  -5  -9   6 229.085 282.793   2
  -5   9   6 416.899 294.528   3
   5   9  -5 6555.24 847.693   8
  -5  -9   5 6593.05 885.638   2
  -5   9   5 7077.04 859.270   3
   5   9  -4 5541.74 772.185   8
  -5  -9   4 4941.66 733.509   2
  -5   9   4 5629.05 801.739   3
   5   9  -3 912.467 400.840   8
  -5  -9   3 453.167 266.600   2
   5  -9  -3 555.577 375.179   7
   5   9  -3 647.292 323.484   1
  -5   9   3 78.2296 257.312   3
   5   9  -2 3539.58 637.093   8
  -5  -9   2 3614.45 638.646   2
   5   9  -2 4664.90 615.800   1
   5  -9  -2 5705.38 742.317   7
  -5   9   2 5740.62 801.816   3
  -5  -9   1 128.182 237.614   2
   5  -9  -1 736.149 367.086   7
  -5   9   1 448.337 373.764   3
   5   9  -1 512.864 360.733   9
  -5  -9   0 2603.15 578.252   2
   5  -9   0 4141.11 688.614   7
  -5   9   0 3045.06 624.564   3
   5   9   0 3063.53 594.827   9
   5  -9   1-9.15357 220.508   7
  -5   9  -1-150.041 244.577   3
   5   9   1 329.646 347.514   9
  -5  -9  -1-131.054 257.664   2
   5  -9   2 1809.10 525.630   7
  -5   9  -2 1480.90 489.826   3
  -5  -9  -2 1511.94 469.540   2
   5   9   2 821.804 370.126   9
   5  -9   3 4348.71 748.119   7
  -5   9  -3 4259.43 773.094   3
  -5  -9  -3 4199.30 731.333   2
   5   9   3 4451.60 714.589   9
   5  -9   4 1532.37 523.289   7
  -5   9  -4 586.591 299.043   3
  -5  -9  -4 1341.06 460.762   2
   5   9   4 940.478 379.590   9
   5  10  -7 734.193 373.051   8
  -5  10   7-264.254 228.119   3
   5  10  -6 731.847 378.547   8
  -5 -10   6 739.698 407.167   2
  -5  10   6 210.641 347.389   3
   5  10  -5 383.225 285.825   8
  -5 -10   5 88.2628 306.244   2
  -5  10   5 662.778 349.656   3
   5  10  -4 2285.51 531.081   8
   5  10  -4 2838.54 570.116   1
  -5 -10   4 3155.74 619.185   2
  -5  10   4 4376.95 725.608   3
   5  10  -3 813.093 373.832   8
  -5 -10   3 1203.42 416.924   2
   5 -10  -3 1024.93 423.083   7
   5  10  -3 558.154 333.715   1
  -5  10   3 1273.20 456.077   3
   5  10  -2 2721.17 580.688   8
  -5 -10   2 2983.96 597.172   2
   5 -10  -2 2685.30 546.271   7
  -5  10   2 3010.08 648.648   3
   5  10  -2 3002.97 532.545   1
  -5 -10   1 6510.43 850.424   2
   5 -10  -1 6790.22 820.972   7
  -5  10   1 6345.83 902.458   3
   5  10  -1 4027.03 673.673   9
  -5 -10   0 4759.05 737.752   2
   5 -10   0 3779.30 637.292   7
  -5  10   0 3606.97 706.150   3
   5  10   0 4086.94 704.348   9
  -5 -10  -1 1370.04 432.711   2
   5 -10   1 1963.70 501.386   7
  -5  10  -1 1721.76 564.772   3
   5  10   1 1200.57 423.176   9
   5 -10   2 1176.86 426.116   7
  -5  10  -2 1842.86 529.212   3
   5  10   2 1186.11 432.405   9
  -5 -10  -2 710.385 324.004   2
   5 -10   3 1505.28 457.566   7
  -5  10  -3 1029.62 465.919   3
  -5 -10  -3 995.172 434.512   2
   5  10   3 997.755 416.768   9
   5  10   4 898.261 379.917   9
   5  11  -7 15404.7 1366.35   8
  -5  11   7 12765.1 1231.55   3
   5  11  -6-36.9175 265.070   8
  -5 -11   6 727.548 404.373   2
  -5  11   6 307.157 238.262   3
   5  11  -5 12594.6 1176.22   8
   5  11  -5 9322.46 1018.52   1
  -5 -11   5 12034.4 1219.45   2
  -5  11   5 11640.3 1213.93   3
   5  11  -4 71.0011 235.189   8
  -5 -11   4 269.676 322.961   2
   5 -11  -4 719.410 333.465   7
   5  11  -4 282.304 359.476   1
  -5  11   4 630.056 369.179   3
   5  11  -3 300.021 254.580   1
   5  11  -3 403.357 292.162   8
  -5 -11   3 349.530 273.261   2
   5 -11  -3 338.402 252.442   7
  -5  11   3 459.982 369.467   3
   5  11  -2 421.983 301.315   8
  -5 -11   2-24.0935 295.615   2
   5 -11  -2 414.635 270.961   7
  -5  11   2 816.057 420.832   3
   5  11  -2 153.100 322.068   9
  -5 -11   1 1821.07 519.519   2
   5 -11  -1 1456.34 452.177   7
  -5  11   1 990.901 425.555   3
   5  11  -1 1473.00 483.939   9
  -5 -11   0 493.744 307.163   2
   5 -11   0 131.896 275.692   7
  -5  11   0 161.143 441.102   3
   5  11   0 335.270 333.473   9
  -5 -11  -1 648.533 312.109   2
   5 -11   1 1434.40 437.118   7
  -5  11  -1 2132.82 576.965   3
   5  11   1 1133.68 459.877   9
   5 -11   2-169.921 292.556   7
  -5  11  -2 264.376 474.036   3
   5  11   2 306.252 389.504   9
  -5 -11  -2 866.454 399.813   2
   5  11   3 4365.14 749.742   9
  -5  12   7 622.908 364.733   3
   5  12  -6 514.027 364.443   8
  -5  12   6 746.409 442.398   3
   5  12  -5 37.8418 240.185   8
   5  12  -5 565.269 425.932   1
  -5 -12   5 156.364 338.993   2
  -5  12   5-74.8306 272.703   3
   5  12  -4 7967.09 959.479   8
   5 -12  -4 9042.38 975.420   7
   5  12  -4 6744.96 879.423   1
  -5 -12   4 7489.20 973.914   2
  -5  12   4 7685.38 998.701   3
   5  12  -3 100.305 267.792   8
  -5 -12   3 190.262 280.824   2
   5 -12  -3 84.8936 226.912   7
   5  12  -3 630.941 376.965   1
  -5  12   3 363.269 370.409   3
   5  12  -3-178.399 277.567   9
  -5 -12   2 3470.09 697.904   2
   5 -12  -2 3129.44 584.001   7
  -5  12   2 4811.59 834.869   3
   5  12  -2 4850.98 820.417   9
   5  12  -2 2641.94 564.427   8
  -5 -12   1 3330.24 653.228   2
   5 -12  -1 3672.59 665.592   7
  -5  12   1 5121.29 859.401   3
   5  12  -1 3745.31 742.945   9
  -5 -12   0 2538.78 575.186   2
   5 -12   0 3222.51 592.631   7
  -5  12   0 3062.21 721.872   3
   5  12   0 2011.83 550.058   9
  -5 -12  -1 827.308 416.778   2
   5 -12   1-24.6561 238.980   7
   5  12   1 497.701 403.394   9
   5 -12   2 10039.9 1105.75   7
  -5 -12  -2 8611.06 1071.01   2
   5  13  -6-15.9457 239.572   8
   5  13  -5 1782.23 590.066   8
   5 -13  -5 2633.53 548.152   7
   5 -13  -4 11479.1 1104.22   7
   5  13  -4 11299.5 1120.88   1
   5  13  -4 10859.4 1101.56   8
   5  13  -3 808.586 359.449   8
  -5 -13   3 1336.43 462.836   2
   5 -13  -3 682.946 343.566   7
   5  13  -3 524.693 316.934   1
  -5 -13   2 490.565 308.960   2
   5 -13  -2 187.517 278.224   7
  -5 -13   1 1503.88 501.929   2
   5 -13  -1 1222.35 426.741   7
  -5 -13   0 1108.95 429.871   2
   5 -13   0 853.010 359.851   7
   5 -13   1-263.866 253.294   7
   5  14  -3 459.132 351.758   1
   5 -14  -2 1355.68 407.086   7
   5 -14  -1 8857.38 993.182   7
   5 -14   0 2347.03 535.068   7
  -6   0   9-60.9934 223.512   2
   6   0  -8 814.812 454.652   8
  -6   0   8 1122.79 397.428   2
   6   0  -7 111.648 320.147   8
  -6   0   7 548.982 437.230   4
  -6   0   7 429.839 286.489   2
   6   0  -6 484.362 269.625   8
  -6   0   6 355.013 353.755   4
  -6   0   6 588.741 355.119   2
   6   0  -5 491.107 343.955   8
  -6   0   5 260.090 275.681   2
   6   0  -4 263.334 260.856   8
  -6   0   4 161.270 206.525   2
  -6   0   4 599.964 433.746   4
  -6   0   4 612.820 362.141   3
   6   0  -3 256.816 331.908   8
  -6   0   3 4.61862 235.465   2
  -6   0   3 786.607 421.456   3
   6   0  -3 784.633 363.148   7
   6   0  -2 36222.2 1929.92   7
  -6   0   2 31292.6 1800.27   2
  -6   0   2 30451.2 1887.37   3
   6   0  -2 37119.2 2013.19   8
  -6   0   1 540.996 312.447   2
   6   0  -1 701.495 320.777   7
  -6   0   1 328.096 260.672   3
   6   0   0 20739.1 1474.15   7
  -6   0   0 17756.0 1364.86   2
   6   0   1 240.251 386.160   7
  -6   0  -1-256.174 281.274   2
   6   0   2 4098.16 719.072   7
  -6   0  -2 4507.18 680.924   6
  -6   0  -2 4598.02 764.677   2
   6   0   3 329.772 318.809   7
  -6   0  -3 352.799 326.568   2
  -6   0  -3 331.853 231.526   6
  -6   0  -4 1523.57 486.062   6
  -6  -1   9 1272.79 423.289   2
  -6   1   9 1449.57 481.355   2
   6  -1  -8 5090.29 817.961   8
  -6  -1   8 5182.60 810.750   2
  -6   1   8 4522.94 741.105   2
   6  -1  -7 2983.46 641.961   8
   6   1  -7 2436.47 590.174   8
  -6  -1   7 2195.28 598.397   4
  -6   1   7 2929.27 644.891   4
  -6  -1   7 1929.44 501.243   2
  -6   1   7 1528.96 460.376   2
   6  -1  -6 4809.59 758.058   8
   6   1  -6 5359.35 813.121   8
  -6  -1   6 5748.41 831.401   4
  -6   1   6 6806.19 916.289   4
  -6  -1   6 4748.05 733.518   2
  -6   1   6 5176.02 755.497   2
   6  -1  -5 21750.9 1539.78   8
   6   1  -5 21997.1 1563.04   8
  -6  -1   5 21952.2 1549.54   4
  -6   1   5 24416.1 1662.52   4
  -6  -1   5 19190.1 1420.65   2
  -6   1   5 19562.1 1401.92   2
  -6   1   5 18649.0 1382.35   3
   6  -1  -4 178.510 269.622   8
   6   1  -4 1029.76 431.960   8
  -6  -1   4 612.052 329.957   2
  -6   1   4 534.586 292.240   2
  -6  -1   4 1690.31 552.099   4
  -6   1   4 941.041 380.821   3
   6  -1  -3 10317.2 1014.12   7
   6   1  -3 9715.69 977.554   7
  -6  -1   3 9804.57 1028.26   4
  -6   1   3 9283.47 951.605   2
  -6  -1   3 8856.09 957.579   2
  -6   1   3 9396.18 1025.90   3
   6  -1  -3 10777.4 1058.99   8
   6   1  -3 9028.53 996.093   8
   6  -1  -2 222.203 289.585   8
   6   1  -2 149.385 259.345   8
  -6   1   2 348.551 259.233   2
  -6  -1   2-113.194 326.085   2
   6   1  -2 406.046 338.505   7
   6  -1  -2 515.508 346.828   7
  -6   1   2 872.006 395.871   3
  -6  -1   1 432.767 271.326   2
   6   1  -1 716.848 316.378   7
   6  -1  -1 943.932 376.275   7
  -6   1   1 1107.71 419.127   3
  -6   1   1 257.414 224.062   2
   6   1   0 605.198 338.677   7
   6  -1   0 1660.00 497.598   7
  -6   1   0 1470.95 518.992   3
  -6   1   0 1077.10 396.801   2
  -6  -1   0 1425.26 402.181   2
   6   1   1 11727.9 1123.91   7
   6  -1   1 9525.73 1041.22   7
  -6   1  -1 8390.03 966.549   2
  -6  -1  -1 10738.5 1113.06   2
  -6   1  -1 10830.4 1189.05   3
   6   1   2 75.8589 254.794   7
   6  -1   2 741.457 417.043   7
  -6   1  -2 377.431 312.761   2
  -6  -1  -2 67.1423 319.643   2
   6   1   3 934.318 383.740   7
   6  -1   3 1583.44 527.821   7
  -6   1  -3 1070.72 421.802   2
  -6  -1  -3 1316.45 479.887   2
  -6   1  -3 743.295 362.836   6
  -6   1  -4 2052.38 526.806   6
   6  -2  -8 522.663 363.012   8
  -6  -2   8 620.790 377.301   2
   6  -2  -7 1272.28 475.047   8
   6   2  -7 1178.04 497.453   8
  -6  -2   7 153.725 306.341   4
  -6   2   7 1274.17 490.610   4
  -6  -2   7 745.333 338.327   2
  -6   2   7 236.523 239.100   2
   6  -2  -6 614.530 358.597   8
   6   2  -6 278.160 346.000   8
  -6  -2   6 52.7153 305.435   4
  -6  -2   6 58.7971 232.841   2
  -6   2   6-34.0635 215.441   2
   6  -2  -5 4549.26 731.345   8
   6   2  -5 4726.68 766.770   8
  -6  -2   5 4924.24 728.047   2
  -6   2   5 5271.32 730.404   2
  -6  -2   5 4918.23 776.594   4
  -6   2   5 4876.71 726.475   3
   6  -2  -4 971.155 440.242   8
   6   2  -4 324.377 316.334   8
  -6  -2   4-26.5182 249.081   2
  -6   2   4 246.466 253.920   2
  -6  -2   4 676.227 412.530   4
  -6   2   4 801.892 384.944   3
   6  -2  -3 2082.29 539.801   8
   6   2  -3 2515.52 559.421   8
  -6   2   3 1807.93 431.772   2
  -6  -2   3 2222.80 542.230   2
  -6  -2   3 2812.40 572.411   4
   6   2  -3 2447.16 522.857   7
   6  -2  -3 2915.05 582.587   7
  -6   2   3 2628.73 601.275   3
  -6   2   2 5162.18 706.819   2
  -6  -2   2 5391.50 765.972   2
   6   2  -2 6047.61 772.488   7
  -6  -2   2 5303.15 731.495   4
   6  -2  -2 6487.60 839.056   7
  -6   2   2 5299.54 812.805   3
   6  -2  -2 5843.61 787.312   8
   6   2  -2 6673.05 857.356   8
  -6  -2   1 255.666 278.628   2
   6   2  -1 620.532 360.865   7
   6  -2  -1 1528.39 442.969   7
  -6   2   1 750.569 348.683   3
  -6   2   1 750.862 334.602   2
   6   2   0 1769.47 464.364   7
   6  -2   0 2985.72 608.556   7
  -6   2   0 1809.46 528.410   3
  -6   2   0 1493.86 418.747   2
  -6  -2   0 2479.82 540.926   2
   6   2   1 5594.05 775.776   7
   6  -2   1 5710.38 814.785   7
  -6   2  -1 6099.76 929.580   3
  -6   2  -1 4531.46 712.775   2
  -6  -2  -1 4854.39 765.629   2
   6   2   2 598.104 399.371   7
   6  -2   2 705.900 377.836   7
  -6   2  -2 348.362 262.009   3
  -6   2  -2 236.324 294.959   2
  -6  -2  -2 506.697 370.510   2
   6   2   3 5238.26 849.555   7
   6  -2   3 5057.46 817.807   7
  -6   2  -3 5117.61 812.817   2
  -6  -2  -3 6754.50 952.668   2
  -6   2  -4 526.689 397.286   6
   6  -3  -8 1616.89 496.806   8
  -6  -3   8 1919.03 521.905   2
   6  -3  -7 718.308 365.757   8
   6   3  -7 53.6177 304.370   8
  -6  -3   7 566.041 463.047   4
  -6   3   7 576.424 535.302   4
  -6  -3   7 610.472 321.343   2
   6  -3  -6 3556.19 653.695   8
   6   3  -6 3827.01 685.882   8
  -6  -3   6 3408.09 697.783   4
  -6   3   6 3744.59 742.810   4
  -6  -3   6 2687.87 599.271   2
  -6   3   6 2730.51 534.318   3
   6  -3  -5-57.6297 226.982   8
   6   3  -5 474.698 398.375   8
  -6  -3   5 38.5248 210.563   2
  -6  -3   5 43.8652 435.248   4
  -6   3   5 83.3361 180.204   2
  -6   3   5-60.6395 272.703   3
   6  -3  -4 236.475 255.829   8
   6   3  -4 227.304 333.900   8
  -6  -3   4 265.695 237.063   2
  -6   3   4 54.2053 208.957   2
  -6  -3   4 574.037 356.000   4
  -6   3   4 642.292 343.738   3
   6  -3  -3 163.626 225.353   8
   6   3  -3 586.235 362.921   8
  -6   3   3 60.6858 196.480   2
  -6  -3   3 58.2231 206.478   2
  -6  -3   3 534.251 322.103   4
   6   3  -3 72.3258 241.751   7
   6  -3  -3 592.695 379.952   7
  -6   3   3 237.531 275.314   3
   6   3  -2 499.851 316.283   8
  -6   3   2 155.620 188.174   2
  -6  -3   2 635.720 303.116   2
  -6  -3   2 506.371 324.305   4
   6   3  -2 643.705 339.656   7
   6  -3  -2 890.713 384.787   7
  -6   3   2 384.678 322.299   3
   6  -3  -2 463.926 353.975   8
  -6  -3   1 259.606 332.678   2
  -6  -3   1 311.699 313.294   4
   6   3  -1 241.753 364.121   7
   6  -3  -1 221.141 306.297   7
  -6   3   1 441.945 409.617   3
  -6   3   1 216.154 248.399   2
   6   3   0 278.997 288.399   7
   6  -3   0 250.344 306.818   7
  -6   3   0 0.72944 338.344   3
  -6   3   0 38.1797 220.947   2
  -6  -3   0 127.662 278.868   2
   6   3   1 530.281 334.032   7
   6  -3   1 590.065 439.972   7
  -6   3  -1 1116.76 523.974   3
  -6   3  -1 405.298 291.516   2
  -6  -3  -1 319.023 263.332   2
   6   3   2 156.845 281.290   7
   6  -3   2 71.4676 269.153   7
  -6   3  -2 263.845 366.549   3
  -6   3  -2 432.311 300.549   2
  -6  -3  -2-187.728 364.529   2
   6   3   3 193.970 267.377   7
  -6   3  -3 354.165 291.201   2
   6   3   4 588.947 353.198   7
  -6   3  -4 63.5088 360.769   6
   6  -4  -8 383.467 303.303   8
   6  -4  -7 378.987 228.123   8
   6   4  -7 281.265 356.265   8
  -6  -4   7 693.540 495.745   4
  -6   4   7 1157.78 583.156   4
  -6  -4   7 248.023 312.946   2
   6  -4  -6 46.5138 221.163   8
   6   4  -6 586.977 355.651   8
  -6  -4   6 940.453 430.884   4
  -6  -4   6 482.814 356.681   2
  -6   4   6-28.2720 235.119   3
   6  -4  -5-261.576 266.960   8
   6   4  -5 101.240 282.875   8
  -6  -4   5 84.7562 268.616   4
  -6  -4   5-60.2710 216.112   2
  -6   4   5 101.157 254.995   3
   6  -4  -4 170.844 215.448   8
   6   4  -4 767.047 392.848   8
  -6  -4   4 13.1643 231.485   2
  -6  -4   4 685.102 361.878   4
  -6   4   4 215.848 277.021   3
   6  -4  -3 1898.74 520.189   8
   6   4  -3 1108.30 456.448   8
  -6   4   3 1618.97 385.235   2
  -6  -4   3 1048.92 407.145   2
  -6  -4   3 1436.31 432.374   4
   6   4  -3 2341.47 512.639   7
   6  -4  -3 2577.20 577.393   7
  -6   4   3 1754.38 521.556   3
   6   4  -2 434.962 315.507   8
  -6   4   2 420.132 264.480   2
  -6  -4   2 323.325 254.005   2
  -6  -4   2 600.825 334.498   4
   6   4  -2 190.852 255.561   7
   6  -4  -2 306.389 321.143   7
  -6   4   2 755.197 420.403   3
  -6  -4   1 2545.74 546.837   2
   6   4  -1 2784.43 540.540   7
   6  -4  -1 2513.47 541.857   7
  -6   4   1 2634.72 648.416   3
  -6   4   1 2374.83 481.269   2
   6   4   0 1287.23 446.200   7
   6  -4   0 1331.77 457.441   7
  -6   4   0 2236.68 627.756   3
  -6   4   0 966.898 361.081   2
  -6  -4   0 1237.37 435.979   2
   6   4   1 994.804 393.013   7
   6  -4   1-60.6217 293.994   7
  -6   4  -1 161.174 410.771   3
  -6   4  -1-230.128 269.798   2
  -6  -4  -1 544.245 335.858   2
   6   4   2 130.321 250.031   7
   6  -4   2-524.219 332.681   7
  -6   4  -2 287.600 392.690   3
  -6   4  -2 129.360 243.951   2
  -6  -4  -2-150.570 297.540   2
   6   4   3 751.574 372.282   7
  -6   4  -3 340.903 294.037   2
   6   4   4 1166.58 454.653   7
   6  -5  -8 149.426 288.406   8
   6  -5  -7 5989.94 818.901   8
  -6  -5   7 6349.56 925.597   2
   6  -5  -6 2020.20 499.736   8
   6   5  -6 1886.09 531.103   8
  -6  -5   6 2537.53 593.179   2
  -6   5   6 1429.92 454.283   3
   6  -5  -5 971.085 391.617   8
   6   5  -5 1523.64 496.486   8
  -6  -5   5 257.207 358.088   4
  -6  -5   5 1037.53 410.089   2
  -6   5   5 813.019 378.293   3
   6  -5  -4 767.781 345.887   8
   6   5  -4 453.498 352.153   8
  -6  -5   4 12.2433 264.730   2
  -6  -5   4 383.758 340.525   4
  -6   5   4 511.059 334.504   3
   6  -5  -3 1100.73 390.957   8
   6   5  -3 848.153 415.382   8
  -6  -5   3 347.956 284.646   2
  -6  -5   3 1034.57 379.888   4
   6   5  -3 1055.82 383.252   7
   6  -5  -3 8.31463 238.097   7
  -6   5   3 511.497 396.818   3
   6   5  -2 493.905 417.111   8
  -6  -5   2 643.351 334.506   2
  -6  -5   2-156.111 235.410   4
   6   5  -2 306.589 291.525   7
   6  -5  -2 598.150 314.315   7
  -6   5   2 539.975 336.350   3
  -6   5   1 240.033 250.214   2
  -6  -5   1-19.7105 255.333   2
   6   5  -1 453.506 281.741   7
   6  -5  -1-117.499 267.150   7
  -6   5   1-18.2978 290.974   3
   6   5   0 377.016 272.340   7
   6  -5   0 901.667 398.771   7
  -6   5   0 556.791 375.675   3
  -6   5   0 783.211 321.863   2
   6   5   0-88.2175 269.041   9
  -6  -5   0 104.709 260.454   2
   6   5   1 9571.65 977.938   7
   6  -5   1 10985.8 1140.12   7
  -6   5  -1 8165.60 893.697   2
  -6  -5  -1 10234.3 1125.62   2
  -6   5  -1 8639.22 1095.93   3
   6   5   1 9050.00 935.981   9
   6   5   2 5638.38 784.769   7
  -6   5  -2 4927.37 861.321   3
  -6   5  -2 3583.99 671.262   2
  -6  -5  -2 5104.52 817.856   2
   6   5   3 329.043 315.396   7
  -6   5  -3 384.237 294.422   2
   6   5   4 464.327 346.669   7
   6  -6  -8 918.898 406.226   8
   6  -6  -7 5354.69 781.644   8
   6  -6  -6-10.3298 283.659   8
   6   6  -6 1395.51 477.101   8
  -6  -6   6 1474.70 486.148   2
  -6   6   6 447.422 247.821   3
   6  -6  -5 5688.61 755.505   8
   6   6  -5 4600.43 743.903   8
  -6  -6   5 6165.65 868.403   2
  -6   6   5 4119.81 727.418   3
   6  -6  -4 175.803 285.562   8
   6   6  -4 151.725 254.592   8
  -6  -6   4 516.970 336.486   4
  -6  -6   4 645.254 384.632   2
  -6   6   4 114.125 288.132   3
   6   6  -3 148.600 254.588   8
  -6  -6   3 574.128 316.822   2
  -6  -6   3 330.182 286.044   4
   6   6  -3 418.747 265.588   7
   6  -6  -3-364.311 282.655   7
  -6   6   3 715.062 421.998   3
   6  -6  -3 369.829 289.746   8
   6   6  -2 4924.51 785.802   8
  -6  -6   2 5164.44 806.472   2
   6   6  -2 5127.70 682.672   7
   6  -6  -2 4738.16 739.321   7
  -6   6   2 3586.44 718.669   3
  -6  -6   1 872.979 330.797   2
   6   6  -1 506.539 275.422   7
   6  -6  -1 520.089 352.457   7
  -6   6   1 651.798 425.447   3
  -6  -6   0-502.761 309.154   2
   6   6   0 628.812 364.230   7
   6  -6   0 749.827 384.482   7
  -6   6   0-292.706 333.227   3
   6   6   0-277.612 324.869   9
   6   6   1 1258.12 412.378   7
   6  -6   1 122.936 238.671   7
  -6   6  -1 1384.99 500.511   3
  -6  -6  -1 952.896 413.538   2
   6   6   1 1117.51 427.902   9
  -6   7   6 7033.61 881.121   3
   6  -7  -5 223.715 275.104   8
   6   7  -5 9.38203 279.097   8
  -6   7   5 512.715 341.534   3
   6  -7  -4 5446.63 735.054   8
   6   7  -4 5890.12 868.712   8
   6  -7  -4 8507.22 984.695   7
   6   7  -4 6601.90 794.547   7
  -6  -7   4 7677.16 969.837   2
  -6   7   4 5940.00 870.490   3
   6   7  -3-15.1489 261.381   8
  -6  -7   3 844.974 421.396   2
   6   7  -3-6.70166 199.293   7
   6  -7  -3 714.316 335.559   7
  -6   7   3 15.4383 368.736   3
  -6  -7   2 4348.71 753.643   2
   6  -7  -2 4914.68 774.929   7
  -6   7   2 2751.48 645.652   3
   6   7  -2 3818.45 734.624   8
  -6  -7   1 6324.32 894.847   2
   6  -7  -1 6291.38 865.359   7
  -6   7   1 6178.49 929.861   3
  -6  -7   0 1870.27 572.511   2
   6  -7   0 1001.21 425.295   7
  -6   7   0 1462.87 504.272   3
   6   7   0 849.166 376.503   9
   6   7   1 152.360 235.676   9
  -6   8   6 1107.94 416.102   3
  -6   8   5 5783.38 882.575   3
   6   8  -4 10229.7 1131.99   8
   6  -8  -4 12535.4 1218.44   7
  -6  -8   4 10452.3 1158.60   2
  -6   8   4 8922.19 1068.67   3
   6   8  -3 2920.11 649.725   8
  -6  -8   3 3498.61 695.256   2
   6  -8  -3 4248.11 698.531   7
  -6   8   3 3285.45 712.504   3
  -6  -8   2 2704.44 610.711   2
   6  -8  -2 3476.03 674.654   7
  -6   8   2 3790.12 736.793   3
   6   8  -2 2014.24 560.174   8
  -6  -8   1 420.717 303.845   2
   6  -8  -1 170.464 377.072   7
  -6   8   1 469.352 360.334   3
   6   8  -1-35.3343 323.332   9
   6   8   0 1051.35 454.234   9
   6   8   1 2493.88 553.802   9
   6   8   2 2734.90 577.323   9
  -6   9   6 3579.21 695.130   3
  -6   9   5-80.7657 336.472   3
  -6   9   4 181.904 418.923   3
   6   9  -3 1713.85 546.193   8
  -6   9   3 2392.83 610.789   3
   6  -9  -2-503.436 362.260   7
   6   9  -1 11855.3 1212.85   9
   6   9   0-194.967 328.506   9
   6   9   1 3074.24 639.535   9
  -7   0   4 455.151 349.268   2
  -7   0   3 43.2017 288.160   2
  -7   0   3 719.633 453.167   4
  -7   0   2 60.4810 215.836   2
  -7   1   5 441.155 283.225   2
  -7   1   4 1120.92 429.670   2
  -7   1   3 2315.41 593.122   2
  -7  -1   3 2328.75 576.327   4
  -7   1   2 383.158 306.869   2
  -7  -1   2-301.271 302.925   4
  -7   2   5 613.350 381.879   3
  -7   2   4 380.323 395.846   3
  -7   2   3 712.555 341.859   2
  -7  -2   3 1291.82 461.962   4
  -7   2   2 893.992 376.277   2
  -7  -2   2 666.449 366.341   4
  -7   2   1-38.1306 251.867   2
  -7   3   5 1192.99 486.725   3
  -7  -3   4 159.273 322.215   4
  -7  -3   3 6251.94 867.415   4
  -7  -4   4 11.9960 344.995   4
   0   0   0    0.00    0.00   0
TITL 8346-1_full in P2(1)/c
REM P2(1)/c (#14 in standard setting)
CELL 0.71073   5.026979  14.046665   9.263238  90.0000 102.2891  90.0000
ZERR    3.00   0.000182   0.000440   0.000376   0.0000   0.0037   0.0000
LATT  1
SYMM -x, y+1/2,-z+1/2
SFAC O Al P K Cu
UNIT 24.00 3.00 6.00 3.00 3.00
TREF
HKLF 4
END
;
_shelx_hkl_checksum              41827
loop_
_space_group_symop_operation_xyz
'x, y, z'
'-x, y+1/2, -z+1/2'
'-x, -y, -z'
'x, -y-1/2, z-1/2'
loop_
_atom_site_label
_atom_site_type_symbol
_atom_site_fract_x
_atom_site_fract_y
_atom_site_fract_z
_atom_site_U_iso_or_equiv
_atom_site_adp_type
_atom_site_occupancy
_atom_site_site_symmetry_order
_atom_site_calc_flag
_atom_site_refinement_flags_posn
_atom_site_refinement_flags_adp
_atom_site_refinement_flags_occupancy
_atom_site_disorder_assembly
_atom_site_disorder_group
Cu1 Cu 0.74086(14) 0.95540(5) 0.45632(8) 0.01199(19) Uani 1 1 d . . . . .
K1 K 0.6843(18) 0.8279(4) 0.8045(11) 0.0185(12) Uani 0.80(5) 1 d . . P . .
K2 K 0.726(5) 0.8224(14) 0.777(3) 0.0185(12) Uani 0.20(5) 1 d . . P . .
P1 P 0.2358(3) 0.82680(9) 0.45459(15) 0.0072(3) Uani 1 1 d . . . . .
P2 P 0.7890(3) 0.50961(10) 0.66871(15) 0.0076(3) Uani 1 1 d . . . . .
Al1 Al 0.2585(3) 0.62940(10) 0.61265(17) 0.0049(3) Uani 1 1 d . . . . .
O1 O 0.4104(7) 0.9137(3) 0.5232(4) 0.0088(7) Uani 1 1 d . . . . .
O2 O -0.0620(8) 0.8359(3) 0.4655(4) 0.0120(8) Uani 1 1 d . . . . .
O3 O 0.9125(8) 0.5881(3) 0.5893(4) 0.0118(8) Uani 1 1 d . . . . .
O4 O 0.3612(8) 0.7412(3) 0.5468(4) 0.0107(8) Uani 1 1 d . . . . .
O5 O 0.7449(8) 0.4182(3) 0.5807(4) 0.0147(8) Uani 1 1 d . . . . .
O6 O 0.2641(8) 0.8119(3) 0.2962(4) 0.0129(8) Uani 1 1 d . . . . .
O7 O 0.5145(8) 0.5458(3) 0.6968(5) 0.0152(8) Uani 1 1 d . . . . .
O8 O 0.9667(8) 0.4907(3) 0.8211(4) 0.0131(8) Uani 1 1 d . . . . .
loop_
_atom_site_aniso_label
_atom_site_aniso_U_11
_atom_site_aniso_U_22
_atom_site_aniso_U_33
_atom_site_aniso_U_23
_atom_site_aniso_U_13
_atom_site_aniso_U_12
Cu1 0.0122(3) 0.0097(3) 0.0158(4) 0.0005(3) 0.0068(3) 0.0007(3)
K1 0.0204(18) 0.0185(9) 0.015(2) -0.0011(11) 0.0014(15) 0.0001(10)
K2 0.0204(18) 0.0185(9) 0.015(2) -0.0011(11) 0.0014(15) 0.0001(10)
P1 0.0093(6) 0.0049(6) 0.0080(7) 0.0003(5) 0.0032(5) -0.0008(5)
P2 0.0092(7) 0.0064(6) 0.0082(6) -0.0017(5) 0.0039(5) -0.0004(5)
Al1 0.0067(7) 0.0030(7) 0.0050(7) -0.0009(6) 0.0017(6) -0.0003(6)
O1 0.0096(18) 0.0045(17) 0.0128(19) -0.0010(15) 0.0037(14) -0.0019(14)
O2 0.0092(18) 0.0080(18) 0.019(2) -0.0008(15) 0.0035(15) -0.0011(14)
O3 0.0108(19) 0.0111(19) 0.014(2) 0.0016(15) 0.0042(15) -0.0021(15)
O4 0.017(2) 0.0055(17) 0.0098(19) 0.0032(14) 0.0028(15) -0.0003(15)
O5 0.025(2) 0.0081(18) 0.014(2) -0.0028(16) 0.0102(17) -0.0031(16)
O6 0.019(2) 0.0101(19) 0.010(2) -0.0004(15) 0.0039(16) -0.0003(16)
O7 0.0120(19) 0.017(2) 0.019(2) 0.0044(17) 0.0092(16) 0.0055(16)
O8 0.0117(19) 0.016(2) 0.0114(19) 0.0025(16) 0.0034(15) 0.0018(16)
loop_
_atom_type_symbol
_atom_type_description
_atom_type_scat_dispersion_real
_atom_type_scat_dispersion_imag
_atom_type_scat_source
O O 0.0106 0.0060 'International Tables Vol C Tables 4.2.6.8 and 6.1.1.4'
Al Al 0.0645 0.0514 'International Tables Vol C Tables 4.2.6.8 and 6.1.1.4'
P P 0.1023 0.0942 'International Tables Vol C Tables 4.2.6.8 and 6.1.1.4'
K K 0.2009 0.2494 'International Tables Vol C Tables 4.2.6.8 and 6.1.1.4'
Cu Cu 0.3201 1.2651 'International Tables Vol C Tables 4.2.6.8 and 6.1.1.4'
loop_
_geom_angle_atom_site_label_1
_geom_angle_atom_site_label_2
_geom_angle_atom_site_label_3
_geom_angle
_geom_angle_site_symmetry_1
_geom_angle_site_symmetry_3
_geom_angle_publ_flag
O2 Cu1 O1 100.66(15) 1_655 . ?
O2 Cu1 O8 90.13(16) 1_655 4_575 ?
O1 Cu1 O8 158.29(16) . 4_575 ?
O2 Cu1 O1 169.84(16) 1_655 3_676 ?
O1 Cu1 O1 83.22(15) . 3_676 ?
O8 Cu1 O1 89.38(15) 4_575 3_676 ?
O2 Cu1 O8 85.67(15) 1_655 2_756 ?
O1 Cu1 O8 101.56(15) . 2_756 ?
O8 Cu1 O8 97.97(14) 4_575 2_756 ?
O1 Cu1 O8 84.35(15) 3_676 2_756 ?
O2 Cu1 O7 99.48(15) 1_655 4_575 ?
O1 Cu1 O7 93.44(14) . 4_575 ?
O8 Cu1 O7 66.03(14) 4_575 4_575 ?
O1 Cu1 O7 89.58(15) 3_676 4_575 ?
O8 Cu1 O7 163.00(14) 2_756 4_575 ?
O2 Cu1 P2 92.71(12) 1_655 4_575 ?
O1 Cu1 P2 127.15(12) . 4_575 ?
O8 Cu1 P2 32.53(11) 4_575 4_575 ?
O1 Cu1 P2 92.33(11) 3_676 4_575 ?
O8 Cu1 P2 130.49(10) 2_756 4_575 ?
O7 Cu1 P2 33.73(9) 4_575 4_575 ?
O2 Cu1 Cu1 86.57(12) 1_655 3_776 ?
O1 Cu1 Cu1 144.92(12) . 3_776 ?
O8 Cu1 Cu1 53.65(11) 4_575 3_776 ?
O1 Cu1 Cu1 84.97(11) 3_676 3_776 ?
O8 Cu1 Cu1 44.32(10) 2_756 3_776 ?
O7 Cu1 Cu1 119.41(10) 4_575 3_776 ?
P2 Cu1 Cu1 86.18(4) 4_575 3_776 ?
O2 Cu1 Cu1 141.85(12) 1_655 3_676 ?
O1 Cu1 Cu1 42.03(10) . 3_676 ?
O8 Cu1 Cu1 127.51(12) 4_575 3_676 ?
O1 Cu1 Cu1 41.19(10) 3_676 3_676 ?
O8 Cu1 Cu1 93.81(10) 2_756 3_676 ?
O7 Cu1 Cu1 92.00(10) 4_575 3_676 ?
P2 Cu1 Cu1 115.34(5) 4_575 3_676 ?
Cu1 Cu1 Cu1 118.92(5) 3_776 3_676 ?
O2 Cu1 K2 66.9(5) 1_655 . ?
O1 Cu1 K2 53.8(4) . . ?
O8 Cu1 K2 147.3(4) 4_575 . ?
O1 Cu1 K2 109.2(5) 3_676 . ?
O8 Cu1 K2 59.1(3) 2_756 . ?
O7 Cu1 K2 137.8(3) 4_575 . ?
P2 Cu1 K2 158.0(4) 4_575 . ?
Cu1 Cu1 K2 100.1(3) 3_776 . ?
Cu1 Cu1 K2 80.2(5) 3_676 . ?
O2 Cu1 K1 71.4(2) 1_655 . ?
O1 Cu1 K1 50.82(17) . . ?
O8 Cu1 K1 150.69(18) 4_575 . ?
O1 Cu1 K1 104.8(2) 3_676 . ?
O8 Cu1 K1 59.13(11) 2_756 . ?
O7 Cu1 K1 137.87(11) 4_575 . ?
P2 Cu1 K1 161.71(15) 4_575 . ?
Cu1 Cu1 K1 101.41(8) 3_776 . ?
Cu1 Cu1 K1 75.72(18) 3_676 . ?
K2 Cu1 K1 4.6(3) . . ?
O4 K1 O6 53.32(13) . 4_576 ?
O4 K1 O2 101.7(2) . 4_676 ?
O6 K1 O2 73.19(15) 4_576 4_676 ?
O4 K1 O5 99.1(3) . 2_656 ?
O6 K1 O5 73.0(3) 4_576 2_656 ?
O2 K1 O5 116.2(4) 4_676 2_656 ?
O4 K1 O3 168.3(5) . 4_576 ?
O6 K1 O3 116.7(4) 4_576 4_576 ?
O2 K1 O3 78.94(18) 4_676 4_576 ?
O5 K1 O3 70.6(3) 2_656 4_576 ?
O4 K1 O1 50.01(15) . . ?
O6 K1 O1 93.06(16) 4_576 . ?
O2 K1 O1 149.1(4) 4_676 . ?
O5 K1 O1 84.3(2) 2_656 . ?
O3 K1 O1 131.4(2) 4_576 . ?
O4 K1 O5 141.1(5) . 2_756 ?
O6 K1 O5 155.2(2) 4_576 2_756 ?
O2 K1 O5 82.78(17) 4_676 2_756 ?
O5 K1 O5 113.7(3) 2_656 2_756 ?
O3 K1 O5 50.54(12) 4_576 2_756 ?
O1 K1 O5 111.1(3) . 2_756 ?
O4 K1 O4 100.0(2) . 4_576 ?
O6 K1 O4 47.9(2) 4_576 4_576 ?
O2 K1 O4 68.2(2) 4_676 4_576 ?
O5 K1 O4 49.0(2) 2_656 4_576 ?
O3 K1 O4 69.2(3) 4_576 4_576 ?
O1 K1 O4 122.5(3) . 4_576 ?
O5 K1 O4 117.0(3) 2_756 4_576 ?
O4 K1 O7 106.32(16) . 2_656 ?
O6 K1 O7 115.1(4) 4_576 2_656 ?
O2 K1 O7 149.6(4) 4_676 2_656 ?
O5 K1 O7 47.88(18) 2_656 2_656 ?
O3 K1 O7 71.2(2) 4_576 2_656 ?
O1 K1 O7 61.28(13) . 2_656 ?
O5 K1 O7 82.92(14) 2_756 2_656 ?
O4 K1 O7 95.0(4) 4_576 2_656 ?
O4 K1 O8 104.8(3) . 2_756 ?
O6 K1 O8 157.3(3) 4_576 2_756 ?
O2 K1 O8 122.3(3) 4_676 2_756 ?
O5 K1 O8 109.0(2) 2_656 2_756 ?
O3 K1 O8 84.26(14) 4_576 2_756 ?
O1 K1 O8 65.14(19) . 2_756 ?
O5 K1 O8 46.00(15) 2_756 2_756 ?
O4 K1 O8 149.6(4) 4_576 2_756 ?
O7 K1 O8 61.30(12) 2_656 2_756 ?
O4 K1 P1 24.97(9) . . ?
O6 K1 P1 69.53(12) 4_576 . ?
O2 K1 P1 126.6(2) 4_676 . ?
O5 K1 P1 87.64(18) 2_656 . ?
O3 K1 P1 152.8(3) 4_576 . ?
O1 K1 P1 25.82(9) . . ?
O5 K1 P1 132.7(4) 2_756 . ?
O4 K1 P1 108.9(2) 4_576 . ?
O7 K1 P1 82.16(12) 2_656 . ?
O8 K1 P1 87.8(2) 2_756 . ?
O4 K1 P2 95.44(18) . 2_656 ?
O6 K1 P2 89.6(3) 4_576 2_656 ?
O2 K1 P2 140.3(5) 4_676 2_656 ?
O5 K1 P2 24.73(11) 2_656 2_656 ?
O3 K1 P2 77.5(3) 4_576 2_656 ?
O1 K1 P2 64.53(15) . 2_656 ?
O5 K1 P2 105.51(19) 2_756 2_656 ?
O4 K1 P2 73.7(3) 4_576 2_656 ?
O7 K1 P2 25.89(11) 2_656 2_656 ?
O8 K1 P2 86.54(13) 2_756 2_656 ?
P1 K1 P2 76.10(11) . 2_656 ?
O4 K2 O1 51.9(4) . . ?
O4 K2 O2 104.4(6) . 4_676 ?
O1 K2 O2 156.2(8) . 4_676 ?
O4 K2 O5 154.5(12) . 2_756 ?
O1 K2 O5 116.3(7) . 2_756 ?
O2 K2 O5 84.4(5) 4_676 2_756 ?
O4 K2 O6 52.6(4) . 4_576 ?
O1 K2 O6 91.7(6) . 4_576 ?
O2 K2 O6 71.0(5) 4_676 4_576 ?
O5 K2 O6 150.2(9) 2_756 4_576 ?
O4 K2 O8 112.6(8) . 2_756 ?
O1 K2 O8 68.6(5) . 2_756 ?
O2 K2 O8 129.0(8) 4_676 2_756 ?
O5 K2 O8 48.2(3) 2_756 2_756 ?
O6 K2 O8 159.9(7) 4_576 2_756 ?
O4 K2 O3 155.4(11) . 4_576 ?
O1 K2 O3 126.2(8) . 4_576 ?
O2 K2 O3 75.5(5) 4_676 4_576 ?
O5 K2 O3 49.6(3) 2_756 4_576 ?
O6 K2 O3 106.4(9) 4_576 4_576 ?
O8 K2 O3 83.9(5) 2_756 4_576 ?
O4 K2 O5 93.6(7) . 2_656 ?
O1 K2 O5 79.7(6) . 2_656 ?
O2 K2 O5 106.4(9) 4_676 2_656 ?
O5 K2 O5 106.9(7) 2_756 2_656 ?
O6 K2 O5 66.3(6) 4_576 2_656 ?
O8 K2 O5 105.0(6) 2_756 2_656 ?
O3 K2 O5 63.6(6) 4_576 2_656 ?
O4 K2 O6 102.1(8) . 4_676 ?
O1 K2 O6 127.8(10) . 4_676 ?
O2 K2 O6 47.8(4) 4_676 4_676 ?
O5 K2 O6 65.9(5) 2_756 4_676 ?
O6 K2 O6 105.9(6) 4_576 4_676 ?
O8 K2 O6 89.8(7) 2_756 4_676 ?
O3 K2 O6 95.8(5) 4_576 4_676 ?
O5 K2 O6 152.4(8) 2_656 4_676 ?
O4 K2 O2 68.2(6) . 1_655 ?
O1 K2 O2 58.4(5) . 1_655 ?
O2 K2 O2 115.3(9) 4_676 1_655 ?
O5 K2 O2 86.4(7) 2_756 1_655 ?
O6 K2 O2 118.9(7) 4_576 1_655 ?
O8 K2 O2 54.3(5) 2_756 1_655 ?
O3 K2 O2 134.7(7) 4_576 1_655 ?
O5 K2 O2 137.3(6) 2_656 1_655 ?
O6 K2 O2 70.2(6) 4_676 1_655 ?
O4 K2 O7 104.5(6) . 2_656 ?
O1 K2 O7 59.8(4) . 2_656 ?
O2 K2 O7 139.6(10) 4_676 2_656 ?
O5 K2 O7 81.4(5) 2_756 2_656 ?
O6 K2 O7 106.4(8) 4_576 2_656 ?
O8 K2 O7 61.1(4) 2_756 2_656 ?
O3 K2 O7 66.5(5) 4_576 2_656 ?
O5 K2 O7 44.2(4) 2_656 2_656 ?
O6 K2 O7 146.4(7) 4_676 2_656 ?
O2 K2 O7 101.3(5) 1_655 2_656 ?
O4 K2 P1 115.1(7) . 4_676 ?
O1 K2 P1 153.5(11) . 4_676 ?
O2 K2 P1 26.1(2) 4_676 4_676 ?
O5 K2 P1 64.3(4) 2_756 4_676 ?
O6 K2 P1 95.5(5) 4_576 4_676 ?
O8 K2 P1 103.9(7) 2_756 4_676 ?
O3 K2 P1 75.9(4) 4_576 4_676 ?
O5 K2 P1 126.4(8) 2_656 4_676 ?
O6 K2 P1 25.98(18) 4_676 4_676 ?
O2 K2 P1 96.1(7) 1_655 4_676 ?
O7 K2 P1 140.4(7) 2_656 4_676 ?
O6 P1 O2 111.7(2) . . ?
O6 P1 O4 108.6(2) . . ?
O2 P1 O4 108.8(2) . . ?
O6 P1 O1 110.0(2) . . ?
O2 P1 O1 112.5(2) . . ?
O4 P1 O1 105.0(2) . . ?
O6 P1 K2 70.6(5) . 4_475 ?
O2 P1 K2 56.1(5) . 4_475 ?
O4 P1 K2 88.0(4) . 4_475 ?
O1 P1 K2 165.6(4) . 4_475 ?
O6 P1 K2 129.7(6) . . ?
O2 P1 K2 118.3(5) . . ?
O4 P1 K2 50.8(3) . . ?
O1 P1 K2 54.8(3) . . ?
K2 P1 K2 136.4(5) 4_475 . ?
O6 P1 K1 135.6(3) . . ?
O2 P1 K1 112.5(3) . . ?
O4 P1 K1 52.04(17) . . ?
O1 P1 K1 55.12(16) . . ?
K2 P1 K1 134.8(5) 4_475 . ?
K2 P1 K1 5.9(3) . . ?
O6 P1 K1 76.3(3) . 4_475 ?
O2 P1 K1 52.0(2) . 4_475 ?
O4 P1 K1 86.14(18) . 4_475 ?
O1 P1 K1 163.92(19) . 4_475 ?
K2 P1 K1 5.7(3) 4_475 4_475 ?
K2 P1 K1 132.9(5) . 4_475 ?
K1 P1 K1 130.7(3) . 4_475 ?
O6 P1 K1 49.5(2) . 4_575 ?
O2 P1 K1 140.92(19) . 4_575 ?
O4 P1 K1 61.7(2) . 4_575 ?
O1 P1 K1 106.53(19) . 4_575 ?
K2 P1 K1 85.0(4) 4_475 4_575 ?
K2 P1 K1 86.2(4) . 4_575 ?
K1 P1 K1 91.55(18) . 4_575 ?
K1 P1 K1 88.88(11) 4_475 4_575 ?
O6 P1 K2 46.7(4) . 4_575 ?
O2 P1 K2 142.9(4) . 4_575 ?
O4 P1 K2 65.6(4) . 4_575 ?
O1 P1 K2 104.1(4) . 4_575 ?
K2 P1 K2 86.8(4) 4_475 4_575 ?
K2 P1 K2 87.5(5) . 4_575 ?
K1 P1 K2 93.0(3) . 4_575 ?
K1 P1 K2 91.0(3) 4_475 4_575 ?
K1 P1 K2 4.3(3) 4_575 4_575 ?
O5 P2 O8 109.9(2) . . ?
O5 P2 O3 112.4(2) . . ?
O8 P2 O3 110.7(2) . . ?
O5 P2 O7 109.7(2) . . ?
O8 P2 O7 105.7(2) . . ?
O3 P2 O7 108.2(2) . . ?
O5 P2 Cu1 129.53(16) . 4_576 ?
O8 P2 Cu1 45.14(15) . 4_576 ?
O3 P2 Cu1 117.54(16) . 4_576 ?
O7 P2 Cu1 60.99(16) . 4_576 ?
O5 P2 K1 53.2(2) . 2_646 ?
O8 P2 K1 94.56(19) . 2_646 ?
O3 P2 K1 154.6(2) . 2_646 ?
O7 P2 K1 65.6(2) . 2_646 ?
Cu1 P2 K1 82.11(18) 4_576 2_646 ?
O5 P2 K2 57.6(4) . 2_746 ?
O8 P2 K2 59.4(4) . 2_746 ?
O3 P2 K2 105.4(5) . 2_746 ?
O7 P2 K2 146.3(5) . 2_746 ?
Cu1 P2 K2 101.2(4) 4_576 2_746 ?
K1 P2 K2 84.7(4) 2_646 2_746 ?
O5 P2 K1 57.55(18) . 2_746 ?
O8 P2 K1 62.7(2) . 2_746 ?
O3 P2 K1 100.0(3) . 2_746 ?
O7 P2 K1 151.7(3) . 2_746 ?
Cu1 P2 K1 105.63(18) 4_576 2_746 ?
K1 P2 K1 88.83(12) 2_646 2_746 ?
K2 P2 K1 5.7(3) 2_746 2_746 ?
O5 P2 K2 57.1(4) . 2_646 ?
O8 P2 K2 92.2(4) . 2_646 ?
O3 P2 K2 157.1(4) . 2_646 ?
O7 P2 K2 63.0(4) . 2_646 ?
Cu1 P2 K2 78.2(4) 4_576 2_646 ?
K1 P2 K2 4.0(3) 2_646 2_646 ?
K2 P2 K2 86.3(4) 2_746 2_646 ?
K1 P2 K2 90.7(3) 2_746 2_646 ?
O7 Al1 O4 119.21(19) . . ?
O7 Al1 O3 115.24(19) . 1_455 ?
O4 Al1 O3 125.37(19) . 1_455 ?
O7 Al1 O6 91.33(19) . 4_576 ?
O4 Al1 O6 88.48(18) . 4_576 ?
O3 Al1 O6 94.46(19) 1_455 4_576 ?
O7 Al1 O5 92.34(19) . 3_666 ?
O4 Al1 O5 86.18(18) . 3_666 ?
O3 Al1 O5 87.65(18) 1_455 3_666 ?
O6 Al1 O5 174.52(18) 4_576 3_666 ?
O7 Al1 K1 145.29(17) . 4_475 ?
O4 Al1 K1 80.1(2) . 4_475 ?
O3 Al1 K1 51.4(3) 1_455 4_475 ?
O6 Al1 K1 119.4(2) 4_576 4_475 ?
O5 Al1 K1 58.4(2) 3_666 4_475 ?
O7 Al1 K2 88.1(4) . . ?
O4 Al1 K2 45.4(4) . . ?
O3 Al1 K2 142.9(5) 1_455 . ?
O6 Al1 K2 54.6(5) 4_576 . ?
O5 Al1 K2 121.5(5) 3_666 . ?
K1 Al1 K2 122.0(4) 4_475 . ?
O7 Al1 K2 143.9(3) . 4_475 ?
O4 Al1 K2 76.4(4) . 4_475 ?
O3 Al1 K2 56.7(5) 1_455 4_475 ?
O6 Al1 K2 123.0(4) 4_576 4_475 ?
O5 Al1 K2 54.3(4) 3_666 4_475 ?
K1 Al1 K2 5.7(3) 4_475 4_475 ?
K2 Al1 K2 119.6(3) . 4_475 ?
O7 Al1 K1 89.81(17) . . ?
O4 Al1 K1 48.08(18) . . ?
O3 Al1 K1 137.7(3) 1_455 . ?
O6 Al1 K1 49.1(3) 4_576 . ?
O5 Al1 K1 126.8(3) 3_666 . ?
K1 Al1 K1 121.87(8) 4_475 . ?
K2 Al1 K1 5.7(3) . . ?
K2 Al1 K1 120.1(4) 4_475 . ?
O7 Al1 K1 87.98(14) . 4_575 ?
O4 Al1 K1 52.10(14) . 4_575 ?
O3 Al1 K1 128.16(15) 1_455 4_575 ?
O6 Al1 K1 132.63(15) 4_576 4_575 ?
O5 Al1 K1 43.53(14) 3_666 4_575 ?
K1 Al1 K1 82.5(2) 4_475 4_575 ?
K2 Al1 K1 78.0(5) . 4_575 ?
K2 Al1 K1 76.9(5) 4_475 4_575 ?
K1 Al1 K1 83.5(2) . 4_575 ?
P1 O1 Cu1 122.8(2) . . ?
P1 O1 Cu1 124.2(2) . 3_676 ?
Cu1 O1 Cu1 96.78(15) . 3_676 ?
P1 O1 K2 98.7(4) . . ?
Cu1 O1 K2 92.0(6) . . ?
Cu1 O1 K2 119.2(5) 3_676 . ?
P1 O1 K1 99.06(18) . . ?
Cu1 O1 K1 97.6(3) . . ?
Cu1 O1 K1 114.0(3) 3_676 . ?
K2 O1 K1 7.1(4) . . ?
P1 O2 Cu1 124.6(2) . 1_455 ?
P1 O2 K2 97.8(6) . 4_475 ?
Cu1 O2 K2 121.3(4) 1_455 4_475 ?
P1 O2 K1 103.3(3) . 4_475 ?
Cu1 O2 K1 120.06(19) 1_455 4_475 ?
K2 O2 K1 7.3(4) 4_475 4_475 ?
P1 O2 K2 124.0(4) . 1_455 ?
Cu1 O2 K2 80.3(4) 1_455 1_455 ?
K2 O2 K2 109.8(6) 4_475 1_455 ?
K1 O2 K2 102.6(4) 4_475 1_455 ?
P2 O3 Al1 130.9(3) . 1_655 ?
P2 O3 K1 127.6(3) . 4_575 ?
Al1 O3 K1 99.4(3) 1_655 4_575 ?
P2 O3 K2 131.8(5) . 4_575 ?
Al1 O3 K2 94.2(5) 1_655 4_575 ?
K1 O3 K2 5.7(4) 4_575 4_575 ?
P1 O4 Al1 139.5(3) . . ?
P1 O4 K2 103.6(4) . . ?
Al1 O4 K2 106.9(5) . . ?
P1 O4 K1 103.0(2) . . ?
Al1 O4 K1 104.0(2) . . ?
K2 O4 K1 7.2(4) . . ?
P1 O4 K1 93.3(2) . 4_575 ?
Al1 O4 K1 101.5(2) . 4_575 ?
K2 O4 K1 108.5(7) . 4_575 ?
K1 O4 K1 115.7(4) . 4_575 ?
P2 O5 Al1 140.8(3) . 3_666 ?
P2 O5 K1 102.1(2) . 2_646 ?
Al1 O5 K1 109.4(2) 3_666 2_646 ?
P2 O5 K2 97.4(4) . 2_746 ?
Al1 O5 K2 94.8(5) 3_666 2_746 ?
K1 O5 K2 107.5(6) 2_646 2_746 ?
P2 O5 K1 98.2(2) . 2_746 ?
Al1 O5 K1 90.1(2) 3_666 2_746 ?
K1 O5 K1 113.7(3) 2_646 2_746 ?
K2 O5 K1 6.7(4) 2_746 2_746 ?
P2 O5 K2 99.8(4) . 2_646 ?
Al1 O5 K2 112.0(4) 3_666 2_646 ?
K1 O5 K2 2.5(4) 2_646 2_646 ?
K2 O5 K2 106.9(7) 2_746 2_646 ?
K1 O5 K2 113.1(4) 2_746 2_646 ?
P1 O6 Al1 145.6(3) . 4_575 ?
P1 O6 K1 106.7(3) . 4_575 ?
Al1 O6 K1 101.1(3) 4_575 4_575 ?
P1 O6 K2 111.9(5) . 4_575 ?
Al1 O6 K2 94.9(6) 4_575 4_575 ?
K1 O6 K2 6.5(4) 4_575 4_575 ?
P1 O6 K2 83.4(5) . 4_475 ?
Al1 O6 K2 110.5(5) 4_575 4_475 ?
K1 O6 K2 101.7(3) 4_575 4_475 ?
K2 O6 K2 105.9(6) 4_575 4_475 ?
P2 O7 Al1 136.6(3) . . ?
P2 O7 Cu1 85.27(18) . 4_576 ?
Al1 O7 Cu1 125.2(2) . 4_576 ?
P2 O7 K1 88.5(3) . 2_646 ?
Al1 O7 K1 115.3(2) . 2_646 ?
Cu1 O7 K1 94.41(19) 4_576 2_646 ?
P2 O7 K2 93.0(5) . 2_646 ?
Al1 O7 K2 113.8(4) . 2_646 ?
Cu1 O7 K2 91.3(4) 4_576 2_646 ?
K1 O7 K2 5.7(3) 2_646 2_646 ?
P2 O8 Cu1 102.3(2) . 4_576 ?
P2 O8 Cu1 175.6(2) . 2_746 ?
Cu1 O8 Cu1 82.03(14) 4_576 2_746 ?
P2 O8 K2 95.3(4) . 2_746 ?
Cu1 O8 K2 149.7(6) 4_576 2_746 ?
Cu1 O8 K2 80.5(4) 2_746 2_746 ?
P2 O8 K1 92.7(2) . 2_746 ?
Cu1 O8 K1 155.4(3) 4_576 2_746 ?
Cu1 O8 K1 83.07(16) 2_746 2_746 ?
K2 O8 K1 5.9(4) 2_746 2_746 ?
loop_
_geom_bond_atom_site_label_1
_geom_bond_atom_site_label_2
_geom_bond_distance
_geom_bond_site_symmetry_2
_geom_bond_publ_flag
Cu1 O2 1.942(4) 1_655 y
Cu1 O1 1.981(4) . y
Cu1 O8 2.010(4) 4_575 y
Cu1 O1 2.014(4) 3_676 y
Cu1 O8 2.317(4) 2_756 y
Cu1 O7 2.431(4) 4_575 y
Cu1 P2 2.7698(15) 4_575 n
Cu1 Cu1 2.8488(14) 3_776 n
Cu1 Cu1 2.9872(14) 3_676 n
Cu1 K2 3.53(2) . n
Cu1 K1 3.752(10) . n
K1 O4 2.858(8) . y
K1 O6 2.873(7) 4_576 y
K1 O2 2.887(6) 4_676 y
K1 O5 2.893(14) 2_656 y
K1 O3 2.894(9) 4_576 y
K1 O1 2.935(7) . y
K1 O5 3.110(7) 2_756 y
K1 O4 3.189(14) 4_576 y
K1 O7 3.219(8) 2_656 y
K1 O8 3.244(9) 2_756 y
K1 P1 3.532(6) . n
K1 P2 3.534(11) 2_656 n
K2 O4 2.75(2) . y
K2 O1 2.85(2) . y
K2 O2 2.886(19) 4_676 y
K2 O5 3.02(2) 2_756 y
K2 O6 3.03(2) 4_576 y
K2 O8 3.07(2) 2_756 y
K2 O3 3.11(2) 4_576 y
K2 O5 3.24(3) 2_656 y
K2 O6 3.27(3) 4_676 y
K2 O2 3.29(3) 1_655 y
K2 O7 3.39(2) 2_656 y
K2 P1 3.44(2) 4_676 n
P1 O6 1.519(4) . y
P1 O2 1.527(4) . y
P1 O4 1.530(4) . y
P1 O1 1.558(4) . y
P2 O5 1.512(4) . y
P2 O8 1.525(4) . y
P2 O3 1.529(4) . y
P2 O7 1.543(4) . y
Al1 O7 1.794(4) . y
Al1 O4 1.800(4) . y
Al1 O3 1.802(4) 1_455 y
Al1 O6 1.884(4) 4_576 y
Al1 O5 1.908(4) 3_666 y

_cod_database_fobs_code 2108614
