#------------------------------------------------------------------------------
#$Date: 2019-09-25 16:35:28 +0300 (Wed, 25 Sep 2019) $
#$Revision: 218858 $
#$URL: file:///home/coder/svn-repositories/cod/cif/2/10/84/2108491.cif $
#------------------------------------------------------------------------------
#
# This file is available in the Crystallography Open Database (COD),
# http://www.crystallography.net/. The original data for this entry
# were provided by IUCr Journals, http://journals.iucr.org/.
#
# The file may be used within the scientific community so long as
# proper attribution is given to the journal article from which the
# data were obtained.
#
data_2108491
loop_
_publ_author_name
'Shishkina, Svitlana V.'
'Konovalova, Irina S.'
'Kovalenko, Sergiy M.'
'Trostianko, Pavlo V.'
'Geleverya, Anna O.'
'Nikolayeva, Lyudmila L.'
'Bunyatyan, Natalya D.'
_publ_section_title
;
 Influence of <i>ortho</i>-substituent on the molecular and crystal
 structures of 2-(<i>N</i>-arylimino)coumarin-3-carboxamide: isotypic and
 polymorphic structures
;
_journal_issue                   5
_journal_name_full               'Acta Crystallographica Section B'
_journal_page_first
;
;
_journal_paper_doi               10.1107/S2052520619010485
_journal_volume                  75
_journal_year                    2019
_chemical_formula_sum            'C17 H14 N2 O2'
_chemical_formula_weight         278.30
_space_group_crystal_system      triclinic
_space_group_IT_number           2
_space_group_name_Hall           '-P 1'
_space_group_name_H-M_alt        'P -1'
_symmetry_space_group_name_Hall  '-P 1'
_symmetry_space_group_name_H-M   'P -1'
_atom_sites_solution_hydrogens   geom
_audit_creation_method           SHELXL-2016/6
_cell_angle_alpha                103.662(13)
_cell_angle_beta                 94.580(12)
_cell_angle_gamma                98.382(12)
_cell_formula_units_Z            2
_cell_length_a                   4.8956(7)
_cell_length_b                   9.6425(15)
_cell_length_c                   14.958(2)
_cell_measurement_reflns_used    339
_cell_measurement_temperature    293(2)
_cell_measurement_theta_max      22.079
_cell_measurement_theta_min      3.997
_cell_volume                     673.98(18)
_computing_structure_refinement  'SHELXL-2016/6 (Sheldrick, 2016)'
_computing_structure_solution    'SHELXT 2014/5 (Sheldrick, 2014)'
_diffrn_ambient_temperature      293(2)
_diffrn_detector_area_resol_mean 16.1827
_diffrn_measured_fraction_theta_full 0.998
_diffrn_measured_fraction_theta_max 0.998
_diffrn_measurement_device_type  'Xcalibur, Sapphire3'
_diffrn_measurement_method       '\w scans'
_diffrn_radiation_type           MoK\a
_diffrn_radiation_wavelength     0.71073
_diffrn_reflns_av_R_equivalents  0.0742
_diffrn_reflns_av_unetI/netI     0.1199
_diffrn_reflns_Laue_measured_fraction_full 0.998
_diffrn_reflns_Laue_measured_fraction_max 0.998
_diffrn_reflns_limit_h_max       5
_diffrn_reflns_limit_h_min       -5
_diffrn_reflns_limit_k_max       11
_diffrn_reflns_limit_k_min       -10
_diffrn_reflns_limit_l_max       17
_diffrn_reflns_limit_l_min       -17
_diffrn_reflns_number            4150
_diffrn_reflns_point_group_measured_fraction_full 0.998
_diffrn_reflns_point_group_measured_fraction_max 0.998
_diffrn_reflns_theta_full        24.992
_diffrn_reflns_theta_max         24.992
_diffrn_reflns_theta_min         2.902
_diffrn_source                   'Enhance (Mo) X-ray Source'
_exptl_absorpt_coefficient_mu    0.092
_exptl_absorpt_correction_T_max  1.00000
_exptl_absorpt_correction_T_min  0.01337
_exptl_absorpt_correction_type   multi-scan
_exptl_absorpt_process_details
;
CrysAlisPro 1.171.39.46 (Rigaku Oxford Diffraction, 2018)
Empirical absorption correction using spherical harmonics,
 implemented in SCALE3 ABSPACK scaling algorithm.
;
_exptl_crystal_colour            yellow
_exptl_crystal_density_diffrn    1.371
_exptl_crystal_description       stick
_exptl_crystal_F_000             292
_exptl_crystal_size_max          0.200
_exptl_crystal_size_mid          0.050
_exptl_crystal_size_min          0.030
_refine_diff_density_max         0.277
_refine_diff_density_min         -0.242
_refine_diff_density_rms         0.056
_refine_ls_extinction_method     none
_refine_ls_goodness_of_fit_ref   0.917
_refine_ls_hydrogen_treatment    constr
_refine_ls_matrix_type           full
_refine_ls_number_parameters     191
_refine_ls_number_reflns         2366
_refine_ls_number_restraints     0
_refine_ls_restrained_S_all      0.917
_refine_ls_R_factor_all          0.1648
_refine_ls_R_factor_gt           0.0803
_refine_ls_shift/su_max          0.000
_refine_ls_shift/su_mean         0.000
_refine_ls_structure_factor_coef Fsqd
_refine_ls_weighting_details
'w=1/[\s^2^(Fo^2^)+(0.0652P)^2^] where P=(Fo^2^+2Fc^2^)/3'
_refine_ls_weighting_scheme      calc
_refine_ls_wR_factor_gt          0.1662
_refine_ls_wR_factor_ref         0.2107
_reflns_Friedel_coverage         0.000
_reflns_number_gt                967
_reflns_number_total             2366
_reflns_threshold_expression     'I > 2\s(I)'
_cod_data_source_file            xk5058sup1.cif
_cod_data_source_block           1me
_cod_original_cell_volume        674.00(18)
_cod_database_code               2108491
_shelx_shelxl_version_number     2016/6
_shelx_space_group_comment
;
The symmetry employed for this shelxl refinement is uniquely defined
by the following loop, which should always be used as a source of
symmetry information in preference to the above space-group names.
They are only intended as comments.
;
_shelx_estimated_absorpt_t_min   0.982
_shelx_estimated_absorpt_t_max   0.997
_shelx_res_file
;
TITL is140_a.res in P-1
    is140.res
    created by SHELXL-2016/6 at 22:31:57 on 16-May-2019
CELL 0.71073 4.8956 9.6425 14.9583 103.662 94.58 98.382
ZERR 2 0.0007 0.0015 0.0021 0.013 0.012 0.012
LATT 1
SFAC C H N O
UNIT 34 28 4 4

L.S. 4
PLAN  20
BOND $H
list 4
fmap 2
ACTA
OMIT 0 50
conf
size 0.2 0.05 0.03
temp 20
htab n2 n1
eqiv $1 2-x,1-y,1-z
htab n2 o2_$1
WGHT    0.065200
FVAR       0.82031
O1    4    0.222279    0.381912    0.755205    11.00000    0.06176    0.05938 =
         0.07098    0.01541    0.02558   -0.00218
O2    4    0.772858    0.319265    0.502000    11.00000    0.09181    0.07281 =
         0.07698    0.01056    0.04165    0.00776
N1    3    0.515880    0.577379    0.737870    11.00000    0.05824    0.05194 =
         0.06964    0.01135    0.01915    0.00039
N2    3    0.823157    0.540932    0.596363    11.00000    0.08990    0.06242 =
         0.08592    0.00183    0.04342   -0.01284
AFIX  93
H2NA  2    0.948253    0.575758    0.566638    11.00000   -1.20000
H2NB  2    0.772303    0.596106    0.643943    11.00000   -1.20000
AFIX   0
C1    1    0.096520    0.239432    0.725934    11.00000    0.04507    0.05243 =
         0.05734    0.01396    0.00898    0.00042
C2    1   -0.098163    0.192795    0.777008    11.00000    0.06534    0.05412 =
         0.06966    0.01864    0.01261   -0.00046
AFIX  43
H2    2   -0.138878    0.254938    0.830105    11.00000   -1.20000
AFIX   0
C3    1   -0.234276    0.050903    0.748244    11.00000    0.05914    0.06963 =
         0.08792    0.03328    0.01817    0.00222
AFIX  43
H3    2   -0.371591    0.018223    0.781528    11.00000   -1.20000
AFIX   0
C4    1   -0.169522   -0.043254    0.670751    11.00000    0.07655    0.05474 =
         0.07884    0.01909    0.00514   -0.00318
AFIX  43
H4    2   -0.262713   -0.138407    0.651655    11.00000   -1.20000
AFIX   0
C5    1    0.036824    0.006658    0.621986    11.00000    0.06755    0.06077 =
         0.06896    0.01992    0.00698    0.00974
AFIX  43
H5    2    0.085584   -0.056282    0.570725    11.00000   -1.20000
AFIX   0
C6    1    0.171217    0.149767    0.649036    11.00000    0.04925    0.04745 =
         0.06163    0.01836    0.00701    0.00488
C7    1    0.378173    0.211078    0.599334    11.00000    0.05578    0.05990 =
         0.05309    0.00981    0.00739    0.00984
AFIX  43
H7    2    0.429557    0.152021    0.546906    11.00000   -1.20000
AFIX   0
C8    1    0.497918    0.350016    0.626415    11.00000    0.04806    0.05786 =
         0.05494    0.01808    0.00855    0.00805
C9    1    0.416759    0.444585    0.708536    11.00000    0.05115    0.04947 =
         0.05932    0.01370    0.00963   -0.00187
C10   1    0.710006    0.403762    0.569152    11.00000    0.05553    0.05393 =
         0.06202    0.01699    0.01175    0.00423
C11   1    0.429467    0.666055    0.818129    11.00000    0.05072    0.05289 =
         0.06953    0.01868    0.02124    0.00189
C12   1    0.256353    0.762095    0.805564    11.00000    0.05390    0.06703 =
         0.07596    0.01780    0.01482    0.00484
AFIX  43
H12   2    0.190340    0.764277    0.745949    11.00000   -1.20000
AFIX   0
C13   1    0.180377    0.855220    0.881194    11.00000    0.07102    0.06810 =
         0.09764    0.02645    0.02108    0.01868
AFIX  43
H13   2    0.061632    0.919133    0.872501    11.00000   -1.20000
AFIX   0
C14   1    0.280826    0.853234    0.969504    11.00000    0.07796    0.05924 =
         0.08450    0.00747    0.03206    0.00646
AFIX  43
H14   2    0.229855    0.915041    1.020840    11.00000   -1.20000
AFIX   0
C15   1    0.456586    0.759004    0.980503    11.00000    0.06740    0.05442 =
         0.07621    0.01201    0.02211    0.00456
AFIX  43
H15   2    0.525811    0.759163    1.040269    11.00000   -1.20000
AFIX   0
C16   1    0.535465    0.664030    0.907084    11.00000    0.05301    0.04907 =
         0.08186    0.01767    0.02223    0.00867
C17   1    0.725936    0.560597    0.920916    11.00000    0.06897    0.07199 =
         0.09115    0.02423    0.02101    0.01051
AFIX 137
H17A  2    0.624446    0.463396    0.902530    11.00000   -1.50000
H17B  2    0.799250    0.582948    0.985096    11.00000   -1.50000
H17C  2    0.876154    0.569174    0.883983    11.00000   -1.50000

AFIX   0
HKLF 4




REM  is140_a.res in P-1
REM R1 =  0.0803 for     967 Fo > 4sig(Fo)  and  0.1648 for all    2366 data
REM    191 parameters refined using      0 restraints

END

WGHT      0.0652      0.0000

REM Highest difference peak  0.277,  deepest hole -0.242,  1-sigma level  0.056
Q1    1   0.3130  0.2885  0.6735  11.00000  0.05    0.27
Q2    1  -0.1515  0.2661  0.8613  11.00000  0.05    0.27
Q3    1   0.4224  0.1354  0.5200  11.00000  0.05    0.25
Q4    1  -0.4453 -0.0123  0.7802  11.00000  0.05    0.21
Q5    1   0.5619  0.2737  0.5423  11.00000  0.05    0.20
Q6    1   0.1601  0.4756  0.8342  11.00000  0.05    0.19
Q7    1  -0.3207 -0.1870  0.6451  11.00000  0.05    0.18
Q8    1   0.2366  0.3576  0.5433  11.00000  0.05    0.17
Q9    1   0.1000  0.6128  0.7672  11.00000  0.05    0.17
Q10   1   0.9989  0.6345  0.5412  11.00000  0.05    0.16
Q11   1   1.0451  0.6036  0.5563  11.00000  0.05    0.16
Q12   1   0.0446  0.3281  0.8042  11.00000  0.05    0.16
Q13   1  -0.2283 -0.2390  0.7075  11.00000  0.05    0.16
Q14   1  -0.1154 -0.1212  0.5196  11.00000  0.05    0.16
Q15   1   0.9032  0.4636  0.5243  11.00000  0.05    0.16
Q16   1   0.8682  0.5592  0.8048  11.00000  0.05    0.16
Q17   1   0.5105  0.8004  0.8437  11.00000  0.05    0.16
Q18   1  -0.5988 -0.1420  0.5957  11.00000  0.05    0.16
Q19   1  -0.4050 -0.0960  0.7200  11.00000  0.05    0.15
Q20   1   0.4823  0.8346  0.7801  11.00000  0.05    0.15
;
_shelx_res_checksum              75232
_shelx_hkl_file
;
   0   0   3  342.76   13.17
   0   0  -3  338.37   12.03
   0   0   3  300.52   12.16
   0   0   4   90.22    7.90
   0   0  -4  103.80    7.91
   0   0   4  110.61    9.07
   0   0   5  122.13   10.24
   0   0  -5  135.22    9.89
   0   0   6  315.68   18.10
   0   0  -6  331.38   16.74
   0   0   7   39.15    7.20
   0   0  -7   34.18    5.92
   0   0   8  235.59   18.92
   0   0  -8  288.79   17.86
   0   0   9   37.82    8.16
   0   0  -9   41.64    7.19
   0   0 -10   10.99    3.81
   0   0  10   17.79    6.67
   0   0 -11    6.27    3.65
   0   0  11    4.65    3.65
   0   0  12   11.17    4.17
   0   0  12   11.76    5.84
   0   0 -12   15.87    4.99
   0   0  13   17.78    6.98
   0   0 -13   17.47    5.89
   0   0  13   10.04    4.49
   0   0 -14    0.90    1.93
   0   0  14    0.61    2.07
   0   0  14    1.71    2.69
   0   0  15   -1.23    1.99
   0   0  16    1.39    2.97
   0   0  17   -2.52    3.19
   0   0  18    1.23    2.07
   0   0  19    0.00    3.58
   0   0 -20    3.85    4.80
   0  -1  21   -0.01    3.64
   0  -1  20   -7.02    6.05
   0  -1  19    0.08    3.12
   0  -1  18    1.59    4.28
   0  -1  17    0.19    2.10
   0  -1  16   -3.56    3.50
   0  -1  15    0.39    2.06
   0  -1  14    6.83    5.51
   0   1 -14    2.46    1.51
   0   1 -13   15.32    5.34
   0  -1  13   19.78    7.66
   0  -1  12    4.31    3.06
   0   1 -12    0.68    1.66
   0  -1  11    2.03    4.25
   0   1 -11    0.62    0.68
   0  -1  10    8.41    4.65
   0   1 -10    5.63    2.77
   0  -1   9   10.35    4.81
   0   1  -9    7.51    3.20
   0   1  -8   10.90    3.67
   0  -1   8   12.04    5.04
   0   1  -7   80.97    9.28
   0  -1   7   74.23   10.37
   0  -1   6  394.43   21.30
   0   1  -6  401.44   19.63
   0   1  -5    3.11    1.71
   0   1  -4    3.18    1.09
   0  -1   4    4.37    1.53
   0   1  -3  967.83   21.97
   0  -1   3  904.53   19.71
   0   1  -2 2083.43   26.70
   0   1   1  235.64    7.67
   0   1   2 2312.18   29.80
   0   1   2 2392.09   36.46
   0  -1  -2 2136.86   32.95
   0  -1  -2 2137.27   28.14
   0  -1  -2 2358.89   39.95
   0   1   2 2339.35   33.52
   0  -1  -3    1.76    0.89
   0   1   3    5.63    1.84
   0   1   3    6.55    1.95
   0   1   3    4.63    2.25
   0   1   4  240.09   13.09
   0   1   4  204.32   12.18
   0  -1  -4  261.75   14.41
   0   1   5  121.53   10.02
   0  -1  -5  167.11   12.15
   0   1   5  136.89   10.84
   0   1   6  318.81   18.13
   0   1   6  315.60   17.08
   0  -1  -6  380.47   19.75
   0   1   7  345.16   20.57
   0  -1  -7  385.17   21.15
   0   1   7  314.40   18.43
   0  -1  -8    3.88    1.62
   0   1   8    0.27    0.66
   0   1   8    5.01    3.47
   0   1   9  144.22   13.89
   0   1   9  148.73   15.66
   0  -1  -9  119.55   13.12
   0   1  10   29.85    6.74
   0   1  10   31.93    7.87
   0  -1 -10   22.15    5.80
   0   1  11   26.38    7.69
   0   1  11   26.12    6.75
   0   1  12   53.17   11.59
   0   1  12   38.82    8.50
   0   1  13    9.58    5.47
   0   1  13    9.01    4.35
   0   1  14    0.52    0.31
   0   1  14    2.15    2.18
   0   1  15    1.68    2.53
   0   1  16    4.24    4.54
   0   1  17    3.35    5.37
   0  -1 -17    0.70    2.74
   0   1  18    3.12    3.76
   0  -1 -18    2.15    4.58
   0  -1 -19   -0.16    3.15
   0  -2  22   -2.79    4.17
   0  -2  21    0.01    2.74
   0  -2  20   -2.74    3.79
   0  -2  19    1.40    3.79
   0  -2  18    0.70    2.81
   0  -2  17    4.00    5.66
   0  -2  16    2.28    5.06
   0  -2  15    2.02    2.83
   0  -2  14   -3.66    2.26
   0   2 -14    0.40    1.41
   0  -2  13    0.81    1.14
   0   2 -13    0.64    0.39
   0  -2  12    5.09    3.69
   0   2 -12    1.36    1.97
   0  -2  11    8.86    3.97
   0   2 -11    1.74    2.14
   0  -2  10    4.10    3.63
   0   2 -10    3.51    2.17
   0   2  -9   61.10    9.77
   0  -2   9   53.63   10.31
   0  -2   8    6.90    4.16
   0   2  -8    6.30    3.03
   0   2  -7  124.71   12.57
   0   2  -6  554.61   24.19
   0   2  -5   96.04    9.63
   0   2  -4  166.48   11.80
   0   2  -3  452.50   17.26
   0   2  -3  472.80   18.33
   0  -2   2  272.11   13.58
   0   2  -2  281.91   13.88
   0   2  -2  276.20   12.42
   0   2  -1  621.91   20.51
   0   2   0   40.04    4.86
   0   2   0   55.44    6.16
   0   2   1   90.18    8.33
   0  -2  -1   94.08    7.36
   0  -2  -1  117.42   10.38
   0   2   1   64.97    7.15
   0  -2  -2   10.32    2.41
   0   2   2   10.90    3.13
   0   2   2    1.52    1.61
   0  -2  -2    9.12    2.70
   0  -2  -2    8.35    1.98
   0  -2  -3  215.75   11.87
   0  -2  -3  262.09   16.97
   0  -2  -3  196.42   10.46
   0   2   3  218.94   11.81
   0   2   3  212.49   13.39
   0   2   4  203.57   12.81
   0   2   4  185.60   13.25
   0  -2  -4  214.34   16.31
   0  -2  -4  167.44   10.19
   0   2   5   47.04    6.93
   0   2   5   59.89    7.76
   0  -2  -5   55.01    9.12
   0   2   6   64.48    8.85
   0  -2  -6   61.43   10.10
   0   2   6   77.17    9.88
   0  -2  -7    2.83    3.09
   0   2   7    0.24    1.39
   0   2   7    5.25    2.70
   0   2   8   19.10    5.10
   0   2   8   19.87    5.84
   0   2   9   20.95    7.30
   0   2   9   15.55    5.12
   0   2  10   96.17   12.72
   0   2  10   68.88   12.69
   0   2  11    6.85    3.91
   0   2  11    7.75    4.48
   0  -2 -11    4.27    1.16
   0   2  12    0.35    0.08
   0  -2 -12    2.65    1.97
   0   2  12    0.65    1.64
   0  -2 -13   19.47    8.23
   0   2  13   20.88    8.21
   0   2  13   25.06    7.40
   0   2  14    3.81    4.31
   0  -2 -14    4.29    4.59
   0   2  14    5.18    3.50
   0  -2 -15   -0.19    0.80
   0   2  15    0.00    2.70
   0  -2 -16    0.67    2.86
   0   2  16    1.12    2.69
   0  -2 -17   -0.22    1.35
   0  -2 -18    2.03    1.60
   0  -2 -19    0.86    1.55
   0  -3  22    0.01    4.38
   0  -3  21   -0.01    2.30
   0  -3  20    1.27    5.47
   0  -3  19    0.00    3.62
   0  -3  18    0.03    2.55
   0  -3  17   30.56   11.73
   0  -3  16   57.96   15.57
   0  -3  15    2.69    4.20
   0   3 -15    3.66    2.75
   0   3 -14   35.92    8.69
   0  -3  14   36.61   11.03
   0   3 -13    9.87    4.48
   0  -3  13   16.48    7.80
   0  -3  12   -1.39    2.94
   0   3 -12    0.69    1.81
   0   3 -11   10.74    5.08
   0  -3  11    7.90    4.77
   0   3 -10    9.72    4.32
   0  -3  10   17.81    6.89
   0   3  -9   55.74   10.05
   0   3  -8   68.12   10.64
   0   3  -7  375.90   23.55
   0   3  -6    1.46    2.20
   0   3  -5   94.23   11.05
   0   3  -5   78.67   10.08
   0   3  -4  201.82   15.20
   0   3  -4  217.97   14.38
   0   3  -3    0.38    0.93
   0   3  -3    0.94    1.86
   0   3  -2   15.37    4.13
   0   3  -1  107.70   10.70
   0   3   0   20.58    4.78
   0   3   1  283.06   17.01
   0  -3  -2    1.70    0.52
   0  -3  -2    3.72    1.80
   0   3   2    1.83    1.91
   0  -3  -2    0.24    0.22
   0   3   3  471.43   23.09
   0  -3  -3  643.08   31.68
   0  -3  -3  458.88   19.06
   0   3   4    9.69    3.16
   0  -3  -4    8.70    2.81
   0   3   4    6.43    2.47
   0  -3  -4    9.61    4.52
   0  -3  -5   10.44    4.60
   0   3   5    9.76    3.55
   0  -3  -5    9.57    3.05
   0   3   5    7.60    2.89
   0  -3  -6   68.24   10.82
   0  -3  -6   49.53    6.75
   0   3   6   57.52    8.90
   0   3   6   63.83    9.18
   0   3   7    6.18    2.94
   0  -3  -7    6.67    2.53
   0  -3  -7    9.42    4.27
   0   3   7    9.92    3.90
   0  -3  -8    2.78    2.27
   0   3   8    0.58    0.99
   0  -3  -8    2.09    2.32
   0   3   8    4.22    2.60
   0  -3  -9    0.05    2.12
   0   3   9   -0.08    1.80
   0  -3  -9    0.70    0.97
   0   3   9    3.56    2.98
   0   3  10    5.48    3.37
   0  -3 -10    1.16    1.37
   0  -3 -10    4.35    3.59
   0   3  10    5.84    3.28
   0  -3 -11    8.57    4.63
   0   3  11    1.43    1.45
   0   3  11    8.68    4.03
   0  -3 -11    6.43    2.94
   0   3  12   25.47    7.58
   0   3  12   16.13    7.20
   0  -3 -12   18.67    5.36
   0  -3 -12   24.94    9.06
   0   3  13    0.09    0.55
   0   3  13    2.60    3.21
   0  -3 -13    0.56    1.28
   0   3  14    3.71    2.64
   0   3  14   -1.17    2.03
   0  -3 -14    2.91    1.63
   0  -3 -15    8.69    6.35
   0  -3 -16    0.30    1.27
   0  -3 -17   12.75    8.58
   0  -3 -18   -2.26    1.72
   0  -4  21    2.36    5.32
   0  -4  20    9.80    8.65
   0  -4  19    1.65    1.49
   0  -4  18    6.06    6.59
   0  -4  17   16.63    9.73
   0  -4  16    9.15    8.43
   0   4 -15   36.16    9.73
   0  -4  15   60.37   15.69
   0   4 -14   31.41    8.57
   0  -4  14   -3.67    2.67
   0   4 -13    1.76    3.15
   0  -4  13    1.75    5.68
   0  -4  12    7.85    4.60
   0   4 -12    2.10    1.95
   0   4 -11    1.14    0.86
   0   4 -10  100.99   15.10
   0   4  -9  324.16   25.95
   0   4  -8  101.10   14.38
   0   4  -7  173.53   18.06
   0   4  -6    5.64    3.97
   0   4  -6    1.70    2.95
   0   4  -6    2.25    3.18
   0   4  -5    2.98    2.56
   0   4  -5    0.01    1.08
   0   4  -4    3.00    2.28
   0   4  -4   -0.39    1.15
   0   4  -3    1.73    2.12
   0   4  -2   59.46    9.04
   0   4  -1   10.77    4.28
   0   4   0   39.95    7.22
   0   4   1   38.58    7.40
   0   4   2    2.47    1.20
   0  -4  -3   56.49   11.50
   0  -4  -3   53.31    7.24
   0   4   3   52.13    8.64
   0   4   4    9.25    3.91
   0  -4  -4   11.18    4.93
   0  -4  -4    9.54    3.28
   0   4   5  107.29   13.06
   0  -4  -5  102.51   10.25
   0  -4  -5  140.39   17.33
   0   4   6   30.22    7.14
   0   4   6   19.05    5.59
   0  -4  -6   21.21    7.54
   0  -4  -6   20.13    4.64
   0  -4  -7    3.43    3.61
   0   4   7    4.31    2.89
   0   4   7    4.35    3.06
   0   4   8   -0.84    1.32
   0  -4  -8    1.88    1.90
   0  -4  -8    2.04    2.23
   0   4   8   -0.36    0.63
   0  -4  -9    2.04    1.65
   0   4   9    2.20    3.14
   0  -4  -9    2.35    2.13
   0   4   9    0.63    1.95
   0   4  10    9.80    4.91
   0  -4 -10    7.47    3.24
   0  -4 -10   15.20    6.70
   0   4  10    7.02    4.13
   0   4  11    2.51    3.05
   0  -4 -11    0.00    0.89
   0   4  11    0.81    1.84
   0  -4 -11   -0.54    1.21
   0  -4 -12    1.15    3.19
   0   4  12    0.69    0.82
   0   4  12   -0.12    1.68
   0   4  13   -1.08    3.06
   0  -4 -13    7.08    5.37
   0   4  14   -2.26    0.99
   0  -4 -14    2.60    3.98
   0  -4 -15   -0.93    1.83
   0  -4 -16    1.85    1.36
   0  -4 -17   -1.04    0.82
   0  -5  21    0.13    1.87
   0  -5  20    5.58   11.01
   0  -5  19   -2.60    4.09
   0  -5  18   -5.83    5.94
   0  -5  17   -8.74    7.06
   0  -5  16    2.23    2.97
   0   5 -15    4.21    2.57
   0  -5  15  -11.06    8.05
   0  -5  14    0.62    3.37
   0   5 -14   -1.26    2.71
   0  -5  13    0.35    4.34
   0   5 -13    6.49    5.15
   0   5 -12    4.28    4.17
   0   5 -11   14.66    6.88
   0   5 -10    3.40    2.74
   0   5  -9   15.81    6.77
   0   5  -8   23.31    7.94
   0   5  -7    7.93    3.58
   0   5  -7   15.04    4.82
   0   5  -7   12.33    4.98
   0   5  -6    5.11    3.25
   0   5  -6    3.28    3.60
   0   5  -5   46.89    8.05
   0   5  -5   41.37    9.11
   0   5  -4   -0.15    1.23
   0   5  -4    4.03    2.01
   0   5  -3  161.83   16.09
   0   5  -2  833.68   36.16
   0   5  -1    0.24    2.03
   0   5   0  351.45   23.43
   0   5   1   45.53    8.35
   0   5   2    0.96    1.37
   0   5   3   15.75    5.20
   0  -5  -4   32.57    9.48
   0   5   4   28.86    7.14
   0  -5  -4   27.89    6.00
   0  -5  -5   80.03    9.98
   0   5   5   91.41   12.89
   0  -5  -5  104.30   17.40
   0  -5  -6  369.78   31.15
   0  -5  -6  276.25   18.84
   0   5   6  286.91   22.99
   0   5   7    4.86    3.36
   0  -5  -7   11.02    5.93
   0  -5  -7    3.22    2.04
   0   5   8   34.35    8.49
   0  -5  -8   29.08    9.85
   0  -5  -8   23.59    5.48
   0  -5  -9    0.76    0.34
   0   5   9    1.10    1.02
   0  -5  -9    3.20    3.06
   0  -5 -10    5.53    3.84
   0   5  10   10.68    6.34
   0   5  10    6.12    4.09
   0  -5 -11    4.39    5.13
   0   5  11    1.81    2.24
   0  -5 -12   -1.07    1.88
   0   5  12    0.85    2.36
   0  -5 -13   -0.01    1.51
   0   5  13   -0.87    2.53
   0  -5 -14    0.95    2.43
   0  -5 -15   -0.65    4.17
   0  -5 -16    0.50    1.51
   0  -5 -17    0.00    2.77
   0  -6  20    0.25    5.30
   0  -6  19   -5.55    6.47
   0  -6  18    1.77    3.78
   0  -6  17    1.68    1.96
   0  -6  16    5.31    7.17
   0  -6  15    6.77    6.37
   0   6 -15    0.27    4.11
   0   6 -14    3.39    4.48
   0  -6  14    6.61    8.89
   0   6 -13   -2.46    3.99
   0  -6  13   -0.84    4.91
   0   6 -12   -4.91    4.45
   0   6 -11    2.59    1.89
   0   6 -10    2.99    1.83
   0   6  -9   11.68    6.37
   0   6  -8    3.21    3.07
   0   6  -8   -6.90    4.22
   0   6  -7    6.75    4.01
   0   6  -7    4.10    4.81
   0   6  -6   12.67    4.58
   0   6  -6   13.21    5.85
   0   6  -5  123.55   16.28
   0   6  -5  119.46   14.30
   0   6  -4   41.95    9.38
   0   6  -3   45.23    9.24
   0   6  -2   55.74   10.22
   0   6  -1  173.48   17.85
   0   6   0    1.11    1.30
   0   6   1   30.94    8.00
   0   6   2   38.82    8.52
   0   6   3   -1.02    1.36
   0   6   4  160.11   17.79
   0   6   5   43.73    9.29
   0  -6  -5   58.38   14.02
   0  -6  -6  103.69   18.20
   0  -6  -6   48.64    8.33
   0   6   6   73.43   12.31
   0  -6  -7  322.34   32.69
   0  -6  -7  241.24   18.26
   0   6   7  271.09   24.49
   0  -6  -8   20.92    5.30
   0  -6  -8   27.95    9.96
   0   6   8   26.75    7.62
   0   6   9    2.11    2.82
   0  -6  -9    1.19    3.71
   0   6  10    1.79    2.38
   0  -6 -10   12.81    7.87
   0  -6 -11    1.32    3.71
   0   6  11    2.00    3.36
   0   6  12    8.49    4.89
   0  -6 -12   12.80    8.10
   0  -6 -13    5.95    6.27
   0   6  13    4.60    3.76
   0  -6 -14   -5.51    4.88
   0  -6 -15    3.91    4.28
   0  -6 -16    2.44    1.08
   0  -7  20    0.01    2.21
   0  -7  19   -6.23    7.50
   0  -7  18  -11.66    9.95
   0  -7  17    3.46    5.84
   0  -7  16    6.42    8.14
   0   7 -15   -1.06    5.48
   0  -7  15  -12.19   10.80
   0  -7  14   -3.73    5.29
   0   7 -14    7.61    6.87
   0   7 -13   -1.59    2.17
   0   7 -12   -4.59    4.18
   0   7 -11    7.86    5.18
   0   7 -10   -1.12    1.62
   0   7  -9   10.30    6.05
   0   7  -8    3.16    4.72
   0   7  -8    0.42    1.91
   0   7  -7   -0.99    2.12
   0   7  -7    3.87    2.89
   0   7  -6    3.38    2.90
   0   7  -6    9.40    4.45
   0   7  -5   19.51    5.83
   0   7  -5   26.81    8.47
   0   7  -4    5.45    3.00
   0   7  -3   66.87   12.04
   0   7  -2    5.14    3.23
   0   7  -1    6.77    3.68
   0   7   0    3.97    3.00
   0   7   1    7.93    4.55
   0   7   2    9.90    4.58
   0   7   3    1.42    2.36
   0   7   4   -0.33    2.09
   0   7   5   22.04    7.28
   0   7   6    2.87    2.46
   0   7   7   10.14    4.95
   0  -7  -8    1.70    4.33
   0   7   8   -0.10    1.66
   0   7   9    0.63    1.87
   0  -7  -9    6.35    6.38
   0  -7 -10   -0.05    1.76
   0   7  10    1.40    1.57
   0  -7 -11    2.83    4.73
   0   7  11    8.06    4.82
   0  -7 -12    3.46    5.48
   0   7  12    1.36    3.19
   0   7  13    3.36    2.95
   0  -7 -13    6.00    4.57
   0  -7 -14   -7.25    5.89
   0  -7 -15    7.77    7.11
   0  -8  19    0.85    6.63
   0  -8  18    3.56    7.55
   0  -8  17    0.29    1.69
   0  -8  16   -2.13    4.56
   0  -8  15   -1.43    3.26
   0   8 -15    4.42    1.65
   0   8 -14    3.02    3.98
   0   8 -13    2.65    1.68
   0   8 -12   37.00   13.38
   0   8 -11   29.31   11.39
   0   8 -10    8.64    6.87
   0   8  -9    4.25    3.32
   0   8  -9    6.75    3.66
   0   8  -9    9.39    6.59
   0   8  -8   31.62   10.10
   0   8  -8   27.48    8.42
   0   8  -7   -0.26    1.82
   0   8  -7    0.29    0.76
   0   8  -6   -1.45    2.77
   0   8  -6   -0.90    2.22
   0   8  -5   16.01    5.69
   0   8  -5   17.88    7.01
   0   8  -4   17.99    6.69
   0   8  -3    0.05    1.24
   0   8  -2    2.91    2.82
   0   8  -1    2.03    3.23
   0   8   0    0.30    3.32
   0   8   1   10.96    5.30
   0   8   2    6.88    4.53
   0   8   3   10.56    5.10
   0   8   4   10.98    5.12
   0   8   5    7.46    4.90
   0   8   6    1.54    0.55
   0   8   7    0.89    1.63
   0   8   8   -1.52    2.05
   0   8   9   -0.54    2.87
   0   8  10    0.53    0.55
   0   8  11    2.99    3.03
   0   8  12    1.24    2.36
   0   8  13   -1.02    3.34
   0  -9  18    2.45    5.86
   0  -9  17   -4.64    7.40
   0  -9  16   -8.92    9.91
   0   9 -15    2.12    4.91
   0  -9  15    4.63    5.72
   0   9 -14   -1.37    5.83
   0   9 -13   -0.58    5.53
   0   9 -12   13.68    8.74
   0   9 -11   31.98   12.26
   0   9 -10  177.68   28.47
   0   9  -9   83.42   15.02
   0   9  -9  112.67   20.27
   0   9  -8   -1.61    1.40
   0   9  -8   -2.71    3.97
   0   9  -7   10.97    5.28
   0   9  -7    4.16    4.10
   0   9  -6   -1.22    1.31
   0   9  -6   -1.45    2.09
   0   9  -5    2.27    0.50
   0   9  -5    1.39    2.25
   0   9  -4   23.86    8.51
   0   9  -3    9.04    4.76
   0   9  -2   11.61    5.86
   0   9  -1    4.63    4.20
   0   9   0   26.77    8.28
   0   9   1   -2.78    1.41
   0   9   2   -2.19    1.08
   0   9   3   13.03    6.43
   0   9   4    2.01    3.03
   0   9   5    5.42    4.57
   0   9   6    2.91    2.83
   0   9   7    2.90    3.77
   0   9   8    1.42    2.70
   0   9   9    4.69    3.90
   0   9  10    0.40    1.65
   0   9  11   -4.55    3.89
   0   9  12    1.66    2.83
   0 -10  17    2.45    6.03
   0 -10  16  -13.31   13.23
   0 -10  15  -15.75   13.84
   0  10 -15   -0.78    1.71
   0  10 -14    2.70    4.69
   0  10 -13   10.74    7.18
   0  10 -12    3.89    6.19
   0  10 -11   18.39   10.19
   0  10 -10   -1.97    2.17
   0  10 -10   -0.34    2.77
   0  10  -9   -0.63    2.19
   0  10  -9   -1.53    2.11
   0  10  -8    3.80    3.83
   0  10  -8    3.27    2.16
   0  10  -7    2.19    5.52
   0  10  -7    5.84    8.97
   0  10  -6    0.17    2.88
   0  10  -6    0.66    2.52
   0  10  -5   13.77    7.64
   0  10  -5   15.25    6.49
   0  10  -4    1.86    0.93
   0  10  -3    9.49    6.69
   0  10  -2    9.73    5.68
   0  10  -1    1.27    3.12
   0  10   0   23.78    8.62
   0  10   1   25.59    8.21
   0  10   2    3.52    3.37
   0  10   3    3.33    3.45
   0  10   4    0.65    1.42
   0  10   5    4.74    2.82
   0  10   6    1.89    4.36
   0  10   7    1.35    1.66
   0  10   8    0.07    0.88
   0  10   9    6.33    5.15
   0  10  10    3.76    3.53
   0 -11  16    7.07   12.08
   0  11 -15    0.93    2.71
   0 -11  15  -13.29   13.68
   0  11 -14   -1.72    0.46
   0  11 -13   -5.50    5.95
   0  11 -12    5.39    6.10
   0  11 -11    4.03    1.86
   0  11 -10   -6.27    6.79
   0  11 -10   -1.16    2.27
   0  11 -10   -0.33    3.40
   0  11  -9    1.81    2.56
   0  11  -9    2.28    3.61
   0  11  -8    9.15    4.51
   0  11  -8    1.08    2.73
   0  11  -7   -1.42    2.87
   0  11  -7    1.27    3.43
   0  11  -6    0.62    2.17
   0  11  -6   11.48    5.37
   0  11  -5    3.24    3.19
   0  11  -5    3.54    3.02
   0  11  -4   -1.36    3.66
   0  11  -3   -0.75    3.10
   0  11  -2    8.00    5.23
   0  11  -1    9.16    6.06
   0  11   0    6.83    5.10
   0  11   1   -2.28    2.90
   0  11   2    5.61    5.39
   0  11   3    1.91    3.21
   0  11   4    5.43    4.49
   0  11   5   14.65    7.94
   0  11   6    3.56    4.37
   0  11   7    3.62    3.53
   0  11   8   -4.55    3.34
   0  12 -15   -1.71    3.32
   0  12 -14   -1.49    3.97
   0 -12  14   -6.25    9.45
   0  12 -13   -2.73    4.21
   0  12 -12   -1.85    2.70
   0  12 -11   -0.59    5.67
   0  12 -10   15.98   10.49
   0  12 -10   -0.95    2.60
   0  12  -9    1.05    4.05
   0  12  -8   -1.05    1.72
   0  12  -7   -0.68    2.00
   0  12  -6    3.20    3.40
   0  12  -5   -2.47    4.43
   0  12  -4   -3.17    4.05
   0  12  -3    3.27    3.74
   0  12  -2   -1.58    3.35
   0  12  -1    0.14    1.85
   0  12   0    1.95    1.74
   0  12   1    0.40    1.04
   0  12   2    4.73    4.04
   0  12   3    4.00    4.65
   0  12   4   -0.51    2.14
   0  13 -14    1.70    4.75
   0  13 -13    1.99    4.71
   0  13 -12   -1.04    4.41
   0  13 -11   -8.58    8.79
   0  13 -10    1.14    5.30
   0  13 -10   -1.81    1.35
   0  13  -9    3.78    5.80
   0  13  -9   -0.42    3.31
   0  13  -8   -1.87    3.67
   0  13  -7    2.49    5.11
   0  13  -6    0.87    2.67
   0  13  -5    2.26    1.51
   0  13  -4    1.44    3.13
   0  13  -3   -4.17    4.83
   0  13  -2    1.05    2.16
   0  13  -1   -0.05    3.59
   0  13   0    2.35    3.00
  -1  13   1    0.78    2.43
  -1  13   0    1.76    0.57
  -1  13  -1    1.22    3.07
  -1  13  -2    0.25    2.53
  -1  13  -3   -6.36    5.80
  -1  13  -4    0.86    3.48
  -1  13  -5    0.09    1.51
  -1  13  -6    0.94    4.30
  -1  13  -6    1.34    2.53
  -1  13  -7    2.72    3.23
  -1  13  -7   -1.59    4.46
  -1  13  -8   -1.42    4.89
  -1  13  -9   -1.32    2.41
  -1  13 -10   -0.60    0.71
  -1  13 -11   -4.89    7.42
  -1  13 -12   -2.18    2.52
  -1  12   6   -0.15    2.06
  -1  12   5   -1.56    2.83
  -1  12   4   -1.42    3.15
  -1  12   3    5.28    4.89
  -1  12   2    7.36    5.40
  -1  12   1    0.86    1.00
  -1  12   0    2.62    3.14
  -1  12  -1    0.95    3.00
  -1  12  -2    2.97    4.11
  -1  12  -3   -2.69    3.75
  -1  12  -4    0.33    1.03
  -1  12  -5   -1.36    2.71
  -1  12  -6   -0.78    3.03
  -1  12  -7    5.28    4.49
  -1  12  -7   -1.36    1.33
  -1  12  -8   -2.40    5.43
  -1  12  -9    1.38    4.09
  -1  12 -10    1.41    3.63
  -1  12 -11    5.06    6.62
  -1  12 -12    1.44    2.78
  -1  12 -13   -3.61    5.68
  -1  12 -14   -0.11    1.44
  -1  12 -15    8.21    8.39
  -1  12 -16   -0.20    2.67
  -1  11   9   -5.40    4.91
  -1  11   8    1.94    2.71
  -1  11   7    0.83    2.71
  -1  11   6   -0.08    0.31
  -1  11   5    1.01    0.75
  -1  11   4   -1.97    2.97
  -1  11   3    1.26    2.85
  -1  11   2    3.59    4.69
  -1  11   1    2.70    3.20
  -1  11   0    0.28    0.59
  -1  11  -1    2.59    0.45
  -1  11  -2   -0.53    1.40
  -1  11  -3    3.56    3.60
  -1  11  -4    0.21    2.75
  -1  11  -5   33.90   12.22
  -1  11  -6    0.91    2.97
  -1  11  -7    1.93    3.73
  -1  11  -7    7.26    5.40
  -1  11  -8    1.24    2.89
  -1  11  -9    3.60    2.32
  -1  11 -10   -1.04    1.44
  -1  11 -11   15.90    9.29
  -1  11 -12   -0.91    3.95
  -1  11 -13   -6.40    8.02
  -1  11 -14    5.05    5.77
  -1  11 -15    1.03    4.09
  -1  11 -16    2.56    5.68
  -1  10  11    2.76    2.63
  -1  10  10    3.63    4.22
  -1  10   9   -2.01    0.68
  -1  10   8    1.54    2.57
  -1  10   7    4.19    3.81
  -1  10   6   -2.29    1.46
  -1  10   5    2.41    1.25
  -1  10   4   -0.59    2.08
  -1  10   3    5.34    4.25
  -1  10   2    1.00    0.63
  -1  10   1   13.41    6.49
  -1  10   0   -0.55    2.75
  -1  10  -1    2.80    3.72
  -1  10  -2    1.29    1.15
  -1  10  -3   -0.19    1.56
  -1  10  -4    3.51    3.99
  -1  10  -5    2.62    5.13
  -1  10  -6    1.11    1.54
  -1  10  -7   10.40    7.15
  -1  10  -7    8.02    5.86
  -1  10  -8    2.50    3.08
  -1  10  -9    3.38    5.81
  -1  10 -10    5.63    5.74
  -1  10 -11   -0.13    1.02
  -1  10 -12   27.90   13.28
  -1  10 -13   18.16   11.03
  -1  10 -14    4.41    5.43
  -1  10 -15    8.37    9.02
  -1  10 -16    0.34    4.11
  -1  10 -17    4.12   10.39
  -1   9  11    1.74    3.76
  -1   9  10    3.10    3.53
  -1   9   9    2.50    1.82
  -1   9   8    2.41    2.42
  -1   9   7    1.86    1.54
  -1   9   6    2.11    0.80
  -1   9   5    3.20    2.95
  -1   9   4    4.82    4.17
  -1   9   3   -0.49    1.15
  -1   9   2    1.15    0.42
  -1   9   1   62.17   12.77
  -1   9   0   13.89    5.80
  -1   9  -1   19.48    6.88
  -1   9  -2    1.40    6.06
  -1   9  -3   10.32    5.92
  -1   9  -4    1.54    1.26
  -1   9  -4   -1.16    1.95
  -1   9  -5   -0.18    1.87
  -1   9  -5    1.97    1.88
  -1   9  -6    0.62    2.27
  -1   9  -6    1.97    2.41
  -1   9  -7    2.36    2.40
  -1   9  -7   -3.11    4.25
  -1   9  -7   -1.91    2.80
  -1   9  -8   -1.12    3.33
  -1   9  -9    2.29    2.93
  -1   9 -10    7.00    6.79
  -1   9 -11   -1.60    2.69
  -1   9 -12    1.63    2.57
  -1   9 -13   -6.20    2.95
  -1   9 -14   -3.29    5.99
  -1   9 -15    8.80    6.90
  -1   9 -16   -1.04    5.57
  -1   9 -17    3.60    7.17
   1  -9  18   -6.03   10.00
   1  -8 -14   -2.59    4.52
   1  -8 -13    0.80    1.71
   1  -8 -12   -0.01    1.65
   1  -8 -11    7.05    6.21
  -1   8  11    5.70    3.72
   1  -8 -10    6.79    6.07
  -1   8  10    1.60    1.69
  -1   8   9    0.56    0.61
   1  -8  -9   -1.19    2.15
   1  -8  -8    6.51    4.27
  -1   8   8   14.68    6.31
   1  -8  -8    5.55    3.21
   1  -8  -7    7.97    4.76
  -1   8   7    8.77    3.84
   1  -8  -6    0.98    1.32
  -1   8   6    2.99    2.62
  -1   8   5   44.85   10.24
  -1   8   4    1.58    1.22
  -1   8   3   -3.56    3.55
  -1   8   2  187.93   20.75
  -1   8   1   56.86   11.44
  -1   8   0    0.00    1.66
  -1   8  -1   25.79    8.17
  -1   8  -2    1.62    1.91
  -1   8  -3   -0.04    1.42
  -1   8  -4    0.72    1.46
  -1   8  -4    2.31    1.11
  -1   8  -5    5.63    4.37
  -1   8  -5   -0.29    1.53
  -1   8  -6   12.84    6.74
  -1   8  -6    3.63    2.32
  -1   8  -6   14.40    7.14
  -1   8  -7   10.84    6.21
  -1   8  -8   20.51    9.11
  -1   8  -9   10.20    6.63
  -1   8 -10    0.17    1.20
  -1   8 -11    3.06    4.21
  -1   8 -12   10.42    8.32
  -1   8 -13   -0.25    0.99
  -1   8 -14    5.30    6.76
  -1   8 -15   -0.37    1.78
  -1   8 -16    4.05    5.64
  -1   8 -17   -2.75    0.90
   1  -8  17   20.93   18.79
   1  -8  18    1.74    4.78
   1  -8  19    6.20    7.00
   1  -7 -15   -0.79    0.98
   1  -7 -14    2.31    3.06
   1  -7 -13    9.37    7.02
   1  -7 -12    1.87    4.77
   1  -7 -11   -0.94    4.62
  -1   7  11   -1.86    3.62
  -1   7  10   -0.30    1.21
   1  -7 -10    0.87    2.18
  -1   7   9    6.30    3.81
   1  -7  -9    9.61    6.89
   1  -7  -9    4.70    2.70
   1  -7  -8   13.55    6.02
   1  -7  -8   24.03    9.85
  -1   7   8   17.57    6.00
   1  -7  -7    3.70    3.75
  -1   7   7    2.01    2.00
   1  -7  -7    1.34    3.09
   1  -7  -6    7.72    3.93
   1  -7  -6   17.02    7.23
  -1   7   6    8.38    4.43
   1  -7  -5   65.42   14.49
  -1   7   5   54.37   10.82
   1  -7  -5   53.93   10.76
   1  -7  -4  500.37   32.96
  -1   7   4  464.14   30.82
  -1   7   3   28.60    7.51
   1  -7  -3   34.06    8.71
  -1   7   2  116.08   15.32
  -1   7   1    6.75    2.80
  -1   7   0    8.81    5.31
  -1   7  -1   -1.06    1.27
  -1   7  -2   23.00    7.13
  -1   7  -3   11.59    5.32
  -1   7  -3    4.50    2.30
  -1   7  -4  140.78   19.25
  -1   7  -4  119.05   11.97
  -1   7  -5   44.61   11.41
  -1   7  -5   43.30    7.48
  -1   7  -6   -0.96    1.40
  -1   7  -6   -0.85    3.24
  -1   7  -6    0.77    0.67
  -1   7  -7   -1.83    6.99
  -1   7  -8    3.14    4.61
  -1   7  -9   63.51   15.34
  -1   7 -10   28.34   10.10
  -1   7 -11   28.30   12.10
  -1   7 -12    0.92    3.65
  -1   7 -13    0.92    2.79
  -1   7 -14    0.57    3.20
  -1   7 -15    0.81    4.42
  -1   7 -16   -2.69    3.08
  -1   7 -17    1.41    5.13
   1  -7  17    4.46    5.89
   1  -7  18    0.69    3.39
   1  -7  19    3.15    7.26
   1  -7  20    1.77    6.31
   1  -6 -16    0.96    2.31
   1  -6 -15    0.99    3.05
   1  -6 -14    0.75    2.32
   1  -6 -13    1.96    3.04
  -1   6  12   20.15    6.64
   1  -6 -12    0.34    2.53
  -1   6  11    0.49    3.00
   1  -6 -11    1.58    2.60
   1  -6 -11    0.43    1.27
   1  -6 -10    3.76    4.69
  -1   6  10    0.90    2.56
   1  -6 -10    1.08    3.62
  -1   6   9   -2.18    2.34
   1  -6  -9    3.86    3.10
   1  -6  -9    4.68    3.19
   1  -6  -8   23.69    7.21
   1  -6  -8   36.14   10.39
  -1   6   8   31.31    7.67
   1  -6  -7   -0.50    1.74
  -1   6   7   -0.04    0.88
   1  -6  -7    1.95    2.40
   1  -6  -6    1.21    1.69
  -1   6   6    3.89    2.98
   1  -6  -6    1.80    2.53
  -1   6   5    2.27    2.27
   1  -6  -5    6.43    3.59
   1  -6  -4   30.90    8.70
  -1   6   4   22.25    6.27
   1  -6  -4   14.57    5.76
   1  -6  -3   38.94    8.57
  -1   6   3   43.71    8.82
   1  -6  -2   32.35    7.94
  -1   6   2   23.67    6.64
  -1   6   1    0.58    1.38
  -1   6   0    6.95    4.17
  -1   6  -1    9.85    4.00
  -1   6  -2    8.55    4.29
  -1   6  -3  380.01   19.17
  -1   6  -3  384.84   28.40
  -1   6  -4   42.99    9.87
  -1   6  -4   54.80    7.64
  -1   6  -5   51.17   11.88
  -1   6  -5   51.79   11.26
  -1   6  -5   46.48    7.31
  -1   6  -6   58.52   13.42
  -1   6  -7    7.50    4.77
  -1   6  -8   43.84   12.24
  -1   6  -9    3.59    1.19
  -1   6 -10    3.59    4.57
  -1   6 -11   98.94   19.79
  -1   6 -12    1.25    1.84
  -1   6 -13   -2.55    2.33
  -1   6 -14    3.98    6.30
  -1   6 -15    0.10    1.40
  -1   6 -16   -5.37    4.86
   1  -6  16   -2.43    6.42
   1  -6  17   -4.72    6.17
  -1   6 -17   -1.87    4.47
   1  -6  18    7.14   10.22
   1  -6  19    2.71    7.34
   1  -6  20   -4.74    6.63
   1  -5 -17    1.25    4.50
   1  -5 -16    2.31    4.35
   1  -5 -15   -0.41    1.24
   1  -5 -14    0.99    3.17
   1  -5 -13    4.16    3.85
  -1   5  13    5.28    6.20
  -1   5  12   -2.00    1.64
  -1   5  12    3.39    3.72
   1  -5 -12    0.92    2.97
   1  -5 -12    1.80    2.71
   1  -5 -11    2.31    2.55
  -1   5  11    4.84    4.79
   1  -5 -11    0.00    1.09
  -1   5  11    3.62    2.66
   1  -5 -10   14.24    5.54
  -1   5  10   30.46   11.01
   1  -5 -10   21.62    8.09
  -1   5  10   16.52    5.57
  -1   5   9    5.54    5.19
  -1   5   9   -0.55    2.24
   1  -5  -9    2.16    3.13
   1  -5  -9   -0.58    2.34
  -1   5   8    1.20    0.61
   1  -5  -8    1.18    1.86
   1  -5  -8   -4.28    3.12
   1  -5  -7    0.59    1.44
   1  -5  -7    0.48    2.52
  -1   5   7   -2.22    2.05
   1  -5  -6    0.65    0.59
  -1   5   6    0.14    2.34
   1  -5  -6    2.19    2.97
  -1   5   5    7.04    4.09
   1  -5  -5    5.81    3.46
   1  -5  -5   11.58    5.19
   1  -5  -4   16.37    5.99
  -1   5   4   12.72    4.16
   1  -5  -4   14.72    5.21
  -1   5   3    1.01    1.96
   1  -5  -3    0.07    0.99
   1  -5  -3    2.97    2.91
   1  -5  -2   50.84    9.68
  -1   5   2   45.16    8.29
   1  -5  -2   45.38    9.06
  -1   5   1   11.66    4.45
   1  -5  -1   12.83    4.90
   1  -5   0  103.95   14.11
  -1   5   0   90.20   12.16
  -1   5  -1   69.69   10.76
  -1   5  -2   55.07    9.87
  -1   5  -3   -0.27    0.50
  -1   5  -3    0.87    2.06
  -1   5  -4   52.31   10.78
  -1   5  -4   46.65    6.31
  -1   5  -4   42.88    9.43
  -1   5  -5   80.23   13.92
  -1   5  -6   11.40    5.22
  -1   5  -7    8.36    4.56
  -1   5  -8   16.65    7.17
  -1   5  -9   49.81   12.03
  -1   5 -10   25.89    9.09
  -1   5 -11    0.50    1.86
  -1   5 -12   33.81   10.98
  -1   5 -13   28.53   10.57
  -1   5 -14   -2.76    3.18
  -1   5 -15   -0.29    2.12
   1  -5  16    2.61    1.94
  -1   5 -16   -0.63    1.36
   1  -5  17    1.34    4.68
  -1   5 -17    0.15    4.04
   1  -5  18   15.14   11.75
   1  -5  19    8.66   10.08
   1  -5  20    0.26    5.56
   1  -5  21   -5.00    6.39
   1  -4 -18   -4.72    4.62
   1  -4 -17    0.51    1.68
   1  -4 -16    4.18    6.12
  -1   4  15   -4.83    4.55
   1  -4 -15    0.03    3.46
   1  -4 -14   -0.05    2.93
  -1   4  14    0.89    0.84
   1  -4 -14    0.10    0.21
  -1   4  13    9.40    5.87
   1  -4 -13    7.56    6.14
   1  -4 -13    3.49    3.40
  -1   4  12   22.64    8.69
   1  -4 -12   17.28    6.27
  -1   4  12   22.93    6.60
   1  -4 -12   20.86    8.12
  -1   4  11    8.04    5.10
   1  -4 -11    9.82    5.75
  -1   4  11    9.24    4.17
   1  -4 -11   11.95    4.90
  -1   4  10   -1.04    2.27
   1  -4 -10    1.31    1.67
   1  -4  -9    7.12    4.60
  -1   4   9    7.20    4.77
   1  -4  -9    4.11    2.73
  -1   4   9    6.14    3.29
  -1   4   8   16.82    6.58
  -1   4   8    9.48    3.84
   1  -4  -8    6.58    4.96
   1  -4  -8    8.39    4.07
  -1   4   7   -0.36    1.67
   1  -4  -7    0.03    1.19
  -1   4   7   -0.80    1.58
   1  -4  -7    0.47    0.58
   1  -4  -6   10.66    4.55
  -1   4   6    5.74    2.73
   1  -4  -6    5.08    3.31
  -1   4   6    6.56    3.34
  -1   4   5    2.73    2.22
   1  -4  -5    0.55    0.79
   1  -4  -5    0.70    0.89
  -1   4   4   41.58    7.25
   1  -4  -4   32.53    6.98
   1  -4  -4   34.40    7.41
   1  -4  -3  118.91   12.61
   1  -4  -3  111.57   12.85
  -1   4   3  111.69   11.72
   1  -4  -2    9.68    4.37
  -1   4   2    7.81    2.82
   1  -4  -2   12.80    4.12
   1  -4  -1   60.44    8.62
   1  -4  -1   48.37    8.75
  -1   4   1   48.98    8.00
  -1   4   0   41.04    7.47
   1  -4   0   35.74    7.57
  -1   4  -1   14.41    4.35
  -1   4  -1   14.47    3.16
  -1   4  -2  295.81   12.27
  -1   4  -2  300.40   21.02
  -1   4  -3   63.90   10.49
  -1   4  -3   44.53    8.99
  -1   4  -3   52.00    5.47
  -1   4  -4  184.21   18.14
  -1   4  -5   59.89   10.97
  -1   4  -6    5.66    3.35
  -1   4  -7   10.21    4.45
  -1   4  -8   15.89    5.45
  -1   4  -9   13.47    5.70
  -1   4 -10   12.00    5.94
  -1   4 -11   11.97    6.21
  -1   4 -12    9.64    6.97
  -1   4 -13    5.07    4.10
  -1   4 -14    0.04    3.05
  -1   4 -15   -0.16    1.18
   1  -4  15    2.35    5.45
  -1   4 -16   10.66    6.36
   1  -4  16   10.26    8.65
  -1   4 -17    6.09    5.38
   1  -4  17    4.80    5.96
   1  -4  18    1.55    4.58
   1  -4  19   10.49    9.90
   1  -4  20   -0.98    2.57
   1  -4  21    6.09    6.55
   1  -3 -19    8.28    6.35
   1  -3 -18   -0.08    3.47
   1  -3 -17    0.12    2.84
  -1   3  17    0.07    0.88
   1  -3 -16    1.63    2.49
  -1   3  16   -1.66    2.59
  -1   3  15    0.00    2.40
   1  -3 -15   -5.51    3.60
   1  -3 -15    0.62    1.58
   1  -3 -14    4.93    4.17
  -1   3  14   -0.07    1.43
  -1   3  13    3.70    4.19
  -1   3  12    5.11    2.58
  -1   3  12    5.46    4.07
  -1   3  11   11.28    5.57
  -1   3  11   16.58    5.36
  -1   3  10    0.41    1.79
  -1   3  10   -2.66    3.05
  -1   3   9    2.08    1.81
   1  -3  -9    1.46    0.20
  -1   3   9    3.94    2.60
   1  -3  -8    0.67    1.47
  -1   3   8    0.55    0.94
  -1   3   8    4.56    2.97
  -1   3   7   12.34    3.87
  -1   3   7    6.95    3.95
   1  -3  -7    9.36    3.69
  -1   3   6   15.46    4.14
   1  -3  -6    9.14    3.73
  -1   3   6   13.58    5.51
  -1   3   5   20.65    5.61
   1  -3  -5   18.32    4.82
  -1   3   5   19.99    4.51
  -1   3   4  309.38   20.97
  -1   3   4  281.10   16.98
   1  -3  -4  253.57   17.94
   1  -3  -3  101.21   11.12
   1  -3  -3  107.97   10.66
  -1   3   3  118.84   10.87
  -1   3   2   12.39    3.38
   1  -3  -2   12.57    3.81
   1  -3  -2   10.98    3.36
   1  -3  -1   40.41    5.75
   1  -3  -1   45.96    7.53
  -1   3   1   50.73    7.21
   1  -3   0   54.23    8.60
  -1   3   0   48.89    6.79
   1  -3   1   21.19    5.65
  -1   3  -1   27.05    3.12
  -1   3  -1   18.41    4.28
  -1   3  -2    4.55    3.00
   1  -3   3   15.07    2.70
  -1   3  -3   37.78    7.45
  -1   3  -4    0.96    1.49
  -1   3  -5    0.65    1.82
  -1   3  -6   50.60    9.30
  -1   3  -7   15.69    5.72
  -1   3  -8   -0.20    1.08
  -1   3  -9   54.76   11.04
  -1   3 -10    0.91    1.05
  -1   3 -11   75.88   13.56
  -1   3 -12   -0.81    2.44
   1  -3  13   -3.71    3.14
  -1   3 -13   -0.15    2.21
  -1   3 -14    1.99    2.47
   1  -3  14    7.64    5.62
   1  -3  15    6.04    5.11
  -1   3 -15    8.85    5.09
   1  -3  16    1.56    3.11
  -1   3 -16   -0.49    2.35
   1  -3  17   -2.04    3.49
   1  -3  18    1.38    4.11
   1  -3  19   -2.34    3.62
   1  -3  20   -0.14    3.27
  -1   3 -21   -0.64    0.56
   1  -3  21   -4.48    5.32
   1  -2 -19   -3.11    3.85
  -1   2  18   -3.64    3.97
  -1   2  17    3.09    4.71
  -1   2  16    3.44    4.08
  -1   2  15    1.04    0.50
  -1   2  14    0.43    1.16
  -1   2  13    4.36    3.80
  -1   2  12    2.65    2.24
  -1   2  12    6.24    4.07
  -1   2  11    0.96    0.63
  -1   2  11   -0.31    2.32
  -1   2  10   58.40   12.35
  -1   2  10   44.58    7.21
  -1   2   9    7.05    2.74
  -1   2   9    8.86    3.95
  -1   2   8   -0.40    1.73
  -1   2   8   -0.43    0.05
  -1   2   7   31.34    7.33
  -1   2   7   36.67    5.58
  -1   2   6 1263.11   42.87
  -1   2   6 1206.53   31.77
  -1   2   5  200.95   16.43
  -1   2   5  196.99   12.30
  -1   2   4  792.52   30.24
  -1   2   4  783.67   23.80
  -1   2   3  211.69   11.92
  -1   2   3  207.55   14.85
   1  -2  -3  204.34   14.54
   1  -2  -2  131.43   11.52
  -1   2   2  158.00   10.43
  -1   2   2  156.29   12.52
  -1   2   1  111.75    8.82
   1  -2  -1  112.87   10.52
  -1   2   0   38.59    5.45
   1  -2   0   34.97    5.80
  -1   2   0   31.33    5.02
   1  -2   1 3684.88   60.69
  -1   2  -1 3544.49   55.83
  -1   2  -2 3893.66   62.37
  -1   2  -3   21.96    5.32
  -1   2  -4 1009.72   36.01
  -1   2  -5  235.77   18.17
  -1   2  -6   85.56   11.94
  -1   2  -7   49.41    9.11
  -1   2  -8   77.16   12.07
  -1   2  -9    0.89    2.05
  -1   2 -10   10.61    4.46
  -1   2 -11    0.05    1.56
  -1   2 -12   -0.59    1.45
   1  -2  12   -0.68    1.65
  -1   2 -13   -1.74    1.85
   1  -2  13    4.96    4.46
  -1   2 -14    2.81    2.86
   1  -2  14    0.75    2.92
   1  -2  15   -1.53    2.67
  -1   2 -15    2.28    2.57
  -1   2 -16   -1.83    0.55
   1  -2  16   -0.41    1.29
   1  -2  17    0.40    2.15
   1  -2  18    1.38    2.74
   1  -2  19    0.14    2.27
  -1   2 -19   -2.03    2.74
   1  -2  20    0.00    3.18
  -1   2 -20    5.98    4.88
  -1   1  20    2.85    3.73
  -1   1  19    0.01    0.20
  -1   1  18    0.00    2.04
  -1   1  17    0.74    0.96
  -1   1  16    0.87    1.82
  -1   1  15    0.50    1.64
  -1   1  14   -0.73    1.99
  -1   1  13   36.15   10.45
  -1   1  12    4.91    1.98
  -1   1  12    7.41    4.87
  -1   1  11   11.55    3.25
  -1   1  11   23.01    6.92
  -1   1  10   31.84    5.14
  -1   1  10   33.03    8.60
  -1   1   9   18.20    3.71
  -1   1   9   21.27    6.98
  -1   1   8   -0.61    0.58
  -1   1   8   -0.28    0.21
  -1   1   8    6.54    3.64
  -1   1   7   23.41    3.80
  -1   1   7   39.69    8.18
  -1   1   7   39.68    4.84
  -1   1   6  301.13   20.99
  -1   1   6  214.45   10.19
  -1   1   6  306.59   12.49
   1  -1  -5    4.86    1.55
  -1   1   5    5.95    1.53
  -1   1   5   12.66    4.13
  -1   1   5   10.42    2.16
  -1   1   4  118.31   10.94
  -1   1   4  113.24    6.62
   1  -1  -4   90.16    7.31
   1  -1  -3  487.81   16.73
  -1   1   3  569.91   14.62
  -1   1   3  590.27   23.12
  -1   1   2  155.32    7.75
  -1   1   2  146.32   10.71
   1  -1  -2   91.04    6.68
  -1   1   1   41.76    5.46
  -1   1   1   34.99    3.12
   1  -1  -1   37.84    4.38
  -1   1   1   40.58    4.38
   1  -1  -1   41.04    5.42
   1  -1   0  669.12   21.16
  -1   1   0  685.23   20.26
   1  -1   0  615.82   20.16
  -1   1  -1 1091.21   25.71
   1  -1   1 1296.17   29.41
  -1   1  -1 1194.42   29.62
   1  -1   2 3001.25   44.16
  -1   1  -2 2748.99   40.82
  -1   1  -2 2919.99   51.22
  -1   1  -2 3065.92   37.43
  -1   1  -3 9999.00  102.55
  -1   1  -3 9699.78   77.53
  -1   1  -4  772.36   30.46
  -1   1  -5  483.78   25.21
  -1   1  -6  162.73   14.99
  -1   1  -7   20.17    5.32
  -1   1  -8   81.58   11.81
  -1   1  -9   75.71   11.49
   1  -1  10   14.08    6.37
  -1   1 -10   11.05    4.26
  -1   1 -11   91.24   13.78
   1  -1  11  188.46   22.31
  -1   1 -12    0.67    0.39
   1  -1  12   10.27    6.10
   1  -1  13   -1.94    3.45
  -1   1 -13   -0.36    1.03
  -1   1 -14    1.01    2.37
   1  -1  14    3.22    3.73
   1  -1  15    0.37    2.29
  -1   1 -15    1.38    3.88
  -1   1 -16   -1.85    1.34
  -1   1 -16    1.76    0.88
   1  -1  16    2.61    2.94
   1  -1  17   -4.06    4.06
  -1   1 -17    0.35    1.06
   1  -1  18    1.53    4.68
  -1   1 -18   -2.31    4.03
  -1   1 -19    1.19    1.41
  -1   1 -20    1.74    2.44
  -1   0  21    0.00    2.08
  -1   0  20   -0.76    1.94
  -1   0  19    1.38    3.18
  -1   0  18    0.00    3.54
  -1   0  17    0.62    2.18
  -1   0  16    0.71    2.93
  -1   0  15    4.17    2.80
  -1   0  14    7.61    4.79
  -1   0  13   -0.27    2.38
  -1   0  12   21.79    4.15
  -1   0  12   21.16    7.94
  -1   0  11   75.28    7.13
  -1   0  11  149.42   18.44
  -1   0  10    0.41    0.25
  -1   0  10    4.78    2.42
  -1   0  10    1.17    0.88
  -1   0   9    9.55    2.11
  -1   0   9    6.02    1.70
  -1   0   9   12.91    5.60
  -1   0   8    4.72    1.29
  -1   0   8    0.84    0.64
  -1   0   8    4.15    2.36
  -1   0   7   57.16    3.72
  -1   0   7   74.10    4.47
  -1   0   7   72.65   10.51
  -1   0   6    8.16    2.33
  -1   0   5   11.44    3.69
  -1   0   4   41.26    6.72
  -1   0   3  106.65    9.59
  -1   0   2  338.75   15.30
   1   0  -2  343.14   13.75
  -1   0   2  302.94   12.72
   1   0  -2  293.13   11.10
  -1   0   2  330.85   10.29
  -1   0   1  782.44   18.80
   1   0  -1  780.04   23.02
   1   0  -1  668.63   20.66
  -1   0   1  756.86   20.53
   1   0   0  231.29   11.09
   1   0   0  300.22   16.04
  -1   0   0  251.88   11.95
   1   0   1   34.39    3.89
   1   0   1   48.99    5.82
  -1   0  -1   40.64    5.25
  -1   0  -2    3.70    1.92
   1   0   2    0.20    0.33
  -1   0  -2    3.05    2.39
  -1   0  -3  283.62    9.78
  -1   0  -3  305.03   16.98
  -1   0  -3  370.17   18.48
  -1   0  -4   15.29    4.09
  -1   0  -4   20.41    4.63
  -1   0  -5   27.63    5.94
  -1   0  -5   29.82    5.90
  -1   0  -6   45.02    7.67
  -1   0  -6   48.05    8.28
  -1   0  -7    7.88    3.43
  -1   0  -7    8.85    3.71
   1   0   8   39.90    7.59
  -1   0  -8   60.31    9.74
  -1   0  -8   58.43   10.01
  -1   0  -9   97.14   13.62
   1   0   9  103.22   13.30
  -1   0  -9  103.72   13.39
   1   0  10   21.44    6.33
  -1   0 -10   31.66    7.67
  -1   0 -10   24.12    7.18
   1   0  11    1.13    1.26
  -1   0 -11    1.50    0.89
  -1   0 -11    0.18    1.35
  -1   0 -12    6.83    3.76
   1   0  12    5.25    3.56
  -1   0 -12    5.27    3.55
  -1   0 -13   -4.67    3.48
  -1   0 -13    3.41    3.22
  -1   0 -14    4.81    4.33
  -1   0 -14    0.40    0.59
   1   0  14    4.60    4.13
  -1   0 -15    3.39    4.05
   1   0  15   -1.77    2.42
  -1   0 -15    1.83    1.90
   1   0  15    1.04    3.16
   1   0  16    2.00    3.22
   1   0  16    1.27    0.69
  -1   0 -16    2.32    2.97
  -1   0 -16    0.80    2.52
  -1   0 -17   -1.04    3.71
   1   0  17    0.48    3.39
  -1   0 -18    5.38    6.80
  -1   0 -19    0.21    1.23
  -1  -1  21    0.01    2.43
  -1  -1  20    3.00    4.77
  -1  -1  19    0.55    3.62
  -1  -1  18    1.46    4.07
  -1  -1  17    4.58    4.31
  -1  -1  16    2.90    2.92
  -1  -1  15   64.93   14.69
  -1  -1  14    4.47    4.32
  -1  -1  13   23.78    8.30
  -1  -1  12  122.89   17.18
   1   1 -12  104.20    9.11
  -1  -1  11    4.17    2.66
   1   1 -11    2.25    1.06
  -1  -1  11    1.24    0.70
  -1  -1  10   32.41    8.28
   1   1 -10   34.00    4.65
  -1  -1  10   14.89    2.65
  -1  -1  10   16.29    2.58
   1   1  -9    2.11    1.13
  -1  -1   9    1.81    0.73
  -1  -1   9    3.24    1.03
  -1  -1   9    0.72    0.58
  -1  -1   8   -0.98    2.28
   1   1  -8   -0.07    0.11
  -1  -1   7   41.85    8.10
   1   1  -7   49.66    4.26
  -1  -1   6   67.49    8.96
   1   1  -6   65.76    4.49
   1   1  -5  133.94    6.20
  -1  -1   5  119.68   11.36
   1   1  -4   61.39    7.56
  -1  -1   4   63.63    7.75
   1   1  -3 2147.28   27.65
   1   1  -3 1810.93   39.61
  -1  -1   3 1949.94   38.54
  -1  -1   2  542.31   18.52
   1   1  -2  463.06   16.90
   1   1  -2  555.25   16.10
   1   1  -1    8.83    2.25
  -1  -1   1    8.92    2.17
  -1  -1   1   11.66    2.67
   1   1  -1   11.16    3.11
  -1  -1   0 1917.59   25.83
   1   1   0 1677.63   27.97
  -1  -1   0 2063.41   37.20
   1   1   1  235.24    8.22
  -1  -1  -1  270.80   14.63
  -1  -1  -2  211.68   16.54
  -1  -1  -2  166.53   12.36
  -1  -1  -3   59.76    9.51
  -1  -1  -3   51.54    7.51
  -1  -1  -4   53.65    9.01
  -1  -1  -4   48.24    7.58
   1   1   5   12.92    3.22
  -1  -1  -5   17.76    5.57
  -1  -1  -5   17.58    4.97
  -1  -1  -6  119.17   12.89
  -1  -1  -6  122.19   14.24
   1   1   6  123.53   10.57
   1   1   7    5.95    2.75
  -1  -1  -7    2.26    2.01
  -1  -1  -7    5.03    2.58
  -1  -1  -8    2.61    1.91
   1   1   8    2.17    1.27
  -1  -1  -8    3.03    3.19
   1   1   9    6.54    3.26
  -1  -1  -9    6.84    3.80
  -1  -1  -9   10.29    4.65
   1   1  10    3.45    2.04
  -1  -1 -10    7.09    4.96
  -1  -1 -10   10.65    6.31
   1   1  11    7.95    4.77
  -1  -1 -11    6.98    4.94
  -1  -1 -11    5.94    3.54
   1   1  11    1.85    1.73
  -1  -1 -12    2.34    2.38
   1   1  12    8.58    5.89
   1   1  12    3.79    3.36
  -1  -1 -12    9.31    4.63
   1   1  13    2.14    2.57
  -1  -1 -13    0.20    1.87
  -1  -1 -13    2.98    3.50
   1   1  13    2.26    3.08
   1   1  14    0.06    1.82
   1   1  14    0.12    3.12
  -1  -1 -14    0.04    1.88
  -1  -1 -14   -1.63    3.33
   1   1  15    0.23    1.65
  -1  -1 -15   -0.56    2.00
   1   1  15    1.22    3.00
  -1  -1 -16   12.69    7.28
  -1  -1 -17    5.04    4.68
  -1  -1 -18    0.86    4.15
  -1  -1 -19    0.98    3.75
  -1  -2  21    0.42    2.10
  -1  -2  20    2.75    3.64
  -1  -2  19    2.12    3.77
  -1  -2  18   -1.18    2.24
  -1  -2  17    3.28    4.87
  -1  -2  16   18.04    7.67
  -1  -2  15    2.78    2.43
  -1  -2  14  188.16   24.06
  -1  -2  13  272.05   27.68
   1   2 -12   10.66    3.32
  -1  -2  12   21.01    7.42
   1   2 -11   31.91    5.29
  -1  -2  11   31.35    8.98
  -1  -2  10   -0.33    0.67
   1   2 -10   -0.41    0.62
  -1  -2  10    0.48    3.11
  -1  -2   9    9.41    2.17
   1   2  -9   11.65    3.29
  -1  -2   9   13.41    5.41
  -1  -2   8   83.46    6.22
  -1  -2   8  155.17   16.26
   1   2  -8  132.20   10.40
  -1  -2   7    8.50    1.82
   1   2  -7   15.60    3.37
  -1  -2   7   16.57    4.76
   1   2  -6  315.37   13.04
  -1  -2   6  321.15   20.87
  -1  -2   6  323.66   12.68
  -1  -2   5  966.37   33.50
  -1  -2   5  965.54   22.81
   1   2  -5 1041.55   24.65
   1   2  -5 1039.56   36.76
  -1  -2   4  114.26    8.23
   1   2  -4  127.89   11.99
  -1  -2   4  121.51   10.95
   1   2  -4  144.17    9.73
  -1  -2   3  391.33   17.76
   1   2  -3  412.02   16.90
  -1  -2   2  592.10   19.35
   1   2  -2  581.61   20.86
   1   2  -1 3457.82   54.53
  -1  -2   1 3518.26   40.94
   1   2   0  671.92   25.73
  -1  -2   0  655.22   14.54
   1   2   1    1.95    1.89
   1   2   2   17.22    4.66
  -1  -2  -3   31.10    7.40
   1   2   3   28.64    6.56
  -1  -2  -3   28.01    6.14
  -1  -2  -4   30.38    7.71
   1   2   4   24.72    3.29
  -1  -2  -4   23.95    5.69
   1   2   4   27.44    6.78
  -1  -2  -5   59.95    9.41
  -1  -2  -5   80.35   12.29
   1   2   5   61.96   10.86
   1   2   5   51.16    5.71
  -1  -2  -6   56.50   10.72
   1   2   6   49.83    9.95
  -1  -2  -6   58.77    9.74
  -1  -2  -6   37.09    3.45
   1   2   6   45.09    6.32
   1   2   7    4.79    2.94
  -1  -2  -7    3.42    1.19
  -1  -2  -7    9.30    3.94
  -1  -2  -7    4.34    2.97
   1   2   7    4.16    2.34
  -1  -2  -8    5.43    1.74
  -1  -2  -8    6.08    3.83
   1   2   8   11.83    5.09
  -1  -2  -8    8.16    3.76
   1   2   8    8.84    3.68
   1   2   9   23.80    8.01
  -1  -2  -9   23.11    7.49
  -1  -2  -9   26.28    7.37
   1   2   9   20.36    5.91
   1   2  10    6.59    4.36
  -1  -2 -10    5.94    4.45
   1   2  10    5.17    3.76
   1   2  11   -0.54    1.19
  -1  -2 -11    9.88    5.47
   1   2  11    1.93    2.42
   1   2  12    4.29    4.05
  -1  -2 -12    7.27    4.64
   1   2  12    7.66    5.06
  -1  -2 -13    4.16    3.91
   1   2  13    5.65    4.63
   1   2  13    4.03    3.80
  -1  -2 -14   -1.30    2.03
   1   2  14    3.45    3.50
  -1  -2 -15    1.60    2.32
   1   2  15   -1.34    1.97
  -1  -2 -16    4.25    3.82
  -1  -2 -17    1.16    2.84
  -1  -2 -18   -0.05    0.42
  -1  -3  21   -3.97    4.84
  -1  -3  20   -2.53    3.65
  -1  -3  19   22.77   11.26
  -1  -3  18    1.80    1.58
  -1  -3  17    4.11    4.89
  -1  -3  16   -6.95    5.10
  -1  -3  15   21.39    9.10
  -1  -3  14    6.36    5.42
  -1  -3  13   13.36    6.57
   1   3 -12    5.56    2.58
  -1  -3  12    3.86    4.63
   1   3 -11   14.66    4.87
  -1  -3  11   15.82    5.90
   1   3 -10    3.47    3.38
  -1  -3  10    4.64    3.94
  -1  -3   9    4.77    2.81
   1   3  -9    4.87    2.75
   1   3  -8   14.28    4.34
  -1  -3   8   17.04    6.45
  -1  -3   7 1056.33   42.58
   1   3  -7 1022.64   43.36
   1   3  -7  892.39   29.46
   1   3  -6  102.33   13.29
  -1  -3   6  108.94   12.71
   1   3  -6  112.65   10.43
  -1  -3   5   79.68   10.45
   1   3  -5   80.49   10.87
   1   3  -5   78.73    8.77
   1   3  -4  365.78   19.27
   1   3  -4  314.22   20.94
  -1  -3   4  348.18   19.78
  -1  -3   3  343.38   17.93
   1   3  -3  339.70   18.73
  -1  -3   2   93.43    8.52
   1   3  -2   84.20    9.65
   1   3  -1    0.39    0.90
  -1  -3   1   -0.14    0.92
  -1  -3   0  575.91   15.01
   1   3   0  543.92   25.93
   1   3   1  328.66   21.02
   1   3   2  135.67    9.02
   1   3   2  272.32   20.17
   1   3   3    2.20    2.14
   1   3   3    0.73    0.69
  -1  -3  -4   31.28    9.08
   1   3   4   25.87    6.91
   1   3   5    3.30    2.61
  -1  -3  -5    4.41    3.92
   1   3   5    3.48    1.14
  -1  -3  -6    7.79    5.09
   1   3   6    5.56    3.87
   1   3   6    1.99    1.65
   1   3   7   12.07    3.74
  -1  -3  -7    5.22    1.60
   1   3   7   12.68    5.24
  -1  -3  -7   17.96    7.00
  -1  -3  -8    0.24    0.41
   1   3   8    0.13    1.65
   1   3   8    0.23    0.27
  -1  -3  -8    1.65    0.87
  -1  -3  -9   11.69    5.57
   1   3   9   12.71    5.63
   1   3   9    5.88    3.07
   1   3  10    9.33    4.60
   1   3  10   25.35    8.43
  -1  -3 -10   17.93    8.75
   1   3  11   36.22   10.34
  -1  -3 -11   25.06    9.25
   1   3  12   14.43    7.02
  -1  -3 -12   15.65    8.09
   1   3  13    1.70    2.49
  -1  -3 -13    0.14    0.81
   1   3  14   -7.37    4.93
  -1  -3 -14   -2.06    2.66
   1   3  15    0.99    3.90
  -1  -3 -15    3.59    5.11
  -1  -3 -16    0.31    0.93
  -1  -3 -17    0.47    1.45
  -1  -4  21   -4.50    5.26
  -1  -4  20    0.24    3.43
  -1  -4  19   -1.11    2.39
  -1  -4  18    1.12    4.87
  -1  -4  17   -1.77    3.44
  -1  -4  16   -0.74    4.25
  -1  -4  15    0.61    3.61
  -1  -4  14   -0.10    1.55
   1   4 -13    1.65    1.53
  -1  -4  13   -0.66    2.14
   1   4 -12    1.03    0.62
  -1  -4  12    4.07    3.36
  -1  -4  11   -0.36    3.44
   1   4 -11    0.65    2.27
  -1  -4  10   86.18   15.41
   1   4 -10   79.08   12.27
   1   4  -9    0.71    2.18
  -1  -4   9    2.39    0.63
   1   4  -8   -0.83    0.86
  -1  -4   8    2.40    2.03
   1   4  -8    0.86    2.20
  -1  -4   7  149.37   17.10
   1   4  -7  147.42   17.17
   1   4  -7  108.70   12.48
   1   4  -6    4.15    0.98
   1   4  -6    9.77    4.83
  -1  -4   6    3.88    1.93
   1   4  -5    3.26    2.42
   1   4  -5    1.66    1.74
  -1  -4   5    0.79    3.17
  -1  -4   4   63.71    9.32
   1   4  -4   60.36    9.02
   1   4  -3  229.78   17.68
   1   4  -2   35.07    6.84
   1   4  -1   70.93   10.03
   1   4   0  528.80   28.23
   1   4   1  496.10   28.35
   1   4   2   19.43    5.97
   1   4   3   80.52   12.33
   1   4   4   58.22   11.02
  -1  -4  -5   24.01    8.64
   1   4   5   11.56    4.99
  -1  -4  -6   97.96   16.67
   1   4   6   84.76   14.15
   1   4   7   10.96    5.71
  -1  -4  -7    0.61    0.91
   1   4   8   75.27   14.03
  -1  -4  -8   75.18   15.78
   1   4   9  368.67   32.60
  -1  -4  -9  418.31   35.84
   1   4  10    1.19    1.93
  -1  -4 -10    1.74    1.01
  -1  -4 -11   32.87   11.22
   1   4  11   23.72    9.36
   1   4  12    1.37    3.57
  -1  -4 -12    3.01    2.57
   1   4  13    0.73    3.09
  -1  -4 -13   -5.45    4.49
   1   4  14   -2.72    1.99
  -1  -4 -14   -4.30    4.11
   1   4  15    1.53    3.53
  -1  -4 -15   -4.98    4.57
  -1  -4 -16   -1.51    2.59
  -1  -4 -17    5.06    6.71
  -1  -5  21    0.01    3.35
  -1  -5  20    0.53    5.61
  -1  -5  19    1.16    2.04
  -1  -5  18   -1.29    4.43
  -1  -5  17   -2.32    2.88
  -1  -5  16    4.97    4.40
  -1  -5  15    4.27    7.42
  -1  -5  14   -1.62    3.98
   1   5 -13    1.04    2.77
  -1  -5  13   -4.36    3.09
  -1  -5  12    0.27    3.41
   1   5 -12   -2.32    2.91
  -1  -5  11   15.72    7.02
   1   5 -11    7.74    4.97
   1   5 -10    3.98    3.15
  -1  -5  10    6.62    5.44
   1   5  -9   31.50    9.90
   1   5  -9   25.15    7.04
  -1  -5   9   33.45    9.69
   1   5  -8   12.48    4.70
  -1  -5   8   18.72    7.96
   1   5  -8   16.36    6.30
   1   5  -7   -2.56    3.57
   1   5  -7    0.22    1.40
  -1  -5   7    1.73    2.99
   1   5  -6    6.80    3.20
   1   5  -6   10.81    4.18
   1   5  -5    8.25    4.45
   1   5  -5    9.58    4.97
   1   5  -4    0.75    0.72
   1   5  -3   14.90    5.11
   1   5  -2   87.53   11.98
   1   5  -1    4.22    2.38
   1   5   0   36.15    7.98
   1   5   1    7.49    3.68
  -1  -5  -2   76.13    5.56
   1   5   2  150.20   17.35
   1   5   3   54.88   10.70
   1   5   4    1.67    2.11
   1   5   5   56.28   11.56
   1   5   6    1.32    1.61
  -1  -5  -7  125.19   20.82
   1   5   7  119.04   17.75
   1   5   8   16.73    6.66
  -1  -5  -8   17.34    8.46
  -1  -5  -9  113.18   20.53
   1   5   9   84.68   15.72
   1   5  10   20.98    8.20
  -1  -5 -10   25.45   10.33
  -1  -5 -11    9.80    7.03
   1   5  11   14.71    6.79
   1   5  12    1.99    3.29
  -1  -5 -12    1.84    3.16
   1   5  13    0.80    1.59
  -1  -5 -13    3.37    4.63
   1   5  14    1.27    2.45
  -1  -5 -14    5.09    6.07
   1   5  15    3.69    4.66
  -1  -5 -15    7.28    7.12
  -1  -5 -16    3.83    4.51
  -1  -6  20    4.90    6.83
  -1  -6  19   -7.99    7.23
  -1  -6  18   -0.20    2.21
  -1  -6  17    2.76    4.26
  -1  -6  16    0.46    2.91
  -1  -6  15   -7.73    6.59
  -1  -6  14    6.53    4.25
   1   6 -13    3.15    3.25
  -1  -6  13    1.89    3.24
   1   6 -12    8.18    5.54
  -1  -6  12    4.22    4.48
  -1  -6  11    2.18    2.97
   1   6 -11   -0.42    1.37
   1   6 -10    8.83    5.26
  -1  -6  10   11.18    6.35
   1   6 -10    6.34    3.72
  -1  -6   9   -0.95    2.77
   1   6  -9   -0.89    0.34
   1   6  -9    2.83    1.99
   1   6  -8    1.40    0.70
  -1  -6   8   -2.94    2.41
   1   6  -8   -0.24    1.71
   1   6  -7    2.12    1.46
   1   6  -7    9.66    4.97
   1   6  -6    7.23    4.44
   1   6  -6    2.02    3.64
   1   6  -5   11.40    5.63
   1   6  -4   -0.87    1.76
   1   6  -3    2.34    0.62
   1   6  -2   20.25    6.44
   1   6  -1   26.04    7.44
   1   6   0    4.69    3.63
   1   6   1    5.63    3.64
   1   6   2    2.22    2.11
   1   6   3   40.19   10.02
   1   6   4    3.77    3.08
   1   6   5   18.53    6.73
   1   6   6    5.23    4.06
   1   6   7    0.50    1.67
   1   6   8    2.87    2.26
   1   6   9    0.27    1.81
  -1  -6  -9    1.01    2.97
   1   6  10    1.36    0.81
  -1  -6 -10    0.21    3.41
  -1  -6 -11    1.21    1.45
   1   6  11   -2.79    3.36
  -1  -6 -12   -3.73    4.01
   1   6  12   10.21    5.59
   1   6  13   -4.31    4.65
  -1  -6 -13   -8.04    6.02
   1   6  14    2.70    3.12
  -1  -6 -14    3.13    6.11
  -1  -6 -15   -5.87    5.40
   1   6  15   -1.42    1.90
  -1  -7  19   -3.24    4.94
  -1  -7  18    0.60    5.26
  -1  -7  17   -1.30    5.40
  -1  -7  16   13.53    9.66
  -1  -7  15    4.55    5.55
  -1  -7  14   16.63    9.29
  -1  -7  13    5.35    6.99
   1   7 -13    2.61    1.95
   1   7 -12    1.02    3.97
  -1  -7  12   -1.98    3.98
   1   7 -11   -1.27    1.98
  -1  -7  11    3.91    2.75
   1   7 -10    8.64    4.84
  -1  -7  10    7.29    5.57
   1   7 -10    5.04    3.57
  -1  -7   9   27.88   11.53
   1   7  -9   22.02    7.74
   1   7  -9   29.12    9.15
   1   7  -8  297.28   27.84
   1   7  -8  272.05   25.19
   1   7  -7   67.57   12.70
   1   7  -7   65.19   12.42
   1   7  -6    2.88    2.47
   1   7  -6    1.63    3.72
   1   7  -5   29.36    8.14
   1   7  -4   -3.25    2.54
   1   7  -3   16.70    6.52
   1   7  -2    5.46    3.94
   1   7  -1   -1.58    3.35
   1   7   0   -0.07    0.50
   1   7   1    1.93    2.38
   1   7   2   31.16    8.70
   1   7   3    2.55    1.28
   1   7   4    0.90    3.20
   1   7   5    2.21    1.09
   1   7   6    8.49    5.65
   1   7   7    4.00    5.07
   1   7   8    7.56    4.86
   1   7   9    4.29    4.49
   1   7  10   -5.57    5.20
   1   7  11   -1.83    3.00
   1   7  12   -0.48    3.08
   1   7  13    3.76    4.22
   1   7  14    2.76    1.54
  -1  -8  19    0.18    5.76
  -1  -8  18    4.69    6.98
  -1  -8  17    3.88    6.09
  -1  -8  16    6.40    6.22
  -1  -8  15   -2.45    0.57
  -1  -8  14   -1.15    6.52
   1   8 -13    3.53    4.56
  -1  -8  13    3.40    3.93
  -1  -8  12   -2.88    4.54
   1   8 -12    0.71    0.25
   1   8 -11    5.20    3.55
   1   8 -11    5.81    5.02
   1   8 -11    5.17    4.41
  -1  -8  11    5.61    7.31
   1   8 -10    5.47    4.60
   1   8 -10    1.45    2.89
  -1  -8  10    3.81    4.82
  -1  -8   9  178.33   28.54
   1   8  -9  112.33   18.19
   1   8  -9  103.57   17.17
   1   8  -8   -0.66    1.41
   1   8  -8    0.79    3.74
   1   8  -7  153.75   20.59
   1   8  -7  191.58   21.75
   1   8  -6  176.60   20.81
   1   8  -6  151.30   19.51
   1   8  -5   31.71    8.89
   1   8  -4    6.02    3.94
   1   8  -3    4.32    2.68
   1   8  -2   10.38    5.96
   1   8  -1   55.34   12.01
   1   8   0   15.22    6.76
   1   8   1   21.89    8.02
   1   8   2   19.04    7.15
   1   8   3   -0.15    2.46
   1   8   4   -0.23    1.11
   1   8   5    4.58    4.68
   1   8   6    4.60    3.92
   1   8   7    1.83    0.66
   1   8   8   -0.44    2.17
   1   8   9   -1.20    1.47
   1   8  10   -1.11    3.27
   1   8  11   -4.14    4.54
   1   8  12    1.42    2.57
   1   8  13    0.74    3.24
  -1  -9  18    2.80    6.35
  -1  -9  17   -4.28    6.20
  -1  -9  16    0.62    5.25
  -1  -9  15   -6.51    7.09
  -1  -9  14    0.27    1.41
   1   9 -13   -4.86    4.52
  -1  -9  13   -4.93    5.73
   1   9 -12   25.61   10.36
  -1  -9  12   33.69   15.22
   1   9 -11    4.47    2.24
   1   9 -11   -0.93    1.17
  -1  -9  11    2.60    1.59
   1   9 -10    0.74    2.70
  -1  -9  10    2.03    3.12
   1   9 -10    3.68    5.10
   1   9  -9    3.78    4.02
  -1  -9   9   -1.03    3.21
   1   9  -9    3.51    4.11
   1   9  -8    5.62    4.44
   1   9  -8    4.97    4.81
   1   9  -7    2.94    2.07
   1   9  -7    2.18    2.38
   1   9  -6   -3.02    4.18
   1   9  -6   -1.04    3.01
   1   9  -5    5.48    4.01
   1   9  -4    6.93    4.72
   1   9  -3    1.48    2.64
   1   9  -2   15.08    6.86
   1   9  -1    4.29    2.85
   1   9   0   18.27    8.26
   1   9   1    4.05    2.15
   1   9   2   -0.87    1.99
   1   9   3    1.13    1.45
   1   9   4    2.54    3.80
   1   9   5    2.18    4.06
   1   9   6   -1.27    0.86
   1   9   7    5.07    3.72
   1   9   8   -0.26    1.80
   1   9   9    1.18    3.13
   1   9  10    0.68    2.23
   1   9  11   -2.57    1.80
  -1 -10  17    7.55   11.40
  -1 -10  16   -1.52    3.80
  -1 -10  15   -7.27    8.02
  -1 -10  14  -11.06    9.53
   1  10 -13    3.32    1.81
  -1 -10  13   16.84   12.54
   1  10 -12   -0.43    2.52
  -1 -10  12    0.03    2.05
   1  10 -11    4.33    4.93
  -1 -10  11    3.05    4.72
   1  10 -11    8.18    5.47
  -1 -10  10   17.75   11.02
   1  10 -10   15.64    7.45
   1  10 -10   14.87    8.11
  -1 -10   9    3.19    6.17
   1  10  -9    3.59    3.18
   1  10  -9    0.95    3.24
   1  10  -8   -2.14    1.72
   1  10  -8    0.15    0.75
   1  10  -7   -4.26    3.42
   1  10  -7    2.43    1.97
   1  10  -6   -0.20    0.41
   1  10  -6    3.94    3.49
   1  10  -5   -2.80    2.52
   1  10  -4    2.77    2.57
   1  10  -3   -1.74    3.10
   1  10  -2   -3.31    3.67
   1  10  -1    0.65    1.14
   1  10   0    8.91    6.06
   1  10   1    7.05    4.57
   1  10   2   -0.91    3.28
   1  10   3   89.96   18.12
   1  10   4   -0.75    1.58
   1  10   5    4.03    3.67
   1  10   6    3.68    5.29
   1  10   7    5.59    6.80
   1  10   8    1.55    3.33
  -1 -11  16    1.92    8.20
  -1 -11  15   -1.45    3.79
  -1 -11  14    0.94    1.00
   1  11 -13    2.81    4.83
  -1 -11  13    3.97    6.75
   1  11 -12    3.28    3.10
   1  11 -12    2.36    2.77
  -1 -11  12    4.32    6.01
   1  11 -11    1.83    2.32
  -1 -11  11   -3.76    6.58
   1  11 -11    5.57    5.75
  -1 -11  10   -0.18    1.20
   1  11 -10   -3.04    3.43
   1  11 -10    0.93    2.27
   1  11  -9    2.76    3.65
   1  11  -9   -0.49    1.97
  -1 -11   9    2.04    2.87
   1  11  -8   -2.69    4.38
   1  11  -8    2.00    2.74
  -1 -11   8   -0.08    2.37
   1  11  -7   -1.84    2.72
   1  11  -7   -2.15    3.25
   1  11  -6    0.56    3.09
   1  11  -6    0.72    2.32
   1  11  -5    6.67    5.73
   1  11  -4   -3.08    5.06
   1  11  -3   -0.02    3.00
   1  11  -2    9.32    6.60
   1  11  -1    4.28    4.88
   1  11   0   -0.75    3.96
   1  11   1    2.25    1.48
   1  11   2   -0.46    2.24
   1  11   3    6.72    4.87
   1  11   4    1.14    2.06
   1  11   5    3.49    5.46
   1  11   6    1.13    3.26
  -1 -12  14    4.80    6.92
   1  12 -13   -1.09    1.17
  -1 -12  13    0.01    3.62
   1  12 -12    4.04    5.05
  -1 -12  12   -2.73    4.78
   1  12 -11   -3.77    4.17
   1  12 -11   -1.23    2.89
  -1 -12  11    2.32    5.86
   1  12 -10   -1.01    3.33
   1  12 -10   -0.32    1.42
   1  12  -9    0.70    2.15
   1  12  -9    3.43    4.77
   1  12  -8   -0.68    2.66
   1  12  -8   -2.94    3.12
   1  12  -7    2.08    2.97
   1  12  -7   -1.23    2.85
   1  12  -6   -0.49    2.32
   1  12  -6   -0.71    2.03
   1  12  -5    1.38    3.06
   1  12  -5    1.44    1.33
   1  12  -4    5.35    4.76
   1  12  -3    3.96    4.79
   1  12  -2    1.63    2.71
   1  12  -1   -0.68    3.88
   1  12   0    0.56    1.96
   1  12   1    3.12    2.40
   1  12   2   -5.92    5.35
   1  13 -13   -1.09    3.64
   1  13 -12    1.17    5.42
   1  13 -11   -1.06    1.78
   1  13 -10    2.65    3.26
   1  13  -9    1.01    2.15
   1  13  -9    5.76    4.57
   1  13  -8    1.83    2.61
   1  13  -8   -1.88    3.18
   1  13  -7   -0.25    1.49
   1  13  -7   -2.37    4.52
   1  13  -6    0.64    1.73
   1  13  -6   -0.33    2.51
   1  13  -5   -1.93    3.96
   1  13  -5   -2.70    4.16
   1  13  -4    1.12    1.93
   1  13  -4    2.20    2.14
   1  13  -3   11.03   10.85
  -2  13   1    2.58    4.19
  -2  13   0    2.94    2.69
  -2  13  -1    0.88    2.94
  -2  13  -1    0.33    1.69
  -2  13  -2   -3.02    3.98
  -2  13  -2    0.08    3.31
  -2  13  -3    4.76    6.07
  -2  13  -3    6.87    5.22
  -2  13  -4    0.47    2.17
  -2  13  -5    5.30    6.01
  -2  13  -6    5.27    5.72
  -2  13  -7   11.40    6.83
  -2  13  -8    2.48    5.29
  -2  13  -9    0.61    0.92
  -2  13 -10    0.57    0.55
  -2  12   6    2.95    4.16
  -2  12   5    1.05    2.79
  -2  12   4   -2.33    4.74
  -2  12   3   -1.45    3.01
  -2  12   2   -1.85    2.23
  -2  12   1    1.35    2.50
  -2  12   0   -1.72    3.74
  -2  12  -1   10.44    6.58
  -2  12  -2   -0.30    3.48
  -2  12  -2    0.85    1.63
  -2  12  -3   -2.28    2.89
  -2  12  -3   -0.25    2.46
  -2  12  -4   -0.34    3.39
  -2  12  -4   -1.62    3.43
  -2  12  -5    0.47    4.11
  -2  12  -6   -0.05    2.30
  -2  12  -7    6.28    7.02
  -2  12  -8    5.32    6.51
  -2  12  -9    1.35    1.92
  -2  12 -10   -6.45    7.67
  -2  12 -11    0.86    6.21
  -2  12 -12    2.67    4.99
  -2  12 -13    3.95    5.97
  -2  12 -14   13.66   12.72
  -2  11   9   -1.07    1.86
  -2  11   8    0.27    3.69
  -2  11   7   -2.03    2.34
  -2  11   6   -2.12    2.99
  -2  11   5    1.75    2.91
  -2  11   4    2.97    2.01
  -2  11   3    2.44    2.00
  -2  11   2   -1.00    0.49
  -2  11   1   -1.49    3.11
  -2  11   0    2.35    3.02
  -2  11  -1    0.44    1.99
  -2  11  -2   -0.36    3.34
  -2  11  -2    7.57    4.47
  -2  11  -3    2.69    5.02
  -2  11  -3   -3.53    4.35
  -2  11  -4   -1.20    0.97
  -2  11  -4   -2.30    2.30
  -2  11  -5   -2.30    3.06
  -2  11  -6    1.23    3.46
  -2  11  -7   -0.49    2.01
  -2  11  -8   -1.08    0.83
  -2  11  -9    3.60    3.39
  -2  11 -10   -2.56    5.01
  -2  11 -11    2.14    4.95
  -2  11 -12   -2.73    4.25
  -2  11 -13    0.84    3.26
  -2  11 -14    0.55    6.10
  -2  11 -15    1.70    6.58
  -2  11 -16   95.18   25.94
  -2  11 -17    2.86    7.00
  -2  10   9   -0.90    2.67
  -2  10   8   12.16    6.02
  -2  10   7   -1.13    2.44
  -2  10   6   -0.99    3.89
  -2  10   5    1.29    2.06
  -2  10   4   -0.74    0.93
  -2  10   3   -2.82    2.29
  -2  10   2    0.43    1.86
  -2  10   1    0.90    0.33
  -2  10   0    4.11    4.69
  -2  10  -1    2.29    2.47
  -2  10  -2    2.54    4.47
  -2  10  -2    8.27    5.34
  -2  10  -3    1.50    1.26
  -2  10  -3   -1.53    2.94
  -2  10  -4   -4.15    4.28
  -2  10  -4   -2.33    2.54
  -2  10  -5    4.74    5.82
  -2  10  -6   -3.18    4.49
  -2  10  -7    0.53    0.93
  -2  10  -8    3.79    4.37
  -2  10  -9    3.68    1.51
  -2  10 -10   -1.07    4.27
  -2  10 -11   -5.32    7.48
  -2  10 -12   -3.41    6.40
  -2  10 -13   -4.14    8.28
  -2  10 -14   -1.22    6.50
  -2  10 -15   -4.56    6.89
  -2  10 -16    0.08    1.42
  -2  10 -17    0.25    2.87
  -2  10 -18    0.24    7.05
   2  -9 -10    1.40    2.89
   2  -9  -9    2.21    4.88
   2  -9  -9    0.56    3.64
  -2   9   9   -0.34    0.62
   2  -9  -8   11.16    5.86
  -2   9   8   29.86    9.29
   2  -9  -7    0.35    0.89
  -2   9   7   -1.30    1.82
   2  -9  -6   -1.77    4.93
  -2   9   6    2.49    2.37
   2  -9  -5    2.75    3.90
  -2   9   5    4.27    3.04
  -2   9   4   -0.73    1.83
  -2   9   3   27.09    8.93
  -2   9   2   31.34    9.53
  -2   9   1    4.64    3.99
  -2   9   0   99.48   17.36
  -2   9  -1   33.16   10.45
  -2   9  -2    4.12    2.21
  -2   9  -2    5.11    4.13
  -2   9  -3   10.17    6.51
  -2   9  -3   11.18    6.08
  -2   9  -4   24.35    9.94
  -2   9  -5    7.48    6.66
  -2   9  -6   -0.98    0.90
  -2   9  -7    5.67    4.61
  -2   9  -8   -2.25    3.39
  -2   9  -9    2.42    5.63
  -2   9 -10    4.54    3.41
  -2   9 -11    0.65    2.48
  -2   9 -12   -0.65    3.83
  -2   9 -13    0.68    1.57
  -2   9 -14    0.05    2.69
  -2   9 -15    5.44    8.98
  -2   9 -16   26.85   12.54
  -2   9 -17   -7.74    7.79
  -2   9 -18   -1.56    5.93
   2  -8 -15    0.27    1.17
   2  -8 -14    3.36    5.60
   2  -8 -13    0.88    2.75
   2  -8 -12    3.31    4.09
   2  -8 -11    3.75    5.10
   2  -8 -11    0.29    3.13
   2  -8 -10    5.36    5.03
  -2   8  10   -0.99    0.69
   2  -8 -10    5.70    5.00
   2  -8  -9   -0.84    1.65
  -2   8   9   -0.48    2.02
   2  -8  -9   -7.91    4.84
   2  -8  -8    0.59    1.41
   2  -8  -8   -1.19    1.27
   2  -8  -7    2.08    3.86
   2  -8  -7    0.08    2.69
  -2   8   7    0.64    2.16
   2  -8  -6   -0.07    1.19
   2  -8  -6    1.33    3.48
  -2   8   6   -1.26    2.12
  -2   8   5   -0.22    1.29
   2  -8  -5   -0.03    2.30
   2  -8  -4   -0.42    2.73
  -2   8   4    2.09    3.00
   2  -8  -3   66.89   14.03
  -2   8   3   69.66   12.94
   2  -8  -2  144.38   21.34
  -2   8   2  153.84   19.53
  -2   8   1  153.71   19.69
  -2   8   0   -1.83    2.02
  -2   8  -1   16.85    6.92
  -2   8  -2    0.05    2.93
  -2   8  -2    2.42    3.39
  -2   8  -3    0.35    2.24
  -2   8  -3   -4.18    4.94
  -2   8  -4   27.60   10.40
  -2   8  -5    6.50    6.87
  -2   8  -6    0.92    3.15
  -2   8  -7   70.24   18.18
  -2   8  -8    4.78    6.69
  -2   8  -9    4.42    6.74
  -2   8 -10    6.46    6.09
  -2   8 -11   -0.52    2.44
  -2   8 -12   18.29    8.94
  -2   8 -13   -2.78    6.22
  -2   8 -14    5.10    4.26
  -2   8 -15   -5.19    7.92
  -2   8 -16   -2.28    6.87
  -2   8 -17    1.84    3.13
  -2   8 -18    1.45    4.96
   2  -7 -16    2.43    3.24
   2  -7 -15    0.41    1.48
   2  -7 -14   -3.00    3.53
   2  -7 -13   -2.87    3.34
   2  -7 -12    0.66    2.28
   2  -7 -12   -3.05    3.33
   2  -7 -11   -0.27    0.94
   2  -7 -11    3.07    3.31
   2  -7 -10    1.27    2.13
   2  -7 -10   -0.83    1.62
  -2   7  10    1.15    0.54
  -2   7   9   -0.92    1.68
   2  -7  -9   -0.67    2.18
   2  -7  -9   -9.61    5.50
   2  -7  -8    2.14    3.18
   2  -7  -8    3.77    3.95
  -2   7   8    3.17    2.09
   2  -7  -7    0.71    1.17
   2  -7  -7   -3.38    3.05
  -2   7   7    8.52    3.03
   2  -7  -6    1.14    2.49
   2  -7  -6    0.75    0.54
  -2   7   6   17.49    7.32
   2  -7  -5   45.42   11.36
   2  -7  -5   36.28   10.28
  -2   7   5   44.05    9.71
   2  -7  -4   10.29    5.10
   2  -7  -4    9.17    5.79
  -2   7   4    7.06    3.89
   2  -7  -3    4.67    3.24
  -2   7   3    1.87    1.11
   2  -7  -2   58.92   12.79
  -2   7   2   64.26   11.94
   2  -7  -1   24.04    8.62
  -2   7   1   32.43    8.81
  -2   7   0   43.07   10.34
  -2   7  -1    2.41    1.17
  -2   7  -1    3.82    3.62
  -2   7  -1    1.54    2.11
  -2   7  -2   13.68    6.42
  -2   7  -2    4.92    1.53
  -2   7  -2   13.16    6.16
  -2   7  -3    0.97    1.39
  -2   7  -4    1.84    2.16
  -2   7  -5    5.63    5.72
  -2   7  -6   31.36   10.74
  -2   7  -7    2.35    4.86
  -2   7  -8   16.53    8.65
  -2   7  -9    4.94    4.67
  -2   7 -10   18.54    9.55
  -2   7 -11    3.03    3.47
  -2   7 -12    2.07    2.37
  -2   7 -13   -1.07    6.42
  -2   7 -14   12.58    9.10
  -2   7 -15   -4.06    4.23
  -2   7 -16    6.78    7.56
  -2   7 -17   -1.71    5.50
  -2   7 -18    2.10    3.80
   2  -7  19   -2.07    5.21
   2  -6 -16    0.43    1.63
   2  -6 -15   -0.15    2.01
   2  -6 -14    2.75    3.47
   2  -6 -13   -0.48    1.30
   2  -6 -13    4.03    2.56
   2  -6 -12    2.31    2.50
   2  -6 -12    5.03    4.61
   2  -6 -11   10.56    6.38
   2  -6 -11    7.59    5.28
   2  -6 -10    3.91    3.09
   2  -6 -10   -0.69    1.39
  -2   6  10    4.39    2.79
   2  -6  -9   -0.47    2.23
   2  -6  -9   -0.20    1.27
  -2   6   9    0.29    2.10
   2  -6  -8   18.48    7.11
   2  -6  -8   17.19    6.95
  -2   6   8   17.21    5.56
   2  -6  -7   -0.58    1.30
   2  -6  -7    0.05    2.18
  -2   6   7    3.78    2.13
  -2   6   6    4.39    3.53
   2  -6  -6   -0.90    2.26
   2  -6  -6    0.32    0.56
   2  -6  -5   15.12    6.71
   2  -6  -5   11.38    4.88
  -2   6   5   16.81    5.51
   2  -6  -4   74.60   13.47
   2  -6  -4   69.95   11.59
  -2   6   4   84.51   12.50
   2  -6  -3   39.90    8.30
   2  -6  -3   45.46   10.98
  -2   6   3   37.50    8.62
   2  -6  -2   58.30   12.84
  -2   6   2   51.89   10.21
   2  -6  -1    3.05    3.37
  -2   6   1    1.10    2.85
  -2   6   0    5.69    4.52
   2  -6   0    4.83    4.29
  -2   6   0    6.18    3.07
  -2   6  -1   12.32    5.63
   2  -6   1   12.59    5.92
  -2   6  -1   12.59    5.25
  -2   6  -1    7.08    1.56
  -2   6  -2    1.00    2.58
  -2   6  -3    6.91    3.54
  -2   6  -4    0.46    0.46
  -2   6  -4   -1.10    1.81
  -2   6  -5    2.21    0.09
  -2   6  -6    7.94    5.16
  -2   6  -7   28.15   10.42
  -2   6  -8   14.18    7.79
  -2   6  -9    5.64    4.15
  -2   6 -10    6.58    6.52
  -2   6 -11    9.50    7.17
  -2   6 -12    3.84    4.17
  -2   6 -13   11.18    8.19
  -2   6 -14    7.52    6.66
  -2   6 -15   -0.50    3.48
  -2   6 -16    4.20    5.69
  -2   6 -17   -3.02    5.44
  -2   6 -18    0.34    6.03
   2  -6  18   11.42   13.38
   2  -6  19   -3.47    6.03
   2  -6  20   -3.36    6.05
   2  -5 -17   11.35    8.22
  -2   5  16   -1.83    3.08
   2  -5 -16   -2.82    2.28
   2  -5 -15    8.08    5.96
   2  -5 -15    2.87    4.11
  -2   5  15    1.51    4.51
   2  -5 -14    2.53    4.41
  -2   5  14   -6.46    5.43
   2  -5 -14    0.44    2.08
   2  -5 -13    2.13    2.41
  -2   5  13   -1.25    2.31
   2  -5 -13    0.09    2.66
   2  -5 -12    7.97    4.93
  -2   5  12   10.85    7.51
   2  -5 -12    3.26    4.32
   2  -5 -11    1.90    2.13
  -2   5  11    3.58    4.19
   2  -5 -11    4.29    4.93
   2  -5 -10    2.92    2.26
   2  -5 -10    2.17    0.67
  -2   5  10    5.44    4.15
  -2   5  10    3.14    2.77
   2  -5  -9   92.33   15.47
  -2   5   9   98.94   17.80
   2  -5  -9   70.72   13.77
  -2   5   9   77.36   11.23
   2  -5  -8    4.40    3.01
   2  -5  -8    2.55    2.24
  -2   5   8    1.51    1.59
   2  -5  -7    0.64    2.41
   2  -5  -7    0.16    1.62
  -2   5   7   -0.55    1.03
   2  -5  -6    4.05    3.19
   2  -5  -6    3.01    2.05
  -2   5   6    2.36    1.96
   2  -5  -5   45.61   10.03
   2  -5  -5   25.56    6.73
  -2   5   5   37.16    7.51
   2  -5  -4    0.56    2.61
  -2   5   4    1.59    2.30
   2  -5  -4   -1.93    1.65
   2  -5  -3    2.15    2.24
   2  -5  -3    3.55    2.55
  -2   5   3    4.20    2.11
   2  -5  -2   59.44   11.37
   2  -5  -2   63.54    8.53
  -2   5   2   55.62    9.79
  -2   5   1   -1.53    1.47
  -2   5   1   -0.57    1.58
   2  -5  -1    2.85    3.23
  -2   5   0    8.86    5.04
   2  -5   0   11.29    4.99
  -2   5   0   13.41    5.41
  -2   5  -1   67.49   12.22
   2  -5   1   73.02   13.42
  -2   5  -2    7.84    4.01
  -2   5  -3   -2.64    3.06
  -2   5  -4    1.92    1.52
  -2   5  -5    4.14    1.25
  -2   5  -6    1.29    1.76
  -2   5  -7    3.54    3.67
  -2   5  -8  162.09   22.87
  -2   5  -9   65.44   15.34
  -2   5 -10   10.62    7.12
  -2   5 -11    3.79    3.59
  -2   5 -12   -3.76    4.22
  -2   5 -13   -1.24    3.61
  -2   5 -14    4.50    5.42
  -2   5 -15    1.76    1.59
  -2   5 -16    5.37    5.48
  -2   5 -17   -1.10    1.62
   2  -5  17    6.55    7.45
  -2   5 -18   -0.02    1.55
  -2   5 -18    2.70    3.97
   2  -5  18   -1.91    6.19
   2  -5  19    0.44    5.01
   2  -5  20    0.02    2.65
   2  -4 -18    3.90    4.02
   2  -4 -17    1.10    2.20
  -2   4  17    0.00    2.16
   2  -4 -16    1.68    1.94
   2  -4 -16   -1.76    2.68
  -2   4  16    0.81    2.80
   2  -4 -15    0.38    1.20
   2  -4 -15    0.67    1.75
  -2   4  15    2.73    3.39
   2  -4 -14    0.16    1.37
  -2   4  14    0.38    1.91
  -2   4  13    2.40    3.91
   2  -4 -13   -1.76    3.38
   2  -4 -12   -1.18    1.16
  -2   4  12   -0.44    0.97
   2  -4 -11   21.15    7.69
  -2   4  11   21.09    8.24
  -2   4  10    4.46    4.58
   2  -4 -10    8.05    4.89
  -2   4  10    4.57    3.29
   2  -4  -9   29.57    8.18
  -2   4   9   22.62    5.79
  -2   4   9   27.56    8.50
  -2   4   8    1.25    1.98
   2  -4  -8    3.24    2.65
  -2   4   8    1.31    0.98
  -2   4   7    2.38    3.11
   2  -4  -7    0.92    0.63
  -2   4   7    2.09    2.09
  -2   4   6   -0.86    2.63
   2  -4  -6   -1.00    1.91
  -2   4   6   -0.38    1.02
  -2   4   5   10.09    3.76
   2  -4  -5   12.52    4.98
  -2   4   4   21.75    5.06
   2  -4  -4   19.83    6.49
  -2   4   3   69.22    9.88
  -2   4   3   58.63    9.12
   2  -4  -3   54.30   10.27
   2  -4  -2  294.06   23.85
  -2   4   2  329.18   21.94
  -2   4   2  293.68   20.73
   2  -4  -2  265.85   15.20
  -2   4   1   12.06    4.29
  -2   4   1    4.60    1.09
   2  -4  -1   11.46    4.71
   2  -4  -1    7.55    2.38
   2  -4   0  151.51   18.13
  -2   4   0  148.90   15.81
   2  -4   1    7.35    3.74
  -2   4  -1    3.39    2.08
  -2   4  -2  123.99   15.19
   2  -4   2  134.53   16.96
  -2   4  -3   12.59    5.02
  -2   4  -4   48.10    3.92
   2  -4   4   25.31    3.57
  -2   4  -4   50.61   10.38
  -2   4  -5   52.73    5.44
  -2   4  -5   51.20   10.92
  -2   4  -6    0.72    2.18
  -2   4  -7   21.65    7.45
  -2   4  -8   11.07    6.07
  -2   4  -9    5.23    4.95
  -2   4 -10   34.11   10.25
  -2   4 -11    2.75    3.65
  -2   4 -12    4.00    3.21
  -2   4 -13    2.11    1.80
  -2   4 -14    0.74    2.57
  -2   4 -15    4.98    4.69
  -2   4 -16   -2.17    1.06
  -2   4 -16    1.99    3.10
   2  -4  16   -2.18    3.67
  -2   4 -17    0.26    1.39
   2  -4  17   -4.63    5.50
  -2   4 -17    0.30    1.78
  -2   4 -18    0.29    2.54
   2  -4  18   -4.64    5.67
  -2   4 -18   -1.75    2.37
  -2   4 -19   -1.91    1.22
   2  -4  19    1.41    3.19
  -2   4 -20   -1.39    1.04
   2  -4  20   -0.01    4.38
   2  -3 -19    6.51    5.96
  -2   3  19    0.00    3.69
  -2   3  18    0.40    1.36
  -2   3  17   -3.02    3.59
   2  -3 -17    0.45    1.24
   2  -3 -16   -0.73    3.45
  -2   3  16    7.85    6.23
   2  -3 -15    0.05    1.99
  -2   3  15    3.37    3.99
  -2   3  14    9.32    5.92
  -2   3  13    2.11    3.70
  -2   3  12    2.63    3.75
  -2   3  11    1.00    1.96
  -2   3  10   -3.43    1.76
  -2   3  10    0.35    0.30
  -2   3   9    1.58    2.83
   2  -3  -9    3.70    3.71
  -2   3   9   -0.03    0.76
  -2   3   8   31.32    9.12
   2  -3  -8   31.43    8.37
  -2   3   8   26.15    5.07
  -2   3   7   24.80    7.41
   2  -3  -7   32.37    8.39
  -2   3   7   23.83    4.91
  -2   3   6   13.70    5.78
  -2   3   6   13.97    3.67
   2  -3  -6    9.63    4.11
  -2   3   6   10.80    3.17
  -2   3   5    1.14    1.70
  -2   3   5    0.72    0.42
   2  -3  -5    1.93    1.16
  -2   3   5    2.15    0.95
  -2   3   4  223.76   20.44
  -2   3   4  239.69   15.87
  -2   3   4  208.88   15.25
   2  -3  -4  235.02   20.87
  -2   3   3  467.21   22.82
   2  -3  -3  428.04   27.27
   2  -3  -2  175.27   17.02
  -2   3   2  188.62   15.13
  -2   3   2  122.50    7.51
   2  -3  -1  171.23   16.64
  -2   3   1  172.03   14.70
   2  -3   0  163.49   16.54
  -2   3   0  174.36   15.42
   2  -3   1  215.71   19.53
  -2   3  -1  189.46   16.90
   2  -3   2   18.37    5.99
  -2   3  -2   14.47    4.46
   2  -3   3   91.68   12.95
  -2   3  -3   78.85   11.55
  -2   3  -4 1822.42   58.79
  -2   3  -4 1992.98   35.26
  -2   3  -5 1103.86   29.15
  -2   3  -5 1174.73   48.98
  -2   3  -6    3.30    3.27
  -2   3  -6    0.96    0.23
  -2   3  -7  312.39   19.35
  -2   3  -7  363.49   29.65
  -2   3  -8    7.26    3.97
  -2   3  -8    3.94    2.18
  -2   3  -9    3.52    3.31
  -2   3  -9    0.73    1.74
  -2   3 -10    1.70    1.04
  -2   3 -10    2.83    2.85
  -2   3 -11    3.86    3.22
  -2   3 -11    1.21    2.62
  -2   3 -12    2.53    2.13
  -2   3 -12    3.35    2.61
  -2   3 -13    0.65    0.69
  -2   3 -13   -0.14    2.18
  -2   3 -14    0.85    1.98
  -2   3 -14    1.57    2.06
  -2   3 -15   12.02    5.50
  -2   3 -15   -0.11    0.92
   2  -3  15   -4.75    4.82
  -2   3 -16    0.10    3.10
  -2   3 -16    0.65    2.34
   2  -3  16   -1.90    3.16
  -2   3 -17    1.04    1.57
  -2   3 -17   -1.20    2.50
   2  -3  17   -1.05    2.43
  -2   3 -18    0.96    3.80
   2  -3  18    0.59    4.41
  -2   3 -18    3.92    4.78
  -2   3 -19   -2.34    4.24
   2  -3  19    0.01    3.25
  -2   3 -20   -4.64    5.92
  -2   2  20    0.58    1.68
  -2   2  19    0.00    0.80
  -2   2  18    0.32    3.19
  -2   2  17   -2.99    3.45
  -2   2  16    0.53    2.13
  -2   2  15    1.49    2.29
  -2   2  14    1.77    4.29
  -2   2  13    1.23    1.27
  -2   2  12    1.35    2.99
  -2   2  11    3.77    3.41
  -2   2  10    8.55    4.21
  -2   2  10    5.10    1.90
  -2   2   9   29.62    8.11
  -2   2   9   10.42    2.81
  -2   2   9    9.08    2.23
  -2   2   8   13.56    6.01
  -2   2   8    4.31    1.40
  -2   2   8   11.96    2.98
  -2   2   8    6.50    1.99
  -2   2   7   65.02   11.60
  -2   2   7   73.82    6.65
  -2   2   6    2.53    2.20
  -2   2   6    0.00    0.72
  -2   2   5    3.89    2.35
  -2   2   5    9.61    2.60
   2  -2  -4   92.11   12.85
  -2   2   4  101.86    8.89
  -2   2   4   89.09   12.04
   2  -2  -3   41.90    8.08
  -2   2   3   46.91    8.26
  -2   2   3   47.59    6.50
  -2   2   2    3.15    1.54
   2  -2  -2    4.25    2.94
  -2   2   1   18.78    4.40
   2  -2  -1   20.26    5.42
   2  -2   0   77.84    5.43
   2  -2   0   97.05   11.87
  -2   2   0   95.63   10.59
   2  -2   1  539.33   27.28
   2  -2   1  392.91   15.06
  -2   2  -1  516.15   26.34
   2  -2   2   25.08    3.89
   2  -2   2   47.68    8.32
  -2   2  -2   42.39    7.72
   2  -2   3  274.03   19.60
  -2   2  -3  235.75   19.51
  -2   2  -4   19.11    6.34
  -2   2  -4   15.57    3.69
  -2   2  -5  355.07   19.24
  -2   2  -5  348.44   25.74
  -2   2  -6  592.59   26.54
  -2   2  -6  649.76   36.25
  -2   2  -7   26.09    7.73
  -2   2  -7   25.50    5.82
  -2   2  -8   -0.21    0.87
  -2   2  -8    1.11    1.53
  -2   2  -9   15.55    6.05
  -2   2  -9   14.89    4.98
  -2   2 -10    3.01    2.87
  -2   2 -10    4.32    2.18
  -2   2 -11   15.42    6.26
  -2   2 -11   21.49    7.19
  -2   2 -12   26.98    8.62
  -2   2 -12   35.20    9.66
  -2   2 -13    6.96    4.27
  -2   2 -13    8.41    5.40
  -2   2 -14    8.75    5.69
  -2   2 -14    7.51    5.32
   2  -2  14   11.33    7.48
  -2   2 -15   -2.51    2.19
  -2   2 -15   -2.83    4.01
   2  -2  15    0.86    3.35
   2  -2  16    1.64    2.13
  -2   2 -16   -3.17    4.32
  -2   2 -16   -1.75    2.32
  -2   2 -17   -0.34    1.55
   2  -2  17    1.04    4.57
  -2   2 -17    1.91    3.37
  -2   2 -18    0.55    0.84
  -2   2 -18    1.88    1.09
  -2   2 -19   -0.52    2.38
  -2   2 -20   -0.35    2.41
  -2   1  20   -5.01    4.86
  -2   1  19   -1.07    2.17
  -2   1  18    0.00    3.20
  -2   1  17   -0.34    1.15
  -2   1  16    2.59    2.44
  -2   1  15   -1.18    1.98
  -2   1  14    5.83    5.11
  -2   1  13    7.64    5.33
  -2   1  12   -2.97    2.61
  -2   1  11    1.54    3.35
  -2   1  10   -2.91    3.25
  -2   1   9    2.93    0.84
  -2   1   8   41.20    9.43
   2  -1  -7   12.70    2.57
  -2   1   7   12.47    5.38
  -2   1   6   49.92    9.60
  -2   1   6   50.54    4.18
   2  -1  -6   63.38    6.80
  -2   1   5   72.88   10.45
  -2   1   5   88.27    6.82
   2  -1  -5   73.56    7.28
  -2   1   4   20.28    3.69
  -2   1   4   13.24    4.20
  -2   1   3    1.22    1.15
  -2   1   3    0.50    2.41
   2  -1  -2  170.49   11.29
  -2   1   2  208.23   13.85
  -2   1   2  177.00   14.90
  -2   1   1  129.41   11.62
   2  -1  -1  107.95    8.58
   2  -1  -1  115.00   12.30
  -2   1   0    6.78    2.85
   2  -1   0    2.57    1.34
  -2   1  -1   11.18    3.71
   2  -1   1   10.38    3.04
  -2   1  -2   54.85    8.69
   2  -1   2   61.10    8.34
  -2   1  -3    1.34    1.54
   2  -1   3   -0.78    2.47
  -2   1  -4    2.00    0.92
  -2   1  -4    1.18    0.11
  -2   1  -5   46.72    8.23
  -2   1  -5   38.98    8.26
  -2   1  -6    6.66    3.36
  -2   1  -6    9.83    4.24
  -2   1  -7    7.05    3.15
  -2   1  -7    5.74    3.51
  -2   1  -8    0.03    1.27
  -2   1  -8    0.06    1.40
  -2   1  -9    0.97    1.89
  -2   1  -9    0.26    1.38
  -2   1 -10    6.55    3.66
  -2   1 -10    6.19    3.84
  -2   1 -11    1.38    2.82
  -2   1 -11    0.92    0.88
  -2   1 -12   10.21    5.26
  -2   1 -12    6.89    4.53
   2  -1  12    9.06    5.38
  -2   1 -13    0.99    0.74
   2  -1  13   -0.64    0.55
  -2   1 -14    0.48    1.07
   2  -1  14    2.46    2.79
  -2   1 -14    7.48    5.20
  -2   1 -15   -0.26    2.44
   2  -1  15    0.50    2.65
  -2   1 -15    1.91    2.95
  -2   1 -16    1.56    3.47
  -2   1 -16   -0.40    2.49
  -2   1 -17    1.48    2.13
  -2   1 -17    2.15    2.47
  -2   1 -18   -0.17    0.51
  -2   1 -19    0.79    5.50
  -2   0  21   -3.28    4.07
  -2   0  20    0.07    1.35
  -2   0  19    1.16    2.99
  -2   0  18    3.62    4.72
  -2   0  17    2.39    2.91
  -2   0  16   -2.70    3.56
  -2   0  15    4.05    2.92
  -2   0  14   -3.85    4.22
  -2   0  13   54.75   12.91
  -2   0  12  147.81   20.13
  -2   0  11  237.42   24.69
  -2   0  10   30.52    8.33
  -2   0   9  101.94   14.82
  -2   0   8   56.69   10.86
  -2   0   7  224.55   20.47
  -2   0   6   77.26   11.10
  -2   0   5    6.50    2.39
  -2   0   5    4.44    1.29
   2   0  -5    2.14    0.87
  -2   0   4  337.76   13.52
   2   0  -4  276.31   15.05
  -2   0   4  344.56   21.07
   2   0  -4  350.21   20.31
  -2   0   3  105.80    8.51
   2   0  -3  126.65   11.81
  -2   0   3  115.05   11.52
  -2   0   2  134.58   12.10
  -2   0   2  133.76   10.45
  -2   0   1   71.54    8.60
  -2   0   1   67.06    7.86
  -2   0   0  207.35   14.67
   2   0   0  225.81   15.47
  -2   0  -1    1.38    1.12
   2   0   1   -0.36    0.80
  -2   0  -2    0.24    0.85
   2   0   2   -0.57    0.45
   2   0   3   58.55    6.59
  -2   0  -3   84.16   10.81
  -2   0  -4    1.35    1.61
  -2   0  -4    1.82    1.16
  -2   0  -4    0.46    0.33
  -2   0  -5    7.16    3.60
  -2   0  -5    1.84    1.08
  -2   0  -5    3.95    3.38
  -2   0  -6   36.45    8.03
  -2   0  -6   17.65    3.26
  -2   0  -6   39.64    8.87
  -2   0  -7    6.78    3.67
  -2   0  -7    3.57    2.96
  -2   0  -8    2.41    2.81
  -2   0  -8    8.53    4.46
  -2   0  -9    2.42    2.26
  -2   0  -9    1.05    1.72
  -2   0 -10   -2.52    2.52
  -2   0 -10   -0.39    0.66
  -2   0 -11    3.02    3.84
   2   0  11    7.42    4.65
  -2   0 -11    0.15    2.09
  -2   0 -12   -2.28    2.37
   2   0  12   -0.52    1.20
  -2   0 -12   -0.78    1.39
  -2   0 -13   -1.42    1.95
   2   0  13   -0.34    1.01
  -2   0 -13    1.08    1.74
  -2   0 -14    0.12    0.92
  -2   0 -14    3.84    3.57
  -2   0 -15    0.09    2.60
  -2   0 -15    1.19    1.91
  -2   0 -16   -0.15    1.82
   2   0  16   -2.39    5.44
  -2   0 -16   -0.51    0.53
   2   0  17    2.59    4.64
  -2   0 -17    2.03    4.41
  -2   0 -17    1.19    3.17
  -2   0 -18   -3.22    3.73
  -2   0 -19   -0.70    2.98
  -2  -1  21    0.64    3.14
  -2  -1  20    6.02    6.30
  -2  -1  19   -0.81    1.93
  -2  -1  18   -0.14    1.78
  -2  -1  17    0.91    4.25
  -2  -1  16    1.11    3.62
  -2  -1  15    3.08    4.99
  -2  -1  14   25.12    8.85
  -2  -1  13  163.21   22.57
  -2  -1  12    0.89    4.11
  -2  -1  11  433.34   34.08
  -2  -1  10  143.10   19.18
  -2  -1   9   27.04    7.79
  -2  -1   8   19.01    6.72
  -2  -1   7   79.50   12.32
  -2  -1   6  272.48   21.27
   2   1  -6  207.74   11.96
   2   1  -6  293.14   10.53
   2   1  -6  250.30   20.43
   2   1  -5  445.92   20.70
  -2  -1   5  334.51   21.97
   2   1  -5  310.20   21.83
   2   1  -5  306.58   13.88
  -2  -1   4   20.35    5.12
   2   1  -4   22.14    5.72
  -2  -1   3  600.38   21.78
   2   1  -3  611.78   28.23
  -2  -1   3  614.87   26.46
  -2  -1   2  470.74   20.16
  -2  -1   2  486.09   21.95
  -2  -1   1  116.15   10.74
  -2  -1   1  122.76   10.57
  -2  -1   0   11.12    3.52
  -2  -1  -1   32.11    6.23
  -2  -1  -2   84.53   10.53
   2   1   2   80.63    7.30
   2   1   3   43.67    4.13
  -2  -1  -3   41.13    7.75
  -2  -1  -4   37.23    7.54
  -2  -1  -5   54.80   11.18
  -2  -1  -5   44.73    8.77
  -2  -1  -6   27.66    7.82
  -2  -1  -6   17.98    5.73
  -2  -1  -7    4.29    3.82
  -2  -1  -7    7.75    4.79
  -2  -1  -8   47.06   12.28
   2   1   8   10.77    3.67
  -2  -1  -8   15.12    5.56
  -2  -1  -9    3.46    3.82
   2   1   9    0.80    0.84
  -2  -1  -9    1.97    2.54
  -2  -1 -10    1.15    3.09
  -2  -1 -10   -0.50    1.47
   2   1  10   -1.16    2.07
  -2  -1 -11    1.93    2.17
  -2  -1 -11    1.28    2.08
   2   1  11   -0.58    1.18
  -2  -1 -12    0.71    1.66
  -2  -1 -12   -4.33    3.59
   2   1  13   -4.31    6.31
  -2  -1 -13    1.13    2.06
  -2  -1 -13   -0.40    0.72
  -2  -1 -14    3.70    3.70
  -2  -1 -14    2.10    3.10
   2   1  14   -1.83    5.42
   2   1  15    2.85    4.84
  -2  -1 -15   -4.77    4.18
  -2  -1 -15   -1.93    3.78
  -2  -1 -16    3.29    3.09
  -2  -1 -16   -0.23    8.74
   2   1  16   -2.92    5.80
  -2  -1 -17   -2.26    3.09
   2   1  17    1.54    5.89
  -2  -1 -18   -3.45    3.96
  -2  -2  21   -1.22    2.58
  -2  -2  20   -4.06    4.59
  -2  -2  19   -1.90    3.03
  -2  -2  18    5.39    5.24
  -2  -2  17   -4.26    4.63
  -2  -2  16    8.06    5.37
  -2  -2  15    8.21    6.43
  -2  -2  14    6.48    4.88
  -2  -2  13   62.49   13.69
  -2  -2  12   25.40    8.88
  -2  -2  11    3.77    3.35
  -2  -2  10   14.59    5.67
  -2  -2   9   29.54    7.85
  -2  -2   8   21.17    7.00
   2   2  -8   21.55    3.85
   2   2  -7    0.29    0.48
   2   2  -7   -1.81    2.19
  -2  -2   7    2.19    2.22
   2   2  -7   -0.58    1.24
   2   2  -6   31.78    4.82
   2   2  -6   32.62    8.32
  -2  -2   6   37.65    7.71
   2   2  -5   42.50    8.66
  -2  -2   5   39.70    7.46
   2   2  -5   45.34    6.30
   2   2  -4  227.91   19.08
   2   2  -4  255.92   16.23
  -2  -2   4  267.14   19.22
  -2  -2   3  323.47   19.53
   2   2  -3  364.44   21.30
  -2  -2   2  442.43   20.71
   2   2  -2  536.21   27.89
  -2  -2   1  216.82   13.36
   2   2  -1  268.32   21.17
  -2  -2   0    0.41    0.42
  -2  -2   0   -3.61    2.70
   2   2   1   -0.29    0.54
  -2  -2  -1    0.34    1.37
   2   2   2   73.12    7.45
  -2  -2  -2   98.68   12.17
  -2  -2  -3  167.80   16.09
   2   2   3  134.50    8.90
  -2  -2  -4  127.24   14.43
   2   2   4  127.56    8.41
   2   2   5  205.58   10.16
  -2  -2  -5  214.57   19.45
  -2  -2  -6   13.15    6.85
   2   2   6    5.30    1.92
  -2  -2  -6    6.14    3.19
   2   2   7    0.53    0.99
  -2  -2  -7    0.09    1.44
  -2  -2  -7    1.49    2.43
  -2  -2  -8    1.60    3.53
   2   2   8   -0.41    1.31
  -2  -2  -8    1.98    3.09
   2   2   9    1.11    3.77
  -2  -2  -9    5.35    3.32
  -2  -2  -9    0.99    1.36
   2   2  10   52.62   14.51
  -2  -2 -10   37.37   11.16
  -2  -2 -10   28.99    8.37
  -2  -2 -11    2.99    4.13
  -2  -2 -11    2.20    1.67
   2   2  11   -3.53    3.81
   2   2  12    1.34    2.13
  -2  -2 -12    2.66    1.85
  -2  -2 -12    5.21    3.44
  -2  -2 -13    5.83    4.48
   2   2  13    7.76    6.77
   2   2  14   -1.64    3.94
  -2  -2 -14    5.44    5.20
   2   2  15   -0.69    3.49
  -2  -2 -15   -3.86    4.97
   2   2  16   -8.26    8.31
  -2  -2 -16    4.45    4.81
   2   2  17   -2.98    5.13
  -2  -2 -17   -0.59    1.62
  -2  -3  20    0.61    0.68
  -2  -3  19    1.35    2.66
  -2  -3  18   -1.38    2.52
  -2  -3  17   -0.13    1.80
  -2  -3  16    2.07    2.84
  -2  -3  15   27.97   10.04
  -2  -3  14   18.28    8.09
  -2  -3  13   -1.01    1.54
  -2  -3  12    3.43    2.92
  -2  -3  11    4.51    3.48
  -2  -3  10    6.21    5.33
   2   3 -10   -0.56    1.21
  -2  -3   9    5.40    4.06
   2   3  -8   35.91    5.35
  -2  -3   8   41.60    8.70
   2   3  -8   32.53    8.79
   2   3  -7    3.84    1.68
   2   3  -7    4.32    3.66
  -2  -3   7    6.26    2.67
   2   3  -6   36.21    6.29
   2   3  -6   34.59    8.81
  -2  -3   6   40.16    7.90
   2   3  -5    3.75    2.44
   2   3  -5   -1.14    0.47
  -2  -3   5    0.55    1.59
  -2  -3   4  415.08   23.49
   2   3  -4  416.39   23.27
  -2  -3   3  101.40   10.98
   2   3  -3  109.43   12.49
   2   3  -2   29.73    7.06
  -2  -3   2   32.72    5.74
  -2  -3   1  587.15   21.94
   2   3  -1  646.52   35.05
   2   3   0   10.36    4.25
  -2  -3   0    9.92    2.52
   2   3   1   18.53    6.70
   2   3   2    4.04    3.68
   2   3   3  486.71   37.97
   2   3   4   30.28   10.26
   2   3   5    7.20    5.39
   2   3   6   21.55   10.11
   2   3   7    3.35    3.13
  -2  -3  -7    1.74    2.47
   2   3   8   13.03    7.00
  -2  -3  -8    4.19    2.78
   2   3   9   36.91   12.63
  -2  -3  -9   30.71   10.64
   2   3  10    4.99    4.75
  -2  -3 -10    5.82    5.29
   2   3  11  144.38   26.83
  -2  -3 -11  101.48   19.32
   2   3  12   78.98   19.91
  -2  -3 -12   53.69   14.48
   2   3  13   -1.92    2.82
  -2  -3 -13   -2.30    2.19
   2   3  14    7.26    6.90
  -2  -3 -14    5.21    4.93
   2   3  15    1.49    1.53
  -2  -3 -15   -3.32    3.79
   2   3  16    0.82    3.48
  -2  -3 -16   -5.88    5.19
  -2  -4  20   -5.85    5.78
  -2  -4  19    5.82    7.81
  -2  -4  18    2.71    4.56
  -2  -4  17    0.85    6.11
  -2  -4  16   -3.46    3.46
  -2  -4  15   -2.22    4.74
  -2  -4  14   -0.47    1.32
  -2  -4  13   -1.27    1.91
  -2  -4  12    2.72    3.04
   2   4 -11   -0.72    1.45
  -2  -4  11    2.06    3.31
  -2  -4  10    6.80    4.02
   2   4  -9    3.93    4.29
  -2  -4   9    2.49    2.75
   2   4  -9    3.25    2.20
   2   4  -8   36.60    6.86
  -2  -4   8   49.46   10.53
   2   4  -8   40.34   10.59
   2   4  -7    0.69    1.90
   2   4  -7   -2.91    3.61
  -2  -4   7    2.37    2.71
   2   4  -6    0.72    0.68
   2   4  -6    1.19    3.54
  -2  -4   6   -0.28    1.60
   2   4  -5   -0.75    1.66
  -2  -4   5    7.20    2.87
   2   4  -5    4.33    4.33
   2   4  -4   34.19    7.49
  -2  -4   4   32.22    6.45
  -2  -4   3  226.83   16.37
   2   4  -3  237.29   20.07
  -2  -4   2  450.32   22.31
   2   4  -2  446.20   29.01
   2   4  -1   52.72   10.45
  -2  -4   1   57.39    7.25
   2   4   0    5.25    3.16
  -2  -4   0    5.87    1.94
   2   4   1   75.37   14.08
   2   4   2   22.66    7.91
   2   4   3    4.51    4.25
   2   4   3    0.70    0.45
   2   4   4    1.78    2.93
   2   4   5    1.09    2.42
   2   4   6    6.27    5.13
   2   4   7   23.50   11.12
   2   4   8   39.64   13.27
   2   4   9   12.77    7.64
  -2  -4 -10   19.15    9.31
   2   4  10   13.82    9.44
   2   4  11   -4.20    4.68
  -2  -4 -11   -6.88    5.15
   2   4  12    8.75    7.37
  -2  -4 -12  -11.34    6.75
   2   4  13    3.34    5.03
  -2  -4 -13    0.05    4.51
   2   4  14    3.14    6.51
  -2  -4 -14    0.04    0.91
   2   4  15    4.80    6.43
  -2  -4 -15    1.10    4.51
   2   4  16   -2.37    1.64
  -2  -5  20    0.68    3.58
  -2  -5  19   -7.64    6.53
  -2  -5  18   -1.95    3.11
  -2  -5  17    5.17    4.96
  -2  -5  16    0.26    1.80
  -2  -5  15    4.42    5.21
  -2  -5  14    5.84    4.70
  -2  -5  13    0.63    1.99
  -2  -5  12   10.38    6.52
   2   5 -11   13.38    4.99
  -2  -5  11   18.72    7.88
   2   5 -10   39.61   11.78
  -2  -5  10   31.75    9.37
   2   5 -10   22.25    6.17
  -2  -5   9    3.18    3.20
   2   5  -9   -0.63    1.51
   2   5  -9    3.68    4.59
   2   5  -8   34.48    7.74
   2   5  -8   44.23   11.15
  -2  -5   8   51.10   11.10
   2   5  -7   15.88    5.36
   2   5  -7   25.83    8.47
  -2  -5   7   23.25    7.02
   2   5  -6   43.33    8.60
   2   5  -6   50.86   11.17
  -2  -5   6   64.31   11.29
   2   5  -5    2.01    1.29
  -2  -5   5    5.04    2.92
   2   5  -4   24.12    6.71
  -2  -5   4   20.88    5.50
   2   5  -3    5.62    3.67
  -2  -5   3    2.56    1.82
   2   5  -2    1.66    2.41
  -2  -5   2    1.38    1.52
   2   5  -1   56.43   11.53
  -2  -5   1   45.68    6.46
   2   5   0    3.07    2.90
  -2  -5   0    0.37    0.42
   2   5   1    3.16    2.71
   2   5   2    1.92    2.76
   2   5   3    3.67    4.13
   2   5   4   -1.09    1.15
   2   5   5    3.58    4.64
   2   5   6    9.19    6.18
   2   5   7   -4.48    4.12
   2   5   8    0.60    3.78
   2   5   9   61.45   17.04
   2   5  10    9.73    6.77
   2   5  11    4.26    4.70
   2   5  12    0.54    1.73
   2   5  13   -0.75    3.13
   2   5  14   -0.22    5.16
   2   5  15   -9.44    8.10
   2   5  16   -0.54    2.96
  -2  -6  19    0.01    4.40
  -2  -6  18   -5.30    5.42
  -2  -6  17    8.62    7.80
  -2  -6  16    4.04    5.26
  -2  -6  15  -10.61    6.86
  -2  -6  14    4.90    3.49
  -2  -6  13   45.65   13.85
  -2  -6  12    0.03    3.29
   2   6 -11    5.09    4.62
  -2  -6  11    9.55    5.43
  -2  -6  10    8.41    6.01
   2   6 -10   28.01   11.23
   2   6 -10    7.20    3.72
   2   6  -9    3.33    0.81
  -2  -6   9   -0.41    1.93
   2   6  -9    2.16    2.12
   2   6  -8   -0.60    1.18
   2   6  -8   -0.78    2.83
  -2  -6   8    0.15    1.53
   2   6  -7  115.09   17.62
  -2  -6   7  111.61   16.74
   2   6  -7   91.52   13.58
  -2  -6   6   93.65   14.43
   2   6  -6   83.34   14.89
   2   6  -6   86.92   13.03
  -2  -6   5  683.94   36.71
   2   6  -5  660.01   38.13
  -2  -6   4  239.17   20.29
   2   6  -4  199.92   20.88
   2   6  -3   49.46   10.98
  -2  -6   3   50.92    8.72
   2   6  -2   15.10    6.11
  -2  -6   2   10.01    3.62
   2   6  -1    8.05    4.75
  -2  -6   1    3.59    1.85
   2   6   0   -2.71    3.52
   2   6   1   32.64    9.78
   2   6   2    5.32    3.82
   2   6   3   -3.39    4.62
   2   6   4   34.20   11.70
   2   6   5    3.44    4.34
   2   6   6   10.48    7.57
   2   6   7    7.25    5.48
   2   6   8    9.14    7.13
   2   6   9   -2.31    2.92
   2   6  10    0.65    3.22
   2   6  11   -1.49    4.44
   2   6  12    2.29    2.56
   2   6  13   -0.48    3.32
   2   6  14   -2.94    4.53
  -2  -7  19    0.91    5.38
  -2  -7  18  -15.52    9.78
  -2  -7  17    0.32    1.23
  -2  -7  16    2.47    2.85
  -2  -7  15    1.30    3.48
  -2  -7  14   -0.07    2.23
  -2  -7  13   -0.33    2.66
  -2  -7  12   -1.12    1.92
  -2  -7  11    0.68    0.97
   2   7 -11    8.10    6.28
   2   7 -10   33.49   11.50
  -2  -7  10   38.78   11.91
   2   7 -10   27.13    8.10
   2   7  -9    8.62    6.65
  -2  -7   9   13.01    6.38
   2   7  -9    8.19    4.76
   2   7  -8   10.91    4.68
  -2  -7   8   16.88    7.98
   2   7  -8   12.22    6.33
   2   7  -7   23.03    6.97
  -2  -7   7   31.00    9.46
   2   7  -7   21.82    8.24
   2   7  -6   77.50   13.72
   2   7  -6   65.84   13.66
  -2  -7   6  112.44   16.78
   2   7  -5    4.69    4.22
  -2  -7   5    4.01    3.12
  -2  -7   4  168.48   18.43
   2   7  -4  130.79   17.95
   2   7  -3   31.79    8.84
  -2  -7   3   27.34    6.95
   2   7  -2    1.27    3.90
   2   7  -1   25.62    8.40
   2   7   0    3.03    3.72
   2   7   1    2.91    2.83
   2   7   2   85.06   17.60
   2   7   3    4.67    3.47
   2   7   4   34.44   11.91
   2   7   5    0.68    1.82
   2   7   6    2.79    3.74
   2   7   7    0.83    3.38
   2   7   8   -2.63    5.24
   2   7   9    1.82    3.65
   2   7  10    1.44    3.94
   2   7  11   -4.94    5.88
   2   7  12    3.15    6.13
   2   7  13   -6.83    4.96
  -2  -8  18    4.79    7.35
  -2  -8  17    0.25    0.68
  -2  -8  16    8.20    7.44
  -2  -8  15   -6.61    6.07
  -2  -8  14    4.88    4.78
  -2  -8  13    1.01    2.21
   2   8 -12   10.43    7.95
  -2  -8  12    0.16    3.19
   2   8 -11    6.29    4.57
  -2  -8  11    4.75    4.37
   2   8 -10   -0.50    2.31
  -2  -8  10    9.02    6.23
   2   8 -10    0.09    0.88
   2   8  -9    6.22    4.83
  -2  -8   9    4.51    4.79
   2   8  -9    1.65    0.86
   2   8  -8    2.67    0.44
   2   8  -8    1.11    2.52
  -2  -8   8    6.86    5.47
   2   8  -7   -1.42    2.52
   2   8  -7    3.82    5.66
  -2  -8   7    3.77    3.52
   2   8  -6    2.76    1.32
   2   8  -6    4.99    4.00
  -2  -8   6    4.09    3.44
   2   8  -5   -1.87    3.26
  -2  -8   5    1.37    1.84
   2   8  -4    1.99    2.14
   2   8  -3    1.52    3.43
   2   8  -2    7.88    5.60
   2   8  -1    6.82    4.76
   2   8   0   -5.04    4.80
   2   8   1    0.93    2.91
   2   8   2   31.04   11.09
   2   8   3    2.80    6.37
   2   8   4   -0.74    1.17
   2   8   5   -2.05    2.77
   2   8   6   -4.12    4.92
   2   8   7    0.98    0.61
   2   8   8    1.54    3.70
   2   8   9    0.87    2.35
   2   8  10    0.01    2.63
   2   8  11    0.78    4.78
  -2  -9  17    2.09    3.56
  -2  -9  16   -4.28    5.38
  -2  -9  15    2.31    3.81
  -2  -9  14   -2.56    3.87
  -2  -9  13    0.20    3.76
   2   9 -12    8.31    6.81
  -2  -9  12    3.17    3.66
   2   9 -11    1.03    2.95
  -2  -9  11    8.50    6.77
   2   9 -10    1.87    2.45
  -2  -9  10    2.16    3.99
   2   9 -10    2.07    3.46
   2   9  -9    0.12    6.53
  -2  -9   9   -1.15    2.70
   2   9  -9    5.22    5.09
   2   9  -8    3.08    1.69
   2   9  -8    5.82    4.03
  -2  -9   8    0.89    3.03
   2   9  -7    4.51    4.16
   2   9  -7    7.90    4.80
  -2  -9   7    6.77    4.13
   2   9  -6    2.21    3.32
   2   9  -6    2.91    3.07
   2   9  -5    1.42    2.12
   2   9  -4   13.19    6.65
   2   9  -3   -0.11    0.88
   2   9  -2   -4.20    4.26
   2   9  -1    0.34    2.00
   2   9   0   -1.76    1.60
   2   9   1   -4.87    5.41
   2   9   2   14.06    8.34
   2   9   3   -1.93    3.09
   2   9   4    3.41    4.60
   2   9   5    2.85    5.56
   2   9   6    5.35    5.50
   2   9   7    5.65    7.27
   2   9   8    1.36    3.22
  -2 -10  16   -0.01    4.45
  -2 -10  15    3.06    7.02
  -2 -10  14    2.73    5.51
  -2 -10  13    2.57    4.56
   2  10 -12    8.28    7.15
  -2 -10  12    0.33    2.02
   2  10 -11    3.48    0.83
  -2 -10  11    2.40    5.44
   2  10 -10    0.45    3.74
  -2 -10  10    1.10    2.99
   2  10 -10    0.35    2.03
   2  10  -9    1.33    4.22
  -2 -10   9    0.02    2.17
   2  10  -9   -2.93    3.33
   2  10  -8   -1.35    1.81
   2  10  -8    1.59    3.56
   2  10  -7    8.05    5.76
   2  10  -7    4.66    3.51
   2  10  -6    2.91    3.73
   2  10  -6    4.36    4.16
   2  10  -5    0.78    3.04
   2  10  -4    1.48    1.73
   2  10  -3    6.65    5.01
   2  10  -2   -4.61    4.42
   2  10  -1    1.00    3.50
   2  10   0   -4.65    5.93
   2  10   1    4.32    6.07
   2  10   2    5.99    4.70
   2  10   3   -3.54    5.11
   2  10   4    3.49    4.06
   2  10   5    1.85    3.41
   2  10   6    0.72    2.20
  -2 -11  15    0.01    2.29
  -2 -11  14   -0.97    2.61
   2  11 -13    6.73    6.26
  -2 -11  13    2.71    4.73
   2  11 -12    1.63    3.75
  -2 -11  12    2.22    3.96
   2  11 -11    6.84    6.31
   2  11 -10   -5.19    4.48
   2  11 -10   -2.00    2.46
   2  11  -9   -2.06    3.16
   2  11  -9   -0.64    3.30
   2  11  -8    0.45    3.30
   2  11  -8    5.35    3.79
   2  11  -7    0.20    1.61
   2  11  -7    9.37    6.87
   2  11  -6    6.36    5.48
   2  11  -6    1.93    3.87
   2  11  -5    8.54    5.49
   2  11  -4    1.24    3.32
   2  11  -3    2.67    3.61
   2  11  -2   -1.69    2.73
   2  11  -1   -0.46    3.15
   2  11   0    5.88    5.03
   2  11   1    1.87    3.98
   2  11   2   -3.11    2.80
   2  11   3   -0.59    2.17
   2  12 -11   -2.56    5.17
   2  12 -10   -0.19    3.42
   2  12  -9   -0.42    2.56
   2  12  -9   -0.80    3.06
   2  12  -8   -2.10    3.57
   2  12  -8   -0.79    2.02
   2  12  -7    1.68    3.34
   2  12  -7    0.41    2.49
   2  12  -6    2.96    4.33
   2  12  -6    0.40    3.41
   2  12  -5   -0.88    2.33
   2  12  -5    5.78    5.13
   2  12  -4   -3.49    4.89
   2  12  -3    1.01    0.69
   2  12  -2   -0.04    2.65
   2  12  -1   -0.38    3.80
   2  13  -9    3.67    5.30
   2  13  -8   -2.44    4.08
  -3  13  -2    1.20    4.80
  -3  13  -3   -0.33    2.75
  -3  12   5    3.13    2.73
  -3  12   5   -1.09    0.40
  -3  12   4   -1.26    3.38
  -3  12   4   -2.83    1.75
  -3  12   3    1.20    2.55
  -3  12   3    1.93    3.11
  -3  12   2   -2.80    2.22
  -3  12   1   -0.35    1.75
  -3  12   0   -2.41    3.79
  -3  12  -1    1.19    4.46
  -3  12  -2    2.92    4.01
  -3  12  -3    0.21    3.00
  -3  12  -4   -0.56    1.76
  -3  12  -5    2.61    3.18
  -3  12  -6    1.35    3.66
  -3  12  -7   -1.77    3.26
  -3  12  -8    3.64    5.11
  -3  12  -9    1.64    3.21
  -3  12 -10    4.10    7.48
  -3  12 -11   11.08   15.25
  -3  11   7   -3.87    2.52
  -3  11   6    0.32    1.73
  -3  11   5   -0.85    2.65
  -3  11   5    0.05    2.71
  -3  11   4    0.17    3.84
  -3  11   4    5.35    3.77
  -3  11   3    0.23    1.95
  -3  11   3   -0.77    1.18
  -3  11   2    4.29    5.95
  -3  11   1    3.06    3.96
  -3  11   0   -2.66    4.84
  -3  11  -1   -0.39    3.41
  -3  11  -2   16.31    8.68
  -3  11  -3   -0.18    3.48
  -3  11  -4   -0.32    3.73
  -3  11  -5    4.28    4.91
  -3  11  -6   -1.82    4.61
  -3  11  -7    8.34    8.50
  -3  11  -8   -5.75    4.41
  -3  11  -9   -3.00    5.21
  -3  11 -10    1.22    3.21
  -3  11 -11    2.46    5.50
  -3  11 -12    2.14    3.53
  -3  11 -13    1.52    5.80
  -3  11 -14    2.82    3.77
   3 -10 -10   -2.91    5.06
   3 -10  -9   -0.81    2.52
   3 -10  -8    1.65    2.80
   3 -10  -7    1.00    2.29
  -3  10   7   -1.41    2.92
  -3  10   6    5.16    4.69
   3 -10  -6    7.29    5.32
  -3  10   6    1.90    2.43
  -3  10   5    0.96    2.86
   3 -10  -5    5.22    5.18
  -3  10   5    2.79    3.62
  -3  10   4   -2.10    4.23
  -3  10   4   -1.23    2.00
  -3  10   3    3.74    3.95
  -3  10   3    2.33    2.05
  -3  10   2    4.32    5.04
  -3  10   1   -1.96    3.91
  -3  10   0   42.49   13.69
  -3  10  -1   31.47   12.38
  -3  10  -2    4.26    2.90
  -3  10  -3   18.07    9.40
  -3  10  -4    8.31    7.25
  -3  10  -5    6.33    7.12
  -3  10  -6    2.47    1.12
  -3  10  -7    1.15    2.52
  -3  10  -8    1.91    6.62
  -3  10  -9    5.16    4.67
  -3  10 -10   -4.49    1.84
  -3  10 -11    1.26    6.06
  -3  10 -12   -6.86    7.39
  -3  10 -13   -0.79    3.24
  -3  10 -14   -3.85    5.05
  -3  10 -15    4.84    9.13
  -3  10 -16   -1.45    4.15
   3  -9 -11    1.25    3.29
   3  -9 -10   -1.40    4.86
   3  -9  -9   -0.32    2.50
   3  -9  -8    5.78    5.48
  -3   9   8    7.63    4.53
   3  -9  -7    0.36    3.05
  -3   9   7   -1.37    2.07
  -3   9   6    2.24    2.10
   3  -9  -6    1.38    0.86
  -3   9   6    0.28    1.50
  -3   9   5    3.02    2.99
   3  -9  -5   -2.28    4.51
  -3   9   5    8.62    6.03
  -3   9   4   -0.23    2.96
  -3   9   4    0.31    2.10
   3  -9  -4    1.75    4.61
  -3   9   3    2.95    2.89
   3  -9  -3    5.92    4.87
  -3   9   3    2.58    3.46
  -3   9   2    1.10    1.73
   3  -9  -2   -0.71    0.71
  -3   9   1    3.89    2.87
  -3   9   0    2.82    5.26
  -3   9  -1   27.09   10.49
  -3   9  -2   33.89   12.39
  -3   9  -3    1.96    3.10
  -3   9  -4    3.18    4.50
  -3   9  -5   -2.83    5.32
  -3   9  -6   -1.21    4.59
  -3   9  -7    8.69    8.78
  -3   9  -8    6.43    6.35
  -3   9  -9    8.38    9.22
  -3   9 -10   26.03   13.54
  -3   9 -11   -1.85    7.02
  -3   9 -12    1.36    2.86
  -3   9 -13   -0.41    3.10
  -3   9 -14    1.34    2.58
  -3   9 -15    1.01    0.93
  -3   9 -16   -5.07    4.90
  -3   9 -17   -4.29    9.92
   3  -8 -13   -1.27    4.24
   3  -8 -12    1.08    0.63
   3  -8 -11    0.41    1.99
   3  -8 -10   -1.66    2.60
   3  -8  -9    2.60    3.44
  -3   8   8    1.53    2.20
   3  -8  -8    2.17    3.70
  -3   8   7   -1.24    1.42
  -3   8   7    3.65    4.06
   3  -8  -7    2.12    5.69
  -3   8   6   -0.47    1.33
   3  -8  -6    3.47    4.16
  -3   8   6   -2.03    2.99
  -3   8   5    1.70    0.14
   3  -8  -5    8.94    6.52
  -3   8   5    2.03    2.75
  -3   8   4    0.94    2.48
   3  -8  -4    2.58    3.93
  -3   8   4   -1.17    1.85
  -3   8   3    0.66    2.06
   3  -8  -3    2.15    3.13
  -3   8   2   -1.96    2.86
   3  -8  -2    3.32    4.91
  -3   8   1    5.81    3.78
   3  -8  -1    3.40    4.41
  -3   8   0   -1.54    3.03
   3  -8   0    5.17    6.63
  -3   8  -1   14.36    7.57
  -3   8  -2   -1.67    2.08
  -3   8  -3   -2.82    3.51
  -3   8  -4   -4.58    5.18
  -3   8  -5    1.56    2.80
  -3   8  -6    3.79    4.75
  -3   8  -7    1.39    1.82
  -3   8  -8    3.44    4.71
  -3   8  -9   -2.06    2.47
  -3   8 -10    3.41    3.64
  -3   8 -11   -0.79    3.37
  -3   8 -12    2.12    2.65
  -3   8 -13   10.74    9.03
  -3   8 -14   -9.91    7.91
  -3   8 -15   -1.51    4.07
  -3   8 -16   -1.39    0.69
  -3   8 -17   -0.76    1.99
  -3   8 -18    0.53    4.04
   3  -7 -14   -1.47    3.76
   3  -7 -13   13.99    7.20
   3  -7 -12    0.54    2.57
   3  -7 -12   -0.65    2.54
   3  -7 -11   -0.33    1.72
   3  -7 -11   -0.70    3.78
   3  -7 -10    4.22    3.87
   3  -7 -10    1.11    1.46
   3  -7  -9    1.73    2.11
   3  -7  -9    1.61    2.55
   3  -7  -8   14.89    7.69
   3  -7  -8   20.14    8.01
  -3   7   8   24.18    7.89
  -3   7   7    5.13    3.74
   3  -7  -7    1.48    3.30
  -3   7   7    2.84    3.07
   3  -7  -6    4.63    3.45
  -3   7   6    1.34    1.43
  -3   7   6    1.56    2.38
   3  -7  -5    4.08    4.88
  -3   7   5    4.76    3.68
  -3   7   4   -0.11    2.29
   3  -7  -4    1.62    1.97
  -3   7   3    7.45    5.40
   3  -7  -3    4.32    2.15
  -3   7   2   13.58    6.26
   3  -7  -2   15.82    7.25
  -3   7   1   -0.06    1.84
   3  -7  -1    0.16    2.05
   3  -7   0    1.86    3.52
  -3   7   0   -0.66    1.65
   3  -7   1    1.30    4.84
  -3   7  -1    0.22    0.90
  -3   7  -2    1.79    2.86
  -3   7  -3    4.39    4.64
  -3   7  -4    3.19    3.37
  -3   7  -5   -1.53    2.99
  -3   7  -6   -2.30    1.61
  -3   7  -7    1.68    3.75
  -3   7  -8    1.32    4.35
  -3   7  -9   -5.62    5.90
  -3   7 -10   -1.47    2.50
  -3   7 -11    0.08    4.84
  -3   7 -12   -5.25    6.35
  -3   7 -13   -2.71    2.95
  -3   7 -14    3.35    4.71
  -3   7 -15   -1.84    4.18
  -3   7 -16    4.33    4.69
  -3   7 -17    0.71    4.81
  -3   7 -18   -1.43    3.27
  -3   7 -19   -4.52    5.61
   3  -6 -16   42.73   14.00
   3  -6 -16   -2.08    2.69
   3  -6 -15   19.80   10.65
   3  -6 -15   16.86    9.52
   3  -6 -14   -0.10    0.41
   3  -6 -14   -0.98    2.69
   3  -6 -13   -0.01    1.65
   3  -6 -13   -6.60    4.98
   3  -6 -12    1.47    1.16
   3  -6 -12    1.41    0.82
   3  -6 -11    1.20    2.72
   3  -6 -11   -0.82    1.60
   3  -6 -10    1.82    0.97
   3  -6 -10    2.53    3.29
   3  -6  -9    2.77    2.86
   3  -6  -9    5.73    3.52
   3  -6  -8    3.41    3.52
   3  -6  -8    0.81    2.87
  -3   6   7   22.02    7.47
   3  -6  -7   27.62    9.18
   3  -6  -7   20.64    7.08
  -3   6   6    7.72    4.48
   3  -6  -6    8.70    4.83
   3  -6  -6    8.59    4.42
  -3   6   5   41.19   10.05
   3  -6  -5   37.90   10.52
   3  -6  -5   30.54    7.18
  -3   6   4   58.30   11.83
   3  -6  -4   51.14   12.77
   3  -6  -4   29.33    6.60
   3  -6  -3   44.04   11.87
   3  -6  -3   35.46    6.98
  -3   6   3   44.27   10.44
  -3   6   2    8.08    5.36
   3  -6  -2    8.04    5.97
   3  -6  -1    2.27    2.93
  -3   6   1    1.61    2.73
   3  -6   0    4.03    3.27
  -3   6   0   10.71    5.98
   3  -6   1   -0.58    2.67
  -3   6  -1   -2.23    3.74
  -3   6  -2    4.65    4.39
   3  -6   2    2.53    2.93
  -3   6  -3    4.47    2.98
  -3   6  -4   17.61    7.22
  -3   6  -5    0.51    3.60
  -3   6  -6    0.42    3.78
  -3   6  -7   -1.20    3.26
  -3   6  -8    0.50    2.57
  -3   6  -9    2.46    1.12
  -3   6 -10    7.60    5.15
  -3   6 -11    2.34    4.44
  -3   6 -12    2.51    4.29
  -3   6 -13    4.13    5.77
  -3   6 -14    2.18    3.21
  -3   6 -15    0.51    0.83
  -3   6 -16   -1.27    1.35
  -3   6 -17   -1.16    3.48
  -3   6 -18    1.08    3.36
  -3   6 -19   -1.04    4.13
   3  -6  19   -0.01    3.40
  -3   5  18    0.42    2.87
   3  -5 -17    2.00    5.69
   3  -5 -17    3.17    2.38
  -3   5  17   -4.86    5.12
  -3   5  16   -1.71    2.95
   3  -5 -16    2.28    4.50
   3  -5 -16    0.49    2.47
   3  -5 -15   -1.80    2.64
  -3   5  15    0.36    2.86
   3  -5 -15    4.38    4.82
   3  -5 -14    0.94    2.43
  -3   5  14    1.00    2.13
   3  -5 -14    1.20    4.19
   3  -5 -13   -0.87    1.79
  -3   5  13    2.56    4.35
   3  -5 -12    5.07    4.06
  -3   5  12   -2.39    3.10
   3  -5 -11   -0.50    1.23
  -3   5  11    0.13    0.26
   3  -5 -10    4.27    3.98
   3  -5  -9    2.50    2.59
   3  -5  -8    4.91    4.13
   3  -5  -7    6.68    5.17
  -3   5   7    6.10    4.03
   3  -5  -6   13.79    6.22
  -3   5   6   14.87    5.26
   3  -5  -5    8.40    5.05
  -3   5   5   16.38    5.81
   3  -5  -4    9.95    5.54
  -3   5   4   18.26    6.17
   3  -5  -3   80.03   15.06
   3  -5  -3   68.29    8.58
  -3   5   3   81.45   12.92
   3  -5  -2  189.06   22.84
   3  -5  -2  146.26   10.83
  -3   5   2  213.12   21.13
   3  -5  -1    1.55    2.31
   3  -5  -1    1.15    0.65
  -3   5   1    0.69    1.27
  -3   5   0   28.79    8.06
   3  -5   0   43.55   11.82
   3  -5   1  197.16   23.83
  -3   5  -1  180.82   21.19
   3  -5   2    0.68    2.02
  -3   5  -2    1.51    1.26
   3  -5   3   26.67    9.24
  -3   5  -3   22.33    7.82
  -3   5  -4   -4.51    4.39
  -3   5  -5   25.07    8.92
  -3   5  -6   66.83   14.65
  -3   5  -7    0.67    4.27
  -3   5  -8    4.15    4.50
  -3   5  -9   59.09   14.99
  -3   5 -10    2.52    3.92
  -3   5 -11    1.99    3.98
  -3   5 -12    5.47    5.22
  -3   5 -13    2.32    2.57
  -3   5 -14    5.91    5.63
  -3   5 -15   -0.35    5.11
  -3   5 -16    0.92    3.82
  -3   5 -17    1.49    1.00
  -3   5 -18    3.34    3.77
   3  -5  18   -0.03    2.96
  -3   5 -19   -4.27    4.17
   3  -5  19    0.56    2.36
  -3   4  18    0.00    3.34
   3  -4 -18    1.54    1.87
  -3   4  17    0.12    1.65
   3  -4 -17   -0.36    2.65
   3  -4 -16   -7.00    5.50
  -3   4  16    1.27    3.27
   3  -4 -15    0.87    1.86
  -3   4  15    4.47    5.31
  -3   4  14    0.97    3.98
   3  -4 -14   -1.41    2.04
   3  -4 -13   -0.88    3.81
  -3   4  13    0.32    1.09
   3  -4 -12    7.82    4.93
  -3   4  12    9.77    6.40
   3  -4 -11   -0.92    2.82
  -3   4  11    0.98    1.96
   3  -4 -10    1.73    2.61
  -3   4  10    4.27    4.78
  -3   4   9   17.41    7.33
   3  -4  -9   17.28    7.99
  -3   4   8    3.74    3.76
   3  -4  -8    2.24    2.72
   3  -4  -7    8.53    5.88
  -3   4   7    4.34    2.35
   3  -4  -6    5.29    5.54
  -3   4   6    1.69    0.74
   3  -4  -5  156.33   20.88
  -3   4   5  152.42   15.53
  -3   4   4   17.24    5.22
   3  -4  -4   17.81    6.51
  -3   4   3   14.38    5.33
   3  -4  -3    9.25    5.47
   3  -4  -2   21.93    7.88
  -3   4   2   20.37    6.08
   3  -4  -1   31.96    8.95
  -3   4   1   42.83    8.86
   3  -4   0   50.36   11.16
  -3   4   0   40.01    8.94
  -3   4  -1   26.23    7.72
   3  -4   1   33.24    9.20
  -3   4  -2   35.98    9.40
   3  -4   2   42.67   10.84
   3  -4   3    3.80    4.08
  -3   4  -3    3.31    3.26
  -3   4  -4    0.98    1.71
  -3   4  -5   11.79    5.43
  -3   4  -6   25.23    8.93
  -3   4  -7  195.92   14.93
  -3   4  -7  356.56   33.06
  -3   4  -8  184.79   16.20
  -3   4  -8  234.82   28.08
  -3   4  -9   42.78   12.43
  -3   4  -9   26.80    6.64
  -3   4 -10    7.73    5.40
  -3   4 -10    4.53    2.74
  -3   4 -11   -1.65    4.48
  -3   4 -11    5.93    4.08
  -3   4 -12   -1.27    2.94
  -3   4 -12    3.15    2.47
  -3   4 -13    1.63    2.47
  -3   4 -13    1.81    2.57
  -3   4 -14   -0.02    0.81
  -3   4 -15    4.64    4.15
  -3   4 -16   -0.97    3.73
  -3   4 -17    1.29    1.64
   3  -4  17    5.42    8.72
  -3   4 -18    2.32    3.49
  -3   4 -19   -3.46    5.37
  -3   3  19   -3.96    4.43
   3  -3 -19   -0.48    1.79
   3  -3 -18    2.43    1.52
  -3   3  18    2.97    4.50
  -3   3  17    1.02    3.29
   3  -3 -17    1.81    2.07
  -3   3  16    0.72    2.89
   3  -3 -16   -3.14    5.34
   3  -3 -15   -3.05    3.10
  -3   3  15    0.83    1.79
  -3   3  14   -5.53    4.47
   3  -3 -14   -4.05    5.30
   3  -3 -13    1.77    3.00
  -3   3  13   -0.43    1.81
  -3   3  12   12.61    6.46
   3  -3 -12   12.57    6.95
  -3   3  11    5.02    5.60
   3  -3 -11    5.68    3.91
   3  -3 -10    8.86    5.93
  -3   3  10    5.98    3.65
   3  -3  -9    5.63    4.34
  -3   3   9    0.98    2.07
  -3   3   8    0.12    0.80
   3  -3  -8    1.71    2.15
  -3   3   7    3.37    3.29
  -3   3   7    2.99    1.86
   3  -3  -7    1.97    3.63
   3  -3  -6   66.87   14.02
  -3   3   6   59.28   12.27
  -3   3   6   34.02    6.43
   3  -3  -5   23.91    8.22
  -3   3   5   23.32    5.47
  -3   3   4    3.26    2.04
   3  -3  -4    1.22    2.34
   3  -3  -3   18.84    6.39
  -3   3   3   17.53    5.13
  -3   3   2    8.07    3.51
   3  -3  -2    5.52    2.75
  -3   3   1   -1.86    1.81
   3  -3  -1   -0.21    0.98
   3  -3   0   20.74    6.80
   3  -3   0    9.36    2.01
  -3   3   0   13.19    5.17
   3  -3   1    5.88    3.62
   3  -3   1    0.94    0.75
  -3   3  -1    0.81    1.37
   3  -3   1    3.22    1.22
  -3   3  -2   12.29    5.34
   3  -3   2   14.17    5.80
   3  -3   3    7.88    4.10
  -3   3  -3    4.82    2.56
  -3   3  -4   17.29    6.25
  -3   3  -5   -3.79    2.10
  -3   3  -6   85.47   15.36
  -3   3  -7   51.84   12.27
  -3   3  -7   35.60    7.25
  -3   3  -8   -0.10    0.61
  -3   3  -8   -1.25    1.24
  -3   3  -9   28.10    9.92
  -3   3  -9   19.16    6.04
  -3   3 -10    3.77    4.13
  -3   3 -10    4.12    3.05
  -3   3 -11    3.94    2.65
  -3   3 -11    2.01    1.61
  -3   3 -12    4.38    5.47
  -3   3 -12    0.48    1.37
  -3   3 -13    2.91    4.08
  -3   3 -13   -1.63    2.39
  -3   3 -14   12.03    6.99
  -3   3 -14    1.11    3.40
  -3   3 -15    2.17    1.44
  -3   3 -15   -0.85    0.69
  -3   3 -16    0.06    3.61
  -3   3 -16   -1.39    1.92
   3  -3  16    4.14    7.55
  -3   3 -17    1.07    0.31
  -3   3 -18    0.30    3.45
  -3   3 -19   -4.30    4.89
  -3   2  19   -0.43    1.41
  -3   2  18    0.06    1.19
  -3   2  17    0.22    0.76
  -3   2  16    6.58    5.92
  -3   2  15    7.61    5.72
  -3   2  14    5.17    5.10
  -3   2  13    4.77    3.91
  -3   2  12    6.46    4.28
  -3   2  11   33.87    9.58
  -3   2  10   14.19    6.51
  -3   2   9   19.11    8.03
  -3   2   8   24.00    7.44
  -3   2   7   12.34    3.12
  -3   2   7   19.46    6.87
  -3   2   6    0.51    1.45
  -3   2   6    4.34    3.06
  -3   2   5   -0.10    0.62
  -3   2   5   -0.03    1.62
   3  -2  -5    2.15    2.90
   3  -2  -4    0.38    2.55
  -3   2   4    1.58    1.42
  -3   2   4   -1.20    1.89
  -3   2   3   -0.39    0.94
   3  -2  -3   -0.47    1.18
  -3   2   2    1.49    1.74
   3  -2  -2    1.53    1.61
   3  -2  -2    3.05    2.66
   3  -2  -1   17.57    5.94
  -3   2   1   15.39    4.78
   3  -2  -1   13.19    3.52
  -3   2   0   30.15    7.14
   3  -2   0   38.50    8.93
   3  -2   1  288.06   23.35
  -3   2  -1  260.61   21.81
  -3   2  -2    3.34    2.12
   3  -2   2    5.62    3.75
  -3   2  -3    1.40    2.46
   3  -2   3    0.08    1.42
  -3   2  -4   -0.37    3.00
   3  -2   4    1.47    2.32
  -3   2  -5   40.44    9.70
  -3   2  -6   -0.13    1.69
  -3   2  -7    2.73    1.51
  -3   2  -7    2.10    1.03
  -3   2  -8    0.80    0.24
  -3   2  -8    0.39    0.73
  -3   2  -9    6.41    4.09
  -3   2  -9    8.22    4.37
  -3   2 -10    2.56    3.09
  -3   2 -10    4.82    3.48
  -3   2 -11    4.43    4.81
  -3   2 -11    2.20    2.56
  -3   2 -12    1.25    2.22
  -3   2 -12    0.53    2.64
  -3   2 -13    5.55    4.91
  -3   2 -13    0.29    4.58
  -3   2 -14   -2.29    2.86
  -3   2 -14    0.29    1.12
  -3   2 -15    0.74    2.23
  -3   2 -15    3.40    3.57
  -3   2 -16   -0.59    3.46
  -3   2 -16   -1.02    3.57
  -3   2 -17   -1.86    3.02
  -3   2 -17    1.52    1.77
  -3   2 -18   -2.47    2.01
  -3   2 -18    0.31    0.38
  -3   2 -19    1.09    2.25
  -3   2 -19   -2.16    1.96
  -3   1  19    0.45    4.50
  -3   1  18    5.24    5.71
  -3   1  17    6.25   12.09
  -3   1  16    1.74    3.33
  -3   1  15    2.80    2.03
  -3   1  14   -1.06    0.47
  -3   1  13    6.49    3.13
  -3   1  12    4.89    4.13
  -3   1  11    9.40    4.76
  -3   1  10   58.91   11.89
  -3   1   9  458.84   33.06
  -3   1   8  116.32   16.04
  -3   1   7   36.16    8.63
  -3   1   7   21.41    3.15
  -3   1   6  117.31   15.34
  -3   1   6   96.54    8.46
  -3   1   5    0.32    1.15
  -3   1   5    1.60    2.78
  -3   1   4    5.38    2.45
   3  -1  -4    2.65    1.68
  -3   1   4    2.52    3.08
   3  -1  -3   59.00    8.63
  -3   1   3   84.92   12.23
  -3   1   3   77.74    9.60
   3  -1  -2   64.72    8.90
  -3   1   2   72.60    9.80
   3  -1  -2  101.38   14.63
   3  -1  -1  115.15   15.00
  -3   1   1   84.94   10.87
   3  -1   0  152.54   16.33
  -3   1   0  130.41   14.03
  -3   1  -1   33.32    7.22
   3  -1   1   41.00    8.31
  -3   1  -2    9.77    4.78
   3  -1   2    5.60    3.31
  -3   1  -3   42.84    9.07
   3  -1   3   32.20    7.10
  -3   1  -4    3.81    2.78
   3  -1   4    5.40    2.39
  -3   1  -5    0.36    1.96
  -3   1  -6   -1.76    2.42
  -3   1  -7    1.92    2.04
  -3   1  -8    0.05    2.32
  -3   1  -8    0.19    1.09
  -3   1  -9    1.98    3.20
  -3   1  -9    3.78    3.04
  -3   1 -10    0.54    1.76
  -3   1 -10    0.77    0.86
  -3   1 -11    2.42    0.77
  -3   1 -11    0.07    1.88
  -3   1 -12    4.95    3.33
  -3   1 -12    0.85    3.78
  -3   1 -13    1.62    5.23
  -3   1 -13    0.56    1.93
  -3   1 -14   -2.02    3.65
  -3   1 -14   -0.93    2.36
  -3   1 -15   -0.06    0.72
  -3   1 -15   -0.48    2.96
  -3   1 -16    3.90    4.93
  -3   1 -16    1.06    2.66
  -3   1 -17    0.13    4.45
  -3   1 -17   -0.86    2.75
  -3   1 -18    0.01    2.26
  -3   1 -18    0.85    1.80
  -3   0  19    6.22    7.76
  -3   0  18    0.24    1.64
  -3   0  17   -2.65    3.20
  -3   0  16   -0.94    3.61
  -3   0  15    1.29    1.58
  -3   0  14    1.99    5.24
  -3   0  13    2.71    2.74
  -3   0  12   22.10    8.24
  -3   0  11    5.07    4.30
  -3   0  10   28.93    8.47
  -3   0   9   15.05    5.46
  -3   0   8  305.56   25.80
  -3   0   7    2.11    1.40
  -3   0   6   15.56    5.39
  -3   0   6   20.18    3.69
  -3   0   5   24.15    6.48
  -3   0   5   19.01    3.99
   3   0  -5   20.72    5.98
   3   0  -4   12.11    4.18
  -3   0   4   14.26    4.50
  -3   0   4   12.66    3.52
   3   0  -3   93.24   12.03
  -3   0   3   99.45   12.78
  -3   0   3   82.93    9.89
  -3   0   2  301.78   21.95
  -3   0   2  267.37   18.63
  -3   0   1   12.13    4.17
   3   0  -1   12.12    5.06
   3   0   0  340.89   24.81
  -3   0   0  304.82   21.36
  -3   0  -1   16.07    5.36
   3   0   1    9.05    3.66
  -3   0  -2   -0.89    2.09
   3   0   2    2.16    2.56
  -3   0  -3   -0.20    1.09
   3   0   3    1.25    1.92
  -3   0  -4    1.87    1.45
  -3   0  -5   10.82    4.49
  -3   0  -6   20.74    6.85
  -3   0  -7    2.01    2.24
  -3   0  -8    2.19    3.00
  -3   0  -9    8.89    4.64
  -3   0  -9    7.87    4.82
  -3   0 -10   -0.73    1.99
  -3   0 -10    1.16    2.26
  -3   0 -11    3.26    3.41
  -3   0 -11    3.18    3.72
  -3   0 -12    0.33    0.65
  -3   0 -12   -0.47    0.52
  -3   0 -13    0.40    1.36
  -3   0 -13    1.30    1.56
  -3   0 -14    0.94    1.09
  -3   0 -14   -2.18    2.05
  -3   0 -15    2.27    2.79
  -3   0 -15    2.63    3.83
  -3   0 -16   -2.99    4.30
  -3   0 -16    1.44    2.24
   3   0  17   -3.94    9.62
  -3   0 -17   -6.63    5.06
  -3   0 -17   -0.56    3.34
   3   0  18    5.10    5.30
  -3   0 -18   -2.93    4.96
  -3  -1  19    0.53    3.52
  -3  -1  18    0.49    1.02
  -3  -1  17    3.78    5.02
  -3  -1  16    1.78    2.94
  -3  -1  15    7.91    5.25
  -3  -1  14    8.71    5.79
  -3  -1  13    5.04    4.53
  -3  -1  12   -1.99    4.09
  -3  -1  11    4.24    3.30
  -3  -1  10   12.91    5.49
  -3  -1   9   13.47    5.82
   3   1  -8   17.87    2.73
  -3  -1   8   18.58    6.33
   3   1  -7   48.64   10.70
  -3  -1   7   48.10    9.97
   3   1  -7   52.01    6.70
   3   1  -6    1.08    0.25
   3   1  -6   -0.84    1.40
  -3  -1   6    3.36    2.44
   3   1  -5   78.49   12.71
  -3  -1   5   67.22   10.54
   3   1  -4    6.00    3.98
  -3  -1   4    4.49    3.77
  -3  -1   4    3.98    2.52
  -3  -1   3    1.81    2.88
  -3  -1   3   -0.18    0.43
  -3  -1   2   41.31    7.81
  -3  -1   2   35.64    6.79
  -3  -1   1    4.80    2.49
  -3  -1   0    2.77    1.83
  -3  -1  -1   12.79    4.50
   3   1   1   13.44    4.30
   3   1   2    3.24    2.33
  -3  -1  -2    8.07    4.12
   3   1   3    0.98    0.81
  -3  -1  -3    0.71    1.05
  -3  -1  -4    0.97    1.81
  -3  -1  -5   68.53   11.92
  -3  -1  -6    7.67    3.79
  -3  -1  -7   38.78    9.70
  -3  -1  -8   13.82    6.03
  -3  -1  -9   -3.00    2.97
  -3  -1 -10    0.60    2.27
  -3  -1 -10   12.65    7.84
  -3  -1 -11    3.38    4.12
  -3  -1 -11    0.38    0.26
  -3  -1 -12   -1.07    3.69
  -3  -1 -12    3.74    3.96
  -3  -1 -13   30.09   11.02
  -3  -1 -13   20.93    8.45
   3   1  14   -2.93    2.55
  -3  -1 -14    0.89    4.01
  -3  -1 -14    0.93    3.18
   3   1  15  -10.87    9.02
  -3  -1 -15   -1.79    3.09
  -3  -1 -15   -1.03    3.35
  -3  -1 -16   -4.02    6.04
   3   1  16    6.98    5.20
  -3  -1 -16    4.52    5.19
   3   1  17   12.61   11.71
  -3  -1 -17   -2.48    4.26
  -3  -2  19    0.56    2.35
  -3  -2  18    2.20    3.34
  -3  -2  17    7.42    6.00
  -3  -2  16    1.25    3.41
  -3  -2  15   10.94    6.99
  -3  -2  14   23.44    9.23
  -3  -2  13   11.18    6.08
  -3  -2  12    3.28    1.33
  -3  -2  11    0.31    4.48
  -3  -2  10   14.85    5.49
  -3  -2   9    4.68    2.67
   3   2  -8   35.51    5.17
   3   2  -8   40.31   10.53
  -3  -2   8   38.84    9.26
   3   2  -7    1.42    1.47
   3   2  -7    1.31    4.31
  -3  -2   7   -2.75    3.62
   3   2  -6   13.55    4.20
   3   2  -6   10.48    4.30
  -3  -2   6    8.96    4.53
   3   2  -5   24.19    6.65
   3   2  -5   20.33    6.95
  -3  -2   5   18.88    5.62
   3   2  -4    1.56    3.06
   3   2  -4    0.02    2.96
  -3  -2   4    1.83    0.23
   3   2  -3    6.73    4.82
  -3  -2   3    2.72    2.58
  -3  -2   2   24.22    5.80
  -3  -2   2   25.24    6.15
  -3  -2   1   28.13    6.07
  -3  -2   1   25.85    6.59
  -3  -2   0    1.30    1.18
  -3  -2  -1   -0.84    0.73
   3   2   2   49.14    6.90
  -3  -2  -2   42.94    8.80
  -3  -2  -3    1.33    1.95
   3   2   3    0.74    0.57
  -3  -2  -4    0.86    2.06
  -3  -2  -5   27.01    7.43
  -3  -2  -6    5.03    3.22
  -3  -2  -7    2.07    2.82
  -3  -2  -8    9.16    5.00
  -3  -2  -9    3.83    3.86
   3   2  10    4.82    4.36
  -3  -2 -10   -1.26    2.96
   3   2  11   16.48   13.18
  -3  -2 -11    3.58    3.34
   3   2  12   30.12   15.48
  -3  -2 -12   11.33    6.31
   3   2  13    9.93    7.91
  -3  -2 -13   -0.22    0.44
  -3  -2 -13    1.13    1.80
  -3  -2 -14    8.81    6.77
   3   2  14   28.73   16.97
   3   2  15   16.16   13.26
  -3  -2 -15    1.12    3.66
   3   2  16    1.73    7.28
  -3  -2 -16   -1.09    1.06
  -3  -3  19    4.95    5.48
  -3  -3  18    5.44    4.14
  -3  -3  17    2.65    5.24
  -3  -3  16   -0.44    3.05
  -3  -3  15   32.56   11.66
  -3  -3  14   20.39    8.67
  -3  -3  13    2.46    2.97
  -3  -3  12    4.72    4.51
  -3  -3  11    1.06    2.22
  -3  -3  10   -2.77    4.51
   3   3  -9    1.88    2.88
  -3  -3   9    4.25    3.63
   3   3  -8    0.98    0.71
   3   3  -8    0.34    2.04
  -3  -3   8   -0.06    1.90
   3   3  -7   26.18    5.93
   3   3  -7   39.52   10.53
  -3  -3   7   36.13    8.85
   3   3  -6    5.77    3.12
   3   3  -6   11.02    5.60
  -3  -3   6    9.20    4.88
   3   3  -5   14.22    5.09
   3   3  -5   16.05    6.51
  -3  -3   5   19.40    5.78
   3   3  -4    1.66    0.87
  -3  -3   4    0.27    1.83
   3   3  -3    1.23    3.42
  -3  -3   3    1.28    2.14
   3   3  -2    9.65    5.61
  -3  -3   2    8.05    3.20
   3   3  -1   56.54   14.13
  -3  -3   1   44.51    7.40
   3   3   0    2.63    2.08
   3   3   1   14.89    8.01
   3   3   2    1.16    0.88
   3   3   2    9.26    7.31
   3   3   3   37.83   15.07
   3   3   4  109.98   26.50
  -3  -3  -4   42.26    9.88
  -3  -3  -5    0.59    2.23
   3   3   5   -0.26    3.07
   3   3   6    3.82    6.19
  -3  -3  -6    0.56    0.38
   3   3   7    5.38    9.98
  -3  -3  -7   -3.25    4.36
   3   3   8    6.76    9.82
   3   3   9    1.05    0.86
   3   3  10   -2.23    6.30
   3   3  11   -9.11    9.90
   3   3  12  -11.70   11.62
   3   3  13   14.98   11.81
   3   3  14    2.04    1.58
   3   3  15    4.02    7.50
  -3  -4  19   -4.03    4.67
  -3  -4  18    0.77    3.48
  -3  -4  17    3.04    4.00
  -3  -4  16   -0.88    3.14
  -3  -4  15   -0.83    3.45
  -3  -4  14   20.99    8.45
  -3  -4  13    9.81    6.58
  -3  -4  12   20.80    8.04
  -3  -4  11   26.82    9.39
   3   4 -10    3.87    3.72
  -3  -4  10    1.23    1.09
  -3  -4   9   46.06   11.56
   3   4  -9   49.68   13.15
   3   4  -8    5.30    3.03
   3   4  -8    3.18    5.38
  -3  -4   8    3.12    0.88
   3   4  -7    8.73    3.44
   3   4  -7    9.54    5.93
  -3  -4   7   11.09    5.01
   3   4  -6    1.35    1.33
   3   4  -6   -3.09    2.85
  -3  -4   6   -1.09    2.54
   3   4  -5    0.50    0.88
  -3  -4   5    0.94    1.53
  -3  -4   4  354.81   25.06
   3   4  -4  407.16   31.43
   3   4  -3   51.44   10.99
  -3  -4   3   16.46    4.92
   3   4  -2   86.26   16.35
  -3  -4   2   39.20    7.21
   3   4  -1   46.65   12.74
  -3  -4   1   14.69    4.12
   3   4   0   24.10   10.57
   3   4   1    0.78    3.91
   3   4   2   17.25    9.26
   3   4   3    7.73    6.54
   3   4   4    7.75    6.21
   3   4   5   14.69    9.83
   3   4   6   -2.15    8.33
   3   4   7   -4.82    7.03
   3   4   8   10.48    9.63
   3   4   9   -0.37    5.48
   3   4  10   -7.69    7.52
   3   4  11   52.86   24.38
   3   4  12   -0.94    5.49
   3   4  13    3.20    6.19
   3   4  14    9.33    8.89
  -3  -5  19    0.09    2.49
  -3  -5  18   -0.60    1.83
  -3  -5  17   -7.60    6.28
  -3  -5  16    1.12    3.15
  -3  -5  15   14.57    9.01
  -3  -5  14    5.86    4.80
  -3  -5  13    1.06    2.65
  -3  -5  12   -2.65    4.14
   3   5 -11   12.88    8.65
  -3  -5  11   13.56    6.70
   3   5 -10   11.64    6.65
  -3  -5  10   17.88    7.76
   3   5  -9    0.85    3.59
  -3  -5   9   -3.26    3.25
   3   5  -8   28.88    7.49
   3   5  -8   27.95    9.56
  -3  -5   8   32.25    9.50
   3   5  -7   11.76    4.95
   3   5  -7    8.75    4.41
  -3  -5   7   12.50    5.44
   3   5  -6    2.37    2.90
   3   5  -6    2.85    3.66
  -3  -5   6    1.25    3.13
   3   5  -5    2.05    2.85
  -3  -5   5    4.27    1.96
  -3  -5   4   95.68   13.36
   3   5  -4  144.45   19.60
   3   5  -3   65.33   14.12
  -3  -5   3   59.46    9.71
  -3  -5   2  880.34   34.04
   3   5  -2 1112.26   61.33
   3   5  -1    3.54    1.29
   3   5   0   11.41    5.98
   3   5   1    2.07    4.90
   3   5   2    4.69    5.94
   3   5   3   72.64   21.17
   3   5   4   37.29   14.67
   3   5   5    9.25    9.75
   3   5   6   15.22   14.15
   3   5   7    1.08    4.95
   3   5   8    8.90    7.55
   3   5   9   17.39   13.86
   3   5  10   -3.34    5.22
   3   5  11    3.74    5.12
   3   5  12    2.47    1.95
   3   5  13   11.76    8.98
  -3  -6  18   -2.41    3.71
  -3  -6  17   -4.53    4.93
  -3  -6  16   -9.55    6.92
  -3  -6  15   10.26    8.61
  -3  -6  14   -2.16    3.00
  -3  -6  13    1.61    3.15
   3   6 -12    2.33    4.31
  -3  -6  12    3.34    3.35
   3   6 -11    2.55    3.09
  -3  -6  11   -2.55    3.48
   3   6 -10   -3.04    3.27
  -3  -6  10   -1.16    2.83
   3   6  -9    1.46    2.98
   3   6  -9    5.76    4.94
  -3  -6   9   -0.42    0.64
   3   6  -8   23.72    7.27
   3   6  -8   20.36    8.95
  -3  -6   8   32.51    9.40
   3   6  -7   10.83    4.67
   3   6  -7   13.92    6.89
  -3  -6   7    9.36    5.14
   3   6  -6    5.57    4.42
   3   6  -6   -0.75    1.27
  -3  -6   6    3.10    2.44
   3   6  -5   42.57   10.56
  -3  -6   5   47.46   10.32
  -3  -6   4  145.15   16.89
   3   6  -4  155.44   21.27
   3   6  -3    3.55    5.09
   3   6  -2    6.65    4.45
   3   6  -1    9.89    4.80
   3   6   0    6.68    6.04
   3   6   1   -0.85    1.88
   3   6   2    7.49    7.48
   3   6   3   13.01    7.55
   3   6   4   24.00   12.44
   3   6   5   23.23   11.23
   3   6   6   12.43   10.48
   3   6   7   18.19   11.81
   3   6   8   -1.33    2.71
   3   6   9    7.22    9.92
   3   6  10  -12.50   12.61
   3   6  11   -7.08    7.26
  -3  -7  18   -3.49    4.67
  -3  -7  17    2.09    4.12
  -3  -7  16    1.40    2.70
  -3  -7  15    5.80    5.95
  -3  -7  14   -4.24    4.39
  -3  -7  13   -3.52    3.86
   3   7 -12    0.33    1.81
  -3  -7  12    3.34    3.47
   3   7 -11   12.26    8.00
  -3  -7  11    6.62    5.23
   3   7 -10   -0.76    1.76
  -3  -7  10   -1.06    2.76
   3   7  -9   12.24    5.72
   3   7  -9   22.26    9.62
  -3  -7   9   13.60    6.62
   3   7  -8    9.13    5.05
   3   7  -8    6.26    5.25
  -3  -7   8    9.47    6.33
   3   7  -7    0.35    2.62
   3   7  -7    4.81    4.84
  -3  -7   7   -0.90    2.48
   3   7  -6    0.32    2.22
   3   7  -6   -0.04    1.22
  -3  -7   6   -0.06    1.21
   3   7  -5   25.98   10.06
   3   7  -4    5.53    3.94
   3   7  -3    2.86    3.38
   3   7  -2    6.36    6.40
   3   7  -1    2.12    4.03
   3   7   0    0.18    2.82
   3   7   1    8.78    7.56
   3   7   2    0.77    1.69
   3   7   3    2.91    8.07
   3   7   4   -6.37    7.84
   3   7   5   -3.99    4.75
   3   7   6   -7.14    6.26
   3   7   7  -15.12   11.73
   3   7   8   22.78   12.75
   3   7   9   -3.70    5.71
   3   7  10   -3.16    7.06
  -3  -8  17    0.04    1.21
  -3  -8  16   -0.01    2.75
  -3  -8  15   -2.45    3.62
  -3  -8  14   -0.41    0.40
   3   8 -13   22.07   11.62
  -3  -8  13    9.20    7.63
   3   8 -12   -0.47    2.85
  -3  -8  12    2.94    2.58
   3   8 -11    2.15    2.99
  -3  -8  11   18.20   10.86
   3   8 -10    1.91    2.90
  -3  -8  10    7.27    7.33
   3   8  -9   11.70    7.97
  -3  -8   9   14.00    7.38
   3   8  -8   -1.04    2.72
   3   8  -8   -4.80    4.14
  -3  -8   8    0.72    1.97
   3   8  -7    4.65    3.94
   3   8  -7    2.70    4.12
   3   8  -6   -3.30    2.76
   3   8  -6    0.35    1.97
   3   8  -5    1.63    2.71
   3   8  -4   -2.31    2.16
   3   8  -3    0.88    2.81
   3   8  -2   -5.59    5.37
   3   8  -1    7.62    6.50
   3   8   0   -0.40    1.75
   3   8   1    9.43    7.16
   3   8   2   -0.18    3.54
   3   8   3   -1.66    2.29
   3   8   4    1.65    3.49
   3   8   5   -1.23    1.94
   3   8   6    6.64    6.87
   3   8   7    6.96   11.43
   3   8   8    2.14    3.97
  -3  -9  16    0.01    2.58
  -3  -9  15    0.21    3.32
  -3  -9  14    4.41    5.33
   3   9 -13    0.48    3.08
  -3  -9  13   -9.82    6.87
   3   9 -12   12.56    8.20
  -3  -9  12    4.86    4.66
  -3  -9  11   20.30    8.93
   3   9 -11   20.47   10.46
   3   9 -10    4.43    3.38
   3   9  -9    9.41    6.77
   3   9  -8    0.50    0.70
   3   9  -8    1.13    1.63
   3   9  -7   -0.04    1.83
   3   9  -7    2.30    0.31
   3   9  -6    3.27    1.43
   3   9  -6   -1.20    1.33
   3   9  -5   -2.65    4.26
   3   9  -4    4.91    5.13
   3   9  -3    0.74    3.79
   3   9  -2    1.61    5.32
   3   9  -1   10.21    7.19
   3   9   0   -1.56    3.66
   3   9   1   -3.47    5.94
   3   9   2   10.26    7.68
   3   9   3    6.08    4.54
   3   9   4    2.38    6.13
   3   9   5    0.94    2.91
   3   9   6    2.26    6.24
  -3 -10  15   -4.41    5.26
  -3 -10  14   -2.00    3.42
   3  10 -13    1.29    2.83
   3  10 -12   -0.09    3.64
   3  10 -11    1.02    0.57
   3  10 -10   -0.11    1.41
   3  10  -9    0.49    4.12
   3  10  -8    2.70    4.10
   3  10  -8   -0.47    5.03
   3  10  -7   -1.11    3.00
   3  10  -7   -3.66    6.03
   3  10  -6    5.50    5.71
   3  10  -6   -1.01    3.44
   3  10  -5    2.66    2.20
   3  10  -4   18.76    9.91
   3  10  -3   -3.69    4.98
   3  10  -2    5.92    6.61
   3  10  -1   -1.71    4.32
   3  10   0    6.59    6.45
   3  10   1    3.98    3.40
   3  10   2   -3.98    6.55
   3  10   3   10.72    8.39
   3  11  -9    2.87    3.38
   3  11  -8    7.00    4.51
   3  11  -8    6.14    5.44
   3  11  -7    3.31    3.33
   3  11  -7   -1.42    4.01
   3  11  -6   -2.93    2.17
   3  11  -6    0.53    4.02
   3  11  -5    1.77    4.43
   3  11  -4   -0.54    4.14
   3  11  -3    2.41    3.72
   3  11  -2    1.97    1.75
   3  11  -1    3.50    4.30
   3  12  -7    2.90    2.70
   3  12  -6   -1.93    3.85
  -4  12   3   -1.31    4.46
  -4  12   2    2.48    4.76
  -4  12   1    1.34    5.58
  -4  12   0    0.05    1.84
  -4  12  -1   -2.93    4.70
  -4  12  -2    0.68    3.27
  -4  12  -3    1.68    5.23
  -4  12  -4    1.65    3.06
  -4  12  -5    6.63    5.29
  -4  11   3    1.85    4.38
  -4  11   2    5.16    6.47
  -4  11   1   -0.16    2.30
  -4  11   0    0.06    3.35
  -4  11  -1    3.93    5.40
  -4  11  -2    2.56    4.21
  -4  11  -3    9.24    5.53
  -4  11  -4   13.22    9.22
  -4  11  -5   13.11    7.13
  -4  11  -6   -3.55    4.57
  -4  11  -7    0.71    0.88
  -4  11  -8    3.34    4.46
  -4  11  -9    5.59    5.18
  -4  11 -10   -6.01    7.59
   4 -10  -8   -0.21    3.50
   4 -10  -7   -0.96    2.01
   4 -10  -6    0.23    2.08
   4 -10  -5    1.72    2.47
   4 -10  -4    1.41    0.99
  -4  10   4   -1.84    2.90
   4 -10  -3   -1.86    0.83
  -4  10   3   -0.73    2.35
  -4  10   2    5.41    5.93
  -4  10   1    1.50    3.67
  -4  10   0   -2.28    4.44
  -4  10  -1   -4.55    8.82
  -4  10  -2   -1.19    6.54
  -4  10  -3   -2.63    3.25
  -4  10  -4    5.39    4.28
  -4  10  -5   -2.50    3.97
  -4  10  -6   -3.02    6.08
  -4  10  -7    4.75    6.62
  -4  10  -8   -0.41    3.40
  -4  10  -9   -1.18    0.72
  -4  10 -10   -0.12    1.56
  -4  10 -11   -3.40    8.20
  -4  10 -12   -4.19    5.61
   4  -9 -10   -7.07    5.99
   4  -9  -9   -7.87    6.28
   4  -9  -8    0.56    3.56
   4  -9  -7   -2.89    5.44
   4  -9  -6    8.33    7.34
   4  -9  -5    0.80    3.29
   4  -9  -4    0.40    5.96
  -4   9   4    3.15    4.90
   4  -9  -3    9.28    6.74
  -4   9   3    2.45    2.32
   4  -9  -2   -0.43    2.46
  -4   9   2    1.23    2.80
   4  -9  -1    7.61    7.30
  -4   9   1    5.53    5.48
  -4   9   0   -1.90    3.62
  -4   9  -1    3.49    1.47
  -4   9  -2    2.31    1.89
  -4   9  -3    2.42    4.36
  -4   9  -4   21.87   11.60
  -4   9  -5   -1.21    5.12
  -4   9  -6   -1.26    3.91
  -4   9  -7   -0.23    1.58
  -4   9  -8    2.55    3.14
  -4   9  -9    0.61    3.49
  -4   9 -10   -0.28    3.84
  -4   9 -11   -0.79    5.39
  -4   9 -12    0.13    5.80
  -4   9 -13    1.32    4.07
  -4   9 -14   -2.59    4.47
   4  -8 -12    2.27    4.39
   4  -8 -11   -0.67    1.68
   4  -8 -10    7.43    7.05
   4  -8  -9   -1.75    0.88
   4  -8  -8    0.03    2.15
   4  -8  -7    1.80    3.72
   4  -8  -6    9.88    7.60
  -4   8   5    6.03    4.56
   4  -8  -5    7.63    6.84
   4  -8  -4    6.94    5.60
  -4   8   4    4.72    5.29
   4  -8  -3    3.35    4.47
  -4   8   3   -0.65    1.73
   4  -8  -2    1.85    2.12
  -4   8   2   -0.83    1.08
   4  -8  -1    7.65    4.88
  -4   8   1    2.80    2.59
   4  -8   0    1.90    3.59
  -4   8   0   -1.18    1.65
   4  -8   1   -1.62    3.31
  -4   8  -1   -3.96    3.66
  -4   8  -2   -3.09    1.80
  -4   8  -3    5.81    4.06
  -4   8  -4   -0.12    4.10
  -4   8  -5    0.23    2.03
  -4   8  -6    3.39    5.59
  -4   8  -7   -4.16    6.02
  -4   8  -8    2.35    3.65
  -4   8  -9    0.83    3.26
  -4   8 -10    0.94    1.19
  -4   8 -11    0.72    3.19
  -4   8 -12    1.93    3.53
  -4   8 -13   -1.79    1.88
  -4   8 -14   -1.99    5.64
  -4   8 -15   -3.16    5.34
   4  -7 -13   -7.66    6.16
   4  -7 -12    7.38    7.14
   4  -7 -11    5.85    4.81
   4  -7 -10   17.11   17.65
   4  -7  -9    2.07    3.38
   4  -7  -8    1.96    3.31
   4  -7  -7    0.41    1.89
   4  -7  -6   15.23    9.24
   4  -7  -5    3.03    4.96
  -4   7   5   -0.62    2.60
  -4   7   4    5.44    3.88
   4  -7  -4   12.89    7.09
  -4   7   3    5.39    4.37
   4  -7  -3    9.33    7.58
  -4   7   2   -0.36    1.55
   4  -7  -2   -1.92    2.01
  -4   7   1   -2.13    1.69
   4  -7  -1    0.72    2.35
   4  -7   0   -2.84    2.73
  -4   7   0   -1.04    0.37
   4  -7   1    6.11    6.76
  -4   7  -1    5.01    2.91
   4  -7   2    1.38    4.49
  -4   7  -2   -0.44    1.80
  -4   7  -3    4.86    6.03
  -4   7  -4   -1.74    2.71
  -4   7  -5    6.77    6.29
  -4   7  -6    4.37    5.46
  -4   7  -7   -2.15    3.66
  -4   7  -8    0.63    3.15
  -4   7  -9    7.23    6.58
  -4   7 -10   -1.61    4.03
  -4   7 -11    2.09    3.56
  -4   7 -12   -6.19    6.75
  -4   7 -13   -2.94    1.63
  -4   7 -14   -1.73    2.33
  -4   7 -15    1.93    6.04
  -4   7 -16   -4.91    7.35
   4  -6 -14    0.31    3.25
   4  -6 -13   -0.40    4.43
   4  -6 -12    2.43    3.42
   4  -6 -11   -0.44    2.58
   4  -6 -10    1.63    3.58
   4  -6  -9   -0.48    5.26
   4  -6  -8   -1.89    4.87
   4  -6  -7   -1.55    0.97
   4  -6  -6    2.35    4.88
   4  -6  -5    1.13    2.24
  -4   6   5   -0.30    2.94
   4  -6  -4   -2.26    3.88
  -4   6   4    1.76    1.33
   4  -6  -3    0.81    2.73
  -4   6   3   -0.90    2.04
  -4   6   2    8.88    4.61
   4  -6  -2   11.67    7.83
  -4   6   1   -0.09    3.19
   4  -6  -1    0.39    2.69
  -4   6   0    0.64    1.00
   4  -6   0    4.42    3.11
  -4   6  -1   17.35    7.05
   4  -6   1   23.42   10.24
   4  -6   2    4.50    3.20
  -4   6  -2    2.48    1.60
  -4   6  -3   54.44   13.75
  -4   6  -4    5.65    6.35
  -4   6  -5   -0.27    3.66
  -4   6  -6    3.69    4.25
  -4   6  -7    1.85    2.25
  -4   6  -8    0.42    3.62
  -4   6  -9   44.41   14.63
  -4   6 -10    5.42    5.41
  -4   6 -11    6.20    6.93
  -4   6 -12    5.09    5.49
  -4   6 -13   -1.40    4.06
  -4   6 -14   -0.66    2.81
  -4   6 -15    0.07    1.92
  -4   6 -16    1.33    4.79
   4  -5 -15   -0.36    5.97
   4  -5 -14    9.69    7.67
   4  -5 -13   -0.60    2.92
   4  -5 -12   -0.83    2.24
   4  -5 -11    3.92    2.99
   4  -5 -10    4.77    5.75
   4  -5  -9    3.38    6.98
   4  -5  -8    2.23    2.69
   4  -5  -7    1.57    1.80
   4  -5  -6   -0.91    3.38
  -4   5   5   12.57    5.67
   4  -5  -5   10.93    7.43
   4  -5  -4    6.88    5.68
  -4   5   4    4.46    4.07
   4  -5  -3   43.35   12.61
  -4   5   3   26.89    8.46
   4  -5  -2    1.00    3.05
  -4   5   2   -0.17    1.92
   4  -5  -1   -2.53    4.44
  -4   5   1    0.23    2.37
  -4   5   0    0.71    1.51
   4  -5   0    1.91    4.28
  -4   5  -1   24.78    8.66
   4  -5   1   21.64    9.14
  -4   5  -2    1.14    0.77
   4  -5   2    3.96    4.02
  -4   5  -3    3.87    3.94
   4  -5   3    3.00    2.77
  -4   5  -4    0.97    1.66
  -4   5  -5    1.45    4.46
  -4   5  -6    1.77    2.40
  -4   5  -7    3.28    3.40
  -4   5  -8   13.91    8.94
  -4   5  -9   25.51   11.32
  -4   5 -10   39.86   12.96
  -4   5 -11   19.74    9.43
  -4   5 -12    2.98    4.19
  -4   5 -13    3.37    3.89
  -4   5 -14   -1.81    4.16
  -4   5 -15   -0.87    1.04
  -4   5 -16    1.49    0.45
  -4   4  16    2.98    4.41
   4  -4 -16    6.40    7.24
  -4   4  15    0.00    0.40
   4  -4 -15   -0.13    4.31
  -4   4  14    3.29    4.31
   4  -4 -14   -1.04    3.39
  -4   4  13    0.05    0.45
   4  -4 -13   -1.05    4.41
  -4   4  12    6.26    4.88
   4  -4 -12   -1.72    6.33
  -4   4  11   -0.31    1.82
   4  -4 -11    8.10    7.23
  -4   4  10    8.68    6.72
   4  -4 -10    3.34    5.97
   4  -4  -9   -4.28    6.25
   4  -4  -8    2.61    2.66
   4  -4  -7    0.79    3.58
   4  -4  -6   65.51   16.34
   4  -4  -5   61.74   15.24
  -4   4   5   65.54   11.72
  -4   4   4   18.49    6.37
   4  -4  -4   20.17    7.78
  -4   4   3   19.32    6.82
   4  -4  -3   18.73    7.86
  -4   4   2   -0.27    3.10
   4  -4  -2   -1.64    0.53
   4  -4  -1   -0.07    1.08
  -4   4   1    1.41    3.40
   4  -4   0    2.16    2.33
  -4   4   0    3.07    3.84
  -4   4  -1    6.98    4.27
   4  -4   1    8.27    4.28
  -4   4  -2    4.51    2.38
   4  -4   2    6.94    4.63
  -4   4  -3    2.64    3.52
   4  -4   3    4.08    4.42
  -4   4  -4   -1.20    2.07
  -4   4  -5    1.36    2.09
  -4   4  -6    0.12    1.33
  -4   4  -7    3.31    3.12
  -4   4  -8    5.68    4.78
  -4   4  -9   -1.26    1.03
  -4   4 -10    2.71    3.88
  -4   4 -11    4.41    4.38
  -4   4 -12   -0.44    2.54
  -4   4 -13    2.80    1.12
  -4   4 -14    1.46    3.52
  -4   4 -15    3.50    3.64
  -4   4 -16   -2.31    1.80
  -4   4 -17   -2.40    3.31
  -4   3  17    0.14    0.81
  -4   3  16    0.05    3.11
   4  -3 -16  -11.98    8.47
   4  -3 -15    1.22    5.33
  -4   3  15    5.67    5.57
   4  -3 -14   -1.02    1.10
  -4   3  14    2.45    3.73
   4  -3 -13   11.62    7.34
  -4   3  13    8.65    6.80
   4  -3 -12   -0.72    4.75
  -4   3  12   -0.73    1.59
   4  -3 -11   -8.88    6.67
  -4   3  11   -0.13    1.68
  -4   3  10    2.42    3.07
   4  -3 -10    8.46    6.98
  -4   3   9    0.15    3.76
   4  -3  -9    0.00    2.93
   4  -3  -8   98.06   20.87
  -4   3   8   71.62   14.36
   4  -3  -7   41.24   13.42
  -4   3   6    4.63    3.09
   4  -3  -6    1.02    1.46
  -4   3   5    6.38    3.53
   4  -3  -5   11.77    6.57
   4  -3  -4  201.89   26.69
  -4   3   4  110.28   14.65
   4  -3  -3   57.32   13.90
  -4   3   3   49.33   10.06
  -4   3   2    0.91    1.80
   4  -3  -2    0.05    0.23
  -4   3   1    1.34    1.07
   4  -3  -1   -1.70    2.64
   4  -3   0    1.46    3.20
  -4   3   0    1.23    2.49
   4  -3   0    0.20    1.54
   4  -3   1   15.10    6.40
  -4   3  -1   13.92    5.70
   4  -3   1    7.99    2.81
  -4   3  -2    2.97    2.79
   4  -3   2    1.49    2.25
  -4   3  -3    2.38    3.30
   4  -3   3   -2.24    0.79
  -4   3  -4    2.88    1.89
   4  -3   4    9.22    5.18
  -4   3  -5    2.43    3.11
  -4   3  -6   17.23    7.09
  -4   3  -7   13.54    6.70
  -4   3  -8    0.31    2.47
  -4   3  -9   -0.72    2.24
  -4   3 -10    1.06    2.51
  -4   3 -11   -0.56    0.67
  -4   3 -12    0.15    1.48
  -4   3 -13   -1.87    2.75
  -4   3 -14    0.05    1.68
  -4   3 -15    0.76    0.49
  -4   3 -16    1.35    4.92
  -4   3 -17   -1.23    3.05
   4  -2 -17    2.81    3.74
  -4   2  17    0.00    1.41
  -4   2  16    0.40    1.29
  -4   2  15    5.57    4.81
  -4   2  14   -1.26    2.15
  -4   2  13    0.80    3.49
  -4   2  12    3.90    3.81
  -4   2  11   -1.44    0.64
  -4   2  10   24.43    8.34
   4  -2  -9   11.55    6.32
  -4   2   9    6.83    3.93
   4  -2  -8    6.30    5.24
  -4   2   8    6.49    4.78
  -4   2   7   27.69    8.31
   4  -2  -7   45.42   14.48
  -4   2   6  475.84   35.28
  -4   2   6  462.86   24.77
  -4   2   5    5.95    3.19
   4  -2  -5    4.82    5.96
   4  -2  -4   46.57   12.99
  -4   2   4   28.67    7.00
  -4   2   3    1.72    1.24
   4  -2  -3    1.60    0.78
   4  -2  -3    4.34    5.23
  -4   2   2   -1.17    2.19
   4  -2  -2    4.87    4.18
   4  -2  -2    0.88    1.58
  -4   2   1   20.06    6.77
   4  -2  -1   19.81    5.40
   4  -2  -1   23.10    7.81
  -4   2   0   11.90    4.31
   4  -2   0   18.48    7.29
  -4   2  -1    6.57    3.63
   4  -2   1    0.04    0.96
  -4   2  -2   69.31   12.62
   4  -2   2   75.37   14.27
  -4   2  -3    6.47    4.08
   4  -2   3    9.50    5.45
  -4   2  -4   12.51    5.73
   4  -2   4    9.26    4.18
  -4   2  -5   10.63    5.47
  -4   2  -6    5.11    4.03
  -4   2  -7   15.19    6.08
  -4   2  -8    4.96    3.95
  -4   2  -9    2.17    1.21
  -4   2 -10   -0.73    1.86
  -4   2 -11    2.33    3.71
  -4   2 -12   -0.10    3.38
  -4   2 -13    2.67    3.05
  -4   2 -14    0.94    2.88
  -4   2 -15   -2.12    4.06
  -4   2 -16   -1.90    1.30
  -4   1  17    0.18    1.92
  -4   1  16    3.08    3.49
  -4   1  15   -0.42    1.93
  -4   1  14    1.92    3.88
  -4   1  13    0.56    3.04
  -4   1  12   12.81    6.49
  -4   1  11    1.72    1.30
  -4   1  10    9.66    4.46
  -4   1   9    2.25    2.80
  -4   1   8   11.91    5.65
  -4   1   7   -1.16    0.27
  -4   1   6   30.52    8.69
  -4   1   6   19.17    4.87
  -4   1   5    7.94    3.31
   4  -1  -5   19.23    6.91
   4  -1  -5   18.32    9.10
  -4   1   5    5.65    3.61
  -4   1   4    0.98    1.51
   4  -1  -4    1.33    1.88
   4  -1  -4    1.33    3.58
  -4   1   3    1.08    0.96
   4  -1  -3    0.02    1.26
   4  -1  -3    1.61    3.70
  -4   1   2    1.68    3.16
   4  -1  -2    1.60    1.47
   4  -1  -2   -3.06    4.45
  -4   1   1   10.39    4.22
   4  -1  -1   13.74    6.44
  -4   1   0   24.49    6.91
   4  -1   0   39.28    9.76
   4  -1   1  101.54   15.50
  -4   1  -1   72.77   12.11
  -4   1  -2    1.77    2.20
   4  -1   2    1.25    1.72
  -4   1  -3    8.75    4.57
   4  -1   3   10.89    4.76
  -4   1  -4    4.94    3.34
   4  -1   4    7.05    3.82
  -4   1  -5   11.66    6.70
  -4   1  -6   15.62    6.64
  -4   1  -7   16.85    6.74
  -4   1  -8    3.50    3.94
  -4   1  -9   13.71    7.39
  -4   1 -10   -3.45    4.14
  -4   1 -11    0.58    2.19
  -4   1 -12   -0.55    2.39
  -4   1 -13    1.10    2.26
  -4   1 -14    4.71    5.52
  -4   1 -15    0.36    2.64
  -4   1 -16    3.62    4.26
  -4   0  18   -1.39    2.46
  -4   0  17   -4.51    4.30
  -4   0  16   -4.39    4.13
  -4   0  15    5.74    4.23
  -4   0  14   -0.70    2.11
  -4   0  13    0.66    1.39
  -4   0  12   11.54    6.25
  -4   0  11    2.85    3.58
  -4   0  10    0.08    1.96
  -4   0   9    2.02    2.79
  -4   0   8    2.26    1.05
  -4   0   7    4.32    3.54
   4   0  -6    7.95    5.19
  -4   0   6    3.81    2.94
  -4   0   6    2.99    2.16
   4   0  -5    0.12    3.11
  -4   0   5    1.98    2.35
  -4   0   5    0.56    1.47
   4   0  -4    7.30    4.42
  -4   0   4    3.71    2.57
  -4   0   4    5.05    2.73
   4   0  -3    2.93    2.90
   4   0  -3    4.44    2.43
  -4   0   3    3.11    2.11
   4   0  -2   28.64    9.31
  -4   0   2   12.53    5.15
   4   0  -1   23.05    8.00
  -4   0   1   18.21    5.93
   4   0   0   33.25    9.10
  -4   0   0   31.25    7.96
   4   0   1   -1.77    3.22
  -4   0  -1    0.39    1.49
  -4   0  -2    0.45    1.49
   4   0   2    2.75    2.45
   4   0   3   -0.95    0.81
  -4   0  -3    0.47    2.69
   4   0   4    6.12    3.00
  -4   0  -4   10.60    4.58
  -4   0  -5   -0.11    1.76
  -4   0  -6    2.55    3.53
  -4   0  -7   13.39    6.28
  -4   0  -8    1.33    1.11
  -4   0  -9    2.47    2.86
  -4   0 -10    3.29    3.94
  -4   0 -11    0.54    1.60
  -4   0 -12    0.67    3.00
  -4   0 -13   -0.61    0.56
  -4   0 -14   -0.37    1.60
  -4   0 -15    2.82    6.25
  -4  -1  18    0.19    1.15
  -4  -1  17    8.74    7.23
  -4  -1  16    0.99    0.76
  -4  -1  15    5.00    5.34
  -4  -1  14   10.31    5.99
  -4  -1  13    9.86    6.01
  -4  -1  12    1.57    1.43
  -4  -1  11    1.08    2.06
  -4  -1  10   -1.25    1.95
  -4  -1   9   -0.96    2.26
  -4  -1   8    2.29    2.59
   4   1  -7    4.28    4.37
  -4  -1   7   -0.14    1.51
   4   1  -6    1.80    1.34
   4   1  -6    1.68    2.66
  -4  -1   6    2.90    3.94
   4   1  -5    6.21    5.43
  -4  -1   5    5.83    4.00
   4   1  -4    3.12    2.81
  -4  -1   4    2.00    1.45
  -4  -1   4    0.14    2.02
   4   1  -3   20.50    6.73
  -4  -1   3   20.48    6.58
  -4  -1   3   15.31    4.99
  -4  -1   2    2.05    2.22
   4   1  -1    1.12    1.03
  -4  -1   1    1.19    1.10
   4   1   0    7.60    4.45
  -4  -1   0    5.57    3.44
   4   1   1    2.67    2.48
  -4  -1  -1    0.67    2.20
   4   1   2   12.36    4.54
  -4  -1  -2    8.17    4.42
  -4  -1  -3    0.07    1.80
  -4  -1  -4   -0.67    1.04
  -4  -1  -5   -2.34    2.57
  -4  -1  -6   -0.10    0.23
  -4  -1  -7   -2.81    2.93
  -4  -1  -8    2.73    3.23
  -4  -1  -9   -0.70    1.03
  -4  -1 -10    0.63    1.44
  -4  -1 -11    2.70    2.85
  -4  -1 -12   -2.25    2.78
  -4  -1 -13   -1.98    3.25
   4   1  14    5.99    4.47
  -4  -1 -14    0.36    3.37
  -4  -1 -15    0.89    0.51
  -4  -2  18   -2.66    3.46
  -4  -2  17   -3.35    3.77
  -4  -2  16    4.40    5.40
  -4  -2  15    5.16    4.62
  -4  -2  14   -0.17    0.75
  -4  -2  13    8.62    5.09
  -4  -2  12   -0.49    1.81
  -4  -2  11   -1.13    2.39
  -4  -2  10    5.16    3.48
   4   2  -9    3.64    4.51
  -4  -2   9    0.26    0.87
   4   2  -8   -2.24    3.12
  -4  -2   8   -1.44    2.49
   4   2  -7    2.64    1.39
   4   2  -7    2.97    3.49
  -4  -2   7    2.94    0.89
   4   2  -6    4.71    5.13
   4   2  -6    3.16    3.62
  -4  -2   6   -0.06    2.89
   4   2  -5   25.38    9.38
   4   2  -5   11.65    6.91
  -4  -2   5   10.41    4.38
   4   2  -4    9.94    8.22
   4   2  -4    1.19    1.82
  -4  -2   4    1.00    2.66
   4   2  -3    0.35    2.51
  -4  -2   3    0.02    1.77
  -4  -2   2   10.97    4.11
  -4  -2   1   -1.09    1.59
   4   2   0    1.89    2.62
  -4  -2   0    0.02    1.79
   4   2   1    0.41    1.67
  -4  -2  -1    0.98    1.35
  -4  -2  -2    1.80    1.34
  -4  -2  -3    0.89    1.65
  -4  -2  -4    3.74    3.73
  -4  -2  -5   -0.25    1.29
  -4  -2  -6    4.46    3.20
  -4  -2  -7    2.52    2.24
  -4  -2  -8   -0.21    1.78
  -4  -2  -9    5.46    4.36
   4   2  10   12.55   14.02
  -4  -2 -10    3.22    3.86
   4   2  11   16.19   10.60
  -4  -2 -11   -1.25    1.06
   4   2  12    6.93    9.16
  -4  -2 -12    0.19    1.92
   4   2  13   -9.55   12.41
  -4  -3  17   -3.12    3.72
  -4  -3  16    0.45    2.17
  -4  -3  15   10.87    7.18
  -4  -3  14    2.54    2.48
  -4  -3  13    0.87    1.83
  -4  -3  12    1.35    0.78
  -4  -3  11    1.70    0.92
   4   3 -10    3.26    2.59
  -4  -3  10   -1.66    3.06
   4   3  -9   11.83    6.49
  -4  -3   9    8.09    5.54
   4   3  -8  100.79   19.05
  -4  -3   8   77.54   14.51
   4   3  -7   19.63    6.81
   4   3  -7    7.38    5.65
  -4  -3   7   13.81    5.54
   4   3  -6   16.11    6.94
   4   3  -6   19.47    7.67
  -4  -3   6   14.55    6.05
   4   3  -5   -0.93    3.55
   4   3  -5    0.26    2.49
  -4  -3   5    1.80    2.79
   4   3  -4    4.81    5.62
  -4  -3   4    1.49    1.98
   4   3  -3   11.66    8.57
  -4  -3   3    3.69    3.17
   4   3  -2    1.21    7.06
   4   3  -1  373.37   52.15
   4   3   0  390.74   57.37
   4   3   1    1.82    5.73
   4   3   2   39.02   21.58
   4   3   3   51.54   27.60
   4   3   4  -21.09   16.90
  -4  -3  -4    0.66    1.75
   4   3   5    8.81   14.38
  -4  -3  -5   -1.60    2.93
   4   3   6   20.34   14.65
  -4  -3  -6    0.08    1.53
   4   3   7   14.52   13.96
   4   3   8   -5.33    6.31
   4   3   9   11.35   15.08
   4   3  10    3.59    3.22
   4   3  11    8.21   11.24
   4   3  12    6.23    8.33
  -4  -4  17   -0.94    2.11
  -4  -4  16    3.76    4.58
  -4  -4  15    3.30    2.92
  -4  -4  14   -0.05    0.55
  -4  -4  13    1.24    0.91
  -4  -4  12   -1.85    2.36
   4   4 -11    5.37    3.46
  -4  -4  11    5.63    4.78
   4   4 -10   10.08    6.55
  -4  -4  10    5.29    4.10
   4   4  -9   -0.07    3.86
  -4  -4   9   -0.55    2.83
   4   4  -8    5.91    6.66
  -4  -4   8    3.83    3.74
   4   4  -7    3.60    3.70
   4   4  -7    5.42    4.93
  -4  -4   7    3.29    3.05
   4   4  -6    5.87    4.91
   4   4  -6   20.78    7.88
  -4  -4   6    1.11    2.53
   4   4  -5    9.13    5.77
   4   4  -5    9.12    6.10
  -4  -4   5    8.36    4.86
   4   4  -4   10.36    6.63
  -4  -4   4    2.37    1.85
   4   4  -3    5.39    6.71
  -4  -4   3    2.63    2.34
   4   4  -2   94.05   24.50
   4   4  -1   66.37   20.77
   4   4   0  134.59   32.72
   4   4   1  461.90   67.38
   4   4   2   -1.28   13.52
   4   4   3   26.77   19.31
   4   4   4   46.32   42.32
   4   4   5   23.13   25.32
   4   4   6   19.83   15.56
   4   4   7    3.38   13.61
   4   4   8   -8.62    6.44
   4   4   9   13.71   15.65
   4   4  10   -4.01    4.86
   4   4  11   -6.70    4.06
  -4  -5  17    0.01    1.30
  -4  -5  16   -1.12    2.32
  -4  -5  15    0.50    3.22
  -4  -5  14    1.95    4.15
  -4  -5  13    1.11    1.01
  -4  -5  12    0.81    3.23
   4   5 -11    3.23    4.32
  -4  -5  11   -2.55    2.06
   4   5 -10   -0.51    3.42
  -4  -5  10    2.62    3.16
   4   5  -9    8.20    4.38
  -4  -5   9    2.35    2.22
   4   5  -8    4.03    3.51
  -4  -5   8    2.31    3.17
   4   5  -7    3.23    2.84
   4   5  -7   -2.06    4.04
  -4  -5   7    2.17    2.62
   4   5  -6   -5.57    4.13
   4   5  -6    0.88    2.14
  -4  -5   6   -0.57    0.53
   4   5  -5   21.91   10.34
  -4  -5   5   18.34    6.68
   4   5  -4    8.62    6.37
   4   5  -3   12.35    9.01
   4   5  -2    8.70    6.94
   4   5  -1   -4.29    5.65
   4   5   0   -5.94    7.43
   4   5   1   49.65   21.06
   4   5   2   -0.40    8.18
   4   5   3    3.48   13.02
   4   5   4   -7.62   11.82
   4   5   5  -12.16   18.51
   4   5   6    8.30   13.64
   4   5   7   10.64   17.87
   4   5   8   -7.46   14.65
   4   5   9   15.93   14.03
   4   5  10   -7.56   16.48
  -4  -6  16    0.64    3.13
  -4  -6  15    0.52    3.10
  -4  -6  14    4.45    5.73
  -4  -6  13    0.56    1.39
   4   6 -12   -3.01    4.13
  -4  -6  12   -0.76    1.73
   4   6 -11  -11.49    7.23
  -4  -6  11    1.35    2.26
  -4  -6  10    1.95    2.49
   4   6 -10    0.88    2.22
   4   6  -9    0.38    4.30
  -4  -6   9   -1.58    2.33
   4   6  -8    0.93    1.30
  -4  -6   8    2.92    2.55
   4   6  -7    0.86    0.59
   4   6  -7    1.15    3.02
   4   6  -6    3.10    4.40
   4   6  -6    3.73    2.19
   4   6  -5   40.08   12.49
   4   6  -4   40.01   13.38
   4   6  -3    1.35    2.48
   4   6  -2   16.77   10.14
   4   6  -1   -0.73    4.18
   4   6   0    9.57    9.21
   4   6   1   18.88   14.89
   4   6   2    2.78    3.51
   4   6   3    2.24    8.60
   4   6   4  -26.05   18.72
   4   6   5   -6.53   13.89
   4   6   6    1.90    6.42
   4   6   7   -1.47    5.11
   4   6   8   -3.25    7.84
  -4  -7  16   11.35    9.38
  -4  -7  15    3.93    5.42
  -4  -7  14    0.74    3.00
   4   7 -13    1.18    4.79
  -4  -7  13    4.96    7.13
   4   7 -12    5.52    5.80
  -4  -7  12   -1.40    2.45
   4   7 -11    1.75    2.54
  -4  -7  11   -0.56    2.54
   4   7 -10   16.61    8.95
  -4  -7  10    6.45    5.62
   4   7  -9    3.35    6.36
   4   7  -8    9.73    7.86
   4   7  -7   -3.58    1.90
   4   7  -6   14.60    8.01
   4   7  -6   11.70    8.71
   4   7  -5    5.36    5.55
   4   7  -4   -3.36    5.10
   4   7  -3   28.91   11.70
   4   7  -2   -0.66    2.71
   4   7  -1   -2.72    1.85
   4   7   0    1.32    3.55
   4   7   1   -9.82   10.55
   4   7   2   -3.77    7.61
   4   7   3   -3.47    7.01
   4   7   4    6.90   12.82
   4   7   5  -20.13   16.93
   4   7   6    1.28    6.13
  -4  -8  15    3.03    4.99
  -4  -8  14    0.01    1.38
   4   8 -13   -0.28    0.42
  -4  -8  13    0.11    1.91
   4   8 -12    0.38    3.73
   4   8 -11    3.61    3.83
   4   8 -10   -5.38    4.98
   4   8  -9   15.98   10.29
   4   8  -8    7.84    5.05
   4   8  -7   -1.43    3.42
   4   8  -6    6.02    5.67
   4   8  -6   12.96    7.99
   4   8  -5    8.25    6.31
   4   8  -4    9.01    7.44
   4   8  -3    2.74    3.72
   4   8  -2    0.92    1.91
   4   8  -1   -2.52    5.11
   4   8   0   14.24   13.11
   4   8   1    6.02    7.84
   4   8   2   -5.30    6.85
   4   8   3    8.66   10.29
   4   8   4   -9.31    9.76
   4   9 -11    2.55    6.24
   4   9 -10    0.44    4.39
   4   9  -9    7.46    4.46
   4   9  -8    4.02    4.98
   4   9  -7   -2.26    5.00
   4   9  -6    0.10    3.34
   4   9  -6    0.42    1.61
   4   9  -5    2.84    5.41
   4   9  -4    4.87    5.06
   4   9  -3   12.95   10.60
   4   9  -2    5.32    8.16
   4   9  -1    1.31    2.58
   4   9   0   11.10   11.16
   4   9   1    7.89   10.44
   4   9   2    3.22    2.53
   4  10  -5   -2.72    7.07
   4  10  -4   -2.30    2.63
   4  10  -3    0.11    5.69
   4  10  -2   -4.57    5.07
   4  10  -1    5.16    6.96
  -5  11   1   -2.02    3.19
  -5  11   0    0.09    0.94
  -5  11  -1   -0.50    2.90
  -5  11  -2    3.85    4.12
  -5  11  -3   -5.71    6.00
   5 -10  -3    3.15    3.74
   5 -10  -2    4.98    3.73
  -5  10   2   -2.78    2.72
  -5  10   1    0.88    2.71
  -5  10   0   -1.17    2.68
  -5  10  -1    4.77    5.55
  -5  10  -2    1.73    0.86
  -5  10  -3   -0.05    3.32
  -5  10  -4   -5.76    7.53
  -5  10  -5    0.52    3.71
  -5  10  -6    2.39    2.24
  -5  10  -7    7.45    8.48
   5  -9  -6    1.27    3.26
   5  -9  -5    4.27    3.49
   5  -9  -4    1.22    3.83
   5  -9  -3    0.60    2.97
   5  -9  -2    2.13    4.08
  -5   9   2    0.71    3.65
   5  -9  -1    1.27    6.48
  -5   9   1    3.42    2.78
  -5   9   0   -2.48    2.51
  -5   9  -1    1.66    2.37
  -5   9  -2   -0.69    1.82
  -5   9  -3    1.76    3.02
  -5   9  -4   -1.94    3.47
  -5   9  -5   -1.15    1.39
  -5   9  -6   -2.36    6.49
  -5   9  -7    5.95    5.97
  -5   9  -8    4.13    6.90
  -5   9  -9    9.87    8.91
   5  -8  -8    5.26    6.33
   5  -8  -7    3.44    5.33
   5  -8  -6    0.17    3.07
   5  -8  -5   -6.74    6.28
   5  -8  -4    4.31    5.55
   5  -8  -3   17.23    9.84
  -5   8   2    3.17    3.64
   5  -8  -2   12.25    9.09
  -5   8   1    3.46    4.99
   5  -8  -1   -2.68    6.39
   5  -8   0    0.87    3.13
  -5   8   0   -1.74    4.13
   5  -8   1   -1.92    4.44
  -5   8  -1    3.27    5.81
  -5   8  -2    3.05    4.59
  -5   8  -3    3.05    1.67
  -5   8  -4    2.52    4.00
  -5   8  -5    4.51    5.28
  -5   8  -6    3.78    6.94
  -5   8  -7    2.37    1.18
  -5   8  -8    3.22    5.53
  -5   8  -9    1.64    1.81
  -5   8 -10   -2.22    4.28
  -5   8 -11    3.50    6.97
   5  -7 -10   15.21   10.82
   5  -7  -9   -0.90    3.27
   5  -7  -8   -7.79    6.71
   5  -7  -7   -1.84    6.99
   5  -7  -6    7.59    6.91
   5  -7  -5    1.00    4.35
   5  -7  -4   -0.47    3.38
  -5   7   3   -2.57    5.03
   5  -7  -3   -0.48    3.69
  -5   7   2    2.08    3.50
   5  -7  -2    4.08    7.79
  -5   7   1    4.52    4.62
   5  -7  -1    1.23    1.52
  -5   7   0    2.86    4.26
   5  -7   0    0.68    3.69
  -5   7  -1   -0.68    2.12
   5  -7   1    0.10    5.72
  -5   7  -2   -0.30    1.22
   5  -7   2    1.89    5.00
  -5   7  -3   -1.38    3.21
  -5   7  -4    2.46    2.83
  -5   7  -5    5.58    7.51
  -5   7  -6   -2.97    5.27
  -5   7  -7   -3.33    2.82
  -5   7  -8    3.51    5.41
  -5   7  -9    1.38    2.33
  -5   7 -10    4.17    4.24
  -5   7 -11    0.47    0.81
  -5   7 -12    0.65    3.00
   5  -6 -11    1.03    1.93
   5  -6 -10   -0.62    3.03
   5  -6  -9   -1.34    4.51
   5  -6  -8   -1.59    2.73
   5  -6  -7   -1.53    6.41
   5  -6  -6   -0.02    2.48
   5  -6  -5   -2.70    3.42
   5  -6  -4    4.66    5.54
   5  -6  -3    2.72    0.15
  -5   6   3   -2.25    2.56
  -5   6   2   -0.38    2.96
   5  -6  -2    4.13    6.08
  -5   6   1    4.84    5.24
   5  -6  -1    8.57    7.61
  -5   6   0    0.28    3.32
   5  -6   0    1.84    2.10
  -5   6  -1   -1.35    1.96
   5  -6   1    1.34    3.18
   5  -6   2    2.77    2.06
  -5   6  -2    1.46    2.02
  -5   6  -3    2.43    4.32
  -5   6  -4    5.40    5.04
  -5   6  -5    0.23    1.59
  -5   6  -6   -0.66    1.96
  -5   6  -7   -4.77    4.63
  -5   6  -8   -1.93    3.85
  -5   6  -9   -3.68    3.81
  -5   6 -10    5.66    6.36
  -5   6 -11   -3.57    3.95
  -5   6 -12   -2.45    2.39
   5  -5 -12   -1.39    4.13
   5  -5 -11    1.93    2.43
   5  -5 -10    3.19    5.69
   5  -5  -9    5.61    2.49
   5  -5  -8    5.33    6.84
   5  -5  -7   -1.96    5.65
   5  -5  -6   -1.51    4.11
   5  -5  -5    3.02    2.91
   5  -5  -4   11.41    6.52
   5  -5  -3    4.60    1.57
  -5   5   3    7.75    5.62
   5  -5  -2    1.41    4.21
  -5   5   2   -2.19    2.05
  -5   5   1   -2.90    3.52
   5  -5  -1   -1.00    2.90
  -5   5   0    1.68    4.24
   5  -5   0    3.85    3.84
  -5   5  -1    7.17    4.45
   5  -5   1   -2.45    4.43
  -5   5  -2   -0.66    2.23
   5  -5   2   -2.32    1.42
  -5   5  -3    1.77    3.26
   5  -5   3    0.65    4.29
  -5   5  -4    1.60    2.43
  -5   5  -5   -0.78    4.21
  -5   5  -6   -1.82    4.63
  -5   5  -7   -2.36    5.34
  -5   5  -8   -1.77    2.82
  -5   5  -9   -4.23    3.62
  -5   5 -10    0.03    3.78
  -5   5 -11    3.75    6.02
  -5   5 -12   -1.16    1.47
  -5   5 -13    2.00    3.41
   5  -4 -13   -2.32    5.22
   5  -4 -12   11.00   10.73
   5  -4 -11    9.84    9.51
   5  -4 -10    6.57    7.12
   5  -4  -9    1.12    3.46
   5  -4  -8   -4.83    6.09
   5  -4  -7   -0.09    2.82
   5  -4  -6   10.23    8.57
   5  -4  -5   49.54   15.48
  -5   4   4   31.48    8.69
   5  -4  -4   61.00   17.34
  -5   4   3    1.01    2.10
   5  -4  -3   -5.50    6.27
  -5   4   2   24.33    8.16
   5  -4  -2   35.31   12.64
   5  -4  -1   20.47    9.65
  -5   4   1   15.89    6.29
   5  -4   0    4.09    5.18
  -5   4   0   -1.32    0.58
  -5   4  -1   44.84   11.25
   5  -4   1    1.71    0.76
  -5   4  -2    3.30    3.00
   5  -4   2   12.01    4.94
  -5   4  -3    6.62    3.79
   5  -4   3   14.90    7.75
  -5   4  -4    1.19    2.96
  -5   4  -5   -2.63    3.05
  -5   4  -6   -1.63    3.15
  -5   4  -7    0.62    2.78
  -5   4  -8    0.23    1.34
  -5   4  -9   -4.16    3.65
  -5   4 -10    1.44    4.17
  -5   4 -11    0.47    3.34
  -5   4 -12   -1.28    4.45
  -5   4 -13    0.42    3.34
   5  -3 -14    0.46    4.56
  -5   3  14    1.29    2.46
   5  -3 -13   -4.23    7.31
  -5   3  13   -1.78    2.70
   5  -3 -12   -0.96    4.88
  -5   3  12    6.57    6.61
   5  -3 -11   23.09   13.19
   5  -3 -10   -3.54    5.82
   5  -3  -9   -7.24    6.10
   5  -3  -8   -3.70    8.08
   5  -3  -7   11.12    9.17
   5  -3  -6   10.62    6.85
   5  -3  -5   39.04   13.94
  -5   3   4   66.99   11.98
   5  -3  -4  132.24   25.33
  -5   3   3   34.56    8.98
   5  -3  -3   68.06   17.24
  -5   3   2    2.88    2.44
   5  -3  -2    6.91    4.87
  -5   3   1   14.33    5.61
   5  -3  -1   22.50    9.12
   5  -3   0    2.73    3.54
  -5   3   0    0.60    2.51
  -5   3  -1    2.49    3.28
   5  -3   1   -0.10    1.04
  -5   3  -2    8.31    5.50
   5  -3   2   13.56    7.97
  -5   3  -3    2.11    3.36
   5  -3   3    4.91    4.55
  -5   3  -4    0.38    1.34
   5  -3   4   -0.26    1.60
  -5   3  -5    6.57    5.38
  -5   3  -6    2.82    3.08
  -5   3  -7   -0.11    2.06
  -5   3  -8   -1.55    3.25
  -5   3  -9   -1.88    3.71
  -5   3 -10    1.59    3.96
  -5   3 -11    8.23    6.72
  -5   3 -12   -2.89    2.98
  -5   3 -13    0.89    1.97
  -5   2  15   -4.72    4.49
  -5   2  14   -2.69    3.32
   5  -2 -14    3.06    5.71
   5  -2 -13   -1.81    3.51
  -5   2  13    0.13    2.50
   5  -2 -12   -2.05    2.40
  -5   2  12   -0.18    2.55
   5  -2 -11   -0.22    2.57
  -5   2  11    2.77    3.72
  -5   2  10    2.38    3.85
   5  -2 -10   -3.88    6.45
  -5   2   9    1.18    3.16
   5  -2  -9   -1.20    5.10
   5  -2  -8    2.69    5.91
   5  -2  -7   63.83   19.97
   5  -2  -6   42.12   15.97
   5  -2  -5   -4.42    5.59
  -5   2   4    2.47    2.77
   5  -2  -4    3.60    1.71
  -5   2   3   -0.28    1.20
   5  -2  -3    3.20    3.15
  -5   2   2    0.26    0.86
   5  -2  -2   -0.49    2.46
  -5   2   1   -0.25    0.46
   5  -2  -1   -0.88    1.14
  -5   2   0    1.98    0.36
   5  -2   0    0.35    2.87
   5  -2   1   -0.88    2.92
  -5   2  -1   -1.07    1.50
  -5   2  -2    0.84    2.04
   5  -2   2    3.51    3.44
  -5   2  -3    4.35    3.72
   5  -2   3   -0.07    0.54
  -5   2  -4    4.88    3.76
   5  -2   4   10.06    5.47
  -5   2  -5    2.35    3.16
  -5   2  -6   -1.83    2.42
  -5   2  -7   -0.13    1.06
  -5   2  -8    0.27    0.90
  -5   2  -9   -0.31    0.92
  -5   2 -10   -0.99    1.27
  -5   2 -11    1.80    2.81
  -5   2 -12    3.63    4.73
  -5   2 -13    1.75    4.02
  -5   1  15   -1.64    2.61
  -5   1  14    1.22    1.83
  -5   1  13    5.64    5.66
  -5   1  12   -3.12    3.37
  -5   1  11    3.73    4.39
  -5   1  10    3.27    2.74
   5  -1 -10   12.60    9.23
   5  -1  -9   18.12   10.18
  -5   1   9   11.58    6.95
   5  -1  -8    2.37    1.54
  -5   1   8    3.12    4.40
   5  -1  -7   -2.64    8.19
   5  -1  -6   34.18   13.40
   5  -1  -5    6.45    3.82
   5  -1  -5   16.60    9.77
   5  -1  -4   10.94    5.83
   5  -1  -4   12.54    6.71
  -5   1   4    5.49    2.75
   5  -1  -3    2.30    3.95
   5  -1  -3    3.36    4.13
  -5   1   3   -0.17    1.17
   5  -1  -2    0.11    2.47
   5  -1  -2   -1.24    3.09
  -5   1   2    0.10    1.61
  -5   1   1    0.02    1.56
   5  -1  -1    0.57    2.44
   5  -1  -1   -0.36    2.45
  -5   1   0    1.55    3.21
   5  -1   0    1.32    2.86
  -5   1  -1    2.38    2.27
   5  -1   1   -0.17    1.50
  -5   1  -2    0.62    1.81
   5  -1   2    0.69    0.48
  -5   1  -3    2.05    2.96
  -5   1  -4    3.71    2.97
  -5   1  -5    3.29    3.54
  -5   1  -6    6.95    5.32
  -5   1  -7   -0.23    2.03
  -5   1  -8    1.65    4.40
  -5   1  -9   -1.64    2.01
  -5   1 -10    3.48    1.64
  -5   1 -11    2.74    3.51
  -5   1 -12    4.48    5.37
  -5   0  15    2.97    4.17
  -5   0  14    6.10    5.39
  -5   0  13    0.54    1.99
  -5   0  12    1.92    3.23
  -5   0  11   22.98    9.04
  -5   0  10    0.76    0.39
  -5   0   9    4.00    2.89
  -5   0   8    2.31    2.28
  -5   0   7    7.54    5.17
   5   0  -6    2.62    2.96
   5   0  -6    2.70    7.17
   5   0  -5   -1.51    3.73
   5   0  -5   -0.76    4.85
   5   0  -4   -0.89    2.34
   5   0  -4    4.95    5.62
  -5   0   4    1.14    1.76
   5   0  -3   -3.46    2.51
   5   0  -3    3.11    3.76
  -5   0   3    2.35    2.65
   5   0  -2   -0.71    2.69
   5   0  -2   -0.54    2.78
  -5   0   2   -0.08    1.32
   5   0  -1   10.19    8.41
  -5   0   1    4.32    3.27
   5   0   0    4.83    4.25
  -5   0   0   -0.53    2.33
   5   0   1    0.39    1.95
  -5   0  -1   -1.38    2.64
  -5   0  -2    0.77    1.67
  -5   0  -3    3.72    2.40
  -5   0  -4    2.75    3.73
  -5   0  -5    0.96    2.86
  -5   0  -6    4.96    3.56
  -5   0  -7    6.14    4.44
  -5   0  -8   -1.51    3.21
  -5   0  -9   -0.69    2.68
  -5   0 -10    0.62    1.21
  -5   0 -11   -3.59    3.48
  -5   0 -12    1.61    2.92
  -5  -1  15    0.12    1.23
  -5  -1  14    0.93    2.90
  -5  -1  13   17.32    8.88
  -5  -1  12    1.10    1.79
  -5  -1  11    6.88    5.90
  -5  -1  10    0.10    2.76
  -5  -1   9   -0.36    2.26
   5   1  -8   -3.39    4.85
  -5  -1   8    0.67    1.35
   5   1  -7    9.68    7.35
  -5  -1   7    3.94    3.55
   5   1  -6    1.19    2.04
  -5  -1   6    4.79    4.37
   5   1  -5    8.81    6.29
   5   1  -4   35.05   14.61
   5   1  -4   23.43    8.78
  -5  -1   4   14.76    5.73
   5   1  -3   -0.97    2.39
  -5  -1   3    1.58    2.90
   5   1  -3    1.92    3.07
   5   1  -2    2.04    0.26
  -5  -1   2   -0.68    0.36
   5   1  -1    0.07    1.07
  -5  -1   1    2.20    2.74
  -5  -1   0    9.46    4.97
   5   1   0   10.30    5.71
  -5  -1  -1    5.98    4.27
  -5  -1  -2    1.14    1.58
  -5  -1  -3   10.38    5.78
  -5  -1  -4   -2.26    2.91
  -5  -1  -5    5.67    4.19
  -5  -1  -6    4.52    3.84
  -5  -1  -7   -0.27    1.13
  -5  -1  -8   -2.59    3.72
  -5  -1  -9    1.73    1.87
  -5  -1 -10   -4.21    4.47
  -5  -1 -11   -5.46    5.73
  -5  -2  15    0.00    2.41
  -5  -2  14   -1.84    2.70
  -5  -2  13    7.95    6.10
  -5  -2  12    1.26    3.25
  -5  -2  11    1.56    2.67
  -5  -2  10   -2.06    2.63
   5   2  -9    9.70    7.49
  -5  -2   9    3.24    2.97
   5   2  -8   -1.16    3.37
  -5  -2   8   -1.23    2.78
   5   2  -7   -2.70    3.22
  -5  -2   7   -0.95    2.10
   5   2  -6   26.36   10.79
  -5  -2   6   18.60    7.72
   5   2  -5   15.16    9.51
   5   2  -5    8.54    4.69
  -5  -2   5    6.41    4.43
   5   2  -4   28.09   15.02
   5   2  -4    4.40    1.27
   5   2  -3    2.94    7.20
   5   2  -3    0.90    1.39
   5   2  -2   -9.60    9.18
   5   2  -2    2.41    3.36
   5   2  -1   32.86   23.47
  -5  -2   1    3.28    2.28
  -5  -2   0   13.06    5.92
  -5  -2  -1   -0.98    2.14
  -5  -2  -2   33.60    9.91
  -5  -2  -3   37.63   10.74
  -5  -2  -4   -0.91    2.28
  -5  -2  -5    5.74    4.35
  -5  -2  -6   -0.86    1.42
   5   2   7   33.30   48.45
  -5  -2  -7   -1.58    2.08
   5   2   8   33.43   30.37
  -5  -2  -8    2.83    3.98
   5   2   9  -12.16   24.69
  -5  -2  -9    0.70    2.56
   5   2  10   -3.63    8.04
  -5  -2 -10    3.10    4.36
  -5  -3  15    0.02    2.86
  -5  -3  14    3.60    4.60
  -5  -3  13    0.21    0.90
  -5  -3  12    3.68    5.33
  -5  -3  11    0.46    1.73
   5   3 -10   -0.41    3.28
  -5  -3  10   -0.58    1.12
   5   3  -9    5.05    3.76
  -5  -3   9    0.31    1.95
   5   3  -8    1.76    1.64
  -5  -3   8   -1.12    1.83
   5   3  -7    1.31    2.29
  -5  -3   7   -2.91    4.30
   5   3  -6    1.74    2.53
  -5  -3   6   -2.61    2.60
   5   3  -5    0.86    5.34
   5   3  -5    0.92    4.99
  -5  -3   5   -0.21    1.92
   5   3  -4    2.14    2.83
   5   3  -4    0.99    1.81
   5   3  -3   12.17    8.65
   5   3  -2  -15.68   13.73
   5   3  -1   51.52   29.74
   5   3   0   22.97   23.93
   5   3   1   33.51   26.08
   5   3   2    4.27   13.90
   5   3   3   59.19   38.87
   5   3   4   24.00   35.45
   5   3   5    8.69   25.58
   5   3   6  -24.70   54.07
   5   3   7  -46.41   62.06
   5   3   8  -15.14    7.83
   5   3   9   54.85   32.24
  -5  -4  15   -1.27    2.37
  -5  -4  14    0.65    3.00
  -5  -4  13   -2.41    3.12
  -5  -4  12    1.14    1.05
   5   4 -11   -0.04    0.35
  -5  -4  11    1.84    3.12
   5   4 -10    9.53    5.14
  -5  -4  10    1.59    1.98
   5   4  -9    2.91    1.80
  -5  -4   9    0.86    1.78
   5   4  -8   -2.38    5.52
  -5  -4   8    0.86    1.60
   5   4  -7    0.69    1.19
  -5  -4   7   -0.18    0.80
   5   4  -6    0.60    2.58
   5   4  -5   -4.38    5.00
   5   4  -5   -0.54    4.25
   5   4  -4    2.36    6.03
   5   4  -4    2.70    4.62
   5   4  -3    4.65   12.28
   5   4  -2   -8.01   10.94
   5   4  -1    7.48   10.92
   5   4   0    8.31   12.32
   5   4   1   18.62   23.85
   5   4   2    9.87   17.14
   5   4   3   39.58   48.03
   5   4   4   -8.90   35.37
   5   4   5   16.79   25.23
   5   4   6  -24.69   17.98
   5   4   7   -8.99   14.88
   5   4   8   -9.17   39.80
  -5  -5  15    1.04    2.19
  -5  -5  14    9.58    7.90
  -5  -5  13    6.47    5.91
  -5  -5  12    1.74    2.22
   5   5 -11    4.66    6.25
  -5  -5  11    6.15    4.96
   5   5 -10   -1.34    1.47
  -5  -5  10    4.75    4.94
   5   5  -9    4.44    6.33
   5   5  -8   11.57    7.83
   5   5  -7    3.50    4.21
   5   5  -6    3.65    6.57
   5   5  -5    0.23    2.22
   5   5  -5    0.52    2.89
   5   5  -4   -6.19    7.33
   5   5  -3   13.69   11.53
   5   5  -2   -0.24    6.63
   5   5  -1    5.88    6.02
   5   5   0    1.99    6.41
   5   5   1   28.62   28.50
   5   5   2   14.48   29.02
   5   5   3  -25.57   28.56
   5   5   4   47.34   42.21
   5   5   5  -28.65   44.26
   5   5   6  -36.67   38.36
  -5  -6  14    1.95    4.16
  -5  -6  13    4.32    4.85
   5   6 -12    3.02    5.75
  -5  -6  12    0.47    1.28
   5   6 -11    6.62    6.41
   5   6 -10   -3.02    4.77
   5   6  -9    6.96    6.71
   5   6  -8    6.65    5.36
   5   6  -7   15.35    8.90
   5   6  -6    3.83    5.29
   5   6  -5    3.08    3.25
   5   6  -4   11.46    8.54
   5   6  -3    6.69    7.40
   5   6  -2   -0.28    7.76
   5   6  -1   -2.59   10.76
   5   6   0   21.75   21.90
   5   6   1   -9.45   20.71
   5   6   2   -7.61   21.45
   5   6   3  -10.41   10.55
   5   6   4  -18.60   15.74
   5   7 -11    6.93    7.48
   5   7 -10    1.61    2.91
   5   7  -9    1.47    1.70
   5   7  -8   -2.18    5.96
   5   7  -7   -1.77   15.26
   5   7  -6    9.70    7.64
   5   7  -5    0.21    2.68
   5   7  -4    6.38    7.72
   5   7  -3    4.88    6.79
   5   7  -2   -5.60   10.93
   5   7  -1   12.96    9.91
   5   7   0    3.16   10.67
   5   7   1   16.72   13.24
   5   7   2   18.65   20.53
   5   8  -4    8.73    6.70
   5   8  -3   -4.44    6.48
   5   8  -2    0.01    2.55
   5   8  -1    0.42    7.46
   5   8   0    5.46    3.89
  -6   9   0    2.09    4.04
  -6   9  -1   -1.50    3.83
  -6   9  -2   -0.95    4.50
  -6   9  -3   -0.45    1.93
   6  -8  -3   -0.48    6.45
   6  -8  -2   -5.62    6.57
   6  -8  -1    1.99    3.10
  -6   8   0    5.72    6.24
   6  -8   0   -0.60    2.80
  -6   8  -1   -1.62    0.79
  -6   8  -2   -1.42    1.66
  -6   8  -3    1.24    3.26
  -6   8  -4    2.42    3.49
  -6   8  -5    1.44    4.01
   6  -7  -5   -0.37    5.21
   6  -7  -4   -5.07    8.37
   6  -7  -3    0.20    4.24
   6  -7  -2   -4.59    8.48
   6  -7  -1   -0.72    4.72
  -6   7   0    1.87    4.54
   6  -7   0   -2.12    5.73
  -6   7  -1   -1.02    2.04
   6  -7   1   12.82    8.92
  -6   7  -2   10.04    7.76
  -6   7  -3    1.32    2.94
  -6   7  -4    0.83    2.85
  -6   7  -5   -0.89    1.68
  -6   7  -6    0.29    1.82
  -6   7  -7   -0.07    0.81
   6  -6  -7   -6.91    8.04
   6  -6  -6    9.29    9.06
   6  -6  -5   -3.43    5.89
   6  -6  -4    2.61    3.25
   6  -6  -3   -2.13    2.42
   6  -6  -2  -10.02    8.10
  -6   6   1   -0.41    2.04
   6  -6  -1   -0.16    3.06
  -6   6   0    6.36    4.83
   6  -6   0   11.82    9.84
  -6   6  -1   -0.74    3.07
   6  -6   1    2.73    4.99
  -6   6  -2   -2.66    4.35
   6  -6   2    2.82    7.76
  -6   6  -3   -1.45    1.26
  -6   6  -4    1.90    2.26
  -6   6  -5   -1.25    2.92
  -6   6  -6   -0.32    4.06
  -6   6  -7   -1.73    2.45
  -6   6  -8    1.20    0.59
   6  -5  -9    5.22    9.82
   6  -5  -8    0.95    5.66
   6  -5  -7    4.96    7.39
   6  -5  -6   -0.84    2.25
   6  -5  -5    3.89    7.50
   6  -5  -4    1.48    4.59
   6  -5  -3    4.45    5.69
   6  -5  -2   31.94   16.19
  -6   5   1    3.28    1.94
   6  -5  -1   17.10   10.74
  -6   5   0    1.36    2.06
   6  -5   0   -2.52    6.34
  -6   5  -1    2.10    4.20
   6  -5   1   14.07   10.28
  -6   5  -2   -0.73    0.23
   6  -5   2    3.34    2.99
  -6   5  -3   -1.16    3.43
  -6   5  -4    2.12    3.43
  -6   5  -5    0.24    3.19
  -6   5  -6    2.38    4.01
  -6   5  -7   -0.68    1.22
  -6   5  -8   -2.45    3.79
   6  -4 -10   11.42   12.60
   6  -4  -9   -4.25    7.41
   6  -4  -8    0.31    7.78
   6  -4  -7    5.86    6.62
   6  -4  -6   -2.86    2.86
   6  -4  -5   -2.40    6.30
   6  -4  -4   -1.69    6.62
   6  -4  -3    1.77    4.81
   6  -4  -2    5.65    7.89
  -6   4   1    7.41    6.18
   6  -4  -1    7.13    4.58
  -6   4   0    8.00    5.04
   6  -4   0    7.75    7.56
  -6   4  -1    1.00    2.88
   6  -4   1    1.91    4.24
  -6   4  -2    2.59    2.95
   6  -4   2    4.62    8.38
  -6   4  -3    2.13    3.44
   6  -4   3   -1.97    2.04
  -6   4  -4    1.45    2.72
  -6   4  -5    0.64    3.15
  -6   4  -6   -2.70    1.35
  -6   4  -7    4.53    3.85
  -6   4  -8    5.03    5.13
   6  -3 -10  -15.33   11.85
   6  -3  -9    1.84    1.71
   6  -3  -8    5.28    8.78
   6  -3  -7   -3.11    8.24
   6  -3  -6   -1.59    8.67
   6  -3  -5    5.48    6.43
   6  -3  -4    3.87    3.79
   6  -3  -3   -1.25    3.90
   6  -3  -2    2.38    1.41
  -6   3   1    5.17    4.86
   6  -3  -1    6.69    6.17
  -6   3   0   -0.04    2.09
   6  -3   0    0.23    4.06
  -6   3  -1    0.88    2.20
   6  -3   1   -1.71    2.96
  -6   3  -2   -1.42    3.80
   6  -3   2    2.77    4.16
  -6   3  -3    1.21    2.38
  -6   3  -4   -1.87    3.35
  -6   3  -5    0.42    0.49
  -6   3  -6   -0.25    3.97
  -6   3  -7   -1.75    1.65
  -6   3  -8   -1.61    3.99
   6  -2 -11    2.24    8.28
   6  -2 -10    2.74    3.92
   6  -2  -9    7.91    7.58
   6  -2  -8    1.16   10.40
   6  -2  -7    5.50    7.94
   6  -2  -6    3.44    7.51
   6  -2  -5   -0.17    3.86
   6  -2  -4   -3.51    9.27
   6  -2  -3    1.34    6.18
   6  -2  -2    3.24    1.21
  -6   2   2   -0.24    1.01
   6  -2  -1   -0.44    2.43
  -6   2   1   -0.95    1.61
   6  -2   0   -0.73    3.67
  -6   2   0    0.72    2.21
  -6   2  -1   -0.49    2.48
  -6   2  -2   37.09   10.89
  -6   2  -3   -1.85    3.31
  -6   2  -4   -1.10    2.20
  -6   2  -5   -2.37    2.36
  -6   2  -6   -3.21    4.19
  -6   2  -7   -3.36    0.54
  -6   2  -8   -2.77    3.74
  -6   1  12    2.26    4.00
   6  -1 -12   -1.63    8.40
   6  -1 -11   13.69    9.60
   6  -1 -10   12.18   14.04
   6  -1  -9   19.13   14.22
   6  -1  -8    4.97    8.46
   6  -1  -7    1.54    0.67
   6  -1  -6   16.61   11.41
   6  -1  -5   -4.44    5.54
   6  -1  -4   -2.66    7.26
   6  -1  -3    3.96    4.76
   6  -1  -2    0.25    3.78
  -6   1   2   -0.31    1.60
   6  -1  -1   -2.11    4.78
  -6   1   1   -0.48    2.69
  -6   1   0    3.29    3.40
  -6   1  -1    1.15    2.34
  -6   1  -2    2.63    4.36
  -6   1  -3   -0.94    1.11
  -6   1  -4   -1.96    2.57
  -6   1  -5    1.36    2.04
  -6   1  -6    0.68    1.53
  -6   1  -7   -1.79    5.31
  -6   1  -8    5.94    4.67
   6   0 -12  -10.62   13.10
  -6   0  12    0.53    2.01
  -6   0  11    1.84    3.50
   6   0 -11   -1.00    7.00
   6   0 -10    1.80    5.66
   6   0  -9   11.41   15.04
   6   0  -8   11.77   12.01
   6   0  -7    9.12   13.37
   6   0  -6    7.56   10.01
   6   0  -5   -2.80    6.81
   6   0  -4    9.04    9.58
   6   0  -3   -0.26    3.44
  -6   0   2    2.07    1.60
  -6   0   1    6.11    3.97
  -6   0   0    0.53    1.15
  -6   0  -1    5.88    4.86
  -6   0  -2    2.73    3.81
  -6   0  -3    2.11    1.05
  -6   0  -4    4.29    4.87
  -6   0  -5    1.96    2.11
  -6   0  -6   -0.11    1.31
  -6   0  -7    0.52    0.57
  -6  -1  12    0.00    1.06
  -6  -1  11   -1.04    2.08
  -6  -1  10    1.05    2.06
   6   1  -9   -6.73   10.68
   6   1  -8   -1.04    6.21
   6   1  -7    3.94    7.24
   6   1  -7    9.90    8.55
   6   1  -6    0.56    3.54
   6   1  -6    4.09    5.50
   6   1  -5   -0.97    4.52
   6   1  -5    0.84    2.98
   6   1  -4    6.50    6.23
   6   1  -4    5.60    7.93
   6   1  -3    4.03    4.85
   6   1  -2    1.50    3.87
  -6  -1   2    3.14    2.85
   6   1  -1    7.12    5.96
  -6  -1   1    1.68    1.15
  -6  -1   0    0.31    1.84
  -6  -1  -1    0.35    1.76
  -6  -1  -2   -0.82    1.31
  -6  -1  -3    1.19    2.17
  -6  -1  -4    5.32    4.96
  -6  -1  -5   17.68    8.76
  -6  -1  -6   -0.49    3.73
  -6  -2  12   -0.75    1.80
  -6  -2  11   -5.64    4.88
  -6  -2  10    0.07    1.66
  -6  -2   9   -4.14    4.07
   6   2  -8    5.40    5.96
   6   2  -7    1.43    3.12
   6   2  -7    2.65    8.32
   6   2  -6   -0.06    2.83
   6   2  -6   -0.37    3.58
   6   2  -5   -0.77    1.64
   6   2  -4   -0.81    3.09
   6   2  -3    0.04    4.54
   6   2  -2   -2.42   16.57
   6   2  -2   -2.49    3.37
   6   2  -1   47.68   39.08
   6   2   0   14.49   10.98
   6   2   1   44.70   57.03
   6   2   2    9.63   31.41
   6   2   3   20.79   67.55
   6   2   4   37.96   73.07
  -6  -2  -4    1.08    2.75
   6   2   5  -58.36   72.41
  -6  -2  -5   -1.39    1.53
   6   2   6    9.55   63.91
  -6  -3  12    0.00    2.14
  -6  -3  11   -1.67    2.68
  -6  -3  10    3.00    4.69
   6   3  -9    0.48    2.22
  -6  -3   9    3.20    4.01
   6   3  -8   -2.08    1.43
   6   3  -7    3.77    8.07
   6   3  -6    2.26    2.84
   6   3  -5   -1.95    3.80
   6   3  -4    4.54    5.97
   6   3  -3   -0.23    2.59
   6   3  -2    4.15    8.38
   6   3  -1   26.97   32.06
   6   3   0  -45.88   55.14
   6   3   1 -110.03   83.86
   6   3   2    1.39   55.60
   6   3   3   29.39   33.61
   6   3   4  -34.55  178.29
   6   4 -10   -0.34    3.80
   6   4  -9   -1.46    4.07
   6   4  -8    8.89    7.28
   6   4  -7   -1.13    1.43
   6   4  -6   -1.66    2.21
   6   4  -5   -0.81    5.00
   6   4  -4    0.19    4.67
   6   4  -3   -0.87    2.03
   6   4  -2  -11.26   13.33
   6   4  -1  -13.14   26.32
   6   4   0   18.64   48.46
   6   4   1   17.36   51.06
   6   4   2   61.30   63.04
   6   4   3  -40.93  118.58
   6   5  -9   -1.15    2.40
   6   5  -8   -2.38    7.40
   6   5  -7    4.14    3.61
   6   5  -6   -2.80    3.46
   6   5  -5    0.21    4.27
   6   5  -4    8.07    6.88
   6   5  -3    1.75    1.82
   6   5  -2   20.61   30.07
   6   5  -1   -0.34   24.95
   6   5   0   16.26    5.11
   6   5   1  -40.23   47.90
   6   6  -1  -10.88   22.46
   7  -6   0   -1.99    3.67
   7  -6   1    5.29    9.33
   7  -5  -3   -1.22    7.92
   7  -5  -2    4.48    0.43
   7  -5  -1   -7.68    7.67
   7  -5   0   -1.52    3.27
  -7   5  -2    1.19    3.55
   7  -4  -5    9.74   11.00
   7  -4  -4   -2.37    6.40
   7  -4  -3   -2.49    5.53
   7  -4  -2    1.64    2.54
   7  -4  -1   -4.13    2.78
  -7   4  -2    1.63    3.32
   7  -3  -6    5.75   10.37
   7  -3  -5    3.21    6.41
   7  -3  -4   -3.22    6.96
   7  -3  -3   24.02   20.97
  -7   3  -1   -0.30    3.41
  -7   3  -2    1.61    2.99
  -7   3  -3   -1.98    3.07
   7  -2  -7   -7.29   10.63
   7  -2  -6   -0.29    5.15
   7  -2  -5    4.60    8.52
   7  -2  -4   -4.68    7.48
  -7   2  -1   -1.66    3.00
  -7   2  -2   -0.40    0.83
   7  -1  -7    1.59    5.59
   7  -1  -6   -0.26    3.84
   7  -1  -5    0.04    1.31
  -7   1  -1    0.14    1.49
  -7   1  -2   12.54    6.59
   7   0  -8   -1.63    4.75
   7   0  -7    0.68    6.40
  -7   0  -1   -3.55    3.63
   7   1   1  -26.22   62.97
   0   0   0    0.00    0.00


_computing_structure_solution     'SHELXT 2014/5 (Sheldrick, 2014)'
;
_shelx_hkl_checksum              97425
loop_
_space_group_symop_operation_xyz
'x, y, z'
'-x, -y, -z'
loop_
_atom_site_label
_atom_site_type_symbol
_atom_site_fract_x
_atom_site_fract_y
_atom_site_fract_z
_atom_site_U_iso_or_equiv
_atom_site_adp_type
_atom_site_occupancy
_atom_site_site_symmetry_order
_atom_site_calc_flag
_atom_site_refinement_flags_posn
_atom_site_refinement_flags_adp
O1 O 0.2223(5) 0.3819(3) 0.75520(18) 0.0645(9) Uani 1 1 d . .
O2 O 0.7729(6) 0.3193(3) 0.5020(2) 0.0808(11) Uani 1 1 d . .
N1 N 0.5159(7) 0.5774(4) 0.7379(2) 0.0609(10) Uani 1 1 d . .
N2 N 0.8232(8) 0.5409(4) 0.5964(2) 0.0831(13) Uani 1 1 d . .
H2NA H 0.948253 0.575758 0.566638 0.100 Uiso 1 1 calc R U
H2NB H 0.772303 0.596106 0.643943 0.100 Uiso 1 1 calc R U
C1 C 0.0965(8) 0.2394(4) 0.7259(3) 0.0522(10) Uani 1 1 d . .
C2 C -0.0982(9) 0.1928(4) 0.7770(3) 0.0634(12) Uani 1 1 d . .
H2 H -0.138878 0.254938 0.830105 0.076 Uiso 1 1 calc R U
C3 C -0.2343(9) 0.0509(5) 0.7482(3) 0.0703(13) Uani 1 1 d . .
H3 H -0.371591 0.018223 0.781528 0.084 Uiso 1 1 calc R U
C4 C -0.1695(10) -0.0433(5) 0.6708(3) 0.0714(13) Uani 1 1 d . .
H4 H -0.262713 -0.138407 0.651655 0.086 Uiso 1 1 calc R U
C5 C 0.0368(9) 0.0067(5) 0.6220(3) 0.0653(12) Uani 1 1 d . .
H5 H 0.085584 -0.056282 0.570725 0.078 Uiso 1 1 calc R U
C6 C 0.1712(8) 0.1498(4) 0.6490(3) 0.0523(10) Uani 1 1 d . .
C7 C 0.3782(8) 0.2111(4) 0.5993(3) 0.0569(11) Uani 1 1 d . .
H7 H 0.429557 0.152021 0.546906 0.068 Uiso 1 1 calc R U
C8 C 0.4979(8) 0.3500(4) 0.6264(3) 0.0529(10) Uani 1 1 d . .
C9 C 0.4168(8) 0.4446(4) 0.7085(3) 0.0542(10) Uani 1 1 d . .
C10 C 0.7100(8) 0.4038(4) 0.5692(3) 0.0570(11) Uani 1 1 d . .
C11 C 0.4295(8) 0.6661(4) 0.8181(3) 0.0571(11) Uani 1 1 d . .
C12 C 0.2564(8) 0.7621(5) 0.8056(3) 0.0658(12) Uani 1 1 d . .
H12 H 0.190340 0.764277 0.745949 0.079 Uiso 1 1 calc R U
C13 C 0.1804(10) 0.8552(5) 0.8812(4) 0.0766(14) Uani 1 1 d . .
H13 H 0.061632 0.919133 0.872501 0.092 Uiso 1 1 calc R U
C14 C 0.2808(10) 0.8532(5) 0.9695(3) 0.0750(14) Uani 1 1 d . .
H14 H 0.229855 0.915041 1.020840 0.090 Uiso 1 1 calc R U
C15 C 0.4566(9) 0.7590(4) 0.9805(3) 0.0666(12) Uani 1 1 d . .
H15 H 0.525811 0.759163 1.040269 0.080 Uiso 1 1 calc R U
C16 C 0.5355(8) 0.6640(4) 0.9071(3) 0.0603(11) Uani 1 1 d . .
C17 C 0.7259(9) 0.5606(5) 0.9209(3) 0.0762(14) Uani 1 1 d . .
H17A H 0.624446 0.463396 0.902530 0.114 Uiso 1 1 calc R U
H17B H 0.799250 0.582948 0.985096 0.114 Uiso 1 1 calc R U
H17C H 0.876154 0.569174 0.883983 0.114 Uiso 1 1 calc R U
loop_
_atom_site_aniso_label
_atom_site_aniso_U_11
_atom_site_aniso_U_22
_atom_site_aniso_U_33
_atom_site_aniso_U_23
_atom_site_aniso_U_13
_atom_site_aniso_U_12
O1 0.0618(18) 0.0594(19) 0.0710(18) 0.0154(15) 0.0256(15) -0.0022(15)
O2 0.092(2) 0.073(2) 0.077(2) 0.0106(16) 0.0417(18) 0.0078(18)
N1 0.058(2) 0.052(2) 0.070(2) 0.0114(18) 0.0191(18) 0.0004(19)
N2 0.090(3) 0.062(3) 0.086(3) 0.002(2) 0.043(2) -0.013(2)
C1 0.045(2) 0.052(2) 0.057(2) 0.014(2) 0.0090(19) 0.000(2)
C2 0.065(3) 0.054(3) 0.070(3) 0.019(2) 0.013(2) 0.000(2)
C3 0.059(3) 0.070(3) 0.088(3) 0.033(3) 0.018(2) 0.002(2)
C4 0.077(3) 0.055(3) 0.079(3) 0.019(2) 0.005(3) -0.003(2)
C5 0.068(3) 0.061(3) 0.069(3) 0.020(2) 0.007(2) 0.010(2)
C6 0.049(2) 0.047(2) 0.062(2) 0.0184(19) 0.007(2) 0.005(2)
C7 0.056(3) 0.060(3) 0.053(2) 0.010(2) 0.007(2) 0.010(2)
C8 0.048(2) 0.058(3) 0.055(2) 0.0181(19) 0.0086(19) 0.008(2)
C9 0.051(2) 0.049(2) 0.059(2) 0.014(2) 0.0096(19) -0.002(2)
C10 0.056(3) 0.054(3) 0.062(2) 0.017(2) 0.012(2) 0.004(2)
C11 0.051(2) 0.053(3) 0.070(3) 0.019(2) 0.021(2) 0.002(2)
C12 0.054(3) 0.067(3) 0.076(3) 0.018(2) 0.015(2) 0.005(2)
C13 0.071(3) 0.068(3) 0.098(4) 0.026(3) 0.021(3) 0.019(3)
C14 0.078(3) 0.059(3) 0.085(3) 0.007(3) 0.032(3) 0.006(3)
C15 0.067(3) 0.054(3) 0.076(3) 0.012(2) 0.022(2) 0.005(2)
C16 0.053(3) 0.049(3) 0.082(3) 0.018(2) 0.022(2) 0.009(2)
C17 0.069(3) 0.072(3) 0.091(3) 0.024(3) 0.021(3) 0.011(3)
loop_
_atom_type_symbol
_atom_type_description
_atom_type_scat_dispersion_real
_atom_type_scat_dispersion_imag
_atom_type_scat_source
C C 0.0033 0.0016 'International Tables Vol C Tables 4.2.6.8 and 6.1.1.4'
H H 0.0000 0.0000 'International Tables Vol C Tables 4.2.6.8 and 6.1.1.4'
N N 0.0061 0.0033 'International Tables Vol C Tables 4.2.6.8 and 6.1.1.4'
O O 0.0106 0.0060 'International Tables Vol C Tables 4.2.6.8 and 6.1.1.4'
loop_
_geom_angle_atom_site_label_1
_geom_angle_atom_site_label_2
_geom_angle_atom_site_label_3
_geom_angle
C1 O1 C9 123.0(3)
C9 N1 C11 121.8(3)
C10 N2 H2NA 120.0
C10 N2 H2NB 120.0
H2NA N2 H2NB 120.0
C2 C1 O1 116.9(3)
C2 C1 C6 122.7(4)
O1 C1 C6 120.4(3)
C1 C2 C3 118.5(4)
C1 C2 H2 120.7
C3 C2 H2 120.7
C2 C3 C4 121.1(4)
C2 C3 H3 119.5
C4 C3 H3 119.5
C3 C4 C5 118.9(4)
C3 C4 H4 120.6
C5 C4 H4 120.6
C4 C5 C6 120.6(4)
C4 C5 H5 119.7
C6 C5 H5 119.7
C1 C6 C5 118.2(4)
C1 C6 C7 118.1(4)
C5 C6 C7 123.7(3)
C8 C7 C6 121.9(3)
C8 C7 H7 119.0
C6 C7 H7 119.0
C7 C8 C9 119.6(3)
C7 C8 C10 117.8(3)
C9 C8 C10 122.7(4)
N1 C9 O1 119.4(3)
N1 C9 C8 123.6(3)
O1 C9 C8 117.0(4)
O2 C10 N2 123.3(4)
O2 C10 C8 119.8(4)
N2 C10 C8 116.8(3)
C12 C11 C16 120.5(4)
C12 C11 N1 118.4(4)
C16 C11 N1 120.9(4)
C11 C12 C13 120.3(5)
C11 C12 H12 119.9
C13 C12 H12 119.9
C14 C13 C12 119.9(4)
C14 C13 H13 120.1
C12 C13 H13 120.1
C15 C14 C13 119.0(4)
C15 C14 H14 120.5
C13 C14 H14 120.5
C14 C15 C16 122.9(5)
C14 C15 H15 118.6
C16 C15 H15 118.6
C15 C16 C11 117.5(4)
C15 C16 C17 121.9(4)
C11 C16 C17 120.6(4)
C16 C17 H17A 109.5
C16 C17 H17B 109.5
H17A C17 H17B 109.5
C16 C17 H17C 109.5
H17A C17 H17C 109.5
H17B C17 H17C 109.5
loop_
_geom_bond_atom_site_label_1
_geom_bond_atom_site_label_2
_geom_bond_distance
O1 C1 1.373(4)
O1 C9 1.377(4)
O2 C10 1.226(4)
N1 C9 1.260(4)
N1 C11 1.433(4)
N2 C10 1.311(5)
N2 H2NA 0.8600
N2 H2NB 0.8600
C1 C2 1.359(5)
C1 C6 1.376(5)
C2 C3 1.383(5)
C2 H2 0.9300
C3 C4 1.383(5)
C3 H3 0.9300
C4 C5 1.388(6)
C4 H4 0.9300
C5 C6 1.389(5)
C5 H5 0.9300
C6 C7 1.443(5)
C7 C8 1.334(5)
C7 H7 0.9300
C8 C9 1.467(5)
C8 C10 1.508(5)
C11 C12 1.377(6)
C11 C16 1.395(6)
C12 C13 1.382(5)
C12 H12 0.9300
C13 C14 1.378(6)
C13 H13 0.9300
C14 C15 1.367(6)
C14 H14 0.9300
C15 C16 1.375(5)
C15 H15 0.9300
C16 C17 1.498(6)
C17 H17A 0.9600
C17 H17B 0.9600
C17 H17C 0.9600
loop_
_geom_hbond_atom_site_label_D
_geom_hbond_atom_site_label_H
_geom_hbond_atom_site_label_A
_geom_hbond_distance_DH
_geom_hbond_distance_HA
_geom_hbond_distance_DA
_geom_hbond_angle_DHA
_geom_hbond_site_symmetry_A
N2 H2NB N1 0.86 1.98 2.679(4) 137.8 .
N2 H2NA O2 0.86 2.06 2.919(4) 173.3 2_766
loop_
_geom_torsion_atom_site_label_1
_geom_torsion_atom_site_label_2
_geom_torsion_atom_site_label_3
_geom_torsion_atom_site_label_4
_geom_torsion
C9 O1 C1 C2 -178.0(4)
C9 O1 C1 C6 3.0(6)
O1 C1 C2 C3 178.4(4)
C6 C1 C2 C3 -2.6(7)
C1 C2 C3 C4 1.8(7)
C2 C3 C4 C5 0.3(7)
C3 C4 C5 C6 -1.7(7)
C2 C1 C6 C5 1.3(6)
O1 C1 C6 C5 -179.7(4)
C2 C1 C6 C7 179.3(4)
O1 C1 C6 C7 -1.7(6)
C4 C5 C6 C1 0.9(7)
C4 C5 C6 C7 -177.0(4)
C1 C6 C7 C8 0.6(6)
C5 C6 C7 C8 178.4(4)
C6 C7 C8 C9 -0.5(6)
C6 C7 C8 C10 -179.5(4)
C11 N1 C9 O1 -0.8(6)
C11 N1 C9 C8 179.6(4)
C1 O1 C9 N1 177.5(4)
C1 O1 C9 C8 -2.9(6)
C7 C8 C9 N1 -178.8(4)
C10 C8 C9 N1 0.1(6)
C7 C8 C9 O1 1.6(6)
C10 C8 C9 O1 -179.5(4)
C7 C8 C10 O2 -2.2(6)
C9 C8 C10 O2 178.9(4)
C7 C8 C10 N2 179.3(4)
C9 C8 C10 N2 0.4(6)
C9 N1 C11 C12 -105.6(5)
C9 N1 C11 C16 79.6(5)
C16 C11 C12 C13 -1.6(6)
N1 C11 C12 C13 -176.4(4)
C11 C12 C13 C14 0.8(7)
C12 C13 C14 C15 0.4(7)
C13 C14 C15 C16 -0.9(7)
C14 C15 C16 C11 0.1(6)
C14 C15 C16 C17 -179.3(4)
C12 C11 C16 C15 1.1(6)
N1 C11 C16 C15 175.8(3)
C12 C11 C16 C17 -179.4(4)
N1 C11 C16 C17 -4.7(6)

_cod_database_fobs_code 2108491
