#------------------------------------------------------------------------------
#$Date: 2022-01-01 06:19:30 +0200 (Sat, 01 Jan 2022) $
#$Revision: 271667 $
#$URL: file:///home/coder/svn-repositories/cod/cif/2/10/89/2108921.cif $
#------------------------------------------------------------------------------
#
# This file is available in the Crystallography Open Database (COD),
# http://www.crystallography.net/. The original data for this entry
# were provided by IUCr Journals, http://journals.iucr.org/.
#
# The file may be used within the scientific community so long as
# proper attribution is given to the journal article from which the
# data were obtained.
#
data_2108921
loop_
_publ_author_name
'Rejnhardt, Piotr'
'Drozd, Marek'
'Daszkiewicz, Marek'
_publ_section_title
;
 Low-temperature phase transition and high-pressure phase stability of
 1<i>H</i>-pyrazole-1-carboxamidine nitrate
;
_journal_issue                   6
_journal_name_full               'Acta Crystallographica Section B'
_journal_page_first              996
_journal_page_last               1002
_journal_paper_doi               10.1107/S2052520621010970
_journal_volume                  77
_journal_year                    2021
_chemical_formula_moiety         'C4 H7 N4, N O3'
_chemical_formula_sum            'C4 H7 N5 O3'
_chemical_formula_weight         173.15
_space_group_crystal_system      monoclinic
_space_group_IT_number           14
_space_group_name_Hall           '-P 2ybc'
_space_group_name_H-M_alt        'P 1 21/c 1'
_atom_sites_solution_hydrogens   geom
_atom_sites_solution_primary     direct
_audit_creation_date             2021-07-19
_audit_creation_method
;
Olex2 1.2
(compiled 2018.05.29 svn.r3508 for OlexSys, GUI svn.r5506)
;
_cell_angle_alpha                90
_cell_angle_beta                 97.9(2)
_cell_angle_gamma                90
_cell_formula_units_Z            4
_cell_length_a                   5.028(6)
_cell_length_b                   10.152(6)
_cell_length_c                   13.36(5)
_cell_measurement_reflns_used    163
_cell_measurement_temperature    293(2)
_cell_measurement_theta_max      18.9140
_cell_measurement_theta_min      3.9980
_cell_volume                     675(3)
_computing_cell_refinement       'CrysAlisPro 1.171.39.46 (Rigaku OD, 2018)'
_computing_data_collection       'CrysAlisPro 1.171.39.46 (Rigaku OD, 2018)'
_computing_data_reduction        'CrysAlisPro 1.171.39.46 (Rigaku OD, 2018)'
_computing_molecular_graphics    'Olex2 (Dolomanov et al., 2009)'
_computing_publication_material  'Olex2 (Dolomanov et al., 2009)'
_computing_structure_refinement  'ShelXL (Sheldrick, 2015)'
_computing_structure_solution    'ShelXS (Sheldrick, 2008)'
_diffrn_ambient_temperature      293(2)
_diffrn_detector                 'CCD plate'
_diffrn_detector_area_resol_mean 8.2214
_diffrn_detector_type            'Sapphire2, large Be window'
_diffrn_measured_fraction_theta_full 0.349
_diffrn_measured_fraction_theta_max 0.350
_diffrn_measurement_details
;
List of Runs (angles in degrees, time in seconds):

  # Type    Start    End  Width  t~exp~   \w     \q     \k     \f   Frames
--------------------------------------------------------------------------
  1  \w    -20.00  31.60   0.60   30.00    --   25.00   0.00   0.00   86
  2  \w    -20.00  35.80   0.60   30.00    --   25.00   0.00 180.00   93
  3  \w     -3.00  46.80   0.60   30.00    --   25.00 -40.00-170.00   83
  4  \w     -3.00  46.80   0.60   30.00    --   25.00 -40.00  10.00   83
  5  \w      8.00  65.00   0.60   30.00    --   25.00 -82.00  30.00   95
  6  \w      8.00  65.00   0.60   30.00    --   25.00 -82.00-150.00   95
  7  \w     32.50  88.90   0.60   30.00    --   25.00-135.00-122.00   94
  8  \w     32.00  89.00   0.60   30.00    --   25.00-135.00  58.00   95
  9  \w     25.00  46.60   0.60   30.00    --  -25.00-135.00  58.00   36
 10  \w     25.00  46.60   0.60   30.00    --  -25.00-135.00-122.00   36
 11  \w      0.00  22.80   0.60   30.00    --  -25.00 -82.00-150.00   38
 12  \w      0.00  22.80   0.60   30.00    --  -25.00 -82.00  30.00   38
 13  \w    -19.00  17.00   0.60   30.00    --  -25.00 -40.00  10.00   60
 14  \w    -19.00  17.00   0.60   30.00    --  -25.00 -40.00-170.00   60
 15  \w    -33.00  21.60   0.60   30.00    --  -25.00   0.00 180.00   91
 16  \w    -33.00  21.60   0.60   30.00    --  -25.00   0.00   0.00   91
;
_diffrn_measurement_device       'four-circle diffractometer'
_diffrn_measurement_device_type  'Xcalibur, Sapphire2, large Be window'
_diffrn_measurement_method       '\w scans'
_diffrn_orient_matrix_type
'CrysAlisPro convention (1999,Acta A55,543-557)'
_diffrn_orient_matrix_UB_11      0.0582101000
_diffrn_orient_matrix_UB_12      -0.0137089000
_diffrn_orient_matrix_UB_13      -0.0439652000
_diffrn_orient_matrix_UB_21      0.1311441000
_diffrn_orient_matrix_UB_22      0.0038063000
_diffrn_orient_matrix_UB_23      0.0281493000
_diffrn_orient_matrix_UB_31      -0.0046111000
_diffrn_orient_matrix_UB_32      -0.0683337000
_diffrn_orient_matrix_UB_33      0.0105371000
_diffrn_radiation_monochromator  graphite
_diffrn_radiation_probe          x-ray
_diffrn_radiation_type           MoK\a
_diffrn_radiation_wavelength     0.71073
_diffrn_reflns_av_R_equivalents  0.1281
_diffrn_reflns_av_unetI/netI     0.0812
_diffrn_reflns_Laue_measured_fraction_full 0.349
_diffrn_reflns_Laue_measured_fraction_max 0.350
_diffrn_reflns_limit_h_max       5
_diffrn_reflns_limit_h_min       -5
_diffrn_reflns_limit_k_max       11
_diffrn_reflns_limit_k_min       -11
_diffrn_reflns_limit_l_max       8
_diffrn_reflns_limit_l_min       -8
_diffrn_reflns_number            3550
_diffrn_reflns_point_group_measured_fraction_full 0.349
_diffrn_reflns_point_group_measured_fraction_max 0.350
_diffrn_reflns_theta_full        24.779
_diffrn_reflns_theta_max         24.779
_diffrn_reflns_theta_min         4.015
_diffrn_source                   'fine-focus sealed X-ray tube'
_diffrn_source_type              'Enhance (Mo) X-ray Source'
_exptl_absorpt_coefficient_mu    0.146
_exptl_absorpt_correction_T_max  1.00000
_exptl_absorpt_correction_T_min  0.07274
_exptl_absorpt_correction_type   multi-scan
_exptl_absorpt_process_details
;
CrysAlisPro 1.171.39.46 (Rigaku Oxford Diffraction, 2018)
Empirical absorption correction using spherical harmonics,
 implemented in SCALE3 ABSPACK scaling algorithm.
;
_exptl_crystal_colour            colourless
_exptl_crystal_density_diffrn    1.702
_exptl_crystal_description       prism
_exptl_crystal_F_000             360
_refine_diff_density_max         0.135
_refine_diff_density_min         -0.121
_refine_diff_density_rms         0.035
_refine_ls_extinction_coef       0.03(2)
_refine_ls_extinction_expression Fc^*^=kFc[1+0.001xFc^2^\l^3^/sin(2\q)]^-1/4^
_refine_ls_extinction_method     'SHELXL-2018/3 (Sheldrick 2018)'
_refine_ls_goodness_of_fit_ref   1.061
_refine_ls_hydrogen_treatment    constr
_refine_ls_matrix_type           full
_refine_ls_number_parameters     110
_refine_ls_number_reflns         403
_refine_ls_number_restraints     0
_refine_ls_restrained_S_all      1.061
_refine_ls_R_factor_all          0.1305
_refine_ls_R_factor_gt           0.0589
_refine_ls_shift/su_max          0.000
_refine_ls_shift/su_mean         0.000
_refine_ls_structure_factor_coef Fsqd
_refine_ls_weighting_details
'w=1/[\s^2^(Fo^2^)+(0.0966P)^2^] where P=(Fo^2^+2Fc^2^)/3'
_refine_ls_weighting_scheme      calc
_refine_ls_wR_factor_gt          0.1318
_refine_ls_wR_factor_ref         0.1732
_reflns_Friedel_coverage         0.000
_reflns_number_gt                221
_reflns_number_total             403
_reflns_threshold_expression     'I > 2\s(I)'
_cod_data_source_file            xk5086sup1.cif
_cod_data_source_block           1.15GPa
_cod_original_cell_volume        676(3)
_cod_database_code               2108921
_shelx_shelxl_version_number     2018/3
_chemical_oxdiff_formula         C4N4NO3H7
_shelx_space_group_comment
;
The symmetry employed for this shelxl refinement is uniquely defined
by the following loop, which should always be used as a source of
symmetry information in preference to the above space-group names.
They are only intended as comments.
;
_reflns_odcompleteness_completeness 34.26
_reflns_odcompleteness_iscentric 1
_reflns_odcompleteness_theta     24.73
_olex2_refinement_description
;
1. Fixed Uiso
 At 1.2 times of:
  All C(H) groups, All N(H,H) groups
2.a Aromatic/amide H refined with riding coordinates:
 C1(H1), C2(H2), C3(H3)
2.b X=CH2 refined with riding coordinates:
 N3(H3A,H3B), N4(H4A,H4B)
;
_shelx_res_file
;
TITL monoclinic in P21/c #14
    monoclinic.res
    created by SHELXL-2018/3 at 15:43:52 on 19-Jul-2021
REM reset to P21/c #14
CELL 0.71073 5.028076 10.15181 13.361314 90 97.9055 90
ZERR 4 0.005736 0.006077 0.051178 0 0.2168 0
LATT 1
SYMM -X,0.5+Y,0.5-Z
SFAC C H N O
UNIT 16 28 20 12

L.S. 99
PLAN  20
BOND
fmap 2 53
ACTA
OMIT 2 10 2
OMIT 0 10 0
REM <olex2.extras>
REM <HklSrc "%.\\monoclinic.hkl">
REM </olex2.extras>

WGHT    0.096600
EXTI    0.027732
FVAR       1.94412
C1    1    0.104188    0.792631    0.535398    11.00000    0.09030    0.04860 =
         0.11294   -0.00543   -0.01666    0.00787
AFIX  43
H1    2   -0.040828    0.832219    0.495982    11.00000   -1.20000
AFIX   0
C2    1    0.319595    0.862764    0.589160    11.00000    0.07156    0.05111 =
         0.10780   -0.00870    0.02610   -0.00734
AFIX  43
H2    2    0.338585    0.953765    0.593889    11.00000   -1.20000
AFIX   0
C3    1    0.492426    0.771365    0.632316    11.00000    0.08451    0.04734 =
         0.19944   -0.01820   -0.03491   -0.00022
AFIX  43
H3    2    0.657604    0.786659    0.671180    11.00000   -1.20000
AFIX   0
C4    1    0.479410    0.525160    0.629750    11.00000    0.06075    0.03901 =
         0.14123    0.00328    0.01336   -0.00595
N1    3    0.376157    0.650401    0.607514    11.00000    0.07142    0.03787 =
         0.23373   -0.00329   -0.03773   -0.00097
N2    3    0.132171    0.664169    0.547487    11.00000    0.07015    0.04877 =
         0.14997   -0.01132   -0.02096    0.00435
N3    3    0.334367    0.424763    0.591495    11.00000    0.08574    0.04229 =
         0.23709    0.01009   -0.03414    0.00144
AFIX  93
H3A   2    0.393602    0.345741    0.601675    11.00000   -1.20000
H3B   2    0.180280    0.438127    0.556299    11.00000   -1.20000
AFIX   0
N4    3    0.710582    0.511482    0.682843    11.00000    0.07224    0.06213 =
         0.12973    0.00413   -0.02674    0.00071
AFIX  93
H4A   2    0.776937    0.434071    0.694750    11.00000   -1.20000
H4B   2    0.799151    0.579725    0.706518    11.00000   -1.20000
AFIX   0
N5    3    0.246072    0.646989    0.828896    11.00000    0.08644    0.05230 =
         0.08175   -0.00762   -0.01211   -0.00270
O1    4    0.490012    0.673927    0.855086    11.00000    0.05908    0.05810 =
         0.16216   -0.01154   -0.01568   -0.00534
O2    4    0.166121    0.532548    0.828331    11.00000    0.09658    0.05014 =
         0.21384   -0.00174   -0.03438   -0.01437
O3    4    0.083345    0.738008    0.795253    11.00000    0.08400    0.06282 =
         0.22090    0.01631   -0.03142    0.00663
HKLF 4




REM  monoclinic in P21/c #14
REM wR2 = 0.1732, GooF = S = 1.061, Restrained GooF = 1.061 for all data
REM R1 = 0.0589 for 221 Fo > 4sig(Fo) and 0.1305 for all 403 data
REM 110 parameters refined using 0 restraints

END

WGHT      0.0961      0.0000

REM Highest difference peak  0.135,  deepest hole -0.121,  1-sigma level  0.035
Q1    1   0.4750  0.3195  0.6767  11.00000  0.05    0.14
Q2    1   0.0645  0.6383  0.4640  11.00000  0.05    0.13
Q3    1   0.3259  0.7660  0.9073  11.00000  0.05    0.11
Q4    1   0.8603  0.5031  0.7616  11.00000  0.05    0.10
Q5    1   0.2268  0.6604  0.6828  11.00000  0.05    0.09
Q6    1   0.2509  0.6337  0.6389  11.00000  0.05    0.09
Q7    1   0.2376  0.4837  0.7995  11.00000  0.05    0.09
Q8    1  -0.1190  0.8182  0.4747  11.00000  0.05    0.09
Q9    1  -0.1362  0.6425  0.8385  11.00000  0.05    0.09
Q10   1   0.2362  0.9629  0.5409  11.00000  0.05    0.09
Q11   1   0.3346  1.0781  0.5806  11.00000  0.05    0.08
Q12   1   0.1229  0.8312  0.6560  11.00000  0.05    0.07
Q13   1   0.0532  0.7269  0.7589  11.00000  0.05    0.07
Q14   1   0.4599  0.8343  0.5598  11.00000  0.05    0.07
Q15   1   0.1210  0.7540  0.7452  11.00000  0.05    0.07
Q16   1   0.4506  0.9861  0.6754  11.00000  0.05    0.07
Q17   1   0.4291  0.9917  0.7001  11.00000  0.05    0.07
Q18   1  -0.0226  0.7396  0.6422  11.00000  0.05    0.07
Q19   1   0.6804  0.9200  0.5577  11.00000  0.05    0.06
Q20   1   0.3822  0.8572  0.5845  11.00000  0.05    0.06
;
_shelx_res_checksum              88414
_shelx_hkl_file
;
   0  -2   0 2218.51 117.729   7
   0  -2   0 2162.85 120.872   8
   0   2   0 2035.66 113.347   9
   0  -2   0 2013.52 107.280   6
   0   2   0 2232.40 112.280  12
   0  -2   0 2214.07 94.2227   3
   0  -2   0 2122.82 102.301   5
   0  -2   1 7706.99 140.398   3
   0   2  -1 7790.05 141.158  14
   0  -2   1 7596.81 218.362   7
   0  -2   1 7612.25 206.493   5
   0  -2   1 7830.98 188.154   4
   0  -2   1 7972.02 225.477   8
   0   2  -1 7968.68 203.718  11
   0  -2   1 7717.09 200.115   6
   0  -2   2 1349.35 102.548   5
   0  -2   2 1252.54 103.379   8
   0  -2   2 1238.12 103.762   7
   0   2  -2 1331.29 110.299  10
   0   3   0 17.7980 17.0301  12
   0  -3   0-28.7061 21.5269   6
   0   3   0-2.89280 13.4421   9
   0  -3   0 10.5106 18.3687   7
   0  -3   0-0.74322 8.67737   4
   0  -3   0 13.2532 15.6746   8
   0  -3   0-17.2925 15.7174   5
   0  -3   1 2689.64 128.146   4
   0  -3  -1 3093.75 203.514   8
   0  -3   1 2486.21 101.564   3
   0   3  -1 2698.15 144.803  11
   0   3   1 2649.95 166.224   9
   0  -3   1 2736.32 150.639   5
   0  -3   1 2862.73 170.541   8
   0  -3   1 2886.72 169.073   7
   0   3  -1 2718.48 125.232  13
   0  -3  -1 2369.74 220.371   6
   0  -3  -1 2921.68 186.919   7
   0  -3   1 2729.60 151.165   6
   0   3  -1 2869.36 103.093  14
   0  -3   2 857.338 88.6669   4
   0  -3   2 864.249 86.2256   6
   0   3  -2 892.127 88.3299  11
   0  -3   2 796.515 52.9067   2
   0  -3   2 785.502 86.7416   5
   0  -3   2 865.123 96.1402   8
   0  -3   2 820.285 94.4394   7
   0   3  -2 833.832 99.4304  10
   0  -3   3 6263.23 276.631   5
   0   3  -3 6098.73 284.958  10
   0  -3   3 5907.08 239.507   6
   0  -3   3 6304.68 280.325   8
   0  -3   3 6446.95 288.090   7
   0  -4   0 655.215 83.7787   5
   0  -4   0 710.462 96.6590   7
   0   4   0 813.833 98.8381  12
   0   4   0 760.684 102.870   9
   0  -4   0 712.330 101.654   8
   0  -4   0 764.977 99.1295   6
   0  -4   0 655.575 69.0797   4
   0  -4   1 762.662 103.179   7
   0  -4   1 737.026 102.623   8
   0  -4  -1 616.338 83.1480   5
   0  -4   1 635.485 63.0701   3
   0   4  -1 686.018 59.9929  14
   0   4  -1 675.682 88.4804  12
   0  -4   1 771.455 77.7357   4
   0   4  -1 798.169 83.7874  13
   0  -4   1 671.750 88.3708   6
   0  -4  -1 681.428 102.334   7
   0  -4  -1 663.907 105.727   8
   0   4   1 748.710 105.651   9
   0  -4   1 718.141 90.6574   5
   0  -4  -1 698.793 128.588   6
   0   4  -2 4626.25 205.412  13
   0  -4   2 4668.46 256.978   8
   0  -4   2 4704.05 237.715   5
   0  -4   2 4806.94 232.203   6
   0  -4   2 4412.92 248.159   7
   0   4  -2 4343.22 246.773  10
   0  -4   2 4426.09 211.781   4
   0   4  -2 4561.20 222.482  11
   0  -4   2 4552.45 157.327   3
   0  -4   3 776.094 56.1997  15
   0  -4   3 1079.83 114.905   6
   0  -4   3 940.196 123.896   8
   0   4  -3 969.012 126.837  10
   0  -4   3 1038.54 122.689   5
   0  -4   3 981.408 123.276   7
   0  -4   4 245.802 61.4870   6
   0  -4   4 346.636 85.6955   7
   0  -4   4 235.608 65.0444   5
   0  -5   0 28.2511 25.6174   4
   0  -5   0 18.1388 28.8557   5
   0  -5   0 46.8994 44.2766   7
   0  -5   0-11.2833 28.9927   8
   0  -5   0-14.4012 28.9989   6
   0   5   0 57.2928 46.0793  12
   0   5   0 53.7103 34.3886   9
   0   5   1 1040.50 138.542   9
   0  -5   1 995.733 108.937   3
   0   5  -1 1351.06 131.651  13
   0  -5   1 846.348 90.7091   4
   0  -5   1 951.652 117.003   5
   0   5  -1 1015.35 123.605  12
   0  -5  -1 562.287 128.200   6
   0   5  -1 877.574 116.609   9
   0  -5  -1 939.784 130.485   7
   0  -5   1 1002.55 132.740   7
   0  -5  -1 875.558 108.614   5
   0   5  -1 954.844 82.3604  14
   0  -5   1 918.775 131.833   8
   0  -5  -1 951.287 145.114   8
   0  -5   1 895.549 114.399   6
   0  -5   2 336.885 63.7609   4
   0  -5   2 463.690 86.0039   5
   0  -5   2 376.166 85.8671   8
   0   5  -2 429.423 77.1326  11
   0   5  -2 312.402 77.0558  10
   0  -5   2 317.194 48.7652   3
   0  -5   2 481.623 88.6806   6
   0  -5   2 381.384 86.2052   7
   0   5  -2 373.239 64.7857  13
   0   5  -2 403.747 82.7978  12
   0   5  -3 32.6427 12.9416  16
   0   5  -3 57.6939 41.8427  10
   0  -5   3 63.9323 36.7612   6
   0  -5   3 82.5182 24.1321   3
   0   5  -3 68.9643 30.8284  13
   0   5  -3 89.9552 42.3142  11
   0  -5   3 48.9350 34.1086   7
   0  -5   3 85.9712 47.6086   5
   0  -5   3 61.9355 39.9815   8
   0   5  -3 72.7953 14.7941   1
   0  -5   4 1475.39 157.815   6
   0  -5   4 1393.79 174.803   7
   0   5  -4 1365.33 172.542  10
   0  -5   4 1315.84 163.587   5
   0  -5   4 972.182 74.6268  15
   0  -5   4 1217.86 162.224   8
   0   6   0 3731.77 192.883  14
   0  -6   0 4088.67 308.586   6
   0  -6   0 3264.04 187.739   4
   0   6   0 3671.84 280.651   9
   0  -6   0 3532.44 244.703   5
   0  -6   0 3623.74 288.111   8
   0  -6   0 3486.81 269.450   7
   0   6  -1 353.497 80.8289  12
   0   6   1 366.253 89.8669   9
   0  -6  -1 332.108 78.7911   5
   0   6  -1 339.739 59.3026  14
   0   6  -1 425.584 86.7841  11
   0  -6  -1 378.991 95.6970   7
   0  -6   1 415.063 99.8255   7
   0  -6   1 351.467 92.0221   8
   0  -6  -1 352.498 101.683   8
   0   6  -1 348.294 89.6449   9
   0  -6   1 454.533 95.9642   6
   0  -6   1 379.669 67.3446   4
   0  -6   1 380.737 85.1090   5
   0  -6   2 41.2348 29.6903   4
   0   6  -2 21.4328 28.7034  12
   0   6  -2 84.1205 41.9535  13
   0   6  -2 17.4701 23.1092   9
   0  -6   2 53.4570 33.2072   3
   0  -6   2 3.67630 27.7375   5
   0  -6   2-24.9786 42.8707   7
   0  -6   2 50.8989 49.2220   8
   0  -6   2 23.9220 37.9006   6
   0   6  -2 30.2942 30.8641  10
   0   6  -2 73.8544 37.6718  11
   0  -6   3 393.099 92.3970   6
   0   6  -3 328.714 73.9896  13
   0  -6   3 290.848 49.5538   3
   0  -6   3 357.200 98.3329   8
   0  -6   3 377.741 100.612   7
   0  -6   3 356.774 88.0942   5
   0   6  -3 338.162 91.2068  12
   0   6  -3 358.406 83.2934  11
   0   6  -3 287.489 84.6386  10
   0  -6   4 439.216 62.1446   3
   0  -6   4 564.681 132.555   7
   0  -6   4 613.598 116.962   6
   0   6  -4 476.051 94.5429  13
   0  -6   4 568.408 118.738   5
   0  -6   4 511.387 122.210   8
   0   6  -4 446.718 109.726  10
   0  -6   5 108.123 56.4021   5
   0  -6   5 54.8872 20.7916  15
   0  -6   5 144.484 68.3109   6
   0  -6   5 113.941 62.7459   8
   0  -6   5 173.299 81.5460   7
   0  -7   0 27.8424 27.7244   4
   0  -7   0 2.04958 53.6783   6
   0   7   0-6.01107 25.6695  14
   0  -7   0-19.2212 46.8852   7
   0  -7   0 55.2049 52.5255   8
   0   7   0 54.9106 53.0763   9
   0  -7   0 70.8547 44.4285   5
   0   7  -1 208.260 73.9243  11
   0  -7   1 211.027 73.0839   6
   0  -7  -1 216.755 78.5251   5
   0  -7  -1 166.031 79.9753   8
   0   7  -1 182.024 72.8212  12
   0   7  -1 175.716 48.5604  14
   0  -7  -1 177.397 75.1235   7
   0  -7   1 253.932 89.1408   8
   0  -7   1 198.848 71.1561   5
   0  -7   1 256.193 92.8483   7
   0  -7   1 251.034 61.4879   4
   0   7  -1 165.732 67.3162   9
   0   7  -2-70.9650 39.8074  12
   0  -7   2 12.8367 45.7736   6
   0   7  -2 34.3542 44.4812  10
   0  -7   2-81.0243 63.3820   8
   0   7  -2 15.5903 46.3487  13
   0  -7   2-20.1113 47.1946   7
   0  -7   2-52.6624 53.5973   5
   0  -7   2 23.3119 32.1904   4
   0   7  -2-12.7312 29.7096  11
   0   7  -2-45.6914 45.5282   9
   0   7  -3 79.9335 49.6601  13
   0   7  -3-31.4828 45.8318  11
   0   7  -3-5.98920 43.0763  12
   0  -7   3 27.5160 51.5323   8
   0  -7   3-26.7189 53.4881   7
   0  -7   3-2.95802 22.3860   3
   0  -7   3 17.1288 38.6367   6
   0  -7   3 13.9086 38.0530   5
   0   7  -3-36.3165 53.9132  10
   0  -7   4 228.624 96.5086   8
   0  -7   4 293.409 93.4033   6
   0  -7   4 360.077 107.649   5
   0   7  -4 389.798 96.5047  13
   0   7  -4 230.048 91.2583  10
   0   7  -4 206.593 88.5072  12
   0  -7   4 296.699 111.415   7
   0   7  -5-75.0601 52.1429  10
   0   7  -5 48.7642 39.3810  13
   0  -7   5 61.0619 69.0373   6
   0  -7   5 9.71957 47.0606   7
   0  -7   5 46.5387 50.1851   5
   0  -7   5 20.8257 46.6703   8
   0  -8   0 55.9132 59.2140   7
   0  -8   0-6.16747 48.3121   8
   0   8   0 82.5004 65.5459   9
   0  -8   0 235.468 91.7228   5
   0   8   0 88.0634 38.1804  14
   0  -8   0 65.3849 88.3884   6
   0  -8   1 2081.19 261.231   8
   0  -8   1 2460.22 222.929   4
   0  -8   1 2707.95 303.063   6
   0   8  -1 2323.50 245.477  11
   0  -8   1 2221.71 239.731   5
   0  -8   1 2086.54 257.593   7
   0   8  -1 2026.56 226.443  12
   0   8  -1 1967.59 243.684   9
   0  -8   2 437.668 112.299   5
   0  -8   2 210.595 75.1470   6
   0  -8   2 503.033 137.814   8
   0   8  -2 389.816 108.491  12
   0   8  -2 266.571 97.0095  10
   0  -8   2 328.986 117.050   7
   0   8  -2 336.073 95.2132  11
   0   8  -2 246.885 87.4794   9
   0  -8   2 405.112 108.869   4
   0   8  -3 1048.09 180.131  12
   0   8  -3 955.499 158.798  11
   0  -8   3 1052.31 194.126   8
   0   8  -3 846.930 161.994  10
   0   8  -3 838.541 163.471   9
   0  -8   3 882.009 177.457   7
   0  -8   3 1139.29 182.630   6
   0  -8   3 985.221 172.430   5
   0   8  -4 68.2645 65.6409  12
   0  -8   4 231.666 97.9055   6
   0  -8   4 194.303 98.4836   7
   0  -8   4 119.605 85.3404   5
   0   8  -4 32.4515 63.6426  10
   0  -8   4 105.022 88.2592   8
   0   8  -4 59.8930 63.9789   9
   0  -8   5 314.349 107.281   6
   0  -8   5 382.113 136.976   7
   0  -8   5 277.001 111.887   5
   0   8  -5 276.245 85.1604  13
   0   8  -5 286.176 117.382  12
   0   8  -5 62.1503 63.0218  10
   0  -8   5 299.101 114.975   8
   0   9   0 64.9606 54.6497  11
   0   9   0 48.0264 54.8753   9
   0  -9   0-30.8749 56.1975   7
   0  -9   0-24.0173 59.0356   8
   0  -9   0 22.6447 55.0313   5
   0  -9   1 219.635 90.6959   5
   0  -9   1 321.643 125.282   8
   0   9  -1 126.459 72.4961  11
   0  -9   1 145.383 101.270   6
   0  -9   1 66.3516 57.1786   7
   0   9  -1 301.452 115.274   9
   0   9  -1 199.159 97.0300  10
   0   9  -2 167.718 97.0175  10
   0   9  -2 332.635 107.060  11
   0  -9   2 260.417 112.123   8
   0   9  -2 204.317 91.6886   9
   0   9  -2 275.925 106.907  12
   0  -9   2 294.149 119.646   7
   0  -9   2 269.506 99.4834   5
   0  -9   2 237.148 105.038   6
   0  -9   3 155.224 83.2279   5
   0  -9   3 297.802 115.897   6
   0   9  -3 69.5459 66.0339   9
   0  -9   3 298.740 120.528   7
   0   9  -3 294.924 122.072  10
   0   9  -3 285.043 101.812  11
   0  -9   3 241.305 114.909   8
   0   9  -3 55.4417 63.3563  12
   0  -9   4 317.841 121.822   5
   0  -9   4 275.340 124.318   8
   0   9  -4 265.509 104.750  10
   0   9  -4 12.8622 99.0205   9
   0  -9   4 122.464 133.541   7
   0  -9   4 399.292 130.289   6
   0   9  -4 256.197 117.266  12
   0   9  -5-0.16110 67.3442   9
   0   9  -5 80.6264 66.1026  10
   0   9  -5 114.288 74.1178  12
   0  -9   5-75.3404 62.4556   8
   0  -9   5-10.6620 66.3138   7
   0  -9   5 54.7817 52.9778   6
   0  -9   5-145.506 100.457   5
   0  10   0 161.984 80.8271  11
   0 -10   0 198.934 132.646   8
   0  10  -1 140.237 98.8077  10
   0  10  -1 12.8671 55.9147  11
   0  10  -1 168.934 94.3835   9
   0 -10   1 13.4180 63.9093   8
   0 -10   1 94.1442 77.1301   5
   0 -10   1-14.1304 84.2770   7
   0 -10   2-31.1509 103.846   6
   0  10  -2-90.0940 77.3499  11
   0  10  -2 21.4351 51.3676   9
   0 -10   2-196.857 115.215   5
   0 -10   2 32.6922 81.8750   7
   0 -10   2 8.38472 84.3010   8
   0  10  -2 99.7568 95.4257  10
   0  10  -3-102.106 80.9336  10
   0 -10   3 158.421 111.092   6
   0  10  -3 118.864 85.3693  12
   0 -10   3 142.418 84.3354   5
   0 -10   3 71.1511 96.3153   7
   0  10  -3-71.7036 61.4142  11
   0  10  -3 11.8027 54.4962   9
   0 -10   3 138.017 112.941   8
   0  10  -4 22.3197 55.2645   9
   0  10  -4 139.012 91.2187  12
   0 -10   4 130.346 100.381   6
   0 -10   4 339.347 150.328   8
   0 -10   4 42.2874 111.213   7
   0 -10   4 273.333 120.786   5
   0  10  -4 101.053 99.3141  10
   0 -10   5-56.3439 110.019   7
   0  10  -5 117.328 79.7233  12
   0 -10   5 186.904 110.400   5
   0 -10   5 154.718 105.190   8
   0  10  -5 35.0223 94.8154   9
   0  10  -5 137.325 104.182  10
   0 -10   5-58.3835 84.1724   6
   0 -11   1 166.937 137.114   8
   0  11  -1 132.016 76.5783  11
   0 -11   1-3.28879 105.067   7
   0  11  -1 61.3914 83.5059  10
   0  11  -2 25.3397 56.9085  11
   0  11  -2 168.992 120.627  10
   0 -11   2 31.2200 111.874   7
   0  11  -2 1.94332 66.1735   9
   0 -11   2-63.2458 75.1035   8
   0 -11   2 184.637 137.666   5
   0 -11   3-118.612 142.095   7
   0  11  -3 73.0336 75.1349  11
   0 -11   3-171.391 173.891   6
   0 -11   3-32.7128 90.1225   8
   0 -11   3-120.240 122.841   5
   0  11  -3-5.28631 85.9190   9
   0  11  -4 79.2986 100.544  10
   0  11  -4-34.7023 64.4460  12
   0 -11   4-16.7366 75.8983   8
   0  11  -4-4.13400 104.743   9
   0 -11   4 28.8289 122.721   7
   0 -11   4 109.109 94.4703   6
   0 -11   4-56.9880 78.3064   5
   0  11  -5 85.3517 86.3404  12
   0 -11   5 188.805 118.216   8
   0 -11   5 78.0220 85.8140   5
   0  11  -5 8.65458 105.400   9
   0 -11   5-2.95837 93.8018   7
   0  11  -5 120.387 100.980  10
  -1   0   0 4829.62 152.031  16
   1   0   0 4924.71 171.772  15
   1   0   0 4701.08 172.883  14
  -1   0   0 4635.18 207.963  13
   1   0   1 8.54945 12.2493  15
   1   0   1 3.76689 10.5737   1
   1   0   1 9.92476 11.1548   4
  -1   0  -1 19.0010 12.9761  13
  -1   0  -1 5.15839 7.33590  16
   1   0   1 26.1700 11.2542   5
   1   0   1-3.37080 5.44786  11
  -1   0  -1 7.18167 14.7944   2
  -1   0  -1 11.8658 9.94001   6
   1   0   1 9.93624 9.87603  14
  -1   0  -1 14.9246 11.5691  12
  -1   0  -1-13.6074 8.16638   3
  -1   0  -2 37.9989 18.1030   2
  -1   0  -2-10.0581 20.9863   6
  -1   0  -2 21.0621 12.8822   3
  -1   0  -2-0.32429 11.4113  16
   1   0   2 1.66163 9.49004   4
   1   0   2 25.0840 17.6837   1
   1   0   2 49.3786 17.2695   5
   1   0   2 51.4176 21.1124  15
   1   0   3 12.3693 14.1035   4
  -1   0  -3 4.92214 20.1134   2
   1   0   3 13.8248 16.1176  15
   1   0   3 5.16423 18.5942   1
  -1   0  -3-15.9919 15.1111  16
  -1  -1   0 18717.7 355.455   3
  -1  -1   0 18344.6 298.529  16
  -1   1   0 18702.0 455.489  13
   1   1   0 18618.4 334.870  15
  -1  -1   0 18711.7 354.247   2
   1   1   0 18569.5 340.504  14
  -1  -1   0 18600.9 336.655   6
   1   1   0 18919.0 340.166   1
   1   1   0 18587.3 368.051  11
   1   1   1 5149.37 160.487   4
   1   1   1 5030.11 178.111  14
   1  -1   1 5145.32 142.564  14
  -1  -1  -1 4881.24 170.052   6
  -1   1  -1 4942.02 145.381   3
   1   1   1 5232.25 124.908   8
  -1  -1  -1 5225.60 169.247  13
   1  -1   1 5131.24 176.937   5
   1   1   1 4989.98 173.615  11
   1  -1   1 5280.76 189.197   1
  -1  -1  -1 5019.75 158.058  16
   1   1   1 5214.83 176.765  15
  -1   1  -1 4735.52 188.920   2
   1   1   1 5283.64 183.178   1
   1  -1   1 5504.01 221.654   4
  -1  -1  -1 4983.96 115.843   7
  -1  -1  -1 5050.05 195.496   2
   1  -1   1 5048.55 179.235  15
   1   1   1 5089.40 119.893   7
  -1   1  -1 5026.37 208.387  13
   1   1   1 5161.32 125.256  10
  -1   1  -1 5051.66 154.517  16
   1  -1   1 4875.86 138.984   8
  -1   1  -1 5342.38 192.586  12
  -1  -1  -1 4987.19 116.558   8
  -1  -1  -1 5654.18 205.199   3
  -1  -1  -2 224.014 50.8503   2
   1   1   2 270.186 33.0105   7
  -1  -1  -2 215.248 43.7747   3
  -1  -1  -2 221.300 37.5727  16
   1   1   2 254.746 45.8785   4
  -1  -1  -2 269.281 48.5225   6
  -1  -1  -2 233.279 25.8275   5
  -1  -1  -2 247.284 31.2314   8
   1   1   2 234.315 46.4550   1
   1   1   2 244.378 47.4466  15
   1   1   3 61.2338 26.6184   1
   1  -1   3 8.41165 14.1319   7
   1  -1   3-23.8912 20.4342   1
  -1   1  -3-3.23609 14.0037  16
  -1  -1  -3 24.9146 30.2319  16
  -1   1  -3 9.48667 20.8866   2
  -1  -1  -3 18.0544 26.9756   2
   1   1   3-2.74071 12.8284  15
   1  -1   3-7.99342 16.0420   5
   1  -1   3 7.27507 14.9664   4
   1  -1   3 45.0386 28.2069  15
  -1   1  -4 929.229 366.656   2
   1  -1   4 585.957 99.0932   4
  -1   1  -4 857.609 123.359  16
  -1  -2   1 1011.21 92.1429   7
  -1  -2   1 1254.81 113.926   6
   1   2  -1 1096.04 99.0282  14
  -1  -2   0 1068.32 95.6066   3
   1   2   0 1104.67 79.1642   1
   1   2   0 1036.13 51.5127   4
  -1  -2   0 1092.86 95.6963   6
   1   2   0 1121.30 92.1931  10
  -1  -2   0 1138.45 88.2779   8
  -1  -2   0 1173.29 76.5141  16
  -1  -2   0 1119.41 82.2454   7
   1   2   0 1060.24 97.4448  11
   1   2   0 1087.80 81.4646  15
   1   2   0 1150.85 92.5279  14
  -1  -2   0 1051.30 83.9287   2
   1   2   0 1055.75 52.7757   5
   1   2   1 2414.35 122.007  15
  -1   2  -1 2179.19 146.780  12
   1  -2   1 2128.19 125.808   8
  -1   2  -1 2248.29 129.961   2
  -1   2  -1 2087.58 89.5090   6
  -1  -2  -1 2190.30 107.940  16
  -1   2  -1 2282.39 105.704  16
   1  -2   1 2047.88 114.590  15
  -1  -2  -1 2157.61 92.9174  13
   1  -2   1 2229.06 135.526   7
   1   2   1 2425.12 127.071   1
  -1  -2  -1 2420.95 149.831   6
   1  -2   1 2228.86 139.614   5
  -1  -2  -1 2290.85 146.652   3
   1  -2   1 2245.05 125.379   1
  -1  -2  -1 2370.71 117.629   8
   1   2   1 2300.01 117.252   9
  -1  -2  -1 2378.77 139.242   2
  -1  -2  -1 2427.47 119.565   7
  -1   2  -1 2139.52 131.274   9
   1   2   1 2479.01 138.533  14
  -1   2  -1 2230.74 153.880  13
   1  -2   1 2091.95 152.372   4
  -1  -2  -2 327.165 48.3486  16
   1   2   2 459.659 66.0225   1
   1  -2   2 363.739 54.1436   1
  -1   2  -2 308.683 63.7751  13
  -1   2  -2 415.111 43.4234   3
  -1  -2  -2 359.235 63.5054   6
  -1   2  -2 370.493 53.5077   2
   1  -2   2 319.955 47.6075   8
   1   2   2 429.044 58.3541  15
   1  -2   2 338.647 31.6137  14
   1  -2   2 362.284 66.8035   4
  -1   2  -2 316.704 40.1316  16
   1  -2   2 328.215 48.9557  15
   1  -2   2 337.383 52.3573   7
  -1  -2  -2 363.108 62.6464   3
   1  -2   2 345.106 58.2416   5
  -1  -2  -2 375.053 52.2009   8
  -1   2  -2 340.321 59.1775  12
  -1  -2  -2 402.457 80.2413   2
   1  -2   3 1753.92 154.966   4
  -1  -2  -3 1568.02 175.808   3
   1  -2   3 1630.49 120.001  15
   1  -2   3 1840.46 138.247   5
  -1   2  -3 1799.18 107.469  16
  -1   2  -3 1936.92 144.337   2
   1  -2   3 1917.91 144.143   1
  -1   2  -3 1734.59 124.642  10
  -1  -2  -3 1770.49 198.724  16
   1  -2   3 1712.95 116.696   7
   1  -2   3 1946.95 130.503   8
   1  -2   4 3956.14 222.844  15
  -1   2  -4 4224.13 200.373  16
   1  -2   4 3967.89 230.288   5
  -1   2  -4 3477.01 411.172   2
  -1  -3   2 196.938 51.6309   7
  -1  -3   2 275.704 63.5083   6
  -1  -3   1 7707.55 281.926   7
   1   3  -1 7522.49 206.971   1
   1   3  -1 7969.82 312.171  10
  -1  -3   1 7619.26 300.401   6
   1   3  -1 7810.19 269.917  14
  -1  -3   1 7727.96 275.212   3
   1   3  -1 7955.93 317.409  11
  -1  -3   1 7950.30 295.676   8
  -1  -3   1 7817.56 218.234   2
   1   3   0 131.496 28.5835  15
  -1  -3   0 206.626 35.2312   5
   1  -3   0 118.095 45.9129   5
   1   3   0 129.593 40.8204  11
   1   3   0 125.204 35.3725  14
  -1  -3   0 102.070 32.4945   8
  -1  -3   0 166.675 45.2376   3
  -1  -3   0 148.388 39.6253   7
   1   3   0 114.169 37.4043  10
   1   3   0 134.567 29.1932   1
   1  -3   0 44.9216 24.7408   8
  -1  -3   0 120.974 32.7093   2
  -1  -3   0 132.868 29.3289  16
  -1  -3   0 134.486 39.6748   6
   1   3   1 8.14956 12.8639   9
  -1   3  -1 0.07680 19.3828   2
   1  -3   1 54.1198 30.5048   7
  -1  -3  -1 25.5509 20.0528   8
   1   3   1 22.3145 13.8541  15
  -1   3  -1 17.0531 16.3651  13
  -1  -3  -1 20.4194 17.8228   7
  -1  -3  -1 28.7706 24.6388   2
   1  -3   1 21.0338 26.3726   5
   1  -3   1 22.3993 22.2289   4
  -1   3  -1 23.3597 18.0850   9
   1   3   1 27.4306 16.6697   1
   1  -3   1 30.6437 15.0202   1
  -1  -3  -1-19.7639 26.7463   6
  -1   3  -1 1.72837 20.2149  12
   1  -3   1 43.4575 24.7395   8
  -1  -3  -1 7.34868 12.3800  16
  -1  -3  -1 39.1722 23.8211   3
  -1  -3  -1 24.2294 12.0766   5
   1   3   1 50.0609 26.3140  14
   1  -3   2-0.66902 15.2207   8
   1   3   2 36.1033 19.4216  15
  -1   3  -2-42.3454 38.4753  12
  -1  -3  -2 18.1537 25.4575   6
   1  -3   2 16.0457 17.5280  15
   1  -3   2-3.56586 18.4142   4
  -1  -3  -2 44.3183 124.157   2
  -1  -3  -2 11.9691 21.9322   8
  -1   3  -2 6.30322 8.33298  11
  -1  -3  -2-29.5450 27.5632   3
   1  -3   2 30.8107 18.1608   1
   1  -3   2 19.1703 19.9344   7
   1  -3   2 29.3116 27.9881   5
   1  -3   2-1.60195 6.37345   6
  -1   3  -2 1.79669 10.9441  16
  -1   3  -2-1.62405 19.6672   2
  -1   3  -2 15.9092 24.3188  13
  -1  -3  -2-6.97867 13.2870  16
  -1   3  -2 2.47630 16.1719   9
  -1   3  -3 2321.74 163.023  10
   1  -3   3 2324.59 158.190   1
   1  -3   3 2368.59 107.722   6
  -1   3  -3 2421.39 121.520  16
   1  -3   3 2340.65 173.826   5
   1  -3   3 2128.18 131.460  15
   1  -3   3 2306.10 160.064   7
  -1   3  -3 2564.64 167.746   2
   1  -3   3 2370.55 193.542   4
  -1   3  -3 2390.09 184.832  13
   1  -3   3 2231.46 155.921   8
  -1   3  -4 1021.97 91.6804  16
   1  -3   4 1085.97 76.8201   6
   1  -3   4 968.960 104.662  15
   1  -3   4 1061.37 114.650   7
  -1   3  -4 1196.04 271.372   2
   1  -3   4 1008.10 142.807   4
   1  -3   4 973.327 121.896   5
   1  -3   4 886.257 109.828   8
   1  -3   5-2.53860 26.2141   5
   1  -3   5-30.6538 27.7429   7
   1  -3   5 23.5335 34.3587   4
   1  -3   5 0.69819 20.2080  15
  -1   3  -5 21.1297 21.7246  16
  -1  -4   2 5475.32 296.126   6
  -1  -4   2 5305.18 284.240   7
  -1  -4   2 5576.43 260.080   3
   1   4  -2 5561.25 304.566  11
  -1  -4   2 5080.95 287.522   8
   1   4  -2 5218.40 296.803  10
   1   4  -1 2356.85 107.375   1
   1   4  -1 2579.37 197.933  10
  -1  -4   1 2418.06 160.265   5
   1   4  -1 2713.49 169.666  14
  -1  -4   1 2737.55 193.291   8
  -1  -4   1 2673.89 177.046   3
  -1  -4   1 2740.98 193.184   7
  -1  -4   1 2665.31 123.968   2
  -1  -4   1 2716.89 203.017   6
   1   4  -1 2596.62 194.548  11
   1  -4   0 901.136 156.525   4
  -1  -4   0 939.922 111.190   7
   1   4   0 873.455 93.4346  14
   1   4   0 854.212 73.3543  15
   1   4   0 832.815 109.224  11
   1  -4   0 866.726 122.734   5
   1   4   0 975.930 79.1498   1
  -1  -4   0 924.413 82.0790   2
  -1  -4   0 980.681 72.2487  16
  -1  -4   0 914.243 107.222   3
  -1  -4   0 926.519 83.2734   5
   1   4   0 874.617 84.4204  12
  -1  -4   0 944.965 119.976   6
   1   4   0 790.809 103.778  10
  -1  -4   0 854.539 107.302   8
   1  -4   0 778.582 119.598   8
  -1   4  -1 252.567 47.7852   2
  -1  -4  -1 125.903 59.4563   2
  -1  -4  -1 231.897 56.2290   8
  -1  -4  -1 219.476 37.3612  16
   1  -4   1 193.321 56.0319   8
  -1  -4  -1 211.786 35.9688   5
   1   4   1 311.495 63.2597  14
   1  -4   1 182.006 50.1144   7
  -1   4  -1 257.572 69.3107  13
  -1   4  -1 207.304 61.6194  12
   1  -4   1 195.367 54.8142   4
  -1  -4  -1 229.913 64.6245   6
  -1   4  -1 180.387 53.3754   9
   1  -4   1 145.838 45.6506   5
   1   4   1 245.636 42.1540  15
   1  -4   1 151.303 33.2134   1
  -1  -4  -1 189.758 50.1523   3
  -1  -4  -1 206.354 53.1205   7
   1   4   1 296.864 64.3986   9
   1  -4   2 2017.14 178.645   5
  -1  -4  -2 1932.65 121.539  16
   1  -4   2 1870.72 122.271   1
  -1  -4  -2 2280.42 202.507   6
   1  -4   2 1854.62 168.768   8
  -1   4  -2 1776.63 153.869   9
   1  -4   2 1768.67 115.359  15
   1  -4   2 1886.23 174.646   4
  -1   4  -2 1810.46 122.099   2
   1  -4   2 1801.98 157.170   6
   1   4   2 1913.92 125.185  15
  -1   4  -2 1830.09 163.651  13
  -1  -4  -2 2143.34 119.848   5
  -1  -4  -2 2209.94 190.235   3
  -1   4  -2 1866.85 171.942  12
  -1   4  -2 1961.96 106.054  16
  -1   4  -2 1780.44 114.387  11
  -1  -4  -2 2032.20 176.406   7
   1   4   2 2154.24 174.471   9
   1  -4   2 1943.17 168.075   7
  -1  -4  -2 2109.85 176.446   8
  -1   4  -3 619.698 83.6204   2
   1  -4   3 458.881 83.1865   7
   1  -4   3 526.383 65.9722   6
   1  -4   3 549.495 95.8662   5
   1  -4   3 562.153 93.9838   8
   1  -4   3 464.537 63.8942  15
   1  -4   3 459.167 91.5529   4
  -1   4  -3 572.113 97.8398  13
  -1   4  -3 518.796 95.0043  12
  -1  -4  -3 301.464 114.338   6
  -1   4  -3 516.809 87.8066  10
  -1   4  -3 570.691 59.6664  16
   1  -4   3 526.537 76.6877   1
   1  -4   4 31.6075 38.5503   5
   1  -4   4 55.7646 34.0645  15
   1  -4   4 23.6141 35.7931   7
  -1   4  -4 24.1105 25.2341  16
   1  -4   4-26.5686 30.3696   8
   1  -4   4-52.8697 42.7492   4
  -1   4  -4 35.9342 40.6211  10
  -1   4  -4 117.876 54.5385  13
   1  -4   4 36.2451 28.5473   6
   1  -4   5 27.5577 33.7509   4
   1  -4   5 21.5507 28.6717  15
   1  -4   5-22.8312 36.3141   7
   1  -4   5-7.18783 18.8982   6
   1  -4   5-22.7042 40.4053   5
  -1   4  -5 5.78169 17.7727  16
   1   5  -3 86.8317 47.4605  10
  -1  -5   3 156.660 62.2277   7
  -1  -5   3 84.2243 46.8141   6
  -1  -5   3 75.4312 43.6048   8
  -1  -5   3 116.203 45.7613   3
  -1  -5   2 225.804 59.6827   3
  -1  -5   2 303.052 80.1084   8
  -1  -5   2 284.789 77.3750   7
   1   5  -2 207.558 35.6966  13
   1   5  -2 250.165 70.3946  11
   1   5  -2 238.136 33.3483   1
  -1  -5   2 249.330 77.3056   6
   1   5  -2 319.692 84.1392  10
  -1  -5   2 235.242 36.7933   2
  -1  -5   1 7.08469 25.2599   8
  -1  -5   1 25.1091 32.9441   7
   1   5  -1 28.5536 28.8551  14
  -1  -5   1 30.5957 18.6138   2
   1   5  -1 39.1741 17.3066   1
   1   5  -1 4.32208 22.9026  11
   1   5  -1 6.42339 23.0147  12
  -1  -5   1 34.4707 32.5705   5
  -1  -5   1 55.1297 35.2817   3
  -1  -5   1 77.7455 43.6149   6
   1   5  -1 58.7362 39.4274  10
   1  -5   0 1840.48 201.470   8
  -1  -5   0 2723.29 124.360  16
   1  -5   0 2365.06 218.395   5
   1   5   0 2522.89 210.634  11
  -1  -5   0 2269.35 178.059   3
  -1  -5   0 2429.78 201.414   8
   1   5   0 2543.09 129.869  15
   1   5   0 2197.88 182.354   9
   1   5   0 2479.33 167.144  12
  -1  -5   0 2575.01 207.443   7
  -1  -5   0 2561.62 216.104   6
  -1  -5   0 2411.50 152.546   5
   1   5   0 2578.94 174.619  14
   1  -5   0 2191.57 252.812   4
  -1  -5  -1 12.9537 16.3004  16
   1   5   1-2.09108 28.5272  14
  -1  -5  -1 31.8209 39.0779   6
   1   5   1 9.57853 21.1529  15
  -1  -5  -1 4.32124 23.0981   8
   1  -5   1-5.50098 17.2262   1
  -1   5  -1 11.5631 22.9222  13
   1  -5   1 44.1498 33.1454   4
   1   5   1 11.9623 38.3950   9
  -1   5  -1-3.10502 8.62765   3
   1  -5   1 4.96519 28.0091   8
   1  -5   1 17.6953 28.6861   7
  -1  -5  -1 0.61348 28.2891   7
  -1  -5  -1-34.4295 34.2549   3
  -1  -5  -1 33.9271 23.8921   5
  -1   5  -1 1.64251 24.2442  12
  -1   5  -1-13.9517 24.1499   9
   1  -5   1 4.40915 26.8950   5
  -1   5  -1 31.0514 20.9559   2
   1  -5   2 3919.23 321.951   6
   1  -5   2 3837.68 176.492   1
   1  -5   2 4371.43 285.998   8
  -1   5  -2 4282.19 192.200   2
   1   5   2 4530.75 198.588  15
  -1  -5  -2 4242.33 185.351  16
  -1   5  -2 4403.70 277.700  13
   1  -5   2 4202.20 275.321   4
   1  -5   2 4207.05 274.261   7
  -1  -5  -2 4914.15 332.105   6
  -1  -5  -2 4086.30 277.023   7
  -1   5  -2 3956.75 276.962  12
  -1   5  -2 4015.47 204.671  11
  -1  -5  -2 4560.04 319.756   3
  -1   5  -2 4386.92 274.933   9
   1   5   2 4579.06 284.706   9
  -1  -5  -2 4502.79 206.215   5
   1  -5   2 4163.84 277.354   5
  -1  -5  -2 4718.24 300.467   8
   1  -5   3-39.6940 38.8605   4
   1  -5   3 22.8035 43.2614   5
   1  -5   3 30.1157 31.8279   7
   1  -5   3-26.3328 24.4397  15
  -1   5  -3-9.36936 24.9006   9
  -1   5  -3-15.0537 35.7483  12
  -1   5  -3 7.16918 33.5401  13
  -1   5  -3-30.1014 26.9953   2
  -1   5  -3 8.87649 21.6890  16
  -1   5  -3 49.6851 27.7762  11
  -1   5  -3-36.6271 38.5399  10
   1  -5   3-43.8191 38.1029   8
   1  -5   3 11.7435 30.9774   6
   1  -5   4 2756.04 170.490  15
   1  -5   4 3327.68 200.187   6
   1  -5   4 3012.03 253.319   5
  -1   5  -4 2743.12 231.549  10
   1  -5   4 2862.30 259.740   4
  -1   5  -4 2663.30 237.250  13
   1  -5   4 3371.75 262.893   8
   1  -5   5 213.859 73.7344   8
  -1   5  -5 185.249 69.3004  10
   1  -5   5 238.238 87.2294   4
  -1   5  -5 182.918 55.9981  16
   1  -5   5 278.135 63.0714   6
   1  -5   5 111.154 74.2931   7
   1  -5   5 142.122 48.6598  15
  -1   5  -5 181.427 69.6348  13
   1  -5   5 174.527 74.3411   5
  -1   5  -6-3.81851 24.7124  16
  -1   5  -6 76.6118 49.1750  13
   1  -5   6 10.5680 42.0008   7
   1  -5   6 5.03047 30.5475  15
   1  -5   6 89.1283 34.0590   6
   1  -5   6 101.949 61.3827   5
  -1  -6   3 329.473 97.7367   8
  -1  -6   3 243.573 67.0228   3
  -1  -6   3 288.937 90.9898   6
   1   6  -3 192.909 28.2529   1
  -1  -6   3 346.911 97.0856   7
  -1  -6   3 246.166 32.6846   2
   1   6  -3 205.309 78.8081  10
   1   6  -3 189.811 46.9126  13
   1   6  -2 189.830 73.2091  10
  -1  -6   2 215.498 67.4508   5
  -1  -6   2 285.824 91.6444   7
   1   6  -2 283.717 52.6258  13
  -1  -6   2 231.506 79.2265   6
   1   6  -2 130.473 55.9232  11
  -1  -6   2 266.564 68.2928   3
  -1  -6   2 240.356 80.2886   8
   1   6  -1 544.421 106.286  11
  -1  -6   1 625.485 120.043   7
   1   6  -1 580.219 92.4038  14
  -1  -6   1 615.073 100.232   3
  -1  -6   1 631.602 122.178   6
   1   6  -1 544.192 91.7189  12
  -1  -6   1 675.499 102.816   5
   1   6  -1 537.039 113.547  10
  -1  -6   1 555.370 116.057   8
   1  -6   0 474.598 106.658   5
   1  -6   0 332.158 95.0234   8
   1   6   0 745.194 106.569  12
   1   6   0 752.580 105.962  14
  -1  -6   0 755.426 127.891   7
  -1  -6   0 606.940 100.468   3
  -1  -6   0 692.101 128.317   6
  -1  -6   0 700.515 94.9980   5
   1   6   0 814.334 135.562  11
   1   6   0 629.308 109.354   9
  -1  -6   0 686.084 123.115   8
  -1   6  -1 45.7399 47.6196   9
  -1  -6  -1 36.3900 43.5137   8
   1  -6   1 7.98311 30.8162   8
  -1  -6  -1 121.369 57.3560   7
   1  -6   1 5.61179 33.1664   4
  -1  -6  -1 27.8673 33.9266   3
   1   6   1 39.8313 26.1380  15
  -1  -6  -1 41.0255 40.5942   6
   1  -6   1-8.46758 19.7878   1
  -1   6  -1 9.10716 11.8207  14
   1   6   1 45.0004 47.7273  14
  -1  -6  -1 49.8773 25.3379  16
  -1   6  -1 22.7956 32.2728  12
   1  -6   1-17.3702 40.4337   7
  -1  -6  -1-35.5597 32.9095   5
  -1   6  -1-18.3120 25.5558   2
   1   6   1 6.94923 27.6328   9
   1  -6   1 26.0540 37.2718   5
  -1  -6  -2 1262.28 108.970  16
  -1   6  -2 1103.85 99.8550   2
  -1  -6  -2 989.318 154.749   7
  -1  -6  -2 1577.75 218.638   6
   1  -6   2 1066.10 154.989   7
   1   6   2 1283.79 113.206  15
  -1  -6  -2 1396.65 189.916   8
  -1   6  -2 1121.02 153.956   9
  -1   6  -2 1040.13 153.651  12
  -1   6  -2 1103.19 124.924  11
   1  -6   2 1172.88 161.086   5
  -1  -6  -2 1308.04 135.088   5
   1  -6   2 1065.61 146.887   4
   1  -6   2 1044.30 159.124   8
  -1   6  -2 1303.63 169.021  13
   1  -6   3-167.997 76.3480   6
   1  -6   3 83.6550 56.3426   8
  -1   6  -3-50.5404 49.0848  13
  -1   6  -3 17.2352 30.0203  11
   1  -6   3-36.3571 41.0321   7
  -1   6  -3-54.3226 55.1591  12
  -1   6  -3-68.7896 47.2242  10
  -1   6  -3-11.0320 29.7327   9
   1  -6   3-14.8847 41.6776   5
   1  -6   3-24.7544 41.8632   4
   1  -6   4 19.8077 40.4436   7
   1  -6   4 5.12461 46.1677   8
   1  -6   4 150.519 58.0426   6
  -1   6  -4-22.9020 45.3499  12
   1  -6   4 109.569 60.8236   4
   1  -6   4 36.7354 27.0746  15
  -1   6  -4 10.7236 26.6180  16
  -1   6  -4 122.736 71.9756  13
  -1   6  -4 16.8804 57.4347   9
   1  -6   4 150.093 71.8368   5
  -1   6  -4 33.0343 34.4334  10
   1  -6   5 161.665 72.3751   8
  -1   6  -5 182.627 76.0126  10
   1  -6   5 176.495 83.3030   4
   1  -6   5 175.277 92.5679   7
   1  -6   5 191.042 57.7036  15
   1  -6   5 173.691 79.2682   5
  -1   6  -5 56.5448 42.1081  16
   1  -6   5 256.841 68.2024   6
  -1   6  -5 107.480 62.0045  12
  -1   6  -5 145.266 66.4141  13
   1  -6   6 85.5084 46.2590   6
   1  -6   6 116.106 49.1977  15
   1  -6   6 87.2357 85.0448   5
   1  -6   6 21.2358 66.2621   7
  -1   6  -6-44.2686 65.5075  13
  -1  -7   4-20.8157 50.9700   8
  -1  -7   4 45.5654 53.4360   6
  -1  -7   4-46.2479 43.1584   3
  -1  -7   3 202.322 87.0257   8
   1   7  -3 91.0039 67.9018  10
  -1  -7   3 179.227 84.7618   7
  -1  -7   3 169.671 59.5472   3
  -1  -7   3 270.046 95.4538   6
  -1  -7   2-53.0813 44.8423   3
  -1  -7   2-10.3131 48.2815   7
   1   7  -2-16.0742 33.8477  12
   1   7  -2-20.6982 45.4366  10
  -1  -7   2 71.4637 65.0339   6
  -1  -7   2 47.3148 53.6950   8
   1   7  -2 30.1132 46.3650  11
  -1  -7   2 21.4939 40.3907   5
  -1  -7   1 67.1696 50.6077   8
  -1  -7   1 100.012 49.2542   3
  -1  -7   1 67.4191 43.9049   5
   1   7  -1 8.93670 31.1918  14
   1   7  -1 21.6417 29.2792  12
  -1  -7   1-17.3850 43.2203   6
   1   7  -1 96.9137 57.7548  11
   1   7  -1 97.5934 67.3411  10
   1   7  -1 50.1314 39.2983   9
  -1  -7   1 46.6660 55.9656   7
  -1  -7   0 325.803 95.7546   8
   1   7   0 372.195 98.5998   9
  -1  -7   0 441.170 116.298   7
  -1  -7   0 412.787 93.6402   3
  -1  -7   0 362.534 106.640   6
   1   7   0 393.293 83.8019  14
   1   7   0 369.011 103.322  10
   1   7   0 347.406 102.353  11
  -1  -7   0 316.421 76.6337   5
  -1  -7  -1 41.2002 55.0395   8
   1  -7   1 37.1814 49.7908   8
  -1  -7  -1 94.1547 69.3308   6
   1  -7   1 56.5644 47.4395   4
   1  -7   1 86.5466 60.1781   7
   1   7   1 7.91970 41.3632   9
  -1  -7  -1 32.3786 46.2988   7
   1   7   1 179.300 69.4717  14
   1  -7   1 14.6107 38.0723   5
  -1  -7  -1 9.74868 28.4326   5
  -1   7  -1 54.1545 44.6053   9
  -1   7  -2 364.444 101.781  13
   1  -7   2 262.263 87.2164   8
  -1  -7  -2 280.803 107.626   8
  -1   7  -2 8.78049 84.1537   9
   1  -7   2 217.402 88.4432   7
  -1  -7  -2 185.821 89.2306   6
   1   7   2 412.176 97.7179  14
  -1   7  -2 251.643 90.4595  12
  -1   7  -2 276.932 72.5181  11
  -1  -7  -2 310.715 86.1735   5
  -1  -7  -2 263.104 53.6242  16
   1  -7   2 263.091 85.0814   4
   1  -7   2 292.560 94.0181   5
   1  -7   3 249.580 99.7279   8
   1  -7   3 228.171 81.3726   4
   1  -7   3 335.591 138.118   6
  -1   7  -3 279.438 93.9286  13
   1  -7   3 54.2585 87.0848   7
  -1   7  -3 192.545 83.1137  12
  -1   7  -3 241.219 72.2631  11
  -1   7  -3 235.483 85.3985  10
   1  -7   3 308.556 97.8570   5
  -1   7  -3 17.3834 83.5443   9
  -1   7  -4 0.79110 42.7108  12
   1  -7   4 147.045 74.1101   4
   1  -7   4 77.6316 69.8670   8
   1  -7   4 58.6750 57.0198   6
   1  -7   4 41.3076 63.9004   7
  -1   7  -4 108.308 68.1630  13
  -1   7  -4 5.35649 59.2750   9
  -1   7  -4-20.7713 58.6947  10
   1  -7   4 66.1182 67.7448   5
   1  -7   5 76.7017 70.1373   8
   1  -7   5 194.750 95.3884   4
  -1   7  -5 91.9237 71.0132  12
   1  -7   5 62.4951 65.6735   7
  -1   7  -5 102.642 64.2478  10
   1  -7   5 50.7680 64.5673   5
  -1   7  -5 122.343 64.9957  13
   1  -7   5 22.9458 38.4512   6
  -1   7  -5 3.42662 41.6734   9
   1  -7   6 32.9562 44.7645   8
   1  -7   6 26.5834 61.5629   7
   1  -7   6 100.963 73.3039   5
  -1   7  -6 83.8245 59.1415  13
  -1   7  -6 74.1399 65.8921  12
  -1  -8   4-32.6031 52.9258   8
  -1  -8   4 23.9524 54.3975   7
  -1  -8   4 10.0275 55.8063   6
  -1  -8   4 26.8915 47.4538   3
   1   8  -4 6.85052 45.8640  10
  -1  -8   3 886.535 188.731   8
  -1  -8   3 688.091 120.629   3
   1   8  -3 651.077 139.105  12
  -1  -8   3 748.453 165.370   6
  -1  -8   3 953.325 196.216   7
   1   8  -3 577.248 137.636  11
   1   8  -3 606.091 146.550  10
   1   8  -2 456.390 107.153  12
  -1  -8   2 360.812 97.3640   5
  -1  -8   2 309.979 83.8755   3
  -1  -8   2 345.065 120.835   7
  -1  -8   2 478.210 132.508   6
   1   8  -2 504.203 124.628  11
   1   8  -2 395.068 122.857  10
  -1  -8   2 251.127 101.542   8
   1   8  -2 370.612 110.029   9
  -1  -8   1 623.327 147.793   8
  -1  -8   1 632.762 149.067   6
   1   8  -1 601.543 115.996  14
   1   8  -1 556.216 109.550  12
   1   8  -1 455.400 122.858   9
  -1  -8   1 682.181 126.364   5
  -1  -8   1 613.818 114.131   3
   1   8  -1 546.167 134.951  11
   1   8  -1 568.524 138.443  10
  -1  -8   1 660.080 158.310   7
  -1  -8   0 41.0948 54.7606   6
   1   8   0 13.4114 48.8950  10
   1   8   0-78.5658 52.3394  14
  -1  -8   0-114.979 76.0670   8
   1   8   0-75.2603 68.8108  11
  -1  -8   0-39.2202 47.2687   7
  -1  -8   0-89.1000 59.0926   5
   1   8   0 23.7075 49.0672   9
  -1  -8  -1 120.827 82.5536   8
   1  -8   1 125.524 79.1266   8
   1  -8   1 98.6046 105.490   7
  -1  -8  -1 182.099 79.3598   7
   1  -8   1 96.3079 64.5715   4
   1   8   1 180.887 65.5998  14
  -1  -8  -1 49.9759 44.2768   5
   1   8   1 184.054 98.4916  11
  -1  -8  -1 124.428 74.9661   6
   1   8   1 143.362 76.7912   9
   1  -8   1 162.749 79.8312   5
  -1  -8  -2-73.7513 96.6438   8
   1  -8   2-106.242 75.5116   4
   1   8   2 64.1699 58.7016  14
  -1  -8  -2 36.7653 72.9691   6
  -1   8  -2 32.5854 46.4649  12
   1  -8   2-72.7594 79.1658   7
   1  -8   2 87.4704 76.2128   8
  -1   8  -2 52.5783 49.9574  11
   1  -8   2-25.9569 50.0602   5
  -1   8  -2-11.6844 64.3968   9
  -1  -8  -2-11.7087 63.8841   5
   1  -8   3 191.866 95.5687   8
   1  -8   3 104.250 70.5560   4
  -1   8  -3 204.543 91.2486  12
   1  -8   3 171.724 122.182   7
  -1   8  -3 392.907 124.752  13
  -1   8  -3 255.794 89.2989  11
  -1   8  -3 198.205 89.5625  10
  -1   8  -3 6.94358 79.3783   9
   1  -8   3 261.257 103.746   5
   1  -8   4 106.546 73.1016   8
   1  -8   4-196.726 92.8637   4
   1  -8   4 47.4149 66.7526   7
  -1   8  -4 125.014 87.0284  13
  -1   8  -4 105.985 67.0066  10
   1  -8   4-21.7718 77.5605   6
  -1   8  -4 95.2200 89.5633  12
   1  -8   4 9.71169 54.6130   5
  -1   8  -4 32.9152 76.6808   9
   1  -8   5-31.7112 53.8515   8
  -1   8  -5 129.253 77.0379  13
   1  -8   5 46.6735 68.7286   7
  -1   8  -5 36.3071 73.2081  12
   1  -8   5 75.5694 73.9274   5
  -1   8  -5 13.8987 45.5045  10
   1  -8   5-13.3572 51.9352   4
  -1   8  -5-3.15599 44.7782   9
   1  -8   6 194.186 104.729   8
   1  -8   6 18.5182 86.4541   7
  -1   8  -6 237.344 97.9303  13
  -1   8  -6 29.1734 60.5305  12
   1  -8   6 250.934 118.976   5
  -1   8  -6 87.1351 62.4121  10
  -1   8  -6 13.9616 38.6209   9
  -1  -9   4 302.627 126.394   8
  -1  -9   4 209.092 108.364   7
   1   9  -4 120.185 82.2529  12
  -1  -9   4 256.315 100.214   6
   1   9  -4 250.470 109.339  10
  -1  -9   3 145.376 93.3456   8
  -1  -9   3 178.325 105.428   7
   1   9  -3 188.260 90.6989  12
   1   9  -3 44.5786 65.8247  10
  -1  -9   3 138.687 82.4820   6
   1   9  -3 114.100 84.6494   9
  -1  -9   2 756.106 178.379   8
  -1  -9   2 655.379 163.979   6
   1   9  -2 611.043 137.050  12
  -1  -9   2 877.760 189.376   7
   1   9  -2 575.596 150.167   9
   1   9  -2 623.029 156.265  11
  -1  -9   2 712.010 154.271   5
   1   9  -2 544.116 152.462  10
  -1  -9   1 241.665 103.354   8
  -1  -9   1 282.462 114.103   7
  -1  -9   1 510.216 131.020   5
  -1  -9   1 360.837 128.923   6
   1   9  -1 329.334 120.529  11
   1   9  -1 276.874 114.980  10
   1   9  -1 355.255 119.603   9
  -1  -9   0 956.151 203.000   8
  -1  -9   0 885.905 183.513   7
   1   9   0 645.523 113.167  14
   1   9   0 954.029 197.774  11
   1   9   0 961.762 206.394  10
  -1  -9   0 956.340 182.577   5
   1   9   0 874.844 177.235   9
  -1  -9   0 1205.39 228.757   6
  -1  -9  -1 23.9311 72.2462   8
   1  -9   1 135.013 102.796   8
  -1   9  -1-5.08911 34.8430  11
  -1  -9  -1 49.6661 63.6423   7
  -1  -9  -1 302.802 150.201   6
   1   9   1 72.4924 47.3678  14
   1  -9   1 60.0973 53.6672   4
   1   9   1-28.5395 70.1762  11
   1  -9   1 122.371 82.3115   5
  -1  -9  -1 311.112 143.259   5
   1   9   1 65.0435 55.9111   9
   1  -9   2 969.881 199.098   8
   1  -9   2 341.039 169.306   7
   1  -9   2 1047.69 185.362   4
  -1   9  -2 703.720 131.901  11
   1  -9   2 916.412 181.909   5
  -1   9  -2 68.6543 158.169   9
   1  -9   3 106.731 92.0895   7
  -1   9  -3 12.2241 60.7475   9
   1  -9   3-54.3845 76.8299   4
  -1   9  -3 80.9955 64.9183  12
   1  -9   3 2.54903 55.8717   8
  -1   9  -3 14.0283 59.7315  10
   1  -9   3 115.811 68.6276   5
   1  -9   4 3.99306 61.6947   8
   1  -9   4-8.52461 73.4892   4
  -1   9  -4 1.97546 55.5735  10
   1  -9   4 37.3957 82.4786   7
  -1   9  -4 191.584 94.7707  13
  -1   9  -4 154.677 97.4596  12
   1  -9   4 222.282 106.724   5
  -1   9  -4-13.6185 73.7915   9
   1  -9   5 197.882 108.068   8
   1  -9   5 193.250 110.548   5
  -1   9  -5-214.623 124.119  13
  -1   9  -5-74.9098 92.2487  12
  -1   9  -5 166.521 102.187  10
  -1   9  -5 24.4326 77.6468   9
   1  -9   5-51.5715 94.0767   7
   1  -9   6-175.624 115.076   5
  -1   9  -6-15.4860 56.1475   9
   1  -9   6 124.443 101.834   8
  -1   9  -6 85.9706 86.4051  13
  -1   9  -6 40.8648 62.6124  10
  -1   9  -6-18.6710 70.5411  12
   1  -9   6-20.3685 73.1930   7
  -1   9  -7-156.026 117.646  12
  -1 -10   4 44.3585 88.7795   8
  -1 -10   4 239.788 121.127   7
  -1 -10   4 185.776 103.694   6
   1  10  -4 126.404 100.439  12
   1  10  -4 51.9644 85.4335  10
   1  10  -4 139.699 86.8917   9
  -1 -10   3 126.842 96.8257   8
  -1 -10   3 21.4502 64.7684   6
   1  10  -3 79.2295 86.7096  12
   1  10  -3 54.0476 77.2876   9
   1  10  -3 79.8823 86.7357  10
  -1 -10   3 142.299 115.188   7
  -1 -10   2 6.33863 61.3356   8
  -1 -10   2-143.637 108.491   6
  -1 -10   2 142.538 102.256   7
   1  10  -2 66.1184 69.2757  11
   1  10  -2 42.8211 50.6490  12
  -1 -10   2 34.8765 80.1735   5
   1  10  -2-58.3396 81.0366  10
   1  10  -2 30.0136 70.4584   9
  -1 -10   1 300.432 122.695   8
  -1 -10   1 220.528 117.086   7
   1  10  -1 321.176 147.903  10
   1  10  -1 232.230 111.146  11
  -1 -10   1 214.678 132.780   5
   1  10  -1 25.7744 60.0750   9
  -1 -10   1 370.134 146.957   6
  -1 -10   0-95.3874 101.515   8
  -1 -10   0-62.6392 77.1424   7
  -1 -10   0-118.971 119.225   6
   1  10   0-17.4720 61.7934  10
   1  10   0 137.909 100.419  11
   1  10   0-41.3140 62.6310   9
  -1 -10  -1-106.943 131.231   8
   1  10   1-212.267 117.375  11
   1  10   1-24.0788 53.8373  10
   1 -10   2 106.478 88.6371   8
   1 -10   2 60.2959 98.5712   7
  -1  10  -2 151.896 82.0086  10
   1 -10   2 77.4424 85.0029   5
   1 -10   3 36.5415 75.3786   8
   1 -10   3-23.6046 69.4902   7
   1 -10   3-110.831 94.5642   5
  -1  10  -3 166.512 95.1871  10
  -1  10  -3-5.81581 87.5082   9
   1 -10   4-212.963 107.539   8
  -1  10  -4 18.4100 82.1535   9
   1 -10   4 42.4639 123.952   7
  -1  10  -4-43.4882 85.2319  12
  -1  10  -4 9.87484 59.1624  10
   1 -10   4-53.5928 83.9596   5
   1 -10   5 467.130 179.585   8
   1 -10   5 53.8066 120.552   7
  -1  10  -5 312.244 157.547  12
  -1  10  -5 27.5195 138.742   9
   1 -10   5 64.8599 88.0516   5
  -1  10  -5 188.801 114.072  10
   1 -10   6 181.930 129.133   8
   1 -10   6 72.9330 84.1420   5
   1 -10   6-1.48162 85.5392   7
  -1  10  -6-236.016 117.585  12
  -1  10  -6 102.879 86.1486  10
  -1  10  -6 20.1324 93.4660   9
  -1 -11   4 51.3128 95.7207   8
   1  11  -4-84.4984 89.9328  12
  -1 -11   4-2.46768 105.970   7
  -1 -11   4 120.588 106.489   6
   1  11  -4-97.6980 108.195  10
   1  11  -4-37.2556 63.0282   9
  -1 -11   3 123.833 120.705   8
  -1 -11   3-101.373 107.719   7
  -1 -11   3 96.2724 105.458   6
   1  11  -3-33.2588 91.5420  10
   1  11  -3 49.0920 128.788   9
  -1 -11   2 86.6539 102.956   8
  -1 -11   2-53.7667 88.2265   6
   1  11  -2 135.533 111.192  11
   1  11  -2 258.017 156.551  10
  -1 -11   2 148.754 104.769   7
   1  11  -2 112.308 104.910   9
  -1 -11   1-93.4755 111.753   8
  -1 -11   1-182.652 148.879   6
   1  11  -1 12.9927 62.7964  11
   1  11  -1 131.124 145.707  10
  -1 -11   1 16.4508 68.9852   7
   1  11  -1 11.5536 64.8213   9
  -1 -11   0-139.229 135.053   8
   1  11   0 117.526 90.5632  11
   1  11   0 63.7783 76.4009  10
  -1 -11   0-40.1189 67.7535   7
  -1  11  -3 87.7162 81.1208  10
   1 -11   3 102.685 117.122   7
   1 -11   3 177.710 114.978   8
   1 -11   3 205.246 128.064   5
   1 -11   4 45.1858 89.4604   8
  -1  11  -4 39.4971 82.6112  10
   1 -11   4-30.8198 81.8244   7
   1 -11   4-54.7704 80.3575   5
  -1  11  -4-16.5901 88.6370   9
   1 -11   5 18.9798 95.0327   8
  -1  11  -5-108.258 85.6258  12
  -1  11  -5-125.906 105.967  10
   1 -11   5 28.5065 76.0041   5
   1 -11   5 25.3862 82.0348   7
  -1  11  -5 14.0130 80.5219   9
  -2   0  -1 8.98058 31.3602   2
   2   0   1-9.03655 28.9400  15
   2   0   1-24.3915 21.7061   4
   2   0   1-16.8891 27.1810  14
   2   0   1 0.06308 21.1411   1
  -2   0  -1 25.8138 22.4659  16
  -2   0  -1-71.6208 39.0565  13
  -2   0  -1 2.20398 16.0295   3
  -2   0  -1 8.19182 12.3778   6
   2   0   1-23.0045 16.9629   5
   2   0   2 5985.48 292.729   4
  -2   0  -2 6288.12 251.385  16
   2   0   2 6406.68 294.020  15
   2   0   2 6132.06 255.344  14
  -2   0  -2 6364.35 275.817   3
  -2   0  -2 6089.09 302.403  13
  -2   0  -2 6271.08 204.484   6
   2   0   2 5859.49 286.421   1
  -2   0  -3 89.3867 34.6383  12
   2   0   3 67.3424 40.0466  15
  -2   0  -3 57.8979 32.3381  13
  -2   0  -3 130.453 46.1785  16
  -2   0  -3 163.587 62.7919   2
   2   0   3 47.1861 21.3564  11
   2   0   3 68.8273 41.7909  14
  -2   0  -3 132.231 39.3764   6
  -2   0  -3 65.7222 34.6338   3
   2   0   3 53.2766 33.3124   4
   2   0   3 84.1856 34.1115   5
   2   0   3 11.8868 25.5105   1
   2   0   4 1783.21 183.486   4
  -2   0  -4 1744.77 196.537   2
   2   0   4 2087.69 191.727  15
  -2   0  -4 1911.54 156.412  16
  -2   0  -4 1750.40 163.796   3
  -2   0  -4 1728.67 179.592  13
   2   0   4 1908.19 191.655   1
  -2   0  -5 37.1535 11.1584   8
   2   0   5-9.69436 28.9208   4
   2   0   5 111.067 24.3596   7
   2   0   5-45.4341 48.7532  15
  -2   0  -5 23.7581 40.2815   2
  -2   0  -5-46.8562 42.2583  16
   2   0   5-31.7782 40.0694   1
   2   1   0 1985.58 152.181   4
  -2  -1   0 1923.12 158.412   2
   2   1   0 2094.77 163.502  15
   2   1   0 2386.89 183.129  14
  -2  -1   0 2213.13 162.693   3
  -2  -1   0 1909.44 145.624   6
   2   1   0 2172.09 168.173   1
  -2   1  -1 333.958 74.6508   2
   2   1   1 337.008 64.4833   4
   2   1   1 287.577 60.5989  14
  -2   1  -1 320.739 58.5374  16
   2  -1   1 292.471 65.0895  15
  -2   1  -1 357.513 86.2455  13
  -2  -1  -1 353.311 60.2900  16
  -2   1  -1 323.553 58.0117   3
   2  -1   1 341.684 79.3968   4
   2   1   1 324.585 64.6823  15
  -2  -1  -1 314.246 33.7146   7
  -2  -1  -1 329.284 56.6327   6
  -2  -1  -1 385.712 79.2394  13
   2   1   1 278.265 61.2913   1
  -2  -1  -1 376.063 70.9792   3
   2   1   1 308.465 36.6548   5
   2  -1   1 324.279 61.4538   5
  -2  -1  -1 253.651 63.6465   2
   2  -1   1 226.564 58.8324   1
   2   1   2-10.6252 12.0548   5
   2  -1   2-95.5610 43.1772  15
   2  -1   2-25.1419 14.3185   8
   2   1   2 7.02186 16.2978   4
   2  -1   2-25.4443 33.5616   1
   2   1   2 20.6615 21.5425  14
   2  -1   2-47.2878 29.7881  14
  -2  -1  -2-25.6464 31.2884  13
  -2   1  -2-32.4239 33.1230  13
  -2   1  -2-40.9168 29.6867  16
  -2  -1  -2-25.6291 28.1529  16
  -2  -1  -2-42.2039 28.4424   6
  -2   1  -2-22.9613 15.6277   6
  -2   1  -2-53.6878 34.0282  12
   2   1   2 54.5135 27.2766  11
   2   1   2-13.0459 24.2042   1
  -2  -1  -2-60.2214 36.8947   2
   2  -1   2-46.4007 38.4130   4
  -2  -1  -2-22.7861 30.0418   3
   2   1   2-42.4624 29.2386  15
  -2   1  -2-21.0975 27.9760   3
  -2   1  -2-14.9493 31.3523   2
   2  -1   2-13.7744 20.6805   5
  -2   1  -3 244.349 49.9745  16
   2  -1   3 222.238 60.8981   1
  -2  -1  -3 268.823 51.6753  16
   2   1   3 292.574 66.0780  15
   2  -1   3 197.167 47.3071  14
   2  -1   3 235.628 67.5507   4
  -2   1  -3 228.554 60.6216   2
  -2  -1  -3 240.038 52.6709   6
   2  -1   3 159.423 53.7124  15
  -2  -1  -3 256.929 63.4856  13
   2   1   3 266.924 65.0551   1
  -2   1  -3 188.715 59.6817  13
  -2  -1  -3 211.606 65.1473   2
  -2   1  -3 241.691 56.2461  12
  -2  -1  -3 240.618 42.3931  12
   2   1   3 154.603 40.8446  11
  -2   1  -3 171.319 43.9906   3
  -2  -1  -3 205.526 54.7580   3
   2   1   3 274.005 61.4064  14
   2   1   3 328.976 71.6249   4
   2  -1   3 262.240 55.8834   5
  -2  -1  -4 1723.16 193.452   2
  -2   1  -4 1480.95 167.542   2
   2   1   4 1764.68 182.846   1
   2  -1   4 1395.58 165.991   1
  -2  -1  -4 1574.19 144.578  16
  -2   1  -4 1502.47 143.235  12
   2  -1   4 1445.05 155.090  15
  -2  -1  -4 1532.04 166.192  13
  -2   1  -4 1625.53 160.517   3
   2   1   4 1740.31 173.158  15
   2  -1   4 1275.93 125.359  14
  -2   1  -4 1393.13 163.692  13
   2  -1   4 1728.20 149.427   5
  -2   1  -4 1597.78 137.373  16
  -2  -1  -4 1478.50 158.337   3
   2  -1   4 1440.83 171.526   4
   2   1   4 1793.74 182.077   4
   2  -1   5-4.60260 30.7144   4
   2   1   5 30.0358 44.9759  15
   2  -1   5 78.9372 49.6406  15
  -2   1  -5 25.7443 39.4468   2
  -2  -1  -5 11.8449 46.0870  16
   2  -1   5-44.1559 23.8734   7
  -2   1  -5 17.9991 32.6585  13
  -2  -1  -5 46.6512 66.1852   2
   2  -1   5 5.77379 38.8429   1
  -2   1  -5 16.6367 26.0041  16
   2   1   5 24.9112 43.8620   1
  -2   1  -6 64.0605 131.939   2
  -2   1  -6 16.0788 50.5732  16
   2  -1   6 16.5865 40.9454  15
   2  -1   6 55.8764 33.5387   7
   2   2   0 5835.54 235.633   4
  -2  -2   0 5852.93 219.713   7
  -2  -2   0 5905.17 282.331   2
  -2  -2   0 5693.21 235.484  16
  -2  -2   0 5621.91 277.852   3
   2   2   0 5972.33 279.135   1
   2   2   0 5529.12 264.923  15
   2   2   0 5825.00 281.316  14
  -2  -2   0 5800.67 267.830   6
   2   2   1 638.250 78.1636   4
   2  -2   1 549.124 105.520   4
  -2  -2  -1 624.036 99.3976   2
  -2   2  -1 656.684 107.632   2
  -2  -2  -1 549.452 57.3732   7
   2   2   1 610.992 88.5161   1
   2  -2   1 572.856 88.0550  15
   2   2   1 547.288 83.2570  14
  -2  -2  -1 607.287 78.0137  16
  -2   2  -1 514.694 65.6517   3
   2   2   1 588.298 84.2366  15
  -2  -2  -1 655.361 88.1336   6
  -2  -2  -1 586.178 92.5932   3
  -2   2  -1 718.318 124.614  13
  -2  -2  -1 737.868 100.601  13
   2  -2   1 530.819 91.6024   1
   2   2   1 559.513 88.5383  11
   2  -2   1 669.891 103.239   5
   2   2   2 2276.41 157.588   4
   2  -2   2 2078.35 203.229   4
  -2  -2  -2 2176.31 184.940   2
  -2   2  -2 2141.33 189.535   2
  -2  -2  -2 2450.60 126.720   7
  -2   2  -2 2186.89 144.819  16
   2  -2   2 2054.21 168.177   5
  -2   2  -2 2064.36 197.650  13
   2   2   2 2254.93 172.407  15
  -2   2  -2 2097.79 139.874   3
   2   2   2 2065.06 167.225  14
  -2  -2  -2 2145.25 184.337   3
  -2  -2  -2 2329.40 167.340  13
  -2  -2  -2 2228.16 170.703   6
  -2   2  -2 2116.32 176.315  12
   2  -2   2 2043.83 177.684  15
  -2  -2  -2 2177.95 152.388  16
   2   2   2 2073.22 166.189  11
   2   2   2 2220.45 172.428   1
   2   2   2 2524.65 137.500   9
   2  -2   2 1839.25 170.805   1
   2  -2   2 2002.69 126.757   8
   2  -2   3 2127.86 212.352   4
  -2  -2  -3 2238.14 199.758   2
  -2   2  -3 2252.98 188.368   2
   2   2   3 2221.74 186.526   1
  -2  -2  -3 2141.73 156.809  16
  -2   2  -3 2227.71 152.100  16
   2  -2   3 2128.28 140.008  14
   2   2   3 2312.30 182.596  15
   2  -2   3 1886.85 175.685   1
   2   2   3 2247.44 181.105  14
  -2   2  -3 1813.27 128.897   3
  -2  -2  -3 2092.81 185.398   3
  -2  -2  -3 2032.32 160.937  13
  -2   2  -3 1926.64 188.611  13
   2  -2   3 1970.11 170.094  15
  -2  -2  -3 2273.75 179.252   6
  -2   2  -3 2103.28 176.564  12
   2  -2   3 2123.07 174.649   5
   2   2   3 2009.39 110.215  10
  -2  -2  -3 2042.38 102.368   8
   2  -2   3 1977.11 124.194   8
   2   2   3 2496.14 192.406   4
   2   2   4 1431.00 166.360   1
   2   2   4 1420.61 152.987  15
  -2  -2  -4 1213.32 153.802   3
  -2  -2  -4 1351.24 139.218  16
  -2  -2  -4 1137.90 81.2806   8
  -2  -2  -4 1596.11 199.956   2
  -2  -2  -5 10.0593 64.5245   2
  -2  -2  -5 111.459 83.9002  16
   2  -2   5 47.2371 26.6975  14
   2   2   5 44.4273 29.8371  15
  -2   2  -5 124.273 57.8094   2
   2  -2   5 99.8261 44.9756   7
  -2   2  -5 106.269 60.3027  13
   2  -2   5 36.6442 44.6102   4
   2  -2   5 52.5647 46.3137   1
   2  -2   5 110.884 57.2572  15
  -2   2  -5 114.852 50.8465  16
   2  -2   5 51.3056 44.0590   5
   2  -2   6 242.292 95.2497   4
  -2   2  -6 335.867 172.459   2
  -2   2  -6 297.841 81.2508  16
   2  -2   6 182.789 76.1574  15
   2  -2   6 237.801 61.7124   7
  -2  -3   1 1392.84 137.758   2
   2   3  -1 1361.47 144.653   1
  -2  -3   1 1526.08 156.583   3
   2   3  -1 1547.08 167.335  14
  -2  -3   1 1798.79 177.321   6
   2   3   0 238.063 43.9425   4
   2   3   0 218.193 58.2666   1
  -2  -3   0 186.746 44.1932  16
   2   3   0 206.011 55.5816  14
   2   3   0 173.115 50.3832  15
  -2  -3   0 181.007 42.5109   7
  -2  -3   0 212.727 60.2656   6
   2   3   0 177.581 58.7836  11
  -2  -3   0 214.766 61.3186   3
  -2  -3   0 160.878 48.4500   2
  -2  -3  -1-9.30694 16.6053   8
  -2   3  -1 111.841 56.0163   2
   2  -3   1 97.0305 51.5248   8
   2   3   1 32.0750 20.8098   4
   2  -3   1 54.5214 38.8549   1
   2   3   1 12.8732 23.6760  14
   2  -3   1 37.2239 45.8337   4
  -2  -3  -1 14.3024 21.9244  16
   2   3   1 21.5993 26.6286  15
  -2   3  -1 163.778 65.7760  13
  -2  -3  -1-9.15584 26.2159   6
  -2  -3  -1 84.1763 34.2664   7
   2   3   1 38.0026 27.2102   1
   2   3   1-84.7722 67.2294  11
  -2  -3  -1-1.68743 26.9091   2
  -2  -3  -1 31.9158 30.4089   3
   2  -3   1 33.7045 33.3622   5
  -2  -3  -2 273.709 51.0582   8
   2   3   2 267.413 56.9858   4
   2  -3   2 283.040 59.0779   8
   2   3   2 292.565 69.1979  14
  -2   3  -2 275.702 54.2994  16
   2   3   2 303.506 64.2242  15
   2  -3   2 295.252 68.8994  15
  -2  -3  -2 365.425 62.0295   7
   2  -3   2 268.808 83.7888   4
   2  -3   2 211.121 59.8289   1
   2   3   2 310.114 66.8317   1
  -2  -3  -2 328.728 59.8238  13
  -2   3  -2 282.803 79.4455  13
  -2  -3  -2 306.083 75.0822   2
  -2  -3  -2 276.883 71.8776   6
  -2   3  -2 225.098 66.7359  12
   2   3   2 206.202 59.8318  11
  -2   3  -2 258.481 44.5390   3
  -2  -3  -2 345.755 79.5165   3
   2   3   2 271.798 56.3782  10
  -2  -3  -2 281.665 59.6231  16
   2   3   2 333.367 61.6253   9
  -2   3  -2 267.519 73.3205   2
   2  -3   2 230.118 69.9224   5
   2  -3   3 74.4764 46.2302   1
   2  -3   3-16.5066 23.1357   8
  -2  -3  -3 99.1086 39.3376   8
  -2  -3  -3-13.4569 36.5141   6
   2  -3   3 29.2413 18.2119   7
   2  -3   3-11.9497 32.9124  15
  -2  -3  -3-35.1656 49.3197   2
  -2  -3  -3 29.8005 26.5966  13
  -2   3  -3-25.9447 41.4642  13
  -2   3  -3 6.04768 16.6261   3
  -2   3  -3 17.9298 22.7183  12
   2   3   3 41.4448 32.4379  14
  -2  -3  -3 57.4746 35.0862  16
  -2   3  -3-1.79461 26.4173  16
  -2  -3  -3 18.7457 34.7197   3
   2  -3   3 50.2140 44.9224   4
  -2   3  -3 6.49541 28.4442   2
  -2   3  -3 19.8046 22.9433  10
   2   3   3 41.0781 33.0433   1
   2   3   3-28.1052 33.7185  15
   2  -3   3-15.9106 28.9168   5
   2  -3   4 798.533 147.098   4
   2   3   4 1016.58 143.241   1
  -2  -3  -4 1049.00 128.506  16
   2  -3   4 751.873 114.372  15
   2  -3   4 801.500 85.9880  14
  -2  -3  -4 783.521 166.994   6
  -2   3  -4 922.951 143.568  13
   2   3   4 932.399 120.772  15
  -2   3  -4 807.216 127.697  12
   2  -3   4 896.238 134.091   5
  -2  -3  -4 910.009 144.054   3
  -2  -3  -4 1352.56 227.999   2
  -2  -3  -4 933.785 94.9474   8
  -2  -3  -5 55.5987 86.0413  16
   2  -3   5 50.4748 30.5593  14
   2   3   5 40.8270 34.6674  15
   2  -3   5 54.7607 45.4345   7
  -2   3  -5 45.9554 35.0740  12
  -2   3  -5 19.7611 34.8118  13
   2  -3   5 49.6639 63.4258   1
  -2   3  -5 5.02783 28.9337  16
   2  -3   5 2.75312 41.7636  15
   2  -3   5 57.7754 41.6294   5
  -2   3  -5 27.9926 38.5519   2
  -2   3  -5-0.17638 27.4531   9
   2  -3   5 88.2472 56.6840   4
   2  -3   6 53.9337 51.5544   4
  -2   3  -6 7.00358 92.3480   2
  -2   3  -6 5.24458 39.1462  16
   2  -3   6-13.7287 36.5053  15
   2  -3   6 28.5900 24.8231  14
  -2   3  -6 49.0818 45.0685  13
   2  -3   6 79.0834 56.5815   5
   2  -3   6 63.8788 51.5300   7
  -2   3  -7 38.4910 70.9950  16
   2  -3   7-48.8459 61.9520  15
   2  -3   7 63.0490 37.9073   7
  -2   3  -7 42.4320 45.3352  13
  -2  -4   1 127.174 46.2947   2
   2   4  -1 136.625 45.8253   1
  -2  -4   1 128.415 48.9203   7
   2   4  -1 87.9816 48.1984  14
  -2  -4   1 109.998 53.2556   6
  -2  -4   1 85.1655 46.6659   3
   2   4   0 868.492 64.6787   4
  -2  -4   0 815.111 112.471   2
   2   4   0 857.133 104.339   1
   2   4   0 914.363 112.194  15
   2   4   0 882.332 121.622  14
  -2  -4   0 892.842 128.801   3
  -2  -4   0 888.575 108.843   7
   2   4   0 848.051 130.596  11
   2   4   0 715.049 113.845  10
  -2  -4   0 959.680 136.124   6
  -2  -4   0 831.446 111.579   8
  -2   4  -1-17.8438 44.5076   2
  -2  -4  -1-2.71919 24.8419   8
   2  -4   1-19.1205 45.0300   8
  -2  -4  -1-1.32312 25.0629   7
   2   4   1-15.3812 25.8256  14
   2  -4   1 43.7428 59.4731   4
   2   4   1 3.40470 24.9337  15
  -2   4  -1-26.8091 38.3750  13
  -2  -4  -1-28.6910 34.4770   6
  -2  -4  -1-36.2849 38.7572   2
   2   4   1-35.9929 32.7010  11
  -2  -4  -1 5.74193 24.6498  16
   2   4   1 27.1118 30.4839   1
   2   4   1-10.3432 31.9434  10
  -2  -4  -1 5.19532 27.8343   3
   2   4   1 32.5393 25.8306   9
   2  -4   1-0.08507 28.4971   1
   2  -4   1-33.5005 43.4655   5
   2   4   2 1.04424 26.7961   1
  -2  -4  -2-14.7665 22.1503   8
   2  -4   2-0.30572 30.3192   8
  -2  -4  -2-40.1782 33.7913  16
   2   4   2 69.6465 45.6456  14
   2  -4   2 17.3153 31.1556   1
  -2  -4  -2 93.3094 32.9460  13
   2   4   2 19.2199 25.9104  15
   2  -4   2 3.27606 31.4174   4
  -2  -4  -2 28.6971 36.3371   2
  -2   4  -2-7.73144 41.2800  13
  -2  -4  -2 46.1147 39.9251   6
  -2   4  -2-28.8223 42.7933  12
   2   4   2-9.55458 30.4806  11
  -2  -4  -2 83.2691 48.1471   3
   2   4   2-22.7793 28.6897  10
  -2   4  -2 19.9810 16.4221   3
  -2  -4  -2 53.9910 29.2585   7
  -2   4  -2 20.4758 37.0903   2
   2   4   2 14.3163 23.5981   9
   2  -4   2-10.6884 40.9070   5
   2  -4   3 258.852 70.1768   8
  -2  -4  -3 219.382 55.3058   8
  -2  -4  -3 294.942 63.5544  16
  -2   4  -3 144.781 62.5482  16
   2  -4   3 252.469 67.7757  15
  -2  -4  -3 461.914 121.551   2
   2  -4   3 248.071 86.2039   4
   2   4   3 271.737 75.6010  14
   2  -4   3 124.236 66.3389   7
  -2  -4  -3 235.700 52.4726  13
  -2  -4  -3 307.328 84.5520   6
   2   4   3 322.371 81.4661   1
   2   4   3 304.292 69.5935  15
  -2   4  -3 183.202 71.7500  13
  -2   4  -3 163.804 58.6579  12
  -2  -4  -3 278.493 81.0339   3
  -2   4  -3 159.589 54.8027   2
   2  -4   3 255.473 82.0723   5
  -2   4  -3 34.7439 58.2704   9
   2  -4   3 99.3806 68.3566   1
   2  -4   4 1099.25 177.541   4
  -2   4  -4 1139.10 147.628   2
  -2  -4  -4 1339.71 151.600  16
   2   4   4 1208.67 131.927  15
   2  -4   4 1080.88 137.615  15
  -2  -4  -4 1195.19 210.223   6
  -2   4  -4 1099.58 166.668  13
  -2  -4  -4 1247.25 187.660   3
  -2   4  -4 1056.69 156.663  12
   2  -4   4 1298.20 175.153   5
   2  -4   4 1228.35 140.663   8
  -2  -4  -4 1253.12 137.740   8
  -2   4  -5-14.2326 31.8722  16
   2  -4   5-21.2360 39.0043   4
  -2   4  -5-8.62849 48.0609   2
   2  -4   5-24.7047 26.4545  14
   2  -4   5 31.8387 43.2860   1
   2  -4   5 3.21153 49.5652   7
  -2   4  -5 57.0887 50.6415  13
  -2   4  -5-0.10795 42.6167  12
   2  -4   5 10.7123 46.0202   5
  -2   4  -5-13.0914 47.0470   9
   2  -4   5 26.6572 43.2058  15
  -2   4  -6 35.1654 300.508   2
   2  -4   6 32.2823 57.2405   4
  -2   4  -6 19.6996 41.0291  16
   2  -4   6 98.8294 61.3983  15
   2  -4   6 7.76018 42.2134   7
  -2   4  -6 62.7862 55.6204  13
   2  -4   6 23.8485 45.0908   5
  -2   4  -7 13.0312 33.4186  16
   2  -4   7-36.5462 48.5116  15
   2  -4   7 15.2647 38.2366   7
  -2  -5   2 1959.32 172.357   2
  -2  -5   2 2158.25 230.334   6
  -2  -5   2 1848.36 198.904   3
   2   5  -2 1595.36 159.363   1
  -2  -5   2 1849.08 190.933   7
  -2  -5   1 47.8138 32.4763   8
   2   5  -1 10.6610 24.3749   1
  -2  -5   1 22.3938 32.3362   7
   2   5  -1-38.3055 43.1304  14
  -2  -5   1 34.1824 42.6575   6
   2   5  -1-36.7844 40.8571  11
  -2  -5   1 21.4164 30.4762   2
  -2  -5   1-62.8671 45.8890   3
  -2  -5   0 2631.74 199.391   2
   2   5   0 2395.21 173.437   1
  -2  -5   0 2606.58 211.149   7
   2   5   0 2472.61 209.317  14
  -2  -5   0 2658.91 243.928   6
  -2  -5   0 2535.24 227.512   3
   2   5   0 2075.84 131.227  12
   2   5   0 2211.97 222.088  11
   2   5   0 2602.27 240.600  10
  -2  -5   0 2590.09 220.892   8
  -2  -5  -1 920.235 127.565   2
  -2   5  -1 622.336 108.456   2
   2   5   1 912.453 119.563   1
   2  -5   1 674.833 154.553   8
  -2  -5  -1 938.066 103.544  16
  -2  -5  -1 923.715 126.873   7
   2   5   1 943.224 117.341  15
   2  -5   1 529.307 141.871   1
   2   5   1 959.325 133.154  14
  -2  -5  -1 1030.79 153.541   6
   2  -5   1 742.200 177.519   4
  -2  -5  -1 771.058 130.327   3
   2   5   1 826.283 136.122  11
   2   5   1 812.911 130.736  10
   2   5   1 761.769 117.573   9
  -2  -5  -1 826.478 120.489   8
   2  -5   1 689.109 157.114   5
  -2  -5  -2 21.2961 33.1391   8
   2  -5   2 39.4358 36.0742   8
  -2  -5  -2 103.788 61.8044   2
   2   5   2 109.276 45.6265  15
   2  -5   2 57.1051 49.8764   4
   2   5   2 122.141 62.7457  14
  -2   5  -2 57.9502 45.7010  13
   2   5   2 99.2309 50.4035   1
  -2  -5  -2 126.156 61.4135   6
  -2  -5  -2 35.9646 26.7280  16
  -2  -5  -2 7.75352 41.0524   7
  -2   5  -2 39.5925 42.2611  12
   2   5   2 89.3526 50.5320  11
  -2  -5  -2 33.3470 44.7100   3
   2   5   2 68.1153 42.2449  10
  -2   5  -2 15.9508 32.1026   2
   2  -5   2 69.5762 54.0057   1
   2   5   2 43.6613 48.0677   9
   2  -5   2-47.0948 59.4721   5
   2  -5   3 329.543 86.3506   8
  -2  -5  -3 386.132 87.7150   8
  -2  -5  -3 276.443 67.9187  16
  -2  -5  -3 271.818 89.1709   3
   2  -5   3 136.391 87.3483   7
   2   5   3 311.004 87.2058  14
  -2  -5  -3 199.217 47.0939  13
  -2  -5  -3 326.028 99.2757   6
   2  -5   3 381.458 111.358   4
  -2   5  -3 301.516 93.0038  13
   2   5   3 328.026 72.4155  15
  -2   5  -3 214.210 77.5188  12
   2  -5   3 156.804 61.3570   1
  -2   5  -3 243.208 64.4228   2
   2  -5   3 288.587 96.2518   5
  -2   5  -3 24.1027 71.5794   9
   2  -5   4 71.2514 50.0687   8
  -2  -5  -4-41.8471 46.5341   8
  -2  -5  -4-43.9035 54.7804  16
   2  -5   4 27.3725 43.6339   7
   2   5   4-31.3522 30.7948  15
   2  -5   4 110.275 71.4818   4
   2  -5   4-117.179 60.6173  15
   2   5   4 6.81761 29.5135  14
  -2   5  -4 18.8246 29.5280  16
  -2  -5  -4-20.9485 66.7496   6
  -2   5  -4-28.3634 43.2230   2
  -2   5  -4-21.7955 55.6664  13
  -2  -5  -4 31.3343 47.9379   3
  -2   5  -4-20.0168 51.8397  12
   2  -5   4-27.0215 53.1379   5
   2  -5   4 22.6015 37.5115   1
  -2   5  -4-13.4007 31.4724  10
  -2   5  -4-7.61876 37.0095   9
  -2   5  -5 382.005 149.812  13
  -2   5  -5-38.7542 60.6727  10
   2  -5   6 553.826 159.830   4
   2  -5   6 261.606 95.6933   7
  -2   5  -6 245.796 92.5560  16
   2  -5   6 623.395 125.360  15
  -2   5  -6 555.740 133.120  13
  -2   5  -6 495.730 132.486  12
   2  -5   6 682.947 158.711   5
  -2   5  -6 118.272 121.121   9
   2  -5   7-54.4526 58.2223   4
  -2   5  -7-8.48650 47.3729  16
   2  -5   7-29.7498 53.7813   7
  -2   5  -7 2.55159 48.7391  13
   2  -5   7-72.3246 68.5565  15
  -2   5  -7 48.0936 60.3885  12
   2  -5   7-57.1097 72.8097   5
   2   6  -2 361.607 69.3195   1
  -2  -6   2 613.560 125.503   7
  -2  -6   2 534.900 132.371   6
  -2  -6   2 483.472 86.3971   2
  -2  -6   2 407.250 102.385   3
  -2  -6   1 236.709 79.4718   8
  -2  -6   1 261.351 82.6658   7
   2   6  -1 255.925 83.5529  14
   2   6  -1 298.596 66.9602  12
  -2  -6   1 309.943 101.602   6
  -2  -6   1 324.974 73.1369   2
   2   6  -1 318.337 98.0681  11
   2   6  -1 223.997 54.3830   1
   2   6  -1 212.525 80.0160  10
  -2  -6   1 202.045 74.6476   3
  -2  -6   0-37.8131 50.5362   8
  -2  -6   0 164.785 78.9627   6
  -2  -6   0 100.914 49.9305   7
  -2  -6   0 151.763 61.4607   2
   2   6   0 15.8446 41.3180  14
   2   6   0 67.5387 31.1925  12
   2   6   0 126.501 65.6186  11
   2   6   0 46.4283 58.0045  10
  -2  -6   0-73.1011 56.0573   3
   2   6   0 45.5830 34.8096   9
   2   6   0 41.0022 30.9765   1
  -2  -6  -1 38.6716 39.6533   8
  -2  -6  -1 116.211 59.4931   7
   2   6   1 118.113 55.3609   1
  -2  -6  -1 30.7006 30.0192  16
  -2  -6  -1 117.860 61.4128   6
   2   6   1 78.5107 49.8035  11
  -2  -6  -1 42.2097 44.1107   3
   2   6   1 163.133 69.3437  14
  -2  -6  -1 230.830 106.167   2
   2   6   1 161.187 50.9590  15
   2   6   1 68.4837 42.9169   9
   2   6   1 84.8968 60.7370  10
  -2  -6  -2 50.7327 48.2536   8
   2  -6   2-37.3211 54.7916   8
  -2  -6  -2 66.6000 39.1678  16
   2  -6   2-23.1529 39.0258   1
   2  -6   2-7.71964 47.4206   4
   2   6   2-15.0806 56.4924  14
  -2  -6  -2-19.5203 52.3423   6
   2   6   2 27.9764 35.0664  15
  -2   6  -2 84.4764 70.3357  13
  -2  -6  -2 46.4751 48.1157   3
   2   6   2 33.5759 37.9563  11
  -2  -6  -2 14.6307 40.5897   7
   2   6   2 46.3249 34.6702  10
  -2   6  -2 30.1086 30.8526   2
   2   6   2 106.379 57.1042   9
   2  -6   2 27.1155 49.7772   5
   2  -6   3 3.92098 44.1240   8
  -2  -6  -3 2.62962 46.5098   8
  -2  -6  -3-0.81623 38.0606  16
   2   6   3 7.74301 46.4080  14
   2   6   3-93.5092 62.1897  15
   2  -6   3 3.00941 35.3618   1
   2  -6   3 22.9589 41.2151   4
   2  -6   3 20.4996 41.2720   7
  -2  -6  -3-87.0624 65.0286   6
  -2   6  -3 65.9068 56.0193  13
  -2   6  -3 43.3488 41.0971   2
  -2   6  -3 3.29039 37.6891  12
   2  -6   3-10.1318 51.2074   5
  -2   6  -3-4.97481 35.4756   9
   2  -6   4 49.4450 51.2919   8
  -2  -6  -4 192.553 98.3894   8
  -2  -6  -4-6.68800 51.6798  16
   2  -6   4 9.88611 70.1451   7
   2  -6   4 70.1900 67.4801   4
   2   6   4-37.2817 37.6080  15
  -2   6  -4 58.9023 56.0332   2
   2   6   4 25.3537 35.5996  14
  -2  -6  -4-19.2123 67.2323   6
  -2   6  -4 159.236 80.4134  13
   2  -6   4 7.74133 49.5730   1
  -2   6  -4 22.7797 41.9549  12
  -2   6  -4 0.23571 35.6629  10
   2  -6   4 11.7675 55.2522   5
  -2   6  -4 19.5702 49.0119   9
   2  -6   5 379.671 115.961   8
   2  -6   5 175.177 100.952   7
   2  -6   5 219.141 105.494   4
  -2   6  -5 381.148 110.625  13
   2  -6   5 292.076 87.1994  15
  -2   6  -5 167.875 89.2121  12
  -2   6  -5 42.7970 57.6946  16
  -2   6  -5 232.372 82.6844  10
   2  -6   5 274.887 104.001   5
  -2   6  -5 26.8940 48.4332   9
   2  -6   6 645.951 173.353   4
  -2   6  -6 234.841 94.8826  16
  -2   6  -6 569.351 144.261  13
   2  -6   6 522.830 112.659  15
  -2   6  -6 512.105 136.955  12
   2  -6   6 914.609 184.727   5
   2  -6   6 362.787 137.387   7
  -2   6  -6 91.9467 125.059   9
   2  -6   7-52.0608 79.7883   4
   2  -6   7-153.516 77.8609  15
   2  -6   7 27.9176 51.4764   7
  -2   6  -7-9.66138 54.9421  13
  -2   6  -7 93.6967 73.5463  12
   2  -6   7 18.0586 63.7815   5
  -2   6  -7 15.6814 59.4222   9
  -2  -7   2 24.2910 34.7373   8
  -2  -7   2 49.0408 59.8192   7
   2   7  -2 33.8834 46.5439  12
  -2  -7   2 13.6504 52.8608   6
  -2  -7   2 66.4968 54.0840   3
  -2  -7   1 517.416 126.703   8
  -2  -7   1 683.545 142.426   7
   2   7  -1 369.658 102.714  14
  -2  -7   1 534.145 141.435   6
   2   7  -1 413.769 114.846  11
  -2  -7   1 495.395 115.858   3
   2   7  -1 504.309 126.044  10
  -2  -7   0-14.5976 40.2272   8
   2   7   0 80.8785 59.3532  14
  -2  -7   0 106.713 70.9559   7
  -2  -7   0 70.3163 59.3285   6
   2   7   0 56.8107 56.5456  11
  -2  -7   0 131.872 71.9323   3
   2   7   0-32.8395 39.7573  10
   2   7   0 21.2489 36.8611   9
  -2  -7  -1 282.184 96.7080   8
  -2  -7  -1 175.533 73.5427   7
   2   7   1 183.701 76.1181  14
  -2  -7  -1 212.720 89.2207   6
  -2  -7  -1 148.794 68.1394   3
   2   7   1 245.679 102.903  11
   2   7   1 163.551 67.3380  10
   2   7   1 172.006 68.1921   9
  -2  -7  -2 35.9150 49.7833   8
   2  -7   2-10.1756 59.5889   8
  -2  -7  -2 84.9833 64.7158   7
  -2  -7  -2-84.2786 54.3392  16
   2   7   2-3.84367 41.1188  15
   2  -7   2-21.0837 70.4152   4
  -2  -7  -2-59.8987 61.6684   6
  -2  -7  -2-14.2843 59.4177   3
   2   7   2 40.9729 56.8854  14
   2   7   2-13.3865 51.5848  11
   2   7   2 67.1839 53.3436  10
   2  -7   2-36.6482 73.2889   5
   2   7   2 46.6091 56.2522   9
   2  -7   3 557.478 137.368   8
  -2  -7  -3 609.740 149.749   8
   2  -7   3 284.554 159.330   7
   2  -7   3 592.491 150.584   4
   2   7   3 596.771 119.305  15
  -2  -7  -3 707.106 181.262   3
  -2  -7  -3 1025.06 223.877   6
   2   7   3 493.800 128.485  14
  -2   7  -3 591.025 153.940  13
  -2   7  -3 424.143 129.545  12
   2   7   3 376.779 109.284  11
  -2  -7  -3 632.106 115.052  16
   2  -7   3 581.724 159.978   5
   2  -7   4-78.8712 72.3746   8
   2  -7   4-17.2257 71.8631   7
   2  -7   4 41.5769 64.9838   4
  -2   7  -4 106.327 83.0652  13
  -2   7  -4 0.14854 44.8848  12
  -2   7  -4-71.5212 56.4759  10
   2  -7   4-28.8302 64.2219   5
  -2   7  -4-1.66795 61.1535   9
   2  -7   5 263.614 98.3181   8
   2  -7   5 128.858 115.720   7
  -2   7  -5 223.435 101.139  13
   2  -7   5 135.132 90.7505   4
  -2   7  -5 217.569 99.6033  12
  -2   7  -5 266.061 107.333  10
   2  -7   5 339.528 126.146   5
  -2   7  -5-22.6636 85.5719   9
   2  -7   6 42.5574 65.4454   8
   2  -7   6 289.727 133.805   4
   2  -7   6 27.3844 83.5336   7
  -2   7  -6 196.517 99.5237  13
  -2   7  -6 29.4828 65.7871  12
   2  -7   6 156.437 102.157   5
  -2   7  -6 186.665 93.5731  10
  -2   7  -6 45.6086 95.8208   9
   2  -7   7 92.7326 79.7636   4
   2  -7   7-8.43801 58.7649   7
  -2   7  -7 91.7271 77.2070  13
  -2   7  -7 44.7938 67.7597  12
  -2   7  -7-8.51019 52.1312   9
  -2  -8   3 22.6306 63.0671   7
  -2  -8   3-70.8997 63.2996   6
  -2  -8   3 130.750 69.0121   3
  -2  -8   2-63.0960 60.8940   8
  -2  -8   2-38.0462 79.3264   7
  -2  -8   2-4.67530 56.9584   6
  -2  -8   2 52.6535 55.4867   3
   2   8  -2-15.1638 48.8973  10
  -2  -8   1 36.4425 54.0207   8
  -2  -8   1-27.1799 53.4562   7
   2   8  -1-24.9109 48.1117  14
  -2  -8   1 24.4492 58.4126   6
   2   8  -1 65.0716 64.2850  11
  -2  -8   1 24.2359 51.1206   3
   2   8  -1-39.9246 50.0059  10
   2   8  -1 111.745 71.3330   9
  -2  -8   0-47.6438 61.4501   8
  -2  -8   0 71.5152 64.1617   7
   2   8   0 98.9110 65.1818  14
  -2  -8   0 31.7690 56.0793   6
  -2  -8   0 20.6741 45.4312   3
   2   8   0 54.2841 63.6487  11
   2   8   0 97.0783 73.2151  10
   2   8   0 133.908 79.8257   9
  -2  -8  -1 33.9899 56.4360   8
   2   8   1 26.5900 51.1051  14
  -2  -8  -1 7.24496 49.5662   6
  -2  -8  -1-18.9857 46.1023   7
  -2  -8  -1-27.4862 59.8502   3
   2   8   1 36.8941 50.7113  11
   2   8   1-83.0637 67.1866  10
   2   8   1 15.0848 44.8054   9
  -2  -8  -2 70.9417 61.3757   8
   2  -8   2-122.916 103.997   8
  -2  -8  -2 83.1439 73.9132   7
   2  -8   2 150.913 98.3453   4
  -2  -8  -2 101.713 94.5860   6
  -2  -8  -2-18.4500 49.5895   3
   2   8   2 71.9210 79.5884  14
   2   8   2 64.3703 68.2132  11
   2   8   2 168.516 82.0661  10
   2  -8   2 196.627 117.020   5
   2  -8   3 896.068 196.935   8
  -2  -8  -3 420.509 175.729   8
  -2  -8  -3 466.413 181.523   6
   2   8   3 509.606 137.914  14
   2   8   3 319.616 106.312  11
   2  -8   3 578.818 155.852   4
  -2   8  -3 657.476 143.388  10
   2  -8   3 904.616 194.495   5
   2  -8   4 134.146 99.4300   8
   2  -8   4 205.723 111.503   4
   2  -8   4 55.1520 70.1597   7
  -2   8  -4 63.4112 69.2882  13
  -2   8  -4 0.16747 62.7046  12
  -2   8  -4 123.255 91.3645  10
   2  -8   4 140.823 94.5899   5
  -2   8  -4 10.8692 54.2576   9
   2  -8   5 171.115 101.333   8
   2  -8   5 31.4907 74.8384   4
   2  -8   5 92.5658 104.421   7
  -2   8  -5 32.5555 69.6605  13
  -2   8  -5 106.997 86.3927  12
  -2   8  -5 123.850 82.4917  10
   2  -8   5 34.4229 74.4198   5
  -2   8  -5 11.3987 81.4315   9
   2  -8   6-13.4386 63.7281   8
   2  -8   6 37.9432 68.6393   4
   2  -8   6 37.0238 65.1930   7
  -2   8  -6-27.9390 76.7143  13
  -2   8  -6-65.0565 54.2447  12
   2  -8   6 75.2750 79.4732   5
  -2   8  -6 4.77656 49.6620  10
  -2   8  -6-14.2965 62.5433   9
   2  -8   7 66.2908 77.5319   7
  -2   8  -7 341.654 137.969  13
  -2   8  -7 221.032 123.247  12
   2  -8   7 485.719 170.834   5
  -2   8  -7-9.71036 117.148   9
  -2  -9   3-218.236 110.827   7
  -2  -9   3-150.451 98.3678   6
  -2  -9   3-20.4950 48.3821   3
  -2  -9   2 400.762 128.393   8
  -2  -9   2 434.642 143.827   7
  -2  -9   2 522.308 167.099   6
  -2  -9   2 547.311 131.404   3
   2   9  -2 372.887 121.342  10
   2   9  -2 433.768 140.646   9
  -2  -9   1 15.9330 61.6940   8
  -2  -9   1 30.9820 59.2813   7
   2   9  -1 51.9275 64.4296  14
  -2  -9   1-60.2404 84.8201   6
  -2  -9   1-32.6176 57.3665   3
   2   9  -1 20.6817 65.4190  11
   2   9  -1 42.5645 67.6460  10
   2   9  -1 59.2766 78.4846   9
  -2  -9   0 114.935 88.9358   8
  -2  -9   0 98.5192 72.8842   7
   2   9   0 14.0911 64.7230  14
  -2  -9   0 91.8563 92.9844   6
  -2  -9   0 160.744 88.3024   3
   2   9   0 129.965 98.6473  11
   2   9   0 87.3719 71.0778  10
   2   9   0-73.2897 74.0013   9
  -2  -9  -1 81.7347 74.5313   8
  -2  -9  -1 32.0964 54.3936   7
   2   9   1 0.14907 73.2160  14
  -2  -9  -1-155.424 109.401   6
  -2  -9  -1-35.3219 74.6841   3
   2   9   1 197.477 112.390  11
   2   9   1 188.486 98.2028  10
   2   9   1 115.059 73.6403   9
  -2  -9  -2-44.9514 81.2716   8
  -2  -9  -2 19.6895 83.7223   6
   2   9   2 123.729 97.9283  11
   2   9   2-30.4657 52.1532  10
   2   9   2-2.08744 57.2252  14
   2  -9   3 166.151 113.576   8
   2  -9   3 36.5098 63.1205   4
   2  -9   3 31.1549 71.7305   5
   2  -9   4 4.61395 88.3053   8
   2  -9   4-19.1413 70.2004   7
   2  -9   4 124.666 73.4830   4
  -2   9  -4 196.343 94.4065  12
  -2   9  -4 83.5746 103.908  10
   2  -9   4-35.2888 82.8116   5
   2  -9   5 25.9901 85.2504   8
   2  -9   5-117.170 89.2946   4
   2  -9   5 31.3973 98.9747   7
  -2   9  -5 133.073 107.100  13
  -2   9  -5 15.1382 68.5544  12
  -2   9  -5-62.5652 72.0266  10
   2  -9   5-120.419 107.804   5
  -2   9  -5 8.87606 118.436   9
   2  -9   6-64.8535 96.7997   8
   2  -9   6-72.6510 76.5351   4
   2  -9   6 85.0001 75.0113   7
  -2   9  -6 31.4436 88.3670  13
  -2   9  -6-158.081 99.2366  12
   2  -9   6 35.2346 89.4492   5
  -2   9  -6-26.4931 64.8354  10
  -2   9  -6 7.15300 94.6468   9
   2  -9   7 17.0930 74.0932   7
  -2   9  -7-74.7640 90.7808  13
  -2   9  -7 57.5741 60.2982  12
   2  -9   7 76.9989 106.634   5
  -2   9  -7-0.78276 81.9592   9
  -2 -10   3 75.6485 93.2628   7
  -2 -10   3-192.905 108.602   6
   2  10  -3-45.7925 103.980   9
  -2 -10   2 208.609 108.620   8
  -2 -10   2 103.189 77.5418   7
  -2 -10   2 217.067 130.983   6
   2  10  -2 47.0886 67.0066  10
   2  10  -2 4.67348 74.6806   9
  -2 -10   1 17.8776 63.7547   8
  -2 -10   1-3.33052 84.6550   7
  -2 -10   1-88.0789 103.286   6
  -2 -10   1-2.57954 53.6140   3
   2  10  -1 17.6267 70.3022  11
   2  10  -1 23.7091 59.3932  10
   2  10  -1-76.2480 87.4444   9
  -2 -10   0-46.9107 76.0583   8
   2  10   0-21.2578 66.4988  14
  -2 -10   0 83.6861 96.1195   6
  -2 -10   0 251.888 125.639   3
  -2 -10   0-88.9983 67.4010   7
   2  10   0-114.853 104.325  11
   2  10   0-58.5488 53.0644  10
   2  10   0 81.6418 71.2155   9
  -2 -10  -1 279.593 128.048   8
  -2 -10  -1 288.853 118.745   7
   2  10   1 16.0981 47.6043  14
  -2 -10  -1 323.905 155.777   6
   2  10   1 487.450 174.538  11
   2  10   1 186.467 96.0103  10
   2  10   1 227.473 99.2081   9
   2  10   2-134.548 102.359  11
  -2 -10  -2 225.452 160.089   6
   2 -10   4 156.978 140.319   8
   2 -10   4 161.832 121.944   4
  -2  10  -4-135.840 93.1218  10
   2 -10   4 76.3318 107.375   5
   2 -10   5-211.534 139.257   8
   2 -10   5-147.138 113.457   4
   2 -10   5 49.5048 84.6529   7
  -2  10  -5-294.813 221.635  12
  -2  10  -5 145.569 135.274  10
   2 -10   5-190.193 140.315   5
   2 -10   6-142.779 134.663   8
   2 -10   6 57.5899 119.363   4
   2 -10   6 71.2940 141.680   7
  -2  10  -6 27.1435 71.2198  13
  -2  10  -6-7.33424 68.3888  12
   2 -10   6 3.39302 86.2401   5
  -2  10  -6 139.014 112.574  10
  -2  10  -6-199.747 112.300   9
  -2 -11   3 94.1207 112.295   7
  -2 -11   3 277.615 134.599   6
   2  11  -3-141.266 109.286   9
  -2 -11   2-37.9180 76.7969   8
  -2 -11   2-46.8704 86.2945   7
  -2 -11   2 110.249 117.234   6
   2  11  -2 67.9906 66.6327  10
   2  11  -2-43.4114 71.6594   9
  -2 -11   1-127.577 103.654   8
  -2 -11   1 315.316 162.243   6
  -2 -11   1 106.647 118.865   7
   2  11  -1 191.670 162.263  11
   2  11  -1 32.1146 90.5045  10
   2  11  -1 25.9012 77.9575   9
  -2 -11   0-233.966 180.192   8
  -2 -11   0 82.2558 90.1039   7
   2  11   0 76.7604 102.428  11
  -2 -11   0-15.2410 124.296   6
   2  11   0-52.8995 76.2663  10
   2  11   0 12.8838 69.3158   9
  -2 -11  -1 54.7556 132.954   8
  -2 -11  -1 128.821 151.953   6
   2  11   1-17.1946 74.0771  11
   2  11   1 79.0163 69.9532  10
   3   0   1-36.1834 33.8915  15
   3   0   1 16.5966 25.1593   4
  -3   0  -1-8.02309 23.9973   6
   3   0   1-92.5382 55.0719   1
  -3   0  -1-18.4506 33.6294   3
   3   0   1 49.7603 32.2083   5
  -3   0  -1-53.2147 42.0879   2
   3   0   2 531.200 111.944  15
   3   0   2 484.523 109.597   1
   3   0   2 454.027 103.263   4
  -3   0  -2 527.608 91.7379  16
  -3   0  -2 527.744 71.4388   6
   3   0   2 477.140 109.154  14
  -3   0  -2 541.870 127.414  13
  -3   0  -2 573.217 122.854   2
  -3   0  -2 440.840 93.5745   3
   3   0   2 427.095 69.6228   5
  -3   0  -3-3.37808 30.0103  16
   3   0   3 56.9277 49.7357   4
   3   0   3-25.3672 40.6808  15
   3   0   3-45.4743 46.4045  14
  -3   0  -3 4.87643 34.7218  13
  -3   0  -3 1.40442 27.8433   6
   3   0   3-23.9278 41.5322   1
  -3   0  -3 55.9626 53.2854   2
  -3   0  -3-34.0158 38.3096   3
   3   0   3-30.6448 30.5087   5
  -3   0  -4 41.4270 37.0171  16
   3   0   4 105.764 63.5373  14
  -3   0  -4-14.0999 32.8083  13
   3   0   4 0.12103 39.4772   1
  -3   0  -4-46.0448 51.7673   2
  -3   0  -4-56.8320 46.5229   3
   3   0   4 1.52716 34.0357   4
   3   0   4 127.880 53.8648   5
   3   0   4-10.6955 38.6329  15
   3   0   5-3.70831 42.3031   1
  -3   0  -5 20.8676 37.5833  16
   3   0   5-5.76305 62.8296  15
   3   0   5-4.26205 41.1663  14
  -3   0  -5-27.5635 53.9417   2
  -3   0  -5 13.3671 38.5983  13
  -3   0  -5-54.9343 45.9775   3
  -3   0  -5 13.5646 31.1643  12
   3   0   5 0.79411 40.8800   4
   3   0   6 887.966 185.467   1
   3   0   6 652.391 154.162   4
  -3   0  -6 1141.41 173.239  16
   3   0   6 883.708 178.124  15
  -3   0  -6 1027.53 212.076   2
   3   0   6 825.086 153.786  14
  -3   0  -6 1101.67 202.023  13
  -3   0  -6 601.041 132.336  12
  -3   0  -7-157.277 153.486  16
  -3   0  -7-81.4178 119.957   2
   3   0   7-11.7052 63.9665  15
   3   0   7 44.8034 54.9689  14
  -3   0  -7-198.438 175.330  13
  -3   0  -7-299.906 232.597  12
  -3   1  -1 6.89535 27.9700   2
  -3  -1  -1-3.03587 33.7895  16
   3   1   1-12.5447 32.4346   4
   3  -1   1 3.21021 35.9157   4
   3   1   1-6.84613 39.6170  14
   3   1   1 54.4621 51.0632   1
   3   1   1 1.28595 35.8443  15
  -3  -1  -1-22.3930 26.7975   6
   3  -1   1-0.09400 28.3720   1
  -3  -1  -1 27.5773 31.7305   3
  -3   1  -1 51.4034 37.6629   3
  -3  -1  -1 41.5827 39.3784   2
   3   1   1-21.2329 17.1526   5
   3   1   2 161.832 65.2501   1
   3  -1   2 60.5231 20.3066   8
  -3  -1  -2 170.996 54.5568  16
  -3   1  -2 479.427 89.0803  16
   3  -1   2 198.628 72.8391  15
   3   1   2 176.361 70.0054  15
   3   1   2 194.258 68.0023   4
   3  -1   2 124.045 72.9459   4
   3   1   2 114.290 52.6686  14
  -3   1  -2 425.514 124.073  13
  -3  -1  -2 188.568 76.5920  13
  -3  -1  -2 186.370 50.2371   6
  -3   1  -2 283.324 52.8973   6
   3  -1   2 183.891 78.1247   1
  -3  -1  -2 193.292 82.6978   2
  -3  -1  -2 211.238 68.2820   3
   3   1   2 182.873 40.9706   5
  -3   1  -2 443.976 98.2956   3
  -3   1  -2 281.566 110.025   2
   3  -1   2 212.425 61.7460   5
   3   1   3 1436.54 175.985   4
   3  -1   3 1253.77 184.150   4
  -3  -1  -3 1449.17 186.536   2
  -3  -1  -3 1449.09 154.844  16
  -3   1  -3 1432.73 148.676  16
   3   1   3 1361.27 179.056   1
   3   1   3 1441.16 181.010  15
   3  -1   3 1353.99 184.942  15
   3   1   3 1627.99 177.639  14
  -3   1  -3 1231.28 94.2764   6
  -3  -1  -3 1738.20 164.078   6
  -3  -1  -3 1465.76 179.000   3
   3  -1   3 1359.93 184.307   1
  -3   1  -3 1384.04 161.649   3
  -3  -1  -3 1462.15 189.674  13
  -3   1  -3 1619.78 214.833  13
   3   1   3 1588.96 128.571   5
   3  -1   3 1454.07 150.146   5
   3   1   4 32.8603 36.2722   4
  -3   1  -4 64.1356 39.8070  16
   3  -1   4 150.822 86.5818   4
   3   1   4 145.878 69.6941  15
   3   1   4 72.3806 51.6907  14
  -3   1  -4 354.998 116.445   3
  -3  -1  -4 78.4730 49.6731   6
  -3  -1  -4 106.889 62.1766  13
  -3   1  -4 54.8136 45.3045  13
   3   1   4 56.9672 43.6282   1
  -3  -1  -4-0.59075 37.9013   2
  -3   1  -4 162.490 110.335   2
   3  -1   4 138.317 72.9989   1
  -3  -1  -4 65.4374 46.1714   3
  -3  -1  -4 111.575 59.7664  16
   3  -1   4 171.443 64.3332   5
   3  -1   5 13.9488 50.1942   1
   3   1   5 76.9565 57.0638   4
  -3  -1  -5 11.6945 40.5147  16
   3  -1   5 146.113 80.8709   4
   3  -1   5 147.618 92.5360  15
   3   1   5 31.0869 50.1147  14
   3  -1   5 133.345 68.8521  14
  -3  -1  -5 146.512 83.5722   2
  -3   1  -5 161.688 83.4598   2
  -3  -1  -5 23.3945 46.2532  13
  -3   1  -5 55.0428 46.8325  13
  -3   1  -5 7.44760 39.1437  16
  -3   1  -5 5.21859 35.6386   3
   3   1   5-6.35129 56.5228  15
  -3  -1  -5 21.5534 32.8660   3
  -3   1  -5 175.475 65.1127  12
   3   1   5 53.3836 44.0489  11
   3  -1   5 107.777 62.5701   5
   3   1   5 115.350 79.1273   1
   3  -1   6 279.352 109.079   4
  -3  -1  -6 270.511 94.0621  16
  -3   1  -6 249.808 84.0750  16
   3   1   6 247.427 104.847  15
   3  -1   6 173.393 99.9284  15
  -3   1  -6 117.558 72.7734   2
   3   1   6 268.909 115.168  14
   3  -1   6 107.001 71.7591  14
  -3  -1  -6 142.992 85.1588  13
  -3   1  -6 227.323 105.554  13
   3   1   6 192.683 98.7570   1
  -3   1  -6 316.180 105.600  12
   3  -1   6 279.941 111.070   1
   3   1   6 267.219 95.2389  11
  -3  -1  -7 11.3198 135.854   2
  -3  -1  -7-142.350 178.239  16
  -3   1  -7-67.7725 80.1074  16
  -3   1  -7-43.4330 119.085   2
   3   1   7-30.9326 52.2587  15
   3  -1   7-67.2321 69.1816  15
   3  -1   7-23.0553 53.1154   1
   3   1   7-66.2547 67.4859  14
   3  -1   7-30.8276 42.4941  14
  -3  -1  -7-344.444 313.073  13
  -3   1  -7-83.4131 100.115  13
  -3   1  -7-110.784 165.999  12
  -3  -2  -1 103.834 50.4375  16
   3   2   1 107.915 57.8152  15
   3   2   1 90.5077 52.8148   4
  -3  -2  -1 1.98287 15.7688   7
   3   2   1 21.8103 37.2309  14
  -3  -2  -1 33.7391 34.4658   6
   3   2   1 33.1651 30.4451   1
  -3  -2  -1 4.48520 36.7978   2
  -3  -2  -1 140.053 61.3468   3
   3   2   1 74.1429 23.0697   5
   3  -2   2 18.2712 40.7524   1
   3  -2   2-5.24575 20.5690   8
  -3   2  -2-72.1451 45.1576  16
   3   2   2 36.9001 30.3418   4
  -3  -2  -2 32.4451 37.0524  16
   3   2   2 34.1352 49.9273  15
   3  -2   2 2.56070 35.7878  15
   3  -2   2-15.9880 37.4673   4
   3   2   2-24.2324 40.0897  14
  -3   2  -2-21.8118 46.8486  13
  -3  -2  -2 79.6752 133.039  13
  -3  -2  -2-28.0522 35.6541   6
   3   2   2-29.9830 48.0378   1
  -3  -2  -2-36.2396 42.8730   2
  -3  -2  -2-78.9217 50.7415   3
  -3   2  -2-16.7201 31.8270   3
  -3   2  -2 30.2583 54.2572   2
   3  -2   2 23.2605 33.7680   5
   3   2   3 988.058 141.223   4
   3  -2   3 751.111 168.971   4
  -3  -2  -3 834.456 144.254   2
  -3   2  -3 987.440 173.509   2
  -3  -2  -3 915.327 123.313  16
   3   2   3 755.230 131.777   1
  -3   2  -3 806.535 112.561  16
   3   2   3 1100.73 161.241  15
   3  -2   3 844.774 149.455  15
   3   2   3 859.530 128.987  14
  -3  -2  -3 913.057 127.723   6
  -3  -2  -3 746.901 132.726   3
  -3   2  -3 775.519 116.708   3
  -3  -2  -3 899.258 138.508  13
  -3   2  -3 820.008 156.714  13
   3   2   3 880.739 135.232  11
   3  -2   3 787.389 127.199   5
   3  -2   3 641.471 130.501   1
   3   2   4 620.898 122.504   4
   3   2   4 513.569 112.948   1
   3   2   4 756.520 137.480  15
  -3  -2  -4 588.711 104.654  16
  -3   2  -4 525.089 96.5174  16
   3  -2   4 538.278 141.166   4
   3  -2   4 550.705 122.846  15
   3   2   4 629.746 122.498  14
   3  -2   4 485.810 110.049  14
  -3  -2  -4 735.615 130.697   6
  -3  -2  -4 526.092 132.169   2
  -3  -2  -4 549.409 111.355  13
  -3   2  -4 470.015 129.964  13
  -3   2  -4 432.732 84.0322   3
  -3   2  -4 481.631 101.216  12
  -3   2  -4 614.377 134.279   2
  -3  -2  -4 531.075 113.823   3
   3  -2   4 449.061 116.636   1
   3   2   4 479.973 99.2789  11
   3  -2   4 446.799 108.851   5
   3  -2   5-8.59466 64.3769   1
  -3  -2  -5 25.5606 45.2607  16
   3  -2   5-44.5929 47.6309  15
  -3   2  -5-69.9984 55.4160  16
   3  -2   5-12.8051 52.8723   4
   3   2   5-30.0011 56.3256  15
  -3  -2  -5 91.0991 79.0662   2
   3   2   5 83.1983 67.5733  14
   3  -2   5-57.6597 56.1124  14
  -3  -2  -5 49.5906 46.3341  13
  -3   2  -5-98.7045 77.3707  13
  -3   2  -5 35.3135 61.9835   2
  -3   2  -5-10.4434 36.9024   3
  -3  -2  -5 44.7915 43.6052   3
  -3   2  -5 15.7141 41.9826  12
   3   2   5-43.7916 55.0777  11
   3   2   5-7.97102 42.5146   1
   3  -2   5 116.114 65.9416   5
   3  -2   6-26.2325 66.9085   4
  -3  -2  -6-16.3044 67.6964  16
  -3   2  -6 22.9509 51.5370  16
  -3  -2  -6-1.52499 87.8105   2
   3   2   6-14.7675 44.7645  15
   3  -2   6 3.73860 50.6043  15
  -3   2  -6-48.7378 81.9409   2
   3   2   6 20.8813 44.7813  14
   3   2   6-30.8722 65.5226   1
   3  -2   6 57.4301 43.5025  14
  -3  -2  -6-42.3564 77.6015  13
  -3   2  -6-95.2072 70.7292  13
  -3   2  -6 36.9141 61.8521  12
   3  -2   6-5.18541 86.3841   1
   3   2   6-57.7904 59.2667  11
   3  -2   6-35.9610 50.3134   5
   3  -2   7 40.4214 70.5473   4
   3  -2   7 47.8857 68.0849  15
   3  -2   7 54.8472 61.6343   1
   3  -2   7-245.365 78.7045  14
  -3   2  -7-56.8348 73.9074   2
  -3   2  -7 34.7440 79.2547  13
  -3   2  -7 17.4487 52.5518  16
  -3   2  -7 0.23158 74.3385  12
  -3  -3   0 285.090 59.2547   7
   3   3   0 367.046 80.7700   4
   3   3   0 376.789 104.713  14
   3   3   0 302.598 88.0520   1
  -3  -3   0 369.898 88.4645   6
  -3  -3   0 321.580 91.4299   3
  -3  -3   0 349.636 92.6356   2
   3   3   1 56.3871 47.7348   1
  -3  -3  -1 147.709 56.8710  16
   3   3   1 27.1089 29.7478   4
   3   3   1 28.5431 44.0499  15
  -3  -3  -1 158.212 45.1075   7
   3   3   1 94.9924 63.1549  14
  -3  -3  -1 99.6320 51.0942   6
  -3  -3  -1-1.38576 49.5457   2
  -3  -3  -1 85.8876 56.3081   3
   3   3   2 241.437 75.7774   1
   3  -3   2 179.968 53.7657   8
  -3  -3  -2 308.920 74.3911  16
   3   3   2 103.885 46.4199   4
   3   3   2 145.510 65.9440  15
   3  -3   2 158.235 82.8888   4
   3   3   2 92.5103 46.3936  14
  -3   3  -2 122.372 66.5965  13
  -3  -3  -2 219.029 71.1150   6
  -3  -3  -2 149.293 66.7299   2
   3   3   2 195.930 79.9065  11
  -3  -3  -2 163.976 71.4417   3
  -3   3  -2 251.498 67.8987   3
   3  -3   2 138.600 73.4102   1
  -3   3  -2 235.825 94.5227   2
   3  -3   2 166.620 77.3362   5
   3   3   3 369.476 90.8674   4
  -3  -3  -3 489.343 94.8173  16
  -3   3  -3 91.3746 84.1473  16
   3   3   3 504.389 122.167  15
   3  -3   3 315.404 97.6721  15
   3  -3   3 355.680 126.306   4
   3   3   3 425.648 102.464  14
   3   3   3 474.887 112.341   1
  -3  -3  -3 603.458 121.968  13
  -3  -3  -3 517.734 109.332   6
  -3   3  -3 438.370 124.987  13
  -3  -3  -3 424.090 116.184   2
   3  -3   3 140.823 100.201   1
   3   3   3 355.178 97.9468  11
  -3  -3  -3 315.827 91.5467   3
  -3   3  -3 280.109 65.8064   3
  -3   3  -3 349.624 121.949   2
   3  -3   3 336.982 101.331   5
  -3  -3  -4 241.919 76.0277  16
  -3   3  -4 52.8961 70.4351  16
   3   3   4 158.485 66.8080  15
   3  -3   4 220.722 112.405   4
   3   3   4 333.232 95.8748  14
  -3  -3  -4 301.620 109.210   2
  -3  -3  -4 334.776 110.548   6
  -3  -3  -4 216.455 73.5587  13
  -3   3  -4 192.166 96.5126  13
  -3   3  -4 104.405 43.6888   3
   3  -3   4 90.3256 68.0470  15
  -3   3  -4 118.545 67.0695  12
  -3  -3  -4 254.509 86.3627   3
  -3   3  -4 229.629 102.196   2
   3  -3   4 69.6803 91.6012   1
   3   3   4 183.083 74.0380  11
   3  -3   4 192.284 78.4434   5
   3   3   4 252.849 82.8170   1
   3   3   5 929.301 169.602   1
   3  -3   5 307.555 158.963   1
  -3  -3  -5 919.838 146.805  16
  -3   3  -5 129.230 117.860  16
   3  -3   5 682.593 173.865   4
  -3  -3  -5 1050.88 218.411   2
   3   3   5 729.585 132.406  15
   3  -3   5 630.705 137.758  15
   3  -3   5 737.168 126.439  14
   3   3   5 628.377 133.569  14
  -3  -3  -5 811.189 152.371  13
  -3   3  -5 569.758 142.246   2
  -3   3  -5 637.626 151.508  13
  -3  -3  -5 748.575 154.811   3
  -3   3  -5 628.735 130.967  12
   3   3   5 796.941 149.740  11
   3  -3   5 628.601 138.884   5
  -3  -3  -6-103.931 166.440   2
   3  -3   6 6.54136 55.9139   4
  -3  -3  -6-141.048 108.875  16
   3   3   6-6.52114 38.1852  15
   3  -3   6 16.7378 56.9379  15
  -3   3  -6 84.9172 77.5125   2
   3   3   6-73.7049 59.4291  14
  -3  -3  -6 111.540 87.0032  13
  -3   3  -6-25.3294 55.1894  13
  -3   3  -6-185.736 87.8839  12
   3  -3   6-21.9254 83.6375   1
  -3   3  -6 6.55951 58.0363  16
   3   3   6 13.8369 45.7616  11
   3  -3   6-70.3217 54.4523   5
  -3   3  -7 186.514 140.592  16
   3  -3   7 762.348 183.157  15
   3  -3   7 186.093 99.1207   1
  -3   3  -7 768.020 188.355  13
  -3   3  -7 1108.60 231.077  12
  -3   3  -7 1287.52 310.705   2
   3  -3   7 898.068 223.983   4
  -3   3  -8-16.8222 75.0963  16
   3  -3   8-38.1328 58.2783  15
  -3   3  -8-180.052 125.241  13
   3   4   0 527.353 87.8344   4
  -3  -4   0 531.021 87.4988   7
   3   4   0 496.359 115.450  14
   3   4   0 568.183 118.101   1
  -3  -4   0 625.011 123.785   6
  -3  -4   0 557.750 116.927   2
  -3  -4   0 491.656 115.435   3
   3   4   1-31.8813 34.6512   4
  -3  -4  -1 72.0599 37.0690  16
   3   4   1 145.108 65.3141   1
   3   4   1 41.7232 38.7172  15
   3   4   1-6.96937 37.7981  14
  -3  -4  -1 63.8204 33.9813   7
  -3  -4  -1 91.7672 58.3790   6
  -3  -4  -1 50.2845 50.1705   2
  -3  -4  -1 105.800 60.0135   3
   3  -4   2 80.5322 51.2423   8
  -3  -4  -2-71.7576 63.2862  16
  -3  -4  -2 2.23733 26.9299   7
   3   4   2 25.6678 46.9959  15
   3  -4   2-17.4236 48.7609   4
   3   4   2 79.5289 61.2690  14
  -3   4  -2 38.6453 49.2225  13
  -3  -4  -2 23.1468 36.9422   6
  -3  -4  -2 78.9124 53.5336   2
   3   4   2 67.4118 49.0534   1
   3  -4   2-5.76310 58.7409   1
   3   4   2-12.5438 42.2527  11
  -3  -4  -2 33.2302 46.3934   3
  -3   4  -2 34.0190 26.3794   3
  -3   4  -2 36.0960 54.9164   2
   3  -4   2-29.5672 52.2143   5
   3   4   3 68.3031 50.2553   1
   3  -4   3 92.2215 47.0299   8
  -3  -4  -3 72.4533 43.8937  16
   3   4   3 110.227 68.5986  15
   3  -4   3 50.4881 65.5799   4
   3  -4   3-18.2291 49.0284   1
   3   4   3 120.736 63.1770  14
  -3  -4  -3 232.200 96.6493   2
  -3  -4  -3 55.1286 48.4004   6
  -3  -4  -3 149.777 70.7523  13
  -3   4  -3 117.851 74.5004  13
   3   4   3-44.0282 49.4880  11
  -3  -4  -3 141.623 73.6093   3
  -3   4  -3 37.3025 47.5087   2
   3  -4   3-24.6246 49.4265   5
  -3  -4  -4 95.0725 52.3811  16
  -3   4  -4 35.1213 49.5504  16
   3   4   4 269.215 88.6744  15
   3  -4   4 10.7743 54.0308   4
  -3  -4  -4 133.044 83.8066   2
   3  -4   4 122.831 66.4787  15
   3   4   4 164.733 81.1072  14
  -3  -4  -4 260.682 102.850   6
  -3  -4  -4 248.682 90.5445  13
  -3   4  -4 223.305 93.4543  13
   3  -4   4-10.8834 68.8934   1
  -3  -4  -4 69.6267 48.1700   3
  -3   4  -4 150.299 82.8452  12
  -3   4  -4 67.0630 71.6447   2
   3   4   4 55.4680 57.5635   1
   3   4   4 218.375 79.1824  11
   3  -4   4 171.969 82.2674   5
   3  -4   5 5.29042 56.3602   1
  -3  -4  -5 56.4170 57.6052  16
  -3  -4  -5 199.724 105.280   2
  -3   4  -5 12.1537 71.1748  16
   3  -4   5 25.6283 71.1633   4
   3   4   5-32.5109 52.5755  15
   3  -4   5-40.0188 66.4391  15
   3   4   5 75.7155 53.3159   1
   3   4   5 46.4201 47.8423  14
  -3   4  -5 65.0247 65.5976   2
  -3  -4  -5 32.3487 45.2929  13
  -3   4  -5 47.7773 52.6978  13
  -3  -4  -5-90.4415 70.2548   3
  -3   4  -5 24.3153 58.2959  12
   3   4   5 130.720 71.0123  11
   3  -4   5 88.3506 74.1267   5
  -3  -4  -6 181.618 151.522  16
   3  -4   6 191.163 117.827   4
   3   4   6 7.58083 31.8988  15
   3  -4   6 77.4030 72.6986  15
  -3   4  -6 146.404 91.8034   2
   3   4   6-27.3664 38.1032  14
  -3   4  -6 108.025 85.9915  13
   3  -4   6 50.2370 85.8898   1
  -3   4  -6 98.1828 74.1132  12
  -3   4  -6 7.84100 44.6121  16
   3  -4   6 140.738 83.7455   5
   3  -4   7-19.7862 63.7264   4
  -3   4  -7 143.807 153.307   2
  -3   4  -7 40.0220 63.9034  16
   3  -4   7 62.8108 77.7580  15
  -3   4  -7 157.045 93.9834  13
  -3   4  -7-118.001 94.0310  12
   3  -4   7 26.2019 52.4209   5
  -3   4  -8-11.1278 61.1736  16
   3  -4   8 80.7064 90.3376  15
  -3   4  -8 122.136 111.948  13
  -3   4  -8-39.9970 114.719  12
  -3  -5   1 226.824 76.0463   7
  -3  -5   1 228.843 92.4295   6
   3   5  -1 173.705 84.4051   1
  -3  -5   1 247.010 88.3804   2
  -3  -5   1 205.413 80.7186   3
  -3  -5   0 233.177 73.1556   7
   3   5   0 214.635 84.5325  14
   3   5   0 236.422 78.7158   1
  -3  -5   0 81.6170 62.5349   6
  -3  -5   0 312.129 95.4296   2
  -3  -5   0 233.651 89.6805   3
  -3  -5  -1 33.1665 37.3717   7
   3   5   1-118.645 62.3990  15
   3   5   1-19.5203 61.8836  14
  -3  -5  -1 60.8318 54.7594   6
  -3  -5  -1 21.2152 49.1738   2
   3   5   1-64.3065 59.8242  11
   3   5   1-30.3898 38.4578   1
  -3  -5  -1 47.3089 58.9730   3
   3   5   1-35.7069 38.9348   9
  -3  -5  -2 1808.95 221.884   2
   3   5   2 1665.96 199.803   1
  -3  -5  -2 1865.48 186.471  16
   3   5   2 2063.93 235.218  15
   3   5   2 1614.06 211.312  14
  -3  -5  -2 1617.48 205.140   6
  -3  -5  -2 1543.19 205.452   3
   3   5   2 1611.45 224.813  11
   3  -5   3 76.2840 55.2357   8
   3  -5   3 23.6991 51.1596   1
  -3  -5  -3 55.5309 58.1128  16
   3   5   3 137.549 88.1469  15
  -3  -5  -3 337.723 127.007   2
   3  -5   3 219.812 114.931   4
   3   5   3 110.311 87.0658  14
  -3  -5  -3 211.011 95.0943   6
  -3   5  -3 84.0070 66.0730  13
  -3  -5  -3 114.851 71.2267   3
   3   5   3 159.329 77.8888  11
   3   5   3 171.655 80.2791   1
  -3   5  -3 73.0674 63.7729   2
   3  -5   3 54.0300 71.8026   5
  -3  -5  -4 48.2468 61.4901  16
  -3  -5  -4-56.4688 111.964   2
   3   5   4-9.83213 50.1226  15
   3  -5   4 100.825 80.4503   4
   3   5   4-17.4415 52.9508  14
   3   5   4 120.650 77.6341   1
   3  -5   4 5.58197 46.0651   1
  -3  -5  -4-89.9696 89.5386   6
  -3   5  -4 70.4900 73.2745  13
  -3  -5  -4-17.6412 55.7292   3
  -3   5  -4-31.8990 46.5404   2
   3   5   4-16.1905 41.5070  11
   3  -5   4-51.1366 64.4622   5
  -3  -5  -5 214.209 102.013  16
  -3   5  -5 28.6714 75.6815  16
   3  -5   5 415.572 158.177   4
   3   5   5 217.481 72.7154  15
   3  -5   5 103.177 91.6040  15
   3   5   5 125.396 65.7305  14
  -3   5  -5 152.247 66.7855   2
  -3  -5  -5 166.112 129.587   3
  -3   5  -5 121.754 86.5141  13
  -3   5  -5 31.0907 53.0921  12
   3   5   5 30.6198 40.8091  11
   3  -5   5 304.857 106.351   5
   3  -5   5 121.446 127.900   1
  -3   5  -6 500.737 157.447  16
   3  -5   6 799.893 224.405   4
   3  -5   6 820.744 173.972  15
  -3   5  -6 1028.59 206.820  13
   3  -5   6 385.682 165.273   1
  -3   5  -6 869.977 181.476  12
   3  -5   6 1135.98 221.286   5
  -3   5  -6 1090.89 234.759   2
   3  -5   7 39.3845 68.7343   4
  -3   5  -7-189.031 226.875   2
  -3   5  -7-1.36480 59.1091  16
   3  -5   7-27.2468 65.5174  15
  -3   5  -7 146.426 96.2436  13
  -3   5  -7 75.7293 84.8381  12
   3  -5   7 49.5592 72.8287   5
   3  -5   8 67.8572 79.9843   4
   3  -5   8-10.3002 60.7995  15
  -3   5  -8 154.176 111.167  13
  -3   5  -8 11.4863 54.8536  16
  -3   5  -8 19.6487 88.8141  12
  -3  -6   1 95.9749 67.3517   7
   3   6  -1 118.425 61.7314   1
  -3  -6   1 85.8151 79.8913   6
  -3  -6   1 131.977 68.9628   2
  -3  -6   1 54.0423 58.2647   3
  -3  -6   0 287.314 84.8200   7
   3   6   0 171.537 102.757  14
  -3  -6   0 303.821 115.398   6
  -3  -6   0 334.411 103.837   2
   3   6   0 208.253 77.5452   1
  -3  -6   0 346.750 110.933   3
   3   6   1 492.251 113.858   1
  -3  -6  -1 361.549 93.8015   7
   3   6   1 211.450 100.683  14
  -3  -6  -1 377.965 109.619   2
  -3  -6  -1 318.923 114.121   6
   3   6   1 397.754 123.656  11
  -3  -6  -1 168.982 97.3623   3
   3   6   1 232.149 77.0365   9
  -3  -6  -2 589.522 107.598  16
   3   6   2 732.353 141.808  15
  -3  -6  -2 805.700 165.594   2
   3   6   2 576.931 147.727  14
  -3  -6  -2 702.203 157.686   6
   3   6   2 689.007 137.862   1
   3   6   2 560.376 142.287  11
  -3  -6  -2 290.053 144.615   3
   3  -6   3 4.93224 71.3466   1
   3  -6   3 272.856 116.895   8
  -3  -6  -3-35.3169 104.840   2
  -3  -6  -3 4.25953 55.1111  16
   3   6   3 146.401 93.0529  15
   3  -6   3 10.2156 73.6314   4
   3   6   3 40.7710 75.0712  14
   3   6   3 53.9907 46.7535   1
  -3  -6  -3 0.91428 53.3849   6
  -3   6  -3 150.001 101.215  13
  -3  -6  -3-2.06799 58.4125   3
   3   6   3-1.96020 56.4598  11
  -3   6  -3-323.183 66.2765   2
   3  -6   3-4.11031 66.3292   5
  -3  -6  -4 208.233 89.2992  16
   3  -6   4 13.2681 58.7892   1
   3  -6   4 152.493 116.349   4
   3   6   4 273.628 101.184  15
   3   6   4 66.5770 63.9874  14
  -3  -6  -4 225.452 125.536   6
  -3   6  -4 103.313 87.9342  13
  -3  -6  -4 19.3707 81.8265   3
  -3   6  -4 134.162 73.0128   2
   3   6   4 183.366 82.0356  11
   3  -6   4 215.189 104.734   5
  -3  -6  -5-152.269 124.739  16
   3  -6   5 55.1190 71.4914   4
   3   6   5 73.6227 42.3517  15
  -3   6  -5 133.222 78.0828   2
  -3   6  -5-30.5098 76.6688  13
  -3   6  -5-92.6685 88.4109  12
   3   6   5 69.3740 53.2493  11
   3  -6   5 13.6101 57.3540   1
   3  -6   5 2.09065 68.8577   5
   3  -6   6 65.8711 103.485   4
  -3   6  -6 149.436 106.407   2
   3  -6   6-88.1410 84.8304  15
   3  -6   6 26.7604 47.6930   1
  -3   6  -6-52.5858 87.4576  13
  -3   6  -6 189.466 109.749  12
   3  -6   6 211.936 104.105   5
  -3   6  -6 33.0859 52.3325  16
   3  -6   7-84.5202 86.8338   4
   3  -6   7 74.3109 68.9268  15
  -3   6  -7-91.9137 88.0513  13
  -3   6  -7-103.730 95.8248  12
   3  -6   7 40.1044 75.3114   5
   3  -6   8-44.9518 92.5238   4
  -3   6  -8-102.570 92.1309  13
  -3   6  -8-52.3478 133.557  12
   3  -6   8-15.2825 75.7098   5
  -3  -7   1 234.625 90.5747   7
  -3  -7   1 185.301 104.887   6
  -3  -7   1 92.9462 96.8714   3
  -3  -7   0 50.4553 47.9914   7
   3   7   0-43.5816 72.6421  14
  -3  -7   0 161.413 100.199   6
   3   7   0-8.47324 55.7464  11
  -3  -7   0 1.73068 65.4630   3
   3   7   0-3.47339 46.5936   9
  -3  -7  -1 141.189 69.8941   7
  -3  -7  -1 17.6835 71.2866   2
   3   7   1 139.634 91.2509  14
  -3  -7  -1-42.6460 66.9714   6
   3   7   1 237.689 108.901  11
  -3  -7  -1 13.5969 54.4182   3
   3   7   1 57.1579 50.3009   9
  -3  -7  -2 343.731 172.362   8
  -3  -7  -2 460.949 110.531  16
   3   7   2 221.276 128.063  14
  -3  -7  -2 362.726 142.281   6
  -3  -7  -2 154.068 113.348   3
   3   7   2 282.358 108.340  11
   3   7   2 287.319 99.9475  10
  -3  -7  -3 421.893 117.086  16
   3   7   3 640.029 151.107  15
   3  -7   3 159.979 159.179   4
   3   7   3 364.599 134.193  14
  -3  -7  -3 187.399 107.128   6
  -3  -7  -3 170.676 126.736   3
   3   7   3 160.371 79.8201  11
   3  -7   3 537.512 194.473   5
  -3  -7  -4 590.959 161.732  16
   3  -7   4 280.645 136.700   4
   3   7   4 227.352 95.9552  15
   3   7   4 118.441 74.8093  14
  -3  -7  -4 168.069 138.611   6
  -3  -7  -4 151.979 153.811   3
  -3   7  -4 357.845 142.091  13
   3   7   4 350.155 107.182  11
   3  -7   4 485.928 169.321   5
   3  -7   5-56.1946 68.8308   4
  -3   7  -5-18.3964 61.6173  13
  -3   7  -5-82.8383 74.6077  12
   3  -7   5 103.601 74.9724   5
   3  -7   6 85.3816 95.1447   4
  -3   7  -6-86.9232 89.9585  13
  -3   7  -6-24.4629 72.2193  12
   3  -7   7-105.038 127.899   4
  -3   7  -7-13.1301 89.7918  13
  -3   7  -7 3.06892 65.3999  12
   3  -7   7-118.912 102.871   5
   3  -7   8 13.9997 72.2353   4
  -3   7  -8 2.45249 66.1225  13
  -3   7  -8-157.222 122.952  12
   3  -7   8 12.3751 77.0352   5
  -3  -8   1 824.611 169.965   7
  -3  -8   1 701.708 194.003   6
  -3  -8   1 305.883 164.217   3
   3   8  -1 622.290 173.471   9
  -3  -8   0 108.183 72.3292   7
   3   8   0 47.6277 103.751  14
  -3  -8   0 111.521 94.0351   6
   3   8   0-16.8024 55.5915  11
  -3  -8   0 56.1706 72.8158   3
   3   8   0 184.759 96.9313   9
  -3  -8  -1-45.6696 84.2259   8
  -3  -8  -1-69.0702 62.4319   7
   3   8   1-1.45790 65.0935  14
  -3  -8  -1 136.868 85.8420   6
  -3  -8  -1-57.1644 67.5864   3
   3   8   1-30.2487 68.5362  11
   3   8   1-72.1635 84.8059   9
  -3  -8  -2 232.517 192.830   8
   3   8   2 0.19231 101.726  14
  -3  -8  -2-12.0835 61.5021   6
  -3  -8  -2-0.72990 69.1504   3
   3   8   2-36.1241 65.6105  11
   3   8   2 9.74401 44.9067  10
   3   8   3 172.634 96.4225  14
  -3  -8  -3 167.078 121.939   6
  -3  -8  -3 16.0272 75.9788   3
   3   8   3 39.5659 55.2535  11
   3  -8   4 103.827 124.658   4
   3   8   4 36.5313 48.5242  14
  -3  -8  -4-119.701 133.745   6
   3   8   4 14.7280 37.9376  11
   3  -8   4-183.623 146.457   5
   3  -8   5-29.6394 101.516   4
  -3   8  -5 171.576 130.114  13
   3  -8   5-42.9239 109.856   5
   3  -8   6 21.6341 85.9832   4
  -3   8  -6 104.551 113.066  13
  -3   8  -6 29.4633 80.2704  12
   3  -8   6-7.51178 77.4712   5
   3  -8   7-14.9571 77.5267   4
  -3   8  -7-120.579 145.928  13
  -3   8  -7-173.865 149.415  12
   3  -8   7 82.6121 86.6177   5
  -3  -9   1 10.7598 62.3416   7
  -3  -9   1-1.34780 83.5756   6
  -3  -9   1 32.3286 115.341   3
   3   9  -1 68.9436 84.8788   9
  -3  -9   0 24.5048 63.9367   7
   3   9   0 0.21528 72.8439  14
  -3  -9   0 15.1989 70.3028   6
  -3  -9   0-60.4844 98.2522   3
   3   9   0 67.4928 85.3948  11
   3   9   0-199.157 102.358   9
  -3  -9  -1-167.452 140.223   8
   3   9   1 114.190 116.002  14
  -3  -9  -1-16.9131 75.5470   6
  -3  -9  -1 74.6825 91.9844   3
   3   9   1-83.5279 90.4590  11
   3   9   1-35.0476 61.4293   9
   3   9   2-84.8777 87.8940  14
  -3  -9  -2 63.4114 101.579   6
  -3  -9  -2 28.4533 63.3285   3
   3   9   2 92.1922 85.7606  11
   3   9   3 0.20325 82.4967  14
  -3  -9  -3 192.978 114.193   6
   3   9   3 113.570 82.9841  11
   3  -9   5-105.776 139.774   4
   3  -9   5 56.2777 124.713   5
  -3 -10   1-51.8608 63.5079   7
  -3 -10   1 3.26919 87.4183   6
  -3 -10   1-43.9804 67.7303   3
   3  10  -1-59.3138 93.6111   9
  -3 -10   0 251.442 118.477   7
   3  10   0 83.6948 116.778  14
  -3 -10   0 110.491 104.409   6
  -3 -10   0-156.119 131.452   3
   3  10   0-38.6032 126.336   9
  -3 -10  -1-395.896 255.914   8
   3  10   1-210.986 164.517  14
  -3 -10  -1-95.6264 107.504   6
  -3 -10  -1-146.756 121.811   3
   3  10   1-106.036 109.349  11
   3  10   2-86.5035 108.744  14
  -3 -10  -2-110.416 111.549   6
   3  10   2-77.0347 82.0964  11
   4   0   2 333.171 104.693   1
   4   0   2 489.114 128.700   4
  -4   0  -2 457.727 128.244   2
  -4   0  -2 428.223 105.205   3
  -4   0  -3 12.8978 45.5185  16
   4   0   3 0.14625 54.3070   1
   4   0   3-33.0731 53.2292   4
   4   0   3-97.5427 87.4243  15
   4   0   3-11.2430 60.0153  14
  -4   0  -3-225.207 108.273  13
  -4   0  -3 41.1293 55.6705   2
  -4   0  -3-23.8456 43.5433   3
  -4   0  -4 595.344 113.551  16
   4   0   4 596.264 167.568   4
   4   0   4 676.879 153.688  15
   4   0   4 835.468 160.957  14
  -4   0  -4 705.954 175.224  13
  -4   0  -4 570.264 149.157   2
   4   0   4 641.909 151.359   1
  -4   0  -4 712.729 153.631   3
   4   0   5-18.4179 51.7491   4
   4   0   5-23.1184 58.3741   1
  -4   0  -5-61.4929 54.5319  16
   4   0   5 54.4269 79.0713  15
   4   0   5-58.5668 70.1206  14
  -4   0  -5 39.2355 57.0141   2
  -4   0  -5-79.0861 50.9815  13
  -4   0  -5 29.6148 66.6021   3
   4   0   6 399.878 159.142   4
   4   0   6 615.526 188.855  15
  -4   0  -6 472.037 166.467   2
   4   0   6 699.855 155.687  14
  -4   0  -6 608.865 169.969  13
  -4   0  -6 580.361 163.696   3
   4   0   6 394.324 145.810   1
  -4   0  -7-53.3353 69.0279  16
  -4   0  -7-3.00166 95.3168   2
   4   0   7-49.6250 98.2206  15
   4   0   7 5.35247 80.8912  14
   4   0   7 59.8441 104.701   1
  -4   0  -7-41.9201 75.7654  13
  -4   0  -8 106.582 236.596   2
  -4   0  -8 148.003 159.003  16
   4   0   8 18.5994 73.9548  15
  -4   0  -8 156.643 265.289  13
   4   1   2 304.825 106.258   4
   4   1   2 290.228 104.820  15
  -4  -1  -2 336.968 111.708   2
   4   1   2 138.973 71.6744   1
  -4  -1  -2 211.724 78.8884   3
   4   1   3 20.4498 56.6913   1
  -4  -1  -3 12.5460 52.0345  16
  -4   1  -3-52.0985 58.2477  16
   4   1   3 69.1240 70.9363   4
   4  -1   3 13.5009 48.7708   4
   4   1   3-31.7353 57.7073  15
   4  -1   3-19.3755 62.3816  15
   4  -1   3 1.46512 43.5044   1
   4   1   3 37.1688 59.4708  14
  -4   1  -3 15.3552 56.7821  13
  -4  -1  -3-16.1921 40.2470  13
  -4  -1  -3 45.8413 53.5278   2
  -4   1  -3-22.6287 56.3240   2
  -4  -1  -3-15.6456 47.0904   3
  -4   1  -3 13.0536 54.6016   3
   4   1   4-75.2931 71.4948   4
  -4  -1  -4-22.8533 47.0422  16
  -4   1  -4-5.47719 51.7776  16
   4  -1   4 1.93825 59.8179   4
   4   1   4-53.3688 71.7327  15
   4  -1   4-85.7481 82.0402  15
   4   1   4 13.5442 51.6579  14
   4  -1   4 23.4970 60.9461  14
   4   1   4-50.8848 71.4936   1
  -4  -1  -4 63.6948 74.5613  13
  -4   1  -4-20.7242 71.5750  13
  -4  -1  -4 10.4829 63.6902   2
  -4   1  -4 41.2411 63.7608   2
  -4   1  -4-74.0162 59.3708   3
  -4  -1  -4-1.16665 42.9219   3
   4  -1   4 27.3432 55.7211   1
   4   1   5 64.1726 77.1492   1
   4   1   5 65.3852 72.9372   4
  -4  -1  -5-125.512 75.6336  16
   4  -1   5 54.8243 73.6154   4
  -4   1  -5-9.29238 63.0312  16
   4  -1   5 11.9950 62.2558   1
   4   1   5-174.728 111.958  15
   4  -1   5-78.8123 89.8671  15
   4   1   5 57.6642 80.1595  14
   4  -1   5 13.9120 58.4179  14
  -4  -1  -5 34.3524 64.6920   2
  -4  -1  -5 32.0619 61.1401  13
  -4   1  -5 54.8315 90.4513  13
  -4   1  -5-13.4775 60.4977   2
  -4   1  -5 71.1116 55.7365   3
  -4  -1  -5-50.3037 66.8778   3
   4   1   6 80.1863 68.5663   4
   4  -1   6-21.3678 73.8873   4
  -4  -1  -6 39.3956 60.9656  16
  -4   1  -6 16.3351 60.0295  16
   4   1   6 59.5955 100.648  15
   4  -1   6-36.9678 86.2405  15
  -4  -1  -6 30.8360 69.6414   2
  -4   1  -6 84.3736 92.7450   2
   4   1   6-43.0397 70.9786  14
   4  -1   6 261.578 113.131  14
  -4  -1  -6-129.711 93.9009  13
  -4   1  -6-59.0413 102.284  13
  -4  -1  -6 25.7736 66.3327   3
   4   1   6-58.2690 78.5662   1
   4  -1   6 19.3437 100.369   1
   4  -1   7 174.700 116.754   4
  -4  -1  -7 223.969 123.802  16
  -4   1  -7 15.3043 74.3183  16
  -4  -1  -7 136.912 98.9560   2
  -4   1  -7-89.9411 133.187   2
   4   1   7 237.411 129.101  15
   4  -1   7 266.927 128.928  15
   4   1   7 207.943 107.963  14
   4  -1   7 4.64549 57.7760  14
   4   1   7 197.606 107.995   1
  -4  -1  -7-47.8875 105.309  13
  -4   1  -7 42.5038 88.0092  13
   4  -1   7 33.2979 110.575   1
  -4   1  -8-259.370 355.748   2
  -4   1  -8 54.3363 91.5685  16
   4  -1   8-68.5491 130.418  15
  -4   1  -8 286.125 252.354  13
  -4  -2  -2 1.59712 36.2831  16
   4   2   2 25.4571 57.0785   4
   4   2   2 18.1707 56.4608  15
   4   2   2-35.8716 68.6257  14
  -4  -2  -2-17.8506 39.5621   6
   4   2   2-43.4020 46.8893   1
  -4  -2  -2-64.9054 84.5870   2
  -4  -2  -2-13.0746 40.9408   3
   4   2   3 156.571 85.9526   4
  -4  -2  -3-11.2237 41.9926  16
   4  -2   3-72.3829 78.2762   4
   4   2   3 64.4318 50.5376  15
   4   2   3 93.8245 80.5117  14
   4  -2   3 37.8518 58.6066   1
  -4   2  -3 127.116 94.5689  13
  -4  -2  -3 8.38135 52.6659   2
  -4  -2  -3 73.3134 69.1712   3
  -4   2  -3 32.7395 39.9882   3
  -4   2  -3-24.7933 71.4870   2
   4  -2   3-3.93324 38.8858   5
   4   2   3-25.4058 76.9516   1
   4   2   4 201.898 98.9047   4
  -4  -2  -4 227.247 79.7317  16
  -4   2  -4-26.9551 49.9741  16
   4  -2   4 146.849 101.025   4
   4   2   4 66.8188 68.6230  15
   4  -2   4 168.587 97.6360  15
   4   2   4 119.903 88.6294   1
   4   2   4 7.30490 62.2948  14
  -4   2  -4-7.70682 70.3543  13
  -4  -2  -4 214.017 94.7292  13
  -4  -2  -4 203.219 94.3806   2
  -4   2  -4 179.366 76.5484   3
  -4   2  -4 300.909 121.026   2
  -4  -2  -4 159.963 89.7696   3
   4  -2   4 193.081 79.4451   5
   4  -2   4 77.9740 103.163   1
   4   2   5 12.8211 62.3131   4
  -4  -2  -5 15.8973 53.8915  16
  -4   2  -5-7.33992 53.2971  16
   4  -2   5-80.0313 89.9448   4
   4   2   5-5.48413 81.8595  15
   4  -2   5-96.3206 91.5749  15
   4  -2   5-9.80505 71.7616   1
   4   2   5-36.1712 81.2138  14
  -4  -2  -5 40.1280 80.4231   2
  -4  -2  -5-57.6713 63.6116  13
  -4   2  -5 30.7589 69.0828  13
  -4   2  -5 18.5520 78.5420   2
  -4  -2  -5-48.9000 66.2664   3
   4   2   5-66.4662 67.3604   1
   4  -2   6 81.5526 96.8015   4
  -4  -2  -6 63.4396 70.4650  16
  -4   2  -6 6.30908 77.6306  16
  -4  -2  -6-155.860 119.204   2
   4   2   6 160.533 110.384  15
   4  -2   6 50.2450 72.5043  15
   4   2   6 56.7201 95.4447  14
  -4   2  -6 25.6353 100.026   2
  -4  -2  -6-15.4916 68.1026  13
  -4   2  -6 130.311 106.347  13
  -4  -2  -6 167.204 106.374   3
   4   2   6 85.3917 91.4526   1
   4  -2   6 6.61968 71.0044   1
   4  -2   7 96.7226 97.4975   4
  -4  -2  -7 45.6483 108.477   2
  -4  -2  -7-1.55454 99.9258  16
  -4   2  -7 26.4269 65.9001  16
  -4   2  -7-0.77156 79.7231   2
   4   2   7 198.218 120.404  15
   4  -2   7 210.173 116.981  15
   4   2   7-47.3277 91.0792   1
   4   2   7 66.8219 88.4966  14
  -4  -2  -7 55.9381 159.530  13
  -4   2  -7-54.7949 115.105  13
   4  -2   7 26.6962 130.149   1
  -4   2  -8-174.834 162.433   2
  -4   2  -8 14.9352 93.2482  16
   4  -2   8-101.467 108.781  15
  -4   2  -8-278.970 217.706  13
  -4  -3  -1 674.808 125.695   6
  -4  -3  -1 744.423 145.247   2
   4   3   1 716.467 165.634   1
   4   3   2-21.0780 70.0627   1
  -4  -3  -2 26.7203 38.3121  16
   4   3   2-0.27396 55.2844  15
   4   3   2-28.0759 71.6216  14
  -4  -3  -2-23.8789 42.1795   6
  -4  -3  -2-41.8442 56.3658   2
  -4  -3  -2 10.8207 41.7667   3
  -4  -3  -3 1090.39 164.339  16
   4   3   3 1011.85 182.374  15
   4  -3   3 587.785 197.046   4
  -4  -3  -3 1042.52 176.663   6
   4   3   3 694.451 181.535  14
  -4  -3  -3 339.975 170.648   3
   4  -3   3 212.315 182.576   1
  -4   3  -3 796.658 193.126  13
   4   3   3 1031.47 190.200   1
  -4  -3  -3 1003.25 187.865   2
  -4   3  -3 813.116 191.582   2
   4  -3   3 553.787 144.007   5
   4   3   4-75.2227 64.1548   1
  -4  -3  -4-4.55953 50.4624  16
   4  -3   4-4.96128 61.3795   4
   4   3   4 48.9944 87.2765  15
   4  -3   4-0.76037 58.3071  15
   4   3   4 0.15968 73.3186  14
  -4  -3  -4 139.599 96.2952   2
  -4   3  -4 11.6028 64.1485  13
  -4  -3  -4 48.5120 63.1052  13
  -4  -3  -4 81.6186 84.4687   3
  -4   3  -4 42.6449 68.7448   2
   4  -3   4 46.2085 63.1834   5
   4  -3   4 25.4987 74.8676   1
  -4  -3  -5 189.550 81.4148  16
  -4   3  -5 20.3799 62.3206  16
   4  -3   5 166.970 115.238   4
   4   3   5-44.6333 68.4237  15
   4  -3   5 84.6422 110.543   1
   4  -3   5 57.5599 78.6856  15
  -4  -3  -5 125.574 101.026   2
   4   3   5 46.8651 77.7763  14
  -4   3  -5 105.077 70.9539  13
  -4   3  -5 60.8747 94.2531   2
  -4  -3  -5 12.3545 62.5529   3
   4   3   5 179.484 104.199   1
   4  -3   5 191.192 100.163   5
   4  -3   6-85.4124 112.980   4
  -4  -3  -6 32.4459 84.4884  16
  -4   3  -6 6.78715 65.8193  16
  -4  -3  -6-110.810 118.801   2
   4   3   6-228.978 101.359  15
   4  -3   6-37.0641 66.8864  15
   4   3   6 73.8572 92.7082  14
  -4   3  -6-106.083 96.6345   2
   4   3   6 33.1994 56.4248   1
  -4   3  -6-94.2390 86.1467  13
  -4  -3  -6-10.2076 74.6249   3
   4  -3   6 59.4745 107.483   1
  -4  -3  -7 248.165 212.006   2
   4  -3   7 134.861 128.750   4
  -4  -3  -7 290.309 219.510  16
  -4   3  -7 43.1537 81.3085  16
  -4   3  -7 104.890 145.437   2
   4   3   7-58.3535 57.9041  15
   4  -3   7 147.929 108.121  15
   4   3   7-117.884 80.8788  14
   4  -3   7 68.7304 126.221   1
  -4   3  -7 81.0359 101.606  13
   4  -3   8 14.9576 63.1315   4
  -4   3  -8-100.043 191.932   2
   4  -3   8 230.499 124.094  15
  -4   3  -8 91.0607 124.258  13
   4   4   1 30.3965 65.6052   1
   4   4   1 78.8293 92.3509  14
  -4  -4  -1 10.9444 39.9531   6
  -4  -4  -1 33.5182 49.7005   2
  -4  -4  -1-10.1596 47.8812   3
   4   4   2 274.417 112.816  15
   4   4   2 340.758 130.813  14
  -4  -4  -2 314.905 92.9530   6
  -4  -4  -2 393.601 131.129   2
  -4  -4  -2 98.2610 89.0879   3
   4   4   2 268.390 114.283   1
  -4  -4  -3 110.097 74.1569  16
   4   4   3 246.763 113.967  15
   4   4   3 168.394 102.402   1
   4   4   3 108.553 85.1618  14
  -4  -4  -3 82.7153 68.0409   2
  -4  -4  -3 170.590 94.6800   6
  -4  -4  -3 0.45328 62.7486   3
  -4  -4  -4 122.474 61.6728  16
   4  -4   4 13.3103 67.9357   4
   4   4   4 275.861 123.977  15
  -4  -4  -4 205.137 108.885   2
   4   4   4 136.892 85.4411  14
  -4  -4  -4 287.301 121.122   6
  -4   4  -4 227.940 128.392  13
  -4  -4  -4 195.109 139.354   3
  -4   4  -4 135.478 99.9830   2
   4  -4   4 0.66865 81.3502   1
   4  -4   4 120.488 84.9291   5
   4   4   4 107.749 93.4733   1
  -4  -4  -5 208.102 107.914  16
   4  -4   5 82.9361 142.681   1
  -4   4  -5 17.2958 76.5929  16
   4  -4   5 32.9739 77.1078   4
  -4  -4  -5 269.170 146.408   2
   4   4   5 248.770 97.6547  15
   4  -4   5 129.337 88.0137  15
   4   4   5 161.768 95.7762  14
  -4   4  -5 155.949 125.609   2
   4   4   5 90.8900 82.9665   1
  -4   4  -5 127.019 77.4661  13
  -4  -4  -5 50.3638 86.1466   3
   4   4   5-79.1520 88.0210  11
   4  -4   5 138.910 88.4481   5
  -4  -4  -6 293.654 209.801   2
   4  -4   6 192.407 133.996   4
  -4  -4  -6-14.2156 74.4081  16
  -4   4  -6 8.14728 52.1213  16
   4   4   6 22.9802 54.5404  15
   4  -4   6 143.016 88.9940  15
   4   4   6-23.1816 44.8658   1
  -4   4  -6 198.107 136.550   2
   4   4   6 32.0220 63.7745  14
  -4  -4  -6 45.1623 96.5558   3
  -4   4  -6 46.6689 67.5650  13
   4  -4   6 54.6630 69.3643   5
   4  -4   6 13.5947 112.534   1
   4  -4   7-23.1922 79.5316   4
  -4   4  -7 9.15969 59.8757  16
  -4   4  -7 243.749 148.453   2
   4  -4   7 62.7904 99.9134  15
   4  -4   7 129.798 112.825   1
  -4   4  -7 45.2870 88.1799  13
   4  -4   7 66.8239 59.4117   5
   4  -4   8 49.4729 79.3836   4
  -4   4  -8-264.034 307.089   2
  -4   4  -8-39.7152 81.3031  16
   4  -4   8 5.71533 80.5029  15
  -4   4  -8-87.1763 97.0225  13
   4   5   1 54.9819 73.0089  14
  -4  -5  -1 194.673 98.6891   6
  -4  -5  -1-6.72259 68.4358   2
  -4  -5  -1 24.9304 72.9884   3
   4   5   1 111.995 81.5438   1
   4   5   2 733.196 170.774   1
   4   5   2 756.372 204.150  14
  -4  -5  -2 661.702 161.082   6
  -4  -5  -2 797.820 182.494   2
  -4  -5  -2 431.136 169.351   3
  -4  -5  -3-55.2149 71.1883  16
   4   5   3-41.8146 76.0237  15
   4   5   3 0.16744 74.9409  14
  -4  -5  -3-25.8663 66.3615   2
  -4  -5  -3-41.4836 62.5877   6
  -4  -5  -3-26.4313 71.9707   3
   4   5   3-91.3305 84.5519   1
  -4  -5  -4 46.9740 68.3874  16
   4  -5   4-68.8904 85.9040   4
  -4  -5  -4 28.3393 83.3728   2
   4   5   4-17.9951 65.8889  15
   4   5   4-24.3620 61.3129  14
  -4  -5  -4-21.2745 58.1539   6
  -4   5  -4 65.8587 72.9332  13
   4   5   4-14.5091 57.1968   1
  -4  -5  -4 3.46106 73.6717   3
  -4   5  -4 0.18549 70.1369   2
   4   5   4 34.9667 80.7760  11
   4  -5   4 59.7113 76.5552   5
   4  -5   5-52.6938 122.657   1
  -4  -5  -5 312.173 204.758   2
  -4  -5  -5 115.433 93.7028  16
   4  -5   5 2.66832 84.7105   4
   4   5   5-35.1141 56.0974  15
   4   5   5 69.4762 76.8045   1
   4   5   5-74.9243 73.1879  14
  -4   5  -5-87.9929 88.7178   2
  -4  -5  -5 2.24774 68.9263   3
  -4   5  -5-113.629 107.240  13
   4   5   5-73.7507 90.1933  11
   4  -5   5-95.6892 87.4894   5
   4  -5   6-37.3117 94.9694   4
   4   5   6-0.12754 58.7523  15
   4  -5   6 20.1558 85.0868  15
  -4   5  -6 45.3421 87.6264   2
   4   5   6 17.4994 52.3294  14
  -4   5  -6 81.7303 106.112  13
   4  -5   6-58.6721 97.2853   1
   4  -5   6-6.05591 63.9827   5
   4  -5   7-157.035 145.103   4
  -4   5  -7-3.02930 65.8968  16
  -4   5  -7-164.937 152.294   2
   4  -5   7 211.874 134.798  15
   4  -5   7-115.204 147.640   1
  -4   5  -7 59.2402 87.6445  13
   4  -5   7-235.116 116.725   5
   4  -5   8-39.1281 106.336   4
  -4   5  -8 1.27184 85.5127  16
   4  -5   8 218.547 142.667  15
  -4   5  -8-114.805 105.079  13
  -4   5  -8-354.335 598.693  12
   4   6   1-220.113 112.278   1
   4   6   1 10.2515 80.0005  14
  -4  -6  -1-144.368 94.4470   2
  -4  -6  -1 35.1641 50.4904   6
  -4  -6  -1 3.55397 63.7739   3
   4   6   2 171.984 114.820   1
   4   6   2-72.6733 102.650  14
  -4  -6  -2 120.130 89.7394   2
  -4  -6  -2 47.5184 59.4252   6
  -4  -6  -2-9.83920 82.7560   3
  -4  -6  -3-92.2790 97.9827  16
  -4  -6  -3 180.461 124.932   2
   4   6   3-107.501 118.948  15
   4   6   3-228.390 144.839  14
  -4  -6  -3 182.371 105.217   6
  -4  -6  -3 26.8946 53.3488   3
   4   6   3 91.9763 77.1923   1
  -4  -6  -4-58.2422 123.956   2
  -4  -6  -4 38.1522 88.6541  16
   4   6   4 101.780 81.3685  15
   4   6   4-114.701 95.5264  14
   4   6   4 37.0231 78.8339   1
  -4  -6  -4 76.7333 94.3554   6
  -4  -6  -4 16.4046 58.4922   3
   4   6   4-16.9462 71.1640  11
  -4  -6  -5-211.709 150.963  16
   4  -6   5 58.8230 132.324   4
   4   6   5-83.4565 71.9809  15
   4   6   5 24.0780 57.4192  14
  -4  -6  -5 21.8941 78.3191   3
  -4   6  -5 129.257 109.833  13
   4   6   5 21.2875 72.4611  11
   4  -6   5 113.359 98.2657   5
   4  -6   6-26.1033 106.362   4
   4   6   6-10.6076 43.9144  14
  -4   6  -6 166.496 141.371  13
   4  -6   6 32.2479 119.207   1
   4  -6   6 132.388 96.9384   5
   4  -6   7 23.8740 121.008   4
  -4   6  -7 104.270 109.214  13
   4  -6   7 101.657 82.6296   5
   4   7   1-66.9904 107.896  14
  -4  -7  -1 0.91196 64.7765   6
  -4  -7  -1 28.4074 57.9825   3
   4   7   2-74.3562 90.2608  14
  -4  -7  -2 38.6275 63.0636   6
  -4  -7  -2 0.95788 54.6101   3
  -4  -7  -3-215.327 138.793   2
  -4  -7  -3-17.3628 78.0296   6
  -4  -7  -3-18.0369 119.830   3
   4   7   3-86.5208 122.398  11
   4   7   4 308.650 277.496  15
   4   7   4-38.7520 140.444  11
   4  -7   5 415.943 247.668   4
   4   7   5-41.2774 71.8914  14
   4   8   1 170.142 141.592  14
  -4  -8  -1 117.119 80.7780   6
  -4  -8  -1-18.2126 116.917   3
   4   8   2 120.164 104.740  14
  -4  -8  -2 188.349 106.123   6
  -4  -8  -2 93.1846 111.679   3
   4   8   3 41.4252 79.1205  14
  -4  -8  -3-231.624 148.183   6
  -4  -8  -3 35.2718 120.472   3
   4   8   3-14.1855 67.8527  11
   5   0   4-4.29942 92.0698   1
  -5   0  -4 25.8221 78.4702   2
   5   0   5-81.8246 113.731   4
   5   0   5 2.96709 73.0607   1
  -5   0  -5 248.086 117.102  16
   5   0   5-126.629 98.7978  15
  -5   0  -5 245.973 134.338   2
  -5   0  -5-127.911 100.757   3
   5   0   6 156.278 145.430   4
  -5   0  -6-318.597 119.526  16
   5   0   6-12.7637 82.2548  15
  -5   0  -6-17.6578 97.5479   2
   5   0   6-50.8766 72.2391  14
  -5   0  -6-15.9020 115.548  13
   5   0   6 36.8387 85.7879   1
   5   1   4 221.620 128.231  15
   5   1   4-13.7021 104.845   1
  -5  -1  -4 103.175 79.6203   2
  -5  -1  -4 103.379 79.7370   3
   5   1   5-17.2428 104.023   1
   5   1   5 32.3510 92.3824   4
   5  -1   5 16.8367 68.6406   4
  -5  -1  -5 101.712 78.7851  16
   5  -1   5-14.9081 92.6268   1
   5  -1   5 34.8303 100.480  15
   5   1   5 203.230 151.371  14
  -5  -1  -5 150.602 125.838   2
  -5   1  -5 34.4747 73.5984   2
  -5  -1  -5-10.4416 69.9212   3
   5   1   6 186.307 131.635   4
   5  -1   6 62.6222 101.651   4
  -5  -1  -6 5.70313 81.5232  16
  -5   1  -6 39.3175 67.8098  16
   5   1   6-42.4561 84.3959  15
   5  -1   6 27.1645 87.6901  15
  -5  -1  -6 99.0776 110.855   2
  -5   1  -6-150.883 148.171   2
   5   1   6 146.478 88.8528  14
  -5  -1  -6 38.2900 107.992   3
  -5   1  -6 90.5904 122.729  13
  -5  -1  -6-151.187 105.668  13
   5   1   6-54.0063 81.6069   1
   5  -1   6 67.4185 113.738   1
   5   2   4-12.2963 81.5857  15
   5   2   4-40.6990 81.1421   1
   5   2   4-174.754 144.478  14
  -5  -2  -4 33.1305 70.6261   2
  -5  -2  -4 53.3363 85.1305   3
   5  -2   5-164.016 122.751   4
  -5  -2  -5-8.99868 58.9849  16
   5  -2   5-21.3209 84.1064   1
   5   2   5-7.74509 95.8357  15
  -5  -2  -5 5.67686 68.7410   2
   5   2   5-42.1129 131.240  14
  -5   2  -5-19.1451 80.1865   2
  -5  -2  -5-36.0727 88.6348   3
   5   2   5 32.1485 75.5656   1
   5  -2   6-108.348 103.567   4
  -5  -2  -6-172.363 112.428  16
  -5   2  -6-98.0551 67.6834  16
  -5  -2  -6-121.538 123.398   2
   5   2   6-222.169 148.873  15
   5  -2   6-161.093 144.713  15
   5   2   6-277.371 170.886  14
  -5   2  -6-234.935 156.896   2
  -5  -2  -6-76.9435 106.381   3
  -5   2  -6-28.1662 94.1201  13
   5   2   6 5.16260 90.8878   1
   5  -2   6 28.7004 106.417   1
   5   3   3-72.6124 107.909   1
   5   3   4 66.2818 90.0567   1
   5   3   4 110.386 106.180  15
   5   3   4-136.603 122.148  14
  -5  -3  -4 67.8405 79.5550   2
  -5  -3  -4-35.9638 56.6019   3
  -5  -3  -5-21.3752 81.2808  16
   5   3   5-87.3789 93.5784  15
  -5  -3  -5-37.9992 75.3936   2
   5   3   5 184.894 146.715  14
  -5  -3  -5-22.9256 81.3250   3
   5   3   5 260.766 156.454   1
   5   4   3-209.263 172.237   1
   5   4   3 31.9043 119.805  14
  -5  -4  -3 50.0597 66.9383   2
  -5  -4  -3-27.7855 71.3778   3
   5   4   4 66.5841 88.1564  15
  -5  -4  -4 132.186 118.965   2
   5   4   4 40.8501 97.0204  14
  -5  -4  -4 119.096 120.315   3
   5   4   4-72.4309 146.074   1
   5   5   3-265.493 191.151   1
   5   5   3-335.446 184.795  14
  -5  -5  -3-39.6145 80.5532   3
   0   0   0    0.00    0.00   0

TITL monoclinic in P2(1)/c
REM P2(1)/c (#14 in standard setting)
CELL 0.71073   5.028076  10.151810  13.361314  90.0000  97.9055  90.0000
ZERR    4.00   0.005736   0.006077   0.051178   0.0000   0.2168   0.0000
LATT  1
SYMM -x, y+1/2,-z+1/2
SFAC C H N O
UNIT 16.00 28.00 20.00 12.00
TREF
HKLF 4
END
;
_shelx_hkl_checksum              90943
_olex2_submission_special_instructions 'No special instructions were received'
_oxdiff_exptl_absorpt_empirical_details
;
Empirical correction (ABSPACK) includes:
- Absorption correction using spherical harmonics
- Frame scaling
;
_oxdiff_exptl_absorpt_empirical_full_max 9.023
_oxdiff_exptl_absorpt_empirical_full_min 0.542
loop_
_space_group_symop_operation_xyz
'x, y, z'
'-x, y+1/2, -z+1/2'
'-x, -y, -z'
'x, -y-1/2, z-1/2'
loop_
_atom_site_label
_atom_site_type_symbol
_atom_site_fract_x
_atom_site_fract_y
_atom_site_fract_z
_atom_site_U_iso_or_equiv
_atom_site_adp_type
_atom_site_occupancy
_atom_site_site_symmetry_order
_atom_site_calc_flag
_atom_site_refinement_flags_posn
_atom_site_refinement_flags_adp
_atom_site_refinement_flags_occupancy
_atom_site_disorder_assembly
_atom_site_disorder_group
C1 C 0.104(3) 0.7926(7) 0.5354(16) 0.087(14) Uani 1 1 d . . . . .
H1 H -0.040828 0.832219 0.495982 0.104 Uiso 1 1 calc R . . . .
C2 C 0.320(3) 0.8628(8) 0.5892(18) 0.076(15) Uani 1 1 d . . . . .
H2 H 0.338585 0.953765 0.593889 0.091 Uiso 1 1 calc R . . . .
C3 C 0.492(3) 0.7714(7) 0.6323(17) 0.116(15) Uani 1 1 d . . . . .
H3 H 0.657604 0.786659 0.671180 0.139 Uiso 1 1 calc R . . . .
C4 C 0.479(3) 0.5252(7) 0.6297(19) 0.080(18) Uani 1 1 d . . . . .
N1 N 0.376(2) 0.6504(5) 0.6075(16) 0.120(16) Uani 1 1 d . . . . .
N2 N 0.1322(19) 0.6642(5) 0.5475(13) 0.093(12) Uani 1 1 d . . . . .
N3 N 0.334(2) 0.4248(6) 0.5915(16) 0.127(16) Uani 1 1 d . . . . .
H3A H 0.393602 0.345741 0.601675 0.152 Uiso 1 1 calc R . . . .
H3B H 0.180280 0.438127 0.556299 0.152 Uiso 1 1 calc R . . . .
N4 N 0.711(2) 0.5115(6) 0.6828(12) 0.092(13) Uani 1 1 d . . . . .
H4A H 0.776937 0.434071 0.694750 0.110 Uiso 1 1 calc R . . . .
H4B H 0.799151 0.579725 0.706518 0.110 Uiso 1 1 calc R . . . .
N5 N 0.246(2) 0.6470(7) 0.8289(14) 0.076(15) Uani 1 1 d . . . . .
O1 O 0.4900(15) 0.6739(4) 0.8551(10) 0.096(11) Uani 1 1 d . . . . .
O2 O 0.1661(19) 0.5325(5) 0.8283(13) 0.125(15) Uani 1 1 d . . . . .
O3 O 0.0833(19) 0.7380(5) 0.7953(12) 0.127(14) Uani 1 1 d . . . . .
loop_
_atom_site_aniso_label
_atom_site_aniso_U_11
_atom_site_aniso_U_22
_atom_site_aniso_U_33
_atom_site_aniso_U_23
_atom_site_aniso_U_13
_atom_site_aniso_U_12
C1 0.090(12) 0.049(5) 0.11(3) -0.005(7) -0.017(19) 0.008(5)
C2 0.072(12) 0.051(5) 0.11(4) -0.009(7) 0.026(19) -0.007(5)
C3 0.085(12) 0.047(5) 0.20(4) -0.018(8) -0.035(19) 0.000(5)
C4 0.061(12) 0.039(5) 0.14(4) 0.003(8) 0.01(2) -0.006(5)
N1 0.071(11) 0.038(5) 0.23(4) -0.003(6) -0.038(19) -0.001(4)
N2 0.070(8) 0.049(4) 0.15(3) -0.011(5) -0.021(14) 0.004(3)
N3 0.086(12) 0.042(4) 0.24(4) 0.010(6) -0.034(19) 0.001(4)
N4 0.072(10) 0.062(5) 0.13(3) 0.004(6) -0.027(16) 0.001(4)
N5 0.086(12) 0.052(5) 0.08(4) -0.008(6) -0.012(18) -0.003(4)
O1 0.059(7) 0.058(4) 0.16(3) -0.012(5) -0.016(13) -0.005(3)
O2 0.097(11) 0.050(4) 0.21(3) -0.002(5) -0.034(19) -0.014(4)
O3 0.084(9) 0.063(4) 0.22(3) 0.016(5) -0.031(17) 0.007(3)
loop_
_atom_type_symbol
_atom_type_description
_atom_type_scat_dispersion_real
_atom_type_scat_dispersion_imag
_atom_type_scat_source
C C 0.0033 0.0016 'International Tables Vol C Tables 4.2.6.8 and 6.1.1.4'
H H 0.0000 0.0000 'International Tables Vol C Tables 4.2.6.8 and 6.1.1.4'
N N 0.0061 0.0033 'International Tables Vol C Tables 4.2.6.8 and 6.1.1.4'
O O 0.0106 0.0060 'International Tables Vol C Tables 4.2.6.8 and 6.1.1.4'
loop_
_geom_angle_atom_site_label_1
_geom_angle_atom_site_label_2
_geom_angle_atom_site_label_3
_geom_angle
_geom_angle_site_symmetry_1
_geom_angle_site_symmetry_3
_geom_angle_publ_flag
N2 C1 C2 112.1(7) . . ?
C3 C2 C1 106.0(7) . . ?
C2 C3 N1 106.5(8) . . ?
N3 C4 N1 117.1(8) . . ?
N4 C4 N1 120.0(7) . . ?
N4 C4 N3 122.9(7) . . ?
C3 N1 C4 129.0(8) . . ?
N2 N1 C3 111.3(7) . . ?
N2 N1 C4 119.6(6) . . ?
C1 N2 N1 104.1(6) . . ?
O1 N5 O3 119.6(7) . . ?
O2 N5 O1 120.8(7) . . ?
O2 N5 O3 119.3(8) . . ?
loop_
_geom_bond_atom_site_label_1
_geom_bond_atom_site_label_2
_geom_bond_distance
_geom_bond_site_symmetry_2
_geom_bond_publ_flag
C1 C2 1.408(12) . ?
C1 N2 1.319(9) . ?
C2 C3 1.346(12) . ?
C3 N1 1.381(9) . ?
C4 N1 1.390(10) . ?
C4 N3 1.315(10) . ?
C4 N4 1.283(10) . ?
N1 N2 1.377(10) . ?
N5 O1 1.258(11) . ?
N5 O2 1.229(9) . ?
N5 O3 1.274(8) . ?
