#------------------------------------------------------------------------------
#$Date: 2018-01-26 09:54:21 +0200 (Fri, 26 Jan 2018) $
#$Revision: 205697 $
#$URL: file:///home/coder/svn-repositories/cod/cif/2/10/81/2108199.cif $
#------------------------------------------------------------------------------
#
# This file is available in the Crystallography Open Database (COD),
# http://www.crystallography.net/. The original data for this entry
# were provided by IUCr Journals, http://journals.iucr.org/.
#
# The file may be used within the scientific community so long as
# proper attribution is given to the journal article from which the
# data were obtained.
#
data_2108199
loop_
_publ_author_name
'Budesinsky, Milos'
'Cisarova, Ivana'
'Borremans, Frans'
'Martins, Jose C.'
'Pauwels, Ewald'
_publ_section_title
;
 Solid-state structure of cyclic dipeptides: an X-ray and computational
 study of <i>cis-</i> and <i>trans</i>-diketopiperazines of
 <i>N</i>-methyl-phenylalanine with the thia-pipecolic acids and
 thia-prolines
;
_journal_issue                   6
_journal_name_full               'Acta Crystallographica Section B'
_journal_page_first              1179
_journal_page_last               1193
_journal_paper_doi               10.1107/S2052520617014731
_journal_volume                  73
_journal_year                    2017
_chemical_absolute_configuration syn
_chemical_compound_source        'synthesized by the authors'
_chemical_formula_moiety         'C15 H18 N2 O2 S'
_chemical_formula_sum            'C15 H18 N2 O2 S'
_chemical_formula_weight         290.37
_space_group_crystal_system      triclinic
_space_group_IT_number           1
_space_group_name_Hall           'P 1'
_space_group_name_H-M_alt        'P 1'
_symmetry_space_group_name_Hall  'P 1'
_symmetry_space_group_name_H-M   'P 1'
_atom_sites_solution_hydrogens   geom
_atom_sites_solution_secondary   difmap
_audit_creation_method           SHELXL-2014/7
_cell_angle_alpha                79.6877(12)
_cell_angle_beta                 89.2981(14)
_cell_angle_gamma                69.3688(12)
_cell_formula_units_Z            2
_cell_length_a                   7.45360(10)
_cell_length_b                   7.4603(2)
_cell_length_c                   13.6011(3)
_cell_measurement_reflns_used    11838
_cell_measurement_temperature    150(2)
_cell_measurement_theta_max      27.5
_cell_measurement_theta_min      1
_cell_volume                     695.31(3)
_computing_cell_refinement       'COLLECT and DENZO'
_computing_data_collection
'COLLECT (Hooft, 1998) and DENZO (Otwinowski & Minor, 1997)'
_computing_data_reduction        'COLLECT and DENZO'
_computing_structure_refinement  'SHELXL-2014/7 (Sheldrick, 2014)'
_computing_structure_solution    'SIR92 (Altomare et al., 1994)'
_diffrn_ambient_temperature      150(2)
_diffrn_measured_fraction_theta_full 0.997
_diffrn_measured_fraction_theta_max 0.996
_diffrn_measurement_device_type  'Nonius KappaCCD area detector'
_diffrn_measurement_method       '\f and \w scans to fill the Ewald sphere'
_diffrn_radiation_type           MoK\a
_diffrn_radiation_wavelength     0.7107
_diffrn_reflns_av_R_equivalents  0.031
_diffrn_reflns_av_unetI/netI     0.0323
_diffrn_reflns_Laue_measured_fraction_full 0.997
_diffrn_reflns_Laue_measured_fraction_max 0.996
_diffrn_reflns_limit_h_max       9
_diffrn_reflns_limit_h_min       -9
_diffrn_reflns_limit_k_max       9
_diffrn_reflns_limit_k_min       -9
_diffrn_reflns_limit_l_max       17
_diffrn_reflns_limit_l_min       -17
_diffrn_reflns_number            17028
_diffrn_reflns_point_group_measured_fraction_full 0.993
_diffrn_reflns_point_group_measured_fraction_max 0.985
_diffrn_reflns_theta_full        25.241
_diffrn_reflns_theta_max         27.420
_diffrn_reflns_theta_min         2.970
_diffrn_source                   'fine-focus sealed tube'
_exptl_absorpt_coefficient_mu    0.236
_exptl_absorpt_correction_type   none
_exptl_crystal_colour            colourless
_exptl_crystal_density_diffrn    1.387
_exptl_crystal_description       plate
_exptl_crystal_F_000             308
_exptl_crystal_size_max          0.45
_exptl_crystal_size_mid          0.32
_exptl_crystal_size_min          0.2
_refine_diff_density_max         0.218
_refine_diff_density_min         -0.202
_refine_diff_density_rms         0.044
_refine_ls_abs_structure_details
;
 Flack x determined using 2865 quotients [(I+)-(I-)]/[(I+)+(I-)]
 (Parsons, Flack and Wagner, Acta Cryst. B69 (2013) 249-259).
;
_refine_ls_abs_structure_Flack   0.022(19)
_refine_ls_extinction_method     none
_refine_ls_goodness_of_fit_ref   1.040
_refine_ls_hydrogen_treatment    constr
_refine_ls_matrix_type           full
_refine_ls_number_parameters     363
_refine_ls_number_reflns         6242
_refine_ls_number_restraints     3
_refine_ls_restrained_S_all      1.040
_refine_ls_R_factor_all          0.0309
_refine_ls_R_factor_gt           0.0289
_refine_ls_shift/su_max          0.000
_refine_ls_shift/su_mean         0.000
_refine_ls_structure_factor_coef Fsqd
_refine_ls_weighting_details
'w=1/[\s^2^(Fo^2^)+(0.0468P)^2^+0.0971P] where P=(Fo^2^+2Fc^2^)/3'
_refine_ls_weighting_scheme      calc
_refine_ls_wR_factor_gt          0.0770
_refine_ls_wR_factor_ref         0.0785
_reflns_Friedel_coverage         0.978
_reflns_Friedel_fraction_full    0.990
_reflns_Friedel_fraction_max     0.975
_reflns_number_gt                6027
_reflns_number_total             6242
_reflns_threshold_expression     'I > 2\s(I)'
_cod_data_source_file            dk5056sup1.cif
_cod_data_source_block           8a
_cod_database_code               2108199
_shelx_shelxl_version_number     2014/7
_shelx_space_group_comment
;
The symmetry employed for this shelxl refinement is uniquely defined
by the following loop, which should always be used as a source of
symmetry information in preference to the above space-group names.
They are only intended as comments.
;
_shelx_res_file
;

    8a.res created by SHELXL-2014/7

TITL Compound X
CELL  0.7107   7.4536   7.4603  13.6011  79.6877  89.2981  69.3688
ZERR    2  0.0001  0.0002  0.0003  0.0012  0.0014  0.0012
LATT -1
SFAC  C   H   N   O   S
UNIT   30   36   4   4   2
LIST 4
OMIT 0 0 1
OMIT 0 0 -1
OMIT 0 1 0
OMIT -1 0 0
OMIT 1 0 0
OMIT 0 1 1
ACTA
BOND $H
EQIV $1 x,-1+y,z
HTAB C3 O22
HTAB C11 O5_$1
EQIV $2 1+x,y,z
HTAB C17 O2_$2
HTAB C211 O25_$2
HTAB C23 O2
HTAB C213 O22_$1
HTAB
FMAP 2
WPDB -1
PLAN -20
L.S.  6
WGHT    0.046800    0.097100
FVAR       1.18849
N1    3    0.187618    0.287414    0.040037    11.00000    0.01745    0.02083 =
         0.01501   -0.00484    0.00082   -0.00722
C2    1    0.225935    0.152160   -0.018699    11.00000    0.01818    0.02061 =
         0.01566   -0.00325   -0.00004   -0.00667
O2    4    0.124260    0.055759   -0.025130    11.00000    0.02710    0.03703 =
         0.02983   -0.01497    0.00679   -0.01959
C3    1    0.398748    0.122347   -0.082007    11.00000    0.01980    0.01866 =
         0.01578   -0.00569    0.00140   -0.00933
AFIX  13
H3    2    0.351832    0.136777   -0.151025    11.00000   -1.20000
AFIX   0
N4    3    0.490249    0.266869   -0.083000    11.00000    0.01791    0.01785 =
         0.01788   -0.00154    0.00357   -0.00759
C4    1    0.632365    0.270598   -0.157872    11.00000    0.02264    0.02404 =
         0.02340   -0.00073    0.00725   -0.00670
AFIX 137
H4A   2    0.634002    0.400442   -0.175787    11.00000   -1.50000
H4B   2    0.599213    0.230749   -0.216277    11.00000   -1.50000
H4C   2    0.757054    0.183048   -0.130638    11.00000   -1.50000
AFIX   0
C5    1    0.478225    0.368923   -0.009766    11.00000    0.01766    0.01453 =
         0.02246   -0.00184   -0.00102   -0.00366
O5    4    0.582491    0.463044   -0.002667    11.00000    0.03096    0.02516 =
         0.03822   -0.00894    0.00423   -0.01753
C6    1    0.323173    0.376976    0.064605    11.00000    0.01942    0.01531 =
         0.01973   -0.00520   -0.00107   -0.00518
AFIX  13
H6    2    0.248250    0.515373    0.062052    11.00000   -1.20000
AFIX   0
C7    1    0.410557    0.294644    0.172509    11.00000    0.02414    0.01992 =
         0.02079   -0.00527   -0.00402   -0.00676
AFIX  23
H7A   2    0.485996    0.157055    0.178489    11.00000   -1.20000
H7B   2    0.496088    0.360393    0.186618    11.00000   -1.20000
AFIX   0
C8    1    0.257172    0.320234    0.249323    11.00000    0.03217    0.02731 =
         0.01928   -0.00815   -0.00142   -0.00863
AFIX  23
H8A   2    0.185896    0.458231    0.245501    11.00000   -1.20000
H8B   2    0.318985    0.268059    0.315879    11.00000   -1.20000
AFIX   0
S9    5    0.091012    0.199007    0.229999    11.00000    0.02924    0.03593 =
         0.01742   -0.00578    0.00479   -0.01322
C10   1    0.021620    0.320062    0.101452    11.00000    0.01816    0.02841 =
         0.02102   -0.00789    0.00302   -0.00573
AFIX  23
H10A  2   -0.068642    0.271581    0.074660    11.00000   -1.20000
H10B  2   -0.042126    0.458912    0.098958    11.00000   -1.20000
AFIX   0
C11   1    0.542953   -0.088859   -0.052496    11.00000    0.02516    0.01688 =
         0.02078   -0.00671    0.00417   -0.00757
AFIX  23
H11A  2    0.476972   -0.178119   -0.058086    11.00000   -1.20000
H11B  2    0.643543   -0.109466   -0.099734    11.00000   -1.20000
AFIX   0
C12   1    0.634005   -0.137617    0.051787    11.00000    0.02020    0.01205 =
         0.02464   -0.00498    0.00316   -0.00308
C13   1    0.554078   -0.219829    0.132504    11.00000    0.02140    0.01888 =
         0.02680   -0.00509    0.00305   -0.00742
AFIX  43
H13   2    0.442401   -0.244182    0.122035    11.00000   -1.20000
AFIX   0
C14   1    0.639236   -0.266131    0.228818    11.00000    0.03164    0.02235 =
         0.02360   -0.00051    0.00486   -0.00522
AFIX  43
H14   2    0.585012   -0.322319    0.281941    11.00000   -1.20000
AFIX   0
C15   1    0.804379   -0.228694    0.245626    11.00000    0.03278    0.02162 =
         0.02380   -0.00139   -0.00750   -0.00223
AFIX  43
H15   2    0.861176   -0.258933    0.309875    11.00000   -1.20000
AFIX   0
C16   1    0.884336   -0.145512    0.165543    11.00000    0.02299    0.02252 =
         0.03814   -0.00352   -0.00507   -0.00785
AFIX  43
H16   2    0.994928   -0.119493    0.176385    11.00000   -1.20000
AFIX   0
C17   1    0.800843   -0.101096    0.069860    11.00000    0.02162    0.01828 =
         0.03046    0.00009    0.00204   -0.00752
AFIX  43
H17   2    0.856417   -0.046237    0.016879    11.00000   -1.20000
AFIX   0
N21   3   -0.132768    0.154957   -0.358994    11.00000    0.02022    0.01651 =
         0.01646   -0.00156   -0.00037   -0.00545
C22   1    0.029457    0.090745   -0.300473    11.00000    0.02151    0.01810 =
         0.01590   -0.00410    0.00180   -0.00718
O22   4    0.128200    0.190528   -0.294084    11.00000    0.03355    0.02484 =
         0.02967   -0.00125   -0.00561   -0.01733
C23   1    0.090489   -0.111304   -0.236586    11.00000    0.01762    0.01953 =
         0.01419   -0.00138   -0.00172   -0.00710
AFIX  13
H23   2    0.108753   -0.096156   -0.167723    11.00000   -1.20000
AFIX   0
N24   3   -0.052796   -0.204598   -0.235050    11.00000    0.01856    0.01678 =
         0.01755    0.00053    0.00105   -0.00696
C24   1   -0.018825   -0.382299   -0.160219    11.00000    0.02529    0.01948 =
         0.02320    0.00265    0.00282   -0.00585
AFIX 137
H24A  2   -0.139566   -0.393868   -0.141800    11.00000   -1.50000
H24B  2    0.048820   -0.376002   -0.102075    11.00000   -1.50000
H24C  2    0.056543   -0.493530   -0.187724    11.00000   -1.50000
AFIX   0
C25   1   -0.190306   -0.159554   -0.307847    11.00000    0.01504    0.02163 =
         0.02180   -0.00602    0.00369   -0.00540
O25   4   -0.287264   -0.260540   -0.314025    11.00000    0.02297    0.03170 =
         0.03706   -0.00364   -0.00003   -0.01619
C26   1   -0.233758    0.030278   -0.382749    11.00000    0.01348    0.02248 =
         0.01899   -0.00393   -0.00043   -0.00519
AFIX  13
H26   2   -0.371131    0.103829   -0.380297    11.00000   -1.20000
AFIX   0
C27   1   -0.201988   -0.008972   -0.490181    11.00000    0.01842    0.02633 =
         0.01919   -0.00688   -0.00002   -0.00737
AFIX  23
H27A  2   -0.067078   -0.081923   -0.495882    11.00000   -1.20000
H27B  2   -0.274403   -0.088362   -0.503484    11.00000   -1.20000
AFIX   0
C28   1   -0.263675    0.179353   -0.568572    11.00000    0.02432    0.03448 =
         0.01615   -0.00343   -0.00131   -0.00782
AFIX  23
H28A  2   -0.400199    0.248713   -0.565421    11.00000   -1.20000
H28B  2   -0.241556    0.146893   -0.634697    11.00000   -1.20000
AFIX   0
S29   5   -0.134491    0.337263   -0.550117    11.00000    0.03215    0.02735 =
         0.01818    0.00206   -0.00008   -0.00988
C210  1   -0.195440    0.348792   -0.421368    11.00000    0.02756    0.01769 =
         0.02131   -0.00120    0.00083   -0.00447
AFIX  23
H21A  2   -0.134981    0.427729   -0.395327    11.00000   -1.20000
H21B  2   -0.333327    0.410695   -0.418903    11.00000   -1.20000
AFIX   0
C211  1    0.288247   -0.241015   -0.266546    11.00000    0.01666    0.02382 =
         0.02195   -0.00028   -0.00252   -0.00532
AFIX  23
H21C  2    0.380717   -0.178865   -0.259704    11.00000   -1.20000
H21D  2    0.330361   -0.365065   -0.220413    11.00000   -1.20000
AFIX   0
C212  1    0.287480   -0.278244   -0.371386    11.00000    0.01192    0.02141 =
         0.02146   -0.00379    0.00062   -0.00269
C213  1    0.243531   -0.434454   -0.392650    11.00000    0.01966    0.02070 =
         0.03437   -0.00695    0.00656   -0.00580
AFIX  43
H213  2    0.216572   -0.519349   -0.340815    11.00000   -1.20000
AFIX   0
C214  1    0.239428   -0.465195   -0.490591    11.00000    0.02309    0.03119 =
         0.04532   -0.02056    0.00605   -0.00971
AFIX  43
H214  2    0.208528   -0.569248   -0.503807    11.00000   -1.20000
AFIX   0
C215  1    0.281135   -0.341487   -0.567848    11.00000    0.02403    0.04312 =
         0.02910   -0.01816    0.00392   -0.00981
AFIX  43
H215  2    0.279377   -0.362686   -0.633102    11.00000   -1.20000
AFIX   0
C216  1    0.325769   -0.185239   -0.548257    11.00000    0.02373    0.03440 =
         0.02396   -0.00514    0.00376   -0.00955
AFIX  43
H216  2    0.353870   -0.101523   -0.600279    11.00000   -1.20000
AFIX   0
C217  1    0.328269   -0.154553   -0.450851    11.00000    0.01827    0.02298 =
         0.02585   -0.00493    0.00085   -0.00802
AFIX  43
H217  2    0.357750   -0.049324   -0.438214    11.00000   -1.20000
AFIX   0
HKLF 4

REM  Compound X
REM R1 =  0.0289 for    6027 Fo > 4sig(Fo)  and  0.0309 for all    6242 data
REM    363 parameters refined using      3 restraints

END

WGHT      0.0370      0.1282

REM Instructions for potential hydrogen bonds
HTAB C3 O22
EQIV $3 x-1, y, z
HTAB C10 O5_$3
HTAB C11 O5_$1
HTAB C23 O2
EQIV $4 x, y+1, z
HTAB C210 O25_$4
HTAB C211 O25_$2

REM Highest difference peak  0.218,  deepest hole -0.202,  1-sigma level  0.044
Q1    1   0.7365 -0.1570  0.0618  11.00000  0.05    0.22
Q2    1   0.7066 -0.2003  0.2453  11.00000  0.05    0.20
Q3    1   0.2618 -0.2604 -0.5632  11.00000  0.05    0.17
Q4    1   0.7674  0.4910 -0.1597  11.00000  0.05    0.17
Q5    1   0.4932  0.3654 -0.2438  11.00000  0.05    0.16
Q6    1   0.2940 -0.3585 -0.3802  11.00000  0.05    0.16
Q7    1   0.3487 -0.0215 -0.5861  11.00000  0.05    0.16
Q8    1   0.9395 -0.3004 -0.0775  11.00000  0.05    0.16
Q9    1   0.8277 -0.1679  0.2140  11.00000  0.05    0.15
Q10   1   0.2899 -0.1601 -0.5034  11.00000  0.05    0.15
Q11   1   0.2049 -0.3648 -0.5359  11.00000  0.05    0.15
Q12   1   0.9642 -0.1827 -0.0195  11.00000  0.05    0.15
Q13   1   0.4883  0.2333 -0.2274  11.00000  0.05    0.15
Q14   1  -0.0776  0.3251  0.3185  11.00000  0.05    0.14
Q15   1   0.2815 -0.2633 -0.3223  11.00000  0.05    0.14
Q16   1   0.3700  0.3334  0.1195  11.00000  0.05    0.14
Q17   1   0.5848 -0.2128  0.1973  11.00000  0.05    0.14
Q18   1   0.3133  0.1474 -0.0536  11.00000  0.05    0.14
Q19   1   0.2989 -0.2181 -0.4030  11.00000  0.05    0.14
Q20   1   0.6122 -0.1947  0.0825  11.00000  0.05    0.14
;
_shelx_res_checksum              65232
_shelx_hkl_file
;
  -9  -6  -4    6.20    2.59   1
  -9  -6  -3   26.21    3.48   1
  -9  -6  -2    6.30    2.31   1
  -9  -6  -1   53.88    3.67   1
  -9  -6   0   30.25    2.97   1
  -9  -6   1   33.06    3.33   1
  -9  -5  -5   55.06    6.83   1
  -9  -5  -4   54.32    5.60   1
  -9  -5  -3   22.75    3.72   1
  -9  -5  -2   31.58    2.25   1
  -9  -5  -1   38.56    2.98   1
  -9  -5   0   21.62    2.42   1
  -9  -5   1   47.06    3.43   1
  -9  -5   2   26.63    2.58   1
  -9  -5   3   49.28    3.93   1
  -9  -5   4   53.58    3.95   1
  -9  -4  -1   18.66    3.28   1
  -9  -4   0   73.10    6.16   1
  -9  -4   1   78.68    7.10   1
  -9  -4   2  201.92   15.35   1
  -9  -4   3  102.82   10.14   1
  -9  -4   4   50.13    8.64   1
  -9  -4   5    7.62    2.70   1
  -9  -3  -6   63.04    5.88   1
  -9  -3  -5   17.72    3.54   1
  -9  -3  -4  104.65    8.80   1
  -9  -3  -3   22.94    3.16   1
  -9  -3  -2   12.60    2.27   1
  -9  -3  -1  121.22    9.69   1
  -9  -3   0   54.17    5.30   1
  -9  -3   1   81.54   13.91   1
  -9  -3   2   12.11    2.58   1
  -9  -3   3   45.97    4.34   1
  -9  -3   4   26.32    3.59   1
  -9  -3   5   62.73    6.34   1
  -9  -3   6   57.76    5.78   1
  -9  -2  -5   72.08    6.45   1
  -9  -2  -4   73.79    6.70   1
  -9  -2  -3   88.55    6.21   1
  -9  -2  -2   13.76    2.52   1
  -9  -2  -1    6.92   11.52   1
  -9  -2   0   84.82    4.79   1
  -9  -2   1   39.44    2.76   1
  -9  -2   2    8.18    2.57   1
  -9  -2   3   45.83    4.06   1
  -9  -2   4   55.50    5.07   1
  -9  -2   5   70.73    5.55   1
  -9  -2   6   20.34    3.43   1
  -9  -1  -4   10.89    2.71   1
  -9  -1  -3   73.79    6.36   1
  -9  -1  -2    6.50    2.81   1
  -9  -1  -1    1.49    2.10   1
  -9  -1   0   42.25    4.94   1
  -9  -1   1   80.28    4.84   1
  -9  -1   2   28.52    2.46   1
  -9  -1   3   79.03    4.62   1
  -9  -1   4   79.57    6.42   1
  -9  -1   5  166.41   13.67   1
  -9   0   0   25.60    5.26   1
  -9   0   1   15.92    3.19   1
  -9   0   2   46.79    3.28   1
  -8  -7  -7   16.08    3.13   1
  -8  -7  -6    5.90    2.72   1
  -8  -7  -5   50.55    4.98   1
  -8  -7  -4    4.58    4.19   1
  -8  -7  -3   49.84    5.37   1
  -8  -7  -2   49.84    5.65   1
  -8  -7  -1   12.39    2.18   1
  -8  -7   0   75.17    4.51   1
  -8  -7   1   52.56    3.19   1
  -8  -7   2   20.43    2.71   1
  -8  -7   3    0.20    1.81   1
  -8  -6  -8   28.52    4.06   1
  -8  -6  -7   29.70    4.14   1
  -8  -6  -6   40.20    4.06   1
  -8  -6  -5   23.43    3.29   1
  -8  -6  -4   41.99    4.28   1
  -8  -6  -3   89.11    6.99   1
  -8  -6  -2   68.72    5.14   1
  -8  -6  -1   60.06    4.80   1
  -8  -6   0   71.23    4.05   1
  -8  -6   1   61.15    3.91   1
  -8  -6   2   -0.50    1.51   1
  -8  -6   3   18.84    3.04   1
  -8  -6   4   76.04    5.06   1
  -8  -6   5   38.94    3.74   1
  -8  -6   6   45.56    3.11   1
  -8  -5  -9   62.73    6.49   1
  -8  -5  -8   18.32    3.08   1
  -8  -5  -7    7.90    1.69   1
  -8  -5  -6   41.22    3.85   1
  -8  -5  -5  160.53   11.40   1
  -8  -5  -4   86.30    5.95   1
  -8  -5  -3   17.47    2.26   1
  -8  -5  -2    5.52    2.82   1
  -8  -5  -1   92.93    5.78   1
  -8  -5   0  161.54   10.17   1
  -8  -5   1   52.13    3.75   1
  -8  -5   2    4.88    1.19   1
  -8  -5   3   47.20    2.47   1
  -8  -5   4   98.80    4.57   1
  -8  -5   5   69.89    3.51   1
  -8  -5   6    0.40    1.59   1
  -8  -5   7    0.71    1.71   1
  -8  -4 -10   27.25    3.76   1
  -8  -4  -9   45.83    4.74   1
  -8  -4  -8   85.38    6.65   1
  -8  -4  -7   24.21    1.97   1
  -8  -4  -6   33.29    2.31   1
  -8  -4  -5   53.58    2.64   1
  -8  -4  -4  118.59    5.23   1
  -8  -4  -3   24.11    1.47   1
  -8  -4  -2   75.86    2.79   1
  -8  -4  -1  110.04    3.36   1
  -8  -4   0  121.00    4.62   1
  -8  -4   1   56.70    2.86   1
  -8  -4   2  169.26    5.72   1
  -8  -4   3   22.18    1.79   1
  -8  -4   4   13.62    1.77   1
  -8  -4   5   96.83    4.72   1
  -8  -4   6  152.52    6.42   1
  -8  -4   7    0.71    1.31   1
  -8  -4   8  235.93    9.52   1
  -8  -3  -9  256.64   17.94   1
  -8  -3  -8    1.59    3.18   1
  -8  -3  -7  167.70   12.17   1
  -8  -3  -6   74.48    6.56   1
  -8  -3  -5   91.01    4.01   1
  -8  -3  -4   23.04    1.82   1
  -8  -3  -3   80.10    3.04   1
  -8  -3  -2   14.67    1.23   1
  -8  -3  -1   11.02    1.13   1
  -8  -3   0   25.70    1.52   1
  -8  -3   1  104.24    3.27   1
  -8  -3   2  148.35    3.90   1
  -8  -3   3   43.16    1.84   1
  -8  -3   4  111.30    4.64   1
  -8  -3   5   45.97    3.66   1
  -8  -3   6   36.97    2.55   1
  -8  -3   7    9.18    1.70   1
  -8  -3   8  123.88    6.23   1
  -8  -3   9   51.70    3.74   1
  -8  -2  -9   21.90    4.31   1
  -8  -2  -8   59.44    5.40   1
  -8  -2  -7   70.06    6.53   1
  -8  -2  -6    1.99    2.00   1
  -8  -2  -5   11.22    2.21   1
  -8  -2  -4   56.55    4.21   1
  -8  -2  -3   21.34    2.13   1
  -8  -2  -2  166.93    5.94   1
  -8  -2  -1  112.57    4.03   1
  -8  -2   0  117.51    4.12   1
  -8  -2   1   46.92    2.47   1
  -8  -2   2   86.12    3.53   1
  -8  -2   3  111.09    5.27   1
  -8  -2   4    5.62    1.80   1
  -8  -2   5   22.00    3.38   1
  -8  -2   6   48.44    4.45   1
  -8  -2   7   47.75    4.28   1
  -8  -2   8   12.39    2.68   1
  -8  -2   9    9.30    3.78   1
  -8  -1  -8   38.94    4.99   1
  -8  -1  -7   18.84    3.12   1
  -8  -1  -6   13.47    2.72   1
  -8  -1  -5   54.02    4.70   1
  -8  -1  -4  154.50    9.45   1
  -8  -1  -3   37.21    4.03   1
  -8  -1  -2   47.06    4.12   1
  -8  -1  -1  212.58    8.16   1
  -8  -1   0  277.22   13.32   1
  -8  -1   1   84.09    3.85   1
  -8  -1   2   10.37    1.61   1
  -8  -1   3  149.08    7.33   1
  -8  -1   4   64.96    5.00   1
  -8  -1   5  303.46   15.68   1
  -8  -1   6  117.29    7.58   1
  -8  -1   7   21.81    3.92   1
  -8  -1   8   -1.99    3.19   1
  -8  -1   9   22.56    3.52   1
  -8   0  -7   -0.50    2.61   1
  -8   0  -6   40.96    5.63   1
  -8   0  -5   38.44    4.34   1
  -8   0  -4  229.83   16.98   1
  -8   0  -3    6.71    2.12   1
  -8   0  -2   43.03    4.59   1
  -8   0  -1    1.59    3.00   1
  -8   0   0   22.37    1.80   1
  -8   0   1    7.02    1.33   1
  -8   0   2   77.62    5.29   1
  -8   0   3   17.47    2.26   1
  -8   0   4   15.13    2.49   1
  -8   0   5  114.70    7.50   1
  -8   0   6   29.81    3.82   1
  -8   0   7   16.00    3.04   1
  -8   0   8   10.63    3.00   1
  -8   1  -5   20.34    4.96   1
  -8   1  -4  181.17   14.00   1
  -8   1  -3   28.73    3.75   1
  -8   1  -2   76.91    7.02   1
  -8   1  -1   -0.30    2.61   1
  -8   1   0   83.36    4.93   1
  -8   1   1  143.28    5.99   1
  -8   1   2   13.47    2.50   1
  -8   1   3   -1.59    1.59   1
  -8   1   4   36.60    3.51   1
  -8   1   5   57.00    5.59   1
  -8   1   6  127.24    9.70   1
  -8   1   7   57.00    5.13   1
  -8   2  -1  115.78    7.10   1
  -8   2   0   17.22    2.32   1
  -8   2   1    8.82    1.90   1
  -8   2   2   21.34    2.31   1
  -8   2   3   42.64    3.27   1
  -8   2   4   14.36    1.97   1
  -7  -8  -7   32.26    3.52   1
  -7  -8  -6   19.36    2.38   1
  -7  -8  -5    8.29    2.59   1
  -7  -8  -4    2.31    1.92   1
  -7  -8  -3   22.94    2.39   1
  -7  -8  -2  121.22    7.05   1
  -7  -8  -1   29.70    3.05   1
  -7  -8   0    2.50    1.90   1
  -7  -8   1   24.11    2.45   1
  -7  -8   2   59.75    4.17   1
  -7  -8   3   64.64    6.91   1
  -7  -7  -8    4.58    2.01   1
  -7  -7  -7    0.79    1.80   1
  -7  -7  -6   39.94    3.03   1
  -7  -7  -5   17.81    2.19   1
  -7  -7  -4   43.69    3.04   1
  -7  -7  -3   50.27    3.26   1
  -7  -7  -2  177.69    7.20   1
  -7  -7  -1   60.68    3.74   1
  -7  -7   0  161.80    9.67   1
  -7  -7   1    3.20    1.72   1
  -7  -7   2  139.00    7.31   1
  -7  -7   3   22.94    2.49   1
  -7  -7   4   -2.19    1.69   1
  -7  -7   5   12.60    2.20   1
  -7  -7   6    4.41    3.49   1
  -7  -6 -11   37.09    4.75   1
  -7  -6 -10    0.59    1.79   1
  -7  -6  -9  119.90    7.88   1
  -7  -6  -8   85.56    6.85   1
  -7  -6  -7   31.36    3.02   1
  -7  -6  -6   24.60    2.08   1
  -7  -6  -5  111.09    4.64   1
  -7  -6  -4  107.95    4.36   1
  -7  -6  -3   42.12    2.60   1
  -7  -6  -2   48.16    2.64   1
  -7  -6  -1    0.71    1.51   1
  -7  -6   0   12.82    1.43   1
  -7  -6   1  108.58    4.58   1
  -7  -6   2  145.68    7.00   1
  -7  -6   3    7.02    1.59   1
  -7  -6   4    3.39    1.69   1
  -7  -6   5  105.06    6.36   1
  -7  -6   6  220.82   11.89   1
  -7  -6   7    2.99    1.80   1
  -7  -6   8    2.19    2.69   1
  -7  -5 -11   41.73    4.65   1
  -7  -5 -10   75.34    6.42   1
  -7  -5  -9  115.35    7.30   1
  -7  -5  -8   45.16    4.17   1
  -7  -5  -7   27.88    3.06   1
  -7  -5  -6   54.61    2.51   1
  -7  -5  -5  148.84    5.12   1
  -7  -5  -4  110.67    4.00   1
  -7  -5  -3  277.56    8.33   1
  -7  -5  -2   57.91    2.13   1
  -7  -5  -1    6.81    1.41   1
  -7  -5   0  232.26    9.45   1
  -7  -5   1  206.78    8.63   1
  -7  -5   2  274.56    8.28   1
  -7  -5   3  133.40    5.78   1
  -7  -5   4    1.69    1.09   1
  -7  -5   5  238.39   10.81   1
  -7  -5   6    3.80    1.40   1
  -7  -5   7    2.89    1.50   1
  -7  -5   8   13.40    1.83   1
  -7  -5   9   74.82    4.32   1
  -7  -4 -12   32.04    4.53   1
  -7  -4 -11   35.88    3.95   1
  -7  -4 -10  194.88   14.52   1
  -7  -4  -9   22.28    3.02   1
  -7  -4  -8  147.14    8.49   1
  -7  -4  -7   42.64    3.53   1
  -7  -4  -6  119.46    6.56   1
  -7  -4  -5   96.43    3.14   1
  -7  -4  -4   45.29    1.48   1
  -7  -4  -3  220.23    5.94   1
  -7  -4  -2   74.13    2.24   1
  -7  -4  -1    0.79    0.50   1
  -7  -4   0   38.07    1.48   1
  -7  -4   1  273.57    7.94   1
  -7  -4   2  152.03    3.70   1
  -7  -4   3  129.50    4.10   1
  -7  -4   4   30.03    1.64   1
  -7  -4   5  184.96    5.17   1
  -7  -4   6   21.62    1.49   1
  -7  -4   7   36.97    1.95   1
  -7  -4   8   40.45    2.42   1
  -7  -4   9   42.77    2.75   1
  -7  -4  10  113.00    6.80   1
  -7  -3 -12    4.20    3.81   1
  -7  -3 -11   10.89    2.57   1
  -7  -3 -10  184.14   13.03   1
  -7  -3  -9   56.10    4.79   1
  -7  -3  -8   27.77    2.63   1
  -7  -3  -7   58.52    3.83   1
  -7  -3  -6  159.01    9.58   1
  -7  -3  -5   26.21    1.33   1
  -7  -3  -4   30.58    1.44   1
  -7  -3  -3  272.91    6.61   1
  -7  -3  -2  107.12    2.48   1
  -7  -3  -1  268.63    6.23   1
  -7  -3   0  332.70    7.30   1
  -7  -3   1   21.34    0.92   1
  -7  -3   2  100.60    2.61   1
  -7  -3   3   12.82    0.79   1
  -7  -3   4   41.22    1.80   1
  -7  -3   5  116.42    3.88   1
  -7  -3   6    5.62    0.90   1
  -7  -3   7   92.16    3.46   1
  -7  -3   8   69.06    3.16   1
  -7  -3   9  148.60    6.09   1
  -7  -3  10   26.94    2.08   1
  -7  -3  11   32.38    2.62   1
  -7  -2 -11    9.80    2.69   1
  -7  -2 -10    5.29    2.90   1
  -7  -2  -9   27.88    3.27   1
  -7  -2  -8   10.63    2.28   1
  -7  -2  -7   22.28    1.79   1
  -7  -2  -6   85.56    3.88   1
  -7  -2  -5   89.49    3.22   1
  -7  -2  -4   59.60    2.16   1
  -7  -2  -3   13.18    0.73   1
  -7  -2  -2  541.96   10.71   1
  -7  -2  -1  802.59   16.43   1
  -7  -2   0   32.26    1.14   1
  -7  -2   1  165.38    3.09   1
  -7  -2   2  224.10    3.89   1
  -7  -2   3  375.58   10.08   1
  -7  -2   4  155.75    3.99   1
  -7  -2   5   81.36    2.53   1
  -7  -2   6  104.65    3.27   1
  -7  -2   7   47.33    1.93   1
  -7  -2   8   76.21    2.97   1
  -7  -2   9   72.08    5.77   1
  -7  -2  10   17.22    2.24   1
  -7  -2  11   55.65    4.03   1
  -7  -1 -11   47.75    6.08   1
  -7  -1 -10   24.80    3.88   1
  -7  -1  -9    6.50    1.58   1
  -7  -1  -8   30.14    2.53   1
  -7  -1  -7   43.56    2.24   1
  -7  -1  -6   40.83    2.43   1
  -7  -1  -5   74.48    3.28   1
  -7  -1  -4   59.44    2.31   1
  -7  -1  -3  490.18   12.84   1
  -7  -1  -2   98.41    2.78   1
  -7  -1  -1  126.34    3.15   1
  -7  -1   0  155.75    3.99   1
  -7  -1   1  449.86   10.18   1
  -7  -1   2    6.30    0.70   1
  -7  -1   3  110.46    3.57   1
  -7  -1   4   10.11    0.83   1
  -7  -1   5   77.09    2.46   1
  -7  -1   6   39.44    1.76   1
  -7  -1   7   81.36    3.25   1
  -7  -1   8   27.67    2.31   1
  -7  -1   9   17.31    1.91   1
  -7  -1  10    5.62    1.71   1
  -7  -1  11   20.88    2.29   1
  -7   0 -10    7.08    2.18   1
  -7   0  -9   11.90    1.93   1
  -7   0  -8  100.20    5.61   1
  -7   0  -7   80.64    4.13   1
  -7   0  -6   58.68    3.22   1
  -7   0  -5   77.26    3.87   1
  -7   0  -4  433.47   13.74   1
  -7   0  -3  201.07    6.24   1
  -7   0  -2  102.41    3.44   1
  -7   0  -1   71.91    2.37   1
  -7   0   0   17.47    1.09   1
  -7   0   1   35.76    1.79   1
  -7   0   2  117.51    4.77   1
  -7   0   3  234.40    8.27   1
  -7   0   4   54.91    3.56   1
  -7   0   5    7.29    1.30   1
  -7   0   6  200.79    7.09   1
  -7   0   7  366.72   14.94   1
  -7   0   8   49.28    4.77   1
  -7   0   9    8.53    2.92   1
  -7   0  10   13.32    2.92   1
  -7   0  11  263.09   19.79   1
  -7   1  -8   24.30    2.37   1
  -7   1  -7   10.63    2.28   1
  -7   1  -6    3.20    1.50   1
  -7   1  -5    5.81    2.02   1
  -7   1  -4   89.30    3.97   1
  -7   1  -3  235.62    7.98   1
  -7   1  -2   24.90    1.60   1
  -7   1  -1  190.16    6.34   1
  -7   1   0    7.78    1.17   1
  -7   1   1    7.02    1.22   1
  -7   1   2   42.25    2.34   1
  -7   1   3   68.72    3.48   1
  -7   1   4  132.94    9.45   1
  -7   1   5   61.31    4.23   1
  -7   1   6   86.12    6.31   1
  -7   1   7   18.49    3.18   1
  -7   1   8    3.20    3.01   1
  -7   1   9   40.45    4.58   1
  -7   1  10  113.85    7.90   1
  -7   1  11   14.52    3.58   1
  -7   2  -6    7.40    2.12   1
  -7   2  -5    5.11    2.08   1
  -7   2  -4  126.34    5.84   1
  -7   2  -3  111.72    5.50   1
  -7   2  -2  254.72   10.85   1
  -7   2  -1   21.16    1.84   1
  -7   2   0   65.77    2.92   1
  -7   2   1  208.22    7.22   1
  -7   2   2   64.32    3.05   1
  -7   2   3    9.42    1.41   1
  -7   2   4   13.76    1.71   1
  -7   2   5   43.03    4.33   1
  -7   2   6   37.58    4.05   1
  -7   2   7   47.47    4.41   1
  -7   2   8   59.14    4.92   1
  -7   2   9   70.73    7.57   1
  -7   3  -3   12.11    2.92   1
  -7   3  -2    2.59    2.38   1
  -7   3  -1   48.16    3.75   1
  -7   3   0   80.28    4.30   1
  -7   3   1    1.49    1.68   1
  -7   3   2   10.89    3.50   1
  -7   3   3   10.50    2.01   1
  -7   3   4   67.90    3.79   1
  -7   3   5   39.31    3.64   1
  -7   3   6   25.91    3.97   1
  -7   3   7    8.88    3.10   1
  -6  -9  -5   14.36    6.67   1
  -6  -9  -4    8.01    3.28   1
  -6  -9  -3    0.50    5.92   1
  -6  -9  -2   18.66    3.89   1
  -6  -9  -1   52.27    9.83   1
  -6  -9   0   68.72    8.79   1
  -6  -8  -9   11.49    3.32   1
  -6  -8  -8   16.48    2.27   1
  -6  -8  -7   24.01    2.84   1
  -6  -8  -6   67.90    4.45   1
  -6  -8  -5   52.56    3.62   1
  -6  -8  -4   73.96    4.47   1
  -6  -8  -3   60.68    3.74   1
  -6  -8  -2   88.74    5.46   1
  -6  -8  -1  122.77    6.20   1
  -6  -8   0   78.85    5.15   1
  -6  -8   1    6.00    1.81   1
  -6  -8   2   20.07    2.69   1
  -6  -8   3   99.20    7.57   1
  -6  -8   4    4.49    3.10   1
  -6  -8   5   35.16    6.05   1
  -6  -7 -11   76.39    4.54   1
  -6  -7 -10  100.40    9.62   1
  -6  -7  -9   -0.40    2.29   1
  -6  -7  -8   20.43    3.71   1
  -6  -7  -7   61.15    4.22   1
  -6  -7  -6  197.96    7.88   1
  -6  -7  -5   11.22    1.81   1
  -6  -7  -4   17.14    1.82   1
  -6  -7  -3   27.04    2.18   1
  -6  -7  -2   95.45    4.69   1
  -6  -7  -1   37.58    2.45   1
  -6  -7   0   18.66    2.16   1
  -6  -7   1    3.88    2.01   1
  -6  -7   2   91.97    4.03   1
  -6  -7   3   51.12    3.43   1
  -6  -7   4  126.34    5.40   1
  -6  -7   5   31.25    3.24   1
  -6  -7   6  129.50    7.06   1
  -6  -7   7   40.32    5.21   1
  -6  -6 -12    3.80    2.18   1
  -6  -6 -11  259.21   16.10   1
  -6  -6 -10  139.71    8.51   1
  -6  -6  -9  108.99    5.85   1
  -6  -6  -8   13.47    1.61   1
  -6  -6  -7   74.82    3.98   1
  -6  -6  -6   92.16    4.22   1
  -6  -6  -5    8.53    0.88   1
  -6  -6  -4    6.30    0.80   1
  -6  -6  -3    8.29    1.38   1
  -6  -6  -2  585.16   20.32   1
  -6  -6  -1   26.42    1.85   1
  -6  -6   0   67.73    3.13   1
  -6  -6   1  145.68    5.79   1
  -6  -6   2   20.70    1.91   1
  -6  -6   3  221.71    7.45   1
  -6  -6   4    9.00    1.68   1
  -6  -6   5   15.13    2.41   1
  -6  -6   6   75.17    4.34   1
  -6  -6   7   42.12    3.24   1
  -6  -6   8    2.31    2.10   1
  -6  -6   9   36.84    4.86   1
  -6  -5 -13   76.74    8.94   1
  -6  -5 -12   81.72    5.79   1
  -6  -5 -11   26.21    2.36   1
  -6  -5 -10  137.59    5.86   1
  -6  -5  -9   55.95    2.99   1
  -6  -5  -8  209.38    7.52   1
  -6  -5  -7   57.15    1.97   1
  -6  -5  -6  269.94    7.23   1
  -6  -5  -5   12.53    0.78   1
  -6  -5  -4  345.22    7.80   1
  -6  -5  -3   87.80    2.44   1
  -6  -5  -2  296.53    6.89   1
  -6  -5  -1   79.92    2.32   1
  -6  -5   0  171.87    4.20   1
  -6  -5   1   83.17    3.10   1
  -6  -5   2  250.27    7.91   1
  -6  -5   3  126.11    4.49   1
  -6  -5   4   25.10    2.10   1
  -6  -5   5   39.44    2.26   1
  -6  -5   6  195.44    6.99   1
  -6  -5   7   17.98    2.12   1
  -6  -5   8    9.80    2.19   1
  -6  -5   9    1.21    1.72   1
  -6  -5  10   22.28    2.08   1
  -6  -5  11   79.21    5.70   1
  -6  -4 -13    3.50    2.28   1
  -6  -4 -12   87.80    8.06   1
  -6  -4 -11   35.28    3.56   1
  -6  -4 -10   13.99    2.02   1
  -6  -4  -9  177.96    6.67   1
  -6  -4  -8   69.22    2.33   1
  -6  -4  -7   17.47    1.00   1
  -6  -4  -6  247.12    5.34   1
  -6  -4  -5  123.21    3.33   1
  -6  -4  -4   51.98    1.44   1
  -6  -4  -3   44.89    1.34   1
  -6  -4  -2   57.46    1.97   1
  -6  -4  -1    5.81    0.58   1
  -6  -4   0  152.77    4.70   1
  -6  -4   1  406.43   10.48   1
  -6  -4   2  300.33    6.93   1
  -6  -4   3  477.86    9.62   1
  -6  -4   4   52.13    1.44   1
  -6  -4   5  258.24    6.75   1
  -6  -4   6   77.97    2.65   1
  -6  -4   7  182.52    5.13   1
  -6  -4   8  260.50    8.07   1
  -6  -4   9  204.78    7.16   1
  -6  -4  10    9.67    1.80   1
  -6  -4  11  142.09    6.91   1
  -6  -4  12   16.08    2.41   1
  -6  -3 -13    9.12    3.62   1
  -6  -3 -12  103.84    6.73   1
  -6  -3 -11   16.08    2.01   1
  -6  -3 -10    9.49    1.42   1
  -6  -3  -9    4.20    0.98   1
  -6  -3  -8  575.52   16.79   1
  -6  -3  -7   72.76    2.56   1
  -6  -3  -6  482.24    9.66   1
  -6  -3  -5   65.45    1.46   1
  -6  -3  -4  489.29    9.29   1
  -6  -3  -3  249.01    4.73   1
  -6  -3  -2  273.90    5.63   1
  -6  -3  -1    5.20    0.50   1
  -6  -3   0  186.60    4.92   1
  -6  -3   1  642.62   11.15   1
  -6  -3   2  228.01    4.23   1
  -6  -3   3  137.12    3.04   1
  -6  -3   4  246.49    5.02   1
  -6  -3   5  590.98   11.67   1
  -6  -3   6   19.36    0.97   1
  -6  -3   7   24.80    1.20   1
  -6  -3   8    7.08    1.01   1
  -6  -3   9  362.14   11.04   1
  -6  -3  10   97.42    3.75   1
  -6  -3  11   68.89    3.15   1
  -6  -3  12   41.34    2.70   1
  -6  -3  13   62.09    5.52   1
  -6  -2 -13  132.02    6.89   1
  -6  -2 -12   40.32    3.30   1
  -6  -2 -11   58.37    3.51   1
  -6  -2 -10   63.84    3.52   1
  -6  -2  -9   65.93    2.92   1
  -6  -2  -8   20.43    1.63   1
  -6  -2  -7   22.75    1.62   1
  -6  -2  -6   45.16    1.34   1
  -6  -2  -5  165.12    3.60   1
  -6  -2  -4  109.83    2.31   1
  -6  -2  -3  118.59    2.40   1
  -6  -2  -2  910.83   13.88   1
  -6  -2  -1  408.44    6.47   1
  -6  -2   0  180.63    3.23   1
  -6  -2   1  388.09    6.70   1
  -6  -2   2  707.56   14.36   1
  -6  -2   3  260.18    6.13   1
  -6  -2   4  276.89    5.66   1
  -6  -2   5    5.20    0.59   1
  -6  -2   6   32.49    1.14   1
  -6  -2   7   17.72    1.09   1
  -6  -2   8  203.35    5.70   1
  -6  -2   9   61.62    2.51   1
  -6  -2  10   88.36    4.32   1
  -6  -2  11   11.09    1.80   1
  -6  -2  12   50.55    3.56   1
  -6  -2  13   58.68    4.44   1
  -6  -1 -13    7.62    2.10   1
  -6  -1 -12   -1.49    1.68   1
  -6  -1 -11  149.33    8.80   1
  -6  -1 -10  163.33    7.67   1
  -6  -1  -9   29.16    2.05   1
  -6  -1  -8   37.45    2.20   1
  -6  -1  -7   45.16    2.15   1
  -6  -1  -6  525.33   13.75   1
  -6  -1  -5  233.48    6.72   1
  -6  -1  -4  158.76    4.03   1
  -6  -1  -3   41.86    1.16   1
  -6  -1  -2   67.73    1.65   1
  -6  -1  -1  203.92    4.00   1
  -6  -1   0  225.00    4.20   1
  -6  -1   1  140.42    2.61   1
  -6  -1   2    6.60    0.41   1
  -6  -1   3  368.26    6.52   1
  -6  -1   4  258.57    6.11   1
  -6  -1   5  281.90    6.38   1
  -6  -1   6   71.57    2.03   1
  -6  -1   7  369.02    8.84   1
  -6  -1   8   69.72    2.67   1
  -6  -1   9  188.51    6.32   1
  -6  -1  10   94.48    4.28   1
  -6  -1  11   20.34    1.98   1
  -6  -1  12   53.44    3.80   1
  -6  -1  13   69.89    7.86   1
  -6   0 -12  121.22    7.27   1
  -6   0 -11   71.74    4.91   1
  -6   0 -10   22.18    2.54   1
  -6   0  -9   84.64    4.23   1
  -6   0  -8  351.19   11.24   1
  -6   0  -7    9.92    1.58   1
  -6   0  -6  217.27    8.55   1
  -6   0  -5   81.36    2.35   1
  -6   0  -4   32.49    1.03   1
  -6   0  -3   45.43    1.08   1
  -6   0  -2  158.51    3.53   1
  -6   0  -1   84.46    1.84   1
  -6   0   0   75.00    2.08   1
  -6   0   1   41.34    1.16   1
  -6   0   2  192.38    4.72   1
  -6   0   3  137.83    3.29   1
  -6   0   4  461.82    9.89   1
  -6   0   5  229.22    5.15   1
  -6   0   6   46.92    1.64   1
  -6   0   7   73.27    2.57   1
  -6   0   8  103.84    3.46   1
  -6   0   9   19.89    1.52   1
  -6   0  10   30.25    3.85   1
  -6   0  11   90.06    7.02   1
  -6   0  12   62.57    5.85   1
  -6   0  13   14.06    3.68   1
  -6   1 -11   54.17    5.45   1
  -6   1 -10   52.85    4.22   1
  -6   1  -9    1.69    1.79   1
  -6   1  -8   10.50    1.88   1
  -6   1  -7  120.12    5.26   1
  -6   1  -6   57.91    2.74   1
  -6   1  -5  220.23    8.01   1
  -6   1  -4  121.00    3.30   1
  -6   1  -3  280.56    6.70   1
  -6   1  -2  144.24    3.12   1
  -6   1  -1  300.68    5.90   1
  -6   1   0   63.04    2.06   1
  -6   1   1   10.11    1.02   1
  -6   1   2  174.77    5.02   1
  -6   1   3  236.24    7.99   1
  -6   1   4   12.60    0.99   1
  -6   1   5    3.20    0.79   1
  -6   1   6   17.47    1.34   1
  -6   1   7  119.90    4.82   1
  -6   1   8   23.91    2.05   1
  -6   1   9   73.10    3.76   1
  -6   1  10   28.94    3.44   1
  -6   1  11   53.14    5.39   1
  -6   1  12  116.64    8.64   1
  -6   1  13   18.58    3.71   1
  -6   2  -9   -0.59    2.19   1
  -6   2  -8   62.73    4.44   1
  -6   2  -7   42.25    3.25   1
  -6   2  -6   50.41    3.55   1
  -6   2  -5   21.16    2.76   1
  -6   2  -4   87.80    3.94   1
  -6   2  -3   86.49    2.79   1
  -6   2  -2  106.50    3.51   1
  -6   2  -1   25.81    1.52   1
  -6   2   0  191.55    6.92   1
  -6   2   1   19.36    1.32   1
  -6   2   2  142.56    5.49   1
  -6   2   3   12.53    1.49   1
  -6   2   4    6.10    1.98   1
  -6   2   5   37.82    3.44   1
  -6   2   6  519.38   30.08   1
  -6   2   7   24.40    3.26   1
  -6   2   8   59.14    4.00   1
  -6   2   9   24.50   11.68   1
  -6   2  10   74.48    6.21   1
  -6   2  11   82.81    6.73   1
  -6   2  12   69.56    6.00   1
  -6   3  -7    7.51    3.12   1
  -6   3  -6   -1.00    2.20   1
  -6   3  -5   46.24    3.54   1
  -6   3  -4    0.59    1.89   1
  -6   3  -3  233.17    8.55   1
  -6   3  -2   35.76    1.91   1
  -6   3  -1   75.86    3.14   1
  -6   3   0   60.53    2.96   1
  -6   3   1   13.32    1.83   1
  -6   3   2   34.57    2.12   1
  -6   3   3   47.06    2.74   1
  -6   3   4    1.80    1.50   1
  -6   3   5  181.44   12.12   1
  -6   3   6   67.90    4.61   1
  -6   3   7   39.94    4.04   1
  -6   3   8   25.70    3.45   1
  -6   3   9  121.44   10.36   1
  -6   3  10   35.05    4.03   1
  -6   3  11   -2.59    2.70   1
  -6   4  -4  181.98   16.19   1
  -6   4  -3   66.75    5.56   1
  -6   4  -2   35.64    3.46   1
  -6   4  -1   51.98    3.89   1
  -6   4   0  132.71    6.68   1
  -6   4   1    4.80    1.71   1
  -6   4   2   25.91    2.44   1
  -6   4   3    3.31    1.60   1
  -6   4   4   84.09    4.59   1
  -6   4   5   76.21    5.24   1
  -6   4   6   28.30    4.15   1
  -6   4   7   13.18    2.47   1
  -6   4   8   39.44    3.89   1
  -5  -9  -8   69.39    7.33   1
  -5  -9  -7   61.47    6.27   1
  -5  -9  -6   89.68    6.82   1
  -5  -9  -5   57.00    6.95   1
  -5  -9  -4   37.21    5.25   1
  -5  -9  -3   26.94    4.26   1
  -5  -9  -2   35.52    7.27   1
  -5  -9  -1   28.09    7.74   1
  -5  -9   0   68.39    7.28   1
  -5  -9   1   92.16    8.45   1
  -5  -9   2   31.25    4.25   1
  -5  -8 -10   30.80    5.44   1
  -5  -8  -9   63.36    5.73   1
  -5  -8  -8   60.37    5.75   1
  -5  -8  -7   13.76    2.00   1
  -5  -8  -6   79.03    3.73   1
  -5  -8  -5  157.00    6.26   1
  -5  -8  -4   38.94    2.75   1
  -5  -8  -3   35.64    2.75   1
  -5  -8  -2    8.53    1.93   1
  -5  -8  -1  132.02    5.52   1
  -5  -8   0  107.12    5.18   1
  -5  -8   1   14.59    1.99   1
  -5  -8   2   10.63    2.41   1
  -5  -8   3   10.18    1.91   1
  -5  -8   4   99.60    6.99   1
  -5  -8   5   25.81    3.45   1
  -5  -8   6   48.86    6.15   1
  -5  -7 -12   39.31    3.13   1
  -5  -7 -11   65.45    4.53   1
  -5  -7 -10  175.30    9.80   1
  -5  -7  -9   75.17    4.34   1
  -5  -7  -8    6.30    1.31   1
  -5  -7  -7   41.34    2.57   1
  -5  -7  -6  244.61   12.82   1
  -5  -7  -5   44.36    2.26   1
  -5  -7  -4  214.33    9.08   1
  -5  -7  -3   51.84    2.88   1
  -5  -7  -2   23.72    2.14   1
  -5  -7  -1  184.69    6.80   1
  -5  -7   0   78.50    3.72   1
  -5  -7   1  359.48   12.51   1
  -5  -7   2  147.38    5.83   1
  -5  -7   3   13.18    2.11   1
  -5  -7   4  256.64    9.93   1
  -5  -7   5   30.91    2.56   1
  -5  -7   6   13.99    2.32   1
  -5  -7   7   10.18    1.91   1
  -5  -7   8   55.95    6.28   1
  -5  -6 -14   91.01    7.44   1
  -5  -6 -13   48.44    3.48   1
  -5  -6 -12    5.52    1.50   1
  -5  -6 -11    8.88    1.79   1
  -5  -6 -10  295.84   12.04   1
  -5  -6  -9   61.94    3.15   1
  -5  -6  -8   56.25    2.55   1
  -5  -6  -7   62.41    2.84   1
  -5  -6  -6  216.09    7.06   1
  -5  -6  -5  410.87   12.16   1
  -5  -6  -4   69.06    2.49   1
  -5  -6  -3   53.88    1.91   1
  -5  -6  -2  181.71    6.20   1
  -5  -6  -1  401.20   11.22   1
  -5  -6   0  194.88    6.42   1
  -5  -6   1   49.56    2.39   1
  -5  -6   2   70.56    3.19   1
  -5  -6   3  294.47    9.95   1
  -5  -6   4   57.46    2.88   1
  -5  -6   5   52.56    2.90   1
  -5  -6   6   69.06    3.49   1
  -5  -6   7   24.40    2.47   1
  -5  -6   8   36.84    3.64   1
  -5  -6   9   42.77    3.66   1
  -5  -6  10   10.69    3.20   1
  -5  -5 -14   67.73    6.09   1
  -5  -5 -13   12.39    2.82   1
  -5  -5 -12    2.69    1.41   1
  -5  -5 -11   32.60    2.17   1
  -5  -5 -10    4.88    1.11   1
  -5  -5  -9  116.64    4.32   1
  -5  -5  -8  243.98    6.25   1
  -5  -5  -7   11.09    0.93   1
  -5  -5  -6   94.87    2.73   1
  -5  -5  -5   12.67    0.71   1
  -5  -5  -4   18.49    0.77   1
  -5  -5  -3   55.20    1.34   1
  -5  -5  -2  106.71    2.89   1
  -5  -5  -1  192.65    4.72   1
  -5  -5   0   58.98    2.30   1
  -5  -5   1  560.27   14.68   1
  -5  -5   2  217.56    6.79   1
  -5  -5   3  442.26   13.04   1
  -5  -5   4    7.40    0.82   1
  -5  -5   5  211.99    5.82   1
  -5  -5   6  841.58   24.95   1
  -5  -5   7   12.53    1.42   1
  -5  -5   8   34.93    2.72   1
  -5  -5   9   20.52    2.27   1
  -5  -5  10    4.49    1.40   1
  -5  -5  11  105.27    5.75   1
  -5  -5  12   87.98    5.44   1
  -5  -4 -15   87.98    9.19   1
  -5  -4 -14   18.58    2.24   1
  -5  -4 -13  104.04    6.32   1
  -5  -4 -12    6.71    1.61   1
  -5  -4 -11  165.38    5.92   1
  -5  -4 -10  429.32   11.60   1
  -5  -4  -9  398.40   10.38   1
  -5  -4  -8  370.95    8.86   1
  -5  -4  -7   63.84    1.92   1
  -5  -4  -6  357.97    6.81   1
  -5  -4  -5  186.87    3.83   1
  -5  -4  -4   67.24    1.64   1
  -5  -4  -3   84.46    1.65   1
  -5  -4  -2  369.02    6.92   1
  -5  -4  -1   52.56    1.16   1
  -5  -4   0   48.86    1.40   1
  -5  -4   1  169.52    3.39   1
  -5  -4   2  609.60   14.81   1
  -5  -4   3  357.21    7.94   1
  -5  -4   4  304.15    6.63   1
  -5  -4   5  464.83   10.35   1
  -5  -4   6  491.07   11.97   1
  -5  -4   7  354.57   10.17   1
  -5  -4   8  142.09    4.29   1
  -5  -4   9   70.56    2.52   1
  -5  -4  10   25.30    1.51   1
  -5  -4  11  115.56    5.38   1
  -5  -4  12   61.31    3.76   1
  -5  -4  13   31.25    3.35   1
  -5  -3 -15    8.82    2.08   1
  -5  -3 -14  101.61    6.45   1
  -5  -3 -13   95.26    5.27   1
  -5  -3 -12   17.14    1.90   1
  -5  -3 -11  160.53    5.57   1
  -5  -3 -10   88.17    3.19   1
  -5  -3  -9  674.96   17.67   1
  -5  -3  -8  105.68    2.67   1
  -5  -3  -7  187.14    3.83   1
  -5  -3  -6  208.22    4.33   1
  -5  -3  -5   71.06    1.35   1
  -5  -3  -4  580.81    9.64   1
  -5  -3  -3  675.48   11.44   1
  -5  -3  -2  129.50    2.28   1
  -5  -3  -1  183.87    2.98   1
  -5  -3   0  184.14    3.26   1
  -5  -3   1  268.30    5.24   1
  -5  -3   2 1111.56   20.00   1
  -5  -3   3  426.42    8.67   1
  -5  -3   4  349.69    7.85   1
  -5  -3   5    5.29    0.51   1
  -5  -3   6  514.38   10.89   1
  -5  -3   7   69.56    2.00   1
  -5  -3   8   43.43    1.45   1
  -5  -3   9  527.16   14.24   1
  -5  -3  10   56.10    2.40   1
  -5  -3  11   51.55    3.02   1
  -5  -3  12   81.72    4.52   1
  -5  -3  13   57.00    4.68   1
  -5  -3  14   11.49    2.78   1
  -5  -2 -14  109.41    7.95   1
  -5  -2 -13  147.62    8.50   1
  -5  -2 -12   31.81    2.37   1
  -5  -2 -11   25.40    2.12   1
  -5  -2 -10  103.23    4.06   1
  -5  -2  -9   19.36    1.32   1
  -5  -2  -8  278.56    7.34   1
  -5  -2  -7   83.36    2.56   1
  -5  -2  -6   11.02    0.40   1
  -5  -2  -5  102.82    1.62   1
  -5  -2  -4  308.35    4.57   1
  -5  -2  -3  223.80    3.59   1
  -5  -2  -2   34.57    0.71   1
  -5  -2  -1   78.85    1.24   1
  -5  -2   0  521.21    6.85   1
  -5  -2   1  676.00    8.84   1
  -5  -2   2  169.00    2.86   1
  -5  -2   3  240.56    4.65   1
  -5  -2   4  326.52    5.78   1
  -5  -2   5  918.70   18.79   1
  -5  -2   6   61.15    1.88   1
  -5  -2   7  151.29    4.18   1
  -5  -2   8   76.91    2.63   1
  -5  -2   9  116.64    3.89   1
  -5  -2  10   69.56    2.67   1
  -5  -2  11  138.30    6.59   1
  -5  -2  12   77.26    4.22   1
  -5  -2  13   52.13    3.90   1
  -5  -2  14   64.96    4.35   1
  -5  -1 -14  123.43    7.33   1
  -5  -1 -13  167.96    8.04   1
  -5  -1 -12    9.18    1.70   1
  -5  -1 -11  178.49    7.21   1
  -5  -1 -10  370.18   11.54   1
  -5  -1  -9  134.10    5.10   1
  -5  -1  -8  308.35    8.43   1
  -5  -1  -7  306.60   10.51   1
  -5  -1  -6  624.00   11.99   1
  -5  -1  -5   16.81    0.57   1
  -5  -1  -4  244.30    4.38   1
  -5  -1  -3  171.87    2.62   1
  -5  -1  -2   15.60    0.47   1
  -5  -1  -1  207.94    3.17   1
  -5  -1   0  408.44    5.25   1
  -5  -1   1  233.78    3.36   1
  -5  -1   2  199.09    3.10   1
  -5  -1   3  653.31   11.25   1
  -5  -1   4  179.02    3.21   1
  -5  -1   5  457.10    9.41   1
  -5  -1   6    3.20    0.61   1
  -5  -1   7   -0.40    0.69   1
  -5  -1   8  118.59    3.27   1
  -5  -1   9  306.60    7.00   1
  -5  -1  10    6.92    1.00   1
  -5  -1  11  198.53    7.05   1
  -5  -1  12   13.76    1.78   1
  -5  -1  13   34.22    2.81   1
  -5  -1  14   16.81    4.67   1
  -5   0 -13   32.49    2.85   1
  -5   0 -12   90.82    5.15   1
  -5   0 -11   49.14    3.08   1
  -5   0 -10   69.39    4.00   1
  -5   0  -9  202.49    6.26   1
  -5   0  -8   63.84    2.24   1
  -5   0  -7   22.28    1.23   1
  -5   0  -6  111.09    2.95   1
  -5   0  -5  305.90    6.30   1
  -5   0  -4  381.42    6.25   1
  -5   0  -3   48.44    0.97   1
  -5   0  -2   54.91    1.04   1
  -5   0  -1   57.00    1.06   1
  -5   0   0  181.17    3.23   1
  -5   0   1  341.14    4.80   1
  -5   0   2  190.72    3.31   1
  -5   0   3   52.56    1.16   1
  -5   0   4  513.93    9.07   1
  -5   0   5  120.78    2.42   1
  -5   0   6  144.72    3.13   1
  -5   0   7   30.25    1.21   1
  -5   0   8   26.42    1.23   1
  -5   0   9   93.51    3.48   1
  -5   0  10  195.44    7.83   1
  -5   0  11   37.82    3.81   1
  -5   0  12   32.95    3.67   1
  -5   0  13   57.91    5.33   1
  -5   0  14   39.31    5.77   1
  -5   1 -12   72.25    5.27   1
  -5   1 -11  101.61    6.05   1
  -5   1 -10   39.44    2.76   1
  -5   1  -9   40.96    2.82   1
  -5   1  -8    0.20    1.71   1
  -5   1  -7  176.09    5.57   1
  -5   1  -6  244.61    7.19   1
  -5   1  -5  381.03    9.37   1
  -5   1  -4    2.31    0.40   1
  -5   1  -3   36.84    0.85   1
  -5   1  -2  310.11    5.99   1
  -5   1  -1  372.10    6.94   1
  -5   1   0  180.63    4.03   1
  -5   1   1  235.32    4.30   1
  -5   1   2  109.41    2.30   1
  -5   1   3   95.26    2.54   1
  -5   1   4  179.83    4.83   1
  -5   1   5   76.56    1.92   1
  -5   1   6  170.04    5.22   1
  -5   1   7  150.80    3.93   1
  -5   1   8   51.70    1.87   1
  -5   1   9  123.21    4.44   1
  -5   1  10    3.10    1.41   1
  -5   1  11   46.92    4.25   1
  -5   1  12  212.87   14.30   1
  -5   1  13  136.42   11.68   1
  -5   1  14   63.84    6.23   1
  -5   2 -11  113.85   11.52   1
  -5   2 -10  175.30   10.06   1
  -5   2  -9   15.60    2.21   1
  -5   2  -8    3.69    1.80   1
  -5   2  -7   43.82    2.91   1
  -5   2  -6  111.30    4.43   1
  -5   2  -5   42.25    1.56   1
  -5   2  -4   47.75    1.66   1
  -5   2  -3   24.50    1.09   1
  -5   2  -2  186.32    4.37   1
  -5   2  -1  189.34    4.68   1
  -5   2   0  132.71    3.00   1
  -5   2   1   76.04    1.74   1
  -5   2   2  240.25    6.82   1
  -5   2   3  322.92   10.42   1
  -5   2   4   95.26    2.93   1
  -5   2   5   10.63    0.91   1
  -5   2   6   38.81    1.74   1
  -5   2   7  170.04    6.00   1
  -5   2   8  116.21    4.74   1
  -5   2   9   23.43    2.32   1
  -5   2  10   35.40    3.69   1
  -5   2  11   80.82    5.75   1
  -5   2  12    7.29    3.08   1
  -5   2  13  125.89   11.89   1
  -5   2  14   79.57    7.14   1
  -5   3 -10   -2.19    4.59   1
  -5   3  -9    3.80    2.89   1
  -5   3  -8   85.56    5.55   1
  -5   3  -7   67.24    4.59   1
  -5   3  -6   69.72    3.84   1
  -5   3  -5   23.33    2.03   1
  -5   3  -4    7.18    1.07   1
  -5   3  -3  545.22   14.94   1
  -5   3  -2  160.28    4.30   1
  -5   3  -1   26.52    1.55   1
  -5   3   0   44.89    1.74   1
  -5   3   1  100.40    3.21   1
  -5   3   2  131.10    4.58   1
  -5   3   3  111.72    4.44   1
  -5   3   4    3.39    0.81   1
  -5   3   5   35.40    2.26   1
  -5   3   6   74.82    3.46   1
  -5   3   7  254.40   10.85   1
  -5   3   8   26.01    2.45   1
  -5   3   9   25.70    2.74   1
  -5   3  10  183.33   10.02   1
  -5   3  11   17.64    3.02   1
  -5   3  12   19.18    2.98   1
  -5   3  13  161.80   14.25   1
  -5   4  -7   35.05    4.85   1
  -5   4  -6    9.00    2.52   1
  -5   4  -5   42.77    3.40   1
  -5   4  -4    2.19    2.10   1
  -5   4  -3    6.60    1.28   1
  -5   4  -2  281.90    8.40   1
  -5   4  -1  109.20    4.39   1
  -5   4   0  157.25    6.77   1
  -5   4   1   38.07    2.59   1
  -5   4   2   90.06    3.80   1
  -5   4   3  188.51    8.24   1
  -5   4   4   82.63    5.82   1
  -5   4   5   84.27    5.88   1
  -5   4   6   37.82    3.44   1
  -5   4   7    9.92    2.71   1
  -5   4   8    7.78    2.29   1
  -5   4   9   46.51    4.09   1
  -5   4  10   26.32    3.69   1
  -5   4  11  150.31   13.00   1
  -5   5  -4   33.99    5.95   1
  -5   5  -3  101.20    8.85   1
  -5   5  -2    7.02    3.82   1
  -5   5  -1   26.21    2.05   1
  -5   5   0  234.70   11.03   1
  -5   5   1  102.62    5.07   1
  -5   5   2  129.28    6.37   1
  -5   5   3  218.15   10.63   1
  -5   5   4   25.10    2.30   1
  -5   5   5  282.24   18.82   1
  -5   5   6   12.60    2.48   1
  -5   5   7   21.81    4.02   1
  -5   5   8   42.90    4.85   1
  -5   5   9   13.03    3.68   1
  -4  -9  -8  119.03   10.69   1
  -4  -9  -7   36.48    4.71   1
  -4  -9  -6   17.22    3.32   1
  -4  -9  -5   -2.10    4.21   1
  -4  -9  -4   60.84    6.86   1
  -4  -9  -3   23.04    3.84   1
  -4  -9  -2  181.17   14.27   1
  -4  -9  -1  117.72    9.11   1
  -4  -9   0  104.86    7.99   1
  -4  -9   1   74.30    6.90   1
  -4  -9   2   53.44    5.99   1
  -4  -9   3   16.81    3.94   1
  -4  -8 -11   71.23    6.41   1
  -4  -8 -10   40.45    5.22   1
  -4  -8  -9   83.36    7.67   1
  -4  -8  -8   59.75    6.96   1
  -4  -8  -7   16.81    3.03   1
  -4  -8  -6  100.80    4.62   1
  -4  -8  -5   33.99    2.45   1
  -4  -8  -4   90.44    4.56   1
  -4  -8  -3   59.60    3.24   1
  -4  -8  -2   77.62    4.41   1
  -4  -8  -1   96.43    4.52   1
  -4  -8   0  127.46    5.64   1
  -4  -8   1    2.59    1.61   1
  -4  -8   2   51.12    3.43   1
  -4  -8   3   65.77    4.54   1
  -4  -8   4  197.68   12.09   1
  -4  -8   5    3.31    2.40   1
  -4  -8   6  123.88   11.80   1
  -4  -7 -13   54.17    6.77   1
  -4  -7 -12  174.50   10.04   1
  -4  -7 -11   39.94    3.16   1
  -4  -7 -10   45.29    2.56   1
  -4  -7  -9  102.62    4.66   1
  -4  -7  -8  137.59    6.57   1
  -4  -7  -7   55.80    2.69   1
  -4  -7  -6   43.30    3.03   1
  -4  -7  -5    4.80    1.18   1
  -4  -7  -4  423.54   14.41   1
  -4  -7  -3    9.61    1.30   1
  -4  -7  -2   38.94    2.25   1
  -4  -7  -1   22.28    1.51   1
  -4  -7   0  272.91    8.59   1
  -4  -7   1  441.00   13.86   1
  -4  -7   2    4.28    1.28   1
  -4  -7   3    4.80    1.62   1
  -4  -7   4  118.81    4.80   1
  -4  -7   5  133.86    6.02   1
  -4  -7   6   18.66    2.42   1
  -4  -7   7    2.99    1.90   1
  -4  -7   8   59.29    8.47   1
  -4  -7   9  115.56    8.60   1
  -4  -6 -14    1.90    2.51   1
  -4  -6 -13   77.97    5.12   1
  -4  -6 -12   21.34    2.31   1
  -4  -6 -11   23.23    2.51   1
  -4  -6 -10  112.57    4.67   1
  -4  -6  -9    9.92    1.32   1
  -4  -6  -8   59.14    2.46   1
  -4  -6  -7  178.22    5.87   1
  -4  -6  -6  157.50    4.52   1
  -4  -6  -5   51.98    1.59   1
  -4  -6  -4   11.97    0.42   1
  -4  -6  -3   53.14    2.19   1
  -4  -6  -2   21.90    1.50   1
  -4  -6  -1  186.05    5.18   1
  -4  -6   0  321.13    9.32   1
  -4  -6   1  463.54   15.07   1
  -4  -6   2  330.15   10.90   1
  -4  -6   3   26.94    1.87   1
  -4  -6   4  188.79    6.32   1
  -4  -6   5   97.22    3.55   1
  -4  -6   6  125.22    5.59   1
  -4  -6   7  300.33   10.74   1
  -4  -6   8  158.76    7.06   1
  -4  -6   9   35.05    3.20   1
  -4  -6  10  150.80   10.07   1
  -4  -6  11   24.30    4.83   1
  -4  -5 -15  101.61   10.08   1
  -4  -5 -14  112.57    8.70   1
  -4  -5 -13   12.89    2.51   1
  -4  -5 -12   77.26    3.87   1
  -4  -5 -11   48.44    2.64   1
  -4  -5 -10  772.84   22.24   1
  -4  -5  -9  557.90   14.64   1
  -4  -5  -8   18.32    1.11   1
  -4  -5  -7   79.03    2.49   1
  -4  -5  -6  443.10   10.95   1
  -4  -5  -5  185.78    4.63   1
  -4  -5  -4   22.18    1.04   1
  -4  -5  -3  135.26    2.33   1
  -4  -5  -2  162.05    3.31   1
  -4  -5  -1  182.52    4.05   1
  -4  -5   0    3.50    0.79   1
  -4  -5   1  474.37   10.89   1
  -4  -5   2   27.67    1.68   1
  -4  -5   3  528.54   13.79   1
  -4  -5   4  563.59   12.34   1
  -4  -5   5  625.50   15.51   1
  -4  -5   6   11.90    1.10   1
  -4  -5   7  490.18   14.61   1
  -4  -5   8   49.14    2.52   1
  -4  -5   9  109.62    4.40   1
  -4  -5  10   31.36    2.80   1
  -4  -5  11   20.16    2.60   1
  -4  -5  12   39.19    3.13   1
  -4  -4 -15    1.69    3.38   1
  -4  -4 -14   19.80    2.40   1
  -4  -4 -13   19.80    2.49   1
  -4  -4 -12  115.35    6.66   1
  -4  -4 -11    3.80    1.01   1
  -4  -4 -10 1137.71   24.96   1
  -4  -4  -9  194.32    4.46   1
  -4  -4  -8 2350.31   51.39   1
  -4  -4  -7  284.60    5.40   1
  -4  -4  -6  211.12    4.07   1
  -4  -4  -5   14.98    0.62   1
  -4  -4  -4   31.70    1.01   1
  -4  -4  -3  691.69   12.10   1
  -4  -4  -2  333.79    5.48   1
  -4  -4  -1   16.73    0.57   1
  -4  -4   0  267.00    5.56   1
  -4  -4   1   84.64    2.21   1
  -4  -4   2  711.82   13.87   1
  -4  -4   3  441.42    8.40   1
  -4  -4   4   77.62    1.94   1
  -4  -4   5    0.79    0.20   1
  -4  -4   6    8.70    0.59   1
  -4  -4   7 1329.33   30.63   1
  -4  -4   8  155.00    3.98   1
  -4  -4   9    3.20    1.00   1
  -4  -4  10  126.56    3.83   1
  -4  -4  11   11.42    1.62   1
  -4  -4  12   90.82    4.57   1
  -4  -4  13   62.41    4.74   1
  -4  -3 -16   35.16    5.46   1
  -4  -3 -15   40.45    3.69   1
  -4  -3 -14   16.97    2.39   1
  -4  -3 -13   74.82    4.32   1
  -4  -3 -12   16.08    1.68   1
  -4  -3 -11   28.84    1.50   1
  -4  -3 -10  124.77    3.13   1
  -4  -3  -9  129.28    3.18   1
  -4  -3  -8   21.53    0.84   1
  -4  -3  -7  658.44   10.78   1
  -4  -3  -6  153.02    2.72   1
  -4  -3  -5   45.16    0.94   1
  -4  -3  -4   40.96    0.77   1
  -4  -3  -3  374.42    6.19   1
  -4  -3  -2  895.80   14.97   1
  -4  -3  -1  781.20   12.30   1
  -4  -3   0  156.50    2.75   1
  -4  -3   1   71.40    1.69   1
  -4  -3   2  617.52    9.44   1
  -4  -3   3  689.59   12.60   1
  -4  -3   4   51.70    1.29   1
  -4  -3   5   12.18    0.49   1
  -4  -3   6  225.30    5.10   1
  -4  -3   7  389.67    9.08   1
  -4  -3   8   66.75    1.96   1
  -4  -3   9   20.61    1.09   1
  -4  -3  10    4.58    0.90   1
  -4  -3  11  137.36    4.92   1
  -4  -3  12  127.46    6.55   1
  -4  -3  13  172.92   10.26   1
  -4  -3  14    7.62    2.32   1
  -4  -2 -16   94.67    9.92   1
  -4  -2 -15    9.80    2.00   1
  -4  -2 -14   37.45    2.94   1
  -4  -2 -13  323.28   11.51   1
  -4  -2 -12  441.42   14.29   1
  -4  -2 -11   17.89    1.18   1
  -4  -2 -10   32.95    1.61   1
  -4  -2  -9   33.52    1.51   1
  -4  -2  -8 1204.09   29.84   1
  -4  -2  -7  611.57   11.38   1
  -4  -2  -6  315.77    5.69   1
  -4  -2  -5  306.95    4.91   1
  -4  -2  -4   37.45    0.86   1
  -4  -2  -3 1836.98   26.57   1
  -4  -2  -2 1277.35   19.30   1
  -4  -2  -1   14.29    0.38   1
  -4  -2   0  597.80    7.82   1
  -4  -2   1  807.13   13.07   1
  -4  -2   2  178.76    3.48   1
  -4  -2   3  216.38    3.82   1
  -4  -2   4   49.28    1.26   1
  -4  -2   5    9.12    0.60   1
  -4  -2   6  171.09    3.92   1
  -4  -2   7  470.46   10.41   1
  -4  -2   8   16.08    0.88   1
  -4  -2   9  135.02    3.95   1
  -4  -2  10  259.53    8.06   1
  -4  -2  11   31.92    1.58   1
  -4  -2  12  144.00    6.48   1
  -4  -2  13   20.88    1.92   1
  -4  -2  14   92.74    4.43   1
  -4  -2  15    1.00    1.70   1
  -4  -1 -15   -1.69    2.18   1
  -4  -1 -14   35.05    3.55   1
  -4  -1 -13   57.91    3.50   1
  -4  -1 -12  134.56    5.10   1
  -4  -1 -11  185.78    7.09   1
  -4  -1 -10   50.98    2.57   1
  -4  -1  -9   35.40    1.90   1
  -4  -1  -8  324.72    7.93   1
  -4  -1  -7  335.26    6.59   1
  -4  -1  -6  103.84    2.24   1
  -4  -1  -5  166.41    2.32   1
  -4  -1  -4  228.61    3.63   1
  -4  -1  -3  164.61    2.82   1
  -4  -1  -2  132.25    2.30   1
  -4  -1  -1  252.49    3.18   1
  -4  -1   0   87.05    1.49   1
  -4  -1   1   95.65    1.56   1
  -4  -1   2  478.30    7.87   1
  -4  -1   3  253.76    5.10   1
  -4  -1   4  121.44    2.20   1
  -4  -1   5  347.08    6.71   1
  -4  -1   6  148.35    2.92   1
  -4  -1   7  334.89    7.32   1
  -4  -1   8   12.82    0.79   1
  -4  -1   9   48.58    1.81   1
  -4  -1  10   75.69    2.61   1
  -4  -1  11  114.49    4.28   1
  -4  -1  12   55.20    3.27   1
  -4  -1  13    8.70    1.71   1
  -4  -1  14   35.40    4.40   1
  -4  -1  15  105.06   10.05   1
  -4   0 -15   19.10    4.11   1
  -4   0 -14   40.96    3.71   1
  -4   0 -13   82.81    4.55   1
  -4   0 -12  147.38    7.04   1
  -4   0 -11   14.82    1.92   1
  -4   0 -10   64.80    2.58   1
  -4   0  -9  106.30    4.12   1
  -4   0  -8  432.22   11.64   1
  -4   0  -7   94.87    2.34   1
  -4   0  -6  271.26    4.94   1
  -4   0  -5  306.95    4.91   1
  -4   0  -4  264.06    3.90   1
  -4   0  -3  129.73    2.05   1
  -4   0  -2   31.25    0.78   1
  -4   0  -1  622.00    9.48   1
  -4   0   0  903.60   12.63   1
  -4   0   1   11.90    0.41   1
  -4   0   2  245.86    3.76   1
  -4   0   3   33.18    0.81   1
  -4   0   4  169.52    3.12   1
  -4   0   5   92.74    2.12   1
  -4   0   6  106.50    2.27   1
  -4   0   7  106.50    2.48   1
  -4   0   8   25.60    1.01   1
  -4   0   9  205.06    4.87   1
  -4   0  10  488.85   13.71   1
  -4   0  11   53.29    2.63   1
  -4   0  12  180.63   11.02   1
  -4   0  13   57.46    4.55   1
  -4   0  14  193.21   13.62   1
  -4   0  15   68.39    6.78   1
  -4   1 -14   40.58    5.35   1
  -4   1 -13   21.07    2.94   1
  -4   1 -12   43.56    3.17   1
  -4   1 -11   17.64    1.93   1
  -4   1 -10  123.43    5.55   1
  -4   1  -9   51.70    2.16   1
  -4   1  -8  144.96    4.33   1
  -4   1  -7    9.42    0.92   1
  -4   1  -6   36.60    1.45   1
  -4   1  -5  127.69    2.49   1
  -4   1  -4  176.62    2.92   1
  -4   1  -3   17.98    0.51   1
  -4   1  -2  369.41    5.38   1
  -4   1  -1  171.87    2.88   1
  -4   1   0  798.63   11.87   1
  -4   1   1  938.20   14.70   1
  -4   1   2   78.32    1.77   1
  -4   1   3   64.32    1.60   1
  -4   1   4   84.09    1.83   1
  -4   1   5  318.27    6.78   1
  -4   1   6   17.39    0.92   1
  -4   1   7   43.96    1.46   1
  -4   1   8  231.65    6.09   1
  -4   1   9  138.77    4.95   1
  -4   1  10  161.80    6.36   1
  -4   1  11   52.56    3.34   1
  -4   1  12   80.46    5.56   1
  -4   1  13   84.09    6.24   1
  -4   1  14  129.73    8.88   1
  -4   1  15   72.76    6.82   1
  -4   2 -13    3.50    4.19   1
  -4   2 -12   32.38    3.87   1
  -4   2 -11  112.15    6.99   1
  -4   2 -10  367.49   14.57   1
  -4   2  -9   13.18    1.82   1
  -4   2  -8    6.10    1.09   1
  -4   2  -7   38.07    1.85   1
  -4   2  -6  108.58    4.38   1
  -4   2  -5  367.49    9.59   1
  -4   2  -4    1.80    0.40   1
  -4   2  -3   81.18    1.80   1
  -4   2  -2  283.59    5.39   1
  -4   2  -1  749.66   13.14   1
  -4   2   0   81.36    1.62   1
  -4   2   1  547.56    8.42   1
  -4   2   2  199.37    3.39   1
  -4   2   3  899.40   17.39   1
  -4   2   4   90.82    2.10   1
  -4   2   5  313.64    7.08   1
  -4   2   6  171.35    4.71   1
  -4   2   7  539.63   13.94   1
  -4   2   8  261.79    7.12   1
  -4   2   9   50.55    2.56   1
  -4   2  10   32.38    2.28   1
  -4   2  11    8.70    2.30   1
  -4   2  12  113.64    7.25   1
  -4   2  13  162.56    6.38   1
  -4   2  14   46.24    5.85   1
  -4   2  15   48.30    5.70   1
  -4   3 -11   14.21    3.17   1
  -4   3 -10   88.17    5.26   1
  -4   3  -9   34.34    2.46   1
  -4   3  -8   32.26    2.50   1
  -4   3  -7   53.14    2.92   1
  -4   3  -6  167.96    6.74   1
  -4   3  -5    6.10    1.68   1
  -4   3  -4  105.68    2.67   1
  -4   3  -3  159.52    4.29   1
  -4   3  -2  984.70   21.34   1
  -4   3  -1   62.25    2.05   1
  -4   3   0   99.20    2.99   1
  -4   3   1   25.60    1.11   1
  -4   3   2  226.20    6.32   1
  -4   3   3   22.09    1.13   1
  -4   3   4  192.10    5.27   1
  -4   3   5   67.57    1.97   1
  -4   3   6  391.25    9.49   1
  -4   3   7   91.97    2.49   1
  -4   3   8  144.72    5.29   1
  -4   3   9  296.87   10.68   1
  -4   3  10   16.16    2.49   1
  -4   3  11   28.84    3.65   1
  -4   3  12  146.17    9.43   1
  -4   3  13  272.91   19.49   1
  -4   3  14   53.14    6.27   1
  -4   4  -9   58.68    5.67   1
  -4   4  -8   41.86    3.88   1
  -4   4  -7  184.14   10.86   1
  -4   4  -6   27.98    2.43   1
  -4   4  -5  131.56    5.51   1
  -4   4  -4   21.16    1.56   1
  -4   4  -3   10.50    1.23   1
  -4   4  -2  490.18   13.28   1
  -4   4  -1  420.66   12.31   1
  -4   4   0   42.25    1.95   1
  -4   4   1   99.20    3.59   1
  -4   4   2   84.82    2.95   1
  -4   4   3  118.16    4.13   1
  -4   4   4  256.32    7.68   1
  -4   4   5  299.98    8.66   1
  -4   4   6  408.85   12.94   1
  -4   4   7   31.92    1.81   1
  -4   4   8   58.98    3.23   1
  -4   4   9   72.08    4.41   1
  -4   4  10   13.76    2.82   1
  -4   4  11  131.10    9.39   1
  -4   4  12   80.82    6.29   1
  -4   4  13   56.40    7.06   1
  -4   5  -7   98.21   10.50   1
  -4   5  -6    9.42    3.13   1
  -4   5  -5   51.55    4.16   1
  -4   5  -4   17.22    2.82   1
  -4   5  -3   19.80    1.69   1
  -4   5  -2   49.70    2.40   1
  -4   5  -1   91.97    4.60   1
  -4   5   0   32.83    2.29   1
  -4   5   1  181.98    7.82   1
  -4   5   2  221.41    9.52   1
  -4   5   3   36.24    2.05   1
  -4   5   4   97.42    4.74   1
  -4   5   5   37.95    2.34   1
  -4   5   6  343.73   14.83   1
  -4   5   7    7.18    2.20   1
  -4   5   8    9.99    3.29   1
  -4   5   9   29.92    3.94   1
  -4   5  10   36.24    4.70   1
  -4   5  11   34.69    4.59   1
  -4   5  12   19.62    3.63   1
  -4   6  -4  164.87   17.72   1
  -4   6  -3   62.73    6.34   1
  -4   6  -2    8.88    2.21   1
  -4   6  -1   10.50    3.82   1
  -4   6   0   24.40    3.06   1
  -4   6   1   98.21    7.93   1
  -4   6   2    7.18    2.41   1
  -4   6   3    1.59    2.39   1
  -4   6   4    7.90    2.42   1
  -4   6   5   81.72    6.87   1
  -4   6   6   54.76    4.88   1
  -4   6   7   99.20    8.57   1
  -4   6   8   19.54    2.83   1
  -4   6   9  143.52   13.90   1
  -3  -9  -8    1.21    2.82   1
  -3  -9  -7  142.32   11.21   1
  -3  -9  -6    4.58    2.78   1
  -3  -9  -5   37.45    5.02   1
  -3  -9  -4   55.95    6.28   1
  -3  -9  -3  113.00    8.50   1
  -3  -9  -2   35.05    4.97   1
  -3  -9  -1   30.14   15.26   1
  -3  -9   0   48.16   10.69   1
  -3  -9   1   58.37    6.26   1
  -3  -9   2   78.85    8.35   1
  -3  -9   3   43.43    6.33   1
  -3  -8 -10   44.62    5.88   1
  -3  -8  -9   58.68    6.74   1
  -3  -8  -8   63.68    6.06   1
  -3  -8  -7   69.06    5.65   1
  -3  -8  -6  131.79    5.97   1
  -3  -8  -5    7.67    1.77   1
  -3  -8  -4   11.29    1.48   1
  -3  -8  -3   16.16    2.01   1
  -3  -8  -2   31.02    3.12   1
  -3  -8  -1  293.78   16.11   1
  -3  -8   0   45.43    3.10   1
  -3  -8   1   17.47    2.09   1
  -3  -8   2  161.04    7.87   1
  -3  -8   3   66.75    4.74   1
  -3  -8   4   -0.50    2.22   1
  -3  -8   5   39.82    4.67   1
  -3  -8   6   97.81    9.69   1
  -3  -8   7  181.98   15.38   1
  -3  -7 -14   -2.89    2.79   1
  -3  -7 -13    8.12    2.39   1
  -3  -7 -12  158.76    7.06   1
  -3  -7 -11   18.92    1.74   1
  -3  -7 -10   68.72    2.98   1
  -3  -7  -9   36.48    2.17   1
  -3  -7  -8  140.19    6.16   1
  -3  -7  -7   67.73    2.96   1
  -3  -7  -6    8.53    0.88   1
  -3  -7  -5  277.89    7.00   1
  -3  -7  -4   98.60    2.98   1
  -3  -7  -3  164.61    5.90   1
  -3  -7  -2  292.07    9.23   1
  -3  -7  -1   62.88    2.85   1
  -3  -7   0  143.28    5.27   1
  -3  -7   1    5.71    1.63   1
  -3  -7   2   23.33    1.93   1
  -3  -7   3   40.70    2.55   1
  -3  -7   4    2.79    1.40   1
  -3  -7   5  155.00    6.22   1
  -3  -7   6   59.44    3.70   1
  -3  -7   7   58.83    3.99   1
  -3  -7   8   57.46    6.22   1
  -3  -7   9   42.25    4.42   1
  -3  -6 -15    8.01    3.91   1
  -3  -6 -14   26.32    2.87   1
  -3  -6 -13  119.03    5.89   1
  -3  -6 -12   47.47    3.03   1
  -3  -6 -11   23.62    1.94   1
  -3  -6 -10  131.79    5.74   1
  -3  -6  -9  326.16   10.84   1
  -3  -6  -8  484.88   16.74   1
  -3  -6  -7  196.28    5.32   1
  -3  -6  -6  259.21    6.76   1
  -3  -6  -5  228.61    6.96   1
  -3  -6  -4  572.17   12.92   1
  -3  -6  -3   26.11    1.02   1
  -3  -6  -2   54.46    2.07   1
  -3  -6  -1  122.77    3.99   1
  -3  -6   0  547.09   14.97   1
  -3  -6   1  177.96    5.60   1
  -3  -6   2  398.40   12.77   1
  -3  -6   3  236.54    7.07   1
  -3  -6   4  238.70    8.65   1
  -3  -6   5  124.99    4.70   1
  -3  -6   6   15.21    1.17   1
  -3  -6   7  222.90    6.27   1
  -3  -6   8   87.42    4.49   1
  -3  -6   9   91.58    5.17   1
  -3  -6  10  119.68    9.41   1
  -3  -6  11  114.06    8.12   1
  -3  -5 -16   20.70    4.46   1
  -3  -5 -15   89.68    7.01   1
  -3  -5 -14  121.00    9.46   1
  -3  -5 -13    7.02    1.91   1
  -3  -5 -12  121.88    5.30   1
  -3  -5 -11  122.99    3.99   1
  -3  -5 -10  729.00   18.90   1
  -3  -5  -9  142.09    4.05   1
  -3  -5  -8  133.63    3.93   1
  -3  -5  -7  265.04    6.51   1
  -3  -5  -6   45.29    1.35   1
  -3  -5  -5  671.85   15.03   1
  -3  -5  -4  551.31   10.33   1
  -3  -5  -3   76.04    1.74   1
  -3  -5  -2  258.57    5.47   1
  -3  -5  -1  189.61    4.68   1
  -3  -5   0  291.04    6.82   1
  -3  -5   1 1100.91   27.21   1
  -3  -5   2  534.07   12.02   1
  -3  -5   3  415.34    9.37   1
  -3  -5   4   30.25    1.32   1
  -3  -5   5  583.22   14.01   1
  -3  -5   6   40.83    1.66   1
  -3  -5   7   13.40    1.17   1
  -3  -5   8  595.36   15.13   1
  -3  -5   9   57.76    2.28   1
  -3  -5  10   47.89    3.18   1
  -3  -5  11   35.28    3.45   1
  -3  -5  12   64.96    6.61   1
  -3  -5  13   10.18    2.49   1
  -3  -4 -16   11.22    3.68   1
  -3  -4 -15   18.92    2.87   1
  -3  -4 -14  103.43    6.51   1
  -3  -4 -13    8.12    1.99   1
  -3  -4 -12    7.40    1.69   1
  -3  -4 -11    2.99    0.69   1
  -3  -4 -10   72.76    2.56   1
  -3  -4  -9  266.67    5.55   1
  -3  -4  -8  279.56    5.35   1
  -3  -4  -7  135.02    2.79   1
  -3  -4  -6  179.56    3.48   1
  -3  -4  -5   65.77    1.78   1
  -3  -4  -4  412.90    8.53   1
  -3  -4  -3  157.50    3.51   1
  -3  -4  -2 1103.57   16.61   1
  -3  -4  -1  529.00   10.12   1
  -3  -4   0  181.17    4.04   1
  -3  -4   1  378.30    8.56   1
  -3  -4   2  340.40    6.27   1
  -3  -4   3  312.94    6.01   1
  -3  -4   4  148.84    3.17   1
  -3  -4   5  332.70    7.30   1
  -3  -4   6   58.83    1.53   1
  -3  -4   7  105.68    2.67   1
  -3  -4   8   87.05    2.43   1
  -3  -4   9  119.03    3.71   1
  -3  -4  10  108.16    3.95   1
  -3  -4  11   55.80    2.84   1
  -3  -4  12    8.88    1.49   1
  -3  -4  13  224.40   11.68   1
  -3  -4  14  160.78    9.13   1
  -3  -3 -16    1.80    1.90   1
  -3  -3 -15  178.49   11.22   1
  -3  -3 -14  116.64    6.48   1
  -3  -3 -13   33.18    2.76   1
  -3  -3 -12  105.47    4.31   1
  -3  -3 -11   11.90    0.90   1
  -3  -3 -10  481.80   10.98   1
  -3  -3  -9  567.39   10.00   1
  -3  -3  -8    8.01    0.51   1
  -3  -3  -7  794.11   12.96   1
  -3  -3  -6  397.60    6.78   1
  -3  -3  -5  621.50   10.97   1
  -3  -3  -4  111.30    2.11   1
  -3  -3  -3  708.09   12.24   1
  -3  -3  -1 1779.15   31.21   1
  -3  -3   0  134.33    2.78   1
  -3  -3   1  141.61    3.09   1
  -3  -3   2  267.32    4.91   1
  -3  -3   3  116.64    2.16   1
  -3  -3   4    3.10    0.32   1
  -3  -3   5  563.11   10.44   1
  -3  -3   6    3.69    0.50   1
  -3  -3   7    0.71    0.40   1
  -3  -3   8  629.51   15.56   1
  -3  -3   9   25.60    1.21   1
  -3  -3  10   58.98    2.15   1
  -3  -3  11   20.52    1.27   1
  -3  -3  12  142.80    6.21   1
  -3  -3  13  122.32    6.64   1
  -3  -3  14    4.20    1.60   1
  -3  -3  15    6.50    2.60   1
  -3  -2 -16  136.42    9.81   1
  -3  -2 -15   43.30    3.29   1
  -3  -2 -14   54.32    3.24   1
  -3  -2 -13    5.11    1.40   1
  -3  -2 -12   64.80    3.06   1
  -3  -2 -11   77.62    4.58   1
  -3  -2 -10  247.43    8.81   1
  -3  -2  -9   20.98    0.82   1
  -3  -2  -8   24.01    0.88   1
  -3  -2  -7  447.75    7.19   1
  -3  -2  -6  595.36    9.76   1
  -3  -2  -5    8.41    0.41   1
  -3  -2  -4  194.60    3.07   1
  -3  -2  -3   95.06    1.56   1
  -3  -2  -2  556.02    8.49   1
  -3  -2  -1  210.83    3.19   1
  -3  -2   0  701.19   11.12   1
  -3  -2   1  201.92    3.98   1
  -3  -2   2  251.22    4.76   1
  -3  -2   3  404.81    6.84   1
  -3  -2   4  661.00   13.88   1
  -3  -2   5   64.80    1.61   1
  -3  -2   6  273.90    5.63   1
  -3  -2   7  261.79    4.85   1
  -3  -2   8  180.10    4.03   1
  -3  -2   9   38.94    1.37   1
  -3  -2  10   48.30    1.67   1
  -3  -2  11   17.89    1.10   1
  -3  -2  12  117.07    5.63   1
  -3  -2  13  145.68    6.52   1
  -3  -2  14   32.83    2.98   1
  -3  -2  15   21.62    2.98   1
  -3  -1 -16  152.03   13.81   1
  -3  -1 -15   41.34    3.60   1
  -3  -1 -14   32.60    2.63   1
  -3  -1 -13    6.40    1.62   1
  -3  -1 -12  330.51   13.82   1
  -3  -1 -11  311.17   10.23   1
  -3  -1 -10   49.28    1.97   1
  -3  -1  -9  128.82    3.86   1
  -3  -1  -8  272.25    5.94   1
  -3  -1  -7  623.00   15.48   1
  -3  -1  -6   41.86    1.29   1
  -3  -1  -5  114.92    2.57   1
  -3  -1  -4  105.47    1.64   1
  -3  -1  -3  127.92    1.81   1
  -3  -1  -2  602.70    8.35   1
  -3  -1  -1  932.69   12.22   1
  -3  -1   0 1238.34   16.19   1
  -3  -1   1  349.69    5.24   1
  -3  -1   2  442.68    7.57   1
  -3  -1   3  259.53    4.51   1
  -3  -1   4  519.38    8.20   1
  -3  -1   5  450.29    7.64   1
  -3  -1   6   55.50    1.34   1
  -3  -1   7  123.88    2.67   1
  -3  -1   8  230.43    4.86   1
  -3  -1   9  291.38    7.17   1
  -3  -1  10  596.82   15.64   1
  -3  -1  11  141.61    4.05   1
  -3  -1  12    5.20    1.19   1
  -3  -1  13   59.29    3.70   1
  -3  -1  14   85.19    6.09   1
  -3  -1  15  255.36   20.13   1
  -3  -1  16   21.81    3.64   1
  -3   0 -15   19.36    3.52   1
  -3   0 -14   13.99    2.32   1
  -3   0 -13   74.13    3.79   1
  -3   0 -12   35.88    2.64   1
  -3   0 -11    8.58    1.29   1
  -3   0 -10  175.30    5.03   1
  -3   0  -9   99.00    3.18   1
  -3   0  -8   36.60    1.57   1
  -3   0  -7  261.79    6.15   1
  -3   0  -6  606.64   11.82   1
  -3   0  -5   32.95    1.03   1
  -3   0  -4  451.56    6.80   1
  -3   0  -3  234.70    3.37   1
  -3   0  -2 1225.70   18.21   1
  -3   0  -1   62.73    1.11   1
  -3   0   0  236.24    3.38   1
  -3   0   1  111.30    1.69   1
  -3   0   2  709.16   10.12   1
  -3   0   3  875.57   15.39   1
  -3   0   4  941.88   17.19   1
  -3   0   5  274.56    4.97   1
  -3   0   6  640.09   10.63   1
  -3   0   7  209.67    4.05   1
  -3   0   8  105.68    2.47   1
  -3   0   9  200.79    4.53   1
  -3   0  10   91.78    2.30   1
  -3   0  11  264.06    8.45   1
  -3   0  12   12.39    2.18   1
  -3   0  13   30.25    3.19   1
  -3   0  14   30.80    3.00   1
  -3   0  15  261.47   21.02   1
  -3   0  16   62.88    6.34   1
  -3   1 -15   18.23    4.01   1
  -3   1 -14   29.70    2.94   1
  -3   1 -13  230.13    9.41   1
  -3   1 -12   73.44    3.94   1
  -3   1 -11   64.16    3.04   1
  -3   1 -10  110.46    3.99   1
  -3   1  -9  290.70    8.87   1
  -3   1  -8   29.48    1.52   1
  -3   1  -7  239.32    5.57   1
  -3   1  -6  139.24    3.30   1
  -3   1  -5   79.57    1.61   1
  -3   1  -4  393.63    6.35   1
  -3   1  -3  152.52    2.47   1
  -3   1  -2  389.67    5.53   1
  -3   1  -1  234.70    3.37   1
  -3   1   0 4008.16   67.11   1
  -3   1   1 1943.93   35.27   1
  -3   1   2  373.65    6.57   1
  -3   1   3  500.42    8.95   1
  -3   1   4 1532.72   26.62   1
  -3   1   5 1188.18   25.51   1
  -3   1   6  525.33   11.46   1
  -3   1   7  405.62    9.26   1
  -3   1   8   42.25    1.56   1
  -3   1   9  111.72    3.17   1
  -3   1  10  422.71   10.28   1
  -3   1  11  126.56    4.95   1
  -3   1  12    4.71    2.39   1
  -3   1  13  172.66   10.77   1
  -3   1  14   38.69    3.86   1
  -3   1  15  207.94   10.67   1
  -3   1  16   87.24    5.98   1
  -3   2 -14   66.26    7.65   1
  -3   2 -13   44.36    4.40   1
  -3   2 -12   50.13    3.26   1
  -3   2 -11    1.30    1.30   1
  -3   2 -10   35.28    2.38   1
  -3   2  -9  485.32   14.10   1
  -3   2  -8  340.03   10.33   1
  -3   2  -7   12.89    1.01   1
  -3   2  -6   14.67    1.07   1
  -3   2  -5   48.02    1.39   1
  -3   2  -4  595.85   10.74   1
  -3   2  -3   60.37    1.24   1
  -3   2  -2   65.45    1.29   1
  -3   2  -1  462.25    8.60   1
  -3   2   0  138.06    2.59   1
  -3   2   1  184.69    2.99   1
  -3   2   2  103.63    1.83   1
  -3   2   3   90.25    1.90   1
  -3   2   4  881.50   16.03   1
  -3   2   5  207.94    4.04   1
  -3   2   6  428.08    8.28   1
  -3   2   7  176.62    3.99   1
  -3   2   8   94.87    2.73   1
  -3   2   9  919.30   24.26   1
  -3   2  10  311.17    9.17   1
  -3   2  11   57.76    2.28   1
  -3   2  12  186.87    7.93   1
  -3   2  13   89.30    4.16   1
  -3   2  14  136.19    7.00   1
  -3   2  15   74.82    4.84   1
  -3   2  16    1.49    1.78   1
  -3   3 -13    2.69    2.89   1
  -3   3 -12   52.56    5.65   1
  -3   3 -11   39.94    2.78   1
  -3   3 -10  295.84   12.38   1
  -3   3  -9   16.16    2.01   1
  -3   3  -8  124.77    4.69   1
  -3   3  -7   29.27    1.73   1
  -3   3  -6  954.19   29.04   1
  -3   3  -5  219.04    6.81   1
  -3   3  -4  883.28   19.02   1
  -3   3  -3  351.56    7.12   1
  -3   3  -2  631.01   12.56   1
  -3   3  -1   75.69    1.74   1
  -3   3   0  131.10    2.75   1
  -3   3   1  208.80    4.34   1
  -3   3   2   97.02    2.36   1
  -3   3   3   60.84    1.72   1
  -3   3   4   58.37    1.38   1
  -3   3   5  874.38   18.33   1
  -3   3   6  492.40   10.21   1
  -3   3   7  640.60   13.16   1
  -3   3   8  292.75    6.50   1
  -3   3   9  885.66   20.83   1
  -3   3  10   79.39    3.03   1
  -3   3  11   66.26    2.77   1
  -3   3  12    1.99    0.90   1
  -3   3  13  281.90   17.46   1
  -3   3  14   91.97    7.29   1
  -3   3  15   16.89    2.96   1
  -3   4 -11  193.21   18.90   1
  -3   4 -10  145.68    9.17   1
  -3   4  -9   50.55    3.70   1
  -3   4  -8   73.62    4.12   1
  -3   4  -7   18.40    2.23   1
  -3   4  -6  320.05   12.52   1
  -3   4  -5   14.98    1.32   1
  -3   4  -4   80.64    3.41   1
  -3   4  -3  351.56    8.62   1
  -3   4  -2  138.77    3.53   1
  -3   4  -1  322.92    7.55   1
  -3   4   0   52.85    1.89   1
  -3   4   1  137.83    3.76   1
  -3   4   2   27.46    1.26   1
  -3   4   3   84.46    2.94   1
  -3   4   4  327.25    8.32   1
  -3   4   5  619.01   16.42   1
  -3   4   6  278.22    7.67   1
  -3   4   7  153.51    5.45   1
  -3   4   8    5.52    1.50   1
  -3   4   9  145.20    5.78   1
  -3   4  10   76.04    5.23   1
  -3   4  11   12.60    2.98   1
  -3   4  12   14.67    2.60   1
  -3   4  13  121.00    9.68   1
  -3   4  14   43.56    5.54   1
  -3   4  15   13.69    3.33   1
  -3   5  -9   45.29    6.86   1
  -3   5  -8    3.10    3.20   1
  -3   5  -7   -0.71    1.92   1
  -3   5  -6  282.91   13.12   1
  -3   5  -5    7.02    1.80   1
  -3   5  -4   63.36    3.66   1
  -3   5  -3  148.60    7.31   1
  -3   5  -2  100.60    3.21   1
  -3   5  -1   71.23    3.04   1
  -3   5   0   11.97    1.18   1
  -3   5   1   42.90    1.83   1
  -3   5   2   83.36    2.74   1
  -3   5   3  109.62    4.40   1
  -3   5   4   43.30    1.97   1
  -3   5   5   94.09    3.69   1
  -3   5   6   47.47    2.34   1
  -3   5   7  517.11   14.10   1
  -3   5   8   64.80    4.03   1
  -3   5   9   12.60    2.70   1
  -3   5  10   31.70    3.49   1
  -3   5  11   56.25    5.25   1
  -3   5  12  114.70    8.57   1
  -3   5  13   38.44    4.34   1
  -3   6  -6   31.58    4.38   1
  -3   6  -5  102.01    6.87   1
  -3   6  -4   31.58    2.92   1
  -3   6  -3   28.73    2.89   1
  -3   6  -2   39.44    2.26   1
  -3   6  -1  245.24   10.96   1
  -3   6   0    3.20    1.22   1
  -3   6   1   44.49    2.13   1
  -3   6   2    8.01    1.30   1
  -3   6   3    8.58    1.58   1
  -3   6   4   89.30    4.16   1
  -3   6   5   18.58    2.93   1
  -3   6   6  104.24    5.92   1
  -3   6   7  115.78    7.96   1
  -3   6   8   41.86    4.66   1
  -3   6   9   37.33    4.64   1
  -3   6  10   23.62    3.40   1
  -3   6  11   10.11    2.80   1
  -3   7  -2   48.16    6.52   1
  -3   7  -1    4.00    2.72   1
  -3   7   0   15.52    3.70   1
  -3   7   1   67.57    5.59   1
  -3   7   2   32.83    3.78   1
  -3   7   3   33.06    3.80   1
  -3   7   4   19.54    3.80   1
  -3   7   5   28.94    3.98   1
  -3   7   6   78.15    7.25   1
  -3   7   7   43.82    5.83   1
  -3   7   8   24.50    4.06   1
  -2  -9  -8  126.11   10.78   1
  -2  -9  -7   15.29    4.38   1
  -2  -9  -6   73.27    7.88   1
  -2  -9  -5   42.64    4.83   1
  -2  -9  -4    6.30    2.51   1
  -2  -9  -3  114.49   10.70   1
  -2  -9  -2   33.41    4.39   1
  -2  -9  -1   15.52    3.47   1
  -2  -9   0   58.68    4.44   1
  -2  -9   1   24.60    4.17   1
  -2  -9   2   55.06    6.68   1
  -2  -8  -9   15.52    3.47   1
  -2  -8  -8    8.01    3.23   1
  -2  -8  -7   81.54    6.32   1
  -2  -8  -6   31.02    2.56   1
  -2  -8  -5  109.83    4.19   1
  -2  -8  -4   38.44    2.36   1
  -2  -8  -3  149.33    6.35   1
  -2  -8  -2   14.67    1.99   1
  -2  -8  -1   95.06    4.49   1
  -2  -8   0   41.73    2.84   1
  -2  -8   1   53.44    3.22   1
  -2  -8   2   38.44    2.98   1
  -2  -8   3   61.15    4.38   1
  -2  -8   4   16.89    2.38   1
  -2  -8   5   14.67    2.91   1
  -2  -8   6   35.40    4.64   1
  -2  -7 -14   46.10    3.94   1
  -2  -7 -13    0.90    1.71   1
  -2  -7 -12    5.29    1.61   1
  -2  -7 -11   36.24    2.65   1
  -2  -7 -10   64.32    3.21   1
  -2  -7  -9    2.59    1.09   1
  -2  -7  -8   22.09    1.69   1
  -2  -7  -7  141.37    8.32   1
  -2  -7  -6   33.18    1.61   1
  -2  -7  -5  151.78    4.44   1
  -2  -7  -4  690.64   15.77   1
  -2  -7  -3  542.42   14.44   1
  -2  -7  -2  102.82    3.04   1
  -2  -7  -1  191.27    6.09   1
  -2  -7   0  322.92   10.06   1
  -2  -7   1   62.41    3.00   1
  -2  -7   2  284.60    9.78   1
  -2  -7   3  132.25    5.06   1
  -2  -7   4    2.89    1.39   1
  -2  -7   5   19.80    1.96   1
  -2  -7   6   37.95    2.96   1
  -2  -7   7   74.65    4.67   1
  -2  -7   8  127.69   22.15   1
  -2  -7   9   19.18    4.03   1
  -2  -6 -15  175.83   15.12   1
  -2  -6 -14   31.02    3.01   1
  -2  -6 -13   58.37    3.82   1
  -2  -6 -12   85.19    4.98   1
  -2  -6 -11   36.36    2.41   1
  -2  -6 -10    9.42    1.11   1
  -2  -6  -9   55.06    1.93   1
  -2  -6  -8  114.28    2.99   1
  -2  -6  -7  127.46    4.74   1
  -2  -6  -6   31.47    1.35   1
  -2  -6  -5   26.73    1.14   1
  -2  -6  -4 1194.39   27.65   1
  -2  -6  -3  373.65    7.73   1
  -2  -6  -2   89.68    2.84   1
  -2  -6  -1  272.25    8.25   1
  -2  -6   0  836.94   22.57   1
  -2  -6   1  374.42   10.84   1
  -2  -6   2  338.93   10.31   1
  -2  -6   3    0.10    1.22   1
  -2  -6   4   25.81    1.93   1
  -2  -6   5    3.20    1.29   1
  -2  -6   6  292.75    9.92   1
  -2  -6   7   58.83    3.53   1
  -2  -6   8   73.44    3.94   1
  -2  -6   9   19.89    2.59   1
  -2  -6  10   79.74    6.25   1
  -2  -6  11   57.15    7.11   1
  -2  -5 -16   34.22    3.63   1
  -2  -5 -15   64.16    5.61   1
  -2  -5 -14   81.54    5.42   1
  -2  -5 -13   77.44    4.22   1
  -2  -5 -12   73.44    3.43   1
  -2  -5 -11   26.11    1.53   1
  -2  -5 -10   46.24    1.63   1
  -2  -5  -9   73.44    2.57   1
  -2  -5  -8  134.10    3.71   1
  -2  -5  -7   95.26    2.93   1
  -2  -5  -6   59.29    1.54   1
  -2  -5  -5   59.14    1.38   1
  -2  -5  -4  240.87    5.28   1
  -2  -5  -3   55.35    1.34   1
  -2  -5  -2  631.52   12.56   1
  -2  -5  -1   28.52    0.96   1
  -2  -5   0  418.61    9.82   1
  -2  -5   1  255.36    5.75   1
  -2  -5   2  554.13   13.18   1
  -2  -5   3  321.13    7.88   1
  -2  -5   4  266.67    6.21   1
  -2  -5   5   30.80    1.33   1
  -2  -5   6  326.52    7.95   1
  -2  -5   7  101.00    3.22   1
  -2  -5   8   19.54    1.41   1
  -2  -5   9   49.28    3.23   1
  -2  -5  10   45.43    3.10   1
  -2  -5  11  196.84   12.91   1
  -2  -5  12   78.15    7.43   1
  -2  -5  13    2.50    2.09   1
  -2  -4 -16    6.50    2.91   1
  -2  -4 -15   30.25    3.52   1
  -2  -4 -14  392.83   20.22   1
  -2  -4 -13  364.81   19.10   1
  -2  -4 -12    3.39    1.10   1
  -2  -4 -11   32.60    1.26   1
  -2  -4 -10   41.09    1.41   1
  -2  -4  -9 1240.45   23.95   1
  -2  -4  -8  627.00   11.52   1
  -2  -4  -7  349.32    7.85   1
  -2  -4  -6  384.16    7.84   1
  -2  -4  -5    6.81    0.52   1
  -2  -4  -4 2024.10   39.59   1
  -2  -4  -3 1119.57   19.41   1
  -2  -4  -2    7.62    0.50   1
  -2  -4  -1  690.11   13.66   1
  -2  -4   0  834.63   17.33   1
  -2  -4   1  161.04    3.55   1
  -2  -4   2  185.23    3.81   1
  -2  -4   3   55.80    1.34   1
  -2  -4   4    8.70    0.71   1
  -2  -4   5  154.50    3.48   1
  -2  -4   6  448.59    9.74   1
  -2  -4   7    5.20    0.50   1
  -2  -4   8  129.73    3.42   1
  -2  -4   9  278.22    7.01   1
  -2  -4  10   45.16    2.02   1
  -2  -4  11  132.94    6.00   1
  -2  -4  12   16.08    1.92   1
  -2  -4  13  115.78    5.81   1
  -2  -4  14    3.69    2.38   1
  -2  -3 -17   28.30    4.15   1
  -2  -3 -16   47.33    5.09   1
  -2  -3 -15   18.32    2.40   1
  -2  -3 -14  136.42    6.31   1
  -2  -3 -13   73.27    3.94   1
  -2  -3 -12   10.50    1.10   1
  -2  -3 -11   23.91    1.37   1
  -2  -3 -10  128.82    3.41   1
  -2  -3  -9  125.44    2.69   1
  -2  -3  -8  491.07    8.86   1
  -2  -3  -7   16.08    0.56   1
  -2  -3  -6  372.49    6.95   1
  -2  -3  -5   37.95    0.86   1
  -2  -3  -4  602.70   12.27   1
  -2  -3  -3  254.72    5.43   1
  -2  -3  -2   54.17    1.18   1
  -2  -3  -1  114.28    2.14   1
  -2  -3   0  876.16   20.13   1
  -2  -3   1  331.24    5.82   1
  -2  -3   2  413.31    7.32   1
  -2  -3   3    9.67    0.50   1
  -2  -3   4  519.84    9.12   1
  -2  -3   5  696.96   11.09   1
  -2  -3   6  118.59    2.40   1
  -2  -3   7   13.18    0.73   1
  -2  -3   8  220.52    5.64   1
  -2  -3   9   51.41    1.86   1
  -2  -3  10  106.09    3.50   1
  -2  -3  11   72.76    2.73   1
  -2  -3  12    8.88    1.67   1
  -2  -3  13   65.61    3.56   1
  -2  -3  14  103.63    6.72   1
  -2  -3  15   35.64    3.46   1
  -2  -2 -17   13.03    4.91   1
  -2  -2 -16   29.48    2.93   1
  -2  -2 -15  121.00    8.36   1
  -2  -2 -14  183.87    8.41   1
  -2  -2 -13  256.64    9.61   1
  -2  -2 -12   17.89    1.69   1
  -2  -2 -11  580.81   14.94   1
  -2  -2 -10  109.41    2.72   1
  -2  -2  -9  131.10    3.21   1
  -2  -2  -8    1.30    0.41   1
  -2  -2  -7   36.36    0.84   1
  -2  -2  -6   80.82    1.62   1
  -2  -2  -5   29.59    0.65   1
  -2  -2  -4  497.74    8.03   1
  -2  -2  -3 1278.06   20.73   1
  -2  -2  -2  230.13    3.64   1
  -2  -2  -1 1900.09   36.62   1
  -2  -2   0  725.76   14.01   1
  -2  -2   1  372.10    7.33   1
  -2  -2   2  593.90   11.21   1
  -2  -2   3 1127.62   19.48   1
  -2  -2   4   41.73    1.03   1
  -2  -2   5  321.84    6.46   1
  -2  -2   6   77.44    2.11   1
  -2  -2   7  243.36    4.68   1
  -2  -2   8  658.44   11.80   1
  -2  -2   9   12.89    0.72   1
  -2  -2  10  370.95    9.24   1
  -2  -2  11    5.38    0.70   1
  -2  -2  12    6.00    0.88   1
  -2  -2  13  143.76    6.71   1
  -2  -2  14   34.93    3.07   1
  -2  -2  15   13.32    2.92   1
  -2  -2  16  114.49    9.42   1
  -2  -1 -17   47.89    5.95   1
  -2  -1 -16  181.98   10.25   1
  -2  -1 -15  109.20    5.64   1
  -2  -1 -14   18.58    2.07   1
  -2  -1 -13   26.01    2.04   1
  -2  -1 -12    4.08    1.09   1
  -2  -1 -11  119.25    4.37   1
  -2  -1 -10  108.78    3.75   1
  -2  -1  -9  253.76    5.73   1
  -2  -1  -8   23.04    0.96   1
  -2  -1  -7  333.79    6.21   1
  -2  -1  -6 1152.60   21.73   1
  -2  -1  -5  472.63    8.70   1
  -2  -1  -4  178.49    3.21   1
  -2  -1  -3  144.24    2.16   1
  -2  -1  -2   81.18    1.26   1
  -2  -1  -1  209.09    3.18   1
  -2  -1   0 1074.53   17.05   1
  -2  -1   1  409.66    7.29   1
  -2  -1   2  512.12    9.05   1
  -2  -1   3  211.70    4.37   1
  -2  -1   4 2538.14   47.36   1
  -2  -1   5   41.09    1.03   1
  -2  -1   6   67.40    1.48   1
  -2  -1   7  731.16   14.06   1
  -2  -1   8 1360.87   28.04   1
  -2  -1   9    3.88    0.59   1
  -2  -1  10  119.90    3.50   1
  -2  -1  11   63.68    2.39   1
  -2  -1  12  134.33    5.56   1
  -2  -1  13  176.89   15.69   1
  -2  -1  14   67.08    4.42   1
  -2  -1  15   45.43    4.72   1
  -2  -1  16   82.63    5.64   1
  -2   0 -16   31.92    4.63   1
  -2   0 -15   88.92    5.28   1
  -2   0 -14   42.77    3.01   1
  -2   0 -13   65.12    3.55   1
  -2   0 -12  135.02    6.51   1
  -2   0 -11   60.68    3.43   1
  -2   0 -10  103.43    3.46   1
  -2   0  -9   14.52    0.91   1
  -2   0  -8  550.84   12.67   1
  -2   0  -7  593.90   12.67   1
  -2   0  -6  233.17    5.19   1
  -2   0  -5  502.21   10.31   1
  -2   0  -4  392.44    8.32   1
  -2   0  -3  427.66    6.62   1
  -2   0  -2 2151.10   30.61   1
  -2   0   0 1160.08   17.71   1
  -2   0   2  446.05    8.45   1
  -2   0   3 1503.89   27.92   1
  -2   0   4 1306.10   25.30   1
  -2   0   5 1804.55   31.44   1
  -2   0   6  849.72   15.74   1
  -2   0   7  944.33   16.59   1
  -2   0   8  337.46    6.25   1
  -2   0   9  180.90    4.04   1
  -2   0  10  285.95    6.43   1
  -2   0  11 1743.06   44.25   1
  -2   0  12   30.58    1.99   1
  -2   0  13   60.84    3.59   1
  -2   0  14    9.67    1.99   1
  -2   0  15   85.56    4.26   1
  -2   0  16  354.57   19.21   1
  -2   0  17  149.08    9.52   1
  -2   1 -16  137.12   16.16   1
  -2   1 -15   28.73    4.40   1
  -2   1 -14   -1.21    1.72   1
  -2   1 -13  100.00    5.00   1
  -2   1 -12   80.28    3.76   1
  -2   1 -11  349.32   12.34   1
  -2   1 -10  112.78    4.04   1
  -2   1  -9   37.70    1.60   1
  -2   1  -8  223.80    6.58   1
  -2   1  -7   44.62    1.47   1
  -2   1  -6  151.04    3.44   1
  -2   1  -5  117.51    2.60   1
  -2   1  -4   83.91    1.65   1
  -2   1  -3  322.56    4.67   1
  -2   1  -2  192.93    3.33   1
  -2   1  -1  192.38    3.33   1
  -2   1   0  392.83    5.95   1
  -2   1   1  309.06    5.63   1
  -2   1   2 2588.77   43.76   1
  -2   1   3  203.06    3.99   1
  -2   1   4 1178.55   25.40   1
  -2   1   5  433.47    8.33   1
  -2   1   6 1232.01   21.76   1
  -2   1   7  481.80    8.78   1
  -2   1   8   28.20    1.06   1
  -2   1   9  128.60    3.18   1
  -2   1  10  745.84   17.48   1
  -2   1  11  389.27   10.26   1
  -2   1  12   33.87    2.10   1
  -2   1  13  231.65    8.83   1
  -2   1  14   21.53    1.67   1
  -2   1  15  258.57    9.65   1
  -2   1  16   22.37    2.37   1
  -2   1  17   67.40    4.27   1
  -2   2 -15   -0.79    2.58   1
  -2   2 -14   27.88    4.75   1
  -2   2 -13   40.58    3.06   1
  -2   2 -12  188.51    8.79   1
  -2   2 -11   67.08    3.28   1
  -2   2 -10   34.46    2.58   1
  -2   2  -9  948.64   26.49   1
  -2   2  -8  661.00   16.45   1
  -2   2  -7  104.65    3.07   1
  -2   2  -6 1288.09   25.84   1
  -2   2  -5 1604.00   29.64   1
  -2   2  -4 2007.04   35.84   1
  -2   2  -3  489.29    7.08   1
  -2   2  -2  790.73   12.94   1
  -2   2  -1  171.87    2.88   1
  -2   2   0  756.25   13.20   1
  -2   2   1  863.77   15.87   1
  -2   2   2  830.02   13.83   1
  -2   2   3  386.91    6.29   1
  -2   2   4  604.67   10.33   1
  -2   2   5  478.30    9.62   1
  -2   2   6 1812.20   41.72   1
  -2   2   7 2193.99   45.90   1
  -2   2   8  921.73   17.61   1
  -2   2   9   62.09    1.73   1
  -2   2  10  584.19   13.54   1
  -2   2  11 1089.66   26.41   1
  -2   2  12   26.83    1.66   1
  -2   2  13   49.84    2.68   1
  -2   2  14  153.76    5.46   1
  -2   2  15   45.56    3.24   1
  -2   2  16   37.95    3.45   1
  -2   2  17    3.69    2.11   1
  -2   3 -14   39.69    5.80   1
  -2   3 -13  117.72    9.98   1
  -2   3 -12   39.44    2.89   1
  -2   3 -11    0.10    1.52   1
  -2   3 -10  197.12    8.70   1
  -2   3  -9  202.21    7.11   1
  -2   3  -8  140.19    4.50   1
  -2   3  -7  671.33   18.14   1
  -2   3  -6  298.94    9.34   1
  -2   3  -5  227.41    5.73   1
  -2   3  -4  379.47    7.01   1
  -2   3  -3  356.83    5.67   1
  -2   3  -2  407.64    6.86   1
  -2   3  -1  454.97    8.96   1
  -2   3   0  211.99    4.37   1
  -2   3   1   92.35    2.11   1
  -2   3   2  353.44    7.14   1
  -2   3   3  219.93    4.45   1
  -2   3   4  149.33    2.93   1
  -2   3   5  264.71    4.88   1
  -2   3   6  403.61    8.44   1
  -2   3   7   64.48    1.77   1
  -2   3   8    4.20    0.49   1
  -2   3   9    9.18    0.79   1
  -2   3  10  194.88    5.30   1
  -2   3  11  534.53   16.65   1
  -2   3  12   10.50    0.97   1
  -2   3  13   32.15    2.15   1
  -2   3  14   37.70    2.46   1
  -2   3  15   86.68    5.59   1
  -2   3  16   24.60    2.68   1
  -2   4 -12   73.27    8.56   1
  -2   4 -11   10.50    2.40   1
  -2   4 -10  122.99    6.21   1
  -2   4  -9  185.23    8.44   1
  -2   4  -8   62.41    3.16   1
  -2   4  -7    7.90    1.18   1
  -2   4  -6   26.94    1.45   1
  -2   4  -5  227.41    6.94   1
  -2   4  -4  565.01   12.36   1
  -2   4  -3  339.66    7.74   1
  -2   4  -2  133.63    3.70   1
  -2   4  -1   40.45    1.40   1
  -2   4   0  859.08   20.52   1
  -2   4   1  396.81    7.97   1
  -2   4   2  401.60    9.22   1
  -2   4   3  111.94    2.96   1
  -2   4   4  600.25   13.23   1
  -2   4   5  378.30    8.56   1
  -2   4   6   30.14    1.21   1
  -2   4   7   28.20    1.70   1
  -2   4   8  266.67    8.16   1
  -2   4   9  145.93    5.07   1
  -2   4  10   52.56    3.48   1
  -2   4  11    7.29    2.48   1
  -2   4  12   46.65    4.23   1
  -2   4  13  330.88   15.28   1
  -2   4  14  210.83   14.23   1
  -2   4  15   26.32    5.75   1
  -2   4  16   10.18    3.19   1
  -2   5 -10  202.49   17.65   1
  -2   5  -9    4.88    1.99   1
  -2   5  -8   44.76    3.21   1
  -2   5  -7   33.64    2.55   1
  -2   5  -6   16.56    2.20   1
  -2   5  -5  216.97    7.66   1
  -2   5  -4  148.60    6.58   1
  -2   5  -3   10.37    1.42   1
  -2   5  -2   52.56    1.88   1
  -2   5  -1   64.64    2.57   1
  -2   5   0  190.16    5.79   1
  -2   5   1  297.56    7.93   1
  -2   5   2   68.56    2.15   1
  -2   5   3   81.18    2.34   1
  -2   5   4  173.98    4.48   1
  -2   5   5  312.23    8.13   1
  -2   5   6    4.08    0.89   1
  -2   5   7   24.30    2.07   1
  -2   5   8   23.14    2.02   1
  -2   5   9  161.04    8.88   1
  -2   5  10   38.94    3.99   1
  -2   5  11    0.40    1.59   1
  -2   5  12   11.70    2.39   1
  -2   5  13  116.42    9.50   1
  -2   5  14   49.14    6.31   1
  -2   6  -8   17.22    2.74   1
  -2   6  -7   96.43    8.84   1
  -2   6  -6   78.15    5.13   1
  -2   6  -5   22.28    2.17   1
  -2   6  -4  108.58    5.42   1
  -2   6  -3    1.39    1.60   1
  -2   6  -2  400.00   12.80   1
  -2   6  -1  106.71    4.13   1
  -2   6   0   17.31    1.58   1
  -2   6   1   13.99    1.20   1
  -2   6   2  113.21    4.04   1
  -2   6   3   27.35    1.46   1
  -2   6   4  269.62   11.82   1
  -2   6   5   46.24    2.45   1
  -2   6   6   48.16    2.50   1
  -2   6   7  132.48    9.44   1
  -2   6   8  143.28    8.86   1
  -2   6   9   70.56    5.04   1
  -2   6  10   56.25    5.70   1
  -2   6  11   20.88    3.93   1
  -2   6  12   71.91    7.12   1
  -2   6  13   20.16    4.40   1
  -2   7  -5   90.63    8.38   1
  -2   7  -4   17.72    3.70   1
  -2   7  -3   67.57    5.75   1
  -2   7  -2   -1.49    2.68   1
  -2   7  -1   54.46    4.58   1
  -2   7   0    6.92    2.21   1
  -2   7   1   22.75    2.38   1
  -2   7   2   57.15    3.33   1
  -2   7   3   74.48    4.66   1
  -2   7   4   70.22    3.85   1
  -2   7   5   60.37    4.97   1
  -2   7   6  235.01   15.64   1
  -2   7   7   56.25    5.40   1
  -2   7   8   41.34    4.50   1
  -2   7   9   54.61    5.32   1
  -2   7  10    6.10    3.21   1
  -2   7  11    5.62    2.99   1
  -2   8   1    3.88    2.99   1
  -2   8   2   94.28    9.13   1
  -2   8   3    3.61    2.51   1
  -2   8   4   17.47    3.18   1
  -2   8   5   61.15    6.57   1
  -2   8   6   83.36    8.95   1
  -1  -9  -7   18.58    4.48   1
  -1  -9  -6   34.57    5.06   1
  -1  -9  -5    5.02    2.42   1
  -1  -9  -4   27.35    3.97   1
  -1  -9  -3   26.73    4.45   1
  -1  -9  -2   69.06    7.31   1
  -1  -9  -1   49.56    6.05   1
  -1  -9   0  135.26   11.86   1
  -1  -9   1  104.24   10.01   1
  -1  -8 -11   58.98    7.07   1
  -1  -8 -10    3.31    1.89   1
  -1  -8  -9    8.82    2.20   1
  -1  -8  -8   65.61    4.05   1
  -1  -8  -7   90.25    3.61   1
  -1  -8  -6   38.44    1.98   1
  -1  -8  -5   43.03    2.23   1
  -1  -8  -4  443.10   15.16   1
  -1  -8  -3   72.25    4.08   1
  -1  -8  -2   56.85    3.02   1
  -1  -8  -1    2.31    1.49   1
  -1  -8   0  261.79   10.03   1
  -1  -8   1   90.06    4.74   1
  -1  -8   2   84.64    4.97   1
  -1  -8   3  135.96    8.16   1
  -1  -8   4   26.52    2.47   1
  -1  -8   5    9.80    3.00   1
  -1  -8   6    0.00    1.00   1
  -1  -7 -14   36.60    4.96   1
  -1  -7 -13    7.78    3.07   1
  -1  -7 -12   12.39    1.90   1
  -1  -7 -11   27.14    2.50   1
  -1  -7 -10   41.34    3.73   1
  -1  -7  -9   11.02    1.73   1
  -1  -7  -8   25.20    2.11   1
  -1  -7  -7   46.24    2.18   1
  -1  -7  -6  567.87   20.97   1
  -1  -7  -5   63.20    2.23   1
  -1  -7  -4  141.37    3.57   1
  -1  -7  -3   43.03    1.44   1
  -1  -7  -2  611.08   17.30   1
  -1  -7  -1   15.76    1.59   1
  -1  -7   0   99.40    3.99   1
  -1  -7   1   39.19    2.25   1
  -1  -7   2  147.38    5.58   1
  -1  -7   3  115.99    4.95   1
  -1  -7   4   44.49    2.93   1
  -1  -7   5    9.80    1.63   1
  -1  -7   6   26.11    2.56   1
  -1  -7   7   32.26    3.18   1
  -1  -7   8   39.69    5.04   1
  -1  -7   9   52.27    6.65   1
  -1  -6 -15   26.73    3.31   1
  -1  -6 -14   73.62    4.46   1
  -1  -6 -13   72.76    3.92   1
  -1  -6 -12  121.00    4.40   1
  -1  -6 -11   40.45    2.54   1
  -1  -6 -10   70.56    3.53   1
  -1  -6  -9  258.89    8.05   1
  -1  -6  -8   83.54    2.74   1
  -1  -6  -7  262.76    7.46   1
  -1  -6  -6  241.80    8.09   1
  -1  -6  -5   12.53    0.71   1
  -1  -6  -4   22.47    1.14   1
  -1  -6  -3   89.30    2.08   1
  -1  -6  -2  150.31    3.92   1
  -1  -6  -1  341.14    7.76   1
  -1  -6   0  114.92    4.29   1
  -1  -6   1  166.15    5.67   1
  -1  -6   2   76.21    3.14   1
  -1  -6   3  239.63    8.05   1
  -1  -6   4  416.16   14.69   1
  -1  -6   5   64.64    3.22   1
  -1  -6   6    8.82    1.43   1
  -1  -6   7  160.53    6.59   1
  -1  -6   8  132.25    7.36   1
  -1  -6   9   52.56    4.06   1
  -1  -6  10    5.29    1.98   1
  -1  -6  11   24.80    4.88   1
  -1  -5 -16  139.95   13.25   1
  -1  -5 -15  106.50    8.88   1
  -1  -5 -14    4.08    2.18   1
  -1  -5 -13  285.95   11.84   1
  -1  -5 -12  385.34   12.17   1
  -1  -5 -11   82.26    3.81   1
  -1  -5 -10  262.44    8.75   1
  -1  -5  -9  400.00    9.60   1
  -1  -5  -8  806.56   15.34   1
  -1  -5  -7   40.70    1.28   1
  -1  -5  -6  235.01    5.83   1
  -1  -5  -5   85.19    2.03   1
  -1  -5  -4   76.74    2.10   1
  -1  -5  -3  322.20    6.46   1
  -1  -5  -2  435.14    8.34   1
  -1  -5  -1  236.85    4.92   1
  -1  -5   0   57.46    1.67   1
  -1  -5   1  802.02   18.12   1
  -1  -5   2  178.22    5.07   1
  -1  -5   3  455.82   11.53   1
  -1  -5   4    4.08    0.69   1
  -1  -5   5   10.50    0.97   1
  -1  -5   6  158.00    4.78   1
  -1  -5   7  258.57    7.72   1
  -1  -5   8   -2.99    1.59   1
  -1  -5   9  222.90    8.96   1
  -1  -5  10   28.20    2.87   1
  -1  -5  11   62.88    4.44   1
  -1  -5  12    7.51    1.81   1
  -1  -5  13   11.63    2.32   1
  -1  -4 -17   84.82    9.58   1
  -1  -4 -16   55.35    6.55   1
  -1  -4 -15   10.89    2.38   1
  -1  -4 -14    7.62    2.82   1
  -1  -4 -13   99.00    6.77   1
  -1  -4 -12  290.36    8.86   1
  -1  -4 -11   85.56    2.78   1
  -1  -4 -10   71.57    1.69   1
  -1  -4  -9   67.08    2.13   1
  -1  -4  -8  249.01    5.37   1
  -1  -4  -7  457.96    9.42   1
  -1  -4  -6   32.95    1.15   1
  -1  -4  -5   32.15    0.91   1
  -1  -4  -4   52.85    1.31   1
  -1  -4  -3  264.06    5.20   1
  -1  -4  -2  310.82    6.70   1
  -1  -4  -1   17.31    0.58   1
  -1  -4   0  179.29    3.75   1
  -1  -4   1  112.15    2.75   1
  -1  -4   2  455.40    9.39   1
  -1  -4   3  512.12    9.50   1
  -1  -4   4   63.68    1.60   1
  -1  -4   5   17.31    0.92   1
  -1  -4   6  435.97   10.02   1
  -1  -4   7  160.78    4.56   1
  -1  -4   8   24.11    1.47   1
  -1  -4   9   16.32    1.21   1
  -1  -4  10   68.06    3.30   1
  -1  -4  11  113.64    5.76   1
  -1  -4  12   10.82    1.32   1
  -1  -4  13   32.72    2.97   1
  -1  -4  14   49.56    4.65   1
  -1  -3 -17  165.12   13.36   1
  -1  -3 -16   34.69    4.01   1
  -1  -3 -15    9.80    2.63   1
  -1  -3 -14    4.41    1.89   1
  -1  -3 -13  386.91   15.74   1
  -1  -3 -12  271.92   10.88   1
  -1  -3 -11   38.81    2.24   1
  -1  -3 -10  137.12    3.98   1
  -1  -3  -9  310.82    7.40   1
  -1  -3  -8  603.68   12.28   1
  -1  -3  -7   92.54    2.12   1
  -1  -3  -6   65.45    1.62   1
  -1  -3  -5  109.62    2.51   1
  -1  -3  -4  104.04    2.04   1
  -1  -3  -3  609.10   10.86   1
  -1  -3  -2  811.11   14.24   1
  -1  -3  -1 1253.16   22.66   1
  -1  -3   0  388.48    7.49   1
  -1  -3   1  447.75    9.31   1
  -1  -3   2  198.53    3.66   1
  -1  -3   3  624.00   12.49   1
  -1  -3   4  393.63    8.33   1
  -1  -3   5   63.20    1.27   1
  -1  -3   6   79.39    1.60   1
  -1  -3   7  153.76    3.22   1
  -1  -3   8  312.58    6.72   1
  -1  -3   9  671.85   14.00   1
  -1  -3  10   92.74    3.27   1
  -1  -3  11   13.69    1.18   1
  -1  -3  12   44.76    2.54   1
  -1  -3  13  122.10    6.19   1
  -1  -3  14  272.91   17.51   1
  -1  -3  15   14.67    1.99   1
  -1  -2 -17  249.64   21.17   1
  -1  -2 -16    0.20    1.91   1
  -1  -2 -15   44.09    3.45   1
  -1  -2 -14   46.92    2.88   1
  -1  -2 -13   92.54    3.66   1
  -1  -2 -12   72.42    3.06   1
  -1  -2 -11   84.09    2.75   1
  -1  -2 -10    3.80    0.59   1
  -1  -2  -9  269.62    5.58   1
  -1  -2  -8  414.53    8.96   1
  -1  -2  -7  691.16   11.04   1
  -1  -2  -6  379.08    6.62   1
  -1  -2  -5  365.19    6.88   1
  -1  -2  -4  408.44    7.68   1
  -1  -2  -3  115.78    2.15   1
  -1  -2  -2   64.32    1.28   1
  -1  -2  -1  185.23    3.54   1
  -1  -2   0 1289.53   28.73   1
  -1  -2   1  400.00    7.60   1
  -1  -2   2  257.60    5.14   1
  -1  -2   3 1221.50   18.87   1
  -1  -2   4 1283.79   23.65   1
  -1  -2   5  116.64    2.81   1
  -1  -2   6  516.65   10.91   1
  -1  -2   7  900.60   19.21   1
  -1  -2   8  626.50   13.02   1
  -1  -2   9  175.56    3.98   1
  -1  -2  10   21.44    0.93   1
  -1  -2  11  245.24    6.58   1
  -1  -2  12    3.69    0.88   1
  -1  -2  13  100.60    5.01   1
  -1  -2  14  223.50   13.45   1
  -1  -2  15   39.19    3.13   1
  -1  -2  16    5.02    1.88   1
  -1  -1 -17   19.18    3.68   1
  -1  -1 -16   -2.59    2.00   1
  -1  -1 -15   16.16    2.33   1
  -1  -1 -14   19.10    2.01   1
  -1  -1 -13    2.40    1.39   1
  -1  -1 -12  389.67   12.24   1
  -1  -1 -11  205.35    6.31   1
  -1  -1 -10   94.28    3.11   1
  -1  -1  -9  106.71    2.48   1
  -1  -1  -8 1914.06   37.62   1
  -1  -1  -7 3464.50   64.75   1
  -1  -1  -6 1861.92   44.01   1
  -1  -1  -5  676.52   14.05   1
  -1  -1  -4  830.02   15.56   1
  -1  -1  -3 1096.27   19.87   1
  -1  -1  -2  554.13    8.95   1
  -1  -1   0    2.19    0.09   1
  -1  -1   1 1959.83   46.93   1
  -1  -1   2  797.50   15.81   1
  -1  -1   3   14.36    0.61   1
  -1  -1   4 1683.46   33.64   1
  -1  -1   5 1334.44   27.03   1
  -1  -1   6  211.12    4.07   1
  -1  -1   7   15.29    0.70   1
  -1  -1   8  400.00    8.00   1
  -1  -1   9 2944.15   57.52   1
  -1  -1  10  119.90    3.50   1
  -1  -1  11  369.02    9.99   1
  -1  -1  12  588.55   30.57   1
  -1  -1  13   39.44    3.01   1
  -1  -1  14  427.66   20.27   1
  -1  -1  15   26.42    2.06   1
  -1  -1  16  162.82    8.68   1
  -1   0 -17   34.46    4.46   1
  -1   0 -16   37.95    5.30   1
  -1   0 -15  244.61   10.95   1
  -1   0 -14    6.92    1.42   1
  -1   0 -13    6.10    1.19   1
  -1   0 -12   26.01    1.94   1
  -1   0 -11   55.06    2.67   1
  -1   0 -10  101.40    3.02   1
  -1   0  -9  244.92    6.26   1
  -1   0  -8   87.24    2.62   1
  -1   0  -7   94.28    2.52   1
  -1   0  -6  285.27    6.76   1
  -1   0  -5 1029.13   22.46   1
  -1   0  -4  787.36   17.40   1
  -1   0  -3  977.19   20.01   1
  -1   0  -2 1550.78   33.08   1
  -1   0  -1 1064.72   27.41   1
  -1   0   0  190.99    7.74   1
  -1   0   1 1034.27   39.24   1
  -1   0   2 1993.62   44.65   1
  -1   0   3  456.25    9.83   1
  -1   0   4  928.42   18.89   1
  -1   0   5  682.78   13.59   1
  -1   0   6  183.60    3.79   1
  -1   0   7   24.70    0.89   1
  -1   0   8  821.40   17.20   1
  -1   0   9   35.64    1.19   1
  -1   0  10    7.18    0.80   1
  -1   0  11  138.53    3.77   1
  -1   0  12  264.39    8.13   1
  -1   0  13   87.98    3.75   1
  -1   0  14  167.70    6.22   1
  -1   0  15  202.78    9.40   1
  -1   0  16  360.62   18.23   1
  -1   0  17   59.91    4.33   1
  -1   1 -16  203.35   13.12   1
  -1   1 -15   21.72    2.42   1
  -1   1 -14  165.64    7.98   1
  -1   1 -13  199.09    8.47   1
  -1   1 -12   29.16    2.05   1
  -1   1 -11 1116.90   40.10   1
  -1   1 -10  956.05   25.35   1
  -1   1  -9  214.04    4.97   1
  -1   1  -8   33.76    1.16   1
  -1   1  -7  361.76    7.23   1
  -1   1  -6 2477.05   48.77   1
  -1   1  -5 1002.36   20.90   1
  -1   1  -4 2077.54   43.76   1
  -1   1  -3 2822.80   61.63   1
  -1   1  -2  975.31   16.24   1
  -1   1   0 2527.07   61.33   1
  -1   1   1 2009.73   37.66   1
  -1   1   3  986.59   24.50   1
  -1   1   4 2946.32   54.28   1
  -1   1   5 2281.97   43.95   1
  -1   1   6  977.81   18.14   1
  -1   1   7 2219.35   41.46   1
  -1   1   8  467.42    9.08   1
  -1   1   9   65.61    1.62   1
  -1   1  10  221.12    4.76   1
  -1   1  11  941.26   21.48   1
  -1   1  12 1029.77   27.60   1
  -1   1  13   83.36    3.29   1
  -1   1  14  216.68    9.13   1
  -1   1  15  135.49    5.82   1
  -1   1  16   17.14    1.99   1
  -1   1  17  203.92   11.71   1
  -1   2 -15   39.82    5.17   1
  -1   2 -14   47.75    4.42   1
  -1   2 -13  135.26    7.21   1
  -1   2 -12  216.97    7.66   1
  -1   2 -11   33.29    2.19   1
  -1   2 -10  323.64   11.15   1
  -1   2  -9  402.80   11.24   1
  -1   2  -8  555.07   13.19   1
  -1   2  -7   18.58    1.03   1
  -1   2  -6  690.11   14.19   1
  -1   2  -5  326.52    7.23   1
  -1   2  -4  713.42   13.35   1
  -1   2  -3 1253.87   21.95   1
  -1   2  -2  862.60   13.51   1
  -1   2  -1 1071.91   18.99   1
  -1   2   0 1195.78   22.13   1
  -1   2   1  312.23    7.07   1
  -1   2   2   56.10    1.35   1
  -1   2   3  543.82    9.33   1
  -1   2   4  160.28    2.79   1
  -1   2   5   48.16    1.25   1
  -1   2   6   90.82    1.91   1
  -1   2   7  298.25    5.18   1
  -1   2   8   24.60    0.99   1
  -1   2   9   64.48    1.77   1
  -1   2  10   45.29    1.35   1
  -1   2  11   74.65    2.25   1
  -1   2  12  324.72   11.53   1
  -1   2  13  144.96    6.26   1
  -1   2  14   20.52    1.63   1
  -1   2  15   47.06    2.88   1
  -1   2  16   56.10    3.74   1
  -1   2  17   42.38    3.39   1
  -1   3 -14   39.19    5.26   1
  -1   3 -13  185.78   10.09   1
  -1   3 -12   65.45    3.56   1
  -1   3 -11  255.68   10.87   1
  -1   3 -10   49.14    2.80   1
  -1   3  -9   92.93    4.43   1
  -1   3  -8  422.71   12.34   1
  -1   3  -7  141.37    4.04   1
  -1   3  -6   99.60    2.59   1
  -1   3  -5  567.87   11.44   1
  -1   3  -4  347.08    6.33   1
  -1   3  -3 1053.00   18.17   1
  -1   3  -2 1837.84   29.15   1
  -1   3  -1  538.70    9.75   1
  -1   3   0  177.96    3.47   1
  -1   3   1 1950.11   41.51   1
  -1   3   2 4075.55   76.61   1
  -1   3   3  239.32    4.64   1
  -1   3   4  255.04    5.11   1
  -1   3   5  124.99    2.68   1
  -1   3   6  426.42    9.09   1
  -1   3   7  139.48    3.31   1
  -1   3   8  172.40    4.20   1
  -1   3   9  195.16    5.03   1
  -1   3  10   12.53    0.92   1
  -1   3  11  262.44    7.45   1
  -1   3  12  140.90    5.70   1
  -1   3  13   83.17    4.38   1
  -1   3  14   42.38    2.60   1
  -1   3  15  265.36   17.27   1
  -1   3  16   32.95    4.02   1
  -1   3  17   47.61    4.97   1
  -1   4 -13  107.95    8.73   1
  -1   4 -12  151.29    9.35   1
  -1   4 -11   20.70    2.18   1
  -1   4 -10   37.95    3.08   1
  -1   4  -9  156.50    6.00   1
  -1   4  -8   50.69    2.85   1
  -1   4  -7  327.61   10.14   1
  -1   4  -6   84.46    2.94   1
  -1   4  -5   57.46    1.67   1
  -1   4  -4  132.48    2.76   1
  -1   4  -3  276.56    4.99   1
  -1   4  -2   90.06    2.09   1
  -1   4  -1   13.91    0.82   1
  -1   4   0   88.92    2.07   1
  -1   4   1  421.48    8.62   1
  -1   4   2 1047.82   24.60   1
  -1   4   3   50.27    1.28   1
  -1   4   4  613.55   12.39   1
  -1   4   5   88.92    2.26   1
  -1   4   6  120.56    3.51   1
  -1   4   7   23.62    1.17   1
  -1   4   8  111.30    3.17   1
  -1   4   9   12.18    0.70   1
  -1   4  10  129.05    3.64   1
  -1   4  11    3.50    0.71   1
  -1   4  12   98.01    4.36   1
  -1   4  13   79.57    5.53   1
  -1   4  14   30.80    3.55   1
  -1   4  15   30.58    4.65   1
  -1   4  16   12.53    3.89   1
  -1   5 -11  109.41    9.83   1
  -1   5 -10   46.38    3.68   1
  -1   5  -9  184.69    9.24   1
  -1   5  -8  109.41    4.81   1
  -1   5  -7   37.95    2.34   1
  -1   5  -6   60.53    2.65   1
  -1   5  -5   51.41    1.72   1
  -1   5  -4  136.89    3.74   1
  -1   5  -3  307.65    7.02   1
  -1   5  -2   12.82    1.07   1
  -1   5  -1  117.94    3.04   1
  -1   5   0  116.86    3.03   1
  -1   5   1  146.89    3.88   1
  -1   5   2  414.53   10.59   1
  -1   5   3  150.80    3.44   1
  -1   5   4  294.47    6.86   1
  -1   5   5  406.43    9.27   1
  -1   5   6  113.42    3.19   1
  -1   5   7   32.72    2.29   1
  -1   5   8  367.49   14.19   1
  -1   5   9  255.04   10.22   1
  -1   5  10  216.09   12.35   1
  -1   5  11   22.66    4.86   1
  -1   5  12   14.98    2.32   1
  -1   5  13   14.82    3.08   1
  -1   5  14  138.06   11.28   1
  -1   5  15  138.53   13.89   1
  -1   6  -9   50.98    6.28   1
  -1   6  -8   38.44    3.47   1
  -1   6  -7   91.97    5.18   1
  -1   6  -6   58.06    3.20   1
  -1   6  -5    9.49    1.60   1
  -1   6  -4   93.70    4.45   1
  -1   6  -3   16.48    0.97   1
  -1   6  -2    3.31    0.69   1
  -1   6  -1   48.86    2.24   1
  -1   6   0  176.36    5.58   1
  -1   6   1   72.08    2.55   1
  -1   6   2   28.94    1.40   1
  -1   6   3   90.06    3.04   1
  -1   6   4  243.67    9.05   1
  -1   6   5   19.71    1.42   1
  -1   6   6   61.94    2.52   1
  -1   6   7  345.22   17.47   1
  -1   6   8  121.00    5.94   1
  -1   6   9    2.50    1.80   1
  -1   6  10  109.20    7.11   1
  -1   6  11   23.62    3.21   1
  -1   6  12    1.39    3.00   1
  -1   6  13   76.39    7.52   1
  -1   6  14   38.44    4.71   1
  -1   7  -7    1.30    3.01   1
  -1   7  -6  104.24   10.82   1
  -1   7  -5   76.56    5.25   1
  -1   7  -4    9.67    1.93   1
  -1   7  -3   58.68    3.68   1
  -1   7  -2  113.85    4.69   1
  -1   7  -1   60.37    2.95   1
  -1   7   0  222.90   15.53   1
  -1   7   1   28.41    2.13   1
  -1   7   2   10.37    1.67   1
  -1   7   3   16.56    1.87   1
  -1   7   4   16.97    2.22   1
  -1   7   5  337.82   15.07   1
  -1   7   6   20.43    2.71   1
  -1   7   7  132.71    8.99   1
  -1   7   8  205.06    9.74   1
  -1   7   9    4.58    2.40   1
  -1   7  10   17.39    3.42   1
  -1   7  11   11.49    3.59   1
  -1   7  12   11.90    4.21   1
  -1   8  -3   61.15    6.26   1
  -1   8  -2   79.92    8.76   1
  -1   8  -1   10.30    2.63   1
  -1   8   0   -1.00    3.30   1
  -1   8   1    9.61    3.60   1
  -1   8   2   17.14    2.57   1
  -1   8   3  135.02    6.97   1
  -1   8   4   32.83    3.21   1
  -1   8   5    9.92    2.33   1
  -1   8   6   23.62    3.99   1
  -1   8   7   81.90    7.78   1
  -1   8   8  136.42   14.25   1
  -1   8   9    1.39    3.80   1
   0  -9  -4   25.40    3.83   1
   0  -9  -3   61.62    6.59   1
   0  -9  -2   77.62    6.34   1
   0  -8 -10   15.29    2.82   1
   0  -8  -9   81.36    6.86   1
   0  -8  -8  157.00    8.27   1
   0  -8  -7   48.72    2.79   1
   0  -8  -6   68.06    3.46   1
   0  -8  -5    7.78    1.28   1
   0  -8  -4   42.64    2.61   1
   0  -8  -3    0.59    1.29   1
   0  -8  -2   20.16    1.71   1
   0  -8  -1   73.10    4.28   1
   0  -8   0   -0.20    1.71   1
   0  -8   1  180.36    9.94   1
   0  -8   2    0.71    1.92   1
   0  -8   3    4.88    1.81   1
   0  -8   4   55.65    5.37   1
   0  -8   5   64.96    5.32   1
   0  -7 -13   27.35    4.08   1
   0  -7 -12   10.50    2.79   1
   0  -7 -11   40.20    3.17   1
   0  -7 -10   33.76    2.79   1
   0  -7  -9   83.72    4.39   1
   0  -7  -8  343.73   13.72   1
   0  -7  -7   75.34    3.99   1
   0  -7  -6  171.09    6.28   1
   0  -7  -5  129.05    4.09   1
   0  -7  -4  104.45    3.68   1
   0  -7  -3   12.18    0.63   1
   0  -7  -2    2.31    1.00   1
   0  -7  -1   24.01    1.57   1
   0  -7   0  236.85    8.93   1
   0  -7   1   58.68    3.22   1
   0  -7   2  139.48    5.20   1
   0  -7   3   65.77    3.73   1
   0  -7   4  162.05    7.64   1
   0  -7   5  106.50    5.99   1
   0  -7   6   66.75    4.74   1
   0  -7   7   34.46    3.40   1
   0  -7   8   91.20    8.02   1
   0  -6 -15  207.36   19.58   1
   0  -6 -14   73.62    5.83   1
   0  -6 -13    4.58    1.80   1
   0  -6 -12   41.99    2.85   1
   0  -6 -11  501.76   20.16   1
   0  -6 -10   14.90    1.70   1
   0  -6  -9  237.16    8.62   1
   0  -6  -8   31.02    2.34   1
   0  -6  -7   98.80    3.18   1
   0  -6  -6  125.89    3.59   1
   0  -6  -5  170.56    5.75   1
   0  -6  -4   24.30    1.28   1
   0  -6  -3  130.19    3.19   1
   0  -6  -2    0.71    0.71   1
   0  -6  -1  289.34    6.80   1
   0  -6   0  118.59    3.27   1
   0  -6   1  344.47   11.14   1
   0  -6   2  388.48   13.40   1
   0  -6   3   84.82    3.68   1
   0  -6   4  116.64    5.40   1
   0  -6   5   81.54    5.42   1
   0  -6   6   15.29    1.72   1
   0  -6   7   94.28    4.66   1
   0  -6   8   95.84    5.09   1
   0  -6   9   57.00    4.23   1
   0  -6  10   25.70    2.84   1
   0  -5 -16   43.03    5.38   1
   0  -5 -15   34.11    4.79   1
   0  -5 -14  184.14    9.23   1
   0  -5 -13    8.01    1.41   1
   0  -5 -12   55.20    2.53   1
   0  -5 -11  111.30    3.80   1
   0  -5 -10  101.00    3.02   1
   0  -5  -9  102.62    3.65   1
   0  -5  -8  221.12    6.84   1
   0  -5  -7    5.62    0.71   1
   0  -5  -6  253.45    6.05   1
   0  -5  -5  210.54    5.22   1
   0  -5  -4    7.40    0.71   1
   0  -5  -3   47.75    1.24   1
   0  -5  -2   45.56    1.35   1
   0  -5  -1  297.22    6.21   1
   0  -5   0  162.31    3.82   1
   0  -5   1  309.76    7.74   1
   0  -5   2  300.33    8.66   1
   0  -5   3   32.38    1.37   1
   0  -5   4  202.78    6.84   1
   0  -5   5    6.81    0.78   1
   0  -5   6   62.88    2.54   1
   0  -5   7   38.32    1.98   1
   0  -5   8  272.91   11.23   1
   0  -5   9   58.22    3.05   1
   0  -5  10    5.38    2.27   1
   0  -5  11   10.82    1.78   1
   0  -5  12   27.04    3.54   1
   0  -4 -16   43.03    5.38   1
   0  -4 -15   82.63    6.73   1
   0  -4 -14   92.16    6.34   1
   0  -4 -13   11.02    2.32   1
   0  -4 -12  103.23    5.69   1
   0  -4 -11  141.61    4.28   1
   0  -4 -10  377.91    9.72   1
   0  -4  -9   60.68    2.18   1
   0  -4  -8  341.88    7.03   1
   0  -4  -7  407.64    8.08   1
   0  -4  -6  271.59    5.93   1
   0  -4  -5   63.36    1.75   1
   0  -4  -4   36.48    1.33   1
   0  -4  -3  693.80   13.70   1
   0  -4  -2  781.76   16.22   1
   0  -4  -1    0.40    0.50   1
   0  -4   0  271.92    4.95   1
   0  -4   1   68.06    1.65   1
   0  -4   2  233.78    6.12   1
   0  -4   3   79.74    1.96   1
   0  -4   4   87.98    2.25   1
   0  -4   5   48.72    1.54   1
   0  -4   6   81.18    2.34   1
   0  -4   7  247.75    6.61   1
   0  -4   8  322.92    9.34   1
   0  -4   9   43.43    2.50   1
   0  -4  10  302.06   10.43   1
   0  -4  11   56.25    3.75   1
   0  -4  12  134.56    8.35   1
   0  -4  13   22.47    2.18   1
   0  -4  14  189.34   12.11   1
   0  -3 -17   51.98    6.34   1
   0  -3 -16   96.04    8.04   1
   0  -3 -15   16.81    3.03   1
   0  -3 -14   35.76    3.35   1
   0  -3 -13   29.16    2.59   1
   0  -3 -12   71.40    3.72   1
   0  -3 -11  270.27    9.21   1
   0  -3 -10   18.06    1.02   1
   0  -3  -9  123.65    2.89   1
   0  -3  -8   37.45    1.10   1
   0  -3  -7  668.22   13.44   1
   0  -3  -6  222.61    4.48   1
   0  -3  -5  284.60    4.72   1
   0  -3  -4  335.99    6.23   1
   0  -3  -3  943.10   20.27   1
   0  -3  -2  400.40    8.80   1
   0  -3  -1   14.36    0.53   1
   0  -3   0  198.25    3.66   1
   0  -3   1  526.24   11.47   1
   0  -3   2 1316.24   23.22   1
   0  -3   3  482.68    8.79   1
   0  -3   4  580.33   10.60   1
   0  -3   5  111.72    2.54   1
   0  -3   6  406.02    7.66   1
   0  -3   7    7.51    0.71   1
   0  -3   8  280.56    6.03   1
   0  -3   9   83.54    2.92   1
   0  -3  10   99.20    4.38   1
   0  -3  11   33.64    1.86   1
   0  -3  12  167.96    5.70   1
   0  -3  13   50.41    2.56   1
   0  -3  14   71.23    4.56   1
   0  -3  15  112.78   10.41   1
   0  -2 -17   28.20    5.10   1
   0  -2 -16   92.54    7.12   1
   0  -2 -15   36.24    3.61   1
   0  -2 -14   53.44    4.09   1
   0  -2 -13  150.80    5.40   1
   0  -2 -12   71.23    2.87   1
   0  -2 -11   67.73    2.47   1
   0  -2 -10    8.88    1.01   1
   0  -2  -9  523.95   13.28   1
   0  -2  -8  718.78   17.69   1
   0  -2  -7  184.69    4.08   1
   0  -2  -6  613.55   12.88   1
   0  -2  -5  403.21    9.24   1
   0  -2  -4  482.68    8.79   1
   0  -2  -3 2101.31   34.84   1
   0  -2  -1 1472.26   29.93   1
   0  -2   1  408.04    6.87   1
   0  -2   2 1390.54   24.61   1
   0  -2   3 1171.01   23.95   1
   0  -2   4 2272.43   40.04   1
   0  -2   5  787.36   14.59   1
   0  -2   6  958.52   17.96   1
   0  -2   7  351.56    6.75   1
   0  -2   8   95.45    2.54   1
   0  -2   9  419.43   12.70   1
   0  -2  10 1752.26   41.02   1
   0  -2  11   21.81    1.12   1
   0  -2  12   32.95    1.49   1
   0  -2  13   23.33    1.84   1
   0  -2  14  108.58    4.79   1
   0  -2  15  347.08   17.88   1
   0  -2  16  144.00   12.48   1
   0  -1 -17  101.40   10.07   1
   0  -1 -16   64.96    4.84   1
   0  -1 -15   75.52    4.17   1
   0  -1 -14   43.96    2.65   1
   0  -1 -13   53.14    2.77   1
   0  -1 -12    8.41    1.28   1
   0  -1 -11   44.36    2.40   1
   0  -1 -10   99.00    2.79   1
   0  -1  -9  197.40    4.22   1
   0  -1  -8  218.74    4.73   1
   0  -1  -7  225.90    4.51   1
   0  -1  -6   25.60    0.81   1
   0  -1  -5 1365.30   35.47   1
   0  -1  -4  918.70   17.58   1
   0  -1  -3 1218.71   26.53   1
   0  -1  -2 1584.84   30.26   1
   0  -1  -1  200.51   10.48   1
   0  -1   0  682.25   28.21   1
   0  -1   1 2286.75   62.17   1
   0  -1   2 1143.79   25.03   1
   0  -1   3  191.27    3.87   1
   0  -1   4  590.98   11.18   1
   0  -1   5 1084.38   25.69   1
   0  -1   6   76.04    1.92   1
   0  -1   7  255.04    5.43   1
   0  -1   8  325.44    6.49   1
   0  -1   9  187.96    4.39   1
   0  -1  10   26.42    1.34   1
   0  -1  11  380.64   17.17   1
   0  -1  12  107.95    4.36   1
   0  -1  13    1.21    1.01   1
   0  -1  14  155.50    6.24   1
   0  -1  15  536.85   27.80   1
   0  -1  16   36.24    4.94   1
   0   0 -17  125.66   11.43   1
   0   0 -16   53.73    6.16   1
   0   0 -15  538.24   18.56   1
   0   0 -14    4.80    1.49   1
   0   0 -13  607.13   20.70   1
   0   0 -12    9.00    1.32   1
   0   0 -11  405.62   12.08   1
   0   0 -10  387.30   10.23   1
   0   0  -9  105.88    3.29   1
   0   0  -8  482.68   10.55   1
   0   0  -7   20.52    0.91   1
   0   0  -6  347.45    7.83   1
   0   0  -5 1429.60   31.00   1
   0   0  -4 3325.83   80.74   1
   0   0  -3   27.98    0.95   1
   0   0  -2 1302.49   40.42   1
   0   0  -1    0.00    1.00   1
   0   0   1   -0.10    0.64   1
   0   0   2 1423.55   41.50   1
   0   0   3   26.42    0.62   1
   0   0   4 3404.72   81.69   1
   0   0   5 1425.82   27.19   1
   0   0   6  347.45    7.08   1
   0   0   7   20.43    0.81   1
   0   0   8  484.00   11.44   1
   0   0   9  113.00    2.55   1
   0   0  10  402.40    7.62   1
   0   0  11  398.00    9.18   1
   0   0  12    7.62    0.88   1
   0   0  13  627.00   19.53   1
   0   0  14    4.58    1.50   1
   0   0  15  532.69   18.46   1
   0   0  16   50.98    3.28   1
   0   0  17  115.99   10.99   1
   0   1 -16   34.81    4.84   1
   0   1 -15  537.31   21.79   1
   0   1 -14  157.75    7.28   1
   0   1 -13    0.50    1.21   1
   0   1 -12  104.24    4.49   1
   0   1 -11  380.64   12.88   1
   0   1 -10   25.40    1.51   1
   0   1  -9  194.32    5.02   1
   0   1  -8  334.16    7.68   1
   0   1  -7  252.17    5.72   1
   0   1  -6   80.82    2.16   1
   0   1  -5 1090.98   23.78   1
   0   1  -4  587.09   12.11   1
   0   1  -3  182.79    4.06   1
   0   1  -2 1096.27   19.87   1
   0   1  -1 2310.72   49.99   1
   0   1   0  448.17   33.87   1
   0   1   1  150.55    6.14   1
   0   1   2 1572.92   35.69   1
   0   1   3 1251.04   23.34   1
   0   1   4  932.08   15.88   1
   0   1   5 1411.50   25.55   1
   0   1   6   26.21    0.72   1
   0   1   7  215.80    3.82   1
   0   1   8  216.38    4.12   1
   0   1   9  211.70    4.07   1
   0   1  10   92.74    2.12   1
   0   1  11   42.51    1.56   1
   0   1  12    8.41    0.93   1
   0   1  13   55.65    2.54   1
   0   1  14   40.96    2.56   1
   0   1  15   63.84    3.84   1
   0   1  16   75.34    4.34   1
   0   1  17   98.80    6.56   1
   0   2 -16  150.31   14.71   1
   0   2 -15  333.43   28.12   1
   0   2 -14   98.01    5.54   1
   0   2 -13   24.60    2.08   1
   0   2 -12   34.93    2.36   1
   0   2 -11   23.62    1.94   1
   0   2 -10 1736.39   61.67   1
   0   2  -9  403.61   10.85   1
   0   2  -8   98.21    2.77   1
   0   2  -7  334.16    6.95   1
   0   2  -6  984.08   20.70   1
   0   2  -5  775.62   16.71   1
   0   2  -4 2267.66   46.67   1
   0   2  -3 1201.32   21.49   1
   0   2  -2 1409.25   21.02   1
   0   2  -1  425.18    7.42   1
   0   2   1 1453.13   31.26   1
   0   2   3 2084.84   46.57   1
   0   2   4  469.59    8.67   1
   0   2   5  411.68    8.12   1
   0   2   6  631.01   10.55   1
   0   2   7  186.60    3.28   1
   0   2   8  697.49   12.15   1
   0   2   9  539.63   10.22   1
   0   2  10    8.12    0.68   1
   0   2  11   73.10    2.22   1
   0   2  12   63.52    2.39   1
   0   2  13  162.05    6.11   1
   0   2  14   55.80    2.69   1
   0   2  15   39.06    3.00   1
   0   2  16  100.40    4.61   1
   0   2  17   26.83    3.63   1
   0   3 -15  124.32   11.15   1
   0   3 -14   73.96    7.05   1
   0   3 -13   43.82    4.50   1
   0   3 -12  164.35    6.41   1
   0   3 -11   35.76    3.47   1
   0   3 -10   99.80    4.60   1
   0   3  -9   89.68    3.79   1
   0   3  -8  280.23    7.37   1
   0   3  -7    7.08    0.80   1
   0   3  -6  420.25    9.43   1
   0   3  -5  109.83    2.72   1
   0   3  -4  561.69    9.48   1
   0   3  -3  484.88    8.37   1
   0   3  -2 1279.49   20.03   1
   0   3  -1  540.10    8.83   1
   0   3   0  196.00    3.64   1
   0   3   1   13.76    0.59   1
   0   3   2  385.34    7.85   1
   0   3   3  962.86   17.38   1
   0   3   4  334.52    6.22   1
   0   3   5  288.32    5.43   1
   0   3   6  231.65    4.26   1
   0   3   7  669.77   12.94   1
   0   3   8   32.60    1.14   1
   0   3   9  126.34    2.70   1
   0   3  10   21.34    1.11   1
   0   3  11  279.22    9.36   1
   0   3  12   65.77    3.41   1
   0   3  13   30.14    2.20   1
   0   3  14   28.41    2.03   1
   0   3  15   11.97    1.73   1
   0   3  16   78.50    4.96   1
   0   3  17   40.32    5.46   1
   0   4 -14  180.63   19.62   1
   0   4 -13   28.62    4.07   1
   0   4 -12  132.48    9.21   1
   0   4 -11   60.53    3.42   1
   0   4 -10  289.68   10.89   1
   0   4  -9   46.38    2.59   1
   0   4  -8  333.43    9.86   1
   0   4  -7  235.93    7.07   1
   0   4  -6   79.92    2.50   1
   0   4  -5   49.98    1.27   1
   0   4  -4   90.25    1.90   1
   0   4  -3   78.15    1.41   1
   0   4  -2  243.05    4.05   1
   0   4  -1   61.47    1.88   1
   0   4   0  287.30    5.76   1
   0   4   1    0.20    0.50   1
   0   4   2  795.24   15.79   1
   0   4   3  727.92   16.19   1
   0   4   4   38.32    1.11   1
   0   4   5   60.84    2.03   1
   0   4   6  265.04    6.51   1
   0   4   7  393.23    8.33   1
   0   4   8  360.62    6.84   1
   0   4   9   62.25    1.74   1
   0   4  10  390.06    9.09   1
   0   4  11  140.90    4.51   1
   0   4  12  105.68    4.93   1
   0   4  13    9.61    1.18   1
   0   4  14   94.09    6.60   1
   0   4  15   87.05    7.46   1
   0   4  16   51.27    5.44   1
   0   5 -12   40.83    4.73   1
   0   5 -11    9.30    1.89   1
   0   5 -10    2.50    1.39   1
   0   5  -9   60.53    3.73   1
   0   5  -8  281.90    9.74   1
   0   5  -7   34.46    1.88   1
   0   5  -6   65.12    1.94   1
   0   5  -5    6.00    0.49   1
   0   5  -4  211.12    4.65   1
   0   5  -3   35.52    1.07   1
   0   5  -2  298.94    5.88   1
   0   5  -1  311.17    6.70   1
   0   5   0  156.25    3.25   1
   0   5   1  317.20    6.41   1
   0   5   2   40.96    1.28   1
   0   5   3   46.38    1.63   1
   0   5   4    7.78    0.61   1
   0   5   5  215.21    4.99   1
   0   5   6  252.49    6.99   1
   0   5   7    4.71    1.00   1
   0   5   8  214.62    5.86   1
   0   5   9  100.80    3.82   1
   0   5  10   97.02    4.53   1
   0   5  11  103.84    6.11   1
   0   5  12   52.56    3.34   1
   0   5  13   13.62    2.29   1
   0   5  14  179.29   14.19   1
   0   5  15   28.73    3.54   1
   0   5  16   47.89    4.84   1
   0   6 -10   25.60    3.44   1
   0   6  -9   61.47    4.23   1
   0   6  -8  102.01    6.67   1
   0   6  -7   94.48    4.47   1
   0   6  -6   14.59    1.83   1
   0   6  -5   67.08    2.95   1
   0   6  -4  106.92    3.52   1
   0   6  -3   80.64    2.33   1
   0   6  -2  390.46   11.07   1
   0   6  -1  344.84    9.28   1
   0   6   0  118.37    3.92   1
   0   6   1  295.50    7.22   1
   0   6   2    0.10    0.61   1
   0   6   3  135.49    4.19   1
   0   6   4   21.72    1.03   1
   0   6   5  167.18    4.40   1
   0   6   6  120.34    4.61   1
   0   6   7   91.01    4.77   1
   0   6   8   33.76    2.79   1
   0   6   9  219.63   10.97   1
   0   6  10   10.63    3.91   1
   0   6  11  494.17   23.12   1
   0   6  12   35.64    3.82   1
   0   6  13   11.42    2.77   1
   0   6  14   68.23    6.11   1
   0   6  15  186.60   16.67   1
   0   7  -8   94.09    7.95   1
   0   7  -7   32.83    3.21   1
   0   7  -6   66.75    4.25   1
   0   7  -5   93.51    5.22   1
   0   7  -4  166.93    6.72   1
   0   7  -3   70.06    4.02   1
   0   7  -2  134.56    5.34   1
   0   7  -1   58.83    2.61   1
   0   7   0  245.55    6.58   1
   0   7   1   22.47    1.33   1
   0   7   2    4.41    1.09   1
   0   7   3   11.90    1.10   1
   0   7   4  108.58    4.79   1
   0   7   5  113.42    6.60   1
   0   7   6  165.12   10.02   1
   0   7   7   84.64    5.52   1
   0   7   8  354.57   19.96   1
   0   7   9   91.01    5.91   1
   0   7  10   43.16    3.55   1
   0   7  11   39.94    4.80   1
   0   7  12   13.10    3.33   1
   0   7  13   34.22    5.38   1
   0   8  -4   84.82    7.00   1
   0   8  -3    2.79    1.80   1
   0   8  -2    0.10    1.72   1
   0   8  -1  171.61    9.69   1
   0   8   0    2.31    1.70   1
   0   8   1   70.73    4.37   1
   0   8   2   21.53    2.41   1
   0   8   3    1.00    2.50   1
   0   8   4   36.00    2.76   1
   0   8   5    4.88    1.81   1
   0   8   6   69.56    6.34   1
   0   8   7   49.98    5.23   1
   0   8   8  168.48   11.68   1
   0   8   9  104.24    8.37   1
   0   8  10   16.08    3.77   1
   0   9   3   51.84    5.47   1
   0   9   4   22.37    3.69   1
   1  -8  -9    2.19    3.70   1
   1  -8  -8  146.41    8.95   1
   1  -8  -7   76.74    4.73   1
   1  -8  -6   21.07    2.30   1
   1  -8  -5   11.02    1.79   1
   1  -8  -4   31.25    2.35   1
   1  -8  -3  121.00    6.60   1
   1  -8  -2   17.22    1.99   1
   1  -8  -1   12.32    2.04   1
   1  -8   0   13.03    2.24   1
   1  -8   1    8.18    2.17   1
   1  -8   2   83.36    5.48   1
   1  -8   3   48.16    5.97   1
   1  -7 -12    6.60    2.72   1
   1  -7 -11    7.18    2.89   1
   1  -7 -10   14.21    2.19   1
   1  -7  -9    3.39    1.58   1
   1  -7  -8  185.23    7.89   1
   1  -7  -7  132.71    5.53   1
   1  -7  -6   22.18    1.70   1
   1  -7  -5  327.97    9.42   1
   1  -7  -4   24.11    1.57   1
   1  -7  -3   13.91    1.42   1
   1  -7  -2   15.13    1.48   1
   1  -7  -1   34.46    1.41   1
   1  -7   0  236.85    8.62   1
   1  -7   1   63.84    3.04   1
   1  -7   2  119.68    4.81   1
   1  -7   3   54.46    3.39   1
   1  -7   4    8.12    1.88   1
   1  -7   5   80.46    5.56   1
   1  -7   6  105.47    6.37   1
   1  -7   7    1.10    1.41   1
   1  -6 -14   51.27    5.44   1
   1  -6 -13   75.34    7.46   1
   1  -6 -12    3.20    1.50   1
   1  -6 -11   14.90    2.08   1
   1  -6 -10  114.70    4.50   1
   1  -6  -9    5.71    1.72   1
   1  -6  -8  114.49    4.71   1
   1  -6  -7  362.90   11.43   1
   1  -6  -6   58.22    2.90   1
   1  -6  -5   24.60    1.69   1
   1  -6  -4  255.68    7.04   1
   1  -6  -3   95.26    2.93   1
   1  -6  -2   27.98    1.06   1
   1  -6  -1   70.39    2.18   1
   1  -6   0  192.10    5.27   1
   1  -6   1   48.86    2.24   1
   1  -6   2    2.59    0.90   1
   1  -6   3   19.89    1.61   1
   1  -6   4  102.82    4.26   1
   1  -6   5   13.40    1.46   1
   1  -6   6   64.80    3.22   1
   1  -6   7   84.27    4.96   1
   1  -6   8   42.51    2.74   1
   1  -6   9   55.35    3.57   1
   1  -5 -15  151.04   13.03   1
   1  -5 -14  116.42    8.85   1
   1  -5 -13   18.23    3.42   1
   1  -5 -12   13.99    1.80   1
   1  -5 -11    8.18    1.60   1
   1  -5 -10  211.70    8.44   1
   1  -5  -9  273.24    8.93   1
   1  -5  -8  383.77   12.54   1
   1  -5  -7   34.57    2.00   1
   1  -5  -6  113.00    3.61   1
   1  -5  -5  417.38   12.26   1
   1  -5  -4  289.34    9.87   1
   1  -5  -3  150.80    3.68   1
   1  -5  -2  407.23    8.07   1
   1  -5  -1  140.19    3.32   1
   1  -5   0  116.21    3.02   1
   1  -5   1  122.32    3.10   1
   1  -5   2   14.82    1.08   1
   1  -5   3  322.20    8.26   1
   1  -5   4  138.30    4.47   1
   1  -5   5   52.85    2.33   1
   1  -5   6   56.85    2.87   1
   1  -5   7   36.84    2.55   1
   1  -5   8  112.15    4.66   1
   1  -5   9  190.16    7.17   1
   1  -5  10   56.10    3.60   1
   1  -5  11  106.50    6.40   1
   1  -4 -16    7.18    3.91   1
   1  -4 -15   32.38    4.21   1
   1  -4 -14   30.47    3.75   1
   1  -4 -13   89.68    4.36   1
   1  -4 -12   99.00    4.18   1
   1  -4 -11    3.31    0.62   1
   1  -4 -10  125.22    3.36   1
   1  -4  -9   12.18    0.91   1
   1  -4  -8  116.86    3.46   1
   1  -4  -7   25.91    1.43   1
   1  -4  -6  128.37    3.40   1
   1  -4  -5   77.09    2.46   1
   1  -4  -4  622.00   14.96   1
   1  -4  -3   48.16    1.67   1
   1  -4  -2 1058.20   17.57   1
   1  -4  -1  407.23    7.67   1
   1  -4   0   95.65    2.15   1
   1  -4   1   14.52    0.69   1
   1  -4   2   97.42    2.57   1
   1  -4   3  284.26    7.08   1
   1  -4   4  127.69    3.16   1
   1  -4   5   58.52    1.84   1
   1  -4   6   90.25    2.66   1
   1  -4   7  324.72    9.37   1
   1  -4   8   54.46    2.36   1
   1  -4   9  154.26    7.70   1
   1  -4  10   43.96    2.12   1
   1  -4  11   20.52    1.81   1
   1  -4  12  153.26    8.67   1
   1  -4  13  113.85    8.11   1
   1  -3 -17   51.98    7.21   1
   1  -3 -16   19.98    3.58   1
   1  -3 -15  271.26   16.14   1
   1  -3 -14   35.88    3.83   1
   1  -3 -13   77.79    3.35   1
   1  -3 -12  132.25    4.83   1
   1  -3 -11  261.15    9.05   1
   1  -3 -10   15.68    0.87   1
   1  -3  -9  188.51    4.12   1
   1  -3  -8  169.00    3.12   1
   1  -3  -7  138.06    2.59   1
   1  -3  -6  418.61    9.00   1
   1  -3  -5  117.72    3.26   1
   1  -3  -4  246.18    5.65   1
   1  -3  -3  232.26    5.18   1
   1  -3  -2 4090.88   81.87   1
   1  -3  -1 1923.70   33.33   1
   1  -3   0  167.44    3.11   1
   1  -3   1  561.69    9.95   1
   1  -3   2 1840.41   37.75   1
   1  -3   3 1062.11   20.21   1
   1  -3   4  344.84    6.69   1
   1  -3   5  560.74   10.89   1
   1  -3   6  105.68    2.67   1
   1  -3   7  153.02    3.71   1
   1  -3   8  429.32   12.02   1
   1  -3   9   91.20    3.06   1
   1  -3  10   54.91    2.07   1
   1  -3  11  243.98    6.56   1
   1  -3  12   64.96    2.90   1
   1  -3  13  201.92   12.79   1
   1  -3  14   39.56    4.15   1
   1  -2 -17   43.69    5.16   1
   1  -2 -16   60.37    6.06   1
   1  -2 -15   44.09    4.12   1
   1  -2 -14   23.81    2.64   1
   1  -2 -13  138.53    7.06   1
   1  -2 -12  306.60   11.56   1
   1  -2 -11   68.56    3.15   1
   1  -2 -10   41.34    1.80   1
   1  -2  -9   64.16    2.24   1
   1  -2  -8   25.60    0.91   1
   1  -2  -7  294.47    5.15   1
   1  -2  -6   96.04    2.16   1
   1  -2  -5   44.36    1.07   1
   1  -2  -4  157.50    3.01   1
   1  -2  -3  527.16    9.64   1
   1  -2  -2   51.70    1.44   1
   1  -2  -1  325.44    6.13   1
   1  -2   0 1206.87   21.54   1
   1  -2   1 1081.75   21.05   1
   1  -2   2  841.00   15.66   1
   1  -2   3 1314.79   26.11   1
   1  -2   4  705.43   12.22   1
   1  -2   5  332.33    6.20   1
   1  -2   6  686.96   12.58   1
   1  -2   7   15.29    0.70   1
   1  -2   8  545.22   13.54   1
   1  -2   9  403.21    9.24   1
   1  -2  10  338.93    8.84   1
   1  -2  11   31.92    1.92   1
   1  -2  12  198.53    7.89   1
   1  -2  13  131.10    6.64   1
   1  -2  14   44.76    4.15   1
   1  -2  15   45.83    5.69   1
   1  -1 -17  202.49   21.34   1
   1  -1 -16    9.49    1.91   1
   1  -1 -15  133.63    6.94   1
   1  -1 -14  211.99    9.90   1
   1  -1 -13   91.39    3.63   1
   1  -1 -12 1093.62   33.07   1
   1  -1 -11  952.96   29.02   1
   1  -1 -10  233.17    6.11   1
   1  -1  -9   63.84    1.76   1
   1  -1  -8  464.40    9.05   1
   1  -1  -7 2149.25   39.87   1
   1  -1  -6  991.62   22.67   1
   1  -1  -5 2337.72   51.25   1
   1  -1  -4 2978.98   49.12   1
   1  -1  -3  952.96   16.05   1
   1  -1  -1 2001.67   36.69   1
   1  -1   0 2580.64   50.80   1
   1  -1   2  940.04   16.56   1
   1  -1   3 2878.32   54.72   1
   1  -1   4 2071.16   33.68   1
   1  -1   5 1045.23   19.40   1
   1  -1   6 2468.10   42.72   1
   1  -1   7  351.94    6.00   1
   1  -1   8   33.87    0.93   1
   1  -1   9  205.92    4.59   1
   1  -1  10  952.96   20.99   1
   1  -1  11 1107.56   31.95   1
   1  -1  12   41.34    2.06   1
   1  -1  13  209.96    7.24   1
   1  -1  14  157.00    7.52   1
   1  -1  15   23.33    3.86   1
   1  -1  16  173.45   11.59   1
   1   0 -17   64.32    7.54   1
   1   0 -16  351.56   22.88   1
   1   0 -15  211.70    9.02   1
   1   0 -14  169.52    8.85   1
   1   0 -13   84.46    3.86   1
   1   0 -12  271.59    9.56   1
   1   0 -11  134.56    4.41   1
   1   0 -10    8.12    0.91   1
   1   0  -9   34.22    1.52   1
   1   0  -8  808.83   18.20   1
   1   0  -7   23.62    0.97   1
   1   0  -6  183.87    4.07   1
   1   0  -5  679.64   12.51   1
   1   0  -4  952.96   17.90   1
   1   0  -3  476.11   10.04   1
   1   0  -2 1989.16   50.84   1
   1   0  -1 1097.60   35.12   1
   1   0   0  198.81    9.87   1
   1   0   1 1156.00   27.88   1
   1   0   2 1501.56   29.45   1
   1   0   3  969.08   19.30   1
   1   0   4  810.54   17.08   1
   1   0   5 1025.92   19.22   1
   1   0   6  297.56    5.87   1
   1   0   7   87.80    1.87   1
   1   0   8   90.25    2.09   1
   1   0   9  241.80    4.35   1
   1   0  10  106.30    2.47   1
   1   0  11   50.13    1.84   1
   1   0  12   24.11    1.18   1
   1   0  13    5.29    1.01   1
   1   0  14    9.00    1.08   1
   1   0  15  244.61    9.07   1
   1   0  16   37.09    4.51   1
   1   0  17   30.03    4.82   1
   1   1 -16  156.25   14.50   1
   1   1 -15   21.53    2.60   1
   1   1 -14  417.38   13.89   1
   1   1 -13   34.46    2.35   1
   1   1 -12  664.09   20.62   1
   1   1 -11  382.59   11.34   1
   1   1 -10  117.29    3.68   1
   1   1  -9 2939.81   70.49   1
   1   1  -8  382.59    8.61   1
   1   1  -7   14.82    0.77   1
   1   1  -6  209.67    4.92   1
   1   1  -5 1372.70   40.76   1
   1   1  -4 1703.21   37.14   1
   1   1  -3   13.40    0.51   1
   1   1  -2  797.50   16.38   1
   1   1  -1 1955.41   51.30   1
   1   1   0    1.30    0.09   1
   1   1   2  553.19    9.88   1
   1   1   3 1093.62   19.84   1
   1   1   4  832.32   14.43   1
   1   1   5  665.12   12.38   1
   1   1   6 1864.51   29.36   1
   1   1   7 3428.10   64.40   1
   1   1   8 1944.81   33.52   1
   1   1   9  101.81    2.02   1
   1   1  10  100.20    2.20   1
   1   1  11  203.92    4.86   1
   1   1  12  377.91   11.66   1
   1   1  13    0.59    0.80   1
   1   1  14   19.54    1.68   1
   1   1  15   16.16    1.61   1
   1   1  16    5.52    2.40   1
   1   1  17   18.92    3.48   1
   1   2 -16   11.29    3.49   1
   1   2 -15   29.05    3.34   1
   1   2 -14  216.68    9.42   1
   1   2 -13  108.37    4.79   1
   1   2 -12    3.39    1.21   1
   1   2 -11  251.54   10.15   1
   1   2 -10   21.62    1.40   1
   1   2  -9  170.82    5.49   1
   1   2  -8  617.03   14.41   1
   1   2  -7  890.43   20.89   1
   1   2  -6  523.95   11.44   1
   1   2  -5  110.88    2.53   1
   1   2  -4 1291.68   28.75   1
   1   2  -3 1229.90   21.74   1
   1   2  -2  244.92    4.70   1
   1   2  -1  419.84    6.56   1
   1   2   0 1275.20   24.28   1
   1   2   1  205.92    4.02   1
   1   2   2   63.36    1.27   1
   1   2   3  122.77    2.22   1
   1   2   4  415.34    7.34   1
   1   2   5  362.52    6.47   1
   1   2   6  382.59    6.26   1
   1   2   7  721.46   11.82   1
   1   2   8  403.61    6.83   1
   1   2   9  265.69    5.87   1
   1   2  10    5.20    0.59   1
   1   2  11   84.46    2.39   1
   1   2  12   70.06    2.51   1
   1   2  13   87.80    3.75   1
   1   2  14   45.16    2.42   1
   1   2  15   49.98    2.97   1
   1   2  16    3.31    1.20   1
   1   2  17  248.06   25.51   1
   1   3 -15   12.32    2.67   1
   1   3 -14  266.34   16.32   1
   1   3 -13  119.90    6.13   1
   1   3 -12   46.38    2.86   1
   1   3 -11   12.60    1.63   1
   1   3 -10  109.20    4.39   1
   1   3  -9  663.58   20.61   1
   1   3  -8  309.76    9.15   1
   1   3  -7  158.51    4.28   1
   1   3  -6   81.72    2.35   1
   1   3  -5   66.75    1.63   1
   1   3  -4  380.64    7.41   1
   1   3  -3  615.04   10.91   1
   1   3  -2  195.72    3.08   1
   1   3  -1  437.23    7.11   1
   1   3   0  394.42    7.55   1
   1   3   1 1283.79   24.36   1
   1   3   2  810.54   18.22   1
   1   3   3  605.16   11.81   1
   1   3   4  108.16    2.29   1
   1   3   5  114.70    2.14   1
   1   3   6   64.80    1.45   1
   1   3   7   86.30    1.86   1
   1   3   8  628.00   11.03   1
   1   3   9  314.71    6.39   1
   1   3  10  131.56    3.21   1
   1   3  11   40.32    1.52   1
   1   3  12  273.90    8.94   1
   1   3  13  384.55   14.51   1
   1   3  14    4.88    1.11   1
   1   3  15   12.11    1.60   1
   1   3  16   28.30    2.45   1
   1   3  17  148.35   17.30   1
   1   4 -14   49.56    5.49   1
   1   4 -13   37.95    3.45   1
   1   4 -12   11.42    1.69   1
   1   4 -11  116.21    5.17   1
   1   4 -10   64.32    3.37   1
   1   4  -9   17.89    1.52   1
   1   4  -8   26.94    1.45   1
   1   4  -7  155.50    4.74   1
   1   4  -6  445.63   11.82   1
   1   4  -5   20.43    0.72   1
   1   4  -4   60.37    1.24   1
   1   4  -3  510.76    8.14   1
   1   4  -2  441.42    7.14   1
   1   4  -1  105.06    2.25   1
   1   4   0  179.56    3.48   1
   1   4   1   19.01    0.61   1
   1   4   2  314.00    6.73   1
   1   4   3  263.74    6.17   1
   1   4   4   56.25    1.65   1
   1   4   5   30.47    1.10   1
   1   4   6   33.76    0.93   1
   1   4   7  455.82    8.97   1
   1   4   8  250.27    5.06   1
   1   4   9   65.93    1.95   1
   1   4  10   73.62    2.23   1
   1   4  11   89.87    2.65   1
   1   4  12  281.90    9.40   1
   1   4  13  100.60    4.41   1
   1   4  14   10.37    1.48   1
   1   4  15    5.90    1.31   1
   1   4  16   50.55    4.83   1
   1   4  17   85.93   10.94   1
   1   5 -13   14.52    3.12   1
   1   5 -12    5.71    2.01   1
   1   5 -11   59.14    4.46   1
   1   5 -10   25.60    2.23   1
   1   5  -9  224.70    7.79   1
   1   5  -8    0.50    0.70   1
   1   5  -7  263.74    8.12   1
   1   5  -6  167.70    5.18   1
   1   5  -5   11.42    0.68   1
   1   5  -4    4.71    0.52   1
   1   5  -3  453.69    8.09   1
   1   5  -2  187.69    3.84   1
   1   5  -1  805.42   17.03   1
   1   5   0   58.37    1.53   1
   1   5   1  231.95    4.57   1
   1   5   2  449.44   11.02   1
   1   5   3  319.34    8.22   1
   1   5   4   79.21    2.31   1
   1   5   5   88.74    2.64   1
   1   5   6  238.70    5.87   1
   1   5   7   36.36    1.45   1
   1   5   8  840.42   20.29   1
   1   5   9  395.21    8.75   1
   1   5  10  252.81    6.68   1
   1   5  11   87.98    3.19   1
   1   5  12  389.27   14.21   1
   1   5  13  281.23   14.76   1
   1   5  14    3.69    3.00   1
   1   5  15  100.40    9.02   1
   1   5  16  150.55   13.01   1
   1   6 -10    4.28    1.41   1
   1   6  -9   52.56    3.77   1
   1   6  -8  124.99    7.83   1
   1   6  -7  156.00    7.24   1
   1   6  -6   12.32    1.19   1
   1   6  -5   67.08    2.13   1
   1   6  -4  412.90   13.82   1
   1   6  -3  240.87    5.59   1
   1   6  -2   78.68    2.13   1
   1   6  -1  164.61    4.36   1
   1   6   0  114.70    2.57   1
   1   6   1  361.38    6.84   1
   1   6   2  155.25    3.74   1
   1   6   3   81.72    2.89   1
   1   6   4   21.34    1.29   1
   1   6   5   11.22    0.60   1
   1   6   6  241.49    8.08   1
   1   6   7  262.44    8.75   1
   1   6   8   78.15    4.07   1
   1   6   9  254.08   11.16   1
   1   6  10   75.69    4.35   1
   1   6  11   41.47    3.35   1
   1   6  12  135.96    8.40   1
   1   6  13   73.44    5.48   1
   1   6  14   62.73    6.81   1
   1   6  15   26.42    4.52   1
   1   7  -8   45.70    5.95   1
   1   7  -7   43.96    2.92   1
   1   7  -6   29.48    2.50   1
   1   7  -5   10.82    1.51   1
   1   7  -4   43.56    2.11   1
   1   7  -3  106.30    3.30   1
   1   7  -2  134.33    4.40   1
   1   7  -1   33.64    1.28   1
   1   7   0   96.04    3.14   1
   1   7   1   13.69    1.04   1
   1   7   2  609.60   21.23   1
   1   7   3   40.83    1.92   1
   1   7   4  139.24    6.14   1
   1   7   5   55.35    2.08   1
   1   7   6  543.36   25.17   1
   1   7   7   62.25    4.26   1
   1   7   8   30.25    3.41   1
   1   7   9   13.32    2.34   1
   1   7  10   43.43    4.09   1
   1   7  11   36.48    4.11   1
   1   7  12   21.90    3.18   1
   1   7  13    3.88    2.68   1
   1   7  14   45.29    6.73   1
   1   8  -6   14.29   12.63   1
   1   8  -5    9.30    3.78   1
   1   8  -4   29.92    5.25   1
   1   8  -3  160.53    8.11   1
   1   8  -2   94.67    4.67   1
   1   8  -1   91.78    3.45   1
   1   8   0  250.59   11.71   1
   1   8   1    2.79    1.50   1
   1   8   2   55.95    3.14   1
   1   8   3   72.59    3.92   1
   1   8   4  447.32   19.03   1
   1   8   5   55.35    3.42   1
   1   8   6   56.25    5.25   1
   1   8   7  105.47    5.75   1
   1   8   8   72.93    6.66   1
   1   8   9   16.40    3.48   1
   1   8  10   -1.30    2.01   1
   1   8  11   75.69    7.31   1
   1   9  -1   90.44    8.94   1
   1   9   0  128.14   12.00   1
   1   9   1   38.94    3.49   1
   1   9   2   65.93    5.03   1
   1   9   3   25.91    2.75   1
   1   9   4   33.18    3.00   1
   1   9   5    4.88    2.08   1
   1   9   6   38.07    3.46   1
   1   9   7   11.09    4.53   1
   2  -8  -6   76.56    6.47   1
   2  -8  -5   60.06    4.03   1
   2  -8  -4   10.11    2.10   1
   2  -8  -3    5.38    2.27   1
   2  -8  -2  107.74    5.61   1
   2  -8  -1    6.71    2.28   1
   2  -7 -11    4.20    4.10   1
   2  -7 -10   11.90    3.73   1
   2  -7  -9   46.92    3.56   1
   2  -7  -8   41.73    3.36   1
   2  -7  -7   43.43    2.50   1
   2  -7  -6  219.04    9.47   1
   2  -7  -5   61.94    2.99   1
   2  -7  -4   65.45    2.91   1
   2  -7  -3   84.46    3.49   1
   2  -7  -2   55.65    2.54   1
   2  -7  -1   25.50    1.82   1
   2  -7   0    9.42    1.72   1
   2  -7   1   51.12    3.29   1
   2  -7   2    4.28    0.99   1
   2  -7   3   53.44    4.24   1
   2  -7   4    6.40    1.72   1
   2  -7   5   74.13    5.34   1
   2  -6 -13   15.68    3.41   1
   2  -6 -12   62.25    5.05   1
   2  -6 -11   13.10    2.39   1
   2  -6 -10   55.65    3.73   1
   2  -6  -9   68.06    4.12   1
   2  -6  -8  132.94    5.53   1
   2  -6  -7  145.20    5.30   1
   2  -6  -6   54.91    2.96   1
   2  -6  -5   54.32    2.36   1
   2  -6  -4  297.22    8.62   1
   2  -6  -3   30.25    1.65   1
   2  -6  -2  114.70    3.21   1
   2  -6  -1   18.92    1.04   1
   2  -6   0   21.62    1.12   1
   2  -6   1  111.72    3.38   1
   2  -6   2  418.20   13.50   1
   2  -6   3    0.40    0.59   1
   2  -6   4  120.34    3.29   1
   2  -6   5   21.81    1.40   1
   2  -6   6   88.92    3.96   1
   2  -6   7   87.80    5.62   1
   2  -6   8   18.40    1.89   1
   2  -5 -14   61.15    6.41   1
   2  -5 -13  108.37    8.54   1
   2  -5 -12   12.39    2.18   1
   2  -5 -11    0.79    1.80   1
   2  -5 -10   43.16    2.63   1
   2  -5  -9  160.28    7.09   1
   2  -5  -8   26.21    2.15   1
   2  -5  -7   24.60    1.59   1
   2  -5  -6    1.49    1.10   1
   2  -5  -5  314.00   10.28   1
   2  -5  -4  180.36    5.10   1
   2  -5  -3   92.54    2.89   1
   2  -5  -2   70.06    2.01   1
   2  -5  -1  306.95    7.36   1
   2  -5   0  194.04    4.46   1
   2  -5   1   67.57    1.64   1
   2  -5   2   53.88    1.47   1
   2  -5   3    8.18    0.57   1
   2  -5   4  149.08    4.15   1
   2  -5   5  219.04    6.51   1
   2  -5   6   20.16    1.44   1
   2  -5   7   38.94    2.37   1
   2  -5   8   45.70    3.65   1
   2  -5   9    8.29    1.50   1
   2  -5  10  194.32   10.04   1
   2  -4 -16    0.30    4.32   1
   2  -4 -15   20.34    4.33   1
   2  -4 -14  208.51   15.31   1
   2  -4 -13  300.33   13.52   1
   2  -4 -12   33.41    3.35   1
   2  -4 -11   10.50    0.97   1
   2  -4 -10   52.27    1.88   1
   2  -4  -9  137.83    3.52   1
   2  -4  -8  277.56    8.66   1
   2  -4  -7   27.14    1.67   1
   2  -4  -6   34.57    1.76   1
   2  -4  -5  364.05    9.54   1
   2  -4  -4  606.14   15.26   1
   2  -4  -3  109.41    3.35   1
   2  -4  -2  399.20    7.59   1
   2  -4  -1  388.09    7.88   1
   2  -4   0  891.02   14.93   1
   2  -4   1   42.64    1.04   1
   2  -4   2  135.02    2.79   1
   2  -4   3  366.34    7.27   1
   2  -4   4  589.03   16.99   1
   2  -4   5  233.17    6.41   1
   2  -4   6   25.40    1.11   1
   2  -4   7   10.63    0.91   1
   2  -4   8   60.37    2.33   1
   2  -4   9  204.20    7.72   1
   2  -4  10  129.96    4.79   1
   2  -4  11   13.76    2.30   1
   2  -4  12   70.06    5.36   1
   2  -3 -16   27.04    3.02   1
   2  -3 -15   85.38    4.99   1
   2  -3 -14   51.70    3.45   1
   2  -3 -13   34.93    1.65   1
   2  -3 -12    8.82    0.89   1
   2  -3 -11  542.42   17.70   1
   2  -3 -10  197.12    5.34   1
   2  -3  -9   10.30    0.77   1
   2  -3  -8    5.81    0.58   1
   2  -3  -7   72.42    1.53   1
   2  -3  -6  404.41    8.04   1
   2  -3  -5  265.04    5.86   1
   2  -3  -4  135.26    3.49   1
   2  -3  -3  215.21    4.69   1
   2  -3  -2  336.36    5.87   1
   2  -3  -1   96.63    1.97   1
   2  -3   0  202.49    3.70   1
   2  -3   1  453.26    7.66   1
   2  -3   2  419.02    6.96   1
   2  -3   3  336.72    6.61   1
   2  -3   4  399.20    7.59   1
   2  -3   5  231.65    4.87   1
   2  -3   6  299.64    6.58   1
   2  -3   7  659.46   12.84   1
   2  -3   8  147.38    4.13   1
   2  -3   9  200.51    5.95   1
   2  -3  10  197.96    6.47   1
   2  -3  11    0.00    1.00   1
   2  -3  12   40.96    3.07   1
   2  -3  13  110.88    7.79   1
   2  -3  14   25.10    3.51   1
   2  -2 -17    9.99    3.22   1
   2  -2 -16   40.07    4.68   1
   2  -2 -15   43.69    3.17   1
   2  -2 -14  144.00    6.00   1
   2  -2 -13   48.30    2.36   1
   2  -2 -12   31.81    1.58   1
   2  -2 -11 1076.50   34.12   1
   2  -2 -10  552.25   14.57   1
   2  -2  -9   59.91    1.86   1
   2  -2  -8  951.11   20.35   1
   2  -2  -7 2165.97   40.96   1
   2  -2  -6 1880.96   32.96   1
   2  -2  -5  474.80    7.84   1
   2  -2  -4  608.12    9.86   1
   2  -2  -3  381.42    7.42   1
   2  -2  -2  835.79   15.61   1
   2  -2  -1  869.66   15.33   1
   2  -2   0  744.74   13.65   1
   2  -2   1  172.40    2.89   1
   2  -2   2  820.82   13.75   1
   2  -2   3  473.06    7.83   1
   2  -2   4 2036.72   36.10   1
   2  -2   5 1615.24   30.54   1
   2  -2   6 1301.77   22.37   1
   2  -2   7  102.01    2.02   1
   2  -2   8  664.61   15.98   1
   2  -2   9  943.10   22.73   1
   2  -2  10   34.34    1.17   1
   2  -2  11   62.73    2.06   1
   2  -2  12  201.07   11.63   1
   2  -2  13   48.02    3.19   1
   2  -2  14   29.59    3.37   1
   2  -2  15    0.40    1.89   1
   2  -1 -17   71.23    9.62   1
   2  -1 -16   14.98    3.33   1
   2  -1 -15  254.72   15.64   1
   2  -1 -14   22.18    3.20   1
   2  -1 -13  222.31   10.44   1
   2  -1 -12   41.09    3.20   1
   2  -1 -11  392.04   14.65   1
   2  -1 -10  731.16   21.63   1
   2  -1  -9  130.64    3.66   1
   2  -1  -8   29.38    1.30   1
   2  -1  -7  469.16    9.96   1
   2  -1  -6 1245.38   22.59   1
   2  -1  -5  446.48    9.30   1
   2  -1  -4 1163.49   23.88   1
   2  -1  -3  187.69    3.29   1
   2  -1  -2 2574.55   47.70   1
   2  -1  -1  310.11    6.34   1
   2  -1   0  381.03    7.81   1
   2  -1   1  197.12    4.21   1
   2  -1   2  196.28    3.36   1
   2  -1   3  312.94    5.66   1
   2  -1   4   84.64    1.66   1
   2  -1   5  119.90    2.41   1
   2  -1   6  156.00    3.50   1
   2  -1   7   44.49    1.07   1
   2  -1   8  225.30    4.50   1
   2  -1   9   36.84    0.97   1
   2  -1  10  113.85    3.20   1
   2  -1  11  367.49    9.97   1
   2  -1  12   79.57    2.85   1
   2  -1  13   99.60    6.39   1
   2  -1  14    1.80    2.09   1
   2  -1  15   29.27    5.41   1
   2  -1  16  130.19    9.58   1
   2   0 -17  132.25   15.64   1
   2   0 -16  335.26   27.10   1
   2   0 -15   84.27    4.96   1
   2   0 -14    9.00    1.50   1
   2   0 -13   60.37    2.95   1
   2   0 -12   37.95    1.97   1
   2   0 -11 1715.62   45.56   1
   2   0 -10  286.96    7.45   1
   2   0  -9  183.06    4.60   1
   2   0  -8  353.44    8.27   1
   2   0  -7  945.56   20.91   1
   2   0  -6  875.57   20.12   1
   2   0  -5 1867.10   41.48   1
   2   0  -4 1346.89   27.16   1
   2   0  -3 1494.60   27.84   1
   2   0  -2  441.84    8.83   1
   2   0  -1 5501.19  287.78   1
   2   0   0 1149.89   28.48   1
   2   0   2 2161.32   49.28   1
   2   0   3  452.41    8.93   1
   2   0   4  392.04    7.52   1
   2   0   5  495.51    8.46   1
   2   0   6  239.01    4.33   1
   2   0   7  602.70    9.82   1
   2   0   8  537.31    8.81   1
   2   0   9   15.52    0.63   1
   2   0  10  103.84    2.65   1
   2   0  11   61.47    2.04   1
   2   0  12  136.89    4.91   1
   2   0  13   61.47    2.35   1
   2   0  14   36.84    2.31   1
   2   0  15   84.64    4.97   1
   2   0  16   28.20    3.61   1
   2   1 -16   81.36    9.38   1
   2   1 -15   44.09    3.85   1
   2   1 -14   72.25    4.08   1
   2   1 -13  222.01    7.45   1
   2   1 -12  144.72    5.05   1
   2   1 -11   68.72    2.98   1
   2   1 -10  116.64    4.32   1
   2   1  -9    3.50    0.71   1
   2   1  -8 1393.53   30.61   1
   2   1  -7  726.30   16.71   1
   2   1  -6   70.73    2.02   1
   2   1  -5   40.07    1.27   1
   2   1  -4 2596.92   66.25   1
   2   1  -3  209.09    5.78   1
   2   1  -2  495.51    9.79   1
   2   1  -1  410.47    7.70   1
   2   1   0 1077.15   21.66   1
   2   1   1  202.49    3.42   1
   2   1   2   75.86    1.22   1
   2   1   3  146.65    2.42   1
   2   1   4  182.79    2.97   1
   2   1   5  491.51    7.98   1
   2   1   6 1135.02   17.52   1
   2   1   7  350.81    5.62   1
   2   1   8   25.81    0.81   1
   2   1   9  250.59    5.07   1
   2   1  10  105.88    2.26   1
   2   1  11  128.60    2.72   1
   2   1  12    5.38    0.70   1
   2   1  13   30.69    1.44   1
   2   1  14   18.58    1.47   1
   2   1  15  104.24    5.92   1
   2   1  16  165.38   12.60   1
   2   1  17   44.89    6.03   1
   2   2 -16  116.64   13.39   1
   2   2 -15    9.12    2.30   1
   2   2 -14   24.11    2.26   1
   2   2 -13  159.26    6.81   1
   2   2 -12    3.31    1.09   1
   2   2 -11    5.20    1.00   1
   2   2 -10  372.10   11.96   1
   2   2  -9   11.63    0.89   1
   2   2  -8  659.98   15.41   1
   2   2  -7  245.86    5.96   1
   2   2  -6   81.36    2.16   1
   2   2  -5  318.62    6.78   1
   2   2  -4   42.12    1.17   1
   2   2  -3 1116.90   23.39   1
   2   2  -2  590.00   13.12   1
   2   2  -1  378.30    6.61   1
   2   2   0  724.15   13.99   1
   2   2   1 1902.70   34.90   1
   2   2   2  227.41    3.62   1
   2   2   3 1267.36   19.22   1
   2   2   4  501.31    7.61   1
   2   2   5   27.88    0.74   1
   2   2   6   80.82    1.44   1
   2   2   7   37.58    0.86   1
   2   2   8    0.30    0.30   1
   2   2   9  133.40    2.77   1
   2   2  10  112.36    2.76   1
   2   2  11  578.40   12.99   1
   2   2  12   18.06    1.11   1
   2   2  13  263.74    8.44   1
   2   2  14  182.79    8.38   1
   2   2  15  121.44    6.39   1
   2   2  16   40.32    4.19   1
   2   2  17   12.60    3.19   1
   2   3 -15   38.94    4.74   1
   2   3 -14  106.71    7.23   1
   2   3 -13   70.22    4.02   1
   2   3 -12    9.80    1.38   1
   2   3 -11   80.82    3.42   1
   2   3 -10  122.77    4.65   1
   2   3  -9   45.56    2.16   1
   2   3  -8  225.30    6.60   1
   2   3  -7   13.62    0.89   1
   2   3  -6  123.43    4.00   1
   2   3  -5  685.39   12.57   1
   2   3  -4  528.54   10.58   1
   2   3  -3    8.41    0.41   1
   2   3  -2  410.06    6.89   1
   2   3  -1  318.27    5.35   1
   2   3   0  907.82   17.48   1
   2   3   1  109.83    2.72   1
   2   3   2   57.46    1.21   1
   2   3   3  255.68    4.48   1
   2   3   4  592.92    9.74   1
   2   3   5   41.86    1.04   1
   2   3   6  377.14    6.21   1
   2   3   7   17.31    0.58   1
   2   3   8  490.62    8.86   1
   2   3   9  128.37    2.72   1
   2   3  10  132.71    3.23   1
   2   3  11   25.20    1.20   1
   2   3  12    7.90    0.79   1
   2   3  13   77.97    3.18   1
   2   3  14  124.32    4.46   1
   2   3  15   23.52    1.84   1
   2   3  16   42.25    4.16   1
   2   3  17   27.04    4.16   1
   2   4 -14    0.59    2.79   1
   2   4 -13  113.00    7.87   1
   2   4 -12   16.08    1.60   1
   2   4 -11  131.79    6.20   1
   2   4 -10   43.30    2.50   1
   2   4  -9  289.68   10.21   1
   2   4  -8  139.00    5.19   1
   2   4  -7    5.62    0.71   1
   2   4  -6  443.52   12.64   1
   2   4  -5  160.78    3.80   1
   2   4  -4    8.18    0.40   1
   2   4  -3   59.91    1.24   1
   2   4  -2  183.60    3.25   1
   2   4  -1  165.12    2.83   1
   2   4   0  867.30   15.31   1
   2   4   1  678.60   13.55   1
   2   4   2    8.88    0.60   1
   2   4   3 1106.89   21.29   1
   2   4   4 2036.72   48.74   1
   2   4   5    8.58    0.59   1
   2   4   6  390.46    6.72   1
   2   4   7  347.08    5.96   1
   2   4   8  610.09   11.36   1
   2   4   9 1270.92   24.24   1
   2   4  10   43.82    1.46   1
   2   4  11   29.70    1.42   1
   2   4  12    6.50    0.92   1
   2   4  13  366.34   14.93   1
   2   4  14  392.44   14.26   1
   2   4  15   26.73    2.38   1
   2   4  16    6.30    2.41   1
   2   5 -12   85.01    5.72   1
   2   5 -11  216.97   10.31   1
   2   5 -10   51.84    3.31   1
   2   5  -9   41.60    2.58   1
   2   5  -8   16.40    1.30   1
   2   5  -7   93.12    4.25   1
   2   5  -6  341.88    8.51   1
   2   5  -5   34.69    1.06   1
   2   5  -4  273.90    5.63   1
   2   5  -3  335.62    6.23   1
   2   5  -2  563.11    9.97   1
   2   5  -1  252.17    4.13   1
   2   5   0  438.06    7.53   1
   2   5   1   27.25    0.94   1
   2   5   2  653.82   15.85   1
   2   5   3   59.44    1.85   1
   2   5   4  231.95    4.26   1
   2   5   5   64.96    2.10   1
   2   5   6   61.15    1.72   1
   2   5   7  101.61    2.62   1
   2   5   8  145.20    3.13   1
   2   5   9   75.17    2.08   1
   2   5  10   47.33    1.65   1
   2   5  11   27.25    1.57   1
   2   5  12   72.76    3.07   1
   2   5  13   80.10    3.58   1
   2   5  14   80.46    6.64   1
   2   5  15   53.14    5.98   1
   2   5  16   30.58    4.09   1
   2   6 -11   49.42    4.92   1
   2   6 -10   91.20    9.17   1
   2   6  -9   15.92    1.92   1
   2   6  -8   68.89    3.82   1
   2   6  -7   62.09    2.36   1
   2   6  -6  295.50    7.56   1
   2   6  -5    3.20    0.72   1
   2   6  -4   28.41    1.07   1
   2   6  -3    0.59    0.40   1
   2   6  -2  338.56    6.26   1
   2   6  -1  372.88    6.95   1
   2   6   0  891.62   17.32   1
   2   6   1  283.92    7.08   1
   2   6   2   97.22    2.56   1
   2   6   3  388.88    9.07   1
   2   6   4 1168.96   23.93   1
   2   6   5   27.25    1.36   1
   2   6   6   27.98    1.59   1
   2   6   7  130.19    4.11   1
   2   6   8  107.74    3.74   1
   2   6   9   62.25    3.16   1
   2   6  10    9.18    1.39   1
   2   6  11   53.29    3.65   1
   2   6  12   91.39    4.97   1
   2   6  13   59.60    5.40   1
   2   6  14   30.36    4.19   1
   2   6  15  168.48   14.28   1
   2   7  -9   17.89    3.72   1
   2   7  -8  122.54   11.29   1
   2   7  -7   84.82    6.45   1
   2   7  -6   36.24    2.41   1
   2   7  -5   18.92    1.31   1
   2   7  -4    1.39    0.59   1
   2   7  -3  127.69    4.07   1
   2   7  -2  297.56    7.24   1
   2   7  -1   62.57    1.74   1
   2   7   0  313.64    8.50   1
   2   7   1  178.22    5.87   1
   2   7   2  108.99    3.55   1
   2   7   3  543.36   15.38   1
   2   7   4  682.78   25.61   1
   2   7   5  148.60    3.41   1
   2   7   6   35.16    2.25   1
   2   7   7  140.66    7.12   1
   2   7   8   21.34    2.03   1
   2   7   9    5.62    1.80   1
   2   7  10   53.73    4.25   1
   2   7  11   25.70    3.55   1
   2   7  12    4.88    2.48   1
   2   7  13    1.30    2.51   1
   2   7  14   52.42    5.79   1
   2   8  -6   50.55    5.12   1
   2   8  -5   10.69    3.92   1
   2   8  -4   19.62    3.54   1
   2   8  -3   53.73    3.37   1
   2   8  -2   36.84    3.16   1
   2   8  -1   52.56    2.18   1
   2   8   0   41.73    2.07   1
   2   8   1   93.32    4.25   1
   2   8   2   16.48    1.79   1
   2   8   3  150.31    5.88   1
   2   8   4   42.77    2.75   1
   2   8   5  109.83    4.61   1
   2   8   6   26.73    3.10   1
   2   8   7   86.86    3.73   1
   2   8   8   10.82    2.83   1
   2   8   9   20.07    3.76   1
   2   8  10   91.58    8.04   1
   2   8  11   47.06    6.04   1
   2   8  12   34.69    4.83   1
   2   9  -2   51.55    5.31   1
   2   9  -1   27.46    3.35   1
   2   9   0   51.55    3.73   1
   2   9   1   10.18    3.51   1
   2   9   2   24.30    2.76   1
   2   9   3   98.80    6.36   1
   2   9   4    3.88    1.62   1
   2   9   5   36.97    3.16   1
   2   9   6   71.57    5.08   1
   2   9   7   12.60    2.63   1
   2   9   8  121.44   14.55   1
   3  -7  -8   18.92    2.70   1
   3  -7  -7   39.56    4.78   1
   3  -7  -6   77.44    5.28   1
   3  -7  -5   30.14    2.85   1
   3  -7  -4   19.10    2.36   1
   3  -7  -3   23.14    2.69   1
   3  -7  -2   30.36    3.09   1
   3  -7  -1   64.64    4.66   1
   3  -7   0   13.10    2.90   1
   3  -7   1    7.78    3.18   1
   3  -7   2   41.73    4.78   1
   3  -6 -11   11.42    2.30   1
   3  -6 -10   21.62    2.70   1
   3  -6  -9   37.82    3.57   1
   3  -6  -8   43.96    3.32   1
   3  -6  -7  107.33    4.97   1
   3  -6  -6   95.06    3.70   1
   3  -6  -5   18.32    1.28   1
   3  -6  -4   89.30    3.21   1
   3  -6  -3    9.67    1.12   1
   3  -6  -2    7.40    0.98   1
   3  -6  -1   37.09    1.71   1
   3  -6   0    5.02    1.12   1
   3  -6   1  243.05   13.41   1
   3  -6   2   36.60    2.78   1
   3  -6   3   30.03    2.74   1
   3  -6   4   36.12    3.25   1
   3  -6   5   85.01    5.53   1
   3  -6   6   33.41    3.35   1
   3  -5 -13   42.25    4.55   1
   3  -5 -12  121.22    9.47   1
   3  -5 -11   40.83    4.22   1
   3  -5 -10   37.58    3.07   1
   3  -5  -9   10.30    1.48   1
   3  -5  -8   70.39    2.85   1
   3  -5  -7  518.93   15.95   1
   3  -5  -6   58.06    2.59   1
   3  -5  -5  104.45    3.27   1
   3  -5  -4   49.28    1.97   1
   3  -5  -3  113.42    3.62   1
   3  -5  -2   85.75    2.59   1
   3  -5  -1   49.42    1.55   1
   3  -5   0   11.90    0.69   1
   3  -5   1   78.15    2.48   1
   3  -5   2  100.80    3.41   1
   3  -5   3  148.35    5.36   1
   3  -5   4   67.57    2.30   1
   3  -5   5    7.40    0.82   1
   3  -5   6  284.26   10.12   1
   3  -5   7    3.88    1.10   1
   3  -5   8    2.40    1.30   1
   3  -5   9   40.96    3.46   1
   3  -4 -15    8.18    2.97   1
   3  -4 -14   30.25    4.62   1
   3  -4 -13  115.99    8.83   1
   3  -4 -12   19.98    3.67   1
   3  -4 -11   15.76    3.18   1
   3  -4 -10   84.27    3.86   1
   3  -4  -9  151.78    5.17   1
   3  -4  -8    4.41    0.88   1
   3  -4  -7  152.28    4.94   1
   3  -4  -6  309.76    7.74   1
   3  -4  -5  642.12   18.75   1
   3  -4  -4  310.11   10.21   1
   3  -4  -3   89.68    2.84   1
   3  -4  -2   27.14    1.04   1
   3  -4  -1  144.00    3.36   1
   3  -4   0   57.30    1.67   1
   3  -4   1  310.46    7.05   1
   3  -4   2  142.56    3.34   1
   3  -4   3  347.45    9.32   1
   3  -4   4   83.36    2.56   1
   3  -4   5   18.92    1.04   1
   3  -4   6  330.88    8.00   1
   3  -4   7   15.76    1.27   1
   3  -4   8   76.21    2.97   1
   3  -4   9   53.44    2.92   1
   3  -4  10  184.96    9.52   1
   3  -4  11  192.93    8.89   1
   3  -3 -15   12.11    2.99   1
   3  -3 -14   85.01    6.27   1
   3  -3 -13  271.26   12.52   1
   3  -3 -12    2.69    0.98   1
   3  -3 -11   62.09    2.84   1
   3  -3 -10   76.04    2.62   1
   3  -3  -9  881.50   23.75   1
   3  -3  -8  297.22    7.24   1
   3  -3  -7  644.65   13.20   1
   3  -3  -6  503.10    9.42   1
   3  -3  -5  866.71   18.84   1
   3  -3  -4   52.13    1.59   1
   3  -3  -3   62.57    1.74   1
   3  -3  -2   99.00    1.99   1
   3  -3  -1  207.65    4.03   1
   3  -3   0  136.42    2.80   1
   3  -3   1   79.39    1.78   1
   3  -3   2  635.54   11.60   1
   3  -3   3  352.31    7.13   1
   3  -3   4  895.21   20.35   1
   3  -3   5  235.01    5.21   1
   3  -3   6  933.91   20.78   1
   3  -3   7   31.58    1.35   1
   3  -3   8  125.89    3.59   1
   3  -3   9   19.80    1.42   1
   3  -3  10  319.34   10.72   1
   3  -3  11   48.16    2.78   1
   3  -3  12   52.56    3.77   1
   3  -3  13    4.49    1.78   1
   3  -2 -16   -0.90    3.50   1
   3  -2 -15   74.13    8.27   1
   3  -2 -14  132.94    6.46   1
   3  -2 -13   89.30    3.78   1
   3  -2 -12  179.02    6.15   1
   3  -2 -11   61.94    2.68   1
   3  -2 -10  328.33    9.06   1
   3  -2  -9  895.80   22.15   1
   3  -2  -8   99.60    2.79   1
   3  -2  -7  179.29    4.28   1
   3  -2  -6  430.98    8.72   1
   3  -2  -5  202.49    3.70   1
   3  -2  -4  877.94   14.81   1
   3  -2  -3   87.24    1.68   1
   3  -2  -2  100.20    2.20   1
   3  -2  -1  192.10    3.88   1
   3  -2   0  138.06    2.82   1
   3  -2   1  443.52    9.27   1
   3  -2   2   65.45    1.62   1
   3  -2   3   64.96    1.77   1
   3  -2   4  605.65   11.81   1
   3  -2   5   56.70    1.51   1
   3  -2   6   12.32    0.70   1
   3  -2   7   13.40    0.73   1
   3  -2   8  347.08    7.82   1
   3  -2   9  495.51   11.13   1
   3  -2  10   35.05    1.78   1
   3  -2  11    4.00    1.12   1
   3  -2  12   58.06    3.20   1
   3  -2  13   48.72    2.93   1
   3  -2  14   54.46    4.43   1
   3  -1 -16   84.27    6.24   1
   3  -1 -15  208.51   10.69   1
   3  -1 -14   30.69    2.22   1
   3  -1 -13  159.52    6.32   1
   3  -1 -12    3.88    1.10   1
   3  -1 -11  131.10    4.81   1
   3  -1 -10  419.84   11.06   1
   3  -1  -9  117.29    3.25   1
   3  -1  -8   42.90    1.57   1
   3  -1  -7  405.22    8.45   1
   3  -1  -6  539.63   10.69   1
   3  -1  -5 1236.93   23.92   1
   3  -1  -4 1541.35   29.05   1
   3  -1  -3  489.74    9.29   1
   3  -1  -2  356.83    6.04   1
   3  -1  -1 1861.92   30.20   1
   3  -1   0 3950.12   84.22   1
   3  -1   1  231.65    4.57   1
   3  -1   2  382.20    7.43   1
   3  -1   3  146.17    3.14   1
   3  -1   4  408.44    9.70   1
   3  -1   5   85.38    2.03   1
   3  -1   6  144.72    3.37   1
   3  -1   7  231.95    5.79   1
   3  -1   8   30.25    1.65   1
   3  -1   9  282.91    7.74   1
   3  -1  10  114.49    3.85   1
   3  -1  11   58.68    2.76   1
   3  -1  12   75.86    4.53   1
   3  -1  13  215.80   13.51   1
   3  -1  14   31.25    4.25   1
   3  -1  15   15.92    3.43   1
   3   0 -16   46.24    6.39   1
   3   0 -15  226.80   18.37   1
   3   0 -14   43.69    3.44   1
   3   0 -13   32.60    2.86   1
   3   0 -12    6.92    1.58   1
   3   0 -11  242.42    9.96   1
   3   0 -10  101.20    4.83   1
   3   0  -9  196.56    8.13   1
   3   0  -8  103.43    2.85   1
   3   0  -7  207.07    4.89   1
   3   0  -6  635.54   13.61   1
   3   0  -5  279.56    6.02   1
   3   0  -4  962.86   19.24   1
   3   0  -3  867.89   15.91   1
   3   0  -2  685.92   13.10   1
   3   0  -1  117.94    2.61   1
   3   0   0  239.94    4.65   1
   3   0   1   62.57    1.58   1
   3   0   2 1186.11   24.80   1
   3   0   3  248.38    4.41   1
   3   0   4  449.86    8.91   1
   3   0   5   34.93    0.95   1
   3   0   6  617.52   11.43   1
   3   0   7  262.44    5.18   1
   3   0   8   35.52    1.19   1
   3   0   9  100.60    2.61   1
   3   0  10  175.03    5.29   1
   3   0  11   11.22    0.87   1
   3   0  12   45.56    2.30   1
   3   0  13   67.24    3.77   1
   3   0  14   34.11    8.76   1
   3   0  15   15.21    3.12   1
   3   1 -16   17.89    4.06   1
   3   1 -15  242.42   14.95   1
   3   1 -14   85.93    5.56   1
   3   1 -13   62.57    3.32   1
   3   1 -12    2.99    1.11   1
   3   1 -11  145.68    5.07   1
   3   1 -10  613.55   18.33   1
   3   1  -9  305.90    8.05   1
   3   1  -8  236.54    6.77   1
   3   1  -7  120.56    3.29   1
   3   1  -6   54.17    2.06   1
   3   1  -5  453.26   12.77   1
   3   1  -4  520.30   12.32   1
   3   1  -3  273.57    6.62   1
   3   1  -2  449.44   10.18   1
   3   1  -1  335.26    6.59   1
   3   1   0 1221.50   28.66   1
   3   1   1  902.40   17.42   1
   3   1   2  591.95   10.22   1
   3   1   3  116.21    2.16   1
   3   1   4   98.60    1.99   1
   3   1   5  116.64    2.16   1
   3   1   6   46.65    1.09   1
   3   1   7  638.07   11.11   1
   3   1   8  266.02    4.89   1
   3   1   9  134.79    3.02   1
   3   1  10   48.16    1.67   1
   3   1  11  318.27    8.92   1
   3   1  12  326.16   10.84   1
   3   1  13    6.50    1.02   1
   3   1  14   25.50    2.12   1
   3   1  15   41.86    4.66   1
   3   1  16  140.66    9.73   1
   3   2 -15   15.13    2.57   1
   3   2 -14   29.81    2.73   1
   3   2 -13  134.10    5.79   1
   3   2 -12  121.88    5.30   1
   3   2 -11   20.07    1.61   1
   3   2 -10   53.58    2.34   1
   3   2  -9   41.60    2.06   1
   3   2  -8  186.32    5.73   1
   3   2  -7  255.68    6.40   1
   3   2  -6  292.07    7.18   1
   3   2  -5   64.00    1.92   1
   3   2  -4  678.08   19.27   1
   3   2  -3  407.64    8.08   1
   3   2  -2  263.41    4.54   1
   3   2  -1  195.72    3.92   1
   3   2   0  691.16   13.67   1
   3   2   1  211.99    4.66   1
   3   2   2  541.49    8.84   1
   3   2   3   96.24    1.57   1
   3   2   4  194.60    3.35   1
   3   2   5    7.67    0.50   1
   3   2   6  600.25    9.80   1
   3   2   7  462.68    8.17   1
   3   2   8   22.66    0.95   1
   3   2   9   20.70    0.91   1
   3   2  10  239.32    4.95   1
   3   2  11   74.65    2.07   1
   3   2  12   65.45    1.94   1
   3   2  13    6.50    0.61   1
   3   2  14   61.47    3.45   1
   3   2  15   36.97    3.16   1
   3   2  16  129.05   11.13   1
   3   3 -15   10.82    3.09   1
   3   3 -14    3.69    1.69   1
   3   3 -13  122.77    6.65   1
   3   3 -12  134.33    7.19   1
   3   3 -11   20.16    1.89   1
   3   3 -10   69.22    2.66   1
   3   3  -9   29.16    1.84   1
   3   3  -8  633.53   19.13   1
   3   3  -7    1.39    0.50   1
   3   3  -6    3.80    0.59   1
   3   3  -5  563.11   14.71   1
   3   3  -4    0.90    0.49   1
   3   3  -3  114.06    2.99   1
   3   3  -2  268.96    5.58   1
   3   3  -1  137.59    2.58   1
   3   3   0  129.28    2.50   1
   3   3   1 1772.41   31.15   1
   3   3   2 6353.68  237.54   1
   3   3   3  711.82   12.27   1
   3   3   4  109.62    1.88   1
   3   3   5  624.00   10.49   1
   3   3   6  398.40    6.79   1
   3   3   7  794.11   13.53   1
   3   3   8    9.80    0.63   1
   3   3   9  579.36   10.59   1
   3   3  10  480.05    9.20   1
   3   3  11   11.42    0.68   1
   3   3  12  109.62    2.51   1
   3   3  13   38.32    1.73   1
   3   3  14  121.22    4.40   1
   3   3  15  179.02   10.97   1
   3   3  16    0.59    1.49   1
   3   4 -14  109.62   12.15   1
   3   4 -13  195.44   15.10   1
   3   4 -12   12.53    1.77   1
   3   4 -11   61.15    3.75   1
   3   4 -10  109.62    5.44   1
   3   4  -9  122.77    4.21   1
   3   4  -8   99.20    3.19   1
   3   4  -7  109.41    3.77   1
   3   4  -6   59.29    2.16   1
   3   4  -5  330.51    7.64   1
   3   4  -4  151.78    4.19   1
   3   4  -3  321.13    7.53   1
   3   4  -2  344.47    5.57   1
   3   4  -1  392.04    8.71   1
   3   4   0  186.60    4.10   1
   3   4   1  554.60    9.89   1
   3   4   2 1126.27   20.81   1
   3   4   3  161.54    2.80   1
   3   4   4  408.85    7.28   1
   3   4   5   72.76    1.88   1
   3   4   6  176.09    3.45   1
   3   4   7  140.19    2.60   1
   3   4   8  279.89    4.68   1
   3   4   9  265.36    4.89   1
   3   4  10   70.56    1.85   1
   3   4  11    2.89    0.51   1
   3   4  12    5.62    0.90   1
   3   4  13    8.01    1.02   1
   3   4  14   97.22    4.34   1
   3   4  15   22.94    2.39   1
   3   4  16    6.71    1.61   1
   3   5 -13    3.50    3.22   1
   3   5 -12   59.91    7.28   1
   3   5 -11   37.82    3.32   1
   3   5 -10   47.20    3.16   1
   3   5  -9   57.15    3.02   1
   3   5  -8  622.50   21.46   1
   3   5  -7   10.89    0.79   1
   3   5  -6   42.64    1.44   1
   3   5  -5  590.49   14.09   1
   3   5  -4   30.36    1.21   1
   3   5  -3  398.80    9.59   1
   3   5  -2  539.17   12.07   1
   3   5  -1 1096.27   25.16   1
   3   5   0  295.84    6.19   1
   3   5   1  198.81    4.23   1
   3   5   2  256.00    4.80   1
   3   5   3   78.85    1.95   1
   3   5   4  577.92   11.54   1
   3   5   5  674.96   12.47   1
   3   5   6   48.86    1.54   1
   3   5   7  270.93    5.60   1
   3   5   8  151.78    2.96   1
   3   5   9  131.79    2.76   1
   3   5  10  720.92   15.04   1
   3   5  11  114.28    4.06   1
   3   5  12  125.89    4.94   1
   3   5  13   13.10    1.30   1
   3   5  14  107.54    7.26   1
   3   5  15   92.35   12.11   1
   3   5  16   13.62    2.80   1
   3   6 -11   97.02   10.84   1
   3   6 -10  105.47   11.50   1
   3   6  -9   83.17    7.66   1
   3   6  -8   82.26    7.44   1
   3   6  -7  234.70   10.42   1
   3   6  -6   17.98    0.76   1
   3   6  -5  128.82    4.09   1
   3   6  -4  230.43    4.86   1
   3   6  -3  231.95    6.70   1
   3   6  -2  416.57   11.02   1
   3   6  -1  169.52    3.65   1
   3   6   0  563.11   10.44   1
   3   6   1  118.59    3.05   1
   3   6   2   55.20    1.63   1
   3   6   3   25.00    1.00   1
   3   6   4  580.81   11.57   1
   3   6   5  223.50    5.38   1
   3   6   6  263.41    6.17   1
   3   6   7  203.63    5.71   1
   3   6   8  492.84   11.99   1
   3   6   9  321.48   10.04   1
   3   6  10  137.36    4.92   1
   3   6  11   23.23    1.25   1
   3   6  12   42.38    2.86   1
   3   6  13  117.72    9.98   1
   3   6  14   29.38    4.01   1
   3   6  15   10.30    1.67   1
   3   7  -9   37.70    4.18   1
   3   7  -8   63.04    5.88   1
   3   7  -7   68.72    6.63   1
   3   7  -6   62.25    3.63   1
   3   7  -5  147.38    6.31   1
   3   7  -4    2.59    1.19   1
   3   7  -3   44.22    1.86   1
   3   7  -2   20.52    0.82   1
   3   7  -1    7.78    0.50   1
   3   7   0  136.42    3.74   1
   3   7   1   57.91    2.13   1
   3   7   2  293.78    9.26   1
   3   7   3  181.71    4.58   1
   3   7   4  106.92    3.10   1
   3   7   5  287.64    8.82   1
   3   7   6    8.29    0.98   1
   3   7   7   68.23    2.97   1
   3   7   8  149.08    6.59   1
   3   7   9   36.36    2.05   1
   3   7  10   75.52    3.13   1
   3   7  11   17.98    1.78   1
   3   7  12  190.72    8.29   1
   3   7  13    8.18    1.72   1
   3   7  14    0.30    1.61   1
   3   8  -7  161.04   11.17   1
   3   8  -6   93.51    8.51   1
   3   8  -5   38.69    4.73   1
   3   8  -4    3.10    1.41   1
   3   8  -3   70.73    4.37   1
   3   8  -2  158.00    8.30   1
   3   8  -1   11.63    1.57   1
   3   8   0   49.98    2.55   1
   3   8   1  273.57   11.91   1
   3   8   2   28.73    2.25   1
   3   8   3   17.31    1.41   1
   3   8   4    9.12    1.03   1
   3   8   5   12.32    1.61   1
   3   8   6  127.24    7.90   1
   3   8   7   80.82    6.11   1
   3   8   8   63.20    4.77   1
   3   8   9   77.62    6.52   1
   3   8  10   56.85    5.43   1
   3   8  11  185.78   11.72   1
   3   8  12  204.20   15.43   1
   3   9  -3   42.51    5.35   1
   3   9  -2   54.91    7.56   1
   3   9  -1   53.58    3.81   1
   3   9   0   35.16    2.85   1
   3   9   1   36.84    2.55   1
   3   9   2   43.03    3.15   1
   3   9   3  112.15    8.47   1
   3   9   4   55.20    3.57   1
   3   9   5   39.56    3.14   1
   3   9   6    5.52    2.11   1
   3   9   7  129.50   12.52   1
   3   9   8    4.41    2.60   1
   3   9   9   21.44    4.07   1
   4  -6  -9  142.32   10.26   1
   4  -6  -8   14.06    2.17   1
   4  -6  -7  111.30    6.54   1
   4  -6  -6   60.84    3.90   1
   4  -6  -5   77.44    5.10   1
   4  -6  -4   14.59    2.22   1
   4  -6  -3    2.89    1.50   1
   4  -6  -2    8.01    1.70   1
   4  -6  -1   94.67    5.45   1
   4  -6   0   23.43    2.61   1
   4  -6   1    1.99    2.48   1
   4  -6   4  144.96   13.00   1
   4  -5 -12   25.40    5.14   1
   4  -5 -11   39.94    5.31   1
   4  -5 -10   31.70    4.28   1
   4  -5  -9   32.95    2.76   1
   4  -5  -8   11.83    1.58   1
   4  -5  -7    6.60    1.70   1
   4  -5  -6  385.73   13.75   1
   4  -5  -5   38.69    2.74   1
   4  -5  -4  101.20    4.43   1
   4  -5  -3   41.60    2.71   1
   4  -5  -2  232.26    8.53   1
   4  -5  -1  182.79    5.68   1
   4  -5   0   35.28    1.78   1
   4  -5   1   93.32    3.48   1
   4  -5   2   48.44    3.06   1
   4  -5   3   21.07    1.74   1
   4  -5   4   18.06    1.70   1
   4  -5   5   59.29    5.39   1
   4  -5   6    8.12    2.68   1
   4  -5   7   97.81   10.09   1
   4  -4 -13   64.80    6.44   1
   4  -4 -12   64.16    6.41   1
   4  -4 -11  131.56    9.86   1
   4  -4 -10   11.02    2.32   1
   4  -4  -9   80.64    5.57   1
   4  -4  -8   60.06    3.25   1
   4  -4  -7   36.60    1.94   1
   4  -4  -6  450.29   12.73   1
   4  -4  -5  299.98    8.66   1
   4  -4  -4  260.82    7.43   1
   4  -4  -3  122.99    4.44   1
   4  -4  -2   93.51    3.87   1
   4  -4  -1  106.71    3.51   1
   4  -4   0   41.86    1.55   1
   4  -4   1  412.09   10.15   1
   4  -4   2  508.95   13.99   1
   4  -4   3   10.50    1.10   1
   4  -4   4   17.72    1.26   1
   4  -4   5  124.32    5.35   1
   4  -4   6   29.05    2.05   1
   4  -4   7  185.23   10.07   1
   4  -4   8   52.56    4.49   1
   4  -4   9   68.89    6.14   1
   4  -3 -14   75.34    7.81   1
   4  -3 -13  261.47   14.23   1
   4  -3 -12  158.00    5.53   1
   4  -3 -11   27.88    2.32   1
   4  -3 -10   23.04    1.92   1
   4  -3  -9  299.64    8.31   1
   4  -3  -8  142.32    4.29   1
   4  -3  -7   88.36    3.01   1
   4  -3  -6  391.64    9.50   1
   4  -3  -5   70.73    2.35   1
   4  -3  -4  192.10    5.82   1
   4  -3  -3   23.23    1.25   1
   4  -3  -2  239.63    7.43   1
   4  -3  -1   24.40    1.09   1
   4  -3   0  115.13    3.00   1
   4  -3   1   64.48    1.77   1
   4  -3   2 1013.15   21.64   1
   4  -3   3  171.87    4.72   1
   4  -3   4  107.33    3.11   1
   4  -3   5    8.41    0.70   1
   4  -3   6  163.07    5.62   1
   4  -3   7   55.35    2.68   1
   4  -3   8   39.94    2.53   1
   4  -3   9   31.81    2.59   1
   4  -3  10   95.45    8.60   1
   4  -3  11    9.00    2.88   1
   4  -2 -15   43.82    6.36   1
   4  -2 -14   46.79    3.56   1
   4  -2 -13  141.37    6.66   1
   4  -2 -12  124.99    5.14   1
   4  -2 -11    4.71    1.30   1
   4  -2 -10   32.95    1.84   1
   4  -2  -9   48.44    2.37   1
   4  -2  -8  271.59    7.58   1
   4  -2  -7  566.44   13.33   1
   4  -2  -6  170.30    3.92   1
   4  -2  -5  332.33    8.39   1
   4  -2  -4   98.01    2.57   1
   4  -2  -3  904.81   21.06   1
   4  -2  -2  205.64    5.16   1
   4  -2  -1  535.92   10.19   1
   4  -2   0   78.50    1.95   1
   4  -2   1  786.24   15.70   1
   4  -2   2  287.30    6.10   1
   4  -2   3   90.82    2.67   1
   4  -2   4    1.30    0.41   1
   4  -2   5  382.59    9.39   1
   4  -2   6  115.35    3.01   1
   4  -2   7   42.38    1.56   1
   4  -2   8    6.50    1.12   1
   4  -2   9   13.32    1.53   1
   4  -2  10  351.94   13.88   1
   4  -2  11  124.77    6.70   1
   4  -2  12   33.64    4.29   1
   4  -2  13    3.10    2.82   1
   4  -1 -15   73.96    5.50   1
   4  -1 -14  141.13    7.13   1
   4  -1 -13   97.22    4.54   1
   4  -1 -12   82.99    3.46   1
   4  -1 -11   65.45    2.91   1
   4  -1 -10  173.45    5.53   1
   4  -1  -9  136.89    3.74   1
   4  -1  -8  244.61    6.26   1
   4  -1  -7   46.51    1.64   1
   4  -1  -6   17.98    0.93   1
   4  -1  -5  318.27    6.78   1
   4  -1  -4   86.49    2.23   1
   4  -1  -3   66.10    1.63   1
   4  -1  -2   83.91    2.56   1
   4  -1  -1  906.61   16.86   1
   4  -1   0  804.29   17.58   1
   4  -1   1  180.63    4.30   1
   4  -1   2  365.19    8.79   1
   4  -1   3   17.39    0.58   1
   4  -1   4  178.76    4.55   1
   4  -1   5  136.42    3.04   1
   4  -1   6   35.16    1.42   1
   4  -1   7   12.11    0.70   1
   4  -1   8  150.80    4.18   1
   4  -1   9   52.13    1.88   1
   4  -1  10  128.37    4.31   1
   4  -1  11   15.29    1.17   1
   4  -1  12   44.76    3.08   1
   4  -1  13   30.25    2.97   1
   4  -1  14   39.94    9.10   1
   4   0 -15   68.06    4.95   1
   4   0 -14  183.06    8.93   1
   4   0 -13   52.42    2.75   1
   4   0 -12  190.99    7.19   1
   4   0 -11   59.75    2.78   1
   4   0 -10  465.70   13.38   1
   4   0  -9  208.51    6.06   1
   4   0  -8   25.91    1.43   1
   4   0  -7  108.37    3.12   1
   4   0  -6   99.40    2.79   1
   4   0  -5   94.67    2.53   1
   4   0  -4  171.09    4.19   1
   4   0  -3   34.11    1.05   1
   4   0  -2  249.96    5.38   1
   4   0  -1    8.41    0.70   1
   4   0   0  884.47   17.25   1
   4   0   1  598.78   15.17   1
   4   0   2   29.48    1.41   1
   4   0   3  127.46    5.19   1
   4   0   4  268.63    5.57   1
   4   0   5  310.82    5.99   1
   4   0   6  270.60    5.92   1
   4   0   7  100.00    2.40   1
   4   0   8  421.48    9.44   1
   4   0   9  106.09    3.09   1
   4   0  10   63.84    2.56   1
   4   0  11   14.21    0.98   1
   4   0  12  140.66    7.12   1
   4   0  13   87.42    8.04   1
   4   0  14   37.95    4.80   1
   4   0  15   28.09    3.82   1
   4   1 -15  109.83   12.16   1
   4   1 -14   39.94    5.18   1
   4   1 -13   15.37    2.20   1
   4   1 -12   50.55    3.70   1
   4   1  -9   43.96    1.86   1
   4   1  -8   13.03    1.01   1
   4   1  -7  334.52    8.05   1
   4   1  -6  147.38    3.64   1
   4   1  -5  357.59    8.32   1
   4   1  -4  131.79    3.67   1
   4   1  -3  255.36    6.39   1
   4   1  -2  487.08   11.48   1
   4   1  -1   88.17    2.63   1
   4   1   0   86.86    2.05   1
   4   1   1  251.54    4.76   1
   4   1   2  129.50    2.96   1
   4   1   3  157.00    3.26   1
   4   1   4  228.61    4.54   1
   4   1   5  173.19    3.42   1
   4   1   6  104.65    2.25   1
   4   1   7  343.36    6.67   1
   4   1   8  332.33    7.66   1
   4   1   9   39.19    1.38   1
   4   1  10   46.65    1.91   1
   4   1  11  203.06    5.41   1
   4   1  12  140.19    4.50   1
   4   1  13   49.98    2.83   1
   4   1  14   27.25    3.55   1
   4   1  15    1.69    2.39   1
   4   2 -15    2.79    3.11   1
   4   2 -14   87.42    6.73   1
   4   2 -13   24.30    2.27   1
   4   2 -12  154.50    7.21   1
   4   2 -11   39.44    2.26   1
   4   2 -10  263.09    9.73   1
   4   2  -9  131.79    6.20   1
   4   2  -8   17.72    1.43   1
   4   2  -7  470.02   13.01   1
   4   2  -6  159.01    5.04   1
   4   2  -5   10.37    0.71   1
   4   2  -4   48.30    1.53   1
   4   2  -3  218.15    5.32   1
   4   2  -2  180.10    3.76   1
   4   2  -1  786.24   16.82   1
   4   2   0  596.34   11.72   1
   4   2   1   14.21    0.53   1
   4   2   2 1241.15   23.25   1
   4   2   3 1828.42   28.22   1
   4   2   4   34.11    0.93   1
   4   2   5  308.70    5.62   1
   4   2   6  324.00    5.76   1
   4   2   7  620.51   11.46   1
   4   2   8 1191.63   22.78   1
   4   2   9   34.57    1.18   1
   4   2  10   35.05    1.42   1
   4   2  11   15.37    1.18   1
   4   2  12  423.12   11.52   1
   4   2  13  311.88    9.89   1
   4   2  14   37.95    2.96   1
   4   2  15    3.88    3.51   1
   4   2  16   85.56    8.51   1
   4   3 -14    7.40    2.01   1
   4   3 -13  172.66    9.99   1
   4   3 -12  115.35    5.37   1
   4   3 -11  133.86    6.25   1
   4   3 -10    7.40    1.20   1
   4   3  -9   25.91    1.63   1
   4   3  -8   62.73    4.28   1
   4   3  -7  379.86   20.27   1
   4   3  -6  224.70    8.69   1
   4   3  -5   14.90    0.77   1
   4   3  -4   52.42    1.45   1
   4   3  -3  679.64   11.47   1
   4   3  -2  637.56   12.62   1
   4   3  -1   68.89    1.83   1
   4   3   0  159.77    3.79   1
   4   3   1  766.18   16.05   1
   4   3   2  888.64   17.89   1
   4   3   3  371.33    6.94   1
   4   3   4   36.84    0.85   1
   4   3   5   44.22    1.06   1
   4   3   6  155.50    2.99   1
   4   3   7  665.64   11.87   1
   4   3   8   24.21    0.98   1
   4   3   9  130.64    2.97   1
   4   3  10  127.01    3.61   1
   4   3  11   27.88    1.37   1
   4   3  12   13.03    1.23   1
   4   3  13   69.72    3.67   1
   4   3  14   19.27    1.93   1
   4   3  15   43.30    3.55   1
   4   3  16   27.04    4.89   1
   4   4 -13   58.52    7.34   1
   4   4 -12   98.01    6.14   1
   4   4 -11   14.59    1.53   1
   4   4 -10  139.48    4.96   1
   4   4  -9    2.89    0.88   1
   4   4  -8  162.31    6.37   1
   4   4  -7 1357.92   51.59   1
   4   4  -6    6.10    1.28   1
   4   4  -5    0.00    1.00   1
   4   4  -4   78.85    1.95   1
   4   4  -3  446.90    9.72   1
   4   4  -2  711.29   14.94   1
   4   4  -1   81.72    1.99   1
   4   4   0  271.92    6.27   1
   4   4   1   13.32    0.88   1
   4   4   2  331.60    6.56   1
   4   4   3  682.25   12.54   1
   4   4   4   35.40    0.95   1
   4   4   5   13.76    0.67   1
   4   4   6  210.83    4.07   1
   4   4   7  285.95    5.41   1
   4   4   8 2370.72   44.79   1
   4   4   9  206.21    4.60   1
   4   4  10 1143.12   27.05   1
   4   4  11    1.30    0.80   1
   4   4  12  113.00    3.61   1
   4   4  13   22.94    1.72   1
   4   4  14   22.18    2.36   1
   4   4  15    4.41    2.02   1
   4   5 -12   36.24    4.21   1
   4   5 -11   27.25    3.65   1
   4   5 -10   29.38    3.04   1
   4   5  -9  117.72    5.21   1
   4   5  -8   52.56    4.20   1
   4   5  -7  522.12   21.02   1
   4   5  -6   12.60    1.21   1
   4   5  -5  617.52   20.38   1
   4   5  -4  581.29   13.50   1
   4   5  -3  532.22   15.23   1
   4   5  -2   28.09    1.27   1
   4   5  -1  467.42   11.24   1
   4   5   0    3.80    0.51   1
   4   5   1  187.14    4.10   1
   4   5   2  161.80    3.05   1
   4   5   3  143.76    2.40   1
   4   5   4   22.94    0.77   1
   4   5   5  194.88    3.63   1
   4   5   6  444.37    9.28   1
   4   5   7   85.56    2.78   1
   4   5   8   16.16    0.80   1
   4   5   9  592.44   14.12   1
   4   5  10  757.90   19.27   1
   4   5  11   49.84    1.98   1
   4   5  12   67.57    3.12   1
   4   5  13   16.00    2.72   1
   4   5  14  128.37    7.02   1
   4   5  15   95.26    7.81   1
   4   6 -11   23.43    3.58   1
   4   6 -10  145.68   14.00   1
   4   6  -9   34.46    3.99   1
   4   6  -8  187.96   13.44   1
   4   6  -7  327.61   16.29   1
   4   6  -6  124.32    4.68   1
   4   6  -5   91.39    3.44   1
   4   6  -4  179.02    4.82   1
   4   6  -3   26.11    1.53   1
   4   6  -2  347.82    8.95   1
   4   6  -1  455.82   11.53   1
   4   6   0  312.58    7.43   1
   4   6   1  194.04    4.74   1
   4   6   2   23.72    0.88   1
   4   6   3   59.29    1.54   1
   4   6   4   14.90    0.77   1
   4   6   5   52.27    1.45   1
   4   6   6  162.82    4.34   1
   4   6   7  173.98    5.28   1
   4   6   8   55.95    2.09   1
   4   6   9   13.32    1.53   1
   4   6  10  112.36    5.30   1
   4   6  11   22.56    1.62   1
   4   6  12   23.43    2.03   1
   4   6  13   86.68    6.14   1
   4   6  14    4.20    3.61   1
   4   7  -9   94.67    9.34   1
   4   7  -8   62.57    5.85   1
   4   7  -7    1.00    2.30   1
   4   7  -6   18.49    1.72   1
   4   7  -5  129.73    6.61   1
   4   7  -4  122.99    5.77   1
   4   7  -3    5.52    1.22   1
   4   7  -2    2.19    1.18   1
   4   7  -1  462.25   14.19   1
   4   7   0  258.24    9.32   1
   4   7   1   18.06    1.28   1
   4   7   2   40.20    1.52   1
   4   7   3    8.12    0.68   1
   4   7   4  442.26   10.52   1
   4   7   5    6.60    0.72   1
   4   7   6   44.36    1.73   1
   4   7   7   57.46    2.43   1
   4   7   8  146.65    6.54   1
   4   7   9  119.90    5.04   1
   4   7  10   46.51    4.09   1
   4   7  11   39.44    3.77   1
   4   7  12  210.25   12.18   1
   4   7  13   63.52    7.65   1
   4   8  -6  121.66   11.47   1
   4   8  -5    0.30    1.31   1
   4   8  -4  198.53   11.84   1
   4   8  -3   65.45    4.21   1
   4   8  -2   56.55    3.46   1
   4   8  -1    2.31    1.09   1
   4   8   0  129.73    5.01   1
   4   8   1   99.20    3.39   1
   4   8   2   72.93    2.90   1
   4   8   3   64.16    2.56   1
   4   8   4   92.16    3.65   1
   4   8   5   29.81    1.75   1
   4   8   6  102.41    6.48   1
   4   8   7   15.37    2.51   1
   4   8   8   62.73    5.39   1
   4   8   9   74.30    5.69   1
   4   8  10   53.14    4.96   1
   4   8  11   62.41    6.48   1
   4   9  -2   49.28    4.91   1
   4   9  -1   68.23    6.28   1
   4   9   0   95.45    7.43   1
   4   9   1   94.09    6.21   1
   4   9   2  175.83   14.32   1
   4   9   3   22.28    3.21   1
   4   9   4   64.32    5.93   1
   4   9   5   12.39    3.03   1
   4   9   6    9.18    2.79   1
   4   9   7   43.03    4.99   1
   4   9   8  114.70   10.50   1
   5  -5  -9   31.70    6.08   1
   5  -5  -8   51.41    5.16   1
   5  -5  -7   13.62    1.77   1
   5  -5  -6    9.12    2.11   1
   5  -5  -5  298.94   14.87   1
   5  -5  -4   21.34    2.22   1
   5  -5  -3  231.65    9.74   1
   5  -5  -2  128.14    7.24   1
   5  -5  -1  100.40    7.01   1
   5  -5   0  227.71   10.56   1
   5  -5   1   34.11    3.27   1
   5  -5   2    5.90    2.09   1
   5  -5   3   88.74    9.42   1
   5  -5   4   39.19    4.76   1
   5  -4 -11  144.96   12.04   1
   5  -4 -10   26.01    3.88   1
   5  -4  -9   49.42    5.06   1
   5  -4  -8    1.90    3.31   1
   5  -4  -7    9.18    2.48   1
   5  -4  -6   35.05    4.26   1
   5  -4  -5   85.38    4.25   1
   5  -4  -4   90.63    4.00   1
   5  -4  -3  210.83    6.97   1
   5  -4  -2   94.28    4.08   1
   5  -4  -1   44.36    1.86   1
   5  -4   0  169.00    5.72   1
   5  -4   1  110.67    3.58   1
   5  -4   2  281.23   14.42   1
   5  -4   3   11.90    2.07   1
   5  -4   4    6.00    2.79   1
   5  -4   5   35.40    4.64   1
   5  -4   6    9.00    2.22   1
   5  -4   7   35.05    4.38   1
   5  -3 -13  163.58   14.58   1
   5  -3 -12   15.13    3.89   1
   5  -3 -11   14.29    2.42   1
   5  -3 -10  197.68    7.87   1
   5  -3  -9   23.81    2.15   1
   5  -3  -8   28.41    2.03   1
   5  -3  -7  260.50   10.01   1
   5  -3  -6   74.82    3.46   1
   5  -3  -5   45.16    3.36   1
   5  -3  -4    3.88    2.01   1
   5  -3  -3  111.72    4.86   1
   5  -3  -2  136.19    5.13   1
   5  -3  -1   93.51    3.48   1
   5  -3   0   47.20    1.65   1
   5  -3   1   28.09    1.17   1
   5  -3   2  161.54    4.83   1
   5  -3   3  531.76   17.99   1
   5  -3   4    9.61    0.99   1
   5  -3   5   21.07    1.56   1
   5  -3   6   78.85    5.51   1
   5  -3   7   69.22    5.82   1
   5  -3   8   83.91    5.68   1
   5  -3   9    8.29    2.82   1
   5  -3  10    6.50    4.49   1
   5  -2 -14   76.56    8.05   1
   5  -2 -13  108.58    5.84   1
   5  -2 -12    6.71    1.71   1
   5  -2 -11   87.98    4.88   1
   5  -2 -10   43.56    2.51   1
   5  -2  -9   28.73    1.61   1
   5  -2  -8  114.49    3.64   1
   5  -2  -7  177.96    5.34   1
   5  -2  -6   43.96    1.72   1
   5  -2  -5   12.18    0.77   1
   5  -2  -4   94.28    3.50   1
   5  -2  -3  302.76   13.57   1
   5  -2  -2  254.72   10.53   1
   5  -2  -1   80.10    4.47   1
   5  -2   0  137.59    4.69   1
   5  -2   1  197.12    5.05   1
   5  -2   2  181.98    4.59   1
   5  -2   3   23.62    1.07   1
   5  -2   4   49.00    1.96   1
   5  -2   5   44.76    1.47   1
   5  -2   6  119.68    5.25   1
   5  -2   7   39.31    1.88   1
   5  -2   8    6.40    2.78   1
   5  -2   9   14.36    2.73   1
   5  -2  10  186.87   13.12   1
   5  -2  11  105.27   10.88   1
   5  -1 -14   67.08    4.42   1
   5  -1 -13  144.00    7.68   1
   5  -1 -12  196.84    6.73   1
   5  -1 -11   49.56    2.82   1
   5  -1 -10    0.59    1.09   1
   5  -1  -9  134.56    4.41   1
   5  -1  -8   53.14    2.19   1
   5  -1  -7  145.20    4.58   1
   5  -1  -6  181.98    4.59   1
   5  -1  -5   83.17    2.37   1
   5  -1  -4  191.27    4.43   1
   5  -1  -3   95.26    3.32   1
   5  -1  -2  105.88    3.09   1
   5  -1  -1  249.32    8.21   1
   5  -1   0  186.05    4.64   1
   5  -1   1  377.52    9.72   1
   5  -1   2  303.80    7.67   1
   5  -1   3   40.96    1.79   1
   5  -1   4    7.02    1.48   1
   5  -1   5  398.80   16.77   1
   5  -1   6  264.39    7.80   1
   5  -1   7  164.10    4.10   1
   5  -1   8    1.59    0.60   1
   5  -1   9   43.43    2.64   1
   5  -1  10   33.29    2.31   1
   5  -1  11  126.79    9.01   1
   5  -1  12   77.44    6.69   1
   5   0 -14   35.76    2.99   1
   5   0 -13   51.70    3.45   1
   5   0 -12   33.06    2.18   1
   5   0 -11   35.05    2.25   1
   5   0 -10  209.38    7.24   1
   5   0  -9  109.41    3.56   1
   5   0  -8   24.70    1.39   1
   5   0  -7   29.92    1.64   1
   5   0  -6  146.41    3.87   1
   5   0  -5  119.90    3.29   1
   5   0  -4  522.58   12.34   1
   5   0  -3   50.55    1.71   1
   5   0  -2  183.33    5.42   1
   5   0  -1  337.46    8.82   1
   5   0   0  178.49    5.34   1
   5   0   1   63.36    2.55   1
   5   0   2   56.85    2.41   1
   5   0   3   60.06    3.88   1
   5   0   4  380.64   13.27   1
   5   0   5  304.85    9.08   1
   5   0   6  117.94    3.04   1
   5   0   7   23.04    0.86   1
   5   0   8   63.36    2.23   1
   5   0   9  206.21    6.61   1
   5   0  10   80.28    3.23   1
   5   0  11   61.47    5.33   1
   5   0  12   87.80    6.56   1
   5   0  13   42.90    4.72   1
   5   1 -14   13.99    2.17   1
   5   1 -13   36.24    2.89   1
   5   1 -12   13.10    1.81   1
   5   1 -11  214.04    7.61   1
   5   1 -10    8.18    1.60   1
   5   1  -9  302.41    9.04   1
   5   1  -8  120.34    4.17   1
   5   1  -7    0.79    0.80   1
   5   1  -6    3.10    0.92   1
   5   1  -5  454.54   10.66   1
   5   1  -4  174.24    4.22   1
   5   1  -3  654.85   14.84   1
   5   1  -2  202.49    5.69   1
   5   1  -1  244.92    7.20   1
   5   1   0  393.63   11.11   1
   5   1   1  208.80    4.62   1
   5   1   2   17.72    1.09   1
   5   1   3  180.63    5.64   1
   5   1   4  243.05    6.86   1
   5   1   5   20.16    0.72   1
   5   1   6  637.56   13.64   1
   5   1   7  310.82    7.05   1
   5   1   8  324.72    6.85   1
   5   1   9  138.53    3.53   1
   5   1  10  359.48   11.00   1
   5   1  11  181.71    5.39   1
   5   1  12    9.18    2.18   1
   5   1  13  168.74   13.51   1
   5   1  14  132.48   11.28   1
   5   2 -14   58.83    4.30   1
   5   2 -13   59.29    4.16   1
   5   2 -12   87.80    4.31   1
   5   2 -11  138.06    5.88   1
   5   2 -10   78.32    5.13   1
   5   2  -9  113.85    4.27   1
   5   2  -8   83.72    3.11   1
   5   2  -7  155.50    4.74   1
   5   2  -6   61.94    2.20   1
   5   2  -5  904.20   22.25   1
   5   2  -4  334.52    7.32   1
   5   2  -3  241.18    5.90   1
   5   2  -2  170.04    5.22   1
   5   2  -1  647.19   14.25   1
   5   2   0  506.70   10.35   1
   5   2   1   82.63    2.18   1
   5   2   2   36.36    1.57   1
   5   2   3  227.41    4.52   1
   5   2   4  305.55    6.64   1
   5   2   5  104.45    2.45   1
   5   2   6   10.50    0.58   1
   5   2   7   82.63    2.18   1
   5   2   8  287.64    6.44   1
   5   2   9   20.61    1.00   1
   5   2  10  104.04    3.26   1
   5   2  11   27.25    1.46   1
   5   2  12   32.15    1.93   1
   5   2  13  160.02    9.36   1
   5   2  14  115.99    8.40   1
   5   3 -12   90.44    7.23   1
   5   3 -11   50.84    3.85   1
   5   3 -10   51.27    3.58   1
   5   3  -9  558.85   30.73   1
   5   3  -8   44.62    2.27   1
   5   3  -7   73.62    2.75   1
   5   3  -6  536.85   14.83   1
   5   3  -5    7.62    0.88   1
   5   3  -4  361.00    9.88   1
   5   3  -3  441.42    8.82   1
   5   3  -2 1133.00   24.91   1
   5   3  -1  260.18    5.48   1
   5   3   0  183.60    4.07   1
   5   3   1  179.83    4.29   1
   5   3   2  124.99    2.91   1
   5   3   3  688.54   14.69   1
   5   3   4  588.55    9.22   1
   5   3   5   67.24    1.64   1
   5   3   6  209.96    4.35   1
   5   3   7  192.38    4.44   1
   5   3   8  110.04    2.73   1
   5   3   9  664.09   14.43   1
   5   3  10   96.43    2.75   1
   5   3  11  163.58    5.37   1
   5   3  12   11.29    1.08   1
   5   3  13   90.44    5.71   1
   5   3  14   98.01    6.14   1
   5   3  15   16.32    3.64   1
   5   4 -13   29.70    4.69   1
   5   4 -12   61.31    9.87   1
   5   4 -11  117.51   12.36   1
   5   4 -10   25.10    1.90   1
   5   4  -9   72.08    4.08   1
   5   4  -8  148.84    6.59   1
   5   4  -7  368.64   13.06   1
   5   4  -6  496.84   16.05   1
   5   4  -5  461.82   10.74   1
   5   4  -4  293.44    6.51   1
   5   4  -3  370.56    8.09   1
   5   4  -2  619.51   13.44   1
   5   4  -1  165.12    4.88   1
   5   4   0   52.42    1.88   1
   5   4   1   55.80    1.79   1
   5   4   2  381.03    8.59   1
   5   4   3   81.36    2.35   1
   5   4   4   66.10    1.63   1
   5   4   5  190.99    4.15   1
   5   4   6  372.49    6.56   1
   5   4   7   68.06    1.81   1
   5   4   8  377.91    7.78   1
   5   4   9  428.90    8.70   1
   5   4  10  446.90   11.84   1
   5   4  11  164.35    4.87   1
   5   4  12    5.02    0.99   1
   5   4  13  102.41    6.48   1
   5   4  14   17.31    2.00   1
   5   4  15   97.02    6.30   1
   5   5 -12   76.21    6.63   1
   5   5 -11  111.72    7.19   1
   5   5 -10    6.00    2.01   1
   5   5  -9   18.23    1.88   1
   5   5  -8   37.45    2.45   1
   5   5  -7   14.82    1.31   1
   5   5  -6  873.20   43.14   1
   5   5  -5  204.49    6.86   1
   5   5  -4    7.29    0.49   1
   5   5  -3  423.12   10.28   1
   5   5  -2  225.90    6.01   1
   5   5  -1  556.02   16.51   1
   5   5   0   62.57    2.06   1
   5   5   1  199.37    5.08   1
   5   5   2  110.46    3.15   1
   5   5   3   56.10    1.65   1
   5   5   4   20.79    0.64   1
   5   5   5   11.70    0.68   1
   5   5   6   98.01    3.17   1
   5   5   7   11.70    0.82   1
   5   5   8  249.32    5.68   1
   5   5   9  136.42    3.74   1
   5   5  10    4.41    0.88   1
   5   5  11   38.07    1.85   1
   5   5  12   -0.59    1.49   1
   5   5  13    9.12    2.11   1
   5   5  14   66.26    4.72   1
   5   6 -10    8.70    2.89   1
   5   6  -9   42.12    4.15   1
   5   6  -8   34.22    4.33   1
   5   6  -7   29.59    3.37   1
   5   6  -6   61.15    3.13   1
   5   6  -5   55.65    2.24   1
   5   6  -4   60.06    3.25   1
   5   6  -3  302.76   11.48   1
   5   6  -2   67.24    2.30   1
   5   6  -1   43.82    1.46   1
   5   6   0  209.96    5.51   1
   5   6   1  393.23    8.33   1
   5   6   2  176.62    3.99   1
   5   6   3   59.14    1.38   1
   5   6   4   74.48    1.73   1
   5   6   5  406.83    8.87   1
   5   6   6  224.70    5.40   1
   5   6   7   72.42    2.38   1
   5   6   8   59.29    2.31   1
   5   6   9   63.84    3.99   1
   5   6  10  307.65   14.38   1
   5   6  11    9.61    2.60   1
   5   6  12    5.81    1.88   1
   5   6  13   56.40    3.60   1
   5   6  14   74.48    5.18   1
   5   7  -6   11.42    1.49   1
   5   7  -5   28.73    2.14   1
   5   7  -4  245.24   11.90   1
   5   7  -3    9.30    1.22   1
   5   7  -2  152.28    5.68   1
   5   7  -1  350.06   10.48   1
   5   7   0   89.68    2.84   1
   5   7   1  183.06    5.68   1
   5   7   2   18.92    0.87   1
   5   7   3   58.06    1.83   1
   5   7   4  223.50    5.68   1
   5   7   5   54.76    1.92   1
   5   7   6  244.61   10.64   1
   5   7   7   45.83    4.47   1
   5   7   8    5.71    2.01   1
   5   7   9   72.76    6.31   1
   5   7  10  197.96   14.35   1
   5   7  11   72.42    6.47   1
   5   7  12   37.33    5.50   1
   5   8  -6   51.84    5.76   1
   5   8  -5   19.18    3.07   1
   5   8  -4   99.60    7.98   1
   5   8  -3    5.62    2.09   1
   5   8  -2    9.92    2.39   1
   5   8  -1   16.73    1.96   1
   5   8   0  117.07    4.98   1
   5   8   1  134.56    5.80   1
   5   8   2    8.88    1.67   1
   5   8   3   36.36    2.89   1
   5   8   4   36.36    2.89   1
   5   8   5  155.00    9.21   1
   5   8   6   58.37    4.28   1
   5   8   7   20.98    3.66   1
   5   8   8   64.32    5.13   1
   5   8   9   74.82    6.05   1
   5   8  10   19.98    3.93   1
   5   8  11   16.16    4.26   1
   5   9  -2   28.41    4.26   1
   5   9  -1   83.36    5.66   1
   5   9   0   93.51    5.22   1
   5   9   1   19.18    3.50   1
   5   9   2   39.31    4.51   1
   5   9   3   24.80    3.69   1
   5   9   4   33.64    4.64   1
   5   9   5   51.27    5.44   1
   5   9   6   83.36    7.12   1
   5   9   7   59.44    6.63   1
   5   9   8   75.69    7.66   1
   6  -4  -8   44.89    4.82   1
   6  -4  -7   15.13    4.20   1
   6  -4  -6   24.80    4.18   1
   6  -4  -5   73.27    6.33   1
   6  -4  -4   93.90    6.20   1
   6  -4  -3   10.63    3.33   1
   6  -4  -2   25.40    4.23   1
   6  -4  -1   10.69    3.92   1
   6  -4   0  118.16    6.30   1
   6  -4   1   66.75    3.92   1
   6  -4   2   40.96    3.84   1
   6  -4   3   63.20    5.72   1
   6  -4   4  175.30   14.83   1
   6  -3 -11   -0.20    3.01   1
   6  -3 -10   38.69    3.36   1
   6  -3  -9  127.92    7.24   1
   6  -3  -8   25.20    3.92   1
   6  -3  -7   46.51    4.77   1
   6  -3  -6   70.73    4.88   1
   6  -3  -5  183.87    9.22   1
   6  -3  -4    0.50    1.90   1
   6  -3  -3   46.65    3.96   1
   6  -3  -2   31.47    3.25   1
   6  -3  -1   14.06    3.00   1
   6  -3   0   63.36    3.18   1
   6  -3   1   78.15    3.54   1
   6  -3   2   32.38    3.07   1
   6  -3   3  221.41   13.69   1
   6  -3   4   -3.88    3.51   1
   6  -3   5   43.96    5.04   1
   6  -3   6    0.00    1.00   1
   6  -3   7   11.49    2.92   1
   6  -2 -12   62.25    4.58   1
   6  -2 -11   73.27    4.96   1
   6  -2 -10   80.10    5.01   1
   6  -2  -9   20.79    2.10   1
   6  -2  -8   60.37    3.57   1
   6  -2  -7   30.91    2.45   1
   6  -2  -6  532.69   18.00   1
   6  -2  -5   39.44    2.39   1
   6  -2  -4    2.40    2.01   1
   6  -2  -3   18.92    2.78   1
   6  -2  -2  137.59    7.74   1
   6  -2  -1   17.81    2.62   1
   6  -2   0  177.69    5.87   1
   6  -2   1   22.75    1.62   1
   6  -2   2  101.00    4.42   1
   6  -2   3  103.84    5.30   1
   6  -2   4  101.81    5.85   1
   6  -2   5   24.40    2.96   1
   6  -2   6   55.50    5.07   1
   6  -2   7   51.27    4.87   1
   6  -2   8   81.72   14.28   1
   6  -2   9   10.18    4.21   1
   6  -1 -13   12.82    2.79   1
   6  -1 -12  123.21    7.77   1
   6  -1 -11   47.33    3.30   1
   6  -1 -10   21.34    2.13   1
   6  -1  -9   90.82    3.81   1
   6  -1  -8   36.24    2.29   1
   6  -1  -7  115.13    4.08   1
   6  -1  -6   20.16    1.26   1
   6  -1  -5    2.89    0.71   1
   6  -1  -4   13.40    1.68   1
   6  -1  -3  245.55    8.15   1
   6  -1  -2  169.26    6.51   1
   6  -1  -1   13.91    1.57   1
   6  -1   0   60.53    2.96   1
   6  -1   1  301.72    9.73   1
   6  -1   2  152.52    5.43   1
   6  -1   3  297.56   13.45   1
   6  -1   4  122.99    6.21   1
   6  -1   5  234.09   11.32   1
   6  -1   6   58.83    4.45   1
   6  -1   7  124.99    6.26   1
   6  -1   8    7.51    2.79   1
   6  -1   9    1.10    2.90   1
   6  -1  10   57.76    6.54   1
   6  -1  11   52.85    6.83   1
   6   0 -13   15.76    2.62   1
   6   0 -12   48.58    3.76   1
   6   0 -11   95.06    4.88   1
   6   0 -10   39.94    2.91   1
   6   0  -9   19.10    1.84   1
   6   0  -8  114.06    3.42   1
   6   0  -7   83.91    2.93   1
   6   0  -6   54.17    2.06   1
   6   0  -5  243.67    6.24   1
   6   0  -4  480.05   12.27   1
   6   0  -3  138.30    4.94   1
   6   0  -2  186.32    5.73   1
   6   0  -1   41.86    2.20   1
   6   0   0   79.39    3.92   1
   6   0   1   85.38    3.14   1
   6   0   2  157.50    5.27   1
   6   0   3   51.55    4.16   1
   6   0   4   35.05    3.08   1
   6   0   5   87.42    4.86   1
   6   0   6  225.60   11.11   1
   6   0   7    9.92    2.52   1
   6   0   8  345.96   11.53   1
   6   0   9   89.11    5.48   1
   6   0  10   19.18    3.07   1
   6   0  11   88.92    7.92   1
   6   0  12  112.57   10.61   1
   6   1 -13   84.46    5.51   1
   6   1 -12   62.57    4.11   1
   6   1 -11   21.90    2.34   1
   6   1 -10  109.20    4.81   1
   6   1  -9  196.00    7.28   1
   6   1  -8   73.44    2.91   1
   6   1  -7  371.72   10.80   1
   6   1  -6   75.52    2.61   1
   6   1  -5  280.23    7.37   1
   6   1  -4  253.45    7.00   1
   6   1  -3  387.70   11.42   1
   6   1  -2    5.62    1.28   1
   6   1  -1  151.54    4.92   1
   6   1   0  231.34    6.69   1
   6   1   1  219.63    6.52   1
   6   1   2   69.06    3.82   1
   6   1   3   39.94    2.65   1
   6   1   4  165.64    7.72   1
   6   1   5  245.55   10.34   1
   6   1   6  519.84   16.42   1
   6   1   7   51.84    2.16   1
   6   1   8   38.94    1.37   1
   6   1   9   24.60    1.69   1
   6   1  10  160.02    7.34   1
   6   1  11  172.92   13.15   1
   6   1  12    0.79    2.58   1
   6   1  13    9.00    3.30   1
   6   2 -13   66.42    4.56   1
   6   2 -12   43.56    3.56   1
   6   2 -11   11.29    2.02   1
   6   2 -10   92.35    3.84   1
   6   2  -9   67.24    3.12   1
   6   2  -8  217.27    7.37   1
   6   2  -7   16.00    1.36   1
   6   2  -6   29.05    1.62   1
   6   2  -5    4.49    1.02   1
   6   2  -4  281.90    7.72   1
   6   2  -3  276.22    7.98   1
   6   2  -2  695.90   18.47   1
   6   2  -1  398.40   10.78   1
   6   2   0  177.69    5.60   1
   6   2   1  419.84    9.43   1
   6   2   2  942.49   28.24   1
   6   2   3  119.68    3.94   1
   6   2   4  115.78    3.87   1
   6   2   5  159.26    5.30   1
   6   2   6   48.16    1.53   1
   6   2   7   24.60    1.09   1
   6   2   8   18.06    1.02   1
   6   2   9   58.52    2.45   1
   6   2  10   67.24    2.95   1
   6   2  11   58.52    3.83   1
   6   2  12   33.06    2.76   1
   6   2  13  122.32    9.95   1
   6   3 -13   75.34    5.03   1
   6   3 -12   40.32    3.05   1
   6   3 -11   78.85    4.44   1
   6   3 -10   98.80    4.77   1
   6   3  -9  364.81   12.22   1
   6   3  -8    9.49    1.48   1
   6   3  -7   29.70    1.85   1
   6   3  -6   21.62    1.58   1
   6   3  -5  594.87   16.10   1
   6   3  -4  249.32    6.95   1
   6   3  -3  149.08    4.88   1
   6   3  -2  231.65    5.78   1
   6   3  -1  650.25   14.79   1
   6   3   0  182.79    4.60   1
   6   3   1    5.29    1.20   1
   6   3   2  286.96    7.79   1
   6   3   3  248.38    6.30   1
   6   3   4  529.92   12.43   1
   6   3   5   70.39    2.18   1
   6   3   6  500.86   10.74   1
   6   3   7   80.10    2.15   1
   6   3   8  576.00   13.44   1
   6   3   9    6.20    0.90   1
   6   3  10    8.88    1.01   1
   6   3  11   16.81    1.80   1
   6   3  12  113.85    5.98   1
   6   3  13   13.32    1.68   1
   6   4 -12   18.06    2.81   1
   6   4 -11  144.96    9.87   1
   6   4 -10   13.62    1.70   1
   6   4  -9  196.28    7.57   1
   6   4  -8  261.47   10.03   1
   6   4  -7  180.90    6.72   1
   6   4  -6   88.74    3.39   1
   6   4  -5  254.08    9.25   1
   6   4  -4   56.25    2.55   1
   6   4  -3  490.18   10.63   1
   6   4  -2  311.17    7.41   1
   6   4  -1  412.90   11.38   1
   6   4   0  155.50    4.99   1
   6   4   1    9.18    1.21   1
   6   4   2   62.09    2.05   1
   6   4   3   45.02    1.61   1
   6   4   4   57.61    1.97   1
   6   4   5  135.96    4.66   1
   6   4   6  251.86    5.40   1
   6   4   7   17.47    1.00   1
   6   4   8   68.23    2.15   1
   6   4   9  167.70    4.40   1
   6   4  10   14.59    1.07   1
   6   4  11   39.82    3.03   1
   6   4  12   96.24    5.49   1
   6   4  13    2.59    2.00   1
   6   5 -10   21.34    3.97   1
   6   5  -9   -0.30    0.90   1
   6   5  -8   12.60    1.21   1
   6   5  -7   22.28    1.51   1
   6   5  -6  203.92    8.28   1
   6   5  -5   42.25    2.47   1
   6   5  -4   23.91    1.17   1
   6   5  -3  117.51    3.90   1
   6   5  -2  253.45    8.92   1
   6   5  -1   79.74    3.21   1
   6   5   0  189.89    6.06   1
   6   5   1   81.72    2.71   1
   6   5   2  312.23    8.48   1
   6   5   3   87.42    2.99   1
   6   5   4  340.77   10.34   1
   6   5   5   12.32    0.91   1
   6   5   6  270.60    7.24   1
   6   5   7   53.14    1.90   1
   6   5   8  202.21    5.69   1
   6   5   9   56.55    2.71   1
   6   5  10  135.02    4.42   1
   6   5  11   33.76    2.79   1
   6   5  12   72.42    5.28   1
   6   5  13   80.46    6.28   1
   6   6  -7   39.19    4.13   1
   6   6  -6   87.61    5.24   1
   6   6  -5   16.97    1.98   1
   6   6  -4    9.18    0.91   1
   6   6  -3  242.11    7.78   1
   6   6  -2   22.28    1.89   1
   6   6  -1  135.49    5.35   1
   6   6   0   69.22    2.83   1
   6   6   1   28.41    1.49   1
   6   6   2  589.03   16.99   1
   6   6   3    7.90    1.01   1
   6   6   4    6.00    1.08   1
   6   6   5    6.30    0.70   1
   6   6   6   91.97    3.64   1
   6   6   7   69.89    4.01   1
   6   6   8   12.11    1.60   1
   6   6   9  115.13    7.30   1
   6   6  10  150.06   11.76   1
   6   6  11  258.24   16.07   1
   6   6  12    6.10    1.98   1
   6   7  -6  134.56   14.85   1
   6   7  -5   21.90    2.62   1
   6   7  -4  124.99    5.81   1
   6   7  -3   50.55    3.13   1
   6   7  -2   97.81    4.55   1
   6   7  -1    5.52    1.60   1
   6   7   0   24.40    1.98   1
   6   7   1   38.44    2.85   1
   6   7   2  110.46    5.04   1
   6   7   3   25.20    2.01   1
   6   7   4   20.34    1.71   1
   6   7   5    6.20    1.29   1
   6   7   6  206.50   11.21   1
   6   7   7   64.64    4.66   1
   6   7   8   24.30    3.85   1
   6   7   9    2.40    2.51   1
   6   7  10  118.59   10.89   1
   6   7  11   76.21    9.25   1
   6   8  -5   32.72    3.20   1
   6   8  -4    3.20    1.72   1
   6   8  -3  113.00    7.02   1
   6   8  -2   18.92    2.09   1
   6   8  -1    3.88    1.62   1
   6   8   0   87.42    5.42   1
   6   8   1  111.09    6.75   1
   6   8   2   91.20    4.97   1
   6   8   3   71.74    4.07   1
   6   8   4   84.64    5.15   1
   6   8   5   54.46    5.17   1
   6   8   6   61.62    5.81   1
   6   8   7   17.22    3.07   1
   6   8   8   19.18    3.68   1
   6   8   9   20.07    4.39   1
   6   9   0   76.91    5.09   1
   6   9   1   56.25    6.00   1
   6   9   2   24.40    3.85   1
   6   9   3    7.02    2.49   1
   6   9   4    7.40    3.92   1
   6   9   5   13.69    4.22   1
   7  -3  -7   15.21    3.43   1
   7  -3  -6   32.38    5.80   1
   7  -3  -5   50.69    5.13   1
   7  -3  -4   64.64    6.11   1
   7  -3  -3   13.18    3.27   1
   7  -3  -2    9.99    2.97   1
   7  -3  -1    3.88    2.80   1
   7  -3   0   82.63    6.54   1
   7  -3   1   43.43    4.74   1
   7  -3   2    2.89    2.01   1
   7  -3   3   25.91    4.07   1
   7  -2  -9   59.14    3.85   1
   7  -2  -8   55.50    4.47   1
   7  -2  -7   60.37    4.04   1
   7  -2  -6   42.12    4.02   1
   7  -2  -5   61.15    4.85   1
   7  -2  -4   20.34    3.07   1
   7  -2  -3    7.08    2.29   1
   7  -2  -2   61.62    5.02   1
   7  -2  -1  210.25   12.18   1
   7  -2   0   81.54    6.68   1
   7  -2   1   18.06    2.89   1
   7  -2   2  245.55   16.61   1
   7  -2   3  130.64    8.23   1
   7  -2   4  129.28   10.23   1
   7  -2   5    9.00    3.60   1
   7  -2   6    1.99    3.38   1
   7  -1 -11   22.00    2.63   1
   7  -1 -10  108.99    6.06   1
   7  -1  -9   39.56    3.14   1
   7  -1  -8    4.88    2.21   1
   7  -1  -7   20.52    2.17   1
   7  -1  -6  103.02    4.47   1
   7  -1  -5   56.10    3.00   1
   7  -1  -4  129.28    5.00   1
   7  -1  -3   77.44    5.46   1
   7  -1  -2   51.98    4.76   1
   7  -1  -1   10.50    2.40   1
   7  -1   0    6.71    2.69   1
   7  -1   1  196.84   10.38   1
   7  -1   2   27.25    2.82   1
   7  -1   3  244.30   14.38   1
   7  -1   4   93.70    5.61   1
   7  -1   5    7.40    2.28   1
   7  -1   6    9.92    2.33   1
   7  -1   7   16.48    3.09   1
   7  -1   8   26.73    4.34   1
   7   0 -11  257.92   14.78   1
   7   0 -10    6.60    1.80   1
   7   0  -9    8.58    1.99   1
   7   0  -8   37.45    2.57   1
   7   0  -7  362.14   13.70   1
   7   0  -6  204.78    7.73   1
   7   0  -5    8.58    1.58   1
   7   0  -4   58.52    3.21   1
   7   0  -3  234.70    8.27   1
   7   0  -2  121.44    5.29   1
   7   0  -1   34.93    3.19   1
   7   0   0   20.98    2.84   1
   7   0   1   72.59    4.26   1
   7   0   2  114.28    6.41   1
   7   0   3  203.06   10.55   1
   7   0   4  406.43   23.39   1
   7   0   5   85.38    5.54   1
   7   0   6   69.89    5.18   1
   7   0   7   76.04    5.93   1
   7   0   8  123.88    7.79   1
   7   0   9   14.52    3.58   1
   7   0  10    6.00    2.89   1
   7   1 -11   24.90    2.49   1
   7   1 -10    7.67    1.77   1
   7   1  -9   15.37    2.51   1
   7   1  -8   29.05    2.26   1
   7   1  -7   84.82    3.68   1
   7   1  -6   37.95    1.85   1
   7   1  -5   82.08    3.44   1
   7   1  -4   11.09    1.93   1
   7   1  -3  125.22    4.70   1
   7   1  -2    8.18    1.32   1
   7   1  -1  480.05   15.34   1
   7   1   0  160.28    5.57   1
   7   1   1  127.92    6.56   1
   7   1   3  484.44   23.33   1
   7   1   4   61.47    3.92   1
   7   1   5   78.85    4.80   1
   7   1   6   27.46    3.14   1
   7   1   7   50.55    4.55   1
   7   1   8   30.58    3.98   1
   7   1   9   16.89    2.96   1
   7   1  10   23.43    3.39   1
   7   1  11   53.14    6.27   1
   7   2 -11   69.06    5.15   1
   7   2 -10   12.53    2.34   1
   7   2  -9   93.90    5.23   1
   7   2  -8   78.15    4.42   1
   7   2  -7   54.17    2.94   1
   7   2  -6  114.70    4.28   1
   7   2  -5   92.54    3.46   1
   7   2  -4  150.06    5.64   1
   7   2  -3  375.20   13.17   1
   7   2  -2  244.92    7.51   1
   7   2  -1  172.66    5.78   1
   7   2   0   37.95    2.09   1
   7   2   1  782.88   31.34   1
   7   2   4   67.40    3.12   1
   7   2   5   98.41    4.17   1
   7   2   6   96.83    3.74   1
   7   2   7   22.75    2.00   1
   7   2   8   13.18    1.38   1
   7   2   9   24.60    2.08   1
   7   2  10    8.58    1.52   1
   7   2  11    8.12    3.08   1
   7   3 -11   36.72    3.27   1
   7   3 -10   22.47    2.56   1
   7   3  -9  142.80    7.17   1
   7   3  -8   84.46    4.04   1
   7   3  -7   90.63    4.76   1
   7   3  -6    7.18    1.29   1
   7   3  -5  116.21    4.53   1
   7   3  -4   40.32    2.16   1
   7   3  -3   10.82    1.18   1
   7   3  -2  104.45    4.29   1
   7   3  -1   22.56    1.43   1
   7   3   0  337.46    9.19   1
   7   3   1  273.57    8.27   1
   7   3   2  109.20    4.18   1
   7   3   3  284.93    8.78   1
   7   3   4   35.05    2.49   1
   7   3   5   31.25    2.12   1
   7   3   6  169.26    4.94   1
   7   3   7   63.04    2.86   1
   7   3   8   29.70    2.40   1
   7   3   9   58.83    2.91   1
   7   3  10  190.16    9.10   1
   7   3  11   10.18    2.11   1
   7   3  12    3.20    2.79   1
   7   4 -10  119.68    7.22   1
   7   4  -9   40.45    3.05   1
   7   4  -8   40.83    2.68   1
   7   4  -7   34.93    2.48   1
   7   4  -6   17.14    1.90   1
   7   4  -5  177.42    7.19   1
   7   4  -4   34.69    2.00   1
   7   4  -3  131.79    5.28   1
   7   4  -2  147.38    4.61   1
   7   4  -1  272.58    8.92   1
   7   4   0   43.43    2.64   1
   7   4   1    0.79    1.09   1
   7   4   2   78.50    3.19   1
   7   4   3  244.30    7.50   1
   7   4   4   48.02    1.94   1
   7   4   5  104.86    4.30   1
   7   4   6  127.69    5.42   1
   7   4   7   48.58    3.07   1
   7   4   8  166.41    5.42   1
   7   4   9   23.43    2.03   1
   7   4  10  209.67   11.00   1
   7   4  11   40.96    3.46   1
   7   4  12   33.76    3.49   1
   7   5  -9   79.92    9.12   1
   7   5  -8   15.13    2.72   1
   7   5  -7    3.88    2.21   1
   7   5  -6    3.10    2.11   1
   7   5  -5  261.15   14.87   1
   7   5  -4    0.50    0.60   1
   7   5  -3  141.13    4.51   1
   7   5  -2  277.89   10.34   1
   7   5  -1  215.80    6.76   1
   7   5   0  244.92    7.51   1
   7   5   1   13.91    1.87   1
   7   5   2   67.08    3.11   1
   7   5   3  286.62   10.16   1
   7   5   4  105.88    3.50   1
   7   5   5  156.25    7.25   1
   7   5   6   54.17    2.94   1
   7   5   7   22.94    2.01   1
   7   5   8   56.85    4.07   1
   7   5   9  118.59    5.88   1
   7   5  10   78.68    4.43   1
   7   5  11   37.95    3.33   1
   7   6  -8    1.39    2.69   1
   7   6  -7    0.50    2.10   1
   7   6  -6  234.09   16.52   1
   7   6  -5  109.20    9.20   1
   7   6  -4    1.69    1.59   1
   7   6  -3    7.08    1.60   1
   7   6  -2  148.60    6.58   1
   7   6  -1  106.92    4.55   1
   7   6   0   14.21    1.73   1
   7   6   1   -1.69    1.09   1
   7   6   2   51.12    2.29   1
   7   6   3   35.16    2.13   1
   7   6   4  106.50    3.72   1
   7   6   5  112.36    3.82   1
   7   6   6   21.81    1.77   1
   7   6   7   33.64    2.55   1
   7   6   8   90.44    7.23   1
   7   6   9  129.28   10.01   1
   7   6  10   -0.40    2.19   1
   7   6  11   38.32    4.83   1
   7   7  -6   10.69    4.12   1
   7   7  -5   14.29    2.27   1
   7   7  -4    0.40    1.59   1
   7   7  -3   25.60    2.53   1
   7   7  -2  132.48    8.06   1
   7   7  -1    0.90    1.99   1
   7   7   0  189.61   11.02   1
   7   7   1   61.62    3.45   1
   7   7   2  196.28    7.57   1
   7   7   3   48.44    2.78   1
   7   7   4   46.65    2.87   1
   7   7   5   21.16    1.93   1
   7   7   6   40.83    4.47   1
   7   7   7    4.28    2.48   1
   7   7   8    7.90    2.98   1
   7   7   9    2.99    3.81   1
   7   7  10  159.52   13.39   1
   7   8  -3   70.06    5.36   1
   7   8  -2   61.15    5.16   1
   7   8  -1   22.75    2.48   1
   7   8   0    1.49    1.68   1
   7   8   1   36.36    3.50   1
   7   8   2  118.81    7.19   1
   7   8   3   23.23    2.51   1
   7   8   4    1.39    3.49   1
   7   8   5    8.18    2.92   1
   7   8   6   24.50    4.36   1
   7   8   7   39.82    5.55   1
   8  -2  -4   15.29    4.69   1
   8  -2  -3   45.29    6.86   1
   8  -2  -2   21.34    3.60   1
   8  -2  -1   13.40    4.32   1
   8  -2   0   13.47    3.96   1
   8  -1  -7   60.53    4.36   1
   8  -1  -6  134.56    6.96   1
   8  -1  -5   47.33    3.30   1
   8  -1  -4   32.95    4.82   1
   8  -1  -3   -1.21    2.51   1
   8  -1  -2   15.21    2.81   1
   8  -1  -1  139.48    9.92   1
   8  -1   0   93.51    7.16   1
   8  -1   3   31.36    4.59   1
   8  -1   4  175.56   14.58   1
   8  -1   5   23.62    3.79   1
   8   0  -8   16.08    2.49   1
   8   0  -7   20.07    2.51   1
   8   0  -6   34.57    3.06   1
   8   0  -5  131.33    6.65   1
   8   0  -4   18.49    2.24   1
   8   0  -3   18.06    3.06   1
   8   0  -2   84.09    6.05   1
   8   0  -1    7.18    3.00   1
   8   0   0   27.46    4.09   1
   8   0   4  250.59   15.51   1
   8   0   5   42.25    4.81   1
   8   0   6   49.56    5.21   1
   8   0   7   -0.50    2.61   1
   8   1  -9   21.53    3.06   1
   8   1  -8    2.89    1.90   1
   8   1  -7   21.53    2.41   1
   8   1  -6  101.61    5.44   1
   8   1  -5  305.20   11.53   1
   8   1  -4   80.82    3.96   1
   8   1  -3  172.66    6.57   1
   8   1  -2    9.18    1.88   1
   8   1  -1   96.63    3.93   1
   8   1   0  269.29   15.10   1
   8   1   4  162.31    9.94   1
   8   1   5   56.85    5.13   1
   8   1   6   12.11    3.20   1
   8   1   7   18.92    3.39   1
   8   1   8   46.79    5.34   1
   8   2  -9   13.99    2.17   1
   8   2  -8    5.81    2.02   1
   8   2  -7   47.20    3.43   1
   8   2  -6   49.84    3.25   1
   8   2  -5   21.62    2.23   1
   8   2  -4    4.28    1.61   1
   8   2  -3  118.81    5.67   1
   8   2  -2   97.61    4.35   1
   8   2  -1   48.86    2.80   1
   8   2   0  118.16    4.57   1
   8   2   1  114.28    6.41   1
   8   2   5   11.63    2.59   1
   8   2   6    0.59    2.39   1
   8   2   7   82.99    7.47   1
   8   2   8   76.56    6.12   1
   8   2   9   33.41    5.43   1
   8   3  -9   56.55    4.06   1
   8   3  -8  138.53    7.06   1
   8   3  -7   11.22    1.61   1
   8   3  -6   36.60    2.90   1
   8   3  -5   44.49    2.93   1
   8   3  -4  116.86    5.41   1
   8   3  -3   44.76    2.68   1
   8   3  -2  156.00    6.00   1
   8   3  -1  106.50    4.54   1
   8   3   0   27.46    2.93   1
   8   3   1   11.63    2.32   1
   8   3   2   16.08    2.41   1
   8   3   3   80.64    5.03   1
   8   3   4   18.84    2.43   1
   8   3   5   96.43    7.07   1
   8   3   6   90.63    7.24   1
   8   3   7  176.09    9.02   1
   8   3   8    6.30    1.71   1
   8   3   9  256.64   13.46   1
   8   4  -8  252.17   13.97   1
   8   4  -7    2.79    2.71   1
   8   4  -6  158.00    9.30   1
   8   4  -5  104.65    6.14   1
   8   4  -4   17.64    1.68   1
   8   4  -3   17.81    1.69   1
   8   4  -2  181.44    7.81   1
   8   4  -1   55.65    4.77   1
   8   4   0  129.73    5.01   1
   8   4   1  102.62    4.66   1
   8   4   2   86.12    3.71   1
   8   4   3   32.95    2.30   1
   8   4   4  121.66    7.72   1
   8   4   5   56.10    4.19   1
   8   4   6   33.99    3.61   1
   8   4   7   28.09    3.18   1
   8   4   8   87.42    4.86   1
   8   4   9   46.10    3.53   1
   8   4  10   30.25    2.75   1
   8   5  -7    2.31    3.62   1
   8   5  -6    0.90    2.39   1
   8   5  -5   77.97    6.89   1
   8   5  -4  111.94    7.19   1
   8   5  -3   51.84    5.04   1
   8   5  -2    8.12    1.71   1
   8   5  -1   61.62    3.30   1
   8   5   0  183.87    6.78   1
   8   5   1   99.80    4.40   1
   8   5   2    2.19    2.10   1
   8   5   3   20.52    2.27   1
   8   5   4   97.42    4.93   1
   8   5   5  166.41   10.84   1
   8   5   6   43.82    4.37   1
   8   5   7   13.10    3.40   1
   8   5   8   20.79    3.28   1
   8   5   9   64.80    8.05   1
   8   6  -6   43.96    6.10   1
   8   6  -5   35.88    4.67   1
   8   6  -4   95.26    8.59   1
   8   6  -3   21.62    2.51   1
   8   6  -2    4.28    1.70   1
   8   6  -1   64.16    3.52   1
   8   6   0   69.39    3.83   1
   8   6   1   69.39    3.83   1
   8   6   2   67.08    3.93   1
   8   6   3   86.86    4.66   1
   8   6   4   50.84    3.42   1
   8   6   5   36.36    3.86   1
   8   6   6   33.76    4.07   1
   8   6   7   22.66    4.00   1
   8   6   8   30.80    4.00   1
   8   7  -3    0.79    1.89   1
   8   7  -2   25.10    3.31   1
   8   7  -1   64.48    4.66   1
   8   7   0   78.32    4.43   1
   8   7   1   17.64    2.77   1
   8   7   2   54.76    3.70   1
   8   7   3   50.27    3.55   1
   8   7   4    3.31    1.89   1
   8   7   5   48.86    3.63   1
   8   7   6    0.20    2.41   1
   8   7   7   17.39    4.09   1
   9   0  -2   40.96    5.38   1
   9   0  -1   24.01    4.70   1
   9   0   0   18.66    3.80   1
   9   1  -5  181.17    9.15   1
   9   1  -4   86.49    5.02   1
   9   1  -3   75.34    5.03   1
   9   1  -2   34.34    3.05   1
   9   1  -1   90.25    8.93   1
   9   2  -6   20.16    2.33   1
   9   2  -5   63.52    4.14   1
   9   2  -4   62.57    3.95   1
   9   2  -3   55.65    3.88   1
   9   2  -2    8.29    2.07   1
   9   2  -1   41.86    2.85   1
   9   3  -6   45.56    3.91   1
   9   3  -5   61.62    4.24   1
   9   3  -4   26.21    2.46   1
   9   3  -3   48.44    3.76   1
   9   3  -2   14.29    2.19   1
   9   3  -1   74.82    5.54   1
   9   3   0   63.20    6.04   1
   9   3   1  139.00   10.14   1
   9   4  -5    9.49    4.19   1
   9   4  -4   33.18    4.95   1
   9   4  -3  116.64    8.64   1
   9   4  -2  241.18   15.22   1
   9   4  -1  103.02    7.92   1
   9   4   0   90.25    7.41   1
   9   4   1   16.40    3.32   1
   9   4   2  161.04   23.35   1
   9   4   3   34.46   14.91   1
   9   4   4    5.11    3.48   1
   9   4   5    7.40    2.77   1
   9   4   6  136.66    9.59   1
   9   5  -4   55.06    6.08   1
   9   5  -3   49.70    6.06   1
   9   5  -2   31.14    4.13   1
   9   5  -1   44.89    4.82   1
   9   5   0   23.91    3.62   1
   9   5   1   46.65    4.37   1
   9   5   2   39.94    2.91   1
   9   5   3   19.80    3.11   1
   9   5   4   48.72    5.30   1
   9   5   5   60.68    6.70   1
   9   5   6   93.51    9.48   1
   9   6  -1   35.52    4.05   1
   9   6   0   39.94    3.54   1
   9   6   1   51.98    4.18   1
   9   6   2    7.29    2.11   1
   9   6   3   24.90    2.69   1
   9   6   4    6.60    2.78   1
   0   0   0    0.00    0.00   0
;
_shelx_hkl_checksum              23383
loop_
_space_group_symop_operation_xyz
'x, y, z'
loop_
_atom_site_label
_atom_site_type_symbol
_atom_site_fract_x
_atom_site_fract_y
_atom_site_fract_z
_atom_site_U_iso_or_equiv
_atom_site_adp_type
_atom_site_occupancy
_atom_site_site_symmetry_order
_atom_site_calc_flag
_atom_site_refinement_flags_posn
_atom_site_refinement_flags_adp
N1 N 0.1876(3) 0.2874(3) 0.04004(13) 0.0175(4) Uani 1 1 d . .
C2 C 0.2259(3) 0.1522(3) -0.01870(15) 0.0182(4) Uani 1 1 d . .
O2 O 0.1243(2) 0.0558(3) -0.02513(13) 0.0280(4) Uani 1 1 d . .
C3 C 0.3987(3) 0.1223(3) -0.08201(16) 0.0171(4) Uani 1 1 d . .
H3 H 0.3518 0.1368 -0.1510 0.020 Uiso 1 1 calc R U
N4 N 0.4902(3) 0.2669(3) -0.08300(14) 0.0178(4) Uani 1 1 d . .
C4 C 0.6324(3) 0.2706(4) -0.15787(18) 0.0243(5) Uani 1 1 d . .
H4A H 0.6340 0.4004 -0.1758 0.037 Uiso 1 1 calc R U
H4B H 0.5992 0.2307 -0.2163 0.037 Uiso 1 1 calc R U
H4C H 0.7571 0.1830 -0.1306 0.037 Uiso 1 1 calc R U
C5 C 0.4782(3) 0.3689(3) -0.00977(17) 0.0190(4) Uani 1 1 d . .
O5 O 0.5825(3) 0.4630(2) -0.00267(14) 0.0290(4) Uani 1 1 d . .
C6 C 0.3232(3) 0.3770(3) 0.06461(16) 0.0182(4) Uani 1 1 d . .
H6 H 0.2482 0.5154 0.0621 0.022 Uiso 1 1 calc R U
C7 C 0.4106(3) 0.2946(3) 0.17251(17) 0.0217(4) Uani 1 1 d . .
H7A H 0.4860 0.1571 0.1785 0.026 Uiso 1 1 calc R U
H7B H 0.4961 0.3604 0.1866 0.026 Uiso 1 1 calc R U
C8 C 0.2572(4) 0.3202(4) 0.24932(19) 0.0263(5) Uani 1 1 d . .
H8A H 0.1859 0.4582 0.2455 0.032 Uiso 1 1 calc R U
H8B H 0.3190 0.2681 0.3159 0.032 Uiso 1 1 calc R U
S9 S 0.09101(7) 0.19901(8) 0.23000(4) 0.02701(15) Uani 1 1 d . .
C10 C 0.0216(3) 0.3201(4) 0.10145(17) 0.0228(5) Uani 1 1 d . .
H10A H -0.0686 0.2716 0.0747 0.027 Uiso 1 1 calc R U
H10B H -0.0421 0.4589 0.0990 0.027 Uiso 1 1 calc R U
C11 C 0.5430(3) -0.0889(3) -0.05250(17) 0.0205(4) Uani 1 1 d . .
H11A H 0.4770 -0.1781 -0.0581 0.025 Uiso 1 1 calc R U
H11B H 0.6435 -0.1095 -0.0997 0.025 Uiso 1 1 calc R U
C12 C 0.6340(3) -0.1376(3) 0.05179(17) 0.0195(4) Uani 1 1 d . .
C13 C 0.5541(3) -0.2198(3) 0.13250(18) 0.0222(5) Uani 1 1 d . .
H13 H 0.4424 -0.2442 0.1220 0.027 Uiso 1 1 calc R U
C14 C 0.6392(4) -0.2661(4) 0.22882(19) 0.0276(5) Uani 1 1 d . .
H14 H 0.5850 -0.3223 0.2819 0.033 Uiso 1 1 calc R U
C15 C 0.8044(4) -0.2287(3) 0.24563(19) 0.0284(5) Uani 1 1 d . .
H15 H 0.8612 -0.2589 0.3099 0.034 Uiso 1 1 calc R U
C16 C 0.8843(4) -0.1455(4) 0.1655(2) 0.0282(5) Uani 1 1 d . .
H16 H 0.9949 -0.1195 0.1764 0.034 Uiso 1 1 calc R U
C17 C 0.8008(3) -0.1011(3) 0.06986(19) 0.0240(5) Uani 1 1 d . .
H17 H 0.8564 -0.0462 0.0169 0.029 Uiso 1 1 calc R U
N21 N -0.1328(3) 0.1550(3) -0.35899(13) 0.0182(4) Uani 1 1 d . .
C22 C 0.0295(3) 0.0907(3) -0.30047(16) 0.0184(4) Uani 1 1 d . .
O22 O 0.1282(3) 0.1905(2) -0.29408(13) 0.0279(4) Uani 1 1 d . .
C23 C 0.0905(3) -0.1113(3) -0.23659(16) 0.0172(4) Uani 1 1 d . .
H23 H 0.1088 -0.0962 -0.1677 0.021 Uiso 1 1 calc R U
N24 N -0.0528(3) -0.2046(3) -0.23505(14) 0.0179(4) Uani 1 1 d . .
C24 C -0.0188(3) -0.3823(3) -0.16022(18) 0.0241(5) Uani 1 1 d . .
H24A H -0.1396 -0.3939 -0.1418 0.036 Uiso 1 1 calc R U
H24B H 0.0488 -0.3760 -0.1021 0.036 Uiso 1 1 calc R U
H24C H 0.0565 -0.4935 -0.1877 0.036 Uiso 1 1 calc R U
C25 C -0.1903(3) -0.1596(3) -0.30785(17) 0.0196(4) Uani 1 1 d . .
O25 O -0.2873(2) -0.2605(3) -0.31402(14) 0.0292(4) Uani 1 1 d . .
C26 C -0.2338(3) 0.0303(3) -0.38275(16) 0.0186(4) Uani 1 1 d . .
H26 H -0.3711 0.1038 -0.3803 0.022 Uiso 1 1 calc R U
C27 C -0.2020(3) -0.0090(3) -0.49018(16) 0.0211(4) Uani 1 1 d . .
H27A H -0.0671 -0.0819 -0.4959 0.025 Uiso 1 1 calc R U
H27B H -0.2744 -0.0884 -0.5035 0.025 Uiso 1 1 calc R U
C28 C -0.2637(4) 0.1794(4) -0.56857(18) 0.0259(5) Uani 1 1 d . .
H28A H -0.4002 0.2487 -0.5654 0.031 Uiso 1 1 calc R U
H28B H -0.2416 0.1469 -0.6347 0.031 Uiso 1 1 calc R U
S29 S -0.13449(8) 0.33726(8) -0.55012(4) 0.02691(14) Uani 1 1 d . .
C210 C -0.1954(3) 0.3488(3) -0.42137(17) 0.0235(5) Uani 1 1 d . .
H21A H -0.1350 0.4277 -0.3953 0.028 Uiso 1 1 calc R U
H21B H -0.3333 0.4107 -0.4189 0.028 Uiso 1 1 calc R U
C211 C 0.2882(3) -0.2410(3) -0.26655(17) 0.0218(4) Uani 1 1 d . .
H21C H 0.3807 -0.1789 -0.2597 0.026 Uiso 1 1 calc R U
H21D H 0.3304 -0.3651 -0.2204 0.026 Uiso 1 1 calc R U
C212 C 0.2875(3) -0.2782(3) -0.37139(17) 0.0192(4) Uani 1 1 d . .
C213 C 0.2435(3) -0.4345(3) -0.39265(19) 0.0251(5) Uani 1 1 d . .
H213 H 0.2166 -0.5193 -0.3408 0.030 Uiso 1 1 calc R U
C214 C 0.2394(4) -0.4652(4) -0.4906(2) 0.0315(6) Uani 1 1 d . .
H214 H 0.2085 -0.5692 -0.5038 0.038 Uiso 1 1 calc R U
C215 C 0.2811(4) -0.3415(4) -0.56785(19) 0.0312(6) Uani 1 1 d . .
H215 H 0.2794 -0.3627 -0.6331 0.037 Uiso 1 1 calc R U
C216 C 0.3258(4) -0.1852(4) -0.54826(19) 0.0276(5) Uani 1 1 d . .
H216 H 0.3539 -0.1015 -0.6003 0.033 Uiso 1 1 calc R U
C217 C 0.3283(3) -0.1546(3) -0.45085(18) 0.0221(5) Uani 1 1 d . .
H217 H 0.3577 -0.0493 -0.4382 0.027 Uiso 1 1 calc R U
loop_
_atom_site_aniso_label
_atom_site_aniso_U_11
_atom_site_aniso_U_22
_atom_site_aniso_U_33
_atom_site_aniso_U_23
_atom_site_aniso_U_13
_atom_site_aniso_U_12
N1 0.0174(9) 0.0208(9) 0.0150(9) -0.0048(7) 0.0008(7) -0.0072(7)
C2 0.0182(10) 0.0206(10) 0.0157(10) -0.0033(8) 0.0000(8) -0.0067(8)
O2 0.0271(9) 0.0370(9) 0.0298(9) -0.0150(8) 0.0068(7) -0.0196(8)
C3 0.0198(11) 0.0187(10) 0.0158(10) -0.0057(8) 0.0014(8) -0.0093(8)
N4 0.0179(9) 0.0179(8) 0.0179(9) -0.0015(7) 0.0036(7) -0.0076(7)
C4 0.0226(11) 0.0240(11) 0.0234(12) -0.0007(9) 0.0073(9) -0.0067(9)
C5 0.0177(10) 0.0145(9) 0.0225(11) -0.0018(8) -0.0010(8) -0.0037(8)
O5 0.0310(9) 0.0252(9) 0.0382(10) -0.0089(7) 0.0042(7) -0.0175(7)
C6 0.0194(10) 0.0153(9) 0.0197(10) -0.0052(8) -0.0011(8) -0.0052(8)
C7 0.0241(11) 0.0199(10) 0.0208(11) -0.0053(8) -0.0040(9) -0.0068(9)
C8 0.0322(13) 0.0273(12) 0.0193(11) -0.0081(9) -0.0014(9) -0.0086(10)
S9 0.0292(3) 0.0359(3) 0.0174(3) -0.0058(2) 0.0048(2) -0.0132(3)
C10 0.0182(10) 0.0284(12) 0.0210(11) -0.0079(9) 0.0030(8) -0.0057(9)
C11 0.0252(11) 0.0169(10) 0.0208(11) -0.0067(8) 0.0042(9) -0.0076(9)
C12 0.0202(11) 0.0121(9) 0.0246(11) -0.0050(8) 0.0032(9) -0.0031(8)
C13 0.0214(11) 0.0189(11) 0.0268(12) -0.0051(9) 0.0031(9) -0.0074(9)
C14 0.0316(14) 0.0224(12) 0.0236(12) -0.0005(9) 0.0049(10) -0.0052(10)
C15 0.0328(13) 0.0216(11) 0.0238(12) -0.0014(9) -0.0075(10) -0.0022(10)
C16 0.0230(11) 0.0225(11) 0.0381(14) -0.0035(10) -0.0051(10) -0.0078(9)
C17 0.0216(11) 0.0183(11) 0.0305(13) 0.0001(9) 0.0020(9) -0.0075(9)
N21 0.0202(9) 0.0165(8) 0.0165(9) -0.0016(7) -0.0004(7) -0.0055(7)
C22 0.0215(10) 0.0181(10) 0.0159(10) -0.0041(8) 0.0018(8) -0.0072(8)
O22 0.0336(9) 0.0248(8) 0.0297(9) -0.0013(7) -0.0056(7) -0.0173(7)
C23 0.0176(10) 0.0195(10) 0.0142(10) -0.0014(8) -0.0017(7) -0.0071(8)
N24 0.0186(9) 0.0168(8) 0.0176(9) 0.0005(7) 0.0010(7) -0.0070(7)
C24 0.0253(11) 0.0195(10) 0.0232(11) 0.0026(9) 0.0028(9) -0.0059(9)
C25 0.0150(10) 0.0216(10) 0.0218(11) -0.0060(9) 0.0037(8) -0.0054(8)
O25 0.0230(8) 0.0317(9) 0.0371(10) -0.0036(8) 0.0000(7) -0.0162(7)
C26 0.0135(10) 0.0225(11) 0.0190(10) -0.0039(8) -0.0004(8) -0.0052(8)
C27 0.0184(10) 0.0263(11) 0.0192(11) -0.0069(9) 0.0000(8) -0.0074(9)
C28 0.0243(12) 0.0345(13) 0.0162(11) -0.0034(9) -0.0013(9) -0.0078(10)
S29 0.0321(3) 0.0273(3) 0.0182(3) 0.0021(2) -0.0001(2) -0.0099(2)
C210 0.0276(12) 0.0177(10) 0.0213(11) -0.0012(9) 0.0008(9) -0.0045(9)
C211 0.0167(10) 0.0238(11) 0.0219(11) -0.0003(9) -0.0025(8) -0.0053(9)
C212 0.0119(10) 0.0214(10) 0.0215(11) -0.0038(9) 0.0006(8) -0.0027(8)
C213 0.0197(11) 0.0207(11) 0.0344(13) -0.0070(10) 0.0066(9) -0.0058(9)
C214 0.0231(12) 0.0312(13) 0.0453(15) -0.0206(12) 0.0061(11) -0.0097(10)
C215 0.0240(12) 0.0431(15) 0.0291(13) -0.0182(11) 0.0039(10) -0.0098(11)
C216 0.0237(13) 0.0344(14) 0.0240(12) -0.0051(11) 0.0038(10) -0.0095(10)
C217 0.0183(11) 0.0230(11) 0.0258(11) -0.0049(9) 0.0008(8) -0.0080(9)
loop_
_atom_type_symbol
_atom_type_description
_atom_type_scat_dispersion_real
_atom_type_scat_dispersion_imag
_atom_type_scat_source
C C 0.0033 0.0016 'International Tables Vol C Tables 4.2.6.8 and 6.1.1.4'
H H 0.0000 0.0000 'International Tables Vol C Tables 4.2.6.8 and 6.1.1.4'
N N 0.0061 0.0033 'International Tables Vol C Tables 4.2.6.8 and 6.1.1.4'
O O 0.0106 0.0060 'International Tables Vol C Tables 4.2.6.8 and 6.1.1.4'
S S 0.1246 0.1234 'International Tables Vol C Tables 4.2.6.8 and 6.1.1.4'
loop_
_geom_angle_atom_site_label_1
_geom_angle_atom_site_label_2
_geom_angle_atom_site_label_3
_geom_angle
C2 N1 C10 119.68(18)
C2 N1 C6 124.19(18)
C10 N1 C6 114.75(18)
O2 C2 N1 123.0(2)
O2 C2 C3 118.52(19)
N1 C2 C3 118.44(18)
N4 C3 C2 114.36(17)
N4 C3 C11 112.27(17)
C2 C3 C11 110.31(17)
N4 C3 H3 106.4
C2 C3 H3 106.4
C11 C3 H3 106.4
C5 N4 C3 123.86(18)
C5 N4 C4 118.07(19)
C3 N4 C4 116.92(18)
N4 C4 H4A 109.5
N4 C4 H4B 109.5
H4A C4 H4B 109.5
N4 C4 H4C 109.5
H4A C4 H4C 109.5
H4B C4 H4C 109.5
O5 C5 N4 122.8(2)
O5 C5 C6 118.5(2)
N4 C5 C6 118.68(19)
N1 C6 C5 114.10(18)
N1 C6 C7 111.66(18)
C5 C6 C7 111.32(18)
N1 C6 H6 106.4
C5 C6 H6 106.4
C7 C6 H6 106.4
C8 C7 C6 112.16(19)
C8 C7 H7A 109.2
C6 C7 H7A 109.2
C8 C7 H7B 109.2
C6 C7 H7B 109.2
H7A C7 H7B 107.9
C7 C8 S9 112.48(16)
C7 C8 H8A 109.1
S9 C8 H8A 109.1
C7 C8 H8B 109.1
S9 C8 H8B 109.1
H8A C8 H8B 107.8
C10 S9 C8 95.64(11)
N1 C10 S9 111.34(15)
N1 C10 H10A 109.4
S9 C10 H10A 109.4
N1 C10 H10B 109.4
S9 C10 H10B 109.4
H10A C10 H10B 108.0
C12 C11 C3 114.16(17)
C12 C11 H11A 108.7
C3 C11 H11A 108.7
C12 C11 H11B 108.7
C3 C11 H11B 108.7
H11A C11 H11B 107.6
C13 C12 C17 118.3(2)
C13 C12 C11 120.9(2)
C17 C12 C11 120.8(2)
C12 C13 C14 120.8(2)
C12 C13 H13 119.6
C14 C13 H13 119.6
C15 C14 C13 120.2(2)
C15 C14 H14 119.9
C13 C14 H14 119.9
C14 C15 C16 119.3(2)
C14 C15 H15 120.3
C16 C15 H15 120.3
C17 C16 C15 120.5(2)
C17 C16 H16 119.7
C15 C16 H16 119.7
C16 C17 C12 120.8(2)
C16 C17 H17 119.6
C12 C17 H17 119.6
C22 N21 C210 119.92(18)
C22 N21 C26 124.30(17)
C210 N21 C26 114.44(18)
O22 C22 N21 123.10(19)
O22 C22 C23 118.28(19)
N21 C22 C23 118.58(18)
N24 C23 C22 114.30(17)
N24 C23 C211 112.13(18)
C22 C23 C211 110.22(18)
N24 C23 H23 106.6
C22 C23 H23 106.6
C211 C23 H23 106.6
C25 N24 C24 117.99(18)
C25 N24 C23 124.06(18)
C24 N24 C23 116.76(17)
N24 C24 H24A 109.5
N24 C24 H24B 109.5
H24A C24 H24B 109.5
N24 C24 H24C 109.5
H24A C24 H24C 109.5
H24B C24 H24C 109.5
O25 C25 N24 122.9(2)
O25 C25 C26 118.7(2)
N24 C25 C26 118.34(19)
N21 C26 C25 114.26(18)
N21 C26 C27 111.84(17)
C25 C26 C27 110.85(18)
N21 C26 H26 106.4
C25 C26 H26 106.4
C27 C26 H26 106.4
C28 C27 C26 112.33(19)
C28 C27 H27A 109.1
C26 C27 H27A 109.1
C28 C27 H27B 109.1
C26 C27 H27B 109.1
H27A C27 H27B 107.9
C27 C28 S29 112.34(16)
C27 C28 H28A 109.1
S29 C28 H28A 109.1
C27 C28 H28B 109.1
S29 C28 H28B 109.1
H28A C28 H28B 107.9
C210 S29 C28 95.87(11)
N21 C210 S29 111.30(15)
N21 C210 H21A 109.4
S29 C210 H21A 109.4
N21 C210 H21B 109.4
S29 C210 H21B 109.4
H21A C210 H21B 108.0
C212 C211 C23 113.88(17)
C212 C211 H21C 108.8
C23 C211 H21C 108.8
C212 C211 H21D 108.8
C23 C211 H21D 108.8
H21C C211 H21D 107.7
C213 C212 C217 118.0(2)
C213 C212 C211 121.4(2)
C217 C212 C211 120.6(2)
C212 C213 C214 120.9(2)
C212 C213 H213 119.6
C214 C213 H213 119.6
C215 C214 C213 120.0(2)
C215 C214 H214 120.0
C213 C214 H214 120.0
C214 C215 C216 120.0(2)
C214 C215 H215 120.0
C216 C215 H215 120.0
C217 C216 C215 119.7(2)
C217 C216 H216 120.1
C215 C216 H216 120.1
C216 C217 C212 121.3(2)
C216 C217 H217 119.3
C212 C217 H217 119.3
loop_
_geom_bond_atom_site_label_1
_geom_bond_atom_site_label_2
_geom_bond_distance
N1 C2 1.348(3)
N1 C10 1.457(3)
N1 C6 1.464(3)
C2 O2 1.228(3)
C2 C3 1.513(3)
C3 N4 1.463(3)
C3 C11 1.546(3)
C3 H3 0.9800
N4 C5 1.342(3)
N4 C4 1.464(3)
C4 H4A 0.9600
C4 H4B 0.9600
C4 H4C 0.9600
C5 O5 1.232(3)
C5 C6 1.519(3)
C6 C7 1.541(3)
C6 H6 0.9800
C7 C8 1.524(3)
C7 H7A 0.9700
C7 H7B 0.9700
C8 S9 1.817(3)
C8 H8A 0.9700
C8 H8B 0.9700
S9 C10 1.808(2)
C10 H10A 0.9700
C10 H10B 0.9700
C11 C12 1.507(3)
C11 H11A 0.9700
C11 H11B 0.9700
C12 C13 1.392(3)
C12 C17 1.397(3)
C13 C14 1.394(4)
C13 H13 0.9300
C14 C15 1.385(4)
C14 H14 0.9300
C15 C16 1.389(4)
C15 H15 0.9300
C16 C17 1.382(4)
C16 H16 0.9300
C17 H17 0.9300
N21 C22 1.343(3)
N21 C210 1.457(3)
N21 C26 1.464(3)
C22 O22 1.231(3)
C22 C23 1.514(3)
C23 N24 1.464(3)
C23 C211 1.548(3)
C23 H23 0.9800
N24 C25 1.344(3)
N24 C24 1.464(3)
C24 H24A 0.9600
C24 H24B 0.9600
C24 H24C 0.9600
C25 O25 1.227(3)
C25 C26 1.522(3)
C26 C27 1.540(3)
C26 H26 0.9800
C27 C28 1.531(3)
C27 H27A 0.9700
C27 H27B 0.9700
C28 S29 1.814(3)
C28 H28A 0.9700
C28 H28B 0.9700
S29 C210 1.813(2)
C210 H21A 0.9700
C210 H21B 0.9700
C211 C212 1.501(3)
C211 H21C 0.9700
C211 H21D 0.9700
C212 C213 1.393(3)
C212 C217 1.395(3)
C213 C214 1.394(4)
C213 H213 0.9300
C214 C215 1.378(4)
C214 H214 0.9300
C215 C216 1.388(4)
C215 H215 0.9300
C216 C217 1.386(4)
C216 H216 0.9300
C217 H217 0.9300
loop_
_geom_hbond_atom_site_label_D
_geom_hbond_atom_site_label_H
_geom_hbond_atom_site_label_A
_geom_hbond_distance_DH
_geom_hbond_distance_HA
_geom_hbond_distance_DA
_geom_hbond_angle_DHA
_geom_hbond_site_symmetry_A
C3 H3 O22 0.98 2.46 3.397(3) 159.8 .
C11 H11A O5 0.97 2.48 3.197(3) 130.4 1_545
C17 H17 O2 0.93 2.40 3.197(3) 143.1 1_655
C211 H21C O25 0.97 2.47 3.179(3) 129.9 1_655
C23 H23 O2 0.98 2.44 3.378(3) 160.6 .
C213 H213 O22 0.93 2.45 3.269(3) 146.3 1_545

_cod_database_fobs_code 2108199
