#------------------------------------------------------------------------------
#$Date: 2021-09-22 04:47:00 +0300 (Wed, 22 Sep 2021) $
#$Revision: 269240 $
#$URL: file:///home/coder/svn-repositories/cod/cif/2/10/88/2108883.cif $
#------------------------------------------------------------------------------
#
# This file is available in the Crystallography Open Database (COD),
# http://www.crystallography.net/. The original data for this entry
# were provided by IUCr Journals, http://journals.iucr.org/.
#
# The file may be used within the scientific community so long as
# proper attribution is given to the journal article from which the
# data were obtained.
#
data_2108883
loop_
_publ_author_name
'Novelli, Giulia'
'McMonagle, Charles J.'
'Kleemiss, Florian'
'Probert, Michael'
'Puschmann, Horst'
'Grabowsky, Simon'
'Maynard-Casely, Helen E.'
'McIntyre, Garry J.'
'Parsons, Simon'
_publ_section_title
;
 Accurate H-atom parameters for the two polymorphs of
 <small>L</small>-histidine at 5, 105 and 295K
;
_journal_issue                   5
_journal_name_full               'Acta Crystallographica Section B'
_journal_page_first
;
;
_journal_paper_doi               10.1107/S205252062100740X
_journal_volume                  77
_journal_year                    2021
_chemical_absolute_configuration syn
_chemical_formula_moiety         'C6 H9 N3 O2'
_chemical_formula_sum            'C6 H9 N3 O2'
_chemical_formula_weight         155.157
_space_group_crystal_system      monoclinic
_space_group_IT_number           4
_space_group_name_Hall           'P 2yb'
_space_group_name_H-M_alt        'P 1 21 1'
_symmetry_Int_Tables_number      4
_audit_creation_date             2021-02-14
_audit_creation_method
;
Olex2 1.3
(compiled 2020.11.12 svn.r5f609507 for OlexSys, GUI svn.r6257)
;
_cell_angle_alpha                90
_cell_angle_beta                 97.316(3)
_cell_angle_gamma                90
_cell_formula_units_Z            2
_cell_length_a                   5.1656(2)
_cell_length_b                   7.2761(3)
_cell_length_c                   9.4978(3)
_cell_measurement_reflns_used    2706
_cell_measurement_temperature    105
_cell_measurement_theta_max      30.42
_cell_measurement_theta_min      3.54
_cell_volume                     354.07(2)
_computing_cell_refinement       'SAINT V8.38A (?, 2016)'
_computing_data_reduction        'SAINT V8.38A (?, 2016)'
_computing_molecular_graphics    'Olex2 (Dolomanov et al., 2009)'
_computing_publication_material  'Olex2 (Dolomanov et al., 2009)'
_computing_structure_refinement  'ShelXL (Sheldrick, 2015)'
_computing_structure_solution    'ShelXT (Sheldrick, 2015)'
_diffrn_ambient_temperature      105
_diffrn_measured_fraction_theta_full 0.9957
_diffrn_measured_fraction_theta_max 0.9897
_diffrn_measurement_device       'XIPHOS four-circle diffractometer'
_diffrn_measurement_device_type  'Bruker APEX-II CCD'
_diffrn_measurement_method       '\f scans'
_diffrn_radiation_collimation    focused
_diffrn_radiation_monochromator  'multilayer optics'
_diffrn_radiation_probe          x-ray
_diffrn_radiation_type           'Mo K\a'
_diffrn_radiation_wavelength     0.71073
_diffrn_reflns_av_R_equivalents  0.0329
_diffrn_reflns_av_unetI/netI     0.0272
_diffrn_reflns_Laue_measured_fraction_full 0.9957
_diffrn_reflns_Laue_measured_fraction_max 0.9897
_diffrn_reflns_limit_h_max       7
_diffrn_reflns_limit_h_min       -7
_diffrn_reflns_limit_k_max       10
_diffrn_reflns_limit_k_min       -10
_diffrn_reflns_limit_l_max       13
_diffrn_reflns_limit_l_min       -13
_diffrn_reflns_number            11193
_diffrn_reflns_point_group_measured_fraction_full 0.9961
_diffrn_reflns_point_group_measured_fraction_max 0.9890
_diffrn_reflns_theta_full        25.2417
_diffrn_reflns_theta_max         30.53
_diffrn_reflns_theta_min         3.54
_diffrn_source                   'rotating anode'
_diffrn_source_target            Mo
_diffrn_source_type              'Bruker TXS with Helios Optics'
_exptl_absorpt_coefficient_mu    0.112
_exptl_absorpt_correction_T_max  0.7461
_exptl_absorpt_correction_T_min  0.6501
_exptl_absorpt_correction_type   multi-scan
_exptl_absorpt_process_details
;
 SADABS 2016/2: Krause, L., Herbst-Irmer, R., Sheldrick G.M. & Stalke D.,
 J. Appl. Cryst. 48 (2015) 3-10
;
_exptl_crystal_colour            colourless
_exptl_crystal_density_diffrn    1.455
_exptl_crystal_description       plate
_exptl_crystal_F_000             164.036
_exptl_crystal_size_max          0.2
_exptl_crystal_size_mid          0.2
_exptl_crystal_size_min          0.1
_refine_diff_density_max         0.1481
_refine_diff_density_min         -0.1194
_refine_diff_density_rms         0.0358
_refine_ls_abs_structure_details
'Flack, H. D. (1983). Acta Cryst. A39, 876-881.'
_refine_ls_abs_structure_Flack   0.3(11)
_refine_ls_d_res_high            0.6996
_refine_ls_d_res_low             5.7585
_refine_ls_goodness_of_fit_ref   1.1832
_refine_ls_hydrogen_treatment    refall
_refine_ls_matrix_type           full
_refine_ls_number_constraints    0
_refine_ls_number_parameters     181
_refine_ls_number_reflns         2148
_refine_ls_number_restraints     100
_refine_ls_restrained_S_all      1.1545
_refine_ls_R_factor_all          0.0248
_refine_ls_R_factor_gt           0.0218
_refine_ls_shift/su_max          0.0001
_refine_ls_shift/su_mean         0.0000
_refine_ls_structure_factor_coef Fsqd
_refine_ls_weighting_details
'w=1/[\s^2^(Fo^2^)+(0.0076P)^2^] where P=(Fo^2^+2Fc^2^)/3'
_refine_ls_weighting_scheme      calc
_refine_ls_wR_factor_gt          0.0310
_refine_ls_wR_factor_ref         0.0315
_reflns_Friedel_coverage         0.988
_reflns_limit_h_max              7
_reflns_limit_h_min              -7
_reflns_limit_k_max              10
_reflns_limit_k_min              -10
_reflns_limit_l_max              13
_reflns_limit_l_min              -13
_reflns_number_gt                2032
_reflns_number_total             2148
_reflns_threshold_expression     I>=2u(I)
_iucr_refine_instructions_details
;
TITL mono_105k_final_a.res in P2(1)
REM Old TITL mono_105k_final in P2(1)
REM SHELXT solution in P2(1)
REM R1 0.069, Rweak 0.028, Alpha 0.002, Orientation as input
REM Flack x = -0.314 ( 0.377 ) from Parsons' quotients
REM Formula found by SHELXT: C6 N3 O2
CELL 0.71073 5.1656 7.2761 9.4978 90 97.316 90
ZERR 2 0.0002 0.0003 0.0003 0 0.003 0
LATT -1
SYMM -X,0.5+Y,-Z
SFAC C H N O
DISP C 0.0021 0.0016 11.5003
DISP H 0 0 0.624
DISP N 0.0041 0.0033 19.5955
DISP O 0.0079 0.0061 32.4922
UNIT 12 18 6 4
EQIV $1 1+X,+Y,+Z
EQIV $2 1-X,0.5+Y,2-Z
EQIV $3 +X,+Y,-1+Z
RIGU H5 H3 H6 C4 N2 C5 N3 C6
RIGU H1A H1B H1C N1
RIGU H3A C3 H3B C2 H2

L.S. 99 0 0
PLAN  1
TEMP -168.15
CONF
HTAB N1 O2_$1
HTAB N1 O2_$2
HTAB N1 N2
HTAB N3 O1_$3
BOND $H
MORE -1
fmap 2 53
acta 
LIST -6
OMIT 0 0 1
OMIT -1 0 2
OMIT 0 0 6
WGHT 0.007576 0
FVAR 1.315793
REM <olex2.extras>
REM <HklSrc "%.\\HMTX19.hkl">
REM </olex2.extras>

O2    4     0.31462  0.45104  1.01449  11.00000  0.01127  0.01685  0.01614 =
 0.00537  0.00433  0.00010 
O1    4     0.73996  0.44614  1.09888  11.00000  0.01280  0.02401  0.00897 =
 0.00357  0.00203 -0.00020 
N1    3     0.87419  0.63417  0.87357  11.00000  0.01229  0.01096  0.00960 =
 -0.00069  0.00149 -0.00184 
H1A   2     0.94153  0.64096  0.77705  11.00000  0.03696  0.02545  0.02096 =
 0.00657  0.01182  0.00954 
H1B   2     1.01083  0.57091  0.94312  11.00000  0.01658  0.02134  0.02834 =
 0.00757 -0.00723 -0.00185 
H1C   2     0.84481  0.76072  0.91003  11.00000  0.02487  0.01414  0.02607 =
 -0.00369  0.00499  0.00036 
N3    3     0.72092  0.44401  0.38769  11.00000  0.01657  0.01450  0.00819 =
 -0.00045  0.00208  0.00046 
H3    2     0.68491  0.43439  0.28266  11.00000  0.02602  0.02757  0.00870 =
 0.00030  0.00236 -0.00174 
N2    3     0.92139  0.51550  0.60132  11.00000  0.01400  0.01453  0.01008 =
 -0.00101  0.00176 -0.00362 
C1    1     0.55305  0.47409  1.00405  11.00000  0.01085  0.00973  0.00912 =
 0.00032  0.00301  0.00036 
C4    1     0.69926  0.41379  0.61629  11.00000  0.01388  0.01011  0.00833 =
 -0.00015  0.00276 -0.00125 
C6    1     0.57349  0.36888  0.48424  11.00000  0.01442  0.01347  0.00988 =
 -0.00150  0.00121 -0.00139 
H6    2     0.39840  0.29377  0.45227  11.00000  0.02552  0.04280  0.02679 =
 -0.00385 -0.00229 -0.01651 
C2    1     0.61967  0.53500  0.85723  11.00000  0.01023  0.01077  0.00770 =
 0.00081  0.00221  0.00001 
H2    2     0.46851  0.63033  0.81124  11.00000  0.01874  0.00820  0.02791 =
 0.00679 -0.00499  0.00500 
C5    1     0.92565  0.53046  0.46240  11.00000  0.01553  0.01545  0.01079 =
 0.00103  0.00429 -0.00080 
H5    2     1.07263  0.60580  0.41327  11.00000  0.03798  0.04262  0.02789 =
 0.00491  0.01441 -0.01552 
C3    1     0.63061  0.36558  0.76089  11.00000  0.01855  0.01031  0.00989 =
 -0.00033  0.00375 -0.00343 
H3A   2     0.77137  0.26883  0.81575  11.00000  0.04200  0.01885  0.01855 =
 -0.00182 -0.00155  0.00806 
H3B   2     0.44033  0.30018  0.75095  11.00000  0.02693  0.03112  0.03196 =
 -0.00275  0.00659 -0.01439 
HKLF 4

END
Q1 1 0.65 0.407407 0.555556 11 0.05 0.15

  REM The information below was added by Olex2.
  REM
  REM R1 = 0.0218 for 2032 Fo > 4sig(Fo) and 0.0248 for all 2148 data
  REM 181 parameters refined using 100 restraints
  REM Highest difference peak 0.1481, deepest hole -0.1194
  REM Mean Shift 0.0000, Max Shift 0.0001.

  REM +++ Tabular Listing of Refinement Information +++
  REM R1_all = 0.0248
  REM R1_gt = 0.0218
  REM wR_ref = 0.0315
  REM GOOF = 1.1832
  REM Shift_max = 0.0001
  REM Shift_mean = 0.0000
  REM Reflections_all = 2148
  REM Reflections_gt = 2032
  REM Parameters = 181
  REM Hole = -0.1194
  REM Peak = 0.1481
  REM Flack = 0.3(11)

  
;
_cod_data_source_file            um5050sup1.cif
_cod_data_source_block           HMTX19
_cod_original_sg_symbol_Hall     ' P 2yb'
_cod_database_code               2108883
_shelx_shelxl_version_number     2017/1
_olex2_refinement_description
;
1. Rigid body (RIGU) restrains
 H5, H3, H6, C4, N2, C5, N3, C6
 with sigma for 1-2 distances of 0.004 and sigma for 1-3 distances of 0.004
 H1A, H1B, H1C, N1
 with sigma for 1-2 distances of 0.004 and sigma for 1-3 distances of 0.004
 H3A, C3, H3B, C2, H2
 with sigma for 1-2 distances of 0.004 and sigma for 1-3 distances of 0.004
;
_olex2_submission_special_instructions 'No special instructions were received'
loop_
_space_group_symop_id
_space_group_symop_operation_xyz
1 x,y,z
2 -x,y+1/2,-z
loop_
_atom_site_label
_atom_site_type_symbol
_atom_site_fract_x
_atom_site_fract_y
_atom_site_fract_z
_atom_site_U_iso_or_equiv
_atom_site_adp_type
_atom_site_occupancy
_atom_site_refinement_flags_posn
_atom_site_refinement_flags_adp
O2 O 0.31462(8) 0.45104(7) 1.01449(4) 0.01453(10) Uani 1.000000 . .
O1 O 0.73996(8) 0.44614(8) 1.09888(4) 0.01520(11) Uani 1.000000 . .
N1 N 0.87419(11) 0.63417(8) 0.87357(6) 0.01094(12) Uani 1.000000 . U
H1A H 0.9415(19) 0.6410(15) 0.7770(10) 0.027(3) Uani 1.000000 . U
H1B H 1.0108(19) 0.5709(14) 0.9431(9) 0.023(2) Uani 1.000000 . U
H1C H 0.8448(18) 0.7607(15) 0.9100(10) 0.022(2) Uani 1.000000 . U
N3 N 0.72092(10) 0.44401(10) 0.38769(5) 0.01304(12) Uani 1.000000 . U
H3 H 0.6849(15) 0.4344(15) 0.2827(8) 0.021(2) Uani 1.000000 . U
N2 N 0.92139(11) 0.51550(8) 0.60132(5) 0.01285(13) Uani 1.000000 . U
C1 C 0.55305(12) 0.47409(9) 1.00405(6) 0.00975(14) Uani 1.000000 . .
C4 C 0.69926(12) 0.41379(9) 0.61629(6) 0.01066(15) Uani 1.000000 . U
C6 C 0.57349(13) 0.36888(10) 0.48424(6) 0.01262(14) Uani 1.000000 . U
H6 H 0.3984(17) 0.2938(14) 0.4523(8) 0.032(3) Uani 1.000000 . U
C2 C 0.61967(12) 0.53500(10) 0.85723(6) 0.00947(13) Uani 1.000000 . U
H2 H 0.4685(14) 0.6303(12) 0.8112(7) 0.019(2) Uani 1.000000 . U
C5 C 0.92565(13) 0.53046(10) 0.46240(6) 0.01370(14) Uani 1.000000 . U
H5 H 1.0726(17) 0.6058(13) 0.4133(8) 0.035(3) Uani 1.000000 . U
C3 C 0.63061(14) 0.36558(10) 0.76089(6) 0.01275(14) Uani 1.000000 . U
H3A H 0.7714(17) 0.2688(12) 0.8157(9) 0.027(2) Uani 1.000000 . U
H3B H 0.4403(17) 0.3002(13) 0.7510(9) 0.030(2) Uani 1.000000 . U
loop_
_atom_site_aniso_label
_atom_site_aniso_U_11
_atom_site_aniso_U_22
_atom_site_aniso_U_33
_atom_site_aniso_U_12
_atom_site_aniso_U_13
_atom_site_aniso_U_23
O2 0.0113(2) 0.0168(3) 0.01614(19) 0.0001(2) 0.00433(16) 0.0054(2)
O1 0.0128(2) 0.0240(3) 0.00897(17) -0.0002(2) 0.00203(16) 0.0036(2)
N1 0.0123(3) 0.0110(4) 0.0096(2) -0.0018(3) 0.0015(2) -0.0007(2)
H1A 0.037(6) 0.025(6) 0.021(3) 0.010(4) 0.0118(19) 0.007(2)
H1B 0.017(5) 0.021(6) 0.028(4) -0.002(3) -0.007(2) 0.008(2)
H1C 0.025(6) 0.014(4) 0.026(5) 0.000(2) 0.005(3) -0.004(2)
N3 0.0166(3) 0.0145(3) 0.0082(2) 0.0005(3) 0.00208(18) -0.0005(2)
H3 0.026(5) 0.028(6) 0.009(3) -0.002(4) 0.0024(16) 0.0003(17)
N2 0.0140(3) 0.0145(3) 0.0101(2) -0.0036(2) 0.00176(19) -0.0010(2)
C1 0.0108(3) 0.0097(4) 0.0091(2) 0.0004(3) 0.0030(2) 0.0003(2)
C4 0.0139(3) 0.0101(4) 0.0083(2) -0.0012(3) 0.0028(2) -0.0002(2)
C6 0.0144(3) 0.0135(4) 0.0099(3) -0.0014(3) 0.0012(2) -0.0015(2)
H6 0.026(4) 0.043(6) 0.027(5) -0.017(3) -0.002(2) -0.004(3)
C2 0.0102(3) 0.0108(4) 0.0077(2) 0.0000(3) 0.0022(2) 0.0008(2)
H2 0.019(4) 0.008(4) 0.028(5) 0.005(2) -0.005(3) 0.007(3)
C5 0.0155(3) 0.0155(4) 0.0108(3) -0.0008(3) 0.0043(2) 0.0010(3)
H5 0.038(5) 0.043(7) 0.028(5) -0.016(3) 0.014(2) 0.005(3)
C3 0.0186(4) 0.0103(4) 0.0099(3) -0.0034(3) 0.0038(2) -0.0003(2)
H3A 0.042(5) 0.019(5) 0.019(5) 0.008(2) -0.002(3) -0.002(3)
H3B 0.027(4) 0.031(5) 0.032(5) -0.014(2) 0.007(2) -0.003(3)
loop_
_atom_type_symbol
_atom_type_scat_dispersion_real
_atom_type_scat_dispersion_imag
_atom_type_scat_source
_atom_type_scat_dispersion_source
H 0.00000 0.00000 'NoSpherA2: Chem.Sci. 2021, DOI:10.1039/D0SC05526C' custom
C 0.00210 0.00160 'NoSpherA2: Chem.Sci. 2021, DOI:10.1039/D0SC05526C' custom
O 0.00790 0.00610 'NoSpherA2: Chem.Sci. 2021, DOI:10.1039/D0SC05526C' custom
N 0.00410 0.00330 'NoSpherA2: Chem.Sci. 2021, DOI:10.1039/D0SC05526C' custom
loop_
_diffrn_refln_index_h
_diffrn_refln_index_k
_diffrn_refln_index_l
_diffrn_refln_intensity_net
_diffrn_refln_intensity_u
1 0 0 458.85 11.7
1 0 0 476.65 12.4
-1 0 0 458.55 11.5
-1 0 0 456.65 12.2
-2 0 0 252.37 8.5
2 0 0 233.68 7.8
2 0 0 242.48 8.9
2 0 0 235.98 6.9
2 0 0 240.28 6.1
-2 0 0 233.38 6.1
-2 0 0 238.68 6.1
3 0 0 484.35 15.4
-3 0 0 482.35 12.1
3 0 0 495.85 13.5
-3 0 0 486.35 12.1
3 0 0 498.15 12.2
-3 0 0 495.05 15.5
3 0 0 485.15 16.5
0 -1 0 -0.1 0.1
0 -1 0 0 0.3
0 1 0 -0.3 0.4
0 1 0 0.2 0.2
-1 -1 0 5106.19 119.39
1 -1 0 5376.16 124.79
1 -1 0 5155.08 121.49
-1 -1 0 5114.69 124.19
-1 1 0 5232.68 121.39
-1 1 0 5156.08 121.49
1 1 0 5108.19 127.29
-1 1 0 5108.69 120.99
1 1 0 5171.28 119.29
2 -1 0 580.14 16.1
-2 -1 0 578.44 14.3
-2 -1 0 558.74 14.4
2 -1 0 593.24 15.4
2 -1 0 583.94 18.6
-2 1 0 581.74 14
-2 1 0 572.84 18.1
2 1 0 576.24 15.1
2 1 0 538.75 16.1
-2 1 0 574.94 14.1
-3 -1 0 382.46 11.1
3 -1 0 387.06 10.1
-3 -1 0 394.56 9.4
-3 -1 0 393.46 9.5
3 -1 0 393.96 12
3 -1 0 384.46 15.7
3 -1 0 405.26 13.3
-3 1 0 395.96 10.3
3 1 0 377.76 12.6
3 1 0 391.36 13.9
3 1 0 387.56 10.2
-3 1 0 398.86 14.9
3 1 0 392.26 10.5
4 -1 0 20.3 4.2
4 -1 0 18.5 2.4
-4 1 0 19.5 1.5
0 -2 0 8966.2 271.27
0 -2 0 8901.21 219.98
0 -2 0 9999 224.58
0 2 0 9760.72 221.48
0 2 0 9254.47 220.98
0 2 0 9877.81 264.57
1 -2 0 2136.79 49.99
1 -2 0 1936.41 53.39
-1 -2 0 2059.79 51.49
1 -2 0 2087.19 49.7
-1 -2 0 2036.7 48.6
1 2 0 2136.39 50.89
1 2 0 2061.99 48.5
-1 2 0 2106.69 49.3
-1 2 0 2135.59 53.69
2 -2 0 784.22 20.7
2 -2 0 769.02 21.3
-2 -2 0 770.02 18.5
2 -2 0 781.72 25.2
-2 -2 0 759.32 20.4
-2 2 0 759.82 19
-2 2 0 778.72 24.6
2 2 0 750.62 18.8
2 2 0 762.12 20.5
3 -2 0 675.93 20.3
3 -2 0 658.13 19.1
3 -2 0 623.04 23.7
-3 2 0 654.03 16.8
-3 2 0 670.23 23.2
4 -2 0 103.79 7.2
4 -2 0 99.29 4.2
-4 2 0 99.59 4.2
0 -3 0 0.3 0.3
0 -3 0 0.4 1.4
0 -3 0 1 2
0 3 0 0.9 0.7
0 3 0 0.4 1.6
0 3 0 -0.4 0.6
-1 -3 0 256.07 11.3
1 -3 0 261.67 7.1
1 -3 0 280.17 9.5
1 -3 0 279.47 13.1
-1 -3 0 264.77 8.4
-1 -3 0 265.87 6.7
-1 -3 0 286.47 8.7
-1 3 0 268.57 7.8
1 3 0 272.27 6.9
1 3 0 261.37 8.2
-1 3 0 264.27 12.5
1 3 0 259.37 7.4
1 3 0 277.67 10.9
-1 3 0 273.77 9.7
2 -3 0 327.17 11.3
-2 -3 0 309.17 9.6
2 -3 0 323.77 15.5
-2 -3 0 303.47 12.2
-2 -3 0 322.67 7.8
-2 -3 0 326.57 9.2
-2 3 0 329.87 15
2 3 0 329.47 11.4
-2 3 0 325.27 11.9
2 3 0 320.97 8.9
-2 3 0 322.07 9.3
2 3 0 320.57 8.1
2 3 0 320.97 8.5
3 -3 0 235.48 9.9
-3 3 0 209.78 7.1
4 -3 0 21 5
4 -3 0 28.6 2.7
-4 3 0 25 2.5
5 -3 0 222.68 8
5 -3 0 212.38 12.3
-5 3 0 221.58 7.9
0 -4 0 529.15 21.1
0 -4 0 537.95 16.3
0 -4 0 541.65 13.5
0 4 0 555.94 14.4
0 4 0 566.84 16.6
0 4 0 543.25 13.9
0 4 0 538.85 20.3
-1 -4 0 160.98 4.5
-1 -4 0 138.89 9.5
1 -4 0 164.58 7.6
-1 -4 0 172.38 7.1
1 -4 0 137.29 10.6
1 -4 0 156.88 4.9
1 4 0 158.28 4.8
-1 4 0 164.68 5.7
1 4 0 156.98 6.5
1 4 0 158.28 5.3
1 4 0 175.78 9.6
-1 4 0 160.98 7.7
-1 4 0 156.78 10.7
-2 -4 0 714.33 16.6
-2 -4 0 681.93 19.3
2 -4 0 721.13 21.5
-2 4 0 720.73 18.5
2 4 0 709.73 16.8
2 4 0 659.03 17.8
3 -4 0 59.79 6.3
-3 4 0 55.69 3.4
4 -4 0 171.68 10.7
-4 4 0 158.48 6.4
5 -4 0 101.19 10.1
5 -4 0 114.29 5.6
-5 4 0 113.59 5.5
0 -5 0 6.8 3.3
-1 -5 0 33.7 1.8
-1 -5 0 37.1 4.4
-1 -5 0 26.4 6.2
1 -5 0 26.3 4.1
1 5 0 35 2.6
-1 5 0 33.7 2.8
1 5 0 42.5 6.4
1 5 0 35.7 2
1 5 0 34.2 3.6
2 -5 0 140.69 8.6
-2 5 0 142.79 5.8
3 -5 0 295.57 13.3
-3 5 0 305.17 10
4 -5 0 6.8 4.7
-4 5 0 16.2 2.6
5 -5 0 51.19 9.1
5 -5 0 54.69 4.7
-5 5 0 53.89 4.2
0 6 0 91.99 4.5
0 6 0 77.39 3.8
1 -6 0 11.6 3.6
-1 -6 0 16.1 3.3
-1 -6 0 10.5 1.3
1 6 0 12.2 1.6
-1 6 0 9.7 2
1 6 0 10.9 1.9
-1 6 0 12.5 1.9
2 -6 0 355.06 15.2
-2 6 0 375.76 11.8
-2 6 0 373.46 11.5
3 -6 0 54.79 7.6
-3 6 0 47.5 4.1
4 -6 0 159.68 12.4
-4 6 0 174.28 7.6
-4 6 0 165.58 7.5
5 -6 0 85.39 10.6
5 -6 0 101.29 6
-5 6 0 101.29 5.9
-5 6 0 105.39 6.1
-1 -7 0 40.6 6
1 -7 0 43.6 6.4
1 7 0 34.9 3.5
1 7 0 32.7 2.9
-1 7 0 38.9 3.8
-1 7 0 32.9 3.4
2 -7 0 18.8 5
-2 7 0 18 2.9
-2 7 0 17.6 2.9
3 -7 0 314.77 16.4
-3 7 0 359.06 12.2
-3 7 0 350.36 11.9
4 -7 0 45.6 8.5
-4 7 0 68.29 5.2
-4 7 0 56.69 4.8
5 -7 0 24.2 3.7
5 -7 0 28.4 8.1
-5 7 0 28.4 3.9
-5 7 0 26.2 3.9
0 8 0 17.1 2.6
0 8 0 17.1 2.8
1 -8 0 57.29 7.6
-1 8 0 77.89 4.7
-1 8 0 68.99 4.8
2 -8 0 142.29 10.6
-2 8 0 158.08 7.4
-2 8 0 139.69 6.8
3 -8 0 38.8 7.2
-3 8 0 31.7 3.7
-3 8 0 39.5 4.3
4 -8 0 132.59 12.5
-4 8 0 126.19 7.1
-4 8 0 116.49 6.8
0 -9 0 3.4 3.2
0 9 0 -2.7 2.1
0 9 0 1.2 1.9
1 -9 0 39.3 7.5
-1 9 0 37.2 4.5
-1 9 0 27.8 3.6
2 -9 0 60.89 9
-2 9 0 68.19 5.4
-2 9 0 64.39 5
3 -9 0 30.6 7.5
-3 9 0 43.7 5.1
-3 9 0 33.7 4.3
1 -10 0 105.09 12.2
-1 10 0 91.79 6.5
-1 10 0 96.29 6.1
-3 0 1 459.55 11.3
-3 0 1 461.05 14.7
3 0 -1 455.45 15.9
3 0 -1 459.95 11.2
-3 0 1 460.05 12.9
3 0 -1 460.05 12.8
3 0 -1 453.45 13.4
2 0 -1 344.47 11.7
-2 0 1 340.17 10.9
-2 0 1 342.37 9.4
-1 0 1 28.1 1.3
-1 0 1 30.1 2.2
1 0 -1 30.3 1.4
1 0 -1 32 2.3
0 0 1 30.4 1.4
-1 0 -1 1502.05 36.6
1 0 1 1480.05 36.8
1 0 1 1542.25 37.8
-1 0 -1 1525.25 37
2 0 1 271.97 7.9
-2 0 -1 272.17 7.2
-2 0 -1 273.27 7
2 0 1 262.57 9.9
-2 0 -1 285.87 9.1
2 0 1 272.27 10.2
-2 0 -1 271.87 9.4
2 0 1 279.67 7.3
3 0 1 512.95 18.2
-3 0 -1 539.35 13.3
3 0 1 543.15 14.8
-3 0 -1 528.85 15.7
3 0 1 535.65 13.8
3 0 1 529.45 18
-3 0 -1 549.45 17
-3 0 -1 546.15 13.4
4 -1 -1 31.5 4.5
4 -1 -1 29.5 2.3
-4 1 1 31.6 2
3 -1 -1 112.89 5.7
-3 -1 1 111.59 3.7
-3 -1 1 119.39 4.1
3 -1 -1 95.89 8
3 -1 -1 119.59 5.7
-3 1 1 119.79 7.5
3 1 -1 103.89 5.2
3 1 -1 106.19 5.4
-3 1 1 118.79 5.5
-3 1 1 115.29 4
2 -1 -1 295.57 9
2 -1 -1 284.97 11.9
2 -1 -1 280.27 7.2
-2 1 1 284.57 7.7
-2 1 1 301.57 11.6
-2 1 1 283.47 9
1 -1 -1 412.96 10.1
1 -1 -1 426.96 11.5
1 -1 -1 459.85 11.7
1 -1 -1 413.36 14
-1 1 1 450.35 14.1
-1 1 1 421.06 11.5
-1 1 1 409.36 10.7
-1 1 1 412.56 10.3
0 -1 -1 533.75 15.4
0 -1 -1 466.65 12.2
0 -1 1 476.55 12.6
0 -1 1 472.25 13.2
0 1 1 469.25 12.2
0 1 1 490.35 14.9
0 1 -1 490.65 13.2
0 1 -1 464.95 12.4
-1 -1 -1 1151.78 27.9
-1 -1 -1 1227.18 31.2
1 -1 1 1207.08 28.2
1 -1 1 1165.38 29.4
1 -1 1 1142.99 30.6
1 -1 1 1173.18 27.1
-1 1 -1 1150.48 29
-1 1 -1 1146.49 27.3
-1 1 -1 1145.09 27.2
1 1 1 1186.68 28.1
1 1 1 1143.39 31.2
-2 -1 -1 261.27 7.2
2 -1 1 260.17 9.7
-2 -1 -1 260.17 7.9
2 -1 1 270.27 8.2
2 -1 1 244.88 10.6
-2 -1 -1 259.77 9.1
-2 -1 -1 254.17 6.4
2 -1 1 266.77 7
-2 1 -1 260.77 7.1
-2 1 -1 264.97 7.1
2 1 1 261.67 7.4
2 1 1 263.97 7.1
2 1 1 272.97 11
-2 1 -1 272.97 9.1
-2 1 -1 265.77 10.5
2 1 1 260.57 8.7
3 -1 1 10.8 1.6
-3 -1 -1 4.7 1.3
3 -1 1 5 2.3
3 -1 1 5.9 2
-3 -1 -1 7.5 1.5
-3 -1 -1 4.9 0.6
3 -1 1 4.5 2.6
-3 -1 -1 5.9 0.9
3 1 1 7.4 3.2
3 1 1 7.2 1.4
-3 1 -1 3.8 0.9
-3 1 -1 3 1.8
-3 1 -1 5.4 1
3 1 1 9.3 1.8
3 1 1 7.4 2
4 -1 1 1152.88 28.5
4 -1 1 1139.79 30.7
-4 1 -1 1174.88 28.1
-4 1 -1 1161.18 28.1
4 -2 -1 53.49 6
-4 2 1 60.09 3.1
3 -2 -1 271.87 10.2
3 -2 -1 248.18 13.6
-3 2 1 260.37 7.8
-3 2 1 270.57 13
-3 2 1 257.67 10
2 -2 -1 461.55 11.4
2 -2 -1 458.45 13.8
2 -2 -1 430.16 17.6
-2 2 1 467.35 12.1
-2 2 1 455.15 14
-2 2 1 477.45 17.6
1 -2 -1 1966.3 46.9
-1 -2 1 1909.51 45.2
1 -2 -1 1988.4 46.8
-1 -2 1 1879.91 46.7
-1 2 1 1952.8 50.89
-1 2 1 2014.8 46.7
-1 2 1 1888.41 46.8
-1 2 1 1909.41 45.4
1 2 -1 1910.21 46.2
1 2 -1 1866.11 45
0 -2 1 190.78 5.9
0 -2 1 172.78 7.6
0 -2 -1 175.78 8.8
0 -2 -1 177.88 4.7
0 -2 -1 205.48 6.6
0 -2 -1 187.18 6.3
0 -2 1 183.58 6.3
0 2 -1 202.78 7.8
0 2 -1 183.28 4.9
0 2 -1 184.78 5
0 2 1 197.18 9
0 2 1 184.68 5
0 2 1 192.68 6.3
0 2 1 175.08 5.5
1 -2 1 1082.29 31.4
-1 -2 -1 1104.59 27.2
1 -2 1 1132.89 28.9
-1 -2 -1 1190.28 28
1 -2 1 1134.49 27.8
-1 -2 -1 1051.59 25.8
-1 -2 -1 1137.09 31.9
1 2 1 1102.89 26.7
1 2 1 1150.48 31.2
-1 2 -1 1076.39 26.4
-1 2 -1 1128.19 26.3
1 2 1 1086.49 25.9
-1 2 -1 1112.29 31.1
1 2 1 1108.89 27.1
-2 -2 -1 126.29 3.3
-2 -2 -1 113.49 6.9
2 -2 1 131.89 8.3
-2 -2 -1 117.29 4.8
2 -2 1 135.79 5.7
-2 -2 -1 130.39 4.6
2 -2 1 129.39 6.5
2 2 1 129.89 4.9
2 2 1 120.09 4.3
-2 2 -1 130.79 7.8
-2 2 -1 128.69 4.2
-2 2 -1 128.59 4.3
2 2 1 123.49 7.4
2 2 1 127.09 3.7
3 -2 1 88.79 5.4
3 -2 1 84.99 3.5
3 -2 1 76.29 8.6
3 -2 1 88.79 6.1
-3 2 -1 89.89 3.7
-3 2 -1 82.39 8.3
-3 2 -1 83.49 3.5
4 -2 1 23.8 2.6
4 -2 1 23.7 4.3
-4 2 -1 24.1 2
-5 3 1 21.6 4.1
4 -3 -1 261.67 12.1
-4 3 1 271.77 8.7
3 -3 -1 3.9 2.7
-3 3 1 5.4 1.3
-2 -3 1 952 23.2
2 -3 -1 972.5 23
2 -3 -1 975.3 26.4
-2 -3 1 930.31 25.7
2 -3 -1 941.11 32.2
-2 3 1 942.71 26.6
-2 3 1 946.31 23.9
2 3 -1 949.01 24.2
-2 3 1 1000.1 31.8
2 3 -1 967.9 22.9
-1 -3 1 357.46 13
1 -3 -1 330.17 15.5
1 -3 -1 385.86 12
-1 -3 1 358.86 10.2
1 3 -1 363.26 12.3
1 3 -1 352.06 10.3
-1 3 1 359.76 11.8
-1 3 1 346.87 9.5
1 3 -1 349.17 9
-1 3 1 365.56 15.6
0 -3 -1 563.94 15.8
0 -3 1 536.05 15.5
0 -3 -1 542.55 13.1
0 -3 -1 527.75 19.9
0 -3 -1 520.45 15.4
0 -3 1 530.05 18.4
0 -3 1 546.15 15
0 3 1 544.65 13.4
0 3 1 563.24 19.8
0 3 1 543.05 14.2
0 3 1 530.85 15.3
0 3 -1 532.85 13.5
0 3 -1 519.55 17.8
1 -3 1 417.16 13.3
-1 -3 -1 407.96 9.8
-1 -3 -1 394.66 11.8
1 -3 1 394.86 16.2
-1 -3 -1 401.76 16.4
1 -3 1 372.66 12.1
-1 -3 -1 423.76 12.5
-1 3 -1 395.96 10.5
1 3 1 418.56 15.8
1 3 1 415.26 11.7
1 3 1 403.06 10.1
-1 3 -1 385.56 10.7
1 3 1 406.16 10.9
-1 3 -1 408.06 15.8
-2 -3 -1 533.45 19.5
-2 -3 -1 534.95 14.6
2 -3 1 546.05 16.2
2 -3 1 534.25 17.3
-2 -3 -1 527.55 12.6
-2 -3 -1 520.85 15.3
2 -3 1 483.85 20.5
-2 3 -1 527.85 13.8
-2 3 -1 518.35 14
2 3 1 524.35 14.4
2 3 1 521.55 13.7
2 3 1 555.14 18.8
-2 3 -1 545.85 20.5
2 3 1 533.95 12.9
3 -3 1 16.1 1.8
3 -3 1 19.6 3.7
-3 3 -1 21.8 2.2
4 -3 1 354.26 10.5
4 -3 1 348.17 14.1
-4 3 -1 347.47 10.5
5 -3 1 103.39 9.7
5 -3 1 102.29 5.9
-5 3 -1 105.79 5
5 -4 -1 129.39 11.5
-5 4 1 133.39 6.1
-5 4 1 140.39 6.1
4 -4 -1 2.2 4.4
-4 4 1 4.3 1.5
-4 4 1 2.2 1.2
3 -4 -1 21.4 4.8
-3 4 1 21.8 2.5
2 -4 -1 52.99 2.5
2 -4 -1 46.6 5.7
-2 4 1 47.5 3.1
-2 4 1 47.8 2.8
-1 -4 1 1278.57 32.2
1 -4 -1 1198.18 40.4
1 -4 -1 1303.87 34
-1 -4 1 1231.88 36.9
1 -4 -1 1284.37 30.1
1 4 -1 1297.77 35.7
1 4 -1 1276.47 30.2
-1 4 1 1276.57 34
-1 4 1 1289.37 40
1 4 -1 1268.27 30
-1 4 1 1197.68 31.4
-1 4 1 1300.87 30.8
1 4 -1 1254.67 32.2
0 -4 -1 373.86 12.3
0 -4 -1 360.26 9.2
0 -4 -1 322.87 16.4
0 -4 -1 365.36 12.4
0 -4 1 353.26 11.6
0 -4 1 355.16 15.8
0 4 -1 358.66 12.1
0 4 1 350.66 11.9
0 4 1 347.77 10.5
0 4 -1 350.06 9.7
0 4 -1 345.97 14.8
0 4 1 364.96 16.3
0 4 1 352.36 9.6
1 -4 1 501.25 16.3
1 -4 1 469.15 20.4
-1 -4 -1 468.25 20.4
-1 -4 -1 494.75 15
1 -4 1 478.55 15.4
-1 -4 -1 517.85 15.8
-1 -4 -1 487.35 12.2
1 4 1 477.45 14.5
-1 4 -1 500.45 20
1 4 1 489.45 13.5
-1 4 -1 511.45 13.4
1 4 1 505.65 19.6
1 4 1 496.55 12.5
-2 -4 -1 17.3 3.1
2 -4 1 19.7 3.7
-2 -4 -1 24.5 3
-2 -4 -1 23.3 1.3
-2 -4 -1 18.9 4.5
2 4 1 20.5 2.7
2 4 1 26.8 1.6
-2 4 -1 20.9 2.4
2 4 1 21.9 2.3
2 4 1 22.8 4.7
3 -4 1 22 4.2
-3 4 -1 21.3 2.4
4 -4 1 27.4 3
4 -4 1 23.1 5.3
-4 4 -1 24 2.7
5 -4 1 12.4 6
5 -4 1 8.6 2.7
-5 4 -1 8.4 1.9
5 -5 -1 132.59 12.2
-5 5 1 124.39 6.3
-5 5 1 124.29 6.3
4 -5 -1 116.29 10.3
-4 5 1 110.09 5.7
-4 5 1 104.09 5.5
3 -5 -1 398.26 16.2
-3 5 1 412.16 12.6
-3 5 1 396.76 12.1
2 -5 -1 342.57 14.1
2 -5 -1 344.77 9.7
-2 5 1 346.47 10.9
-2 5 1 352.36 10.5
1 -5 -1 90.29 3.4
1 -5 -1 82.49 6.1
-1 -5 1 78.89 9.4
-1 -5 1 92.99 5.7
-1 5 1 99.29 4.7
1 5 -1 86.89 5.1
1 5 -1 83.89 3.4
1 5 -1 87.19 7.2
1 5 -1 83.79 3.6
-1 5 1 88.79 3.9
0 -5 -1 139.99 8.2
0 -5 1 168.38 8.4
0 -5 -1 161.08 4.9
0 5 1 156.78 6.4
0 5 -1 150.18 5.6
0 5 1 158.58 5.4
-1 -5 -1 69.29 2.7
-1 -5 -1 72.99 5
-1 -5 -1 88.09 10.9
-1 -5 -1 66.79 5.5
1 -5 1 65.99 5.8
1 5 1 72.89 4.6
1 5 1 73.39 3
1 5 1 71.39 8.8
-1 5 -1 69.09 3.6
1 5 1 63.99 4
2 -5 1 521.65 18
-2 5 -1 498.95 14.4
3 -5 1 20.9 4.7
-3 5 -1 21.1 2.7
4 -5 1 104.09 10.1
4 -5 1 88.59 4.9
-4 5 -1 86.19 5
5 -5 1 35.7 8.1
5 -5 1 42.9 4.4
-5 5 -1 41.8 4.2
5 -6 -1 54.49 8.7
-5 6 1 46.2 4.7
-5 6 1 50.69 4.2
4 -6 -1 11.1 5.4
-4 6 1 14.1 2.5
-4 6 1 7.9 2.3
3 -6 -1 5.4 4.5
-3 6 1 3.6 1.9
-3 6 1 7.3 1.9
2 -6 -1 190.58 10.6
-2 6 1 192.28 7.7
-2 6 1 191.38 7.2
1 -6 -1 66.29 3.2
1 -6 -1 70.69 6.4
-1 -6 1 70.59 5.6
-1 6 1 66.79 3.6
1 6 -1 72.09 3.4
1 6 -1 69.49 3.6
-1 6 1 68.09 4.3
0 -6 1 442.66 16.3
0 -6 -1 464.15 17
0 -6 -1 458.75 12.3
0 6 -1 465.15 13.1
0 6 -1 462.25 13.3
0 6 1 493.45 14
0 6 1 472.75 13
1 -6 1 167.88 9.3
-1 -6 -1 163.08 9.1
-1 -6 -1 169.88 5.3
-1 6 -1 168.88 6.5
1 6 1 171.98 5.8
1 6 1 163.78 6.6
2 -6 1 56.39 6.7
-2 6 -1 67.49 4
3 -6 1 13.1 4.9
-3 6 -1 14.8 2.6
4 -6 1 6.1 5.1
4 -6 1 1 2
-4 6 -1 -2.3 1.3
5 -6 1 26.6 3.7
5 -6 1 25.6 7.7
-5 6 -1 24.6 3.4
5 -7 -1 81.99 11.2
-5 7 1 91.39 5.9
-5 7 1 73.79 5.3
4 -7 -1 32.4 7.3
-4 7 1 43.8 4.1
-4 7 1 44.2 4.6
3 -7 -1 194.38 12.3
-3 7 1 193.98 8.4
-3 7 1 191.08 8
2 -7 -1 2.8 3.5
-2 7 1 5.7 1.9
-2 7 1 3.7 1.9
1 -7 -1 8.7 4.2
1 -7 -1 8.1 1.8
-1 7 1 13.3 2.6
-1 7 1 14 2.3
0 -7 -1 181.18 6.2
0 -7 -1 172.08 10.2
0 -7 1 173.68 10.1
0 7 1 190.78 7.6
0 7 -1 195.88 7.2
0 7 -1 200.78 7.2
0 7 1 177.08 6.8
-1 -7 -1 68.09 3.2
1 -7 1 70.49 8
-1 -7 -1 71.19 8
1 7 1 68.29 4.7
-1 7 -1 65.09 4.3
-1 7 -1 64.19 4.4
1 7 1 64.59 3.6
2 -7 1 105.39 9
-2 7 -1 118.29 5.9
3 -7 1 11.6 4.8
-3 7 -1 12.5 2.6
4 -7 1 3.7 2.1
4 -7 1 3.5 5.4
-4 7 -1 2.3 1.9
5 -7 1 88.49 6.2
5 -7 1 69.99 10.8
-5 7 -1 94.99 6
-5 7 -1 82.99 6.1
4 -8 -1 6 5.8
-4 8 1 4.5 2.1
-4 8 1 6.2 2.2
3 -8 -1 2 4.7
-3 8 1 6.7 2.4
-3 8 1 4.2 2
2 -8 -1 -0.4 4.2
-2 8 1 6.6 2.2
-2 8 1 3.9 1.9
1 -8 -1 96.79 8.6
-1 8 1 107.99 6.1
-1 8 1 100.99 5.3
0 -8 1 100.09 8.4
0 -8 -1 90.09 8.7
0 8 1 97.79 5.1
0 8 1 92.89 5.9
0 8 -1 91.49 5.4
0 8 -1 108.79 5.4
1 -8 1 64.29 8.3
-1 8 -1 59.69 4.5
-1 8 -1 62.79 4.4
2 -8 1 9.2 5
-2 8 -1 3.2 2
-2 8 -1 3.5 2
3 -8 1 16.1 6
-3 8 -1 18.6 3.2
-3 8 -1 15.2 2.9
4 -8 1 26.6 3.6
4 -8 1 26.9 8.2
-4 8 -1 22.8 3.7
-4 8 -1 33.8 4.3
3 -9 -1 11.8 5.6
-3 9 1 19.8 3.8
-3 9 1 13.8 2.8
2 -9 -1 6.7 3.9
-2 9 1 7.3 2.2
-2 9 1 5.2 2.5
1 -9 -1 10.9 4.3
-1 9 1 5.5 2.2
-1 9 1 4.7 2.1
0 -9 -1 51.49 7.9
0 -9 1 50.59 7.9
0 9 -1 54.89 5.3
0 9 -1 64.09 5.2
0 9 1 61.49 5.7
0 9 1 53.69 4.3
1 -9 1 7.8 4.1
-1 9 -1 8.9 2.6
-1 9 -1 12 2.9
2 -9 1 28.2 6.2
-2 9 -1 25.4 3.6
-2 9 -1 28.6 4.2
3 -9 1 11.5 5.3
3 -9 1 2.5 2
-3 9 -1 2.4 2.3
-3 9 -1 -0.5 2
1 -10 -1 8.4 4.3
-1 10 1 3 2.6
-1 10 1 3.9 2.3
1 -10 1 5.3 5.1
-1 10 -1 12.1 3.3
-1 10 -1 6.1 2.9
3 0 -2 239.68 11
3 0 -2 233.38 8
-3 0 2 226.48 6.2
-3 0 2 233.78 9.4
-3 0 2 228.28 7.4
-3 0 2 220.28 6
2 0 -2 2.5 1.5
2 0 -2 1.1 0.6
-2 0 2 0.2 0.3
-2 0 2 1.2 1.4
-2 0 2 1.1 0.5
2 0 -2 0.4 0.2
-2 0 2 0.5 0.7
2 0 -2 0.7 1
1 0 -2 16.2 1.2
-1 0 2 15 2.5
1 0 -2 13 2.4
-1 0 2 16.2 1.2
0 0 2 2601.94 65.39
0 0 -2 2926.61 66.69
0 0 -2 2722.23 65.79
0 0 2 2773.82 65.19
0 0 -2 2890.01 68.69
0 0 -2 2745.13 64.79
0 0 2 2802.22 68.29
1 0 2 98.59 6.2
-1 0 -2 105.19 3.8
1 0 2 97.29 4.7
-1 0 -2 102.59 4.6
-1 0 -2 96.59 2.8
1 0 2 100.99 3.4
-1 0 -2 110.79 5.8
1 0 2 101.39 3.6
2 0 2 37 5
-2 0 -2 31.3 3.4
2 0 2 27.2 3.4
-2 0 -2 30.8 1.9
2 0 2 31.2 2.1
-2 0 -2 28.9 1.3
-2 0 -2 30.2 3.5
2 0 2 27.8 2.1
-3 0 -2 61.59 4.6
3 0 2 60.29 3.9
3 0 2 62.39 3.9
-3 0 -2 65.29 4.9
3 0 2 60.69 7.6
3 0 2 60.89 6.3
-3 0 -2 63.39 2.9
-3 0 -2 57.49 2.4
4 0 2 92.79 6
-4 0 -2 90.49 3.3
-4 0 -2 91.69 3.7
4 0 2 87.29 5.6
3 -1 -2 234.68 12.4
3 -1 -2 242.98 6.4
3 -1 -2 247.08 9.1
-3 1 2 234.08 8.5
-3 1 2 242.78 6.7
-3 1 2 251.37 11.6
-3 1 2 235.08 7
-2 -1 2 24.7 2
2 -1 -2 24.3 2.6
2 -1 -2 19.2 3.7
2 -1 -2 24.7 1.2
2 -1 -2 25.1 2.6
-2 1 2 29.1 4.2
2 1 -2 23.5 1.2
-2 1 2 21.7 1.9
-2 1 2 25.6 1.3
-2 1 2 25.4 2.1
1 -1 -2 22 1.8
1 -1 -2 18.8 0.9
1 -1 -2 17.1 3.1
-1 -1 2 20.3 1.4
-1 -1 2 26.8 2.9
1 -1 -2 22.1 2
-1 1 2 19.9 1
-1 1 2 22.9 3.7
-1 1 2 19.5 1.5
1 1 -2 25.5 2.4
-1 1 2 19.1 1.6
1 1 -2 20.1 1.2
0 -1 2 454.35 13.2
0 -1 -2 437.46 12.1
0 -1 -2 479.15 16.6
0 -1 2 457.45 14
0 -1 -2 473.55 12.9
0 -1 2 438.46 11.3
0 -1 -2 429.76 10.6
0 -1 2 450.15 11.1
0 1 -2 467.15 12.9
0 1 2 461.75 11.8
0 1 2 434.56 12
0 1 2 437.16 10.8
0 1 -2 427.76 13.1
0 1 2 452.85 16.1
0 1 -2 431.06 11.2
1 -1 2 269.37 7.1
1 -1 2 267.17 10
1 -1 2 263.97 7.7
-1 -1 -2 277.37 8.5
-1 -1 -2 255.57 6.4
-1 -1 -2 254.67 8
1 -1 2 257.37 9.9
-1 -1 -2 269.77 11.6
1 1 2 262.17 6.9
-1 1 -2 262.67 9.3
-1 1 -2 266.37 9.7
1 1 2 256.17 8.2
-1 1 -2 258.97 7.2
1 1 2 260.67 11.6
1 1 2 271.87 7.7
-1 1 -2 255.37 6.8
2 -1 2 476.05 12.2
2 -1 2 465.05 13.3
-2 -1 -2 469.45 13.5
2 -1 2 491.65 16.5
-2 -1 -2 482.15 16.2
-2 -1 -2 457.35 11.3
2 -1 2 468.95 16.6
-2 -1 -2 475.55 12.8
-2 1 -2 470.65 11.9
2 1 2 483.65 12.9
-2 1 -2 454.05 12.1
2 1 2 468.55 12.2
-2 1 -2 480.35 16.1
2 1 2 447.86 14.4
-2 1 -2 464.95 14.9
2 1 2 461.75 18
-3 -1 -2 73.39 2.4
3 -1 2 70.09 7.4
-3 -1 -2 73.99 3.3
-3 -1 -2 70.79 5
3 -1 2 79.49 6.6
-3 -1 -2 70.89 4.2
3 -1 2 74.89 3.9
3 -1 2 77.89 4.8
-3 1 -2 72.79 3.1
3 1 2 76.39 3.8
3 1 2 82.29 4.7
-3 1 -2 80.39 6.3
-3 1 -2 72.69 3.3
-3 1 -2 66.49 4.9
3 1 2 66.59 5.1
3 1 2 74.59 8.7
4 -1 2 276.57 9.4
4 -1 2 276.57 10.8
-4 1 -2 280.27 8.2
-4 1 -2 282.27 8.4
4 -2 -2 1.9 3.4
-4 2 2 8.6 1.4
-4 2 2 9.1 1.6
3 -2 -2 64.29 8.5
3 -2 -2 61.19 2.6
3 -2 -2 66.69 5.8
-3 2 2 64.59 3
-3 2 2 64.49 4.4
-3 2 2 62.79 7.6
-3 2 2 64.19 3.3
2 -2 -2 318.37 8.2
2 -2 -2 337.87 15.3
2 -2 -2 304.17 10.6
2 -2 -2 323.87 10.9
-2 2 2 306.37 10.6
-2 2 2 306.77 9.3
-2 2 2 317.27 8.6
-2 2 2 340.37 14.7
1 -2 -2 942.41 30.4
-1 -2 2 972.6 24.8
-1 -2 2 946.41 25.1
1 -2 -2 955.3 22.6
1 -2 -2 975.4 25.2
-1 2 2 943.91 23.9
-1 2 2 1007.3 30.6
1 2 -2 965.5 24.5
-1 2 2 946.11 25
-1 2 2 983 23
1 2 -2 961.6 23.7
0 -2 2 1897.91 44.9
0 -2 2 1886.61 48
0 -2 2 1888.11 46.8
0 -2 -2 1900.91 45.8
0 -2 2 1849.42 45.9
0 -2 -2 1929.51 52.09
0 -2 -2 1884.11 45.8
0 2 -2 1873.01 47.4
0 2 2 1972 51.59
0 2 -2 1940.01 45.6
0 2 2 1912.01 44.9
0 2 -2 1766.82 45.3
0 2 -2 1913.41 46.1
0 2 2 1944.51 46.4
0 2 2 1850.31 45.6
-1 -2 -2 10.7 3.4
-1 -2 -2 15.6 1.9
-1 -2 -2 14.9 2.5
-1 -2 -2 17.2 0.8
1 -2 2 13 2.8
1 -2 2 15.6 1.2
1 -2 2 15.7 2
1 -2 2 13.9 2.4
-1 2 -2 17.3 2.4
-1 2 -2 17.9 1.3
1 2 2 16.4 1
-1 2 -2 14.8 1.2
1 2 2 20 2.1
1 2 2 17.8 4
1 2 2 18.2 1.9
-1 2 -2 23.1 3.5
2 -2 2 218.18 7.9
-2 -2 -2 196.88 10.8
-2 -2 -2 210.28 5.4
2 -2 2 209.28 9.7
-2 -2 -2 206.28 7.5
2 -2 2 206.18 10.8
2 -2 2 219.08 6.3
-2 -2 -2 219.88 7.3
2 2 2 209.88 6
-2 2 -2 212.08 6.3
2 2 2 213.78 7
2 2 2 201.88 7.7
-2 2 -2 226.38 10.7
2 2 2 198.58 11.2
-2 2 -2 211.48 6.3
-2 2 -2 217.88 8.8
-3 -2 -2 9.7 0.8
-3 -2 -2 6.4 1.4
3 -2 2 4.8 2.3
3 -2 2 10 1.6
3 2 2 11.7 1.6
-3 2 -2 8.1 1.3
-3 2 -2 8.6 1.4
3 2 2 10.3 2.7
4 -2 2 44.9 3.8
4 -2 2 48.3 5.4
-4 2 -2 55.39 3.1
-4 2 -2 48.2 2.8
4 -3 -2 128.29 9.1
-4 3 2 129.69 5.3
-4 3 2 125.19 5
3 -3 -2 13.8 3.6
3 -3 -2 13.3 1.4
-3 3 2 16.5 2.1
-3 3 2 16.2 1.8
-2 -3 2 105.99 5.2
2 -3 -2 108.59 6.5
2 -3 -2 108.39 11.3
2 -3 -2 106.09 3.6
-2 -3 2 108.29 4.6
2 3 -2 107.89 3.6
-2 3 2 104.69 4.1
-2 3 2 108.09 9.2
-2 3 2 111.49 6.1
2 3 -2 106.39 4.1
-2 3 2 106.39 4.8
-1 -3 2 348.77 9.7
1 -3 -2 329.47 8.7
-1 -3 2 330.57 12.3
1 -3 -2 320.07 15.9
-1 -3 2 341.27 10.7
-1 -3 2 345.07 8.4
1 -3 -2 345.27 11.8
-1 3 2 335.67 9.1
1 3 -2 346.17 11.6
-1 3 2 348.27 16
1 3 -2 338.07 8.5
1 3 -2 330.77 8.5
-1 3 2 311.27 9.9
-1 3 2 338.77 11.4
0 -3 -2 730.73 17.9
0 -3 2 775.42 19.9
0 -3 2 771.52 18.1
0 -3 2 721.23 23.6
0 -3 2 754.62 21.2
0 -3 -2 780.92 21.5
0 -3 -2 696.93 26.2
0 -3 -2 751.32 20.7
0 3 2 770.12 26.3
0 3 -2 737.93 18.2
0 3 -2 762.32 23
0 3 -2 742.73 18.3
0 3 2 718.53 19.3
0 3 2 755.82 20.5
0 3 2 761.52 18.3
1 -3 2 104.19 7.5
1 -3 2 107.39 5.1
-1 -3 -2 99.49 8.4
-1 -3 -2 95.89 3
1 -3 2 98.99 3.5
-1 -3 -2 102.59 4.8
1 -3 2 102.09 5.9
-1 -3 -2 97.09 5.4
-1 3 -2 94.39 3.5
1 3 2 99.59 4.6
1 3 2 102.39 7.9
1 3 2 96.49 3.3
1 3 2 98.59 4.2
-1 3 -2 99.19 3.6
-1 3 -2 108.39 7.2
-2 -3 -2 65.59 7.8
-2 -3 -2 57.89 2.1
2 -3 2 57.69 4.4
-2 -3 -2 58.29 4.3
2 -3 2 64.39 3
-2 -3 -2 56.49 3.5
2 3 2 58.59 3.6
-2 3 -2 57.39 3.1
2 3 2 62.09 2.5
-2 3 -2 60.09 2.9
2 3 2 73.89 3.9
2 3 2 73.39 8.1
3 -3 2 171.08 8.4
3 -3 2 172.38 6.1
-3 3 -2 178.68 6.1
-3 3 -2 177.78 6.2
4 -3 2 86.79 4.7
4 -3 2 83.69 7.5
-4 3 -2 80.89 4
-4 3 -2 77.59 3.9
5 -3 2 139.39 7
5 -3 2 134.19 10.2
-5 3 -2 133.89 5.8
5 -4 -2 28.7 6.9
-5 4 2 32.5 3.4
-5 4 2 32.9 3.1
4 -4 -2 6.4 4.6
-4 4 2 10.3 1.9
-4 4 2 13.1 2.1
3 -4 -2 70.59 3.2
3 -4 -2 54.49 6.2
-3 4 2 65.69 3.5
-3 4 2 68.39 4.1
2 -4 -2 159.78 9
2 -4 -2 166.28 5.2
-2 4 2 168.58 5.8
-2 4 2 165.08 6.8
-1 -4 2 378.86 12.4
1 -4 -2 376.66 9.9
-1 -4 2 382.36 11.7
1 -4 -2 355.26 13.5
-1 -4 2 377.56 15.3
1 4 -2 379.16 14.1
-1 4 2 371.26 10.4
1 4 -2 361.26 9.7
1 4 -2 364.06 11.8
-1 4 2 384.36 11.7
0 -4 2 436.96 13.5
0 -4 -2 445.66 14.5
0 -4 -2 424.26 14.9
0 -4 2 434.86 14.6
0 -4 2 433.66 17.9
0 -4 -2 417.96 11
0 -4 -2 415.26 20.1
0 4 -2 437.16 11.5
0 4 2 469.65 20.3
0 4 2 429.26 12.7
0 4 -2 438.56 17
0 4 2 429.96 11.4
0 4 2 431.86 13.9
-1 -4 -2 66.69 2.5
-1 -4 -2 56.39 4.1
-1 -4 -2 67.49 9.2
1 -4 2 66.59 5
-1 -4 -2 74.29 5.6
-1 4 -2 53.79 3
1 4 2 81.69 9
1 4 2 62.09 2.7
1 4 2 64.79 4
-1 4 -2 62.79 3
1 4 2 62.99 3.8
-2 -4 -2 430.76 15
2 -4 2 452.25 12.1
-2 -4 -2 449.26 20.9
-2 -4 -2 448.16 11.1
-2 -4 -2 442.36 14
2 -4 2 456.25 15.2
-2 4 -2 455.75 12.6
2 4 2 431.46 12.9
2 4 2 453.55 11.6
-2 4 -2 461.95 12.4
2 4 2 448.66 13.8
2 4 2 442.76 19.6
3 -4 2 95.69 6.8
3 -4 2 92.89 4.2
-3 4 -2 95.49 4.4
4 -4 2 13.2 4.8
4 -4 2 7.4 2.2
-4 4 -2 9.7 2
5 -4 2 2.7 5.5
5 -4 2 7.2 2.9
-5 4 -2 5.7 1.9
5 -5 -2 21.7 7.5
-5 5 2 19.4 2.9
-5 5 2 18.5 2.9
4 -5 -2 17.4 5.7
-4 5 2 20.2 2.8
-4 5 2 16.6 2.6
3 -5 -2 15.9 4.2
3 -5 -2 19.5 2
-3 5 2 22.5 3
-3 5 2 18.8 2.3
2 -5 -2 97.79 3.9
2 -5 -2 77.39 6.8
-2 5 2 107.39 4.5
-2 5 2 102.99 5.4
-1 -5 2 230.08 9.8
1 -5 -2 235.98 11.1
-1 -5 2 261.17 13.8
-1 -5 2 243.18 9.4
1 5 -2 246.18 7.2
1 5 -2 268.47 12.4
-1 5 2 241.18 7.7
1 5 -2 253.47 9.6
0 -5 2 13.6 3
0 -5 -2 18.2 1.6
0 -5 -2 15.8 3.3
0 5 2 17.2 1.8
0 5 2 17.2 2.7
0 5 -2 19.8 2
1 -5 2 66.59 5.4
-1 -5 -2 57.99 5.3
-1 -5 -2 69.89 2.7
1 5 2 68.29 3
1 5 2 68.29 4.4
-1 5 -2 67.59 3.5
2 -5 2 9.6 2.9
-2 -5 -2 11.8 3.3
-2 -5 -2 15.4 1.3
-2 5 -2 15 2
2 5 2 16.2 1.7
2 5 2 16.6 2.9
3 -5 2 136.39 5.4
3 -5 2 123.09 8.3
-3 5 -2 140.59 5.9
4 -5 2 64.89 4.6
4 -5 2 63.89 8.5
-4 5 -2 58.29 4.3
5 -5 2 39.5 8.2
5 -5 2 36.8 4.3
-5 5 -2 46 4.4
5 -6 -2 5.2 6.5
-5 6 2 8.6 2.3
-5 6 2 9.7 2.4
4 -6 -2 18.5 6.5
-4 6 2 20 3
-4 6 2 15.9 2.9
3 -6 -2 65.99 8
-3 6 2 64.39 4.1
-3 6 2 72.39 5
2 -6 -2 8 3.7
2 -6 -2 7.3 1.4
-2 6 2 7.3 2
-2 6 2 4.1 1.4
1 -6 -2 78.59 3.4
1 -6 -2 79.39 6.9
-1 -6 2 74.99 5.9
1 6 -2 81.89 3.7
-1 6 2 76.49 4.8
1 6 -2 83.19 3.8
-1 6 2 77.59 3.9
0 -6 -2 50.59 6.2
0 -6 -2 51.39 2.6
0 -6 2 55.99 6
0 6 -2 48.1 3.1
0 6 2 46.5 4
0 6 2 52.79 3
-1 -6 -2 120.49 8.1
1 -6 2 119.69 8
-1 -6 -2 115.09 4.2
1 6 2 121.89 6.2
1 6 2 117.99 4.6
-1 6 -2 120.59 5.3
2 -6 2 287.07 13.2
-2 6 -2 291.37 9.7
3 -6 2 42.1 6.7
3 -6 2 41.8 3.7
-3 6 -2 44.1 4.1
4 -6 2 15.2 3
4 -6 2 6.6 5.6
-4 6 -2 19.2 3.1
5 -6 2 8.3 3
5 -6 2 8.7 6.2
-5 6 -2 12.9 2.6
5 -7 -2 83.49 12
-5 7 2 83.19 5.7
-5 7 2 67.79 5.1
4 -7 -2 52.49 9.1
-4 7 2 66.09 4.8
-4 7 2 74.69 5.5
3 -7 -2 19.3 6
-3 7 2 24.3 3.2
-3 7 2 22.4 3.4
2 -7 -2 14.2 2.1
2 -7 -2 13.4 4.4
-2 7 2 13.5 2.8
-2 7 2 12.8 2.3
1 -7 -2 46.8 2.9
1 -7 -2 53.59 7.6
-1 7 2 55.49 4.9
-1 7 2 49.5 3.5
0 -7 -2 15.3 4.7
0 -7 -2 21.1 2.1
0 -7 2 20.5 4.8
0 7 -2 23.8 2.8
0 7 2 25.6 2.7
0 7 2 31.5 3.8
-1 -7 -2 6.3 3.5
-1 -7 -2 3.9 1.1
1 -7 2 -0.2 3.1
1 7 2 3.7 1.5
-1 7 -2 0.8 1.6
1 7 2 7.2 2.5
2 -7 2 38 7
2 -7 2 25.3 2.8
-2 7 -2 36.2 3.8
3 -7 2 1.8 4.4
3 -7 2 11 2.2
-3 7 -2 9 2.3
4 -7 2 38 8
4 -7 2 39.2 4.1
-4 7 -2 31.7 3.8
5 -7 2 32.5 4.3
5 -7 2 35.5 8.8
-5 7 -2 28.8 3.8
4 -8 -2 38.8 8
-4 8 2 37.2 4.8
-4 8 2 48.5 4.2
3 -8 -2 62.39 9.4
-3 8 2 54.09 5.2
-3 8 2 51.19 4.2
2 -8 -2 53.19 8
-2 8 2 60.89 4.2
-2 8 2 56.79 5.3
1 -8 -2 43.6 3.2
1 -8 -2 46.1 7.7
-1 8 2 48.6 4.9
-1 8 2 39.8 3.5
0 -8 -2 11.3 1.8
0 -8 2 12.8 4.6
0 -8 -2 5.7 4.4
0 8 -2 19.1 2.8
0 8 -2 12.1 2.5
0 8 2 17.6 3.4
0 8 2 14.5 2.4
1 -8 2 49.4 7.5
-1 8 -2 54.69 4.5
-1 8 -2 63.19 4.4
2 -8 2 18 5.8
2 -8 2 24.8 3.1
-2 8 -2 17.2 3.2
3 -8 2 31.8 7.1
3 -8 2 33.3 3.8
-3 8 -2 43.9 4.7
4 -8 2 13.3 6.4
4 -8 2 15.2 3.2
-4 8 -2 11.2 2.7
3 -9 -2 14.9 5.6
-3 9 2 12.3 2.7
-3 9 2 13.5 3.2
2 -9 -2 9.9 4.8
-2 9 2 5.2 2.1
-2 9 2 4.9 2.3
1 -9 -2 6.4 3.9
-1 9 2 5 1.9
-1 9 2 5 2.8
0 -9 -2 7.4 4
0 9 2 11 3.4
0 9 2 8.4 2.4
1 -9 2 8.6 2.1
1 -9 2 9.5 5
-1 9 -2 12.7 3
-1 9 -2 7.7 2.7
2 -9 2 19.1 6.1
2 -9 2 22.2 2.9
-2 9 -2 19.3 3.4
-2 9 -2 20.8 3.3
3 -9 2 15.6 2.7
3 -9 2 12.9 6.3
-3 9 -2 12.8 3.3
-3 9 -2 17.9 3.3
1 -10 -2 43.6 9.5
-1 10 2 61.39 5.2
-1 10 2 72.39 6.1
1 -10 2 58.99 9
1 -10 2 60.99 4.4
-1 10 -2 55.09 5.5
-1 10 -2 55.49 5.4
-3 0 3 766.82 18.7
3 0 -3 760.02 20.5
-3 0 3 746.43 19.7
3 0 -3 741.23 24.9
-3 0 3 766.02 18.1
3 0 -3 757.92 17.8
-3 0 3 751.52 23.1
-2 0 3 0.6 0.3
-2 0 3 0.5 0.7
-2 0 3 -1.1 1.1
2 0 -3 0.8 0.7
2 0 -3 0.4 1.7
2 0 -3 0.4 1.4
-2 0 3 0.8 0.5
2 0 -3 1.3 0.4
1 0 -3 304.07 12.8
-1 0 3 287.37 7.5
-1 0 3 294.87 8.8
-1 0 3 307.87 12.8
-1 0 3 305.57 8.4
1 0 -3 279.77 7.1
1 0 -3 298.67 9.4
1 0 -3 296.37 8.7
0 0 3 27.4 2.2
0 0 -3 25.5 1
0 0 3 26.2 4.3
0 0 3 29.6 2
0 0 -3 25.3 1.9
0 0 -3 24.1 3.8
0 0 3 24.7 1.3
1 0 3 1.6 1
-1 0 -3 0.9 0.4
-1 0 -3 1.2 1.6
-1 0 -3 0.7 0.8
1 0 3 0.5 0.9
1 0 3 -2.5 1.8
-1 0 -3 -0.6 0.8
1 0 3 0.7 0.6
-2 0 -3 677.03 17.7
-2 0 -3 684.13 20.2
2 0 3 684.73 17.8
2 0 3 679.33 17.9
2 0 3 656.33 24.5
-2 0 -3 685.93 21.6
-2 0 -3 665.93 16.4
2 0 3 685.53 21.4
3 0 3 22 4.2
-3 0 -3 28.8 2.2
3 0 3 41.5 3.5
-3 0 -3 23.5 1.5
3 0 3 29.1 3.2
-3 0 -3 17.5 3.2
3 0 3 16.2 5.6
-3 0 -3 18 3.4
4 0 3 73.59 5.7
-4 0 -3 63.79 3.4
-4 0 -3 65.89 2.8
4 0 3 74.99 6
3 -1 -3 2.4 0.7
3 -1 -3 0.9 2.6
3 -1 -3 -2.5 2.8
-3 1 3 4 1.2
-3 1 3 3.4 1.3
-3 1 3 2.8 2.3
-3 1 3 1.6 0.6
2 -1 -3 194.48 7.2
-2 -1 3 196.38 8.5
2 -1 -3 198.98 7.8
-2 -1 3 194.48 6.1
2 -1 -3 189.48 5.2
2 -1 -3 189.98 11.1
-2 1 3 195.68 10.6
-2 1 3 188.08 7
-2 1 3 195.18 5.5
2 1 -3 205.98 8.9
-2 1 3 194.08 6.4
2 1 -3 198.58 5.9
1 -1 -3 1085.29 27.8
-1 -1 3 1070.99 25.9
-1 -1 3 1131.99 26.6
1 -1 -3 1159.28 34.5
-1 -1 3 1062.59 31.2
1 -1 -3 1068.19 25.5
-1 -1 3 1100.29 27.8
1 -1 -3 1187.18 29
1 1 -3 1123.19 27.1
-1 1 3 1067.59 27.6
1 1 -3 1106.99 30.1
-1 1 3 1061.69 27
1 1 -3 1065.09 25.3
1 1 -3 1100.49 26.7
-1 1 3 1113.59 25.9
-1 1 3 1058.89 33.3
0 -1 3 1014.5 29.5
0 -1 -3 1036.9 26.4
0 -1 3 1010.7 24.1
0 -1 3 998.5 24.2
0 -1 -3 981 25.2
0 -1 3 960.3 26.5
0 -1 -3 996.4 31.5
0 -1 -3 948.51 23.1
0 1 -3 949.6 23.2
0 1 3 965.3 31.1
0 1 -3 998.3 26.1
0 1 3 1010.8 23.6
0 1 3 985.6 25.3
0 1 -3 1001.3 24.4
0 1 3 1023 24.8
0 1 -3 1000.9 27.8
-1 -1 -3 57.59 7.1
1 -1 3 55.89 2.7
1 -1 3 52.69 2.8
-1 -1 -3 54.49 1.8
-1 -1 -3 53.49 3.2
1 -1 3 51.59 5.8
-1 -1 -3 58.89 3.7
1 1 3 51.79 6.8
-1 1 -3 55.19 4.3
-1 1 -3 60.39 4.2
1 1 3 54.29 2.3
1 1 3 58.19 3.3
1 1 3 51.89 3.4
-1 1 -3 50.99 2.1
-1 1 -3 54.39 2.6
2 -1 3 507.55 14.5
-2 -1 -3 506.95 12.3
-2 -1 -3 511.75 14.4
-2 -1 -3 513.45 15.2
2 -1 3 504.15 18.2
2 -1 3 475.05 19
-2 -1 -3 499.85 18.7
2 -1 3 520.55 13.7
-2 1 -3 509.65 13.5
2 1 3 506.55 14.3
2 1 3 493.55 20.7
2 1 3 511.45 13.5
-2 1 -3 480.55 12.8
-2 1 -3 518.85 16.9
-2 1 -3 524.35 17.4
2 1 3 506.95 16.3
-3 -1 -3 133.99 4
-3 -1 -3 130.29 8
3 -1 3 145.99 6.7
-3 -1 -3 142.39 5.4
3 -1 3 131.49 5.8
-3 -1 -3 141.29 6.7
3 1 3 132.19 6.5
3 1 3 130.29 8.1
3 1 3 141.59 5.7
-3 1 -3 136.59 5.1
3 1 3 122.79 12.3
-3 1 -3 130.09 4.6
4 -1 3 211.08 9.6
4 -1 3 222.78 8.9
-4 1 -3 223.18 7.2
-4 1 -3 210.08 6.7
4 -2 -3 48.3 6.3
-4 2 3 46.1 3.1
-4 2 3 51.49 2.7
3 -2 -3 191.18 9.7
3 -2 -3 188.98 13.2
3 -2 -3 204.98 5.8
-3 2 3 197.38 6.2
-3 2 3 201.08 8.4
-3 2 3 200.48 7.1
-3 2 3 221.08 12.7
2 -2 -3 110.09 8.9
-2 -2 3 95.39 5.6
2 -2 -3 109.69 5.6
2 -2 -3 100.59 3.3
2 -2 -3 102.59 5.9
-2 -2 3 105.49 4.4
2 2 -3 105.49 3.5
-2 2 3 110.49 5.3
-2 2 3 105.59 3.6
2 2 -3 102.09 3.9
-2 2 3 99.79 8.3
-2 2 3 100.79 4.5
-1 -2 3 476.85 14.9
1 -2 -3 500.35 14.7
-1 -2 3 489.05 12.7
1 -2 -3 490.25 12
-1 -2 3 503.65 12.5
1 -2 -3 471.35 20.1
-1 -2 3 508.15 16.5
1 2 -3 501.25 14.3
1 2 -3 494.25 14.2
-1 2 3 500.05 12.4
-1 2 3 490.45 13.6
-1 2 3 526.05 20.4
1 2 -3 472.65 11.7
1 2 -3 482.65 12.2
-1 2 3 483.65 14.4
0 -2 3 784.52 20.2
0 -2 3 778.52 23.6
0 -2 -3 775.12 28.1
0 -2 -3 804.52 21.4
0 -2 -3 820.22 22.5
0 -2 3 808.32 19.4
0 -2 3 768.32 23.3
0 -2 -3 774.12 18.7
0 2 -3 769.52 19
0 2 3 800.82 19.2
0 2 3 802.42 27.6
0 2 -3 825.32 22.8
0 2 -3 803.52 22.1
0 2 3 788.82 20.5
0 2 -3 793.72 19.4
0 2 3 781.12 21.2
1 -2 3 516.05 18.4
-1 -2 -3 534.45 15.2
1 -2 3 530.45 14.9
1 -2 3 527.95 13.6
-1 -2 -3 512.15 12.7
-1 -2 -3 537.95 16.4
1 -2 3 553.34 18.4
-1 -2 -3 535.55 21.6
-1 2 -3 537.05 13.8
1 2 3 514.45 15.2
-1 2 -3 527.05 17.8
1 2 3 538.05 13.3
-1 2 -3 527.35 13.4
1 2 3 532.65 14.6
1 2 3 493.75 20.9
-1 2 -3 534.75 16.8
-2 -2 -3 81.79 2.6
2 -2 3 79.69 4.7
-2 -2 -3 81.69 4.4
2 -2 3 86.19 3.8
2 -2 3 76.19 6.7
-2 -2 -3 78.69 5.3
-2 -2 -3 85.99 9.3
2 2 3 82.39 4.8
-2 2 -3 72.99 5.4
2 2 3 85.09 5.1
-2 2 -3 73.79 3.3
2 2 3 80.79 3.4
-2 2 -3 84.59 3.7
-2 2 -3 81.29 6.7
2 2 3 84.99 9.9
3 -2 3 121.69 5.2
3 -2 3 109.29 6.4
-3 -2 -3 115.29 3.5
-3 -2 -3 117.29 8.4
-3 -2 -3 119.89 5.3
-3 -2 -3 85.59 10.3
3 2 3 106.79 6.1
-3 2 -3 118.79 4.6
3 2 3 119.79 4.9
-3 2 -3 108.69 4.4
3 2 3 104.79 15.4
4 -2 3 18.2 4.2
4 -2 3 20.5 3.3
-4 2 -3 18.8 2.2
-4 2 -3 18.1 2.1
5 -2 3 63.49 5.8
5 -2 3 69.29 7.6
-5 2 -3 66.19 3.7
-5 2 -3 67.19 4
4 -3 -3 10.4 4.9
4 -3 -3 13.4 1.7
-4 3 3 7.9 1.7
-4 3 3 11.1 1.6
3 -3 -3 45.8 5.8
3 -3 -3 50.39 2.5
-3 3 3 53.69 3.7
-3 3 3 53.69 2.8
2 -3 -3 73.89 10.4
2 -3 -3 83.59 6.3
-2 -3 3 71.39 5.2
-2 -3 3 86.09 4.8
2 -3 -3 86.59 3.1
-2 3 3 87.39 5.3
-2 3 3 68.79 8.9
-2 3 3 76.39 4.6
-2 3 3 86.99 3.6
2 3 -3 87.29 3.8
-1 -3 3 31.8 3.9
1 -3 -3 21.8 3.3
-1 -3 3 34.2 4.2
-1 -3 3 28.5 2.1
1 -3 -3 29.5 1.6
1 -3 -3 25.8 5.6
1 -3 -3 28.6 3.4
-1 -3 3 29.8 1.6
1 3 -3 30.3 3.4
-1 3 3 30.2 2.9
-1 3 3 42 6.9
1 3 -3 27.1 2.7
-1 3 3 25.5 1.7
-1 3 3 27.4 3.2
1 3 -3 26.6 1.5
1 3 -3 28.4 1.4
0 -3 -3 401.46 19.7
0 -3 3 428.96 16.2
0 -3 -3 443.56 14.8
0 -3 -3 423.96 13.7
0 -3 -3 418.96 10.7
0 -3 3 425.46 15
0 -3 3 443.96 11.2
0 -3 3 444.66 12.7
0 3 3 431.66 19.3
0 3 -3 439.46 13.9
0 3 -3 420.16 15.3
0 3 3 429.56 12.6
0 3 3 423.06 13.4
0 3 -3 434.76 11.2
0 3 3 432.36 11.2
0 3 -3 415.76 11
-1 -3 -3 66.89 2.4
-1 -3 -3 68.09 4.2
-1 -3 -3 77.69 9.8
-1 -3 -3 66.09 5.2
1 -3 3 71.59 5.8
1 -3 3 63.69 7
1 -3 3 71.19 4.1
-1 3 -3 67.29 4.9
-1 3 -3 65.49 5.8
-1 3 -3 63.69 2.8
1 3 3 66.99 2.8
1 3 3 63.29 4.1
1 3 3 64.89 3.8
1 3 3 81.29 9.7
-1 3 -3 70.29 3.1
2 -3 3 403.76 13.5
-2 -3 -3 401.36 13
-2 -3 -3 378.86 18.9
2 -3 3 410.46 11.4
-2 -3 -3 404.86 10.2
-2 -3 -3 402.66 14.1
2 3 3 419.66 12.4
-2 3 -3 419.66 11.4
2 3 3 410.36 11
2 3 3 406.16 19.4
-2 3 -3 415.86 11.4
2 3 3 403.76 13.2
3 -3 3 94.09 4.6
3 -3 3 96.39 6.4
-3 3 -3 99.29 4.3
-3 3 -3 90.89 4.2
4 -3 3 198.28 10.9
4 -3 3 207.08 8.2
-4 3 -3 208.88 7.5
-4 3 -3 207.78 7.3
5 -3 3 70.49 8.3
5 -3 3 67.79 5.9
-5 3 -3 84.09 4.4
-5 3 -3 80.99 4.4
5 -4 -3 101.29 10.5
-5 4 3 114.09 5.2
-5 4 3 103.89 5.5
4 -4 -3 7.6 4.8
-4 4 3 4.1 1.6
-4 4 3 5.1 1.7
3 -4 -3 225.78 11.5
3 -4 -3 237.78 7
-3 4 3 237.88 7.7
-3 4 3 209.68 8.4
2 -4 -3 14.4 1.5
2 -4 -3 15.9 3.8
-2 4 3 12.8 2.6
-2 4 3 12.9 1.6
-1 -4 3 421.46 12.6
1 -4 -3 403.06 10.8
-1 -4 3 430.36 16.5
-1 -4 3 415.66 14.5
-1 -4 3 419.26 10.8
1 4 -3 421.46 10.8
1 4 -3 406.16 10.7
-1 4 3 415.76 11.4
1 4 -3 417.46 15
-1 4 3 411.06 12.9
0 -4 -3 718.23 17.8
0 -4 3 726.13 18.1
0 -4 -3 734.13 22.9
0 -4 3 740.63 22.9
0 -4 3 735.03 20.5
0 -4 -3 796.32 25.3
0 -4 3 678.63 25.1
0 4 -3 731.33 18.2
0 4 3 790.72 35.2
0 4 -3 730.33 24.1
0 4 3 692.23 19.8
0 4 -3 710.73 18.2
0 4 3 736.33 18.3
0 4 3 724.63 23.1
-1 -4 -3 38.8 1.9
-1 -4 -3 38.6 5.2
-1 -4 -3 47.7 8.5
1 -4 3 34.5 2.2
-1 -4 -3 43 3.7
1 -4 3 39.7 4.2
1 4 3 33.4 6.8
1 4 3 47.1 3.7
1 4 3 37.9 3.2
1 4 3 38.5 2.2
-1 4 -3 34.9 2.4
-1 4 -3 40.2 2.5
2 -4 3 158.38 8.1
-2 -4 -3 170.88 5
-2 -4 -3 180.78 7.8
-2 -4 -3 168.98 8.8
2 -4 3 170.78 6.1
-2 -4 -3 162.48 12.9
-2 4 -3 176.48 6.2
2 4 3 175.08 7.6
2 4 3 184.48 12.8
2 4 3 174.68 5.6
-2 4 -3 174.18 6.2
2 4 3 186.08 7.4
3 -4 3 154.58 8.7
3 -4 3 162.88 6.3
-3 4 -3 160.78 6.2
-3 4 -3 160.88 6.1
4 -4 3 6.5 4.5
4 -4 3 6.9 2.7
-4 4 -3 6.2 1.6
-4 4 -3 10 2.1
5 -4 3 -0.5 3.3
5 -4 3 9 5.9
-5 4 -3 3.7 1.8
5 -5 -3 25.9 8.1
-5 5 3 12.7 2.6
-5 5 3 15.1 2.4
4 -5 -3 30.2 7.2
-4 5 3 28.7 3.9
-4 5 3 32.4 3.1
3 -5 -3 127.19 9.5
3 -5 -3 152.08 5.4
-3 5 3 159.98 7
-3 5 3 149.69 6
2 -5 -3 297.47 13.5
2 -5 -3 299.47 8.7
-2 5 3 310.87 9.5
1 -5 -3 0.8 0.8
-1 -5 3 1.5 2.5
-1 -5 3 1.7 0.8
-1 -5 3 3.9 2.1
-1 -5 3 4.6 2
1 -5 -3 0.2 2.2
-1 5 3 1.5 1
-1 5 3 1.1 1.9
1 5 -3 2.2 0.8
1 5 -3 1.8 2
0 -5 -3 46.7 5.6
0 -5 3 41.6 4
0 -5 -3 43 2.2
0 -5 3 38.3 2.3
0 5 -3 38.7 2.5
0 5 3 37.5 2.4
0 5 3 32.3 3.6
1 -5 3 2.9 2.1
1 -5 3 1.4 0.8
-1 -5 -3 1 0.7
-1 -5 -3 2.2 2.5
-1 5 -3 2.1 1
1 5 3 1.2 0.9
1 5 3 2.2 1.8
-1 5 -3 2.1 1
-2 -5 -3 17.2 4.3
-2 -5 -3 15.5 1.3
2 -5 3 11.8 1.8
2 -5 3 10.4 3.3
2 5 3 12.2 1.6
2 5 3 18.2 3
-2 5 -3 16.7 2.1
-2 5 -3 11.9 1.8
3 -5 3 62.29 4.1
3 -5 3 70.79 7.4
-3 5 -3 72.39 4.1
4 -5 3 253.87 13.6
4 -5 3 248.38 9.5
-4 5 -3 255.87 9.2
5 -5 3 72.69 6.3
5 -5 3 75.89 10.1
-5 5 -3 83.69 5.2
5 -6 -3 51.19 9.4
-5 6 3 54.49 5.4
-5 6 3 62.39 4.4
4 -6 -3 14.7 6.4
-4 6 3 14.1 2.3
-4 6 3 17.3 3.2
3 -6 -3 280.37 8.9
3 -6 -3 247.38 14.2
-3 6 3 275.37 9.6
-3 6 3 287.87 10.6
2 -6 -3 84.79 7.8
2 -6 -3 92.69 4
-2 6 3 90.19 4.4
-2 6 3 85.19 5.4
1 -6 -3 221.58 7
1 -6 -3 196.48 11.2
-1 -6 3 236.88 6.9
-1 -6 3 205.58 9.5
-1 6 3 221.88 7.5
1 6 -3 219.78 7
-1 6 3 217.58 9
0 -6 3 258.97 11.3
0 -6 -3 253.87 7.6
0 -6 3 254.97 7.9
0 -6 -3 240.78 12.3
0 6 3 260.07 8.2
0 6 -3 253.57 8.2
0 6 3 258.27 9.9
-1 -6 -3 89.89 7.6
1 -6 3 90.99 4.1
1 -6 3 83.49 6.5
-1 -6 -3 89.69 3.6
-1 6 -3 83.29 4.3
1 6 3 109.69 6
1 6 3 94.39 4.1
2 -6 3 2.4 2.5
2 -6 3 -0.2 1.3
-2 6 -3 2.5 1.3
3 -6 3 32.5 3.4
3 -6 3 27.2 5.2
-3 6 -3 30.5 3.6
4 -6 3 1.3 2.3
4 -6 3 1.9 5.3
-4 6 -3 2.9 1.8
5 -6 3 43.2 9.2
5 -6 3 42.4 5.2
-5 6 -3 54.49 4.5
5 -7 -3 26.3 8.4
-5 7 3 32 4.4
-5 7 3 31.5 3.8
4 -7 -3 12.4 6.1
-4 7 3 9.6 2.3
-4 7 3 6.3 2.4
3 -7 -3 165.38 12.4
3 -7 -3 160.88 6.4
-3 7 3 152.08 6.9
-3 7 3 160.68 8
2 -7 -3 99.89 4.5
2 -7 -3 86.09 9.8
-2 7 3 92.09 4.9
-2 7 3 103.79 6.5
1 -7 -3 95.39 4.3
1 -7 -3 93.69 9.9
-1 7 3 94.19 6.2
-1 7 3 103.29 4.9
0 -7 -3 66.99 8.1
0 -7 3 53.19 6.5
0 -7 -3 65.29 3.3
0 -7 3 66.09 3.7
0 7 -3 68.99 4.1
0 7 3 73.69 5.8
0 7 3 70.69 3.8
1 -7 3 15.4 2.2
-1 -7 -3 17.2 2
-1 -7 -3 15.4 5.2
1 -7 3 16 4.8
-1 7 -3 20.8 2.7
1 7 3 15 2.3
1 7 3 11.3 3.4
2 -7 3 13.4 4.7
2 -7 3 14.5 2.3
-2 7 -3 16.5 2.7
3 -7 3 44.3 7.5
3 -7 3 40 3.9
-3 7 -3 52.99 4.4
4 -7 3 63.09 9.7
4 -7 3 89.09 5.9
-4 7 -3 91.59 5.5
4 -8 -3 54.99 10.2
-4 8 3 48.3 4.3
-4 8 3 61.59 6.2
3 -8 -3 19 6.8
-3 8 3 26.1 3.4
-3 8 3 27.1 4.3
2 -8 -3 117.89 10.8
2 -8 -3 131.29 5.7
-2 8 3 126.49 7.4
-2 8 3 133.19 6.4
1 -8 -3 113.69 5
1 -8 -3 123.29 12.7
-1 8 3 122.29 7
-1 8 3 110.49 5.7
0 -8 -3 125.79 10.5
0 -8 3 121.49 9.4
0 -8 3 126.39 5.4
0 -8 -3 121.29 5.1
0 8 3 118.09 7.3
0 8 3 125.69 5.8
0 8 -3 136.29 6.2
1 -8 3 21.3 2.6
1 -8 3 20.5 5.4
-1 8 -3 16.8 2.8
2 -8 3 13.5 5.4
2 -8 3 24.9 3.1
-2 8 -3 25.3 3.4
3 -8 3 0.4 1.6
3 -8 3 -0.1 4.1
-3 8 -3 -0.8 1.7
4 -8 3 3 2.5
4 -8 3 2.1 5.4
-4 8 -3 7.3 2.3
3 -9 -3 81.39 11.3
-3 9 3 71.39 5.1
-3 9 3 76.49 6.1
2 -9 -3 2.1 4.7
-2 9 3 7.4 3.3
-2 9 3 10.7 2.5
1 -9 -3 5.6 1.8
1 -9 -3 7 4.5
-1 9 3 11.9 3.3
-1 9 3 3.8 1.9
0 -9 -3 137.99 11.8
0 -9 -3 150.68 6
0 9 3 146.29 6.8
0 9 3 149.59 8.3
1 -9 3 30.7 3.4
1 -9 3 32.3 7
-1 9 -3 23.3 3.7
-1 9 -3 30 3.8
2 -9 3 53.09 4.3
2 -9 3 47.2 8.3
-2 9 -3 47.1 4.8
3 -9 3 9.7 6
3 -9 3 10.9 2.7
-3 9 -3 9.1 2.8
1 -10 -3 60.79 9.3
-1 10 3 42 4.5
-1 10 3 43.4 5.8
3 0 -4 5.2 0.9
3 0 -4 11.9 4.9
-3 0 4 5 1.4
-3 0 4 7.2 1.3
-3 0 4 4.4 2.9
-3 0 4 6.5 0.9
3 0 -4 4.2 1.5
3 0 -4 7.5 2.8
-2 0 4 609.94 14.8
2 0 -4 586.94 14.3
-2 0 4 605.64 16.6
2 0 -4 624.24 16.7
2 0 -4 584.04 17.4
2 0 -4 630.04 22.7
-2 0 4 581.34 15.8
-2 0 4 618.84 21.9
1 0 -4 1347.27 31.8
1 0 -4 1393.06 41
-1 0 4 1350.16 41
1 0 -4 1360.86 34.1
-1 0 4 1417.26 33.8
1 0 -4 1379.26 35.1
-1 0 4 1380.96 34.6
-1 0 4 1373.76 32.4
0 0 4 231.68 6.8
0 0 4 234.08 12.8
0 0 -4 224.98 8.4
0 0 4 236.68 7.8
0 0 -4 248.28 8.4
0 0 4 233.38 8.8
0 0 -4 234.38 12.5
0 0 -4 227.88 6
-1 0 -4 336.07 11.3
1 0 4 322.97 12.1
-1 0 -4 330.37 10.5
1 0 4 323.67 10.1
1 0 4 335.37 9.5
-1 0 -4 320.47 8.3
1 0 4 300.27 15.8
-1 0 -4 324.97 14.7
-2 0 -4 369.56 12.9
2 0 4 353.86 11.3
2 0 4 356.06 10.8
-2 0 -4 340.47 9.1
2 0 4 336.37 14
2 0 4 340.77 18
-2 0 -4 368.36 11.1
-2 0 -4 339.17 14.7
3 0 4 2.2 1.7
-3 0 -4 2 0.6
-3 0 -4 3.4 1.3
3 0 4 5 2.8
4 0 4 5.7 3.8
-4 0 -4 12.1 1.9
4 0 4 11.8 3.8
-4 0 -4 11.9 1.4
3 -1 -4 801.82 30.4
3 -1 -4 811.92 19.9
3 -1 -4 853.41 23.2
3 -1 -4 845.02 24.3
-3 1 4 868.21 28.9
-3 1 4 835.42 22.8
-3 1 4 815.12 21.4
-3 1 4 823.32 20.3
2 -1 -4 89.19 5.5
2 -1 -4 85.49 2.8
2 -1 -4 86.39 4.7
-2 -1 4 87.89 3.6
2 -1 -4 117.39 11.6
-2 -1 4 82.09 6.5
-2 -1 4 91.09 3
-2 -1 4 81.69 4.1
2 1 -4 91.99 3.9
2 1 -4 86.29 2.5
2 1 -4 83.29 4.5
-2 1 4 90.89 3.1
2 1 -4 82.59 6.7
-2 1 4 86.39 4.5
-2 1 4 92.59 7.9
-2 1 4 84.09 4
1 -1 -4 2119.69 51.79
-1 -1 4 2134.19 53.49
-1 -1 4 2131.59 53.69
-1 -1 4 2198.28 58.99
1 -1 -4 2176.08 54.29
-1 -1 4 2242.38 51.79
1 -1 -4 2219.08 52.99
1 -1 -4 2204.18 61.69
-1 1 4 2170.48 52.09
-1 1 4 2175.28 52.99
-1 1 4 2143.79 60.69
1 1 -4 2058.99 50.99
1 1 -4 2190.78 52.39
1 1 -4 2245.58 52.09
-1 1 4 2187.88 53.59
1 1 -4 2252.97 57.19
0 -1 -4 230.48 8
0 -1 4 219.78 12
0 -1 -4 230.88 13.1
0 -1 4 223.18 7.2
0 -1 4 213.18 9
0 -1 -4 213.08 5.7
0 -1 -4 225.18 8.9
0 1 4 221.38 12.9
0 1 -4 223.28 8.4
0 1 4 213.28 8
0 1 4 219.18 6.3
0 1 -4 218.88 7.3
0 1 4 214.88 7.6
0 1 -4 216.78 10.4
0 1 -4 220.18 5.8
1 -1 4 898.81 26.5
-1 -1 -4 856.21 30.6
1 -1 4 880.01 22.4
-1 -1 -4 883.41 23.8
1 -1 4 871.11 22.4
-1 -1 -4 835.82 24
-1 -1 -4 862.31 20.7
1 -1 4 827.32 29.3
1 1 4 886.11 23.1
1 1 4 836.32 30.9
-1 1 -4 917.61 25.5
1 1 4 872.21 21.6
-1 1 -4 857.71 20.9
-1 1 -4 884.61 22.4
1 1 4 896.61 24.7
-1 1 -4 873.51 26.8
-2 -1 -4 112.79 5.9
2 -1 4 108.59 5.3
-2 -1 -4 117.29 5.9
2 -1 4 133.59 10.1
-2 -1 -4 97.89 8.4
2 -1 4 123.89 5.6
2 -1 4 116.09 12.4
-2 -1 -4 106.99 3.5
2 1 4 105.69 6.6
2 1 4 117.59 5.8
2 1 4 103.79 4.6
-2 1 -4 110.09 4.8
-2 1 -4 116.89 4
2 1 4 121.09 12.5
-2 1 -4 97.89 10.5
-2 1 -4 120.19 8.2
-3 -1 -4 248.78 8.7
3 -1 4 242.48 9.7
3 -1 4 254.27 9.3
-3 -1 -4 240.38 6.8
-3 1 -4 246.28 7.3
3 1 4 257.47 8.9
-3 1 -4 249.58 8.3
3 1 4 241.18 9.9
4 -1 4 328.37 12.2
4 -1 4 339.67 13.1
-4 1 -4 346.67 9.7
-4 1 -4 344.77 10.6
4 -2 -4 303.57 13.9
4 -2 -4 319.67 8.8
-4 2 4 320.97 10
-4 2 4 311.47 9.1
3 -2 -4 29.2 1.8
3 -2 -4 30.6 4.6
3 -2 -4 27.7 7.2
3 -2 -4 27 4.8
-3 2 4 35.3 6.7
-3 2 4 33.1 2
-3 2 4 33.3 3.9
-3 2 4 32.5 3.2
-2 -2 4 308.27 8.5
2 -2 -4 313.67 12.4
2 -2 -4 306.07 11.1
-2 -2 4 306.57 8.9
2 -2 -4 299.27 8.1
-2 -2 4 309.97 13.5
2 -2 -4 305.57 17.4
-2 -2 4 304.77 10.5
-2 2 4 305.97 10
2 2 -4 302.47 7.5
2 2 -4 320.47 10.7
-2 2 4 310.17 8.6
-2 2 4 317.57 11
-2 2 4 310.17 16.4
2 2 -4 310.07 9.1
2 2 -4 310.87 8.4
-1 -2 4 151.58 5.4
1 -2 -4 152.08 11.5
1 -2 -4 158.68 7.8
-1 -2 4 148.99 9.3
1 -2 -4 158.28 6.8
-1 -2 4 154.98 5.2
1 -2 -4 148.99 4.4
-1 -2 4 156.78 7.4
1 2 -4 150.48 4.2
1 2 -4 148.39 6.3
-1 2 4 141.69 5.9
-1 2 4 163.28 11.1
1 2 -4 155.48 5.1
1 2 -4 161.28 7.4
-1 2 4 152.18 6.6
-1 2 4 153.48 4.8
0 -2 4 520.95 14
0 -2 4 535.75 19.8
0 -2 -4 514.35 12.8
0 -2 4 533.95 14.5
0 -2 4 523.35 17.8
0 -2 -4 496.35 22.8
0 -2 -4 515.65 17.1
0 2 4 528.95 15
0 2 4 548.05 22.8
0 2 4 527.75 13.4
0 2 -4 544.15 17.4
0 2 4 537.25 15.8
0 2 -4 499.85 16.6
0 2 -4 526.65 13.9
0 2 -4 517.55 13
1 -2 4 30.8 2.6
-1 -2 -4 24.6 3.6
1 -2 4 33.8 4.8
1 -2 4 41.8 6
-1 -2 -4 33.2 1.5
1 -2 4 32.7 2.4
-1 -2 -4 33.7 6.5
-1 -2 -4 36.7 3.2
-1 2 -4 30.2 1.7
1 2 4 38.4 6.9
-1 2 -4 36 2.4
1 2 4 33.8 2
-1 2 -4 30 4
-1 2 -4 31.1 4.2
1 2 4 27.1 2.8
1 2 4 28.9 3.2
-2 -2 -4 271.37 10
-2 -2 -4 264.57 7.1
-2 -2 -4 281.77 10.8
-2 -2 -4 262.77 15.4
2 -2 4 270.67 9.9
2 -2 4 264.97 8.8
2 2 4 280.27 11.1
2 2 4 252.17 9.5
2 2 4 253.17 16.1
2 2 4 262.27 8.2
-2 2 -4 264.37 7.9
-2 2 -4 278.87 8.6
-3 -2 -4 66.19 4.4
3 -2 4 64.19 5.3
-3 -2 -4 65.79 2.5
3 -2 4 59.09 4.4
3 2 4 62.49 4.1
-3 2 -4 65.39 3.6
-3 2 -4 61.49 3.2
3 2 4 63.09 5.6
4 -2 4 191.88 10
4 -2 4 177.18 8.6
-4 2 -4 187.98 6.6
-4 2 -4 187.08 6.9
5 -2 4 24.9 5
5 -2 4 30.7 6.3
-5 2 -4 27.3 3
-5 2 -4 31.4 2.6
4 -3 -4 205.98 12.2
4 -3 -4 219.28 7
-4 3 4 233.38 8.3
-4 3 4 220.98 7.3
3 -3 -4 728.63 18.2
3 -3 -4 739.73 23.9
-3 3 4 726.03 20.4
-3 3 4 729.33 18.8
2 -3 -4 204.38 6
2 -3 -4 204.58 10.4
-2 3 4 203.08 8.1
-2 3 4 197.88 6.4
-1 -3 4 607.24 20.8
1 -3 -4 558.34 14.4
1 -3 -4 588.94 19.5
-1 -3 4 565.84 19.3
1 -3 -4 616.64 23
-1 -3 4 586.34 16
-1 -3 4 595.94 15.2
-1 3 4 601.14 30.5
1 3 -4 551.24 14.2
1 3 -4 570.44 14.7
-1 3 4 575.94 16.7
1 3 -4 591.24 17.5
-1 3 4 576.64 15
1 3 -4 603.94 18
0 -3 -4 81.89 2.9
0 -3 4 83.19 3.7
0 -3 -4 80.19 11.5
0 -3 4 78.09 4.5
0 -3 -4 87.09 5.3
0 -3 4 74.89 6.6
0 -3 4 83.49 6.9
0 3 -4 90.09 3.7
0 3 4 74.29 4.4
0 3 4 86.59 3.4
0 3 -4 77.59 3.2
0 3 4 72.69 9.7
0 3 -4 91.19 6.4
0 3 4 82.89 4.9
0 3 -4 89.69 5.7
-1 -3 -4 371.86 20.2
-1 -3 -4 360.76 9.4
-1 -3 -4 353.66 14.6
1 -3 4 360.06 12.1
1 -3 4 382.76 10.7
-1 -3 -4 380.66 12.7
1 3 4 365.26 12.5
-1 3 -4 375.06 10.3
-1 3 -4 363.96 10.5
1 3 4 361.06 19
1 3 4 370.96 12
1 3 4 364.56 10.1
-2 -3 -4 284.67 11.7
-2 -3 -4 207.18 18.3
2 -3 4 289.77 10.8
2 -3 4 280.37 8.9
-2 -3 -4 279.87 7.5
-2 -3 -4 282.47 10.7
-2 3 -4 285.97 8.6
2 3 4 284.57 21.4
2 3 4 286.07 8.5
2 3 4 261.17 11.4
-2 3 -4 286.47 8.8
2 3 4 291.77 10.1
3 -3 4 267.07 9.3
-3 -3 -4 266.77 7.2
-3 -3 -4 274.17 10.4
3 -3 4 255.27 11
3 3 4 247.78 10.1
3 3 4 266.97 8.7
-3 3 -4 270.97 8.5
-3 3 -4 265.77 8.6
4 -3 4 250.87 12.3
4 -3 4 273.77 10.4
-4 3 -4 267.87 8.8
-4 3 -4 257.87 9
5 -3 4 -3.6 3.5
5 -3 4 3.1 4.8
-5 3 -4 -1.5 1.5
-5 3 -4 2.1 1.4
-5 4 4 98.89 5.7
-5 4 4 94.19 6.3
4 -4 -4 95.69 4.3
4 -4 -4 79.39 9.4
-4 4 4 86.99 5.3
-4 4 4 85.89 4.4
3 -4 -4 59.09 7.6
3 -4 -4 64.99 3.1
-3 4 4 58.69 4.5
-3 4 4 63.99 3.4
2 -4 -4 56.49 2.7
2 -4 -4 59.39 6.9
-2 4 4 56.29 3
-2 4 4 60.79 4.6
-1 -4 4 67.29 7.3
1 -4 -4 63.69 6.1
1 -4 -4 59.19 2.7
-1 -4 4 56.99 2.9
-1 -4 4 59.39 6.7
-1 -4 4 58.99 4.1
-1 4 4 63.99 4.7
1 4 -4 60.49 2.6
1 4 -4 60.19 2.8
-1 4 4 57.79 2.9
1 4 -4 62.99 5.3
0 -4 4 49.6 4.1
0 -4 -4 45.6 5.8
0 -4 4 50.49 2.8
0 -4 -4 48.6 2.3
0 4 -4 48.1 2.6
0 4 -4 47.6 2.6
0 4 4 46.4 2.5
0 4 4 41.5 4.2
-1 -4 -4 44.7 2.1
1 -4 4 46.3 2.9
-1 -4 -4 43 5.9
1 -4 4 46.9 3.9
1 4 4 49.5 4.2
-1 4 -4 47.8 2.8
-1 4 -4 44 2.7
1 4 4 44.3 2.5
2 -4 4 186.48 6.9
-2 -4 -4 191.38 5.5
-2 -4 -4 178.08 9.7
2 -4 4 185.88 8.9
2 4 4 178.78 8.2
2 4 4 191.78 6.4
-2 4 -4 189.08 6.7
-2 4 -4 201.58 6.8
3 -4 4 16.3 2.5
3 -4 4 23.8 4.5
-3 4 -4 13.1 2
-3 4 -4 18.1 2.4
4 -4 4 44.8 6.7
4 -4 4 33.1 4.1
-4 4 -4 41.5 3.4
-4 4 -4 41.5 3.5
5 -4 4 85.49 9.7
5 -4 4 88.59 7
-5 4 -4 98.59 5.3
-5 4 -4 92.89 5.3
5 -5 -4 5.9 6.8
-5 5 4 10.6 2.7
-5 5 4 11 2.2
4 -5 -4 35.5 3.1
4 -5 -4 41.7 8.2
-4 5 4 40.6 3.2
-4 5 4 45 4.6
3 -5 -4 82.29 9.2
3 -5 -4 76.59 3.7
-3 5 4 80.29 4.2
-3 5 4 79.59 5.4
2 -5 -4 10.6 1.5
2 -5 -4 13.2 4.2
-2 5 4 16.4 3.1
-2 5 4 10.4 1.6
1 -5 -4 395.26 10.7
1 -5 -4 394.36 16.3
-1 -5 4 383.86 12.9
-1 -5 4 403.76 11
1 5 -4 380.96 10.6
1 5 -4 391.06 10.7
-1 5 4 389.26 11.3
-1 5 4 386.96 13.2
0 -5 4 58.89 4.8
0 -5 4 50.99 3
0 -5 -4 37.5 5.9
0 -5 -4 55.99 2.7
0 5 4 72.59 5.2
0 5 -4 53.29 2.9
0 5 -4 54.19 3.1
0 5 4 54.29 3
-1 -5 -4 422.06 11.2
-1 -5 -4 392.86 16.7
1 -5 4 420.76 12.2
1 -5 4 409.06 14.9
-1 5 -4 436.06 12.2
-1 5 -4 426.26 12.2
1 5 4 444.96 13.9
1 5 4 425.76 11.9
-2 -5 -4 18.8 1.6
2 -5 4 17.4 2.3
-2 -5 -4 24.6 4.7
2 -5 4 17.1 3.7
-2 5 -4 15.4 2.1
-2 5 -4 18.2 2.2
2 5 4 20.5 2.2
2 5 4 23.4 3.8
3 -5 4 74.69 4.6
3 -5 4 65.49 7.4
-3 5 -4 57.49 4.1
-3 5 -4 60.99 4
4 -5 4 111.89 6.9
4 -5 4 121.39 10.4
-4 5 -4 129.19 6.1
-4 5 -4 121.19 5.9
5 -5 4 8.1 5.7
5 -5 4 10.1 3.7
-5 5 -4 5.6 1.9
5 -6 -4 18.3 7.1
-5 6 4 14.8 2.6
-5 6 4 16.8 3
4 -6 -4 19.3 7.3
4 -6 -4 27.2 3.1
-4 6 4 26.9 3.1
-4 6 4 32.1 4.3
3 -6 -4 4.8 1.5
3 -6 -4 4.2 5.1
-3 6 4 -0.3 2.5
-3 6 4 5.1 1.6
2 -6 -4 19.3 2.1
2 -6 -4 20.9 5.4
-2 6 4 20.2 2.6
-2 6 4 19.6 3.5
1 -6 -4 57.99 3.2
1 -6 -4 73.09 8.4
-1 6 4 59.99 3.5
-1 6 4 65.79 5.4
0 -6 -4 87.39 3.7
0 -6 4 86.79 6.1
0 -6 -4 77.19 7.6
0 -6 4 84.59 4
0 6 -4 84.89 4
0 6 4 92.39 6.1
0 6 4 82.69 4.1
-1 -6 -4 68.79 8.1
1 -6 4 79.59 6.3
-1 -6 -4 70.49 3.4
1 -6 4 66.49 3.8
1 6 4 73.19 5.7
-1 6 -4 73.29 3.9
1 6 4 77.99 3.8
2 -6 4 67.59 4.1
2 -6 4 49.1 6.1
-2 6 -4 67.89 4.2
3 -6 4 32.7 3.6
3 -6 4 24.5 5
-3 6 -4 33.6 3.6
4 -6 4 25 6.5
4 -6 4 21.4 3.7
-4 6 -4 21.3 3.2
5 -6 4 16.8 7.5
5 -6 4 18.6 4.4
-5 6 -4 16.2 3.1
5 -7 -4 15.1 7.6
-5 7 4 25 4.1
-5 7 4 17.5 2.9
4 -7 -4 5.5 5.7
-4 7 4 -0.7 2.4
-4 7 4 6.4 1.8
3 -7 -4 29.3 6.9
3 -7 -4 41.8 3.3
-3 7 4 40.1 3.4
-3 7 4 48.1 5.4
2 -7 -4 170.68 6.3
2 -7 -4 143.09 11.7
-2 7 4 169.88 8.6
-2 7 4 171.98 7
1 -7 -4 122.89 10.8
1 -7 -4 151.48 5.6
-1 7 4 142.49 8.2
-1 7 4 144.29 6.1
0 -7 -4 2.9 1.3
0 -7 4 7.2 1.7
0 -7 4 7.3 4
0 -7 -4 6.7 4.8
0 7 -4 1.9 1.5
0 7 4 4.3 2.9
0 7 4 4.7 1.7
-1 -7 -4 89.69 9.9
-1 -7 -4 89.99 3.9
1 -7 4 83.39 4.5
1 -7 4 92.49 8.3
1 7 4 78.59 6.6
1 7 4 80.89 4.4
-1 7 -4 76.79 4.6
2 -7 4 257.57 9.3
2 -7 4 231.98 12.7
-2 7 -4 266.17 9.5
3 -7 4 39.3 6.9
3 -7 4 27.1 3.6
-3 7 -4 37.6 3.9
4 -7 4 21 6.9
4 -7 4 33.2 4.6
-4 7 -4 44 4.5
4 -8 -4 22.5 8.1
-4 8 4 30.1 4.2
-4 8 4 26.1 3.4
3 -8 -4 4.4 5.6
3 -8 -4 10 2.2
-3 8 4 9.6 2.3
-3 8 4 15.2 3.6
2 -8 -4 13.4 5.9
2 -8 -4 17.2 2.4
-2 8 4 17 2.8
-2 8 4 14 3.9
1 -8 -4 113.99 5
1 -8 -4 104.29 10.1
-1 8 4 97.19 7
-1 8 4 114.59 5.7
0 -8 -4 155.88 12.3
0 -8 4 170.98 10.7
0 -8 -4 186.38 6.7
0 -8 4 181.68 7.2
0 8 4 177.38 7.3
0 8 -4 181.28 7.3
0 8 4 188.08 9.5
1 -8 4 140.89 6.4
-1 -8 -4 136.09 5.5
-1 -8 -4 118.39 12.4
1 -8 4 130.89 10.7
1 8 4 147.69 9.1
1 8 4 141.99 6.3
-1 8 -4 153.88 6.8
2 -8 4 12.2 2.4
2 -8 4 11.6 5.5
-2 8 -4 8.9 2.3
3 -8 4 22.7 3.5
3 -8 4 18 6.5
-3 8 -4 21.3 3.2
3 -9 -4 60.39 11
-3 9 4 80.79 7
-3 9 4 88.89 5.8
2 -9 -4 60.19 9.5
2 -9 -4 65.49 4.3
-2 9 4 69.19 4.8
-2 9 4 64.49 6.4
1 -9 -4 153.58 13.3
1 -9 -4 187.48 7.2
-1 9 4 187.88 8.1
-1 9 4 206.18 9.9
0 -9 -4 -1.8 4.2
0 -9 -4 -0.3 1.1
0 9 4 0.7 1.7
0 9 4 0 2.8
1 -9 4 85.99 5.2
1 -9 4 89.49 10.2
-1 9 -4 82.99 5.5
2 -9 4 94.79 10.9
2 -9 4 97.59 6
-2 9 -4 107.99 6.3
3 0 -5 5.3 3.4
-3 0 5 2.2 0.6
-3 0 5 1.3 1.2
3 0 -5 1.2 0.6
-2 0 5 145.49 6.3
2 0 -5 150.38 11
-2 0 5 143.69 5.9
2 0 -5 140.29 4.1
2 0 -5 157.08 6.4
-2 0 5 161.08 11
-2 0 5 141.49 4.6
2 0 -5 124.29 7.6
1 0 -5 126.39 6.6
-1 0 5 129.89 6.1
1 0 -5 131.89 3.8
1 0 -5 134.79 10.2
-1 0 5 130.29 5.6
1 0 -5 131.59 5.8
-1 0 5 141.39 10.6
-1 0 5 134.39 4.5
0 0 -5 280.27 9.9
0 0 -5 278.87 15
0 0 5 273.17 9.3
0 0 -5 284.37 10.2
0 0 5 268.77 8.1
0 0 -5 274.67 7.1
0 0 5 255.17 10.5
0 0 5 263.47 15.3
1 0 5 -0.2 1
-1 0 -5 2.3 1.5
-1 0 -5 2.2 0.6
1 0 5 1.2 1.6
-1 0 -5 6.7 3.7
-1 0 -5 4.8 2.1
1 0 5 1.1 1.6
1 0 5 2.1 3.6
-2 0 -5 44.6 2.1
2 0 5 41.9 3.2
-2 0 -5 37.3 3.5
2 0 5 44.2 4.4
-3 0 -5 405.16 10.8
3 0 5 410.56 14.1
3 0 5 406.96 13.4
-3 0 -5 411.06 12.7
4 0 5 -1 3.2
4 0 5 9 4.3
-4 0 -5 1.2 0.8
-4 0 -5 1.6 1.3
3 -1 -5 54.19 6.1
3 -1 -5 57.29 2.4
3 -1 -5 60.99 9.5
3 -1 -5 62.39 4.4
-3 1 5 62.39 8.6
-3 1 5 59.19 4
-3 1 5 62.89 4.1
-3 1 5 59.19 2.6
2 -1 -5 49.9 8.3
-2 -1 5 42.5 3.4
-2 -1 5 39.4 6.4
-2 -1 5 46.2 2.3
2 -1 -5 44.8 3.5
2 -1 -5 47.8 5.7
2 -1 -5 42.1 1.9
-2 -1 5 35.7 3
2 1 -5 38.9 6
-2 1 5 42 7.2
2 1 -5 41.1 1.7
-2 1 5 51.59 3.8
2 1 -5 47 3.1
2 1 -5 38.5 4.2
-2 1 5 47 3.5
-2 1 5 43.1 2.2
-1 -1 5 17.9 4.6
1 -1 -5 19.6 2.6
1 -1 -5 22 3.6
-1 -1 5 19.9 3
1 -1 -5 15.1 4.9
-1 -1 5 20.2 2.5
-1 -1 5 21.9 1.6
1 -1 -5 18.9 1.1
1 1 -5 18.3 4.2
-1 1 5 15.7 2.4
1 1 -5 18.7 1.1
-1 1 5 19.5 1.4
1 1 -5 20.8 2.7
1 1 -5 20.9 2.5
-1 1 5 15.3 4.4
-1 1 5 18.6 2.3
0 -1 -5 478.85 22.1
0 -1 -5 482.35 16.1
0 -1 -5 480.05 12
0 -1 5 479.75 13.4
0 -1 -5 500.85 15.1
0 -1 5 495.45 14.2
0 -1 5 486.05 16.7
0 -1 5 504.15 21.7
0 1 5 487.65 15.5
0 1 -5 474.85 14.1
0 1 5 487.15 14.5
0 1 -5 511.55 15.5
0 1 5 458.05 21.9
0 1 -5 480.45 12
0 1 5 480.55 12.8
0 1 -5 474.25 18.9
1 -1 5 45 8
-1 -1 -5 85.99 5.1
-1 -1 -5 81.69 2.9
1 -1 5 78.49 5.3
-1 -1 -5 81.29 6.3
1 -1 5 75.19 11.5
-1 1 -5 77.79 9.9
-1 1 -5 92.59 7
1 1 5 88.09 5.5
-1 1 -5 82.89 3.1
-1 1 -5 88.09 5.2
1 1 5 89.39 11.2
1 1 5 87.49 3.9
2 -1 5 19.9 3
-2 -1 -5 22.3 1.4
-2 -1 -5 17.6 2.9
2 -1 5 24.4 3
2 1 5 24.6 3.5
-2 1 -5 20.6 1.5
-2 1 -5 22.6 2.7
2 1 5 16 2.2
3 -1 5 7.6 2.8
-3 -1 -5 7.8 2
3 -1 5 8.5 2.7
-3 -1 -5 6.2 0.9
-3 1 -5 8.5 1.8
-3 1 -5 7.6 1.2
3 1 5 9 2.3
3 1 5 8.9 3.3
4 -1 5 49 6.2
4 -1 5 46.9 5.9
-4 -1 -5 47.9 2.4
-4 -1 -5 48.2 3.9
-4 1 -5 54.49 3.9
4 1 5 44.2 5.9
4 1 5 49.5 5.3
-4 1 -5 49.3 2.8
4 -2 -5 3.9 5.2
4 -2 -5 5.4 1.4
-4 2 5 6.8 1.3
-4 2 5 5.3 1.8
3 -2 -5 166.98 5.2
3 -2 -5 167.78 10.2
-3 2 5 162.78 5.6
-3 2 5 164.58 7
2 -2 -5 78.49 7
-2 -2 5 70.59 4.8
-2 -2 5 76.39 3.3
-2 -2 5 60.49 8
2 -2 -5 76.19 2.8
-2 -2 5 64.69 3.9
2 2 -5 71.69 3.9
-2 2 5 75.09 4.7
2 2 -5 77.49 6.1
-2 2 5 71.49 3.2
2 2 -5 80.89 4.1
2 2 -5 71.19 2.3
1 -2 -5 170.68 13.7
-1 -2 5 144.69 10.9
1 -2 -5 159.08 9.1
-1 -2 5 151.88 5.8
1 -2 -5 160.88 7.4
-1 -2 5 153.58 8.1
1 -2 -5 155.88 4.7
-1 -2 5 171.08 6.5
1 2 -5 149.99 4.4
-1 2 5 178.88 13.3
-1 2 5 155.58 5.2
1 2 -5 175.38 6.1
-1 2 5 153.08 6.9
1 2 -5 153.48 8.6
-1 2 5 151.58 7.1
1 2 -5 167.18 7.1
0 -2 5 447.16 13
0 -2 -5 444.16 11.2
0 -2 -5 445.36 22.9
0 -2 -5 453.55 14.7
0 -2 -5 451.95 16.4
0 -2 5 423.46 19.9
0 -2 5 435.46 16.8
0 -2 5 425.56 12.9
0 2 5 481.65 14
0 2 5 442.36 14.6
0 2 -5 436.76 15.4
0 2 -5 442.96 12.7
0 2 5 434.56 22.1
0 2 -5 442.46 11.3
0 2 -5 436.36 16.6
0 2 5 432.86 11.9
-1 -2 -5 77.39 2.8
1 -2 5 79.19 4.5
1 -2 5 87.09 4.6
-1 -2 -5 75.99 6.4
1 2 5 80.69 3.6
-1 2 -5 73.09 4.1
1 2 5 75.19 5.1
-1 2 -5 79.89 3.2
-2 -2 -5 59.79 5.3
-2 -2 -5 52.19 2.3
2 -2 5 53.99 4.3
2 -2 5 56.89 3.8
-2 2 -5 58.99 3.6
2 2 5 56.69 5.2
2 2 5 56.59 3.3
-2 2 -5 61.89 2.9
-3 -2 -5 98.39 3.5
3 -2 5 104.09 6
3 -2 5 95.39 6.7
-3 -2 -5 108.89 6.1
3 2 5 98.59 5.3
-3 2 -5 103.49 4.2
-3 2 -5 95.69 4.8
3 2 5 103.19 7.4
4 -2 5 50.19 5.8
4 -2 5 42.4 6.2
-4 2 -5 43.2 2.8
-4 2 -5 36.8 3.4
5 -2 5 34.7 6.4
5 -2 5 42.7 7
-5 2 -5 37.9 3.5
-5 2 -5 37.5 2.9
4 -3 -5 121.89 11.4
4 -3 -5 139.09 5.2
-4 3 5 138.19 6.6
-4 3 5 141.59 5.4
3 -3 -5 445.26 17.9
3 -3 -5 465.95 12.2
-3 3 5 449.95 12.7
-3 3 5 482.85 14.7
2 -3 -5 62.99 7.1
2 -3 -5 56.59 2.6
-2 3 5 56.69 4.3
-2 3 5 61.29 3
-1 -3 5 37.9 3.1
1 -3 -5 28.2 5.3
-1 -3 5 34.8 2.9
1 -3 -5 36 1.9
-1 -3 5 35.5 6.5
-1 -3 5 33.7 4.8
-1 3 5 39.6 4.2
1 3 -5 37.4 4.3
1 3 -5 33.6 3.8
1 3 -5 31.5 1.8
1 3 -5 35 2.6
-1 3 5 34.4 2.2
0 -3 5 111.39 5.1
0 -3 -5 119.59 8.8
0 -3 -5 108.19 3.7
0 -3 5 111.89 5.5
0 3 -5 114.49 4.7
0 3 5 107.29 6.1
0 3 -5 105.69 4
0 3 5 111.09 4.3
1 -3 5 22 2.5
-1 -3 -5 21.1 1.4
-1 -3 -5 25.3 4.6
1 -3 5 19.2 2.8
1 3 5 21 3
1 3 5 22 1.9
-1 3 -5 23.3 1.9
-1 3 -5 25.5 2.4
-2 -3 -5 26.9 1.6
-2 -3 -5 31.1 4.9
2 -3 5 31.5 3.3
2 -3 5 24.8 4.1
2 3 5 33.2 4.2
-2 3 -5 29.4 2.3
2 3 5 26.4 2.4
-2 3 -5 26 2.9
3 -3 5 16.4 3.1
3 -3 5 13.4 3.5
-3 -3 -5 13.4 1.3
-3 -3 -5 16.3 3.2
-3 3 -5 15.1 2
3 3 5 13.7 3.8
3 3 5 13.7 2.5
-3 3 -5 13.8 2.2
4 -3 5 12 3.6
4 -3 5 19.7 4.8
-4 3 -5 16.7 2.4
-4 3 -5 22.4 2.7
5 -3 5 0.7 5.1
5 -3 5 6.6 4.1
-5 3 -5 4.3 2
-5 3 -5 5.7 1.6
4 -4 -5 30.5 7.4
4 -4 -5 34.3 2.9
-4 4 5 27.6 2.7
-4 4 5 29.6 3.8
3 -4 -5 186.98 6.2
3 -4 -5 162.58 11
-3 4 5 187.58 8.4
-3 4 5 187.38 6.6
2 -4 -5 145.99 9.8
2 -4 -5 160.48 5.3
-2 4 5 156.18 7.6
-2 4 5 163.58 5.8
1 -4 -5 20 1.6
-1 -4 5 16.5 2.5
-1 -4 5 12.2 4.1
-1 -4 5 19.2 2.3
-1 -4 5 23.4 4.5
1 -4 -5 22.1 4.8
-1 4 5 21.1 2.1
-1 4 5 21.1 3.3
1 4 -5 22.4 1.6
1 4 -5 19.4 3.5
1 4 -5 18.3 3.2
1 4 -5 18.9 2.1
0 -4 -5 242.08 6.9
0 -4 5 248.38 9.4
0 -4 -5 209.38 11.4
0 -4 5 240.98 8
0 4 5 237.38 9.3
0 4 -5 246.68 7.6
0 4 -5 229.28 7.2
0 4 5 229.08 7.4
-1 -4 -5 149.99 9.8
1 -4 5 152.18 6.1
-1 -4 -5 153.88 4.8
1 -4 5 149.69 7.6
1 4 5 149.69 5.5
-1 4 -5 153.98 5.6
-1 4 -5 143.99 5.7
1 4 5 151.88 7.4
2 -4 5 4.6 1.8
-2 -4 -5 5.7 2.9
2 -4 5 2.9 2.1
-2 -4 -5 6.4 1
-2 4 -5 5.1 1.4
2 4 5 5.2 1.4
-2 4 -5 4.1 1.5
2 4 5 7.6 3
3 -4 5 19.7 3.4
3 -4 5 14.7 4
-3 4 -5 13.3 2.1
-3 4 -5 14.5 2.3
4 -4 5 1.2 4.2
4 -4 5 8.8 3.5
-4 4 -5 8.8 2
-4 4 -5 5.8 1.9
5 -4 5 15.7 6.2
5 -4 5 20.7 4.8
-5 4 -5 32.4 3.5
-5 4 -5 21.3 3.1
5 -5 -5 36.2 8.4
-5 5 5 53.99 5.3
-5 5 5 51.79 3.9
4 -5 -5 108.59 5
4 -5 -5 124.59 12.6
-4 5 5 108.09 5.3
-4 5 5 105.49 6.3
3 -5 -5 139.59 5.4
3 -5 -5 127.29 11.7
-3 5 5 137.69 5.8
-3 5 5 145.39 8
2 -5 -5 109.29 9
2 -5 -5 106.59 4.3
-2 5 5 104.19 4.7
-2 5 5 119.39 6.7
-1 -5 5 20.6 2.4
1 -5 -5 14.6 4.3
1 -5 -5 19.2 1.9
-1 -5 5 20.3 3.2
-1 5 5 22.2 2.1
1 5 -5 22.8 2.4
1 5 -5 20.2 1.8
-1 5 5 23.7 3.7
0 -5 -5 5.9 3.3
0 -5 5 3.6 1.5
0 -5 -5 4.5 1
0 -5 5 6.1 2.2
0 5 5 5.7 1.3
0 5 5 4.5 2.1
0 5 -5 4.7 1.2
0 5 -5 4.1 1.4
-1 -5 -5 12.4 1.4
-1 -5 -5 14.9 4.5
1 -5 5 12.7 2.9
1 -5 5 16.4 2.3
-1 5 -5 16.4 2.1
1 5 5 16.3 2
1 5 5 18.5 3.2
-1 5 -5 15.2 2
-2 -5 -5 6.9 1.2
2 -5 5 2.8 2.7
-2 -5 -5 5.8 4
2 -5 5 4.7 1.7
-2 5 -5 5.3 1.7
-2 5 -5 6 1.5
2 5 5 9.6 2.1
2 5 5 6.2 3.3
3 -5 5 42.6 6.6
3 -5 5 46.4 4.6
-3 5 -5 43.1 3.6
-3 5 -5 44.3 3.8
4 -5 5 8.7 3.4
4 -5 5 11.2 5.1
-4 5 -5 15.1 2.5
-4 5 -5 14.6 2.6
5 -5 5 38.1 7.6
5 -5 5 37.2 5.7
-5 5 -5 48.5 4
5 -6 -5 16.8 7.2
-5 6 5 23.5 3.2
-5 6 5 17.7 3.6
4 -6 -5 29.2 3.2
4 -6 -5 16.8 7.1
-4 6 5 28.6 3.4
-4 6 5 21.2 3.8
3 -6 -5 62.49 9.2
3 -6 -5 60.99 3.6
-3 6 5 62.29 3.9
-3 6 5 55.09 5.6
2 -6 -5 13.2 2
2 -6 -5 16 4.6
-2 6 5 17.9 3.8
-2 6 5 9.2 1.8
1 -6 -5 45.1 7.4
1 -6 -5 51.29 3.2
-1 6 5 46.8 3.3
-1 6 5 60.49 5.9
0 -6 -5 21.3 5.4
0 -6 5 40.9 3.7
0 -6 5 45.9 5.6
0 -6 -5 33 2.7
0 6 5 36 3
0 6 5 38.4 4.7
0 6 -5 38.8 3.3
0 6 -5 37.8 2.8
-1 -6 -5 166.98 5.8
1 -6 5 167.98 7
-1 -6 -5 160.58 11.6
1 -6 5 176.58 10
-1 6 -5 167.18 6.7
-1 6 -5 180.58 6.8
1 6 5 177.58 6.6
1 6 5 168.88 8.9
2 -6 5 94.39 5.4
2 -6 5 94.49 7.9
-2 -6 -5 100.29 4
-2 -6 -5 88.79 8.7
2 6 5 100.39 7.1
2 6 5 102.39 5
-2 6 -5 94.89 5.3
-2 6 -5 98.59 5.1
3 -6 5 0.8 3.8
3 -6 5 3.4 2.2
-3 6 -5 5.2 1.8
-3 6 -5 3.9 1.9
4 -6 5 3.1 3
4 -6 5 2.1 4.3
-4 6 -5 1.8 1.7
5 -7 -5 14.1 7.3
-5 7 5 4.7 2.6
-5 7 5 7.3 2.3
4 -7 -5 37.3 8.5
4 -7 -5 47.1 4
-4 7 5 46.3 5.4
-4 7 5 47.2 4
3 -7 -5 25.4 2.8
3 -7 -5 21 6.7
-3 7 5 20.6 2.9
-3 7 5 20.4 4.1
2 -7 -5 25.6 2.7
2 -7 -5 25.6 6.6
-2 7 5 23.5 3
-2 7 5 33.7 4.9
1 -7 -5 17.4 5.4
1 -7 -5 21.7 2.4
-1 7 5 24 4.4
-1 7 5 19.9 2.6
0 -7 -5 20.7 6
0 -7 5 22.6 2.8
0 -7 -5 23.5 2.4
0 -7 5 20.7 4.4
0 7 -5 22.9 2.8
0 7 5 27.3 4.6
0 7 5 24.2 2.9
-1 -7 -5 25.4 6.1
1 -7 5 31.5 3.6
-1 -7 -5 37.7 2.7
1 -7 5 23.1 4.8
1 7 5 34.5 3.3
-1 7 -5 33.9 3.5
1 7 5 31.4 5
2 -7 5 5.4 3.7
2 -7 5 0.7 1.7
-2 7 -5 6.2 2.1
3 -7 5 59.49 8.6
3 -7 5 59.49 5.1
-3 7 -5 64.19 4.8
4 -7 5 47.9 8
4 -7 5 44.8 5.2
-4 7 -5 55.49 4.7
4 -8 -5 16.8 7.1
-4 8 5 14.5 2.8
-4 8 5 16.2 4
3 -8 -5 6.9 2
3 -8 -5 10.3 5.3
-3 8 5 5.9 1.9
-3 8 5 7.5 3.2
2 -8 -5 0.5 1.1
2 -8 -5 1.2 4.4
-2 8 5 0.7 1.4
-2 8 5 -0.1 2.3
1 -8 -5 16.8 2.2
1 -8 -5 17.6 6.5
-1 8 5 16.4 3.9
-1 8 5 17.2 2.7
0 -8 -5 16.3 2.2
0 -8 -5 16.9 6.7
0 8 5 12.1 4.4
0 8 5 20.6 2.9
-1 -8 -5 116.59 11.1
-1 -8 -5 112.39 5.1
1 -8 5 123.19 6.5
1 -8 5 106.59 10.2
1 8 5 119.99 6
1 8 5 110.59 8.9
-1 8 -5 129.79 6.4
2 -8 5 41.4 4.5
2 -8 5 42.2 7.9
-2 8 -5 52.79 4.5
3 -8 5 18.7 3.5
3 -8 5 14.6 6.4
-3 8 -5 20.1 3.5
2 -9 -5 4.3 4.9
2 -9 -5 2.6 1.5
-2 9 5 2.4 2.9
-2 9 5 5.7 2.2
1 -9 -5 25.8 7.5
1 -9 -5 23.3 2.8
-1 9 5 21.6 3.3
-1 9 5 17.2 4.4
0 -9 -5 61.59 10.4
0 -9 -5 63.69 4
0 9 5 81.99 7.7
0 9 5 72.59 5
1 -9 5 1.6 2.1
1 -9 5 3 4.4
-1 9 -5 1.9 2.2
2 -9 5 -1.4 2
2 -9 5 -3 4.9
-2 9 -5 0.3 2.3
3 0 -6 5.6 4.3
-3 0 6 7.5 1.2
-3 0 6 9.3 1.9
3 0 -6 8.6 1.1
-2 0 6 59.09 4.5
2 0 -6 57.69 2.2
2 0 -6 60.19 4.3
-2 0 6 55.89 2.8
-2 0 6 61.69 4.2
2 0 -6 68.99 9.9
2 0 -6 51.69 5.8
-2 0 6 54.59 8.9
-1 0 6 59.19 4.5
-1 0 6 56.49 2.9
1 0 -6 56.09 2.2
1 0 -6 57.09 5.9
1 0 -6 66.59 9.8
1 0 -6 56.89 4.1
-1 0 6 55.19 8.9
-1 0 6 48.4 4.2
0 0 6 24.3 2.2
0 0 -6 20.6 1.3
1 0 6 415.46 12.3
1 0 6 386.56 13.3
-1 0 -6 414.76 10.6
-1 0 -6 405.96 13.7
-2 0 -6 129.79 6.6
2 0 6 136.39 6.4
2 0 6 126.09 7.2
-2 0 -6 137.99 4.5
-3 0 -6 8.8 1.2
3 0 6 10.2 3.5
3 0 6 7 2.7
-3 0 -6 7.9 2.1
-4 0 -6 144.89 5
4 0 6 135.59 8.7
-4 0 -6 135.09 6.5
4 0 6 124.49 9.4
3 -1 -6 139.09 10.2
3 -1 -6 189.78 5.5
-3 1 6 187.88 7.6
-3 1 6 191.48 6
-2 -1 6 87.59 4.7
2 -1 -6 79.39 2.9
-2 -1 6 84.79 10.7
-2 -1 6 79.29 5.4
-2 -1 6 77.59 3.5
2 -1 -6 91.69 7.5
2 1 -6 79.99 2.7
-2 1 6 81.59 4.8
2 1 -6 80.59 5.8
2 1 -6 72.29 8.8
2 1 -6 83.69 4.7
-2 1 6 82.79 3.4
-1 -1 6 632.94 26.8
1 -1 -6 637.74 15.6
-1 -1 6 635.44 18.1
1 -1 -6 620.34 20.8
-1 -1 6 614.74 16.8
-1 -1 6 598.84 20.2
-1 1 6 640.64 18.4
1 1 -6 636.74 24.6
1 1 -6 637.74 18.5
1 1 -6 661.63 19
1 1 -6 643.74 15.4
-1 1 6 633.24 16.5
0 -1 6 125.59 6.2
0 -1 -6 115.29 8
0 -1 -6 121.29 3.9
0 -1 6 117.49 5.2
0 1 -6 122.49 3.9
0 1 -6 130.59 6.4
0 1 6 123.89 4.8
0 1 6 117.89 6.4
1 -1 6 153.58 6.4
1 -1 6 138.79 6.8
-1 -1 -6 162.78 8.3
-1 -1 -6 147.29 4.6
-1 1 -6 148.59 6.7
1 1 6 149.09 5.8
1 1 6 140.49 7.2
-1 1 -6 152.28 4.7
-2 -1 -6 17.3 1.4
2 -1 6 19.4 3
2 -1 6 14.5 2.9
-2 -1 -6 16.6 3.2
-2 1 -6 17.9 2.8
2 1 6 24.3 3
2 1 6 12.6 3.3
-2 1 -6 15.8 1.6
-3 -1 -6 128.09 6.7
-3 -1 -6 136.39 4.6
3 -1 6 146.89 8.3
3 -1 6 137.09 7.5
3 1 6 135.69 7
-3 1 -6 141.79 6.4
3 1 6 139.39 8.4
-3 1 -6 136.59 4.9
-4 -1 -6 169.38 5.6
4 -1 6 167.28 10
4 -1 6 173.68 10.6
-4 -1 -6 174.68 7.6
-4 1 -6 177.38 6
4 1 6 176.68 9.2
4 1 6 151.98 10.4
-4 1 -6 164.08 7.2
3 -2 -6 15 1.6
3 -2 -6 18.3 5
-3 2 6 12.6 1.6
-3 2 6 10.7 2.5
-2 -2 6 208.08 7
2 -2 -6 219.98 6.2
2 -2 -6 197.48 11
-2 -2 6 205.58 7.9
-2 2 6 212.78 6.8
2 2 -6 220.58 7.7
2 2 -6 210.48 5.7
-2 2 6 219.18 8.6
-1 -2 6 203.88 7.2
-1 -2 6 198.48 10.2
1 -2 -6 202.88 5.9
-1 -2 6 197.88 14.1
-1 -2 6 189.98 7.8
1 -2 -6 196.48 10.8
1 2 -6 224.08 11.6
-1 2 6 205.58 6.6
1 2 -6 201.98 5.7
-1 2 6 200.48 8.3
1 2 -6 207.98 7.6
1 2 -6 202.68 8.7
0 -2 6 14.3 2.5
0 -2 6 10.8 2
0 -2 -6 15.6 1.2
0 -2 -6 10.8 3.3
0 2 6 18.9 3.1
0 2 6 14.8 1.8
0 2 -6 14.1 2.3
0 2 -6 14.6 1.3
1 -2 6 418.56 13.5
-1 -2 -6 402.96 15.8
1 -2 6 408.46 13.3
-1 -2 -6 425.26 10.9
-1 2 -6 420.86 11.2
-1 2 -6 425.06 12.8
1 2 6 417.76 12.1
1 2 6 422.76 14
2 -2 6 122.69 6.7
2 -2 6 123.39 6.6
-2 -2 -6 130.29 7.7
-2 -2 -6 131.89 4.3
-2 2 -6 133.59 5.9
2 2 6 128.39 5.7
2 2 6 123.29 7.5
-2 2 -6 124.39 4.6
-3 -2 -6 36.5 4.5
-3 -2 -6 34.1 2
3 -2 6 32.5 4.5
3 -2 6 36.6 5.2
-3 2 -6 36.3 3.4
3 2 6 32.8 5.2
-3 2 -6 31.6 2.4
3 2 6 34.7 3.9
4 -2 6 119.89 8.9
4 -2 6 136.09 9.3
-4 2 -6 127.09 6.1
-4 2 -6 127.09 5.2
5 -2 6 14.3 5.7
5 -2 6 18.9 5.5
-5 2 -6 15.2 2.6
-5 2 -6 16.9 2.2
4 -3 -6 53.69 3.5
4 -3 -6 50.79 8.5
-4 3 6 52.19 3.3
-4 3 6 61.09 5.4
3 -3 -6 227.48 7
3 -3 -6 224.98 13
-3 3 6 215.98 7.4
-3 3 6 236.88 9.5
2 -3 -6 163.28 5.2
2 -3 -6 162.98 10.5
-2 3 6 159.08 5.7
-2 3 6 156.78 7.6
1 -3 -6 597.54 21.9
1 -3 -6 647.54 15.9
-1 -3 6 509.35 31.6
-1 -3 6 671.13 18.1
-1 -3 6 647.64 17.9
1 3 -6 618.94 15.5
-1 3 6 621.34 18.8
1 3 -6 644.64 17
-1 3 6 631.14 16.6
0 -3 6 17.2 2.6
0 -3 -6 20.9 4.7
0 -3 -6 18.7 1.5
0 -3 6 23.2 2.9
0 3 -6 19.2 1.5
0 3 6 20.3 3.1
0 3 -6 16.2 2.2
0 3 6 20.1 1.9
-1 -3 -6 418.16 10.9
1 -3 6 429.66 13.3
1 -3 6 401.16 14
-1 -3 -6 398.76 16.6
1 3 6 405.06 14
1 3 6 418.36 12
-1 3 -6 418.86 11.3
-1 3 -6 401.06 12.3
2 -3 6 15.7 2.7
-2 -3 -6 12.4 1.3
2 -3 6 15.9 3.2
-2 -3 -6 10.9 3.5
-2 3 -6 11.9 2.2
-2 3 -6 13.1 1.6
2 3 6 11.1 3.4
2 3 6 15.1 2.3
-3 -3 -6 54.59 5.9
-3 -3 -6 51.79 2.6
3 -3 6 46.4 6
3 -3 6 54.09 5.3
3 3 6 60.39 6.3
3 3 6 59.79 4.6
-3 3 -6 54.99 3.9
-3 3 -6 60.79 3.5
4 -3 6 127.19 9.7
4 -3 6 138.79 9.2
-4 3 -6 132.29 6.3
-4 3 -6 145.49 5.8
5 -3 6 81.89 9.7
5 -3 6 77.59 8.2
-5 3 -6 88.09 5.2
-5 3 -6 75.59 4.3
4 -4 -6 12 6.4
4 -4 -6 16.6 2.3
-4 4 6 14.4 3.3
-4 4 6 17.5 2.3
3 -4 -6 64.99 8.8
3 -4 -6 95.29 4.3
-3 4 6 91.99 4.4
-3 4 6 88.29 6
2 -4 -6 153.48 10.7
2 -4 -6 190.28 6.1
-2 4 6 208.18 9
-2 4 6 187.18 6.7
-1 -4 6 34.8 3.8
1 -4 -6 31.4 5.6
-1 -4 6 32.9 3.4
1 -4 -6 33.3 2.1
-1 4 6 28.7 3.8
1 4 -6 31.3 1.9
-1 4 6 32.1 2.4
1 4 -6 43.4 3.1
0 -4 6 3.6 1.9
0 -4 -6 7.4 4
0 -4 6 9 2.1
0 -4 -6 8.8 1.2
0 4 -6 7.3 1.6
0 4 6 7.2 2.3
0 4 6 7.6 1.4
0 4 -6 7.1 1.2
-1 -4 -6 86.49 3.4
1 -4 6 85.19 5
1 -4 6 85.89 5.8
-1 -4 -6 87.59 7.8
-1 4 -6 90.39 4.5
1 4 6 85.39 5.9
1 4 6 83.89 4.1
-1 4 -6 87.99 4
-2 -4 -6 390.66 16.9
-2 -4 -6 415.16 11
2 -4 6 415.56 13.6
2 4 6 397.86 14.6
2 4 6 409.16 12.4
-2 4 -6 397.26 12
-2 4 -6 417.46 12.6
3 -4 6 15.7 4.6
3 -4 6 8.8 3.1
-3 -4 -6 11.2 5.8
-3 4 -6 10.2 2.1
-3 4 -6 16 2.6
4 -4 6 48.5 5.9
4 -4 6 54.29 7.8
-4 4 -6 44.7 3.9
-4 4 -6 50.09 3.7
5 -4 6 3 5.4
5 -4 6 0.5 4.2
-5 4 -6 3.6 1.7
-5 4 -6 0.5 1.9
5 -5 -6 70.29 4.6
5 -5 -6 71.69 11.2
-5 5 6 66.29 5.5
-5 5 6 69.19 4.5
4 -5 -6 60.29 3.9
4 -5 -6 52.19 9.6
-4 5 6 61.79 6
-4 5 6 59.99 4
3 -5 -6 51.39 3.4
3 -5 -6 37.7 8.1
-3 5 6 41.7 5.3
-3 5 6 45 3.3
2 -5 -6 120.49 10.4
2 -5 -6 142.09 5.5
-2 5 6 147.49 6
-2 5 6 155.98 8.2
-1 -5 6 60.29 4
1 -5 -6 62.89 3.1
1 -5 -6 56.69 8
-1 -5 6 58.99 4.4
1 5 -6 58.19 2.9
-1 5 6 66.09 5.3
-1 5 6 58.59 3.5
1 5 -6 61.29 3.8
0 -5 6 107.09 5.5
0 -5 -6 112.39 4.3
0 -5 6 104.29 6.4
0 -5 -6 107.09 9.1
0 5 -6 108.59 4.5
0 5 6 117.39 6.9
0 5 6 105.49 4.8
0 5 -6 105.69 4.9
-1 -5 -6 279.27 14.8
1 -5 6 289.77 12.1
-1 -5 -6 286.57 8.5
1 -5 6 281.37 10.2
1 5 6 297.07 9.5
-1 5 -6 293.67 9.3
-1 5 -6 288.67 9.6
1 5 6 283.57 11.7
2 -5 6 17.5 4.1
-2 -5 -6 5.4 5.2
-2 -5 -6 13.3 1.6
2 -5 6 15 2.9
-2 5 -6 12.5 2.2
2 5 6 13.2 2.5
2 5 6 20.6 4.4
-2 5 -6 12.6 2.3
3 -5 6 71.79 8.1
3 -5 6 70.59 5.8
-3 5 -6 72.79 4.7
-3 5 -6 79.89 4.6
4 -5 6 10.6 5.4
4 -5 6 8.5 3.7
-4 5 -6 1.5 1.9
-4 5 -6 10.4 2.4
5 -5 6 17.5 5.1
5 -5 6 11.1 6.3
-5 5 -6 17.2 2.8
-5 5 -6 21 3.2
5 -6 -6 40.9 3.9
5 -6 -6 38.8 9.7
-5 6 6 44.1 5.2
-5 6 6 47.3 4
4 -6 -6 41.2 9.4
4 -6 -6 28.6 3.2
-4 6 6 34.3 5
-4 6 6 37.1 3.8
3 -6 -6 31.4 3.1
3 -6 -6 36.1 8.1
-3 6 6 41.2 5.6
-3 6 6 36.5 3.3
2 -6 -6 22.7 2.4
2 -6 -6 21.2 5.9
-2 6 6 28.6 5
-2 6 6 23.4 2.7
1 -6 -6 56.19 3.5
1 -6 -6 58.19 8.7
-1 6 6 58.69 6.2
-1 6 6 54.29 3.8
0 -6 -6 14.4 2
0 -6 -6 22.7 5.9
0 -6 6 13.5 2.5
0 6 6 19 3.8
0 6 -6 13.1 2.1
0 6 -6 12.6 2.4
0 6 6 12.2 2.3
1 -6 6 10.6 2.4
-1 -6 -6 4.3 4.6
-1 -6 -6 11.6 1.6
1 -6 6 8 3.5
1 6 6 10.6 3.5
-1 6 -6 15.1 2.4
1 6 6 9.6 2.1
-1 6 -6 8.3 2.1
2 -6 6 82.59 7.6
-2 -6 -6 99.89 4.2
2 -6 6 92.79 6
-2 -6 -6 99.69 9.5
-2 6 -6 98.39 5.4
2 6 6 103.69 8.1
2 6 6 99.49 5.4
-2 6 -6 99.79 5.2
3 -6 6 70.69 8.8
3 -6 6 71.39 6.6
-3 6 -6 68.59 4.8
-3 6 -6 64.19 4.7
4 -6 6 -2.5 4.7
4 -6 6 5.9 3.6
-4 6 -6 5.4 2.1
-4 6 -6 5.5 1.9
4 -7 -6 16.3 2.8
4 -7 -6 20.5 8.2
-4 7 6 12.8 2.7
-4 7 6 16.5 3.8
3 -7 -6 57.59 9.8
3 -7 -6 79.89 4.5
-3 7 6 75.59 4.8
-3 7 6 69.29 7
2 -7 -6 54.59 9.4
2 -7 -6 45.5 3.5
-2 7 6 49.4 6.2
-2 7 6 46.1 3.8
1 -7 -6 35.9 2.9
1 -7 -6 29.5 7.2
-1 7 6 42.2 5.7
-1 7 6 33.3 3.2
0 -7 -6 64.69 9.6
0 -7 -6 72.19 3.9
0 -7 6 65.59 4.8
0 -7 6 66.99 7.3
0 7 -6 72.19 4.3
0 7 6 73.49 7.1
0 7 6 70.99 4.4
-1 -7 -6 54.89 9.1
1 -7 6 49.99 6.8
1 -7 6 58.19 4.7
-1 -7 -6 55.99 3.5
1 7 6 50.49 4.2
-1 7 -6 56.39 4.4
-1 7 -6 58.39 4.2
1 7 6 66.19 6.9
2 -7 6 6.1 2.7
2 -7 6 9.5 4.2
-2 7 -6 11.4 2.5
-2 7 -6 7.8 2.3
3 -7 6 3.6 4
3 -7 6 7.9 2.7
-3 7 -6 5.3 2
3 -8 -6 5.1 1.9
3 -8 -6 6.2 6
-3 8 6 3.5 2.5
-3 8 6 5.2 2
2 -8 -6 14.5 6.7
2 -8 -6 17 2.5
-2 8 6 23.9 4.6
-2 8 6 17.1 2.9
1 -8 -6 3 1.6
1 -8 -6 6.5 5.6
-1 8 6 3.6 3.9
-1 8 6 8.3 2.2
0 -8 -6 6.3 1.7
0 -8 -6 9.6 5.2
0 8 6 4.7 3.7
0 8 6 8.9 2.3
1 -8 6 8 3.5
-1 -8 -6 -0.2 4.8
1 -8 6 2.3 2.1
-1 -8 -6 3 1.3
1 8 6 2.4 1.9
-1 8 -6 4.2 2.1
1 8 6 3.3 3.8
2 -8 6 47.6 5.4
2 -8 6 38.6 6.6
-2 8 -6 44.6 4.4
2 -9 -6 8.5 6.9
2 -9 -6 0.8 1.5
-2 9 6 3.2 3.1
-2 9 6 1.2 2
1 -9 -6 35.6 3.4
1 -9 -6 41.9 8.9
-1 9 6 34.8 4.1
-1 9 6 39.8 5.8
0 -9 -6 12.3 6.1
0 -9 -6 17.1 2.4
0 9 6 18.2 3.1
0 9 6 13.9 5
1 -9 6 -5.7 5.1
1 -9 6 2.2 2.5
-1 9 -6 12.2 3.2
-3 0 7 611.84 15.9
3 0 -7 579.14 15.4
3 0 -7 526.95 21.1
-3 0 7 607.24 17.9
-2 0 7 31.7 3.7
2 0 -7 33.3 1.8
-2 0 7 35 2.4
2 0 -7 32.6 5.2
-1 0 7 -0.9 1.4
-1 0 7 -0.3 0.8
1 0 -7 -2 2.4
1 0 -7 0.6 0.5
0 0 7 99.39 4.6
0 0 -7 90.29 3.4
0 0 7 96.59 6
0 0 -7 101.29 6.6
-1 0 -7 1.3 2
1 0 7 2 1.3
1 0 7 -2.4 2
-1 0 -7 0.2 0.6
-2 0 -7 109.39 6.6
2 0 7 111.19 6
2 0 7 110.79 7
-2 0 -7 120.39 4.2
-3 0 -7 378.36 10.5
-3 0 -7 383.36 13.1
3 0 7 365.56 13.8
3 0 7 364.96 15.1
-4 0 -7 24 2.1
4 0 7 16.5 5.2
-4 0 -7 26.4 3.5
4 0 7 24.5 5
3 -1 -7 186.68 12.2
3 -1 -7 192.38 6
-3 1 7 203.28 6.6
-3 1 7 205.48 8.3
-2 -1 7 334.37 9.9
2 -1 -7 292.47 13.9
2 -1 -7 329.17 8.8
-2 -1 7 343.07 11.4
-2 1 7 328.97 11.6
2 1 -7 330.57 8.5
2 1 -7 312.07 12.1
-2 1 7 317.97 9.6
-1 -1 7 312.17 11.5
-1 -1 7 324.47 10.2
1 -1 -7 321.77 13.9
1 -1 -7 333.47 8.8
1 1 -7 327.97 11.9
-1 1 7 338.37 11.9
1 1 -7 330.97 8.7
-1 1 7 327.37 9.9
0 -1 7 179.88 8.2
0 -1 -7 180.08 10
0 -1 7 191.38 7.3
0 -1 -7 184.88 5.5
0 1 7 191.38 6.9
0 1 7 184.88 8.5
0 1 -7 185.28 5.6
0 1 -7 191.58 8.3
-1 -1 -7 75.29 6.2
-1 -1 -7 66.49 2.8
1 -1 7 65.19 4.3
1 -1 7 59.29 5.1
-1 1 -7 64.89 2.9
1 1 7 77.39 6.1
-1 1 -7 62.29 4.7
1 1 7 66.49 4
-2 -1 -7 42.6 5.3
2 -1 7 35.5 4
-2 -1 -7 38.1 2.2
2 -1 7 38.2 4.5
-2 1 -7 40.7 2.3
2 1 7 31.6 4.6
2 1 7 44.9 3.8
-2 1 -7 46.8 4.1
3 -1 7 79.29 7.5
-3 -1 -7 87.39 3.6
-3 -1 -7 88.19 6
3 -1 7 78.69 6.7
3 1 7 88.09 6.3
3 1 7 84.39 8
-3 1 -7 85.69 5.4
-3 1 -7 87.79 3.8
-4 -1 -7 29.1 2.2
4 -1 7 26.1 5.6
-4 -1 -7 22.2 3.4
4 -1 7 29.1 5.9
4 1 7 22.4 5.7
-4 1 -7 25.7 3.5
-4 1 -7 26.9 2.3
4 1 7 21.6 4.6
5 -1 7 8.9 5.5
-5 1 -7 13.6 2.9
-5 1 -7 10 1.9
3 -2 -7 127.19 11.2
3 -2 -7 148.99 5
-3 2 7 143.69 5.4
-3 2 7 151.38 7.3
2 -2 -7 140.99 10.2
-2 -2 7 146.79 5.9
2 -2 -7 142.29 4.8
-2 -2 7 146.49 6.9
2 2 -7 137.39 6.6
2 2 -7 145.49 4.4
-2 2 7 147.09 5.5
-2 2 7 144.39 7.2
-1 -2 7 46.7 3.5
1 -2 -7 45.6 6.6
1 -2 -7 43.2 2.2
-1 -2 7 47.2 4.7
1 2 -7 44.8 2.1
-1 2 7 43 4.6
-1 2 7 47.7 2.9
1 2 -7 47.6 4.2
0 -2 -7 246.78 7
0 -2 7 233.68 9.6
0 -2 7 239.88 9.1
0 -2 -7 215.58 11.8
0 2 -7 237.58 6.9
0 2 7 240.68 9.9
0 2 7 238.58 8
0 2 -7 251.67 9.1
1 -2 7 164.08 7.6
1 -2 7 181.68 8.2
-1 -2 -7 166.58 5.3
-1 -2 -7 165.38 10
1 2 7 162.08 8.2
1 2 7 169.58 6.7
-1 2 -7 177.88 7.3
-1 2 -7 171.78 5.5
-2 -2 -7 220.98 10.8
2 -2 7 212.98 9.5
2 -2 7 224.18 9.9
-2 -2 -7 215.28 6.5
-2 2 -7 222.18 8.6
2 2 7 209.98 10.2
2 2 7 215.58 8.4
-2 2 -7 218.08 6.9
3 -2 7 199.58 10.6
-3 -2 -7 206.48 10.4
3 -2 7 206.48 10.6
-3 -2 -7 215.38 6.6
-3 2 -7 218.28 7.1
3 2 7 207.58 9.2
-3 2 -7 208.58 8.6
3 2 7 218.48 11.5
4 -2 7 3.4 5.1
4 -2 7 5.1 4.4
-4 2 -7 2.4 2.2
-4 2 -7 5.1 1.5
5 -2 7 13.5 5.6
5 -2 7 20.9 6.1
-5 2 -7 15.2 2.1
-5 2 -7 16.6 3.1
4 -3 -7 126.29 5.3
4 -3 -7 128.79 12.6
-4 3 7 118.29 7.3
-4 3 7 129.49 5.3
3 -3 -7 119.09 4.8
3 -3 -7 109.19 11.6
-3 3 7 119.39 7
-3 3 7 123.69 5.2
2 -3 -7 50.59 7.4
2 -3 -7 59.29 2.9
-2 3 7 61.19 3.4
-2 3 7 66.09 5.2
-1 -3 7 510.15 15.4
-1 -3 7 494.65 15.6
1 -3 -7 490.55 13.1
1 -3 -7 466.15 19.6
-1 3 7 498.75 14
1 3 -7 507.95 14.6
-1 3 7 508.55 16.5
1 3 -7 510.85 12.8
0 -3 -7 19.1 1.6
0 -3 7 25.5 3.6
0 -3 -7 19.6 4.7
0 -3 7 16.1 2.7
0 3 -7 20.5 1.7
0 3 7 18 3.2
0 3 7 21.1 2.3
0 3 -7 23.5 2.9
-1 -3 -7 62.79 7.6
1 -3 7 62.19 4.8
1 -3 7 63.29 4.9
-1 -3 -7 60.29 2.8
-1 3 -7 63.29 3.1
1 3 7 57.59 3.6
1 3 7 59.09 5.1
-1 3 -7 59.69 4
2 -3 7 199.78 10
-2 -3 -7 197.68 6.4
2 -3 7 209.18 9.4
-2 -3 -7 201.68 11.3
-2 3 -7 214.28 8.3
2 3 7 192.68 10
2 3 7 212.58 8.2
-2 3 -7 216.38 7
3 -3 7 64.29 7
-3 -3 -7 67.09 6.5
-3 -3 -7 68.79 3.1
3 -3 7 71.19 7
3 3 7 61.49 5.2
-3 3 -7 58.59 4.4
3 3 7 58.59 6.7
-3 3 -7 67.59 3.7
4 -3 7 27.7 6.5
4 -3 7 15.5 4.9
-4 3 -7 20.6 2.6
-4 3 -7 22.4 3.2
5 -3 7 47.1 7.8
5 -3 7 26.1 6.8
-5 3 -7 34.6 3.9
-5 3 -7 41.4 3.3
4 -4 -7 58.29 10.1
4 -4 -7 64.59 4.2
-4 4 7 67.89 6.5
-4 4 7 63.29 3.9
3 -4 -7 26.5 7
3 -4 -7 18 2.4
-3 4 7 13.6 3.4
-3 4 7 19 2.5
2 -4 -7 38.8 2.6
2 -4 -7 33 6.2
-2 4 7 35.4 4.5
-2 4 7 40.2 2.9
-1 -4 7 83.09 5.3
-1 -4 7 76.49 5.2
1 -4 -7 88.59 3.7
1 -4 -7 90.99 10.3
-1 4 7 81.99 4.1
-1 4 7 79.39 5.7
1 4 -7 86.59 4.8
1 4 -7 86.09 3.4
0 -4 -7 89.69 3.7
0 -4 -7 90.59 8.6
0 -4 7 83.09 5.7
0 -4 7 83.79 5.3
0 4 7 92.49 6.2
0 4 7 91.79 4.4
0 4 -7 89.99 3.7
0 4 -7 91.09 4.8
1 -4 7 404.36 13.7
-1 -4 -7 356.96 17.3
-1 -4 -7 401.86 11
1 -4 7 392.06 14.8
-1 4 -7 416.26 11.5
-1 4 -7 408.56 12.6
1 4 7 389.96 14.6
1 4 7 407.36 12.3
2 -4 7 163.98 8.1
2 -4 7 146.59 8.8
-2 -4 -7 153.78 5.4
-2 -4 -7 142.19 10.9
2 4 7 152.58 9.4
2 4 7 151.38 6.9
-2 4 -7 154.78 6.9
-2 4 -7 150.48 5.9
3 -4 7 32.1 5.4
-3 -4 -7 39.2 5.9
3 -4 7 34.2 5
-3 -4 -7 40.9 2.5
-3 4 -7 38.5 3.6
3 4 7 40.6 6.2
3 4 7 38.9 4.5
-3 4 -7 35.5 3
4 -4 7 23.7 5.3
4 -4 7 30.5 6.4
-4 4 -7 28.4 3
-4 4 -7 33.4 3.8
5 -4 7 82.89 10.9
5 -4 7 58.39 7.7
-5 4 -7 90.99 5
-5 4 -7 77.49 5.6
4 -5 -7 115.29 5.5
4 -5 -7 100.09 12.7
-4 5 7 111.89 7.9
-4 5 7 117.29 5.8
3 -5 -7 8.4 6.1
3 -5 -7 23 2.7
-3 5 7 30.3 4.7
-3 5 7 19.7 2.6
2 -5 -7 33.6 2.8
2 -5 -7 15.8 5.9
-2 5 7 35.8 4.9
-2 5 7 32.6 3.3
1 -5 -7 111.89 4.5
-1 -5 7 102.19 6.5
1 -5 -7 108.19 11.7
-1 -5 7 96.59 7
1 5 -7 115.89 4.7
1 5 -7 113.99 6.6
-1 5 7 102.89 7.3
-1 5 7 110.79 5.1
0 -5 7 118.39 7.2
0 -5 -7 109.99 10.7
0 -5 7 111.49 6.3
0 -5 -7 117.49 4.6
0 5 7 94.59 7.1
0 5 7 115.89 5.3
0 5 -7 118.19 4.7
0 5 -7 111.29 5.5
-1 -5 -7 4.1 5.5
1 -5 7 10.6 3.2
-1 -5 -7 17.7 2
1 -5 7 14.7 3.8
1 5 7 19.4 2.7
-1 5 -7 13.2 2.1
1 5 7 17.4 4
-1 5 -7 21.7 2.8
2 -5 7 90.39 7.3
2 -5 7 90.89 6.2
-2 -5 -7 92.09 3.9
-2 -5 -7 87.19 9.7
2 5 7 96.19 7.9
2 5 7 79.89 5.2
-2 5 -7 91.79 4.8
-2 5 -7 90.09 5
3 -5 7 69.59 6.8
3 -5 7 70.09 8.1
-3 5 -7 82.29 5.1
-3 5 -7 98.99 5.1
4 -5 7 20 4.8
4 -5 7 13.9 6.1
-4 5 -7 20.8 2.8
-4 5 -7 21.6 3.3
5 -6 -7 29.2 3.5
5 -6 -7 27.6 9.3
-5 6 7 25.3 4.5
-5 6 7 31 3.9
4 -6 -7 25 8.5
4 -6 -7 35.5 3.5
-4 6 7 29.4 4.8
-4 6 7 38.1 4
3 -6 -7 37.2 3.5
3 -6 -7 31.2 8.4
-3 6 7 39.8 4
-3 6 7 37.7 5.9
2 -6 -7 11.5 5.8
2 -6 -7 18.9 2.3
-2 6 7 17.3 4.4
-2 6 7 21 2.9
1 -6 -7 91.79 4.3
1 -6 -7 86.49 10.9
-1 6 7 78.89 6.8
-1 6 7 92.59 4.8
0 -6 7 64.69 7.2
0 -6 7 58.89 4.8
0 -6 -7 45.7 8.1
0 -6 -7 62.39 3.4
0 6 7 61.19 6.1
0 6 -7 63.19 3.6
0 6 7 57.79 4
0 6 -7 57.39 4.2
1 -6 7 201.88 9.2
-1 -6 -7 199.28 13.8
1 -6 7 203.78 11.3
-1 -6 -7 203.48 7
-1 6 -7 217.18 7.9
1 6 7 204.78 10.6
1 6 7 211.58 8.2
-1 6 -7 209.78 8.2
-2 -6 -7 62.59 3.4
-2 -6 -7 40.6 7.7
2 -6 7 56.99 5.7
2 -6 7 42.1 6.6
2 6 7 82.39 8.1
-2 6 -7 59.59 4.5
-2 6 -7 59.99 4.2
2 6 7 64.59 4.9
3 -6 7 11 5
3 -6 7 8.5 3.3
-3 6 -7 8.5 2.2
-3 6 -7 10.5 2.6
4 -6 7 36.1 5.8
4 -6 7 43.1 7.9
-4 6 -7 51.99 4.6
-4 6 -7 49 4.2
4 -7 -7 41.7 10
4 -7 -7 43.1 4.1
-4 7 7 42 5.7
-4 7 7 40.3 4.3
3 -7 -7 0.7 5.3
3 -7 -7 5.8 1.9
-3 7 7 3.6 3.4
-3 7 7 4.4 1.9
2 -7 -7 11.9 6.1
2 -7 -7 18.2 2.5
-2 7 7 18.6 4.8
-2 7 7 19.2 2.9
1 -7 -7 48.4 8.9
1 -7 -7 52.59 3.5
-1 7 7 49.3 6.5
-1 7 7 51.49 3.9
0 -7 7 182.08 8.6
0 -7 -7 161.08 14.5
0 -7 7 166.08 10.6
0 -7 -7 179.98 6.8
0 7 7 189.88 10.6
0 7 7 192.08 7.8
0 7 -7 180.58 7.6
0 7 -7 183.08 7.3
1 -7 7 8.8 2.7
-1 -7 -7 5.2 4.7
-1 -7 -7 11.3 1.9
1 -7 7 7.5 3.8
1 7 7 7.3 2.3
1 7 7 4.8 4
-1 7 -7 10.4 2.7
-1 7 -7 10.6 2.4
2 -7 7 3.4 3.8
2 -7 7 8.1 2.8
-2 7 -7 4.3 2.1
-2 7 -7 4.8 1.9
3 -7 7 16.4 4.1
3 -7 7 16 6.1
-3 7 -7 16.7 3.1
-3 7 -7 22.8 3.4
3 -8 -7 27.9 9
3 -8 -7 26.8 3.2
-3 8 7 26.3 5.3
-3 8 7 29.4 3.8
2 -8 -7 15.4 2.5
2 -8 -7 21.9 7.6
-2 8 7 3.5 4
-2 8 7 17.1 3
1 -8 -7 46.6 8.9
1 -8 -7 45.1 3.7
-1 8 7 51.39 4.1
-1 8 7 38.5 6.1
0 -8 -7 -7.7 4.2
0 -8 -7 2.4 1.4
0 8 7 1.1 1.9
0 8 7 3.3 3.6
-1 -8 -7 237.38 8.1
1 -8 7 223.38 13.5
-1 -8 -7 206.18 15.4
1 -8 7 219.98 10.2
1 8 7 214.08 8.9
-1 8 -7 221.58 8.9
1 8 7 229.18 12.3
2 -8 7 11.1 5.4
2 -8 7 9.2 3.1
-2 8 -7 9.3 2.5
2 0 -8 26.3 5.6
-2 0 8 25.4 2.6
2 0 -8 25.4 1.7
-2 0 8 21 3.3
-1 0 8 7.1 1.6
-1 0 8 6.7 2.2
1 0 -8 6.5 3.1
1 0 -8 6.9 1
0 0 -8 957.5 23.2
0 0 -8 985.5 28.3
0 0 8 881.01 26.9
0 0 8 961.5 25.4
1 0 8 504.65 17.1
1 0 8 469.75 15.2
-1 0 -8 505.55 12.9
-1 0 -8 476.15 16.8
-2 0 -8 31.7 4.7
-2 0 -8 32.9 2.2
2 0 8 31.3 4.2
2 0 8 31.1 4.8
-3 0 -8 0.8 0.7
3 0 8 1.1 3.7
3 0 8 -2.1 2.6
-3 0 -8 0.4 1.8
4 0 8 80.39 8.7
-4 0 -8 95.99 4.3
4 0 8 87.39 8.6
-4 0 -8 94.09 6
3 -1 -8 44.5 2.6
3 -1 -8 35.6 7.6
-3 1 8 51.39 4.9
-3 1 8 43 3.1
2 -1 -8 135.79 10.2
-2 -1 8 138.09 7
2 -1 -8 133.79 4.5
-2 -1 8 138.39 5.7
2 1 -8 120.89 7.8
-2 1 8 128.39 5.4
-2 1 8 132.99 7
2 1 -8 132.99 4.3
-1 -1 8 47.1 4.9
1 -1 -8 45 2.3
-1 -1 8 47.8 3.4
1 -1 -8 38.3 5.9
1 1 -8 44.1 2.2
-1 1 8 49.9 3.2
-1 1 8 51.19 5.1
1 1 -8 48 5.3
0 -1 8 131.09 6.2
0 -1 -8 126.19 4.3
0 -1 -8 111.89 8.5
0 -1 8 132.49 7.3
0 1 8 123.79 7.2
0 1 8 124.99 5.6
0 1 -8 127.69 7.2
0 1 -8 124.89 4.3
-1 -1 -8 306.67 13.2
1 -1 8 300.47 12.3
-1 -1 -8 301.87 8.5
1 -1 8 294.07 11.1
1 1 8 282.47 12.1
-1 1 -8 307.97 8.7
1 1 8 305.07 10.5
-1 1 -8 298.37 11.6
2 -1 8 35.3 5.1
-2 -1 -8 53.09 2.9
2 -1 8 55.69 5.1
-2 -1 -8 54.99 6.3
-2 1 -8 53.89 2.9
-2 1 -8 59.99 5
2 1 8 57.59 4.8
2 1 8 50.29 6.5
-3 -1 -8 27.5 2.2
-3 -1 -8 33 4.6
3 -1 8 20.8 5.2
3 -1 8 31.4 5.1
-3 1 -8 25.8 2.2
3 1 8 19.6 5.4
-3 1 -8 25.7 3.8
3 1 8 27.2 4.5
-4 -1 -8 21.1 3.6
4 -1 8 17.7 5.7
-4 -1 -8 18.6 2.1
4 -1 8 13.7 5.5
-4 1 -8 16.3 2
4 1 8 22.2 5.1
4 1 8 20.5 6.4
-4 1 -8 14.3 3.1
5 -1 8 13.9 6.3
5 -1 8 22.6 6.1
-5 1 -8 16.7 3.2
-5 1 -8 23.4 2.6
3 -2 -8 102.49 4.2
3 -2 -8 93.19 10.5
-3 2 8 102.59 6.7
-3 2 8 103.69 4.7
2 -2 -8 41.6 7
-2 -2 8 39.9 4.4
-2 -2 8 43 3.3
2 -2 -8 43 2.4
2 2 -8 42 2.1
-2 2 8 38.9 2.8
-2 2 8 40.5 4.8
2 2 -8 57.29 5.5
-1 -2 8 94.89 6
1 -2 -8 95.69 3.7
1 -2 -8 95.79 8.7
-1 -2 8 97.69 5.2
-1 2 8 96.09 4.6
1 2 -8 97.39 3.5
1 2 -8 102.09 6.4
-1 2 8 102.09 6.4
0 -2 8 317.67 11.4
0 -2 -8 303.77 14.7
0 -2 8 288.97 11.9
0 -2 -8 319.97 9
0 2 -8 319.47 11.4
0 2 -8 323.47 8.9
0 2 8 321.97 12.5
0 2 8 326.97 10.4
-1 -2 -8 393.26 16.8
1 -2 8 418.56 14.4
1 -2 8 401.86 14.9
-1 -2 -8 419.46 11.3
-1 2 -8 426.86 11.5
-1 2 -8 429.26 13.9
1 2 8 416.16 13.1
1 2 8 416.76 15.2
-2 -2 -8 25.3 1.9
-2 -2 -8 31 4.9
2 -2 8 17.8 3.6
2 -2 8 22.4 4.2
-2 2 -8 18.6 3.1
2 2 8 23.7 3.3
-2 2 -8 27.9 2.2
2 2 8 18.9 4.5
3 -2 8 131.89 9.2
-3 -2 -8 132.59 8.3
3 -2 8 126.59 8.9
-3 -2 -8 137.79 4.9
3 2 8 127.39 9.8
3 2 8 128.39 7.6
-3 2 -8 127.99 5.2
-3 2 -8 122.49 6.6
4 -2 8 51.79 7.3
4 -2 8 39.9 6.7
-4 2 -8 53.49 3.3
-4 2 -8 44.6 4.7
5 -2 8 25.1 6.7
5 -2 8 35.2 7.1
-5 2 -8 36.4 3.3
-5 2 -8 28.8 3.9
4 -3 -8 50.69 9.8
4 -3 -8 40.2 3.4
-4 3 8 42.2 3.2
-4 3 8 44.1 5.3
3 -3 -8 34 8.6
3 -3 -8 20.5 2.2
-3 3 8 33.1 4.7
-3 3 8 26.1 2.8
2 -3 -8 15.4 5.7
2 -3 -8 23.6 2.2
-2 3 8 23.9 2.8
-2 3 8 29.2 4.4
-1 -3 8 108.89 5.9
1 -3 -8 106.29 9.3
1 -3 -8 112.29 4.1
-1 -3 8 99.19 6.4
-1 3 8 104.49 4.9
-1 3 8 96.99 6.4
1 3 -8 109.59 3.9
1 3 -8 101.19 5.7
0 -3 8 57.09 4.7
0 -3 -8 55.09 7.6
0 -3 8 53.59 5.4
0 -3 -8 59.59 2.9
0 3 -8 64.89 4.8
0 3 -8 60.89 2.9
0 3 8 66.49 6.3
0 3 8 56.79 3.7
1 -3 8 25.8 4.1
-1 -3 -8 26.8 2.3
1 -3 8 35.9 4.8
-1 -3 -8 24.8 6.4
1 3 8 32.5 4.7
1 3 8 29.3 3.3
-1 3 -8 30.8 3.6
-1 3 -8 29.1 2.3
-2 -3 -8 66.59 8.1
2 -3 8 55.39 6.6
-2 -3 -8 60.39 3.1
2 -3 8 62.39 6.9
2 3 8 60.29 5.1
-2 3 -8 62.89 3.6
-2 3 -8 55.99 4.5
2 3 8 52.69 6.8
3 -3 8 26.2 5.6
-3 -3 -8 32.2 2.3
3 -3 8 33.6 5.6
-3 -3 -8 36.1 5.9
-3 3 -8 31.1 3.9
3 3 8 25.3 5.5
-3 3 -8 24.9 2.7
3 3 8 28.6 4.4
4 -3 8 36.1 6.8
4 -3 8 33.1 6.6
-4 3 -8 36.1 3.3
-4 3 -8 37.1 4.2
4 -4 -8 206.68 7.4
4 -4 -8 177.18 17.4
-4 4 8 195.98 7.7
-4 4 8 210.48 10.4
3 -4 -8 55.19 3.6
3 -4 -8 44.4 8.9
-3 4 8 53.49 3.6
-3 4 8 64.59 6.5
2 -4 -8 106.69 4.6
2 -4 -8 106.49 11.7
-2 4 8 106.19 7.2
-2 4 8 112.69 5.3
1 -4 -8 7 1.3
-1 -4 8 5.7 2.6
1 -4 -8 13.5 5.8
-1 -4 8 8.8 2.7
1 4 -8 12.5 2.8
-1 4 8 6.7 3.1
1 4 -8 10.1 1.4
-1 4 8 9.1 1.9
0 -4 -8 122.49 10.6
0 -4 -8 128.39 4.8
0 -4 8 117.99 7.3
0 -4 8 129.49 7.8
0 4 -8 123.09 4.8
0 4 8 111.49 7.6
0 4 -8 126.39 6.2
0 4 8 121.99 5.7
-1 -4 -8 48.6 2.9
1 -4 8 45.7 5.9
1 -4 8 41.5 5.3
-1 -4 -8 50.09 8.8
1 4 8 47.1 6.1
-1 4 -8 47.5 3.2
-1 4 -8 44.9 3.9
1 4 8 42.7 3.8
-2 -4 -8 12.1 4.8
2 -4 8 8.2 3.4
2 -4 8 6.1 2.7
-2 -4 -8 12.7 1.7
2 4 8 13.1 2.9
-2 4 -8 12.4 1.9
-2 4 -8 12.1 2.7
2 4 8 10.6 4.1
-3 -4 -8 117.29 4.6
-3 -4 -8 124.69 9.1
3 -4 8 111.89 8.6
3 -4 8 95.19 9
3 4 8 107.89 9.6
-3 4 -8 106.09 6
-3 4 -8 119.69 5.5
3 4 8 113.99 7.2
4 -4 8 13.2 5.3
4 -4 8 19.1 5.8
-4 4 -8 24.1 2.9
-4 4 -8 19.1 3.1
4 -5 -8 12.4 7
4 -5 -8 18 2.8
-4 5 8 18.8 2.7
-4 5 8 18.6 4.7
3 -5 -8 0.6 1.6
3 -5 -8 2.7 6.3
-3 5 8 -1.7 2.7
-3 5 8 -0.2 1.2
2 -5 -8 170.88 6.3
2 -5 -8 131.99 12.2
-2 5 8 165.08 9.2
-2 5 8 157.18 6.7
1 -5 -8 82.49 3.9
1 -5 -8 80.59 10.8
-1 5 8 82.39 6.7
-1 5 8 76.89 4.5
0 -5 8 53.89 5.7
0 -5 8 60.59 6.6
0 -5 -8 64.09 3.3
0 -5 -8 74.09 10.3
0 5 8 66.59 4.1
0 5 -8 61.09 3.4
0 5 -8 64.69 4.7
0 5 8 62.59 6.6
-1 -5 -8 5.1 1.2
-1 -5 -8 5.6 4.4
1 -5 8 5.8 2.6
1 -5 8 5 2.6
-1 5 -8 4.3 1.3
1 5 8 4.6 1.9
1 5 8 1.7 2.7
-1 5 -8 5.9 2.1
-2 -5 -8 17.8 2.1
2 -5 8 15.9 4
-2 -5 -8 10.1 5.3
2 -5 8 11.3 3.8
2 5 8 18 5.1
-2 5 -8 17.9 2.9
-2 5 -8 16.4 2.4
2 5 8 15.1 3.1
3 -5 8 34.2 6.4
3 -5 8 30 5.2
-3 5 -8 29.9 3.6
-3 5 -8 37.3 3.6
4 -5 8 33.9 6.4
4 -5 8 26.1 6.9
-4 5 -8 35 4.1
-4 5 -8 45.5 3.8
4 -6 -8 26.6 3.2
4 -6 -8 16 8.2
-4 6 8 36.2 3.9
-4 6 8 32.9 5.3
3 -6 -8 130.99 6
3 -6 -8 127.79 14.1
-3 6 8 125.09 9
-3 6 8 133.19 6.3
2 -6 -8 119.79 5.4
2 -6 -8 125.19 14.1
-2 6 8 114.59 5.9
-2 6 8 113.19 8.8
1 -6 -8 14.6 6.7
1 -6 -8 13 2.1
-1 6 8 13.9 4.3
-1 6 8 11.9 2.3
0 -6 8 30 5
0 -6 -8 18 2.1
0 -6 8 20.8 3.8
0 -6 -8 14.4 6.1
0 6 -8 21 2.5
0 6 -8 21.7 3.3
0 6 8 16.4 2.6
0 6 8 20.7 4.2
1 -6 8 15.6 3.8
-1 -6 -8 15.6 2.1
1 -6 8 14.1 4.4
-1 -6 -8 18.1 6
-1 6 -8 13.9 2.3
1 6 8 20.7 5.1
1 6 8 20.1 3.2
-1 6 -8 14.9 2.9
2 -6 8 6 3.8
-2 -6 -8 4.7 4.4
2 -6 8 7.5 3.1
-2 -6 -8 9.1 1.6
-2 6 -8 11.9 2.6
-2 6 -8 7.3 1.9
2 6 8 5.8 2.6
2 6 8 12.1 4.3
3 -6 8 72.89 9.9
3 -6 8 75.79 7.5
-3 6 -8 82.19 5.7
-3 6 -8 97.99 5.3
3 -7 -8 98.99 5.5
3 -7 -8 91.89 13.2
-3 7 8 83.19 8.3
-3 7 8 91.89 5.4
2 -7 -8 63.29 4.1
2 -7 -8 50.29 9.6
-2 7 8 53.09 4.2
-2 7 8 78.39 8.1
1 -7 -8 -3.9 4.5
1 -7 -8 0.9 1.3
-1 7 8 -0.3 1.5
-1 7 8 -0.3 3.5
0 -7 -8 92.99 4.6
0 -7 -8 69.59 10.7
0 7 8 88.39 8.3
0 7 8 79.29 5.2
-1 -7 -8 24.5 6.4
1 -7 8 20.7 4
-1 -7 -8 15.4 2.2
1 -7 8 19.4 5
-1 7 -8 18 3.3
1 7 8 17.3 3
-1 7 -8 28.4 3.2
1 7 8 13.9 4.4
2 -7 8 7.5 4.3
2 -7 8 10.7 3.7
-2 7 -8 9.9 2.8
-2 7 -8 11.5 2.3
2 -8 -8 61.19 4.7
2 -8 -8 81.99 12.7
-2 8 8 71.69 5.2
-2 8 8 70.59 8.5
1 -8 -8 27.8 3.1
1 -8 -8 21.9 7.9
-1 8 8 36.2 4.1
-1 8 8 40.4 6.5
0 -8 -8 2.7 5.7
0 -8 -8 7.4 1.9
0 8 8 5.7 4.4
0 8 8 3.6 2.3
1 -8 8 3 3.1
-1 -8 -8 4.3 1.7
-1 -8 -8 0.3 5.1
1 -8 8 5.4 3.7
-1 8 -8 5.1 2.3
1 8 8 5.7 2.4
1 8 8 7.1 4.8
2 0 -9 50.79 2.8
2 0 -9 55.49 7.6
-2 0 9 66.29 5.5
-2 0 9 55.39 3.8
1 0 -9 79.29 3.3
-1 0 9 86.39 4.8
-1 0 9 87.19 6.2
1 0 -9 74.39 7.2
0 0 9 14.4 3.6
0 0 9 10.3 2.2
0 0 -9 14.4 3.7
0 0 -9 11.6 1.5
-1 0 -9 118.59 7.9
1 0 9 104.59 8.4
1 0 9 116.29 6.7
-1 0 -9 126.49 4.6
-2 0 -9 77.79 6.3
-2 0 -9 72.39 3.5
2 0 9 72.49 7.6
2 0 9 67.49 6.1
3 0 9 1.2 3.1
-3 0 -9 0.8 1
3 0 9 6.6 4.9
-3 0 -9 -2.1 1.9
-4 0 -9 19.8 3.5
-4 0 -9 14 1.8
4 0 9 12.8 5.8
4 0 9 12.9 4.7
3 -1 -9 16.5 1.9
3 -1 -9 19.7 6.7
-3 1 9 17.9 2.4
-3 1 9 27.9 4.4
-2 -1 9 90.99 7
2 -1 -9 101.19 4
2 -1 -9 73.89 9
-2 -1 9 99.79 5.4
-2 1 9 95.79 6.6
2 1 -9 104.09 3.9
2 1 -9 108.69 8
-2 1 9 104.89 5.1
-1 -1 9 14.1 3.4
1 -1 -9 21.3 1.8
-1 -1 9 17.5 2.8
1 -1 -9 21.5 5.2
-1 1 9 19 2.7
-1 1 9 20.4 3.7
1 1 -9 20.1 1.7
1 1 -9 15 3.9
0 -1 9 2.5 2.5
0 -1 9 2.1 1.6
0 -1 -9 2.9 3
0 -1 -9 3 0.9
0 1 9 1.6 2.2
0 1 9 3.3 1.6
0 1 -9 3.2 0.9
0 1 -9 5.8 2.7
1 -1 9 66.99 5.7
-1 -1 -9 57.79 6.6
-1 -1 -9 64.19 3.1
1 -1 9 55.19 6.4
1 1 9 66.29 4.7
-1 1 -9 67.79 5.7
1 1 9 73.79 7.5
-1 1 -9 66.69 3.2
-2 -1 -9 12.6 1.7
-2 -1 -9 12.6 3.6
2 -1 9 4.1 3.1
2 -1 9 13.2 3.4
2 1 9 14.6 4.6
-2 1 -9 9.7 1.5
2 1 9 13.7 3.4
-2 1 -9 10.1 2.9
3 -1 9 26 5.5
-3 -1 -9 16.8 3.8
-3 -1 -9 18 2.1
3 -1 9 24.1 5.6
3 1 9 19.9 4.5
3 1 9 13.3 5.6
-3 1 -9 17.2 2.1
-3 1 -9 22.1 4
-4 -1 -9 92.19 4.3
4 -1 9 76.39 9
4 -1 9 101.19 10.1
-4 -1 -9 84.79 6.4
4 1 9 90.49 8.5
-4 1 -9 88.69 4.3
-4 1 -9 85.29 6.1
4 1 9 73.19 9.1
3 -2 -9 83.89 4
3 -2 -9 74.09 10
-3 2 9 82.59 4.4
-3 2 9 75.19 6.2
2 -2 -9 53.59 2.9
-2 -2 9 50.39 8.1
-2 -2 9 48.1 5.5
2 -2 -9 56.89 9.1
-2 2 9 55.89 3.7
2 2 -9 60.09 4.1
-2 2 9 55.89 5.8
-1 -2 9 -1.5 1.6
1 -2 -9 -0.5 0.9
1 -2 -9 6 5.1
-1 -2 9 1.7 3.2
-1 2 9 -1.5 1.3
1 2 -9 0.6 0.8
-1 2 9 -1.5 2
1 2 -9 -2.5 2.6
0 -2 -9 12.5 5.8
0 -2 9 1.7 3
0 -2 9 6.3 2.5
0 -2 -9 7.7 1.4
0 2 9 8.7 2.3
0 2 -9 9.8 1.5
0 2 -9 5.3 2.6
0 2 9 11.6 3.2
1 -2 9 92.09 7.1
-1 -2 -9 99.29 4.1
-1 -2 -9 70.69 8.1
1 -2 9 99.09 6.5
-1 2 -9 92.49 6.2
1 2 9 85.59 7.1
-1 2 -9 92.89 4
1 2 9 94.79 5.6
-2 -2 -9 111.69 8.4
-2 -2 -9 101.19 4.2
2 -2 9 109.29 7.5
2 -2 9 88.09 7.5
2 2 9 106.19 6.6
2 2 9 70.99 7.4
-2 2 -9 98.79 4.4
-2 2 -9 98.39 6.2
-3 -2 -9 47.6 2.8
3 -2 9 43.4 7
-3 -2 -9 31.6 5.3
3 -2 9 39.2 6.2
-3 2 -9 37.6 3
3 2 9 30.2 6.4
-3 2 -9 33.2 4.1
3 2 9 49.7 5.9
4 -2 9 30.2 6.7
4 -2 9 31.9 6.8
-4 -2 -9 31.9 5.2
-4 -2 -9 37.6 3.1
4 2 9 38.2 7.6
-4 2 -9 35.2 2.9
-4 2 -9 39.4 4.7
3 -3 -9 8.5 1.8
3 -3 -9 8.5 6.7
-3 3 9 14.1 3.4
-3 3 9 7.8 1.7
2 -3 -9 13.3 6.1
2 -3 -9 12.5 1.8
-2 3 9 13 4
-2 3 9 13.1 2.2
1 -3 -9 93.29 4
-1 -3 9 76.59 5.5
1 -3 -9 69.29 9
-1 -3 9 78.39 6.5
1 3 -9 79.69 6
-1 3 9 86.49 6.5
1 3 -9 93.19 3.7
-1 3 9 88.09 4.8
0 -3 -9 34.4 2.5
0 -3 9 31.5 4.2
0 -3 9 38.9 5.2
0 -3 -9 40.2 7.4
0 3 -9 29.2 3.9
0 3 9 33.4 4.9
0 3 -9 34 2.4
0 3 9 30.1 3.4
-1 -3 -9 93.89 4
1 -3 9 92.99 7
-1 -3 -9 73.89 9.3
1 -3 9 81.59 6.9
1 3 9 88.09 5.4
1 3 9 78.69 7.5
-1 3 -9 89.89 5.6
-1 3 -9 92.49 4.1
2 -3 9 14.1 3.8
-2 -3 -9 16.8 2
-2 -3 -9 10 4.4
2 -3 9 13.1 4
-2 3 -9 14.7 1.9
2 3 9 16.5 3.5
-2 3 -9 14.2 2.9
2 3 9 14.7 4.6
3 -3 9 10.9 4.6
-3 -3 -9 10.8 4.1
3 -3 9 10.2 4.5
-3 -3 -9 9.4 1.6
-3 3 -9 8.5 2.3
3 3 9 12.8 3.8
3 3 9 8.5 4.9
-3 3 -9 15.3 2.1
4 -3 9 10.7 5.6
4 -3 9 4.7 5.1
-4 3 -9 17.8 2.4
4 -4 -9 23 2.8
4 -4 -9 15.3 8.2
-4 4 9 21.3 4.4
-4 4 9 18.7 2.8
3 -4 -9 58.79 11.2
3 -4 -9 49.9 3.7
-3 4 9 46.3 3.8
-3 4 9 48.1 6.1
2 -4 -9 69.89 10.4
2 -4 -9 80.49 4.1
-2 4 9 87.49 4.8
-2 4 9 83.59 6.8
1 -4 -9 83.29 10.7
1 -4 -9 96.09 4.3
-1 -4 9 95.19 6.6
-1 -4 9 86.89 6.6
-1 4 9 92.89 5
-1 4 9 87.29 6.9
1 4 -9 92.49 5.9
1 4 -9 91.79 3.9
0 -4 -9 8.2 4.4
0 -4 9 5 2.6
0 -4 9 2.6 2.4
0 -4 -9 6.1 1.3
0 4 9 5.6 2.8
0 4 -9 5.5 1.3
0 4 -9 4.6 2.4
0 4 9 6.5 1.9
-1 -4 -9 53.89 8.5
1 -4 9 43.8 5.7
-1 -4 -9 56.99 3.2
1 -4 9 51.19 6.4
-1 4 -9 50.79 4.4
1 4 9 45.1 5.9
-1 4 -9 52.29 3.2
1 4 9 44 4.2
-2 -4 -9 32.6 7.1
-2 -4 -9 49.6 3
2 -4 9 49.1 7
2 -4 9 40.8 6.1
-2 4 -9 46 3.3
2 4 9 50.09 7.1
-2 4 -9 48.1 5
2 4 9 53.29 5.2
3 -4 9 1.7 4.2
-3 -4 -9 5.9 1.3
3 -4 9 7.1 4.6
-3 -4 -9 7.1 3.6
-3 4 -9 6.7 1.8
3 4 9 6.7 3.3
3 4 9 7.6 4.9
-3 4 -9 6.5 2.3
4 -4 9 75.69 9.3
4 -4 9 84.59 10.1
-4 4 -9 93.79 6
-4 4 -9 91.79 5.1
4 -5 -9 121.19 6
4 -5 -9 89.39 13.2
-4 5 9 101.79 9.1
-4 5 9 118.19 6
3 -5 -9 109.29 13.6
3 -5 -9 149.19 6.4
-3 5 9 141.59 9.3
-3 5 9 150.98 6.8
2 -5 -9 32.8 3.1
2 -5 -9 26 8.1
-2 5 9 30.3 3.5
-2 5 9 33.4 5.6
1 -5 -9 112.79 13.3
1 -5 -9 129.29 5.3
-1 5 9 119.09 6
-1 5 9 118.39 8.5
0 -5 -9 20.9 2.2
0 -5 9 29.1 4.9
0 -5 -9 23 6.4
0 -5 9 32.9 5.2
0 5 9 21.9 4.5
0 5 -9 24 3.5
0 5 -9 24.5 2.5
0 5 9 23.7 3.2
-1 -5 -9 32.2 2.7
-1 -5 -9 22.3 6.8
1 -5 9 26.6 5
1 -5 9 33.4 5.9
-1 5 -9 34.1 4.1
1 5 9 38.1 4.3
1 5 9 32.7 5.7
-1 5 -9 36.8 3.1
-2 -5 -9 23.3 6.6
2 -5 9 40.3 6
2 -5 9 44.5 6.7
-2 -5 -9 43.6 2.9
2 5 9 43.4 6.5
2 5 9 37.2 4.6
-2 5 -9 38.8 4.2
-2 5 -9 43.9 3.3
3 -5 9 4.9 4
3 -5 9 9.6 4.5
-3 5 -9 8.8 1.9
-3 5 -9 8.5 2.3
4 -6 -9 14.8 8.7
4 -6 -9 7.5 2.5
-4 6 9 7.9 4.5
-4 6 9 5.7 2
3 -6 -9 11.2 7.9
3 -6 -9 11.4 2.3
-3 6 9 12 2.5
-3 6 9 8.9 3.8
2 -6 -9 63.69 10.5
2 -6 -9 75.39 4.6
-2 6 9 88.19 8.4
-2 6 9 72.29 4.8
1 -6 -9 27.4 7.7
1 -6 -9 22.8 2.6
-1 6 9 27.3 5
-1 6 9 22.7 3.1
0 -6 9 69.49 6
0 -6 -9 50.79 9.2
0 -6 9 44.6 5.8
0 -6 -9 57.09 3.6
0 6 -9 54.29 3.9
0 6 9 72.59 7.7
0 6 -9 61.09 5
0 6 9 58.59 4.5
-1 -6 -9 26.3 2.7
1 -6 9 26.4 5.1
-1 -6 -9 22.2 6.7
1 -6 9 26.1 4.6
-1 6 -9 29.5 3.7
1 6 9 28.7 5.6
-1 6 -9 31.6 3.2
1 6 9 30 4
-2 -6 -9 12.4 6
2 -6 9 22.8 4.8
-2 -6 -9 20.5 2.3
2 -6 9 22.5 5.5
2 6 9 23.9 5.3
-2 6 -9 21.6 3.5
-2 6 -9 19.7 2.7
2 6 9 15.2 3.5
2 -7 -9 11.4 2.4
2 -7 -9 -0.5 6.2
-2 7 9 12.9 2.8
-2 7 9 11.6 4.4
1 -7 -9 31.8 8.8
1 -7 -9 38.8 3.5
-1 7 9 38.3 6.2
-1 7 9 42.9 4.2
0 -7 -9 2.1 1.5
0 -7 -9 11.3 5.4
0 7 9 0.4 1.7
0 7 9 0 3.5
-1 -7 -9 67.79 10.8
1 -7 9 72.39 7.7
1 -7 9 93.69 10.4
-1 -7 -9 100.89 4.9
-1 7 -9 85.99 6.3
1 7 9 105.19 9.6
1 7 9 79.69 5.9
-1 7 -9 101.59 5.4
-2 0 10 65.29 4.4
2 0 -10 62.49 3.2
-2 0 10 60.79 6.2
2 0 -10 55.59 7.5
-1 0 10 66.29 4.9
1 0 -10 55.79 7.3
1 0 -10 73.79 3.4
-1 0 10 65.39 6.9
0 0 -10 159.98 10
0 0 10 146.39 7.8
0 0 -10 148.59 5.3
0 0 10 153.88 9.6
-1 0 -10 124.89 4.8
1 0 10 120.39 8.8
-1 0 -10 114.99 8
1 0 10 120.99 7.1
-2 0 -10 14.7 3.4
2 0 10 13.7 5
2 0 10 18.2 3.9
-2 0 -10 14.8 2
-3 0 -10 41.8 5.4
3 0 10 36.7 7.1
3 0 10 38.6 6.1
-3 0 -10 44 3.1
4 0 10 51.99 8.7
4 0 10 48.3 7.2
-4 0 -10 56.29 3.7
-4 0 -10 45.6 5.3
3 -1 -10 11.8 6.5
3 -1 -10 8.9 1.7
-3 1 10 9.6 2
-3 1 10 10.1 3
2 -1 -10 9.5 5.8
-2 -1 10 4.7 2.7
2 -1 -10 7.5 1.5
-2 -1 10 5.3 1.9
2 1 -10 5.3 1.3
2 1 -10 2.6 3.8
-2 1 10 9.9 2.8
-2 1 10 4.3 1.7
-1 -1 10 65.29 5.1
-1 -1 10 63.39 6.9
1 -1 -10 52.89 7.6
1 -1 -10 62.79 3.2
-1 1 10 69.29 7.3
-1 1 10 68.29 4.8
1 1 -10 63.39 3.2
1 1 -10 51.99 6.3
0 -1 10 31.2 4.3
0 -1 10 22 4.8
0 -1 -10 30.1 2.3
0 -1 -10 24.4 5
0 1 -10 29 2.3
0 1 10 26.3 3.8
0 1 -10 25.5 4.6
0 1 10 29.5 5.3
-1 -1 -10 43.2 6.2
1 -1 10 50.89 5.6
1 -1 10 45.1 6.3
-1 -1 -10 50.09 2.9
-1 1 -10 36.6 4.8
1 1 10 46.5 6.5
-1 1 -10 46.8 2.8
1 1 10 44.4 5
-2 -1 -10 21.7 2.2
2 -1 10 21.8 4.4
2 -1 10 18.6 4.8
-2 -1 -10 23.7 4.7
2 1 10 17.6 3.7
2 1 10 22.3 5.2
-2 1 -10 18.1 2
-2 1 -10 16 3.5
-3 -1 -10 35.6 2.7
3 -1 10 37.3 6.8
-3 -1 -10 37.5 5.7
3 -1 10 33.3 5.7
3 1 10 30.3 6.4
-3 1 -10 28.8 4.3
-3 1 -10 39.2 2.8
3 1 10 25.8 5.1
-4 -1 -10 15.6 3.9
4 -1 10 30.4 6.9
-4 -1 -10 16.9 2.2
4 -1 10 24.8 6.6
4 1 10 22.9 5.8
4 1 10 23.3 6.6
-4 1 -10 22.6 2.6
-4 1 -10 18.5 3.9
3 -2 -10 0 1.5
3 -2 -10 1.6 6.3
-3 2 10 1.5 2.1
-3 2 10 0.1 1.2
2 -2 -10 179.58 6.2
2 -2 -10 159.48 13.2
-2 2 10 178.58 9.4
-2 2 10 179.38 7.5
1 -2 -10 12.7 1.7
-1 -2 10 7.6 3.4
-1 -2 10 15.8 3.2
1 -2 -10 12.1 5.1
-1 2 10 12 2.3
1 2 -10 13.3 1.8
1 2 -10 14.4 3.8
-1 2 10 11.8 3.7
0 -2 -10 196.58 6.6
0 -2 -10 178.68 12.2
0 -2 10 178.28 10.1
0 -2 10 193.28 9.4
0 2 10 188.88 10.3
0 2 -10 198.28 9.5
0 2 -10 196.48 6.5
0 2 10 197.58 8.4
-1 -2 -10 26.2 5.5
-1 -2 -10 34.2 2.5
1 -2 10 37.7 5.1
1 -2 10 30.4 5.1
-1 2 -10 32.2 2.5
-1 2 -10 25.5 4.1
1 2 10 32 5.2
1 2 10 27.7 3.9
-2 -2 -10 18.1 4.9
-2 -2 -10 17.6 2.2
2 -2 10 19.6 4.5
2 -2 10 21.2 5.5
-2 2 -10 16.7 2.2
2 2 10 20.3 4.1
-2 2 -10 17.8 3.5
2 2 10 22.3 5.6
3 -2 10 2.3 4.3
-3 -2 -10 5.5 3.6
3 -2 10 8.4 4.1
-3 -2 -10 8 1.5
-3 2 -10 3.8 2
3 2 10 6.1 3.7
3 2 10 6.3 4.9
-3 2 -10 6.5 1.6
-4 -2 -10 32.4 3.2
4 -2 10 22.6 6.9
4 -2 10 23.3 6.5
-4 -2 -10 33 5.1
4 2 10 27.1 7.1
4 2 10 37.2 7.2
-4 2 -10 28.9 3
-4 2 -10 25.8 3.9
3 -3 -10 2.7 6.6
3 -3 -10 4.7 1.8
-3 3 10 8.9 2
-3 3 10 2.7 2.9
2 -3 -10 18.4 2.2
2 -3 -10 16.3 7.5
-2 3 10 22.7 3.2
-2 3 10 24 4.4
1 -3 -10 85.59 4
1 -3 -10 65.99 9.2
-1 -3 10 77.29 5.9
-1 -3 10 79.79 6.9
1 3 -10 80.59 3.7
-1 3 10 79.59 4.9
-1 3 10 82.09 6.7
1 3 -10 85.99 6.5
0 -3 10 41.7 5.8
0 -3 -10 35.1 7.1
0 -3 -10 50.09 3
0 -3 10 45.9 5.5
0 3 -10 48.2 5.2
0 3 10 43.3 4
0 3 10 46.6 5.9
0 3 -10 51.09 3.1
1 -3 10 53.49 6.5
-1 -3 -10 55.59 8.4
-1 -3 -10 53.99 3.2
1 -3 10 57.09 6.9
1 3 10 51.89 5.3
-1 3 -10 45.6 5.1
1 3 10 47.7 6.5
-1 3 -10 56.49 3.3
-2 -3 -10 8.6 4.1
2 -3 10 2 3.3
2 -3 10 0.1 3
-2 -3 -10 3.7 1.4
-2 3 -10 0 1.2
-2 3 -10 2 1.9
2 3 10 2.8 2.4
2 3 10 -2.7 3.6
-3 -3 -10 9.8 1.8
3 -3 10 20.3 5.6
3 -3 10 11.1 4.9
-3 -3 -10 12.5 3.8
3 3 10 13 5.2
3 3 10 10.1 3.8
-3 3 -10 11.8 2.8
-3 3 -10 9.3 1.8
4 -4 -10 37 9.9
4 -4 -10 62.29 4.4
-4 4 10 55.39 4.1
-4 4 10 68.79 7.7
3 -4 -10 44.5 3.7
3 -4 -10 24.7 8.3
-3 4 10 47.8 6
-3 4 10 45.6 3.8
2 -4 -10 35.6 3.2
2 -4 -10 16.6 7.1
-2 4 10 34.5 5.6
-2 4 10 36.4 3.4
-1 -4 10 20 4.6
1 -4 -10 17.2 2.2
1 -4 -10 3.6 5.2
-1 -4 10 21.7 4.3
1 4 -10 19.5 2.4
1 4 -10 15.4 4.5
-1 4 10 15.2 4.3
-1 4 10 13.3 2.5
0 -4 10 200.98 10.9
0 -4 -10 217.18 7.3
0 -4 10 184.28 10.6
0 -4 -10 194.88 14.2
0 4 -10 219.68 7.2
0 4 10 201.78 11
0 4 10 219.48 9
0 4 -10 206.28 9.4
1 -4 10 34 5.8
-1 -4 -10 30 7.4
-1 -4 -10 39.6 2.9
1 -4 10 41.3 6.1
1 4 10 51.49 7.2
-1 4 -10 38 3
1 4 10 47.2 5
-1 4 -10 29.4 4
2 -4 10 34.5 5.6
-2 -4 -10 44.3 3
2 -4 10 38.2 6.7
-2 -4 -10 40.6 7.2
-2 4 -10 38.3 4.7
2 4 10 51.29 7.3
-2 4 -10 47.6 3.3
2 4 10 55.59 5.9
-3 -4 -10 88.69 9.8
-3 -4 -10 94.39 4.4
3 -4 10 90.79 9.6
3 -4 10 91.09 10.4
3 4 10 88.09 7.6
3 4 10 78.99 9.3
-3 4 -10 81.29 5.8
4 -5 -10 15.5 9.4
4 -5 -10 10.2 2.7
-4 5 10 13.3 4.6
-4 5 10 8.4 2.5
3 -5 -10 16.5 8.2
3 -5 -10 16.6 2.8
-3 5 10 20.3 4.9
-3 5 10 21.8 3.1
2 -5 -10 17.6 2.4
2 -5 -10 11.7 7
-2 5 10 17.6 4
-2 5 10 22.5 3.1
1 -5 -10 5 1.7
1 -5 -10 9.5 4.7
-1 5 10 4.9 3.7
-1 5 10 4.3 1.8
0 -5 10 28.2 5
0 -5 -10 23.9 7.2
0 -5 -10 34.1 2.8
0 -5 10 31.5 5.4
0 5 -10 33.2 3
0 5 10 28.8 5.3
0 5 10 34.9 4.2
0 5 -10 29.7 4
-1 -5 -10 167.98 6.3
-1 -5 -10 139.99 12.5
1 -5 10 151.78 10.1
1 -5 10 143.09 10
-1 5 -10 164.38 6.3
-1 5 -10 154.28 7.8
1 5 10 163.48 10.6
1 5 10 150.58 7.9
2 -5 10 31.6 5.6
-2 -5 -10 41.6 7.7
-2 -5 -10 40.1 2.9
2 -5 10 33.6 6
2 5 10 37.8 4.9
-2 5 -10 44.8 3.5
-2 5 -10 34.7 4.1
2 5 10 55.79 7.5
3 -6 -10 5.5 8.5
3 -6 -10 8.3 2.5
-3 6 10 9 2.5
-3 6 10 3.1 4
2 -6 -10 30.5 3.4
2 -6 -10 23.5 8.1
-2 6 10 32.6 3.9
-2 6 10 36.2 6.2
1 -6 -10 24.8 2.7
1 -6 -10 21.8 7.4
-1 6 10 29.6 5
-1 6 10 26.1 3.5
0 -6 10 118.49 8.9
0 -6 10 102.69 8.4
0 -6 -10 126.39 5.6
0 -6 -10 87.69 12
0 6 -10 126.49 6.7
0 6 10 131.29 9.6
0 6 -10 116.79 5.3
0 6 10 123.59 6.9
1 -6 10 34 6.1
1 -6 10 63.69 7.9
-1 -6 -10 37 8.4
-1 -6 -10 46.8 3.5
-1 6 -10 41.9 3.6
-1 6 -10 41 4.6
1 6 10 60.49 7.7
1 6 10 48.2 5.2
-2 0 11 21.4 3.3
2 0 -11 7.9 5.1
-2 0 11 20.9 4.3
2 0 -11 18.1 2.2
-1 0 11 0.7 3.3
-1 0 11 7.2 2.5
1 0 -11 8.8 4.4
1 0 -11 6.7 1.5
0 0 11 -0.6 2.6
0 0 11 2.3 2
0 0 -11 1.5 3.2
0 0 -11 0.1 0.9
1 0 11 1.9 2.3
-1 0 -11 7.3 3.6
-1 0 -11 0.6 1.2
1 0 11 3.1 3.5
2 0 11 71.79 7
-2 0 -11 85.59 4.2
2 0 11 82.39 9.5
-2 0 -11 77.49 7
3 0 11 1.4 5.2
-3 0 -11 -0.3 2.2
-3 0 -11 -2 1
3 0 11 7.9 4.3
-2 -1 11 22.9 4.6
2 -1 -11 13.1 2
2 -1 -11 13 6.6
-2 -1 11 14.8 3
-2 1 11 19.6 4.3
-2 1 11 13.3 2.6
2 1 -11 11.8 1.9
2 1 -11 11.2 4.7
1 -1 -11 94.89 4.2
1 -1 -11 58.89 8.3
-1 -1 11 86.89 6
-1 -1 11 90.89 7.4
1 1 -11 95.19 4.1
1 1 -11 70.59 7.5
-1 1 11 88.29 5.7
-1 1 11 93.59 7.5
0 -1 -11 116.19 4.7
0 -1 11 119.49 8.9
0 -1 11 110.59 7.2
0 -1 -11 118.49 9.4
0 1 -11 115.99 8.6
0 1 11 115.99 6.8
0 1 11 101.79 8.5
0 1 -11 105.99 4.7
1 -1 11 31.2 6.1
-1 -1 -11 41 2.8
1 -1 11 40.9 5.6
-1 -1 -11 33.2 6.4
1 1 11 34.5 4.9
-1 1 -11 31.9 5.3
1 1 11 29.7 5.4
-1 1 -11 42.8 3.1
2 -1 11 28.4 5
-2 -1 -11 21.4 4.8
2 -1 11 32.3 6.1
-2 -1 -11 31.6 2.6
2 1 11 12.6 5.2
-2 1 -11 24.8 2.5
2 1 11 30.1 4.9
-2 1 -11 17.4 3.6
-3 -1 -11 61.39 3.8
-3 -1 -11 50.29 6.7
3 -1 11 70.59 9
3 -1 11 60.39 8
-3 1 -11 72.49 3.9
-3 1 -11 71.79 6.2
3 1 11 50.99 8.3
3 1 11 60.99 7.8
3 -2 -11 22.5 7.7
3 -2 -11 28.9 2.9
-3 2 11 33.7 5
-3 2 11 29.9 3.6
2 -2 -11 11.5 2
2 -2 -11 8 6.5
-2 2 11 11.1 2.5
-2 2 11 10.2 3.5
-1 -2 11 8.3 2.9
-1 -2 11 10.7 4.1
1 -2 -11 11.6 1.8
1 -2 -11 7.6 5.3
-1 2 11 20 4.4
1 2 -11 14.2 4.5
-1 2 11 10.4 2.6
1 2 -11 14.4 2.1
0 -2 11 36.6 6.1
0 -2 -11 37.4 2.9
0 -2 11 41.9 5.5
0 -2 -11 31.3 6.9
0 2 11 35.1 5.5
0 2 -11 29.5 5
0 2 11 38.8 4.4
0 2 -11 41.6 3.2
1 -2 11 24.1 5.3
-1 -2 -11 27 2.6
1 -2 11 22.2 4.7
-1 -2 -11 26.3 5.8
-1 2 -11 26.1 2.6
1 2 11 24.5 5.4
-1 2 -11 21.1 4.1
1 2 11 20.6 3.8
-2 -2 -11 12.4 1.9
-2 -2 -11 18 4.9
2 -2 11 17 4.6
2 -2 11 10.5 4.3
-2 2 -11 15.1 2.1
-2 2 -11 12.4 3.4
2 2 11 13.1 5.4
2 2 11 17.2 4.1
-3 -2 -11 10 2
-3 -2 -11 12.4 4.3
3 -2 11 8.8 4.8
3 -2 11 11.6 5.3
-3 2 -11 13 2
-3 2 -11 12.4 3.2
3 2 11 9.4 5.6
3 2 11 10.2 4.4
3 -3 -11 12.6 2.3
3 -3 -11 5.5 6.9
-3 3 11 12.2 2.5
-3 3 11 12.4 3.9
2 -3 -11 22.5 7.3
2 -3 -11 25.4 2.8
-2 3 11 24.4 4.9
-2 3 11 22.6 3.3
-1 -3 11 8.5 2.9
1 -3 -11 17 6.7
-1 -3 11 9 3.9
1 -3 -11 19.3 2.3
1 3 -11 17 2.2
1 3 -11 14.8 3.9
-1 3 11 15.5 3
-1 3 11 18.8 4.7
0 -3 -11 36.6 7.8
0 -3 11 53.19 6.9
0 -3 11 61.59 6.8
0 -3 -11 65.69 3.6
0 3 -11 63.39 6
0 3 11 58.89 5
0 3 11 71.79 7.9
0 3 -11 66.29 3.7
-1 -3 -11 14.4 5.1
1 -3 11 23.3 4.9
1 -3 11 23.3 5
-1 -3 -11 21.8 2.4
1 3 11 17.2 4.8
-1 3 -11 23.2 2.5
-1 3 -11 21.1 3.8
1 3 11 19.9 3.7
-2 -3 -11 24.2 5.7
2 -3 11 32.1 6.2
-2 -3 -11 24.7 2.6
2 -3 11 19.6 5.1
-2 3 -11 25.7 4.1
-2 3 -11 28.2 2.9
2 3 11 24.1 5.6
2 3 11 25.7 4.9
3 -4 -11 43.6 3.8
3 -4 -11 35 9.3
-3 4 11 42 4
-3 4 11 61.99 7.3
2 -4 -11 23 7.9
2 -4 -11 27.9 3
-2 4 11 28.9 3.6
-2 4 11 27.9 5.5
1 -4 -11 18.4 6.4
1 -4 -11 27.6 2.8
-1 4 11 25.2 5.1
-1 4 11 29.6 3.8
0 -4 11 86.19 7.7
0 -4 11 80.79 8.2
0 -4 -11 84.79 11.2
0 -4 -11 99.29 4.6
0 4 11 99.89 8.1
0 4 -11 94.39 4.5
0 4 11 93.29 6.1
0 4 -11 89.89 6.6
1 -4 11 38.2 6.1
-1 -4 -11 46.2 8.2
1 -4 11 43.1 6.7
-1 -4 -11 41.4 3.1
-1 4 -11 42.4 3.2
-1 4 -11 35.9 4.6
1 4 11 35.8 4.9
1 4 11 45.2 7.1
-2 -4 -11 19.6 5.6
-2 -4 -11 22.8 2.6
2 -4 11 15.4 4.9
2 -4 11 17.9 5.2
-2 4 -11 18.5 2.5
2 4 11 33 6.3
2 4 11 15.4 4.2
-2 4 -11 17.6 3.7
3 -5 -11 22.8 3.3
3 -5 -11 24.8 9.2
-3 5 11 28.7 5.9
-3 5 11 22.6 3.3
2 -5 -11 199.08 7.6
2 -5 -11 173.58 15.4
-2 5 11 198.18 11.1
-2 5 11 190.48 8.6
1 -5 -11 9.5 5.5
1 -5 -11 16.8 2.5
-1 5 11 8.4 4.4
-1 5 11 15.2 2.9
0 -5 -11 0.6 1.1
0 -5 11 0.8 2.5
0 -5 11 -0.4 2.7
0 -5 -11 1.8 4.2
0 5 11 4.4 3.4
0 5 -11 2.2 2.5
0 5 11 2.4 2.1
0 5 -11 2.6 1.6
-1 -5 -11 1.7 5.2
1 -5 11 4.6 3.3
1 -5 11 5.1 3.8
-1 -5 -11 6.7 1.7
-1 5 -11 6.2 2.8
1 5 11 15 5
1 5 11 11.1 3.3
-1 5 -11 4.2 1.8
1 -6 -11 46.8 10.1
1 -6 -11 45.6 3.8
-1 6 11 42.5 4.9
-1 6 11 44.6 6.4
-2 0 12 9.9 2.8
-2 0 12 6.4 3.5
2 0 -12 11.7 2.1
2 0 -12 8.7 4.9
1 0 -12 147.89 10.9
-1 0 12 152.78 8.3
1 0 -12 158.78 6
-1 0 12 141.29 9.7
0 0 -12 4.5 1.4
0 0 -12 5.7 3.2
0 0 12 5.7 2.6
0 0 12 3.5 3.1
1 0 12 8.8 4.5
1 0 12 10.3 3.6
-1 0 -12 13.2 1.9
-1 0 -12 11.7 4.4
2 0 12 7.7 4.4
-2 0 -12 7.4 3.7
-2 0 -12 11.6 2
2 0 12 4.4 4.1
2 -1 -12 47.3 3.4
2 -1 -12 52.69 8.5
-2 1 12 49.7 4.5
-2 1 12 48.3 6.6
-1 -1 12 34.5 5
1 -1 -12 41.6 3.1
1 -1 -12 27.7 6.5
-1 -1 12 28.4 5.4
1 1 -12 30.3 5.9
1 1 -12 37.8 3.1
-1 1 12 27.8 5.2
-1 1 12 39.7 4.8
0 -1 12 108.49 7.5
0 -1 12 113.79 9.2
0 -1 -12 107.99 9.4
0 -1 -12 115.49 5
0 1 -12 111.99 4.9
0 1 12 111.19 9.1
0 1 12 115.59 7.4
0 1 -12 105.69 8.2
-1 -1 -12 12.7 2.1
1 -1 12 2.7 4
-1 -1 -12 10.6 4.1
1 -1 12 5.8 3.4
1 1 12 10.7 4.7
1 1 12 16.8 3.9
-1 1 -12 6.3 3.1
-1 1 -12 8.3 1.8
2 -1 12 14 4.7
-2 -1 -12 13.8 2
2 -1 12 5.4 5.3
-2 -1 -12 10.1 4.2
2 1 12 14.9 5.3
2 1 12 12.4 4.4
-2 1 -12 15.6 2.3
-2 1 -12 15.7 3.8
3 -2 -12 62.89 4
3 -2 -12 34.7 9.2
-3 2 12 67.89 7.3
-3 2 12 52.29 4.8
2 -2 -12 0.7 5.7
2 -2 -12 4.7 1.6
-2 2 12 10.6 3.4
-2 2 12 6.3 2.3
1 -2 -12 32.9 7.4
-1 -2 12 31.1 6
1 -2 -12 35.9 3
-1 -2 12 34.1 5.1
1 2 -12 29.7 5.3
-1 2 12 27.4 5.2
1 2 -12 32 2.8
-1 2 12 30 4.1
0 -2 -12 39.6 6.9
0 -2 12 39.1 6.6
0 -2 12 50.69 6.2
0 -2 -12 39.8 3.1
0 2 12 37.3 6.1
0 2 -12 40.8 3.2
0 2 -12 42.9 5.8
0 2 12 40.3 5
-1 -2 -12 -0.9 1.1
1 -2 12 -0.6 2.4
-1 -2 -12 -3.8 2.7
1 -2 12 -3.5 3.2
1 2 12 -1.8 3
-1 2 -12 2.5 2.6
1 2 12 -1.8 2.4
-1 2 -12 -1.3 1.1
2 -2 12 10.6 5.2
-2 -2 -12 15.4 2.2
2 -2 12 12.6 4.4
-2 -2 -12 10.1 4.4
-2 2 -12 14.6 3.7
2 2 12 15.3 5.9
2 2 12 10.9 4.2
-2 2 -12 15.6 2.2
3 -3 -12 89.39 5.1
3 -3 -12 78.69 11.8
-3 3 12 117.99 8.5
-3 3 12 90.99 5.9
2 -3 -12 17.3 7.8
2 -3 -12 19.7 2.6
-2 3 12 31 5.5
-2 3 12 23.6 3.6
-1 -3 12 3.9 2.7
-1 -3 12 3.3 3.8
1 -3 -12 6.8 5.9
1 -3 -12 6.5 1.6
1 3 -12 5.4 1.8
-1 3 12 10.3 3.3
-1 3 12 5.5 2.4
1 3 -12 5.1 3.3
0 -3 -12 49 8.6
0 -3 12 51.39 6.2
0 -3 12 50.09 7.2
0 -3 -12 54.49 3.5
0 3 -12 47.6 3.4
0 3 -12 51.49 6
0 3 12 53.89 5.9
0 3 12 55.59 7.1
-1 -3 -12 1.7 1.2
-1 -3 -12 -0.5 3.2
1 -3 12 2.6 3.2
1 -3 12 5.2 3.5
-1 3 -12 -1.4 2.3
1 3 12 4 4.1
-1 3 -12 0.3 1.2
1 3 12 -1.5 2.4
2 -4 -12 -2.5 5.9
2 -4 -12 2.5 2.1
-2 4 12 -2.2 3.3
-2 4 12 1.8 1.8
1 -4 -12 3.8 5.4
1 -4 -12 2.2 1.6
-1 4 12 4.7 2
-1 4 12 -0.3 3
0 -4 12 2.2 3.2
0 -4 -12 -2.6 4.8
0 -4 -12 2.5 1.3
0 -4 12 -2.4 2.8
0 4 12 3.8 2.6
0 4 -12 0.4 3.2
0 4 -12 4.3 1.7
0 4 12 6.6 3.5
1 -4 12 12.2 4.1
-1 -4 -12 7.5 2
1 -4 12 7.5 3.9
-1 -4 -12 11.3 5.4
-1 4 -12 6.2 1.9
1 4 12 5 3
-1 4 -12 7.5 3.1
1 4 12 2.9 4.7
2 0 -13 -1.5 4.8
-2 0 13 -1.2 1.8
-2 0 13 -1.3 3.2
2 0 -13 0.9 1.5
1 0 -13 52.49 7.6
1 0 -13 65.09 4.1
-1 0 13 62.79 5.9
-1 0 13 73.09 8.4
0 0 -13 159.28 11
0 0 -13 182.48 6.9
0 0 13 177.88 10
0 0 13 173.68 11.8
-1 0 -13 5.6 3.5
1 0 13 3.7 3.9
-1 0 -13 1.9 1.4
1 0 13 -1.2 2.5
2 -1 -13 82.39 10.2
2 -1 -13 75.79 4.6
-2 1 13 80.79 6
-2 1 13 66.49 8.1
-1 -1 13 0.7 2.3
1 -1 -13 6.5 2
-1 -1 13 2.5 3.9
1 -1 -13 4.3 4.7
-1 1 13 6.9 3.6
1 1 -13 0 4
1 1 -13 5.1 1.8
-1 1 13 2.6 2.3
0 -1 13 75.39 7.2
0 -1 -13 77.49 9.5
0 -1 13 71.99 8.7
0 -1 -13 72.49 4.3
0 1 13 61.09 7.7
0 1 -13 65.49 7.6
0 1 -13 78.29 4.3
0 1 13 81.29 6.7
-1 -1 -13 166.98 6.6
1 -1 13 162.08 10.4
1 -1 13 157.98 11.5
-1 -1 -13 144.89 10.7
1 1 13 156.48 9.9
1 1 13 157.88 11.6
-1 1 -13 151.08 9.8
-1 1 -13 160.08 6.5
2 -2 -13 32.1 8.6
2 -2 -13 37.6 3.5
-2 2 13 40.4 6.3
-2 2 13 33.8 4.9
1 -2 -13 6.9 2.1
-1 -2 13 10.6 4.1
-1 -2 13 9.1 3.4
1 -2 -13 7 5.7
1 2 -13 9.3 4.4
-1 2 13 8.4 3.9
1 2 -13 10 2
-1 2 13 8 2.9
0 -2 13 155.88 11.1
0 -2 -13 157.58 12
0 -2 -13 168.08 6.7
0 -2 13 148.49 9.9
0 2 13 185.18 11.7
0 2 13 161.88 9.3
0 2 -13 152.98 10
0 2 -13 171.88 6.6
1 0 0 474.35 14
1 0 0 455.05 10
-1 0 0 458.15 10.1
-1 0 0 476.75 14.1
2 0 0 231.98 12.7
-2 0 0 266.07 9.5
-2 0 0 237.58 13.3
-2 0 0 241.78 7.7
-2 0 0 230.48 5.3
2 0 0 235.08 7.6
2 0 0 240.18 7.2
3 0 0 462.55 22.5
3 0 0 468.65 10.3
3 0 0 475.75 13.1
3 0 0 460.25 13.6
-3 0 0 453.15 9.8
-3 0 0 489.95 13.7
-3 0 0 460.85 22.4
-3 0 0 478.35 16.1
4 0 0 34.1 4.5
-4 0 0 38.1 2.2
-4 0 0 36.3 6.1
5 0 0 175.58 6.2
-5 0 0 156.28 12.2
-5 0 0 173.28 5.6
5 0 0 169.68 9.1
6 0 0 97.49 8.9
-6 0 0 104.79 4.6
6 0 0 108.29 5.5
-6 0 0 101.09 12.4
7 0 0 24.4 6.3
7 0 0 20.1 3.5
-7 0 0 19 2.7
-7 0 0 10.5 7.5
0 -1 0 -0.1 0.1
0 -1 0 0.1 0.1
0 1 0 -0.1 0.1
0 1 0 0 0.1
-1 -1 0 4736.73 89.79
1 -1 0 5066.79 93.39
1 -1 0 4867.11 125.69
-1 -1 0 4988.9 89.49
-1 -1 0 5184.98 94.29
-1 1 0 5021.6 125.09
1 1 0 4997.3 126.29
-1 1 0 5083.69 93.39
1 1 0 4995.1 90.69
1 1 0 4890.11 93.39
1 1 0 5094.69 94.09
2 -1 0 546.15 11
-2 -1 0 549.65 20.6
2 -1 0 571.84 13.1
-2 -1 0 572.64 15.2
2 -1 0 562.64 20.2
-2 -1 0 581.74 13.9
2 -1 0 544.65 13.4
-2 -1 0 537.75 10.8
2 1 0 575.74 20.6
-2 1 0 572.44 14.7
2 1 0 551.24 13.6
2 1 0 552.74 11.1
-2 1 0 558.24 10.8
-2 1 0 565.34 13.5
-2 1 0 541.65 19.9
2 1 0 558.84 13
3 -1 0 377.66 11.8
3 -1 0 392.36 20.1
-3 -1 0 338.67 19.8
3 -1 0 363.76 8.6
3 -1 0 366.86 11.3
-3 -1 0 422.66 15.4
-3 -1 0 374.66 8.3
-3 -1 0 367.46 11.9
3 1 0 366.36 20
3 1 0 392.76 8.7
3 1 0 376.46 11.9
3 1 0 348.77 11.1
-3 1 0 385.66 11.7
-3 1 0 369.56 19.6
-3 1 0 384.86 14
-3 1 0 373.86 8.2
4 -1 0 23.9 2.2
4 -1 0 13.1 3.4
-4 -1 0 12.9 4.4
-4 -1 0 19 1.6
-4 1 0 20.3 4.6
-4 1 0 19.8 1.9
4 1 0 17.1 1.9
4 1 0 16.7 3.2
5 -1 0 176.78 9.9
-5 -1 0 179.08 5.7
-5 -1 0 152.18 13
5 -1 0 183.98 6.5
5 1 0 178.88 6.4
-5 1 0 185.18 5.8
5 1 0 188.38 9.6
-5 1 0 150.08 12.3
-6 -1 0 3 5.3
6 -1 0 7.9 2.5
-6 -1 0 5.9 1.6
6 -1 0 7.2 4.9
6 1 0 8.1 2
6 1 0 8 3.8
-6 1 0 7.2 1.7
-6 1 0 10.4 6.1
-7 -1 0 65.59 4.2
-7 -1 0 47.2 10.5
7 -1 0 66.39 5.3
7 -1 0 41.8 7.1
7 1 0 67.49 4.8
-7 1 0 69.79 4.2
-7 1 0 56.09 10.8
7 1 0 63.69 8.6
0 -2 0 9727.43 205.48
0 -2 0 9611.04 206.68
0 2 0 9479.95 197.68
0 2 0 9774.72 201.88
1 -2 0 2057.59 37.9
-1 -2 0 2120.99 43.9
-1 -2 0 2036.7 38.1
1 -2 0 2102.29 42.6
-1 -2 0 2028.8 37.7
-1 2 0 2033.9 37.5
1 2 0 2001.6 38
1 2 0 2092.29 37.3
-1 2 0 2104.39 42.2
1 2 0 1945.31 38.8
-2 -2 0 748.63 17.2
-2 -2 0 733.73 14.1
2 -2 0 770.72 16.4
2 -2 0 733.73 14.2
2 -2 0 746.53 16.9
-2 -2 0 759.62 25.4
-2 -2 0 744.53 18.9
2 -2 0 698.33 23.5
-2 2 0 746.73 16.7
2 2 0 740.73 14.4
2 2 0 753.32 17.3
-2 2 0 726.93 13.9
-2 2 0 723.63 23.6
2 2 0 739.43 16.3
-2 2 0 764.52 17.8
3 -2 0 621.14 15.9
-3 -2 0 628.54 12.7
3 -2 0 604.74 25.7
3 -2 0 628.14 12.9
3 -2 0 623.14 16.5
-3 -2 0 635.34 19.6
-3 2 0 597.34 25.4
-3 2 0 616.44 12.5
3 2 0 620.54 13.1
3 2 0 626.94 15.9
-3 2 0 637.14 16.5
-3 2 0 633.04 18.1
4 -2 0 85.69 6.6
-4 -2 0 92.99 3.5
-4 -2 0 84.89 8.9
4 -2 0 89.79 4
-4 2 0 89.89 7.6
4 2 0 100.79 6
-4 2 0 92.89 3.5
4 2 0 93.89 3.9
5 -2 0 95.79 5
-5 -2 0 76.99 9.8
-5 -2 0 101.19 4.1
5 -2 0 103.99 8.7
-5 2 0 101.89 4.3
5 2 0 94.69 4.6
-5 2 0 98.29 10.6
5 2 0 102.89 7.1
-6 -2 0 64.89 10.7
-6 -2 0 60.99 3.7
6 -2 0 66.39 8.8
6 -2 0 59.49 4.8
6 2 0 42.9 6
6 2 0 60.89 4.2
-6 2 0 63.79 3.6
-6 2 0 60.79 10.1
-7 -2 0 31.4 3.5
7 -2 0 25.4 3.9
7 -2 0 28.9 7
-7 -2 0 28.9 8.3
7 2 0 22.6 6
7 2 0 27.2 3.5
-7 2 0 22.7 7.7
-7 2 0 26.9 3
0 -3 0 0.4 1
0 -3 0 -0.1 0.6
0 3 0 0.2 0.5
0 3 0 0.1 0.4
1 -3 0 276.67 10.1
1 -3 0 261.27 7.2
-1 -3 0 252.47 7.3
-1 -3 0 263.27 11.1
-1 -3 0 257.87 5.4
-1 3 0 254.57 6.5
1 3 0 271.97 9.9
1 3 0 256.17 7.1
1 3 0 264.07 5.5
-1 3 0 271.07 8.9
-2 -3 0 309.87 6.9
2 -3 0 321.97 9.5
-2 -3 0 321.97 9.8
-2 -3 0 331.77 16.9
2 -3 0 316.67 7.1
2 -3 0 334.47 9
2 -3 0 322.77 15.1
-2 -3 0 326.67 11.7
-2 3 0 330.47 14.7
2 3 0 316.67 7.1
-2 3 0 321.87 9.9
-2 3 0 317.77 6.7
-2 3 0 333.37 9.1
2 3 0 318.17 9.7
2 3 0 329.97 8.9
3 -3 0 189.98 5.5
-3 -3 0 185.88 5.1
3 -3 0 212.48 8.3
3 -3 0 199.28 15
3 -3 0 185.98 8.1
-3 3 0 219.58 14.6
-3 3 0 181.48 7.8
-3 3 0 181.88 4.9
3 3 0 186.38 5.4
3 3 0 218.78 7.7
4 -3 0 24.7 4.6
-4 -3 0 34.2 6.8
-4 -3 0 29.7 2.1
4 -3 0 22.3 2.6
4 3 0 24.4 2.1
-4 3 0 31.1 5.3
4 3 0 29 4
-4 3 0 27.8 1.9
5 -3 0 211.88 7.6
5 -3 0 215.18 11.6
-5 -3 0 217.48 6.7
-5 -3 0 195.58 14.7
-5 3 0 197.98 13
5 3 0 223.48 10.5
-5 3 0 218.88 6.6
5 3 0 225.68 7.3
-6 -3 0 43.2 9.7
-6 -3 0 25 2.8
6 -3 0 24.7 3.6
6 -3 0 27.7 6.4
6 3 0 21.9 4.7
-6 3 0 22.9 6.3
-6 3 0 30.8 2.6
6 3 0 34.1 3.2
-7 -3 0 4.9 2.1
-7 -3 0 11.4 8
7 -3 0 2.7 5.2
7 -3 0 2.4 2.7
-7 3 0 -3.4 6
7 3 0 3.4 1.7
-7 3 0 1.6 1.4
0 -4 0 538.85 13.1
0 4 0 532.85 11.2
0 4 0 530.15 12
1 -4 0 162.48 4.9
1 -4 0 162.68 6.6
-1 -4 0 161.48 3.8
-1 -4 0 173.78 10.3
1 -4 0 170.98 4.9
1 -4 0 153.18 8.1
-1 -4 0 163.18 6
1 4 0 169.58 4.6
1 4 0 161.38 5.5
-1 4 0 167.78 6.2
-1 4 0 159.38 4.8
1 4 0 168.68 8.1
-1 4 0 162.18 4.4
1 4 0 160.48 3.9
-1 4 0 162.88 3.5
-2 -4 0 692.83 17.1
2 -4 0 673.83 15.4
-2 -4 0 654.03 24.9
2 -4 0 695.83 13.7
2 -4 0 675.93 22.9
-2 -4 0 686.93 13.4
2 -4 0 675.43 16.9
-2 -4 0 677.23 19.1
2 4 0 683.33 13.6
-2 4 0 680.33 21.3
-2 4 0 660.73 15.7
-2 4 0 673.43 15.6
-2 4 0 687.63 12.9
2 4 0 715.23 16.9
-3 -4 0 48.6 6.7
-3 -4 0 54.29 2.5
3 -4 0 42.6 5.1
3 -4 0 56.49 3.3
-3 4 0 55.49 5.7
3 4 0 52.59 2.6
-3 4 0 54.29 2.3
-4 -4 0 166.88 5.2
4 -4 0 168.48 6
4 -4 0 168.58 9.8
-4 -4 0 142.69 11.9
4 4 0 163.68 5.6
-4 4 0 166.58 4.9
-4 4 0 163.58 9.8
4 4 0 150.98 8.2
-5 -4 0 75.99 10.8
5 -4 0 97.99 9.1
-5 -4 0 111.29 4.6
5 -4 0 102.29 6
-5 4 0 94.19 10.5
-5 4 0 106.49 4.3
5 4 0 114.09 4.9
-6 -4 0 15.6 8.2
-6 -4 0 23.8 2.9
6 4 0 20.2 2.7
-2 -5 0 142.59 4
-2 -5 0 136.19 9.4
2 5 0 138.99 4
-3 -5 0 289.37 7.2
-3 -5 0 301.67 14.4
3 5 0 286.37 7.4
-4 -5 0 12.5 1.8
-4 -5 0 17.4 7.8
4 5 0 14.2 1.9
-5 -5 0 50.29 3.4
-5 -5 0 36 10.2
5 5 0 55.39 3.7
-6 -5 0 120.39 5.6
-6 -5 0 99.39 14.5
6 5 0 121.89 5.9
-7 0 1 9.4 6
7 0 -1 -1.9 4.1
-7 0 1 1.8 1.5
7 0 -1 4.9 2.2
6 0 -1 91.49 5.2
-6 0 1 97.89 4.5
-6 0 1 83.59 11
6 0 -1 106.19 8.8
5 0 -1 67.99 3.7
5 0 -1 52.09 5.9
-5 0 1 57.39 8.9
-5 0 1 68.49 3.2
4 0 -1 8.6 1.5
-4 0 1 6.4 4.8
4 0 -1 8.5 2.7
-4 0 1 9 1.3
-3 0 1 431.36 21.7
3 0 -1 423.86 9.4
-3 0 1 418.86 9
3 0 -1 426.96 12.6
-3 0 1 429.06 12.6
-3 0 1 426.06 15.1
3 0 -1 428.76 11.9
-2 0 1 326.67 6.8
2 0 -1 336.27 9.4
2 0 -1 330.47 8.6
-2 0 1 345.17 9.4
-2 0 1 301.47 14.4
2 0 -1 338.47 7.2
1 0 -1 31.1 1.8
-1 0 1 31.7 1.8
-1 0 -1 1514.05 28.8
-1 0 -1 1493.45 29
1 0 1 1564.44 34.7
1 0 1 1474.75 29.6
-1 0 -1 1507.85 34.2
1 0 1 1474.65 28.8
-1 0 -1 1501.85 29.3
1 0 1 1567.24 28.5
-2 0 -1 253.37 5.7
2 0 1 271.17 8.3
-2 0 -1 258.07 9.1
2 0 1 270.07 14
-2 0 -1 273.07 8.2
2 0 1 260.07 6
-2 0 -1 257.37 13.5
3 0 1 496.95 14.6
3 0 1 539.45 11.5
3 0 1 461.65 28.7
-3 0 -1 567.34 17.9
-3 0 -1 535.35 11
4 0 1 11.6 1.7
-4 0 -1 11.6 4.2
-4 0 -1 9.6 1.5
4 0 1 11.7 2.9
-5 0 -1 140.49 11.6
-5 0 -1 144.49 5.2
5 0 1 138.09 9.3
5 0 1 142.69 5.7
-6 0 -1 18.3 7.1
6 0 1 9.6 2.5
-6 0 -1 5.7 1.6
6 0 1 5.1 4.1
7 0 1 14 5.6
-7 0 -1 14.9 7.5
7 0 1 19 3.4
-7 0 -1 17.7 2.6
-7 -1 1 1 6.1
-7 -1 1 3.8 1.8
7 -1 -1 2.9 2.3
7 -1 -1 11.1 5.5
-7 1 1 3.8 5.7
7 1 -1 3.9 2.2
-7 1 1 6.8 1.9
7 1 -1 -2.6 5.2
6 -1 -1 4.3 2.3
-6 -1 1 -1 5.1
6 -1 -1 6.9 4.8
-6 -1 1 5.3 1.5
-6 1 1 11.1 5.9
6 1 -1 8.5 3.8
-6 1 1 2.9 1.3
6 1 -1 1.4 1.8
5 -1 -1 8.5 2
-5 -1 1 7.9 1.5
-5 -1 1 0.4 6
5 -1 -1 10.4 4
-5 1 1 7.7 1.4
5 1 -1 5.7 3
5 1 -1 10.9 1.8
-5 1 1 -3.6 4.8
4 -1 -1 26.3 4.1
-4 -1 1 31 2
-4 -1 1 26.2 5.5
4 -1 -1 31.5 2.4
-4 1 1 23.7 5.1
-4 1 1 34.3 2
4 1 -1 28.6 2.3
4 1 -1 25.2 3.5
3 -1 -1 108.59 3.6
-3 -1 1 145.69 10.5
-3 -1 1 104.19 3.3
3 -1 -1 104.49 5.6
-3 -1 1 108.19 6
3 -1 -1 109.59 12.6
3 -1 -1 111.79 5.8
-3 -1 1 95.79 12.3
-3 1 1 106.29 3.3
3 1 -1 105.09 3.6
-3 1 1 118.59 13.6
3 1 -1 107.39 5.8
-3 1 1 113.29 8.6
-3 1 1 110.09 5.8
3 1 -1 98.59 5.3
2 -1 -1 274.57 7.5
-2 -1 1 265.77 8.4
2 -1 -1 270.07 7.9
2 -1 -1 262.97 12.7
-2 -1 1 287.27 13.9
-2 -1 1 259.27 5.8
2 -1 -1 270.47 6
2 1 -1 272.07 6.2
2 1 -1 265.87 8.3
-2 1 1 268.27 13.2
2 1 -1 279.87 7.6
-2 1 1 271.17 5.8
-2 1 1 263.27 8
-2 1 1 298.77 9.5
1 -1 -1 428.36 9.1
-1 -1 1 418.36 8.1
-1 -1 1 425.86 10
-1 1 1 425.36 9.2
1 1 -1 415.56 9.8
-1 1 1 426.46 12.4
1 1 -1 446.36 12.8
1 1 -1 424.66 8.2
0 -1 -1 459.65 8.9
0 -1 -1 479.85 9.7
0 -1 1 459.15 11
0 -1 1 486.75 11
0 1 -1 472.05 10.8
0 1 1 427.26 9.9
0 1 -1 483.05 10.8
0 1 1 463.05 9
-1 -1 -1 1234.78 23.7
1 -1 1 1128.09 21.3
-1 -1 -1 1186.28 22.8
1 -1 1 1181.78 22.7
1 -1 1 1230.88 28.9
-1 -1 -1 1173.58 28.2
1 -1 1 1141.59 23.4
-1 -1 -1 1115.59 21.6
1 1 1 1229.88 22.7
-1 1 -1 1177.28 28.2
1 1 1 1156.18 21.6
1 1 1 1128.59 22.9
1 1 1 1243.78 28.8
-1 1 -1 1213.78 23.4
-1 1 -1 1147.89 22.4
-1 1 -1 1174.88 23.3
-2 -1 -1 257.67 8.1
2 -1 1 250.67 7.8
-2 -1 -1 256.87 13.6
2 -1 1 262.37 6
2 -1 1 270.37 13.8
-2 -1 -1 246.38 5.6
-2 -1 -1 257.97 9.2
2 -1 1 261.97 8.3
-2 1 -1 263.47 9
2 1 1 248.58 7.7
2 1 1 247.38 8
-2 1 -1 266.67 8.2
-2 1 -1 242.48 13.1
2 1 1 253.97 13.6
-2 1 -1 249.88 5.6
2 1 1 248.68 5.9
3 -1 1 14.3 3.1
3 -1 1 4.1 1.9
-3 -1 -1 3.9 1
3 -1 1 4 1.1
-3 -1 -1 6.5 3.8
3 -1 1 1.3 3.8
3 1 1 5.1 2.5
-3 1 -1 6.4 1
-3 1 -1 1.3 3.3
-3 1 -1 8.1 6.8
3 1 1 4.9 1.2
-3 1 -1 7.5 2.3
-4 -1 -1 1014.9 29.4
-4 -1 -1 1103.69 21.6
4 -1 1 1070.69 26.4
4 -1 1 1117.59 22.3
4 1 1 1130.59 22.3
-4 1 -1 1105.69 29.8
-4 1 -1 1114.49 21.6
4 1 1 1101.49 26.3
-5 -1 -1 16 6.2
-5 -1 -1 26.7 2.5
5 -1 1 24.9 3.2
5 -1 1 16.2 4.3
-5 1 -1 24.3 2.3
5 1 1 26.2 3
5 1 1 18.7 4
-5 1 -1 26.4 6.9
6 -1 1 46.9 4.4
6 -1 1 38.4 7.5
-6 -1 -1 55.39 10.5
-6 -1 -1 47.9 3.3
-6 1 -1 42.7 9.7
-6 1 -1 52.39 3.6
6 1 1 48.6 3.9
6 1 1 46.4 7
-7 -1 -1 73.59 4.4
7 -1 1 76.89 5.7
7 -1 1 85.59 9.9
-7 -1 -1 62.09 12
7 1 1 78.49 5.3
-7 1 -1 55.59 10.1
-7 1 -1 76.09 4.4
7 1 1 53.09 7.2
-7 -2 1 21.5 3
7 -2 -1 22.4 3.6
7 -2 -1 27.5 6.7
-7 -2 1 26.1 8.8
-7 2 1 15.4 7.4
-7 2 1 26.9 3.1
7 2 -1 16.9 3.2
6 -2 -1 66.09 8.1
6 -2 -1 67.09 5
-6 -2 1 57.29 10
-6 -2 1 64.89 3.8
-6 2 1 63.29 3.5
6 2 -1 59.59 4.1
6 2 -1 48.4 6.7
-6 2 1 45.8 8.7
-5 -2 1 27.1 7
5 -2 -1 27.1 5.2
5 -2 -1 28.2 3
-5 -2 1 27.3 2.4
5 2 -1 37.7 5.1
-5 2 1 28.3 6.3
5 2 -1 33.7 3
-5 2 1 30.1 2.3
-4 -2 1 43.8 6.8
4 -2 -1 57.59 5.8
4 -2 -1 56.09 3.2
-4 -2 1 55.19 2.7
4 2 -1 56.29 3
-4 2 1 49.7 6.4
-4 2 1 57.79 2.6
4 2 -1 50.29 4.3
3 -2 -1 254.87 8.8
3 -2 -1 241.38 15.4
-3 -2 1 263.87 12.7
3 -2 -1 247.78 8.8
-3 -2 1 260.47 6.2
3 -2 -1 249.08 6.3
-3 2 1 251.67 10.8
3 2 -1 249.08 6.5
-3 2 1 257.37 9
-3 2 1 260.87 6.1
3 2 -1 249.28 8.6
-3 2 1 265.07 16.2
-2 -2 1 423.76 8.9
2 -2 -1 439.66 16.5
2 -2 -1 462.15 11.2
2 -2 -1 457.75 10.6
-2 -2 1 433.86 18.2
-2 -2 1 440.86 12.1
2 -2 -1 447.96 8.9
-2 2 1 433.46 16.7
-2 2 1 463.75 12.3
2 2 -1 446.26 9.3
-2 2 1 432.86 8.7
-2 2 1 443.26 11.1
2 2 -1 440.56 11.9
-1 -2 1 1846.62 34.9
1 -2 -1 1918.21 38.1
-1 -2 1 1861.21 36.4
-1 -2 1 2009.5 35.8
1 -2 -1 1867.41 34.5
1 2 -1 1890.41 36.7
-1 2 1 1952.1 38.5
-1 2 1 1910.81 34.5
1 2 -1 1864.11 36.1
1 2 -1 1951.6 40.5
0 -2 1 187.68 6.6
0 -2 1 176.78 6.1
0 2 -1 188.98 6.2
0 2 -1 175.98 5.7
-1 -2 -1 1103.19 22.6
-1 -2 -1 1099.59 21.6
-1 -2 -1 1055.39 19.7
-1 -2 -1 1119.09 27.5
1 -2 1 1090.69 20.4
1 -2 1 1104.59 27.8
1 -2 1 1086.29 22.9
1 -2 1 1175.08 21.6
-1 2 -1 1058.19 19.9
1 2 1 1073.69 20.4
-1 2 -1 1132.89 22
1 2 1 1151.68 27.4
-1 2 -1 1135.59 26.8
-1 2 -1 1082.39 22.3
1 2 1 1083.59 21.7
1 2 1 1122.69 21.3
-2 -2 -1 130.69 5.4
2 -2 1 122.29 3.7
-2 -2 -1 123.49 9.5
2 -2 1 128.99 5.7
-2 -2 -1 122.79 3.3
2 -2 1 120.49 9.3
-2 -2 -1 129.29 6.5
2 -2 1 129.69 5.3
-2 2 -1 123.49 3.3
-2 2 -1 126.19 6.1
2 2 1 120.99 5.3
2 2 1 128.39 3.6
-2 2 -1 132.29 5.4
-2 2 -1 122.79 9.4
2 2 1 126.89 5
2 2 1 140.59 10.1
-3 -2 -1 99.49 8.1
3 -2 1 80.69 5.7
3 -2 1 78.09 3.4
3 -2 1 54.59 16.1
-3 -2 -1 87.19 3.1
-3 2 -1 84.39 7.3
-3 2 -1 84.59 2.9
3 2 1 83.09 3.2
3 2 1 78.39 5.1
-4 -2 -1 22.8 1.9
4 -2 1 18.7 4.3
-4 -2 -1 17 4.6
4 -2 1 19.5 2.3
4 2 1 20.6 3.7
-4 2 -1 22.2 1.9
4 2 1 19.9 2
-4 2 -1 24 5
5 -2 1 64.29 4.5
5 -2 1 69.49 7.8
-5 -2 -1 71.59 3.5
-5 -2 -1 69.39 10.1
5 2 1 71.19 6.6
-5 2 -1 71.59 9.3
-5 2 -1 68.69 3.5
5 2 1 75.59 4
-6 -2 -1 8 1.8
-6 -2 -1 6.5 6.2
6 -2 1 5.9 2.7
6 -2 1 5.1 5.6
-6 2 -1 19.1 6.5
-6 2 -1 6.1 1.8
6 2 1 9.9 4.3
6 2 1 15.3 2.4
7 -2 1 90.29 6.3
-7 -2 -1 57.39 11.5
7 -2 1 86.29 10.3
-7 -2 -1 90.39 5
-7 2 -1 67.69 11.9
7 2 1 77.79 5.4
-7 2 -1 80.29 4.6
-7 -3 1 5.6 8
7 -3 -1 8.2 2.9
-7 -3 1 6.4 1.8
7 -3 -1 7.1 5.4
-7 3 1 4 1.6
7 3 -1 2.9 2.1
-7 3 1 -1.2 5.4
-6 -3 1 4 1.6
6 -3 -1 4.6 2.3
6 -3 -1 6.5 5.3
-6 -3 1 1.2 6.5
-6 3 1 3.6 1.3
-6 3 1 1 4.8
6 3 -1 3.1 1.4
-5 -3 1 18.8 7.4
5 -3 -1 30.6 5.8
-5 -3 1 20.8 2.4
5 -3 -1 19.5 3
5 3 -1 19.3 2.5
-5 3 1 23.3 2.3
-5 3 1 15.5 5.5
4 -3 -1 256.57 7.2
-4 -3 1 255.37 6.9
4 -3 -1 260.87 10.3
-4 -3 1 232.28 13.4
-4 3 1 263.17 6.6
4 3 -1 253.77 7.2
-4 3 1 253.27 11.7
3 -3 -1 5.9 5.4
3 -3 -1 3.5 2.5
3 -3 -1 3 1.7
-3 -3 1 4.6 1
3 -3 -1 4 1.2
-3 -3 1 3.3 4.1
-3 3 1 4.8 0.9
-3 3 1 3.5 2.5
-3 3 1 4.3 1.8
-3 3 1 4.6 3.3
3 3 -1 3.3 1
-2 -3 1 937.51 17.9
2 -3 -1 941.81 26.6
2 -3 -1 947.41 17.6
2 -3 -1 930.51 19.9
-2 -3 1 952.9 21.8
2 -3 -1 959 19.3
-2 -3 1 903.41 29.6
2 3 -1 957.7 21.4
-2 3 1 933.21 17.3
-2 3 1 927.21 26.6
-2 3 1 930.11 20.7
-2 3 1 958.2 19.9
2 3 -1 975 27.9
2 3 -1 947.21 18.1
1 -3 -1 340.07 7.7
-1 -3 1 366.46 9.2
1 -3 -1 359.86 10
-1 -3 1 363.26 10
-1 -3 1 354.56 7.3
1 3 -1 360.96 8
-1 3 1 347.97 9.6
1 3 -1 356.96 12.3
1 3 -1 342.17 7.3
-1 3 1 351.56 7.4
1 3 -1 353.46 9.4
0 -3 1 517.65 13.7
0 -3 1 546.15 14.4
0 -3 1 526.65 10.5
0 -3 1 529.85 11.3
0 3 -1 533.25 10.3
0 3 -1 544.75 13.4
0 3 -1 526.35 12.6
0 3 -1 518.55 10.3
1 -3 1 405.96 8.6
-1 -3 -1 395.66 9.4
-1 -3 -1 399.16 10.3
1 -3 1 390.76 10.9
1 -3 1 394.36 14.4
-1 -3 -1 380.76 7.5
-1 -3 -1 387.06 13.9
1 -3 1 400.06 9.2
-1 3 -1 389.36 12.7
-1 3 -1 384.06 10
-1 3 -1 397.96 9.3
1 3 1 388.86 9.3
1 3 1 382.16 7.7
1 3 1 403.86 8.8
-1 3 -1 401.66 7.8
-2 -3 -1 512.45 15.3
2 -3 1 519.65 13
-2 -3 -1 494.35 10.1
2 -3 1 507.25 14.2
2 -3 1 517.95 10.9
-2 -3 -1 517.15 21.2
2 -3 1 513.75 20.7
-2 -3 -1 523.85 13.2
-2 3 -1 518.75 13.3
2 3 1 509.15 12.6
2 3 1 500.75 13.2
-2 3 -1 494.25 19.5
-2 3 -1 527.05 13.8
-2 3 -1 503.25 10.2
2 3 1 498.95 10.5
-3 -3 -1 19 1.5
3 -3 1 13.6 3.1
-3 -3 -1 19.5 4.5
3 -3 1 21.9 2.2
3 3 1 16.6 2.6
-3 3 -1 16.5 3.4
3 3 1 19.5 1.6
-3 3 -1 18 1.4
-4 -3 -1 335.97 8.2
4 -3 1 315.27 12.5
-4 -3 -1 331.57 15.2
4 -3 1 335.27 9.2
4 3 1 331.77 11.6
-4 3 -1 304.27 13.5
4 3 1 331.07 8.8
-4 3 -1 334.37 8.1
-5 -3 -1 96.79 4.1
5 -3 1 87.09 5.1
-5 -3 -1 87.49 11.3
5 -3 1 78.39 8.4
5 3 1 86.99 7.1
5 3 1 84.99 4.5
-5 3 -1 82.39 9.6
-5 3 -1 94.79 4.1
-6 -3 -1 68.39 10.6
6 -3 1 63.49 5.2
-6 -3 -1 66.19 3.8
6 -3 1 67.39 8.9
-6 3 -1 59.69 3.8
6 3 1 63.89 4.2
6 3 1 63.09 7.4
-6 3 -1 45 8.1
-6 -4 1 33.7 9.6
-6 -4 1 34 3
6 4 -1 40.6 3.3
-5 -4 1 129.99 5
-5 -4 1 106.69 12.8
5 4 -1 120.69 5.3
-4 -4 1 1.8 5
-4 -4 1 3 1
4 4 -1 5.1 1.2
-3 -4 1 27.2 6.2
3 -4 -1 21.8 2.4
3 -4 -1 23.9 4.7
-3 -4 1 24.3 1.7
-3 4 1 20.8 4.6
-3 4 1 23 1.7
3 4 -1 21.6 2.1
-2 -4 1 42.1 8
-2 -4 1 49.8 2.1
2 -4 -1 56.29 2.9
-2 -4 1 55.29 4.2
-2 4 1 51.49 2.2
2 4 -1 51.19 3.9
2 4 -1 51.39 7
2 4 -1 49.9 2.3
-2 4 1 40.4 4.4
-1 -4 1 1252.37 27
-1 -4 1 1283.77 25.4
-1 -4 1 1246.18 22.9
1 4 -1 1249.18 22.9
1 4 -1 1251.37 25.7
1 4 -1 1186.28 29.7
1 4 -1 1248.08 23.8
0 -4 1 363.06 8.8
0 -4 1 355.86 12
0 -4 1 340.27 7.7
0 -4 1 346.67 11.4
0 4 -1 363.36 7.4
0 4 -1 350.86 10.2
0 4 -1 350.86 7.4
0 4 -1 352.06 9.6
1 -4 1 491.25 17.1
1 -4 1 471.15 13.8
1 -4 1 483.75 11
-1 -4 -1 480.85 9.1
-1 -4 -1 468.65 12.3
-1 -4 -1 484.35 11.3
1 -4 1 489.45 10.6
-1 -4 -1 445.66 16.1
1 4 1 483.05 14.4
1 4 1 478.25 9.3
1 4 1 471.55 11
-1 4 -1 481.05 14
-1 4 -1 473.25 10.7
-1 4 -1 474.05 9.3
-1 4 -1 498.25 12.1
2 -4 1 18.7 2.9
2 -4 1 20.8 2.2
-2 -4 -1 25.4 3
-2 -4 -1 17.7 3.8
2 -4 1 17.9 3.1
2 -4 1 17.9 5.6
-2 -4 -1 20.6 1.4
-2 -4 -1 20.9 6.2
-2 4 -1 19.3 2.5
-2 4 -1 19.4 3.3
-2 4 -1 20.4 1.4
2 4 1 24.1 2.8
2 4 1 28.3 2.5
-2 4 -1 18.7 4.4
2 4 1 20 1.5
-3 -4 -1 19.5 1.7
-3 -4 -1 19.3 5
3 -4 1 17.6 4.1
3 -4 1 15.3 2.3
-3 4 -1 21.6 3.7
3 4 1 24.7 3.3
3 4 1 24.2 1.8
-3 4 -1 20.1 1.5
4 -4 1 24.6 3
4 -4 1 13.5 5.4
-4 -4 -1 27.1 2.2
-4 -4 -1 20.1 7
-4 4 -1 29.5 6.3
4 4 1 21.7 4
-4 4 -1 21.2 1.8
4 4 1 22 2.4
5 -4 1 10.4 2.9
-5 -4 -1 8.5 1.7
5 -4 1 10.8 5.3
-5 -4 -1 2 7
5 4 1 16.5 4
-5 4 -1 10.6 1.8
-5 4 -1 10.3 4.6
5 4 1 8.8 1.9
-6 -4 -1 4.9 7.1
6 -4 1 0.9 6
-6 -4 -1 3.7 1.7
6 4 1 3.2 1.4
6 4 1 2.2 2.8
-6 4 -1 -4 7.1
-6 4 -1 3.4 2.3
-6 -5 1 22.3 9.9
-6 -5 1 16.2 2.7
6 5 -1 18.9 2.6
-5 -5 1 112.89 5
-5 -5 1 107.49 13.8
5 5 -1 124.09 5.4
-4 -5 1 99.39 4.2
-4 -5 1 77.39 11.3
4 5 -1 98.09 4.2
-3 -5 1 394.86 9.1
-3 -5 1 363.66 16.7
3 5 -1 387.86 9.3
-2 -5 1 335.97 7.7
2 5 -1 336.17 8.9
2 5 -1 330.87 7.8
-1 -5 1 81.49 2.8
1 5 -1 79.29 2.7
1 5 -1 81.49 3.2
-3 -5 -1 10.9 5.1
-3 -5 -1 20.4 1.9
3 5 1 20.7 1.6
-4 -5 -1 88.99 10.7
-4 -5 -1 91.89 4
4 5 1 86.29 4.2
-5 -5 -1 33.8 3.2
-5 -5 -1 32.1 9.5
5 5 1 31.2 3.1
-6 -5 -1 35.4 10.2
-6 -5 -1 24.6 3
6 5 1 33.5 3.1
7 0 -2 2.7 2.3
-7 0 2 3.8 1.7
-7 0 2 4.4 5.6
6 0 -2 31.4 6.4
-6 0 2 27.1 2.5
6 0 -2 30.8 3.6
-6 0 2 35.5 8.5
5 0 -2 292.27 11.9
-5 0 2 288.47 7.9
-5 0 2 270.17 16.2
5 0 -2 291.57 8.5
-4 0 2 0.3 0.6
4 0 -2 0.5 0.9
-4 0 2 10.1 4.3
4 0 -2 -0.4 1.6
-3 0 2 205.28 15
-3 0 2 232.68 8.8
-3 0 2 215.28 5.4
3 0 -2 205.78 8.2
3 0 -2 222.78 5.7
3 0 -2 209.68 7.8
-2 0 2 0.9 0.4
-2 0 2 0.9 0.9
2 0 -2 1.4 0.5
2 0 -2 1.4 0.8
-1 0 2 19.4 0.9
1 0 -2 14.1 1.6
-1 0 2 23.9 1.9
-1 0 2 15 1.3
-1 0 2 11.8 2.1
1 0 -2 15.3 0.9
1 0 -2 20 2.7
0 0 -2 2840.32 52.79
0 0 -2 2785.62 51.99
0 0 2 2865.71 53.59
0 0 2 2744.73 52.49
1 0 2 93.59 2.8
-1 0 -2 97.19 2.6
-1 0 -2 106.19 6.9
1 0 2 101.49 7
-1 0 -2 100.69 4.2
-1 0 -2 103.09 4.2
1 0 2 102.19 3.8
2 0 2 25.9 3
-2 0 -2 29.3 3.7
-2 0 -2 29.6 6.1
-2 0 -2 27.7 1.4
2 0 2 22.2 5.1
2 0 2 21.9 2.6
-2 0 -2 31.3 2.7
-3 0 -2 52.19 6.2
3 0 2 50.59 4.5
3 0 2 57.79 2.8
-3 0 -2 55.39 2.5
4 0 2 92.09 4.1
-4 0 -2 85.19 8.4
-4 0 -2 89.99 3.6
4 0 2 79.59 6.2
-5 0 -2 2.7 1.2
5 0 2 0.7 1.1
-5 0 -2 7 5.2
5 0 2 -0.9 3
-6 0 -2 26.5 7.6
6 0 2 46.2 7.5
-6 0 -2 32.8 3
6 0 2 43.8 4.1
7 0 2 38.4 7.4
7 0 2 62.99 5.3
-7 0 -2 49 11
-7 0 -2 59.49 4.1
7 -1 -2 4.7 2.5
-7 -1 2 6.8 1.7
-7 -1 2 15.9 6.5
-7 1 2 -5.5 4.8
-7 1 2 4 1.8
7 1 -2 7.1 2.3
6 -1 -2 19.3 5.4
-6 -1 2 19.5 2.4
6 -1 -2 22 3.3
-6 -1 2 17.2 6.3
6 1 -2 17.4 2.7
-6 1 2 15.9 6.2
-6 1 2 25.8 2.7
5 -1 -2 48.6 6.1
5 -1 -2 75.19 4.2
-5 -1 2 50.79 10
-5 -1 2 75.69 3.6
-5 1 2 74.39 3.4
-5 1 2 86.29 10.5
5 1 -2 71.69 3.9
5 1 -2 52.39 6.4
-4 -1 2 92.09 9.5
4 -1 -2 96.09 3.9
4 -1 -2 81.29 5.5
-4 -1 2 90.69 3.5
-4 1 2 93.49 8.6
4 1 -2 81.19 5.5
-4 1 2 93.49 3.4
4 1 -2 92.49 3.9
3 -1 -2 222.78 5.8
3 -1 -2 221.98 8.3
3 -1 -2 223.78 7.8
-3 -1 2 229.88 5.7
-3 1 2 211.78 14.9
-3 1 2 222.38 5.5
3 1 -2 236.78 6.1
-3 1 2 216.98 11.4
-3 1 2 238.08 8.7
2 -1 -2 30.5 2.3
-2 -1 2 21.8 1.2
2 -1 -2 27.2 2.3
2 -1 -2 25.2 1.4
-2 -1 2 26.9 3
2 1 -2 26.6 4.9
-2 1 2 23.4 1.2
2 1 -2 26.4 2.9
2 1 -2 25.5 1.5
-2 1 2 23.5 2.5
-2 1 2 24.8 4.7
1 -1 -2 20.4 1.5
-1 -1 2 18.5 2.2
1 -1 -2 21.5 1
-1 -1 2 23.9 1.8
-1 -1 2 17.2 2.7
1 -1 -2 23.4 2.9
-1 -1 2 21.1 1
1 1 -2 17.1 2
1 1 -2 21.9 1.3
1 1 -2 20.7 1.1
-1 1 2 20.9 0.9
-1 1 2 20.7 1.6
1 1 -2 18.7 2.9
-1 1 2 26.3 1.6
0 -1 -2 439.26 10.1
0 -1 2 468.55 12.7
0 -1 2 455.05 9.2
0 -1 -2 455.95 11.1
0 -1 2 453.15 9.6
0 -1 2 460.55 12.4
0 1 -2 455.05 9
0 1 -2 459.05 12.2
0 1 2 444.46 10.6
0 1 2 452.25 11.8
0 1 -2 461.05 12
1 -1 2 267.27 11.8
-1 -1 -2 261.87 7.6
-1 -1 -2 252.47 11
-1 -1 -2 255.87 5.4
1 -1 2 271.17 8.4
1 -1 2 259.17 6
-1 -1 -2 254.37 7.2
1 -1 2 271.07 7
-1 1 -2 267.87 7.5
1 1 2 255.07 7.5
-1 1 -2 254.27 5.6
1 1 2 258.47 5.7
1 1 2 259.57 11.4
-1 1 -2 259.07 7.9
1 1 2 253.57 6.9
-1 1 -2 265.97 11.2
2 -1 2 452.45 13
-2 -1 -2 477.15 19.7
2 -1 2 440.06 9.8
2 -1 2 437.06 19.4
-2 -1 -2 460.85 12.3
-2 -1 -2 437.56 9.2
2 -1 2 459.65 12.1
-2 -1 -2 473.85 13.5
-2 1 -2 433.96 18.7
-2 1 -2 478.65 12.7
-2 1 -2 462.35 13.1
2 1 2 470.15 19.9
-2 1 -2 433.56 9.3
2 1 2 450.85 12.5
2 1 2 436.26 11.8
2 1 2 450.15 9.6
3 -1 2 71.39 3.2
-3 -1 -2 73.79 7.6
-3 -1 -2 68.29 2.7
3 -1 2 78.19 6
3 1 2 71.69 3.1
-3 1 -2 67.89 7.4
3 1 2 79.99 5.5
-3 1 -2 69.09 2.7
4 -1 2 279.07 7.9
4 -1 2 267.17 11.1
-4 -1 -2 270.17 7.1
-4 -1 -2 252.47 13.1
4 1 2 259.27 10.8
4 1 2 267.07 7.6
-4 1 -2 267.07 7.1
-4 1 -2 251.87 12.8
-5 -1 -2 391.66 10
5 -1 2 382.56 10.9
5 -1 2 380.16 15.6
-5 -1 -2 367.26 18.4
-5 1 -2 399.36 10
5 1 2 385.16 15.1
-5 1 -2 364.46 18
5 1 2 384.56 10.8
-6 -1 -2 5.1 6
-6 -1 -2 9.2 2.1
6 -1 2 11.4 2.9
6 -1 2 5.2 5.1
6 1 2 10.8 4.5
6 1 2 18.9 3.1
-6 1 -2 4.8 5.4
-6 1 -2 8 2.1
-7 -1 -2 2.3 6.5
7 -1 2 -2 4.8
-7 -1 -2 3.6 1.7
7 -1 2 1.1 2.4
-7 1 -2 4.7 1.8
7 1 2 0.2 1.7
7 1 2 5.6 4.4
-7 1 -2 5.2 5.4
-7 -2 2 82.99 13
7 -2 -2 77.39 5.4
-7 -2 2 75.99 4.5
-7 2 2 77.49 4.5
-7 2 2 77.39 11.5
7 2 -2 75.09 5.3
-6 -2 2 3.6 1.3
6 -2 -2 2.9 4.9
-6 -2 2 -1.1 4.6
6 -2 -2 3.9 2.4
-6 2 2 5 1.4
-6 2 2 24.5 7
6 2 -2 2.8 1.4
5 -2 -2 136.99 8.8
-5 -2 2 138.69 5.1
5 -2 -2 142.69 5.8
-5 -2 2 130.79 12.3
-5 2 2 124.39 10.4
5 2 -2 140.69 5.6
-5 2 2 139.99 4.9
-4 -2 2 8.5 1.4
4 -2 -2 6.7 3.3
4 -2 -2 7.4 1.6
-4 -2 2 6.7 4.5
4 2 -2 6.7 1.4
-4 2 2 11.2 3.5
-4 2 2 8 1.2
3 -2 -2 58.39 2.7
-3 -2 2 53.99 2.5
3 -2 -2 60.89 4.1
3 -2 -2 47.3 4.3
-3 2 2 70.79 10.3
-3 2 2 60.49 6.6
-3 2 2 54.59 2.2
-3 2 2 64.39 4.3
3 2 -2 62.19 2.9
-2 -2 2 331.17 10.4
2 -2 -2 319.17 8.1
2 -2 -2 307.17 8.7
2 -2 -2 318.07 6.7
-2 -2 2 318.47 7
2 2 -2 313.97 9.8
2 2 -2 340.87 14.5
-2 2 2 320.97 10.1
-2 2 2 316.67 14
2 2 -2 318.47 7.2
-2 2 2 316.57 8.8
-2 2 2 308.17 6.5
1 -2 -2 935.71 18.2
-1 -2 2 953.9 17.8
1 -2 -2 950.8 20.7
-1 -2 2 924.11 24.5
-1 -2 2 965 21.5
-1 -2 2 989.1 19.9
1 2 -2 957.1 18
1 2 -2 949.9 24.3
1 2 -2 927.41 20.7
1 2 -2 971 18.7
-1 2 2 962.4 18.7
0 -2 2 1891.31 39.4
0 -2 2 1932.11 34.3
0 -2 2 1918.41 39.2
0 -2 2 1908.81 35
0 -2 -2 1874.11 35.3
0 -2 -2 1873.91 34.1
0 2 -2 1909.71 38.3
0 2 -2 1929.01 38.2
0 2 -2 1873.41 34.4
0 2 -2 1816.62 35
0 2 2 1915.61 37
0 2 2 1854.81 34.8
-1 -2 -2 16.3 1.8
1 -2 2 13.9 1.3
1 -2 2 11.9 3.3
1 -2 2 15 1.8
-1 -2 -2 13.8 3.3
-1 -2 -2 12.8 0.8
-1 -2 -2 16.2 2.2
1 -2 2 16 2.5
1 2 2 16.6 1.9
-1 2 -2 14.3 2
1 2 2 19.5 2
1 2 2 16 1
-1 2 -2 13.9 3.1
-1 2 -2 16.8 2.2
1 2 2 18.5 3.8
-1 2 -2 14.3 1
2 -2 2 219.48 8.5
-2 -2 -2 209.18 7.3
-2 -2 -2 203.48 4.8
2 -2 2 203.88 7.3
2 -2 2 205.18 5.6
-2 -2 -2 204.48 12.6
-2 -2 -2 226.18 8.6
2 -2 2 202.78 13
-2 2 -2 213.48 7.7
-2 2 -2 203.08 7.9
2 2 2 201.18 5.1
2 2 2 198.38 7
2 2 2 185.88 12.5
2 2 2 207.68 7.5
-2 2 -2 208.38 12.6
-2 2 -2 195.78 4.9
3 -2 2 10.3 1.6
-3 -2 -2 8.4 1.2
-3 -2 -2 7.9 3.4
3 -2 2 7.3 2.5
-3 2 -2 7.9 1.1
3 2 2 7.7 1.2
-3 2 -2 5.7 2.7
3 2 2 5.3 2.2
4 -2 2 43.7 3.3
-4 -2 -2 52.99 2.7
-4 -2 -2 44.7 6.5
4 -2 2 43.5 5.6
4 2 2 52.89 2.9
4 2 2 55.99 5.2
-4 2 -2 41 6.1
-4 2 -2 51.39 2.6
-5 -2 -2 17.4 2.2
5 -2 2 12.6 5.4
-5 -2 -2 20.6 6.9
5 -2 2 18.1 3.1
5 2 2 16.9 4.3
-5 2 -2 22.3 2.4
5 2 2 26.5 3.2
-5 2 -2 25.4 6.5
-6 -2 -2 42.3 9.2
-6 -2 -2 45.1 3.3
6 -2 2 45.7 4.7
6 -2 2 39.4 7.4
6 2 2 45.6 3.8
6 2 2 44.2 6.6
-6 2 -2 52.79 8.8
-6 2 -2 41.9 3.3
-7 -3 2 12.8 8.3
-6 -3 2 3.7 6.2
-6 -3 2 5.6 1.7
6 -3 -2 1.4 5
6 -3 -2 2.9 2.1
-6 3 2 4.8 1.4
6 3 -2 4.7 1.6
-6 3 2 6.2 4.2
-5 -3 2 5.7 6.4
5 -3 -2 13.1 2.6
5 -3 -2 15.4 4.7
-5 -3 2 18.2 2.3
-5 3 2 17.7 2
-5 3 2 17.8 5.3
5 3 -2 17.8 2.5
4 -3 -2 129.49 7.3
4 -3 -2 132.69 4.8
-4 -3 2 113.59 11.5
-4 -3 2 119.29 4.4
-4 3 2 127.49 8.4
4 3 -2 119.79 4.7
-4 3 2 120.49 3.9
-3 -3 2 11.6 1.3
3 -3 -2 9.5 2.2
3 -3 -2 11.5 1.4
3 -3 -2 12.2 2.9
-3 3 2 13.7 1.1
-3 3 2 15.8 5
-3 3 2 10.2 2.1
3 3 -2 12.1 1.6
-3 3 2 17.7 3.5
2 -3 -2 126.09 4.7
2 -3 -2 108.79 4.5
-2 -3 2 110.19 6
2 -3 -2 106.09 3
-2 -3 2 109.39 3.4
-2 3 2 110.49 4.4
-2 3 2 113.29 2.8
-2 3 2 93.59 5.7
2 3 -2 104.59 3.5
2 3 -2 115.39 9
-2 3 2 102.19 8.2
2 3 -2 110.19 5.6
-1 -3 2 328.77 10.6
1 -3 -2 339.17 6.9
-1 -3 2 321.57 7.2
-1 -3 2 330.67 9.1
-1 -3 2 318.47 13
1 -3 -2 339.97 8.7
1 3 -2 325.37 7.9
-1 3 2 335.97 7.3
1 3 -2 337.57 9.9
1 3 -2 331.57 7.3
-1 3 2 330.47 9.1
1 3 -2 323.87 12.6
0 -3 2 755.12 15.9
0 -3 2 750.22 19.8
0 -3 2 726.33 19.9
0 -3 2 755.42 14.9
0 3 -2 752.72 14.8
0 3 -2 722.83 18.5
0 3 -2 777.52 14.7
0 3 -2 750.52 18.3
1 -3 2 99.69 4
-1 -3 -2 94.19 2.4
-1 -3 -2 79.09 6.4
1 -3 2 91.69 5.4
1 -3 2 99.59 7.7
-1 -3 -2 98.59 4.6
-1 -3 -2 97.59 3.8
1 -3 2 96.59 3.6
1 3 2 96.99 2.6
-1 3 -2 93.19 2.8
-1 3 -2 98.49 4.1
-1 3 -2 97.39 6.5
1 3 2 90.49 3.8
-1 3 -2 95.79 4.8
1 3 2 98.19 6.9
1 3 2 94.89 3.6
2 -3 2 45 4.2
2 -3 2 62.69 3.2
-2 -3 -2 59.69 5.8
-2 -3 -2 61.09 2.2
-2 -3 -2 55.19 8.3
-2 -3 -2 53.19 3.7
2 -3 2 70.69 9.9
2 -3 2 56.69 4.6
-2 3 -2 61.69 4
2 3 2 55.59 8.5
-2 3 -2 60.59 2.3
2 3 2 52.49 3.6
2 3 2 59.29 2.4
-2 3 -2 67.89 8.6
-2 3 -2 59.29 4.7
2 3 2 70.49 4.5
-3 -3 -2 170.78 4.8
3 -3 2 165.58 7.9
3 -3 2 181.28 5.9
-3 -3 -2 165.38 9.9
-3 3 -2 163.08 4.7
3 3 2 171.78 5.1
-3 3 -2 156.58 8.3
3 3 2 168.08 7.4
4 -3 2 63.19 6.8
-4 -3 -2 56.59 7.6
-4 -3 -2 69.79 3.3
4 -3 2 78.29 4.4
4 3 2 70.99 3.5
4 3 2 76.89 6.1
-4 3 -2 75.39 3.2
-4 3 -2 75.19 8
5 -3 2 122.99 6.3
-5 -3 -2 125.29 4.9
-5 -3 -2 121.39 13
5 -3 2 116.49 10
5 3 2 122.89 8.1
-5 3 -2 125.69 4.8
-5 3 -2 114.79 9.9
5 3 2 116.89 5.2
-6 -3 -2 18.4 8.3
-6 -3 -2 15 2.4
6 -3 2 12.6 3.3
6 -3 2 12 5.4
6 3 2 14.7 2.6
6 3 2 13.5 4.2
-6 3 -2 15.2 2.3
-6 3 -2 14.8 5.9
-6 -4 2 13.7 7.6
-6 -4 2 9 2
6 4 -2 4.9 1.6
-5 -4 2 30.8 2.6
-5 -4 2 28.2 8
5 4 -2 35.6 2.9
-4 -4 2 12.2 6.4
-4 -4 2 10.9 1.6
4 4 -2 10.2 1.7
-3 -4 2 67.19 3
3 4 -2 71.09 3.4
-2 -4 2 164.68 4.7
-2 -4 2 173.98 8.1
2 4 -2 154.98 7
2 4 -2 167.98 5.7
2 4 -2 155.28 4.7
2 4 -2 173.58 11
-1 -4 2 381.96 10.5
-1 -4 2 365.86 14.8
-1 -4 2 370.66 12.3
-1 -4 2 359.86 8.2
1 4 -2 362.46 10.8
1 4 -2 366.26 8.1
1 4 -2 367.16 14.1
1 4 -2 374.26 8.9
0 -4 2 422.36 9.6
0 -4 2 423.66 10.8
0 -4 2 400.06 14.8
0 -4 2 408.76 14.4
0 4 -2 429.76 12.4
0 4 -2 434.96 13
0 4 -2 416.46 9.2
0 4 -2 436.36 9.1
-1 -4 -2 62.89 1.8
1 -4 2 63.39 5.3
-1 -4 -2 55.99 3.9
1 -4 2 62.59 3.5
-1 -4 -2 61.49 3.1
-1 -4 -2 53.79 6.1
1 -4 2 65.09 4.2
1 -4 2 57.09 7.4
1 4 2 60.39 2.7
1 4 2 60.19 1.9
1 4 2 61.59 3.1
-1 4 -2 53.79 3.3
-1 4 -2 59.49 2.2
-1 4 -2 63.59 5.2
-1 4 -2 59.69 3.9
-2 -4 -2 429.46 13.6
2 -4 2 438.16 12.3
-2 -4 -2 427.76 8.9
-2 -4 -2 441.76 12.1
2 -4 2 423.96 14.3
2 -4 2 447.26 10.6
-2 -4 -2 429.26 19.5
2 -4 2 454.55 20.7
-2 4 -2 432.76 12.8
-2 4 -2 443.16 12.3
-2 4 -2 427.96 9.2
2 4 2 448.56 11.4
2 4 2 438.06 12.3
2 4 2 437.86 9.3
-2 4 -2 437.56 17.8
-3 -4 -2 84.99 8.3
-3 -4 -2 94.79 3.3
3 -4 2 96.39 6.9
3 -4 2 96.59 4.8
3 4 2 94.99 5.4
-3 4 -2 100.69 6.5
-3 4 -2 96.29 3.4
3 4 2 92.89 3.6
4 -4 2 7.4 2.5
-4 -4 -2 9.2 1.6
4 -4 2 9.3 4.8
-4 -4 -2 4.7 5.1
4 4 2 11.2 3
4 4 2 9.4 1.7
-4 4 -2 7.4 1.4
-5 -4 -2 6.3 7.9
5 -4 2 5.7 5.5
-5 -4 -2 8.4 1.7
5 -4 2 1.8 2.6
5 4 2 11.5 2
-5 4 -2 7.6 4.1
5 4 2 4.8 3.4
-5 4 -2 5.5 1.5
6 -4 2 25.5 6.6
-6 -4 -2 31 3.2
-6 -4 -2 36.7 10.5
6 -4 2 30.6 4.7
6 4 2 32 3.6
-6 4 -2 32.9 3.1
-6 4 -2 31.8 6.9
6 4 2 45.6 6.8
-6 -5 2 7 7.2
-6 -5 2 6.3 1.8
6 5 -2 8.4 1.7
-5 -5 2 30.2 9.4
-5 -5 2 19.1 2.5
5 5 -2 16.2 2.3
-4 -5 2 16.6 8.3
-4 -5 2 19.1 2.2
4 5 -2 16.3 2.2
-3 -5 2 18.7 1.9
3 5 -2 22.3 2.8
3 5 -2 17.8 2
-2 -5 2 97.69 3.5
2 5 -2 93.79 4.4
2 5 -2 94.59 3.4
-1 -5 2 237.58 6.2
-1 -5 2 243.18 8.9
-1 -5 2 241.38 10.3
1 5 -2 231.08 11.4
1 5 -2 245.88 9
1 5 -2 236.68 5.9
1 5 -2 250.87 6.6
0 -5 2 11.5 2.9
0 -5 2 18.8 2
0 5 -2 19.8 1.7
0 5 -2 16.5 1.3
1 -5 2 59.29 4.4
1 -5 2 61.29 3.8
-1 5 -2 65.09 2.4
-1 5 -2 67.49 3.1
2 -5 2 4.3 6.2
2 -5 2 14.5 3
-2 5 -2 9.7 2.8
-2 5 -2 13.4 1.5
-4 -5 -2 59.79 3.8
-4 -5 -2 72.99 10.1
4 5 2 56.89 5.2
4 5 2 63.89 3.8
-5 -5 -2 20.5 9.1
-5 -5 -2 39.5 3.3
5 5 2 33.4 3.2
5 5 2 33.1 5
-6 -5 -2 10.1 10.2
-6 -5 -2 14.2 2.6
6 5 2 19.9 2.9
6 5 2 4.5 5.5
-6 -6 2 33.3 11
-6 -6 2 27.4 3.6
6 6 -2 42.5 3.6
-5 -6 2 9.3 9
-5 -6 2 9.6 2.2
5 6 -2 10.9 2
-4 -6 2 14.7 8.6
-4 -6 2 16.9 2.3
4 6 -2 15.2 3.2
4 6 -2 16.9 2.2
-7 0 3 56.69 3.9
-7 0 3 46.2 9.6
7 0 -3 48.8 4.7
-6 0 3 7.2 5.8
-6 0 3 18.2 2.4
6 0 -3 18.5 2.9
-5 0 3 230.28 15.8
-5 0 3 290.17 7.8
5 0 -3 284.67 8.4
-4 0 3 195.18 5.7
4 0 -3 206.28 6.3
-4 0 3 208.08 12.7
-3 0 3 748.33 14.9
3 0 -3 740.93 15.2
-2 0 3 -0.1 1.1
-2 0 3 0.9 0.8
2 0 -3 5.5 2.7
2 0 -3 0.5 0.5
-2 0 3 0.7 0.4
2 0 -3 0.7 0.7
1 0 -3 300.77 7.1
1 0 -3 286.67 11
-1 0 3 279.77 11.1
-1 0 3 301.47 9.4
-1 0 3 299.07 6.5
-1 0 3 303.47 8
1 0 -3 300.17 8.9
1 0 -3 304.47 6.6
0 0 -3 26.1 1.3
0 0 3 29.2 1.7
0 0 3 26 3.5
0 0 -3 33.4 3.6
0 0 3 28.9 3.4
0 0 -3 27.7 2.4
0 0 -3 26.3 1.7
0 0 3 26.1 1.5
1 0 3 -0.3 2.6
-1 0 -3 -0.5 0.5
1 0 3 -1 0.5
-1 0 -3 -1.6 1.1
-1 0 -3 -3.4 1.5
1 0 3 -0.2 1
-1 0 -3 -1.1 1
1 0 3 -0.8 0.7
-2 0 -3 619.14 24.2
2 0 3 646.24 16.4
2 0 3 649.64 25.6
-2 0 -3 666.33 13.2
-2 0 -3 644.94 17.2
2 0 3 663.33 13.8
-2 0 -3 704.13 17.1
2 0 3 666.43 17.6
3 0 3 28 3.8
3 0 3 28.7 2.2
-3 0 -3 20.1 1.5
-4 0 -3 62.79 3
-4 0 -3 65.09 7.7
4 0 3 59.99 5.5
4 0 3 68.49 3.7
5 0 3 4.6 2.1
-5 0 -3 5.1 5
5 0 3 6.8 3.9
-5 0 -3 4.7 1.6
-6 0 -3 50.69 9.4
-6 0 -3 68.79 4.2
6 0 3 71.49 5
6 0 3 56.49 8
-7 -1 3 24.6 3.1
-7 -1 3 25.4 8.4
7 -1 -3 24.5 3.6
-7 1 3 34.6 7.6
-7 1 3 22.5 2.8
7 1 -3 29 3.5
-6 -1 3 63.59 3.7
6 -1 -3 59.19 4.6
-6 -1 3 35.3 9.2
-6 1 3 56.89 9.7
-6 1 3 62.79 3.5
6 1 -3 57.39 4.3
-5 -1 3 47.7 3
5 -1 -3 48.1 3.9
-5 -1 3 31.6 7.3
-5 1 3 32.2 7.2
-5 1 3 48.1 2.9
5 1 -3 41.8 3.4
4 -1 -3 29.1 2.7
-4 -1 3 27 2
-4 1 3 21.4 5.5
4 1 -3 30 2.6
-4 1 3 27.5 1.9
3 -1 -3 0.8 1.1
-3 -1 3 0.9 0.8
3 -1 -3 1.5 1.1
-3 1 3 2.7 1.2
-3 1 3 -1.9 3.6
3 1 -3 1.2 1.1
-3 1 3 1.8 0.6
-2 -1 3 188.38 7.7
2 -1 -3 188.68 6.7
-2 -1 3 190.18 7
-2 -1 3 193.78 4.8
2 -1 -3 189.48 4.7
2 -1 -3 197.08 10.6
2 1 -3 183.88 10.5
2 1 -3 199.48 7.5
2 1 -3 194.28 5
-2 1 3 187.68 4.5
-2 1 3 192.88 7.1
-1 -1 3 1098.79 22.3
1 -1 -3 1054.09 19.9
1 -1 -3 1100.19 25.5
1 -1 -3 1103.69 22.4
-1 -1 3 1044.4 27.5
-1 -1 3 1078.89 24.6
-1 -1 3 1091.79 20.4
1 -1 -3 1066.39 20.4
-1 1 3 1108.69 20
1 1 -3 1090.09 20.6
1 1 -3 1133.29 27.7
1 1 -3 1067.29 21
1 1 -3 1083.39 23.9
-1 1 3 1062.29 25.7
-1 1 3 1112.19 21.5
-1 1 3 1105.09 23.4
0 -1 3 988.1 24.2
0 -1 3 1028 20
0 -1 -3 1014.7 21.4
0 -1 3 1013.5 19.5
0 -1 -3 1006.3 22.5
0 -1 -3 1007.4 19.3
0 -1 -3 991.1 18.4
0 -1 3 993.8 24.9
0 1 3 979 23.8
0 1 -3 1002.2 19.7
0 1 -3 1010.4 23.9
0 1 -3 1002.2 23.2
0 1 3 1016.6 19.2
0 1 3 1008.6 22.4
0 1 3 1029.3 19.2
0 1 -3 1003.4 19
1 -1 3 60.69 3.2
1 -1 3 55.49 2.5
-1 -1 -3 55.69 3.3
-1 -1 -3 55.69 1.9
-1 -1 -3 53.59 3.5
1 -1 3 54.59 4
1 -1 3 76.29 8.7
-1 -1 -3 59.99 6.9
1 1 3 57.39 3.1
1 1 3 51.09 2.2
1 1 3 49.4 6.4
-1 1 -3 52.79 3.4
-1 1 -3 41 5.5
-1 1 -3 55.29 3.7
1 1 3 53.39 3.6
-1 1 -3 55.29 2.1
-2 -1 -3 533.35 14.1
-2 -1 -3 512.65 21.5
-2 -1 -3 498.75 10.5
2 -1 3 528.95 15.5
2 -1 3 503.75 13.7
2 -1 3 506.25 22.4
2 -1 3 510.05 11.4
-2 -1 -3 509.65 14.6
-2 1 -3 506.15 10.6
-2 1 -3 482.35 21
2 1 3 507.65 11.1
2 1 3 514.65 14.7
2 1 3 500.15 21.8
-2 1 -3 517.25 14.4
-2 1 -3 527.35 14.6
2 1 3 521.75 13.6
3 -1 3 130.19 4.8
-3 -1 -3 129.89 4.1
3 -1 3 128.99 6.9
-3 -1 -3 130.89 8.4
3 1 3 129.29 4.6
3 1 3 136.49 6.9
-3 1 -3 125.19 4.1
-3 1 -3 136.89 8.2
-4 -1 -3 196.08 11.7
-4 -1 -3 209.58 6.1
4 -1 3 207.38 9.9
4 -1 3 222.28 7.1
4 1 3 196.58 9.7
-4 1 -3 211.78 6.2
4 1 3 198.68 6.7
-4 1 -3 211.18 11.4
-5 -1 -3 27.1 6.9
5 -1 3 22.5 3.2
-5 -1 -3 31.8 2.9
5 -1 3 22.1 5.3
-5 1 -3 31.9 2.7
5 1 3 18 4.4
5 1 3 23.6 3
-5 1 -3 24.9 6
6 -1 3 0.4 3.9
6 -1 3 1.2 1.8
-6 -1 -3 -1.1 1.4
-6 -1 -3 3 5.8
6 1 3 -0.1 1.5
-6 1 -3 4 5
-6 1 -3 1.2 1.3
6 1 3 -1.7 3.5
-7 -2 3 125.49 15.8
7 -2 -3 110.69 6.5
-7 -2 3 121.89 5.8
-7 2 3 121.39 5.5
-7 2 3 88.59 12.4
7 2 -3 115.09 6.2
-6 -2 3 48.2 3.4
6 -2 -3 44.7 4.3
-6 -2 3 31.2 8.7
-6 2 3 36.1 7.8
6 2 -3 41.6 3.7
-6 2 3 42.8 3
-5 -2 3 217.38 6.8
5 -2 -3 208.18 7
-5 -2 3 212.58 15.9
-5 2 3 201.58 13.3
5 2 -3 220.88 7.3
-5 2 3 222.28 6.5
-4 -2 3 54.79 2.8
4 -2 -3 47.9 3.1
-4 2 3 53.59 6.8
-4 2 3 51.29 2.5
4 2 -3 51.09 3.1
-3 -2 3 187.18 5.4
3 -2 -3 191.18 7.8
3 -2 -3 194.18 5.4
-3 2 3 188.68 7.8
-3 2 3 203.28 5
-3 2 3 199.88 10.2
-3 2 3 184.08 14.2
3 2 -3 194.28 5.7
2 -2 -3 110.29 3.1
2 -2 -3 99.59 7.5
-2 -2 3 97.99 5.8
2 -2 -3 104.69 4.6
-2 -2 3 101.59 3.3
-2 2 3 106.39 2.9
-2 2 3 104.59 4.8
2 2 -3 103.19 8.2
2 2 -3 98.69 4.1
2 2 -3 103.79 5.5
2 2 -3 107.49 3.5
-2 2 3 103.29 8.3
1 -2 -3 480.55 9.3
-1 -2 3 493.15 14.4
1 -2 -3 487.85 13.3
1 -2 -3 497.75 11
-1 -2 3 498.95 12.1
1 -2 -3 475.25 9.7
-1 -2 3 512.35 17.1
-1 -2 3 485.85 10.2
1 2 -3 483.95 10.8
-1 2 3 487.25 12.1
1 2 -3 476.05 10.3
1 2 -3 478.85 16.3
-1 2 3 476.95 13.5
-1 2 3 497.65 10.6
1 2 -3 506.45 13.7
-1 2 3 493.35 9.5
0 -2 3 809.42 22.1
0 -2 3 817.12 16.3
0 -2 -3 785.82 14.7
0 -2 3 798.12 16.9
0 -2 -3 803.12 18.2
0 -2 -3 808.12 15.6
0 -2 3 805.22 21.8
0 -2 -3 798.62 16.9
0 2 -3 783.12 16.3
0 2 3 799.42 18.1
0 2 -3 811.22 15.8
0 2 3 799.72 15.4
0 2 -3 835.72 20.6
0 2 -3 811.52 20.6
0 2 3 837.52 15.8
0 2 3 828.62 20.5
1 -2 3 518.75 15.4
-1 -2 -3 523.15 10.3
-1 -2 -3 545.75 12.9
1 -2 3 565.64 12.9
1 -2 3 550.94 20.2
-1 -2 -3 536.25 12.7
-1 -2 -3 518.65 17.8
1 -2 3 530.05 11.8
-1 2 -3 533.35 14.7
1 2 3 536.05 13.6
-1 2 -3 545.05 13.2
-1 2 -3 530.25 18.1
1 2 3 543.65 12.5
1 2 3 517.35 18.6
-1 2 -3 525.15 10.9
1 2 3 525.55 10.8
-2 -2 -3 79.99 2.7
2 -2 3 82.29 5.7
2 -2 3 85.69 11.5
2 -2 3 75.79 3.6
2 -2 3 75.69 5.2
-2 -2 -3 79.39 6.8
-2 -2 -3 83.39 4.7
-2 -2 -3 79.09 10.2
2 2 3 78.69 3.1
2 2 3 80.09 5.1
2 2 3 67.59 9.7
-2 2 -3 75.29 9.3
-2 2 -3 73.09 6.1
2 2 3 81.49 5.1
-2 2 -3 77.29 2.9
-2 2 -3 86.69 5.4
3 -2 3 102.19 4.5
-3 -2 -3 110.99 3.7
3 -2 3 118.39 6.6
-3 -2 -3 117.79 8.3
3 2 3 117.69 6.6
3 2 3 113.09 4.2
-3 2 -3 112.89 7.5
-3 2 -3 115.19 3.9
-4 -2 -3 18.3 2
4 -2 3 16.8 3.9
-4 -2 -3 20.6 5.4
4 -2 3 19.5 2.7
4 2 3 18.7 2.3
4 2 3 11.8 3.6
-4 2 -3 13.4 1.7
-4 2 -3 16.9 4.6
-5 -2 -3 65.29 3.7
5 -2 3 61.79 4.7
-5 -2 -3 70.89 10.1
5 -2 3 64.59 8
5 2 3 65.19 4.1
5 2 3 68.59 7.7
-5 2 -3 62.29 3.4
-5 2 -3 58.09 8.4
6 -2 3 12.6 6
-6 -2 -3 11.2 6.7
6 -2 3 9.6 2.9
-6 -2 -3 7.8 2
-6 2 -3 9.2 2.1
-6 2 -3 10.5 5.2
6 2 3 4.8 4.2
6 2 3 12.8 2.7
-7 -3 3 27.7 3.4
-7 -3 3 34.3 9.4
7 3 -3 26.2 3.5
-6 -3 3 60.49 11.4
-6 -3 3 57.29 3.8
6 -3 -3 53.79 6.4
-6 3 3 53.99 4.7
6 3 -3 59.59 4.2
-6 3 3 58.69 13.1
-5 -3 3 3.9 1.5
5 -3 -3 2 1.9
-5 -3 3 1.2 6.2
-5 3 3 1.4 1
5 3 -3 2.9 1.6
-5 3 3 2.2 3.5
-4 -3 3 10.9 1.6
4 -3 -3 9.3 1.8
4 3 -3 10 1.7
-4 3 3 12.7 3.5
-4 3 3 7.3 1.2
3 -3 -3 55.99 2.7
3 -3 -3 50.59 5.3
-3 -3 3 55.19 2.7
-3 3 3 56.59 9
3 3 -3 52.49 2.8
-3 3 3 57.89 5.5
-3 3 3 52.69 2.1
-3 3 3 56.29 4.6
-2 -3 3 82.19 3.2
2 -3 -3 82.89 3.9
-2 -3 3 77.69 5.5
2 -3 -3 86.99 2.6
2 -3 -3 79.99 6.6
-2 -3 3 91.19 6
-2 3 3 83.49 2.4
2 3 -3 73.29 8.3
-2 3 3 85.99 4.1
-2 3 3 79.79 5.7
2 3 -3 87.29 4.2
-2 3 3 90.39 8.8
2 3 -3 78.29 5.1
2 3 -3 80.69 3.2
1 -3 -3 26.5 1.6
-1 -3 3 27.7 1.7
-1 -3 3 25.1 3
-1 -3 3 27.1 3.7
1 -3 -3 29.6 2.7
-1 -3 3 29.1 4.9
1 3 -3 24.8 1.7
1 3 -3 25 1.9
-1 3 3 30.1 2.2
1 3 -3 24.9 3.1
1 3 -3 25.1 4.3
0 -3 3 442.76 15.4
0 -3 3 422.66 15.2
0 -3 3 427.96 10
0 -3 -3 437.26 10.5
0 -3 -3 419.36 9.2
0 -3 3 447.86 10.9
0 3 -3 426.86 9.4
0 3 3 415.16 12.5
0 3 3 419.76 10.6
0 3 -3 446.66 13.8
0 3 -3 437.06 13.7
0 3 -3 433.96 9.9
-1 -3 -3 63.09 3.3
-1 -3 -3 63.59 2
-1 -3 -3 57.99 4.2
1 -3 3 69.59 5.6
1 -3 3 58.49 3.5
-1 -3 -3 73.19 7.6
1 -3 3 54.29 7.7
1 -3 3 62.19 3.3
1 3 3 64.09 3.7
1 3 3 63.19 2.3
-1 3 -3 64.09 3.7
1 3 3 64.39 3.6
1 3 3 56.19 7.3
-1 3 -3 65.19 4.8
-1 3 -3 61.99 2.4
-1 3 -3 80.69 8.2
-2 -3 -3 397.66 8.4
2 -3 3 400.06 12.1
2 -3 3 395.66 10.1
2 -3 3 414.76 14.3
-2 -3 -3 382.56 18.3
2 -3 3 403.76 20.4
-2 -3 -3 380.16 13.2
-2 -3 -3 406.46 11.7
2 3 3 412.36 12.4
2 3 3 416.36 11.7
-2 3 -3 405.66 18.2
2 3 3 357.36 18.6
-2 3 -3 409.56 8.9
-2 3 -3 396.26 12.6
-2 3 -3 408.06 12.9
2 3 3 404.86 9
3 -3 3 82.59 4.5
-3 -3 -3 106.59 8.4
-3 -3 -3 89.69 3.4
3 -3 3 93.79 6.3
3 3 3 89.89 3.8
-3 3 -3 115.29 7.4
3 3 3 97.39 6
-3 3 -3 86.99 3.4
-4 -3 -3 205.98 6.1
-4 -3 -3 177.18 13.3
4 -3 3 177.08 10.2
4 -3 3 188.48 7.4
-4 3 -3 205.98 6.1
4 3 3 234.98 10.7
4 3 3 189.08 6.5
-4 3 -3 209.68 11.8
5 -3 3 75.59 5.8
-5 -3 -3 78.39 10.9
-5 -3 -3 78.49 4.1
5 -3 3 74.19 9.4
-5 3 -3 76.19 8.8
-5 3 -3 74.29 3.8
5 3 3 69.99 7.6
5 3 3 78.09 4.5
6 -3 3 39.5 4.9
-6 -3 -3 38.2 9.8
6 -3 3 45.1 8.2
-6 -3 -3 41.4 3.4
6 3 3 44.5 4
6 3 3 34.2 5.9
-6 3 -3 48.2 7.9
-6 3 -3 45.2 3.4
-6 -4 3 25.9 3.2
-6 -4 3 25 9.5
6 4 -3 21 2.9
-5 -4 3 100.19 4.6
-5 -4 3 85.39 12.4
5 4 -3 94.59 4.7
-4 -4 3 3.9 1.1
4 4 -3 7.8 1.8
-3 -4 3 234.68 6.5
3 4 -3 224.88 8
3 4 -3 237.68 6.7
-2 -4 3 10.8 1.3
-2 -4 3 9.8 3
2 4 -3 17.1 2.2
2 4 -3 12.7 1.6
-1 -4 3 422.96 14.6
-1 -4 3 395.96 16.6
-1 -4 3 401.46 9.4
-1 -4 3 422.96 11.7
1 4 -3 389.96 9.1
1 4 -3 410.76 9.8
1 4 -3 418.96 12.7
1 4 -3 364.16 15.2
0 -4 3 708.43 22.1
0 -4 3 742.93 22.6
0 -4 3 712.93 15.5
0 -4 3 748.93 17
0 4 -3 720.33 19.8
0 4 -3 729.63 14.8
0 4 -3 735.93 19.6
0 4 -3 707.93 15.1
1 -4 3 38.1 3.6
1 -4 3 39.9 3.5
1 -4 3 46.4 7.6
1 -4 3 35.2 5.3
-1 4 -3 46.3 4.8
-1 4 -3 45.4 5.9
-1 4 -3 33.6 3.3
-1 4 -3 36.4 2
-2 -4 -3 165.48 8.4
2 -4 3 170.78 7.4
-2 -4 -3 165.78 4.3
2 -4 3 165.08 6.5
2 4 3 167.88 4.8
-2 4 -3 166.08 4.7
2 4 3 168.28 6.5
-2 4 -3 165.78 7.1
-3 -4 -3 146.89 10.1
3 -4 3 160.18 6.6
3 -4 3 166.08 8.6
-3 -4 -3 165.78 4.9
-3 4 -3 154.38 4.9
3 4 3 152.08 7.2
3 4 3 162.98 5.2
-3 4 -3 160.08 8.3
4 -4 3 2.1 4.8
4 -4 3 4.1 2.7
-4 -4 -3 -9.9 6.4
-4 -4 -3 5.3 1.5
4 4 3 8.5 3.7
4 4 3 6.8 1.5
-4 4 -3 6.9 1.4
-4 4 -3 8.9 4.3
5 -4 3 1.5 5.5
5 -4 3 2.8 3
-5 -4 -3 -2.8 7
-5 -4 -3 5.6 1.7
5 4 3 6.8 1.9
5 4 3 -1.5 3
-5 4 -3 4.5 1.5
-5 4 -3 0.7 3.9
-6 -4 -3 64.09 12
-6 -4 -3 49.6 3.6
6 -4 3 51.69 5.6
6 -4 3 50.59 8.3
-6 4 -3 46.7 8
6 4 3 38.9 6.5
6 4 3 55.09 4.3
-6 4 -3 50.49 3.7
-6 -5 3 1.4 8.1
-6 -5 3 0.1 1.6
6 5 -3 0.2 1.2
-5 -5 3 17.6 2.6
-5 -5 3 3.3 9.3
5 5 -3 15 2.5
-4 -5 3 30.7 2.8
4 5 -3 29.3 4
4 5 -3 30.6 3
-3 -5 3 150.48 5.2
3 5 -3 158.28 6.6
3 5 -3 151.58 5.3
-2 -5 3 271.17 10.7
-2 -5 3 291.57 7.6
2 5 -3 286.17 8.6
2 5 -3 287.87 7.4
-1 -5 3 2.9 3.3
-1 -5 3 1.1 2
-1 -5 3 1.9 3.1
-1 -5 3 4.3 1.1
1 5 -3 2 1.4
1 5 -3 1 1.9
1 5 -3 4.1 1.1
1 5 -3 2.5 0.8
0 -5 3 42.8 6.5
0 -5 3 38.1 4.4
0 -5 3 36.2 5.9
0 -5 3 40.5 2.7
0 5 -3 38.2 2
0 5 -3 41.2 4.8
0 5 -3 36.9 4.4
0 5 -3 37.2 2.2
1 -5 3 -0.8 2.9
1 -5 3 0.7 1.5
-1 5 -3 3.3 1.3
-1 5 -3 2.5 0.7
2 -5 3 11.7 2.8
2 -5 3 8.5 3.2
-2 5 -3 11.8 1.3
-2 5 -3 12.5 2.4
3 -5 3 67.59 7.1
3 -5 3 74.59 5.8
-3 5 -3 55.89 6.1
-3 5 -3 59.59 2.9
4 -5 3 234.28 14.4
4 -5 3 216.88 12
-4 5 -3 242.78 8.9
-4 5 -3 214.78 15.2
-5 -6 3 49.1 3.8
-5 -6 3 36.5 11.7
5 6 -3 42.4 3.5
5 6 -3 63.69 5
-4 -6 3 15.5 2.4
4 6 -3 15.1 2.3
4 6 -3 11.7 2.7
-3 -6 3 260.97 7.6
3 6 -3 262.67 7.6
3 6 -3 250.97 9.1
-2 -6 3 71.39 4.8
2 6 -3 91.29 5.3
2 6 -3 91.29 4.8
-7 0 4 10 6
7 0 -4 2.1 2.2
-7 0 4 2.6 1.4
-6 0 4 -5 5.2
6 0 -4 2.8 2.2
-6 0 4 2.6 1.4
-5 0 4 61.29 3.4
5 0 -4 68.09 4.2
-5 0 4 45.9 8.5
-4 0 4 9.9 1.4
4 0 -4 11.5 1.9
-3 0 4 6 1
3 0 -4 8.1 1.5
2 0 -4 610.54 12.6
-2 0 4 599.64 15.2
2 0 -4 620.84 20.7
-2 0 4 598.64 12.5
2 0 -4 609.44 13.7
2 0 -4 627.34 16
-2 0 4 638.54 17.2
-1 0 4 1374.26 33.4
1 0 -4 1418.66 33.2
-1 0 4 1387.86 31.1
-1 0 4 1379.86 27.6
1 0 -4 1326.87 26.1
1 0 -4 1387.86 25.8
1 0 -4 1365.26 29.7
-1 0 4 1398.36 25.8
0 0 4 243.18 6.7
0 0 -4 242.68 5.8
0 0 -4 245.18 9
0 0 4 233.68 9.8
0 0 4 238.98 10.9
0 0 -4 239.28 6.6
0 0 4 238.38 6.5
0 0 -4 236.38 9.7
1 0 4 332.07 15.9
1 0 4 323.77 9.2
1 0 4 321.07 8.2
1 0 4 323.57 11.5
-1 0 -4 344.27 14.5
-1 0 -4 328.17 7.3
-1 0 -4 335.37 9.8
-1 0 -4 341.87 10.8
2 0 4 342.47 11.4
-2 0 -4 399.96 17.3
-2 0 -4 347.87 8
2 0 4 353.06 9
-2 0 -4 346.07 12.1
2 0 4 355.56 23.3
3 0 4 4.3 2.5
3 0 4 0.8 0.9
-3 0 -4 0.8 0.7
-3 0 -4 -1.5 2.8
-4 0 -4 11.9 4.2
4 0 4 6.6 2.8
4 0 4 9.4 2
-4 0 -4 8.4 1.4
5 0 4 48.6 4
5 0 4 44.7 6.4
-5 0 -4 60.99 3.5
-5 0 -4 53.29 8.5
-6 0 -4 19.9 7.4
6 0 4 20.5 3.5
-6 0 -4 35.4 3.6
6 0 4 33.7 7
-7 -1 4 24 7.5
7 -1 -4 24 3.5
-7 -1 4 27.2 3.2
-7 1 4 22 7.4
7 1 -4 32.9 3.9
-7 1 4 25.1 3
6 -1 -4 40.9 4.2
-6 -1 4 37.9 9.3
-6 -1 4 46.2 3.3
-6 1 4 32 8.4
-6 1 4 44.3 3.1
6 1 -4 43.9 3.9
-5 -1 4 29.3 2.4
5 -1 -4 28.7 3.2
-5 -1 4 41.1 9
-5 1 4 25.2 7.2
5 1 -4 23.8 2.8
-5 1 4 30.7 2.4
-4 -1 4 418.56 10.1
4 -1 -4 416.96 10.2
-4 1 4 429.76 9.9
4 1 -4 419.86 10.5
3 -1 -4 825.02 16.6
-3 -1 4 807.32 16.6
-3 1 4 817.02 16.3
3 1 -4 829.82 16.9
-2 -1 4 83.99 3.1
-2 -1 4 93.09 5.2
2 -1 -4 82.79 3.9
2 -1 -4 90.39 4.7
-2 -1 4 93.29 5.8
2 -1 -4 93.69 7.9
2 -1 -4 85.89 3
2 1 -4 89.69 7.9
-2 1 4 92.59 3
-2 1 4 79.89 4.9
2 1 -4 91.39 3.3
2 1 -4 81.69 5
-2 1 4 95.19 5
2 1 -4 89.29 4
-1 -1 4 2283.57 50.09
-1 -1 4 2219.48 42.5
1 -1 -4 2199.78 43.9
1 -1 -4 2238.58 47.1
-1 -1 4 2268.17 47.1
1 -1 -4 2169.18 40.6
-1 -1 4 2217.68 42.9
1 -1 -4 2189.38 40.3
-1 1 4 2228.28 45.6
1 1 -4 2211.68 41.3
1 1 -4 2279.07 42.5
1 1 -4 2338.57 45.9
1 1 -4 2242.28 49.4
-1 1 4 2235.58 47.9
-1 1 4 2286.97 42.1
-1 1 4 2258.17 42.7
0 -1 4 247.68 10.5
0 -1 -4 220.78 5.3
0 -1 -4 220.08 8.8
0 -1 4 229.18 6.7
0 -1 4 234.88 6.4
0 -1 4 233.78 11
0 -1 -4 220.08 8
0 -1 -4 221.68 6.1
0 1 -4 215.18 9
0 1 -4 213.58 9.5
0 1 4 227.48 6.1
0 1 4 212.28 6
0 1 -4 220.08 5.7
0 1 4 222.98 10.2
0 1 4 224.18 9
0 1 -4 216.38 6.3
1 -1 4 894.71 18.4
1 -1 4 950.2 29.5
-1 -1 -4 853.31 16.7
1 -1 4 878.21 22.9
-1 -1 -4 885.11 19.8
-1 -1 -4 912.81 20.8
1 -1 4 876.31 19.4
-1 -1 -4 888.51 25.9
-1 1 -4 862.51 26.1
1 1 4 897.11 21.9
1 1 4 878.41 17.8
-1 1 -4 907.81 22.1
-1 1 -4 894.31 20
1 1 4 904.11 19.3
1 1 4 860.71 27.9
-1 1 -4 852.31 17.2
2 -1 4 118.79 6.4
2 -1 4 117.99 4.8
-2 -1 -4 115.69 6
-2 -1 -4 115.89 3.6
-2 -1 -4 106.29 7.1
-2 -1 -4 118.99 12.8
-2 1 -4 109.39 3.7
2 1 4 139.49 14.7
2 1 4 123.39 4.5
2 1 4 105.79 6.5
-2 1 -4 118.29 7.3
2 1 4 104.09 6.1
3 -1 4 239.08 10.1
3 -1 4 254.17 7.6
-3 -1 -4 237.68 11.6
-3 -1 -4 244.98 6.4
-3 1 -4 244.28 11.3
3 1 4 233.38 9.8
3 1 4 235.28 7.2
-3 1 -4 237.28 6.5
-4 -1 -4 336.87 8.4
-4 -1 -4 300.87 14.4
4 -1 4 331.67 9.8
4 -1 4 337.37 13.6
-4 1 -4 308.47 14.3
4 1 4 323.17 9.4
4 1 4 301.57 12.5
-4 1 -4 334.67 8.6
-5 -1 -4 16.5 2.2
-5 -1 -4 16.7 5.4
5 -1 4 16.6 5.2
5 -1 4 18.4 2.9
5 1 4 17.1 2.6
-5 1 -4 12.8 5.4
-5 1 -4 17.3 2.3
5 1 4 14.7 4.6
-6 -1 -4 21.5 2.9
-6 -1 -4 12.3 6.8
6 -1 4 15.6 5.9
6 -1 4 19.6 3.4
6 1 4 25.3 3.6
-6 1 -4 22.3 2.9
6 1 4 19.9 5.6
-6 1 -4 18.8 6.7
-7 -2 4 16.3 2.6
7 -2 -4 14.6 3
-7 -2 4 22.1 9.4
-7 2 4 18.5 2.6
7 2 -4 19.9 3.3
-7 2 4 29.3 7.2
6 -2 -4 14.7 2.9
-6 -2 4 17 2.5
-6 -2 4 15.7 7.9
-6 2 4 19.2 6.1
-6 2 4 16.2 2.4
6 2 -4 18.5 2.8
-5 -2 4 24.6 2.6
5 -2 -4 26 3
-5 2 4 19.2 2.2
-5 2 4 21.2 6.3
5 2 -4 20.6 2.6
-4 -2 4 317.47 8.3
4 -2 -4 316.17 8.2
4 2 -4 311.17 8.6
-4 2 4 277.27 13.6
-4 2 4 321.77 7.8
3 -2 -4 32.5 3.7
3 -2 -4 34.5 6.8
3 -2 -4 30.5 2.4
-3 -2 4 31.1 2
-3 2 4 37.3 8
3 2 -4 29 2.2
-3 2 4 30.7 1.7
-3 2 4 28 3.8
3 2 -4 33.5 3
-2 -2 4 307.77 12.3
-2 -2 4 305.87 7.6
2 -2 -4 308.07 6.9
2 -2 -4 330.47 13.7
2 -2 -4 300.17 9.2
-2 -2 4 309.37 10.6
2 -2 -4 309.37 8
-2 2 4 315.67 9.2
2 2 -4 325.47 15.4
2 2 -4 300.87 8.8
2 2 -4 306.77 7.7
2 2 -4 309.17 11.2
-2 2 4 295.57 10.1
-2 2 4 314.77 6.9
-1 -2 4 162.38 8.3
1 -2 -4 157.98 4.3
1 -2 -4 160.48 5.8
1 -2 -4 157.78 4
1 -2 -4 158.88 7.4
-1 -2 4 154.48 4.7
-1 -2 4 159.58 9.7
-1 -2 4 163.68 6.3
-1 2 4 149.59 6.8
-1 2 4 154.98 7.7
1 2 -4 164.98 9.5
1 2 -4 157.28 4.8
1 2 -4 147.69 4.9
1 2 -4 164.58 7.6
-1 2 4 156.08 4.1
-1 2 4 150.68 5
0 -2 4 531.35 12.8
0 -2 -4 525.95 11.3
0 -2 -4 524.15 10.3
0 -2 -4 521.75 14.6
0 -2 4 536.55 18
0 -2 4 526.45 12.1
0 -2 4 519.75 18.3
0 -2 -4 514.55 13.3
0 2 4 541.55 11.6
0 2 4 526.05 16.9
0 2 -4 545.25 16.4
0 2 4 539.65 14.9
0 2 -4 541.95 16.8
0 2 -4 518.65 11.4
0 2 -4 533.35 12.1
0 2 4 543.45 11.4
-1 -2 -4 33.1 3.3
1 -2 4 37.2 3
1 -2 4 21.2 5.4
1 -2 4 35.9 4.8
1 -2 4 32.1 2.5
-1 -2 -4 33 2.9
-1 -2 -4 32.1 5.4
-1 -2 -4 34.9 1.6
-1 2 -4 31.2 3.3
1 2 4 41.3 4.2
-1 2 -4 36.1 4.4
1 2 4 38.2 6.8
1 2 4 33.9 1.9
-1 2 -4 32.7 1.9
1 2 4 36.8 2.9
-1 2 -4 28.7 5.4
2 -2 4 268.67 7.9
-2 -2 -4 295.77 11
-2 -2 -4 277.97 9.7
-2 -2 -4 246.68 15.3
2 -2 4 272.67 9.8
-2 -2 -4 264.97 6.4
2 2 4 285.57 9.8
-2 2 -4 265.77 6.8
-2 2 -4 287.67 10.9
2 2 4 267.77 10.5
2 2 4 268.17 7.2
2 2 4 244.08 15.9
-3 -2 -4 55.19 6.4
3 -2 4 64.99 3.8
-3 -2 -4 66.79 3
3 -2 4 60.79 5.5
-3 2 -4 66.39 3.1
3 2 4 79.59 5.7
3 2 4 69.39 3.5
-3 2 -4 69.49 6.4
-4 -2 -4 179.68 5.6
-4 -2 -4 190.78 12.8
4 -2 4 177.08 7
4 -2 4 166.28 9.7
-4 2 -4 179.88 5.7
-4 2 -4 194.88 11.8
4 2 4 174.88 10.2
4 2 4 171.68 6.4
5 -2 4 34.4 4.3
5 -2 4 24.6 6.2
-5 -2 -4 31.6 2.9
-5 -2 -4 32.8 8.2
5 2 4 21.5 5.1
-5 2 -4 43.5 7.4
5 2 4 32.1 3.6
-5 2 -4 31.6 2.6
6 -2 4 25.4 4.3
-6 -2 -4 31 3.4
-6 -2 -4 35.1 8.8
6 -2 4 18.4 6.9
6 2 4 30.8 3.8
6 2 4 23.8 6.1
-6 2 -4 31.6 3.4
-6 2 -4 24.4 6.7
-6 -3 4 69.69 11.8
-6 -3 4 84.19 4.7
6 3 -4 84.79 4.9
-5 -3 4 40.9 3.1
5 -3 -4 39.8 5
-5 3 4 56.19 10.8
-5 3 4 35 4.3
5 3 -4 42.7 3.5
4 -3 -4 205.08 6.2
-4 -3 4 205.48 6.4
-4 3 4 200.58 5.7
-4 3 4 199.98 11
4 3 -4 206.38 6.7
-3 -3 4 696.43 15.1
3 -3 -4 722.33 14.3
3 3 -4 687.03 16.9
3 3 -4 705.03 15.3
-3 3 4 687.53 20.1
-3 3 4 731.23 14.1
2 -3 -4 200.18 6
2 -3 -4 200.18 4.9
2 -3 -4 202.28 6.9
-2 -3 4 202.08 8.4
-2 -3 4 202.38 5.8
2 -3 -4 206.88 11
2 3 -4 191.38 6.7
2 3 -4 199.58 5.8
-2 3 4 196.08 11.6
-2 3 4 198.08 7.7
-2 3 4 205.78 4.8
-1 -3 4 578.74 12.6
1 -3 -4 567.24 11
1 -3 -4 575.94 10.8
1 -3 -4 564.94 12.7
-1 -3 4 571.64 18.5
-1 -3 4 513.35 19.9
-1 -3 4 563.54 14.8
1 -3 -4 558.44 14.1
1 3 -4 603.84 20.3
1 3 -4 570.14 12.6
-1 3 4 542.95 15.4
-1 3 4 580.34 12.2
-1 3 4 547.75 14.9
-1 3 4 581.04 11.3
1 3 -4 568.34 12.9
1 3 -4 572.44 16.8
0 -3 -4 88.49 4.8
0 -3 4 81.59 4.7
0 -3 -4 82.89 4
0 -3 -4 88.99 3.1
0 -3 4 82.69 3.9
0 -3 4 72.19 7.7
0 -3 4 81.09 8.7
0 -3 -4 85.89 2.4
0 3 4 86.19 3.3
0 3 4 82.49 6.8
0 3 -4 90.99 6.6
0 3 -4 84.39 3.9
0 3 -4 84.09 6.3
0 3 4 86.79 3.5
0 3 4 80.59 5
0 3 -4 86.19 3.4
-1 -3 -4 374.66 7.8
1 -3 4 361.06 17.9
1 -3 4 370.56 14.6
-1 -3 -4 379.36 10.4
-1 -3 -4 383.66 14.7
1 -3 4 374.46 10.8
-1 -3 -4 379.26 10.4
1 -3 4 367.36 10.1
1 3 4 363.76 16.3
-1 3 -4 376.06 15.6
1 3 4 386.66 11.5
1 3 4 375.96 8.5
-1 3 -4 360.66 10.7
-1 3 -4 380.86 13.1
1 3 4 377.46 10.1
-1 3 -4 365.86 8.6
2 -3 4 290.87 8.7
-2 -3 -4 271.17 15.8
-2 -3 -4 285.57 6.6
-2 -3 -4 282.27 9.6
2 -3 4 282.47 9.9
-2 -3 -4 292.57 10.6
-2 3 -4 296.47 10.5
2 3 4 284.77 9.6
-2 3 -4 281.77 7.1
2 3 4 261.37 16.6
2 3 4 283.57 7.3
2 3 4 275.27 10.4
3 -3 4 261.47 11
-3 -3 -4 272.37 6.8
3 -3 4 273.57 8.6
-3 -3 -4 275.57 12.4
-3 3 -4 269.87 7.2
-3 3 -4 252.47 11
3 3 4 263.97 7.6
3 3 4 257.97 10.3
4 -3 4 251.47 12.4
-4 -3 -4 269.17 7.5
4 -3 4 272.67 9.4
-4 -3 -4 268.37 15.4
-4 3 -4 267.67 7.5
4 3 4 266.47 8.3
-4 3 -4 266.77 12.9
4 3 4 276.67 12.1
-5 -3 -4 3 7
5 -3 4 1.1 2.6
-5 -3 -4 2.4 1.7
5 -3 4 2.2 5.2
5 3 4 3.7 1.5
5 3 4 2.7 3.2
-5 3 -4 3.2 1.2
-5 3 -4 3.9 4.3
-6 -3 -4 59.89 11
-6 -3 -4 42 3.7
6 -3 4 46.1 5.5
6 -3 4 39.5 8.2
6 3 4 42.5 6.5
-6 3 -4 39.4 3.5
-6 3 -4 46 8.4
6 3 4 51.49 4.3
-6 -4 4 33.9 3.6
-6 -4 4 22.2 9.1
6 4 -4 27.9 3.3
-5 -4 4 95.79 4.6
5 4 -4 99.09 5
-4 -4 4 76.19 3.9
4 4 -4 78.29 5.5
4 4 -4 81.89 4.3
-3 -4 4 56.79 3
3 4 -4 56.89 4
3 4 -4 63.49 3.3
-2 -4 4 49.4 5
-2 -4 4 52.79 2.8
2 4 -4 53.09 2.8
2 4 -4 57.19 3.6
-1 -4 4 64.79 3.2
-1 -4 4 58.79 4.8
1 4 -4 56.69 3.1
1 4 -4 61.49 3.2
0 -4 4 39.5 6.7
0 -4 4 39 6.4
0 -4 4 51.09 4.6
0 -4 4 44.2 3.2
0 4 -4 49 2.5
0 4 -4 50.69 3
0 4 -4 52.09 6.1
0 4 -4 48 5.5
1 -4 4 42 3.7
1 -4 4 48.3 4.4
-1 4 -4 42.1 2.3
-1 4 -4 42.4 3.4
-2 -4 -4 183.08 4.9
2 -4 4 186.08 7.2
-2 -4 -4 214.78 9.9
2 -4 4 183.58 8
-2 4 -4 183.18 7.9
-2 4 -4 186.88 5.4
2 4 4 169.98 5.3
2 4 4 188.88 7.4
3 -4 4 23.9 3.5
-3 -4 -4 17.6 1.9
3 -4 4 24.4 4.8
-3 -4 -4 30.1 5.7
3 4 4 25.2 4
-3 4 -4 17 3.5
3 4 4 17.9 2.1
-3 4 -4 17.8 1.9
-4 -4 -4 42.2 8.2
4 -4 4 38.9 6.6
4 -4 4 40.1 4.5
-4 -4 -4 35.4 3.1
4 4 4 42.8 3.2
-4 4 -4 44 2.7
4 4 4 48 5.9
-4 4 -4 34 5.8
5 -4 4 75.19 9.7
-5 -4 -4 83.39 4.5
-5 -4 -4 79.09 12.2
5 -4 4 97.99 6.6
-5 4 -4 89.89 4.2
5 4 4 90.59 5.2
5 4 4 91.79 7.8
-5 4 -4 84.19 8.2
6 -4 4 25.6 8
6 -4 4 19.5 4.3
-6 -4 -4 30.1 9.7
-6 -4 -4 17.7 2.7
6 4 4 21.8 5.2
-6 4 -4 17.4 2.7
6 4 4 26.3 3.6
-6 4 -4 26.4 6.3
-6 -5 4 68.99 13.9
-6 -5 4 88.39 5.2
6 5 -4 97.29 5.2
6 5 -4 83.49 7.1
-5 -5 4 5.6 1.9
5 5 -4 8.1 2.3
5 5 -4 12.2 2.8
-4 -5 4 37.1 3
4 5 -4 34.4 3.2
4 5 -4 43.1 4.9
-3 -5 4 83.49 3.8
3 5 -4 74.99 4.9
3 5 -4 80.29 3.8
-2 -5 4 18.3 4.2
-2 -5 4 14.9 1.9
2 5 -4 13 1.7
2 5 -4 10.8 2.1
-1 -5 4 368.16 12.3
-1 -5 4 377.16 9.7
1 5 -4 373.46 9.2
1 5 -4 376.66 9.7
0 -5 4 52.59 5.3
0 -5 4 57.39 3.6
0 5 -4 53.49 2.7
0 5 -4 50.39 3
1 -5 4 390.26 12.1
1 -5 4 401.66 11.9
-1 5 -4 424.56 9.6
-1 5 -4 422.16 11.1
2 -5 4 18.4 3.7
2 -5 4 20.3 4.1
-2 5 -4 20.8 1.7
-2 5 -4 22.3 3.2
3 -5 4 55.89 7.4
3 -5 4 60.59 5.5
-3 5 -4 68.79 6.6
-3 5 -4 61.39 3.1
4 -5 4 123.49 10.2
4 -5 4 112.89 6.9
-4 5 -4 119.39 4.6
-4 5 -4 119.69 8.4
-5 -6 4 -1.8 10.2
-5 -6 4 15.3 2.7
5 6 -4 11.9 2.4
5 6 -4 14.5 3.4
-4 -6 4 26.1 3
4 6 -4 21 2.7
4 6 -4 26.6 4.1
-3 -6 4 7.1 1.9
3 6 -4 6.6 1.5
3 6 -4 7.6 2.1
-2 -6 4 13.6 5
-2 -6 4 18.9 2.6
2 6 -4 22.8 3
2 6 -4 25.6 2.5
-1 -6 4 58.29 6.4
-1 -6 4 57.19 3.6
1 6 -4 59.79 3
1 6 -4 56.09 3.3
7 0 -5 6.3 2.6
-7 0 5 5.8 7.1
-7 0 5 9.9 2.3
-6 0 5 32.1 2.9
-6 0 5 26.9 7.9
6 0 -5 36.3 4
-5 0 5 148.29 5.6
5 0 -5 146.89 6
-4 0 5 17.1 1.9
4 0 -5 17.1 2.3
-3 0 5 -0.3 1.7
-3 0 5 1.9 0.8
3 0 -5 1.1 1.1
-2 0 5 139.99 9.9
2 0 -5 138.79 4.6
2 0 -5 136.29 10.2
-2 0 5 140.89 4.6
-2 0 5 138.69 7.9
-2 0 5 140.59 6.8
2 0 -5 156.08 6
2 0 -5 147.69 7.1
-1 0 5 131.99 5.6
1 0 -5 127.79 4.4
1 0 -5 129.59 6.8
1 0 -5 146.69 8.6
-1 0 5 131.39 4.4
1 0 -5 135.99 4.3
-1 0 5 138.79 8
-1 0 5 133.19 8.7
0 0 5 270.37 12
0 0 5 295.17 13.5
0 0 -5 292.97 11
0 0 -5 276.97 6.9
0 0 -5 276.47 11.6
0 0 5 287.07 7.9
0 0 5 279.97 8.1
0 0 -5 284.07 7.9
1 0 5 -5.1 3.5
-1 0 -5 -2.6 1.7
1 0 5 1.3 1.3
-1 0 -5 3.5 3.3
-1 0 -5 1.7 0.8
-1 0 -5 4.9 2.2
1 0 5 3.3 2.2
1 0 5 -0.6 1.5
2 0 5 40 2.8
-2 0 -5 44 2.3
-2 0 -5 48.2 5.4
2 0 5 46.6 4.2
-3 0 -5 375.96 14.6
3 0 5 409.46 14
3 0 5 409.76 11
-3 0 -5 402.46 9.7
-4 0 -5 1 1.2
4 0 5 -1.8 2.5
4 0 5 3.2 1.8
-5 0 -5 43.5 7.9
-5 0 -5 49.9 3.4
5 0 5 35.4 6.2
5 0 5 39.5 4.4
6 0 5 5.2 2.3
6 0 5 6.2 4.9
-6 0 -5 5.8 5.7
-6 0 -5 8.9 2.2
-7 -1 5 2.1 7.5
7 -1 -5 9.5 2.7
-7 -1 5 7.7 2.1
7 1 -5 9 2.8
-7 1 5 14.4 6
-7 1 5 9.5 2.1
6 -1 -5 14.9 2.9
-6 -1 5 12.8 2.4
-6 -1 5 11.6 8.2
-6 1 5 15.2 6.2
6 1 -5 13.6 2.9
-6 1 5 16.9 2.5
-5 -1 5 15.2 2.3
5 -1 -5 16.1 2.8
-5 1 5 15.7 6.7
5 1 -5 12.2 2.5
-5 1 5 14.7 2.1
4 -1 -5 93.79 4.5
-4 -1 5 88.49 3.8
4 1 -5 91.09 4.3
-4 1 5 81.39 3.5
-3 -1 5 53.99 2.8
3 -1 -5 62.29 3.3
3 -1 -5 40 4.4
-3 -1 5 59.29 5.4
3 1 -5 48.9 3.7
-3 1 5 63.19 2.8
3 1 -5 59.09 3.1
2 -1 -5 53.69 3.8
2 -1 -5 39.1 6.3
-2 -1 5 43.4 2.6
-2 -1 5 38.7 4.2
2 -1 -5 45.9 2.5
2 -1 -5 43 3.6
2 1 -5 45.5 2.6
2 1 -5 43.5 3.2
-2 1 5 47 5
-2 1 5 40.9 2.3
-2 1 5 44.5 3.9
1 -1 -5 19.4 1.6
1 -1 -5 17.4 2.8
1 -1 -5 20.6 3.8
-1 -1 5 17.3 4.1
-1 -1 5 16 2.4
-1 -1 5 20.4 3.8
-1 -1 5 18.7 1.6
1 -1 -5 21.1 1.9
-1 1 5 19.8 1.5
-1 1 5 19.6 2.3
1 1 -5 16.7 3.6
1 1 -5 19.3 3.2
-1 1 5 18.6 3.9
-1 1 5 18.8 3.4
1 1 -5 19 1.6
1 1 -5 21.2 1.8
0 -1 -5 493.75 11.6
0 -1 5 503.05 18.9
0 -1 -5 494.45 10.5
0 -1 -5 506.55 16.1
0 -1 5 496.55 12.1
0 -1 -5 500.35 14.7
0 -1 5 500.95 12.6
0 -1 5 479.85 17.6
0 1 -5 491.35 16.8
0 1 -5 508.25 12
0 1 -5 498.05 11
0 1 5 500.05 11.9
0 1 5 497.45 18.2
0 1 -5 516.45 16.1
0 1 5 521.85 16.7
0 1 5 512.35 11.8
-1 -1 -5 93.79 9.5
-1 -1 -5 80.79 3
1 -1 5 71.49 8.5
1 -1 5 75.69 4.9
1 -1 5 84.59 4.3
-1 -1 -5 80.89 5.2
-1 -1 -5 84.39 5.4
1 -1 5 90.69 11.7
1 1 5 86.89 4
-1 1 -5 103.69 13
1 1 5 83.09 10.8
-1 1 -5 80.19 8.2
-1 1 -5 82.89 3.3
1 1 5 91.79 6.2
-1 1 -5 95.69 5.7
1 1 5 78.29 4.8
2 -1 5 20.6 3.3
-2 -1 -5 19.2 1.6
-2 -1 -5 22.8 3.9
2 -1 5 20.7 2.5
-2 1 -5 19.9 1.7
2 1 5 28.2 3.9
-2 1 -5 31 4.5
2 1 5 19.3 2.2
3 -1 5 7.1 1.7
-3 -1 -5 9 3.5
-3 -1 -5 7.4 1.3
3 -1 5 7.6 2.7
3 1 5 4.5 2.3
-3 1 -5 4.5 2.9
-3 1 -5 7.4 1.4
3 1 5 4.2 1.4
4 -1 5 50.49 4.2
4 -1 5 42.1 5.7
-4 -1 -5 42.2 7
-4 -1 -5 41.3 3
4 1 5 45.7 3.8
4 1 5 37.3 5.4
-4 1 -5 45.8 6.5
-4 1 -5 44.4 2.9
-5 -1 -5 39.9 3
5 -1 5 38.9 4.5
-5 -1 -5 37.9 8.2
5 -1 5 37 6.6
-5 1 -5 37 2.8
5 1 5 45.8 4.6
-5 1 -5 45.2 8.2
5 1 5 41.2 6.6
-6 -1 -5 -2.8 5.5
6 -1 5 0.8 5.2
-6 -1 -5 3.8 1.8
6 -1 5 -0.7 2.2
6 1 5 2 2
6 1 5 3.8 4
-6 1 -5 3.3 5.1
-6 1 -5 0.6 1.7
-7 -2 5 30 3.5
7 -2 -5 30.3 3.9
-7 2 5 36 3.3
7 2 -5 26.8 3.7
-6 -2 5 72.29 4.4
6 -2 -5 72.59 4.9
-6 -2 5 56.99 11.3
6 2 -5 76.19 5
-6 2 5 65.39 3.8
-6 2 5 61.19 10
5 -2 -5 230.38 7.6
-5 -2 5 232.78 7.5
-5 2 5 235.38 7
5 2 -5 224.38 7.9
-5 2 5 222.28 14.3
4 -2 -5 5.3 1.8
-4 -2 5 5.5 1.3
4 2 -5 8.6 1.7
4 2 -5 2.6 2.4
-4 2 5 5.4 1.1
3 -2 -5 157.68 5.2
-3 -2 5 163.58 5.4
3 -2 -5 152.68 6.9
-3 -2 5 156.18 8.3
-3 2 5 165.68 4.9
3 2 -5 166.28 5.5
3 2 -5 173.18 6.9
2 -2 -5 79.49 4.8
2 -2 -5 66.39 4.1
2 -2 -5 69.99 8
-2 -2 5 72.69 3.4
2 -2 -5 69.99 2.9
-2 -2 5 67.59 5.2
-2 2 5 68.59 2.8
2 2 -5 75.79 4.1
-2 2 5 64.19 5.1
2 2 -5 67.99 3.2
-2 2 5 63.09 4.7
1 -2 -5 155.28 4.5
1 -2 -5 157.08 4.8
1 -2 -5 157.68 6.8
1 -2 -5 155.88 8.2
-1 -2 5 149.59 10.7
-1 -2 5 158.98 13
-1 -2 5 145.69 7
-1 -2 5 154.88 5.4
-1 2 5 156.98 4.8
1 2 -5 158.68 5.3
1 2 -5 162.38 10.3
1 2 -5 159.98 10.8
-1 2 5 173.68 5.9
1 2 -5 158.28 5.5
-1 2 5 157.98 8.7
-1 2 5 165.28 8.4
0 -2 5 472.55 18.9
0 -2 5 466.65 12.5
0 -2 -5 462.55 13.2
0 -2 -5 457.45 10.6
0 -2 -5 444.26 14.4
0 -2 5 418.76 17.4
0 -2 -5 445.86 9.4
0 -2 5 452.25 11.5
0 2 5 459.85 11.1
0 2 -5 459.55 11.4
0 2 5 447.56 17.3
0 2 5 457.65 15.2
0 2 -5 450.25 10.5
0 2 -5 486.95 16.1
0 2 -5 423.16 15.9
0 2 5 455.25 10.9
-1 -2 -5 87.09 8.9
-1 -2 -5 76.79 4.8
1 -2 5 75.09 4.5
1 -2 5 80.19 4.9
-1 -2 -5 82.99 3
-1 -2 -5 90.19 5.3
-1 2 -5 79.29 5.1
1 2 5 72.89 5.5
1 2 5 81.09 3.6
-1 2 -5 78.09 3.2
1 2 5 77.19 4.5
1 2 5 97.59 11.7
2 -2 5 65.99 4.8
-2 -2 -5 56.29 2.7
2 -2 5 55.49 3.6
-2 -2 -5 57.89 5.7
2 2 5 48.9 4.3
2 2 5 51.69 3.1
-2 2 -5 56.39 2.7
-2 2 -5 56.59 5.2
-3 -2 -5 98.89 3.7
3 -2 5 89.99 6.8
-3 -2 -5 89.09 7.9
3 -2 5 94.79 4.8
3 2 5 95.69 4.5
3 2 5 94.19 6.5
-3 2 -5 87.39 7
-3 2 -5 101.69 3.9
4 -2 5 27.3 5.7
-4 -2 -5 33.7 8.1
-4 -2 -5 41.3 2.8
4 -2 5 35.1 3.8
-4 2 -5 38.4 2.7
4 2 5 38.2 3.4
-4 2 -5 20.9 5.4
4 2 5 34.6 6.6
-5 -2 -5 30.8 8.5
5 -2 5 39 4.6
-5 -2 -5 42.1 3.5
5 -2 5 24.6 6.3
-5 2 -5 36.6 7.3
5 2 5 28.7 5.9
-5 2 -5 36 2.9
5 2 5 43.4 4.2
-6 -2 -5 30.8 8.9
-6 -2 -5 30.1 3.5
6 -2 5 31.1 4.7
6 -2 5 16.7 6.9
6 2 5 27.1 6.1
-6 2 -5 35 7.7
6 2 5 41.5 4.8
-6 2 -5 31.1 3.3
-6 -3 5 25.1 9.5
-6 -3 5 24.2 3
6 3 -5 22.8 3.2
-5 -3 5 67.19 3.9
5 3 -5 61.39 4.1
5 3 -5 67.19 6.9
-4 -3 5 128.69 5.2
4 3 -5 137.69 5.5
4 3 -5 158.38 7.5
3 -3 -5 451.25 11
-3 -3 5 450.55 15
3 -3 -5 401.76 14.5
-3 -3 5 446.96 10.9
3 3 -5 443.56 11
3 3 -5 451.05 12.7
-3 3 5 464.85 10.9
2 -3 -5 61.49 2.6
-2 -3 5 56.79 5
2 -3 -5 64.09 3.6
-2 -3 5 59.49 3.1
-2 3 5 58.39 2.4
2 3 -5 55.39 3.6
2 3 -5 57.99 3.1
-1 -3 5 30.3 2.5
-1 -3 5 33.5 4
1 -3 -5 34.3 2.1
1 -3 -5 39.4 2.1
-1 3 5 46.3 3.3
1 3 -5 30.7 2.4
1 3 -5 33.7 2.6
-1 3 5 35.5 2.1
0 -3 -5 111.39 6.1
0 -3 -5 112.29 4
0 -3 5 106.09 5.7
0 -3 -5 119.59 5.6
0 -3 -5 109.19 3.2
0 -3 5 116.29 5.3
0 3 5 108.59 4.3
0 3 5 111.99 4.3
0 3 -5 105.69 4.1
0 3 5 116.69 8.6
0 3 5 109.99 6.6
0 3 -5 114.49 5
1 -3 5 18 2.7
-1 -3 -5 26.4 3.1
1 -3 5 18.8 2.9
-1 -3 -5 21.3 1.6
-1 -3 -5 21.9 3
-1 -3 -5 16.3 4.4
1 3 5 19.4 1.8
1 3 5 21.9 2.8
1 3 5 21.5 3.3
1 3 5 19.4 5
-1 3 -5 20 1.7
-1 3 -5 17.1 2.6
2 -3 5 27 3.8
-2 -3 -5 29.2 2.1
-2 -3 -5 28.9 4.6
2 -3 5 23.1 2.9
2 3 5 26.2 3.6
-2 3 -5 28.4 2.1
-2 3 -5 29.9 4.2
2 3 5 29.2 2.3
3 -3 5 13.8 3.9
-3 -3 -5 17.4 5.3
3 -3 5 15.1 2.9
-3 -3 -5 13.9 1.8
-3 3 -5 12.2 1.6
-3 3 -5 12.9 3.5
3 3 5 13.7 3.1
3 3 5 11.9 2
-4 -3 -5 15.9 2.1
-4 -3 -5 28.5 7.3
4 -3 5 21.6 3.6
4 -3 5 23.5 5.5
-4 3 -5 20.6 2.3
-4 3 -5 15 4.7
4 3 5 21.4 2.7
4 3 5 27.5 5.2
-5 -3 -5 14.3 8.5
5 -3 5 3 5.3
5 -3 5 4.8 2.7
-5 -3 -5 5.3 1.9
5 3 5 5.2 2
-5 3 -5 6.4 1.6
5 3 5 1.5 3.6
-5 3 -5 8.2 4
6 -3 5 28.1 4.7
-6 -3 -5 29.9 10.1
6 -3 5 24.8 7.7
-6 -3 -5 28.2 3.4
6 3 5 30.7 4.1
-6 3 -5 27.1 6.6
6 3 5 29.5 7.2
-6 3 -5 33.4 3.4
-6 -4 5 116.29 15.7
-6 -4 5 181.78 7.4
6 4 -5 176.38 9.4
6 4 -5 186.28 7.5
-5 -4 5 14.8 2.4
5 4 -5 15 2.9
5 4 -5 13.4 2.5
-4 -4 5 31.4 2.8
4 4 -5 25 3.8
4 4 -5 32.7 2.9
-3 -4 5 187.18 6.2
-3 -4 5 186.78 9.8
3 4 -5 179.78 7.6
3 4 -5 179.18 6.1
-2 -4 5 157.18 5.6
-2 -4 5 155.58 8.2
2 4 -5 157.78 6.3
2 4 -5 156.48 5.5
-1 -4 5 18.7 3.7
-1 -4 5 22.2 2.5
1 4 -5 19.5 2.3
1 4 -5 18.1 2
0 -4 5 243.68 9.3
0 -4 5 237.38 7.9
0 4 -5 241.18 6.8
0 4 -5 229.68 7.3
1 -4 5 156.08 7
1 -4 5 152.08 7
-1 4 -5 164.58 6.8
-1 4 -5 159.28 5.2
2 -4 5 3.4 2.3
2 -4 5 5 2.5
-2 4 -5 5.7 1.2
-2 4 -5 1.8 1.8
-3 -4 -5 15.6 5.6
-3 -4 -5 16 2
3 -4 5 12.4 4.2
3 -4 5 11.3 3.1
3 4 5 18.8 2.4
-3 4 -5 15.6 4
3 4 5 18.3 3.9
-3 4 -5 14 1.9
4 -4 5 6.3 3.2
-4 -4 -5 7.9 1.8
-4 -4 -5 7 6.4
4 -4 5 2.2 4.8
-4 4 -5 10.4 3.8
4 4 5 9.4 2
4 4 5 16.7 4.4
-4 4 -5 7.1 1.6
-5 -4 -5 24.3 2.9
-5 -4 -5 16.6 7.7
5 -4 5 18.1 4.2
5 -4 5 30.1 7.1
-5 4 -5 26.5 2.9
5 4 5 31.4 3.8
-5 4 -5 17.6 5.5
5 4 5 19.8 5.1
-6 -5 5 19.7 3.1
-6 -5 5 16 11.9
6 5 -5 25.4 3.4
6 5 -5 35.4 4.9
-5 -5 5 52.59 4
5 5 -5 57.19 6.3
5 5 -5 54.19 4.1
-4 -5 5 112.79 5.1
4 5 -5 110.69 5.3
4 5 -5 110.69 6.5
-3 -5 5 112.99 9.1
-3 -5 5 136.19 5.5
3 5 -5 128.39 6.4
3 5 -5 134.59 5.4
-2 -5 5 104.59 7.9
-2 -5 5 110.59 4.8
2 5 -5 102.69 4.3
2 5 -5 115.89 5.2
-1 -5 5 17 4
-1 -5 5 22 2.6
1 5 -5 17.1 2.1
1 5 -5 20 2.4
0 -5 5 9.3 3.3
0 -5 5 4.5 1.6
0 5 -5 5.2 1.2
0 5 -5 4.6 1.3
1 -5 5 16.9 3.3
1 -5 5 12.9 3.8
-1 5 -5 18.2 2
-1 5 -5 17.2 2.5
2 -5 5 2.6 3.3
2 -5 5 1.5 3.5
-2 5 -5 2.1 2.2
-2 5 -5 7 1.4
3 -5 5 45.8 6.8
3 -5 5 32.1 4.6
-3 5 -5 47.8 5.8
-3 5 -5 41.7 2.7
4 -5 5 22.7 6.3
4 -5 5 23 4.8
-4 5 -5 18.6 2.3
-4 5 -5 10.5 4.3
5 -5 5 41 7.5
5 -5 5 47.6 6.1
-5 5 -5 49.3 3.3
-5 5 -5 41.2 6.7
-5 -6 5 22.1 3.1
5 6 -5 14.8 3.6
5 6 -5 16.8 2.8
-4 -6 5 22.1 3.2
4 6 -5 22.4 3
4 6 -5 14.9 3.6
-3 -6 5 58.59 4
3 6 -5 55.49 4.5
3 6 -5 61.39 3.7
-2 -6 5 8 4.8
-2 -6 5 9 2.2
2 6 -5 8.8 2
2 6 -5 9.7 1.8
-1 -6 5 52.89 6.4
-1 -6 5 57.19 4.1
1 6 -5 49.5 3.2
1 6 -5 44.6 3.3
0 -6 5 43.6 5.8
0 -6 5 32.6 4
0 6 -5 31.2 2.8
0 6 -5 30.8 2.8
1 -6 5 164.08 9.5
1 -6 5 157.38 8.3
-1 6 -5 167.48 5.5
-1 6 -5 161.98 6.6
-6 0 6 8.8 6.7
6 0 -6 17.3 3.1
-6 0 6 11.6 2.2
5 0 -6 111.29 8.1
5 0 -6 121.69 5.8
-5 0 6 114.89 5
4 0 -6 45.1 5.3
4 0 -6 33.5 3.2
-4 0 6 45 2.8
3 0 -6 9.2 1.7
-3 0 6 5.5 2.6
3 0 -6 10.6 3
-3 0 6 8.1 1.3
2 0 -6 57.59 3.9
-2 0 6 62.59 3.1
-2 0 6 54.79 4.6
2 0 -6 64.79 3.3
-1 0 6 60.79 3.3
1 0 -6 51.09 3.2
-1 0 6 56.39 4.5
1 0 -6 57.09 3.1
-1 0 6 57.79 8.5
-1 0 6 43.4 10.1
1 0 -6 63.29 8.7
0 0 -6 25.8 2
0 0 -6 18.3 5.2
0 0 6 24 6.5
1 0 6 420.86 12.4
-1 0 -6 416.26 9.7
1 0 6 430.06 11.4
-1 0 -6 424.26 12.5
2 0 6 140.89 7.4
2 0 6 144.09 5.9
-2 0 -6 122.19 7.6
-2 0 -6 135.49 4.5
-3 0 -6 7.9 1.4
-3 0 -6 7.3 3.5
3 0 6 10.3 2
3 0 6 7.1 2.8
-4 0 -6 135.89 5.3
4 0 6 137.59 6.7
4 0 6 124.89 8.8
-4 0 -6 143.69 11
5 0 6 7.4 4.3
5 0 6 7.4 2.3
-5 0 -6 4.6 4.6
-5 0 -6 8.2 1.8
6 0 6 3.1 2
-6 0 -6 -0.5 1.5
6 0 6 2.7 5.1
-6 0 -6 9 6.5
-6 -1 6 53.49 3.8
6 -1 -6 45.4 4.2
-6 -1 6 38.1 10.8
-6 1 6 35 8.8
-6 1 6 46.1 3.4
6 1 -6 49.5 4.5
6 1 -6 40.3 6.2
5 -1 -6 23.3 5
5 -1 -6 18.6 2.9
-5 -1 6 24 2.8
5 1 -6 20.2 4.5
-5 1 6 22.2 2.6
5 1 -6 21.9 3.2
4 -1 -6 382.66 12.2
-4 -1 6 390.06 10.3
4 -1 -6 386.76 10.1
4 1 -6 397.46 12.5
-4 1 6 370.96 9.8
3 -1 -6 187.08 5.9
3 -1 -6 184.28 7.7
-3 -1 6 179.38 5.9
-3 -1 6 181.78 9.1
3 1 -6 192.28 7.7
-3 1 6 191.78 8.7
3 1 -6 193.38 6.1
-3 1 6 185.88 5.7
2 -1 -6 79.39 4.4
2 -1 -6 80.79 3.6
-2 -1 6 83.99 3.7
-2 -1 6 91.59 5.8
2 1 -6 81.59 3.7
2 1 -6 79.99 4.4
-2 1 6 79.39 5
-2 1 6 78.79 3.4
1 -1 -6 649.93 18.4
1 -1 -6 640.84 20.2
-1 -1 6 626.54 16.8
-1 -1 6 635.04 14.6
1 -1 -6 637.94 13.8
1 -1 -6 644.54 14
1 1 -6 665.23 14.5
1 1 -6 655.53 14.6
-1 1 6 648.94 14.3
-1 1 6 641.64 21.9
-1 1 6 657.43 16.1
-1 1 6 639.14 21.1
0 -1 -6 126.89 5.1
0 -1 -6 132.59 7.4
0 -1 6 123.39 6.1
0 -1 -6 127.99 4.2
0 -1 -6 104.89 7.4
0 -1 6 128.69 5.4
0 1 6 131.39 10.2
0 1 -6 124.99 4.5
0 1 -6 133.99 5.5
0 1 6 120.19 5.2
0 1 6 128.69 9
0 1 6 131.89 5.6
-1 -1 -6 154.48 6.9
-1 -1 -6 156.58 4.7
1 -1 6 154.88 6.9
1 -1 6 146.69 6.1
-1 1 -6 147.29 6.7
-1 1 -6 150.18 4.9
1 1 6 158.38 6.8
1 1 6 151.38 5.8
-2 -1 -6 18.3 1.9
2 -1 6 15.2 3.3
2 -1 6 17.5 2.6
-2 -1 -6 15.1 3.5
2 1 6 17.6 3.4
2 1 6 15.7 2.3
-2 1 -6 21.4 4
-2 1 -6 20.2 1.8
3 -1 6 140.89 6.3
-3 -1 -6 138.89 4.9
-3 -1 -6 115.89 8.5
3 -1 6 127.99 8.3
-3 1 -6 143.09 5
-3 1 -6 117.99 8.5
3 1 6 139.09 5.9
3 1 6 139.29 8.2
-4 -1 -6 177.98 6.1
4 -1 6 151.98 10
4 -1 6 176.78 7.6
-4 -1 -6 165.78 11.7
4 1 6 155.98 10.1
-4 1 -6 171.48 11.3
4 1 6 174.08 7.4
-4 1 -6 181.88 6.2
-5 -1 -6 11.9 6.8
-5 -1 -6 8.2 1.9
5 -1 6 10.1 2.8
5 -1 6 7.5 4.2
5 1 6 6 2.5
5 1 6 9.4 4.1
-5 1 -6 10.7 4.9
-5 1 -6 9.7 2
6 -1 6 10.3 5.9
6 -1 6 10.1 3.1
-6 -1 -6 10.3 2.2
-6 -1 -6 6.9 7.6
-6 1 -6 10.9 2.3
6 1 6 8.9 3.1
6 1 6 8.8 5.6
-6 1 -6 7 5.7
6 -2 -6 21.4 3.1
-6 -2 6 2.3 9.1
-6 -2 6 27.2 3.4
-6 2 6 19 2.6
6 2 -6 19.1 3.3
6 2 -6 22 4.9
-6 2 6 19.3 6.3
5 -2 -6 66.79 6.6
5 -2 -6 60.19 4.3
-5 -2 6 57.19 3.7
5 2 -6 80.69 6.4
-5 2 6 51.29 9.4
-5 2 6 63.09 3.5
5 2 -6 62.09 4.5
-4 -2 6 12.8 1.9
4 -2 -6 14.9 2.5
4 -2 -6 9.1 3.7
4 2 -6 10.8 3
4 2 -6 14.7 2.3
-4 2 6 12.4 1.7
3 -2 -6 12.9 3.1
-3 -2 6 8.8 3.2
3 -2 -6 14.6 2
-3 -2 6 12.5 1.8
3 2 -6 12.4 1.9
3 2 -6 9.6 2.4
-3 2 6 14.3 1.6
2 -2 -6 209.88 12
2 -2 -6 215.78 8.5
-2 -2 6 227.88 6.9
-2 -2 6 212.68 9.2
2 -2 -6 209.48 5.9
2 -2 -6 203.68 6.7
2 2 -6 214.78 6.6
-2 2 6 217.48 8.1
2 2 -6 206.68 7.3
-2 2 6 216.18 6.1
-2 2 6 203.38 10.1
1 -2 -6 213.58 6.1
1 -2 -6 217.28 6
-1 -2 6 206.28 8.4
1 -2 -6 192.78 8.5
1 -2 -6 229.88 10.4
-1 -2 6 204.78 6.8
1 2 -6 210.38 6.6
-1 2 6 209.98 7.3
-1 2 6 210.88 6.4
-1 2 6 214.98 11.3
1 2 -6 211.68 6.7
-1 2 6 229.98 11.9
0 -2 6 16.7 2.5
0 -2 -6 16.4 3.3
0 -2 -6 11.7 2
0 -2 -6 11.6 1.7
0 -2 6 10.2 2.2
0 -2 -6 19.7 3.8
0 2 -6 10.5 1.8
0 2 -6 12.7 1.7
0 2 6 11.7 4
0 2 6 10.9 2
0 2 6 16 2.2
0 2 6 22.9 4.9
1 -2 6 451.55 12.2
1 -2 6 420.06 12.7
-1 -2 -6 417.56 12.1
-1 -2 -6 423.36 9.3
1 2 6 414.36 10.8
1 2 6 420.66 12.1
-1 2 -6 425.96 12.7
1 2 6 334.77 28.7
-1 2 -6 424.96 10.1
-2 -2 -6 130.89 4.4
2 -2 6 133.59 7.2
2 -2 6 137.69 6.1
-2 -2 -6 127.89 7.8
2 2 6 123.69 7
-2 2 -6 130.39 4.6
2 2 6 128.19 5.3
-2 2 -6 141.49 7.6
-3 -2 -6 39.1 6.2
-3 -2 -6 38.9 2.6
3 -2 6 27.1 4.6
3 -2 6 36.5 4
3 2 6 36.7 3.1
-3 2 -6 42.2 5.9
-3 2 -6 35.8 2.4
3 2 6 29 4.6
-4 -2 -6 117.89 4.8
-4 -2 -6 130.29 11.9
4 -2 6 122.99 9
4 -2 6 116.99 6.4
4 2 6 117.39 6
4 2 6 131.49 8.7
-4 2 -6 103.39 9.2
-4 2 -6 123.09 5
5 -2 6 16.9 3.4
-5 -2 -6 0.4 7
5 -2 6 17.1 5.9
-5 -2 -6 14.8 2.4
5 2 6 6.9 4
-5 2 -6 17.8 5.7
5 2 6 16.4 3.2
-5 2 -6 16.1 2.5
-6 -3 6 43.9 3.7
6 3 -6 67.19 6.2
6 3 -6 45.9 4.7
-5 -3 6 6.1 1.9
5 3 -6 1.5 1.9
5 3 -6 11.6 3.3
-4 -3 6 49.9 3.3
4 3 -6 44.3 4.9
4 3 -6 46.4 3.5
-3 -3 6 209.78 7
-3 -3 6 205.48 10.5
3 3 -6 228.18 8.5
3 3 -6 218.28 7
-2 -3 6 168.08 6
-2 -3 6 154.88 8.2
2 3 -6 158.78 5.7
2 3 -6 164.48 6.5
-1 -3 6 625.04 14.9
-1 -3 6 650.03 17.6
1 3 -6 644.44 14.7
1 3 -6 619.54 14.7
0 -3 -6 16.4 2.1
0 -3 6 19.1 3.4
0 -3 6 17.1 2.5
0 -3 -6 19.5 1.7
0 3 6 20.2 2.5
0 3 -6 17.9 2.4
0 3 6 20.6 2.4
0 3 -6 22.1 1.9
1 -3 6 413.46 12.4
-1 -3 -6 420.66 9.1
-1 -3 -6 416.06 12
1 -3 6 425.66 12.9
-1 3 -6 426.36 12.6
1 3 6 428.46 10.8
1 3 6 419.36 12.3
-1 3 -6 409.76 10.2
-2 -3 -6 13.1 1.7
2 -3 6 14 2.7
-2 -3 -6 18 4.2
2 -3 6 13.9 3.4
-2 3 -6 12.3 2.9
2 3 6 17.8 3.2
-2 3 -6 15.7 1.9
2 3 6 13.3 2
-3 -3 -6 61.49 7.9
3 -3 6 46.5 6.2
-3 -3 -6 51.39 3.1
3 -3 6 52.89 4.9
-3 3 -6 43.6 6.2
3 3 6 54.09 3.8
3 3 6 66.99 7
-3 3 -6 57.19 3.3
-4 -3 -6 139.59 5.3
4 -3 6 128.59 7.4
-4 -3 -6 136.69 12.5
4 -3 6 125.19 10
4 3 6 136.69 6.6
-4 3 -6 130.49 5.3
4 3 6 133.29 9.2
-4 3 -6 122.19 9.5
5 -3 6 75.09 9.5
-5 -3 -6 60.69 10.4
5 -3 6 86.79 6.8
-5 -3 -6 83.39 4.6
-5 3 -6 79.39 4.3
5 3 6 81.59 5.7
-5 3 -6 73.59 9.6
5 3 6 83.99 9.3
-6 -4 6 -8.9 9.8
-6 -4 6 20.9 3.2
6 4 -6 17.8 3.2
6 4 -6 22.7 4.7
-5 -4 6 29.8 3.5
5 4 -6 31.6 3.8
5 4 -6 32.5 4.9
-4 -4 6 16.8 2.4
4 4 -6 16.3 2.5
4 4 -6 14.6 3.1
-3 -4 6 109.89 9
-3 -4 6 87.99 4.5
3 4 -6 84.79 5.6
3 4 -6 88.39 4.4
-2 -4 6 183.48 9.2
-2 -4 6 178.18 6.5
2 4 -6 186.18 6.3
2 4 -6 180.88 6.9
-1 -4 6 31.7 2.9
-1 -4 6 37.9 4.8
1 4 -6 31.2 2.7
1 4 -6 32.1 2.7
0 -4 6 5 2.7
0 -4 6 11.4 2.2
0 4 -6 9.4 1.9
0 4 -6 10.9 1.6
1 -4 6 83.29 5.6
1 -4 6 86.79 6.1
-1 4 -6 86.99 5.1
-1 4 -6 86.49 3.9
2 -4 6 411.66 13
2 -4 6 402.16 14.1
-2 4 -6 418.16 10.2
-2 4 -6 402.66 13.5
3 -4 6 10.8 3.3
3 -4 6 9.3 4.4
-3 4 -6 10.4 1.8
-3 4 -6 13.7 3.8
4 -4 6 44.1 7.6
4 -4 6 46.8 5.7
-4 4 -6 40.9 6.5
-4 4 -6 49.99 3.3
5 -4 6 2.4 5.4
5 -4 6 4 3.2
-5 4 -6 5 3.2
-5 4 -6 1.6 1.4
-5 -5 6 66.79 4.4
5 5 -6 62.29 4.8
5 5 -6 63.69 5.8
-4 -5 6 54.29 4.1
4 5 -6 60.89 4
4 5 -6 44.8 5.1
-3 -5 6 44 3.8
-3 -5 6 41.8 6.6
3 5 -6 54.39 5.2
3 5 -6 49.9 3.6
-2 -5 6 139.49 6
-2 -5 6 155.38 9.6
2 5 -6 137.79 5.6
2 5 -6 146.19 6.4
-1 -5 6 53.49 6
-1 -5 6 63.59 4.1
1 5 -6 60.79 3.7
1 5 -6 63.09 3.7
0 -5 6 100.89 5.6
0 -5 6 112.99 7.9
0 5 -6 107.49 4.6
0 5 -6 108.09 4.9
1 -5 6 285.27 11
1 -5 6 285.97 11.4
-1 5 -6 303.07 9.8
-1 5 -6 303.47 8.3
2 -5 6 12.8 4.3
2 -5 6 3.4 3.9
-2 5 -6 11.7 3.3
-2 5 -6 11.9 1.9
3 -5 6 74.89 6.8
3 -5 6 75.29 8.9
-3 5 -6 75.69 3.7
-3 5 -6 70.59 6.4
4 -5 6 6.2 3.6
4 -5 6 -3.3 4.9
-4 5 -6 6.5 3.7
-4 5 -6 8.1 1.7
5 -5 6 23 5
5 -5 6 18.2 7
-5 5 -6 18.5 5.4
-5 5 -6 18.2 2.5
-5 -6 6 41.2 4.6
5 6 -6 49.3 6.5
5 6 -6 41.3 3.7
-4 -6 6 35.1 4.1
4 6 -6 38.4 3.4
4 6 -6 32.3 4.4
-3 -6 6 33.9 3.8
-3 -6 6 35.8 6.6
3 6 -6 41.9 3.9
3 6 -6 37.1 3.2
-2 -6 6 23.7 5.5
-2 -6 6 27.4 3.4
2 6 -6 25.8 2.5
2 6 -6 23 3.2
-1 -6 6 55.49 4.7
-1 -6 6 49.6 6.7
1 6 -6 46.4 3.6
1 6 -6 46.6 3.8
0 -6 6 9.8 4.6
0 -6 6 13.3 3.3
0 6 -6 8.8 2.1
0 6 -6 17.6 2.4
1 -6 6 7.1 3.4
1 -6 6 11.1 4.5
-1 6 -6 9 1.8
-1 6 -6 8.9 2.2
2 -6 6 90.69 7.9
2 -6 6 85.79 8.1
-2 6 -6 98.49 4.3
-2 6 -6 100.79 6.1
-6 0 7 3.1 1.6
-6 0 7 -13 7
6 0 -7 -1.2 2.2
6 0 -7 6.4 3.9
-5 0 7 1 1
5 0 -7 -0.7 2.2
5 0 -7 3.8 4.1
-4 0 7 74.49 3.9
4 0 -7 67.19 4.4
4 0 -7 67.89 6.1
3 0 -7 613.74 14.1
3 0 -7 613.84 15.9
-3 0 7 627.84 14.4
-3 0 7 594.44 18.1
2 0 -7 36.4 2.8
2 0 -7 34.6 3.6
-2 0 7 25.7 3.7
-2 0 7 29.3 2.5
1 0 -7 1.1 1.6
-1 0 7 0 0.8
-1 0 7 -0.5 1.6
1 0 -7 0.4 1.1
0 0 -7 107.69 4.4
0 0 7 114.69 5.8
0 0 -7 106.39 5.1
0 0 7 109.79 5.5
-1 0 -7 1 1.1
-1 0 -7 4.6 2.2
1 0 7 0.1 1.2
1 0 7 0.4 1.6
-2 0 -7 115.89 4.4
-2 0 -7 113.09 7.3
2 0 7 115.79 5.7
2 0 7 121.49 7.2
3 0 7 354.06 14.7
-3 0 -7 375.86 9.7
-3 0 -7 356.06 15.2
3 0 7 373.76 11.8
4 0 7 23.3 3.7
-4 0 -7 30.8 3
-4 0 -7 20.8 6
4 0 7 17.1 4.9
5 0 7 21.6 5.3
5 0 7 12.5 2.7
-5 0 -7 12.6 5.7
-5 0 -7 19.3 2.7
-6 -1 7 18.8 2.8
6 -1 -7 24.4 4.8
6 -1 -7 18.4 3.1
-6 1 7 19.1 2.7
6 1 -7 22.1 3.5
-6 1 7 11.2 7.1
6 1 -7 22.2 4.8
5 -1 -7 45.5 4.2
-5 -1 7 45.9 3.4
5 -1 -7 48.8 6.2
-5 1 7 51.49 3.4
5 1 -7 46.7 6
5 1 -7 37.4 4
-4 -1 7 400.76 10.9
4 -1 -7 400.26 13
4 -1 -7 399.46 10.6
4 1 -7 407.96 11.1
-4 1 7 398.26 10.5
4 1 -7 398.76 13.4
-3 -1 7 194.78 6.6
3 -1 -7 201.48 6.5
-3 -1 7 193.08 9.6
3 -1 -7 206.28 8.4
-3 1 7 202.28 9.4
3 1 -7 199.98 6.7
-3 1 7 191.08 6.3
3 1 -7 202.78 8
-2 -1 7 321.27 11.8
-2 -1 7 334.47 9.4
2 -1 -7 327.67 8.6
2 -1 -7 321.77 9.4
2 1 -7 327.07 9.7
-2 1 7 334.17 9
-2 1 7 334.47 11.4
2 1 -7 330.27 9
1 -1 -7 349.67 9.3
1 -1 -7 346.77 9.1
-1 -1 7 349.57 11.9
-1 -1 7 343.37 9.9
-1 1 7 333.27 10.9
-1 1 7 342.07 9.6
1 1 -7 343.27 9.5
1 1 -7 354.96 9.6
0 -1 -7 189.08 5.8
0 -1 -7 184.38 6.8
0 -1 7 195.28 8
0 -1 7 189.28 7.3
0 1 7 184.68 7.1
0 1 7 191.58 7.4
0 1 -7 188.68 6.1
-1 -1 -7 71.29 5.5
1 -1 7 75.09 4.8
-1 -1 -7 75.19 3.4
1 -1 7 68.69 5.1
-1 1 -7 69.79 5.3
1 1 7 68.09 4.8
-1 1 -7 69.79 3.4
1 1 7 71.09 4.4
-2 -1 -7 43.7 2.7
2 -1 7 39.2 4.9
-2 -1 -7 42.8 5.3
2 -1 7 43.3 3.8
-2 1 -7 45.8 5.5
2 1 7 41.8 3.4
2 1 7 37.8 4.9
-2 1 -7 40.6 2.6
3 -1 7 85.19 7.3
-3 -1 -7 89.49 4.2
-3 -1 -7 101.99 9.2
3 -1 7 86.49 5.3
3 1 7 87.69 6.9
3 1 7 85.39 5.3
-3 1 -7 96.39 4.3
-3 1 -7 77.59 7.9
-4 -1 -7 31.9 2.8
-4 -1 -7 36.1 7.2
4 -1 7 24.8 5.6
4 -1 7 25.9 3.8
4 1 7 31.9 4
4 1 7 29.9 5.9
-4 1 -7 27.9 2.5
-4 1 -7 28.6 6.4
5 -1 7 12.5 5.2
5 -1 7 12.5 3
-5 -1 -7 13.5 6.1
-5 -1 -7 12 2.2
5 1 7 18.7 4.7
5 1 7 14.7 3
-5 1 -7 12.3 5.5
-5 1 -7 13.9 2.4
-6 -2 7 14.8 2.7
6 2 -7 18.1 3.2
6 2 -7 17.6 5.1
5 -2 -7 2.3 2.1
-5 -2 7 2.4 1.4
5 -2 -7 2.6 3.9
5 2 -7 -0.5 3
-5 2 7 2.7 1.2
5 2 -7 -0.7 2
4 -2 -7 135.69 8.1
-4 -2 7 144.99 5.9
4 -2 -7 145.79 5.8
4 2 -7 140.69 7.8
-4 2 7 139.29 5.3
4 2 -7 139.99 6
-3 -2 7 138.79 8.3
-3 -2 7 150.08 5.8
3 -2 -7 147.19 5.5
3 -2 -7 156.58 7
3 2 -7 149.29 6.9
-3 2 7 149.59 5.3
3 2 -7 152.58 5.7
-3 2 7 146.29 7.8
-2 -2 7 133.69 7.6
-2 -2 7 139.69 5.7
2 -2 -7 155.88 6
2 -2 -7 146.59 5.2
2 2 -7 151.28 6.1
-2 2 7 148.69 6.9
2 2 -7 152.88 5.7
-2 2 7 145.09 5.2
1 -2 -7 52.79 3.4
-1 -2 7 52.39 4.7
1 -2 -7 52.39 3.6
-1 -2 7 42.8 3.4
-1 2 7 55.39 4.2
-1 2 7 47.7 3.2
1 2 -7 48.2 3.4
1 2 -7 47.6 3.4
0 -2 -7 253.07 6.7
0 -2 7 244.68 8.8
0 -2 7 250.97 9.7
0 -2 -7 236.08 8
0 2 -7 251.27 7.4
0 2 7 240.18 8.4
0 2 -7 256.77 8.5
0 2 7 243.98 8.3
1 -2 7 171.48 8
-1 -2 -7 192.08 8
1 -2 7 183.18 7.8
-1 -2 -7 174.38 5.3
-1 2 -7 175.78 7.8
-1 2 -7 182.48 5.9
1 2 7 175.68 6.8
1 2 7 177.28 7.8
2 -2 7 226.78 8.9
2 -2 7 219.38 10.1
-2 -2 -7 234.48 10.6
-2 -2 -7 218.48 6.3
-2 2 -7 227.28 10.1
2 2 7 217.88 9.8
2 2 7 207.28 7.7
-2 2 -7 224.88 6.7
-3 -2 -7 210.58 6.6
3 -2 7 209.78 8.7
3 -2 7 201.58 11.1
-3 -2 -7 193.38 12.2
3 2 7 210.18 11.1
-3 2 -7 211.18 6.7
3 2 7 232.28 8.5
-3 2 -7 187.58 10.6
-4 -2 -7 6.5 2
4 -2 7 6.7 4
4 -2 7 2.5 2.2
-4 -2 -7 3 5
4 2 7 4 2
-4 2 -7 3.7 1.6
4 2 7 5.9 3.6
-4 2 -7 8.3 3.8
5 -2 7 16.3 3.8
5 -2 7 9.1 5.3
-5 -2 -7 10.7 6.6
-5 -2 -7 15.8 2.6
5 2 7 18 5.3
-5 2 -7 16.3 6
5 2 7 14 3
-5 2 -7 13.4 2.2
-6 -3 7 63.89 4.7
6 3 -7 68.39 5.2
6 3 -7 72.49 8.2
-5 -3 7 31 3.4
5 3 -7 24.4 3.3
5 3 -7 27.7 4.6
-4 -3 7 112.39 5.4
4 3 -7 116.19 6.9
4 3 -7 116.89 5.5
-3 -3 7 112.89 9
-3 -3 7 113.99 5.3
3 3 -7 127.89 5.3
3 3 -7 125.39 6.3
-2 -3 7 70.59 5.9
-2 -3 7 63.89 3.8
2 3 -7 63.19 4
2 3 -7 65.89 3.7
-1 -3 7 522.35 15.9
-1 -3 7 507.75 13.5
1 3 -7 526.35 13.1
1 3 -7 514.75 13.1
0 -3 7 15.2 3.2
0 -3 7 17.7 2.8
0 3 -7 16.3 2.1
0 3 -7 21.8 2.8
1 -3 7 61.19 4.9
-1 -3 -7 65.79 5.5
-1 -3 -7 63.39 3
1 -3 7 59.19 5.1
-1 3 -7 60.39 3.4
1 3 7 60.49 3.8
-1 3 -7 61.39 4.7
1 3 7 59.49 4.5
2 -3 7 193.78 9.6
-2 -3 -7 210.08 6.1
-2 -3 -7 198.08 10.6
2 -3 7 189.78 8.6
-2 3 -7 203.38 9.5
-2 3 -7 207.88 6.5
2 3 7 201.78 7.5
2 3 7 201.98 9.6
-3 -3 -7 65.29 8.4
3 -3 7 63.69 7.9
3 -3 7 60.99 5.4
-3 -3 -7 62.29 3.5
-3 3 -7 60.89 6.9
3 3 7 68.69 7.3
-3 3 -7 61.99 3.6
3 3 7 60.89 4.4
4 -3 7 24.7 4.4
4 -3 7 15.8 5.4
-4 -3 -7 21.4 7
-4 -3 -7 16.8 2.5
-4 3 -7 19.6 2.6
4 3 7 25.3 5.2
-4 3 -7 21.1 5.4
4 3 7 23.2 3.4
5 -3 7 40.7 8.7
-5 -3 -7 40.9 3.8
5 -3 7 37.1 5.1
-5 -3 -7 51.29 9.7
-5 3 -7 48.2 7.6
-5 3 -7 45 3.6
5 3 7 44.2 4.9
5 3 7 42.6 7.2
-6 -4 7 42.6 4.7
6 4 -7 46 6.5
6 4 -7 40.6 4.4
-5 -4 7 12.8 2.5
5 4 -7 13.4 2.8
5 4 -7 4.7 3
-4 -4 7 60.99 4.3
4 4 -7 62.09 5.4
4 4 -7 58.19 4.1
-3 -4 7 20.5 5.2
-3 -4 7 16.6 2.6
3 4 -7 16 2.4
3 4 -7 20.9 3.3
-2 -4 7 39.4 3.4
-2 -4 7 42 5.9
2 4 -7 39.2 3.4
2 4 -7 36.2 3
-1 -4 7 77.09 6.6
-1 -4 7 86.29 4.9
1 4 -7 92.19 4.6
1 4 -7 93.99 4.7
0 -4 7 94.39 5.4
0 -4 7 86.49 6.8
0 4 -7 90.59 4.3
0 4 -7 92.19 5
1 -4 7 413.96 13.8
1 -4 7 397.46 13.5
-1 4 -7 427.16 10.8
-1 4 -7 392.46 12.4
2 -4 7 164.08 9.7
2 -4 7 154.98 8.6
-2 4 -7 149.19 8.3
-2 4 -7 154.58 5.6
3 -4 7 42.3 5.5
3 -4 7 35.1 6.7
-3 4 -7 42 6
-3 4 -7 40.3 3
4 -4 7 35.8 5.5
4 -4 7 31.4 6.8
-4 4 -7 30.6 3.2
-4 4 -7 31.4 6.1
5 -4 7 71.19 10.7
5 -4 7 79.09 7.5
-5 4 -7 66.89 8.8
-5 4 -7 81.29 4.7
-5 -5 7 1.7 1.9
5 5 -7 0.2 1.8
5 5 -7 3.1 2.9
-4 -5 7 114.59 6.1
4 5 -7 105.39 5.5
4 5 -7 111.09 7.1
-3 -5 7 26.1 6.1
-3 -5 7 20.5 2.9
3 5 -7 15.8 2.8
3 5 -7 23.5 2.9
-2 -5 7 25 5.1
-2 -5 7 31 3.7
2 5 -7 26 3.1
2 5 -7 27.4 3.5
-1 -5 7 106.39 8.4
-1 -5 7 112.29 6.1
1 5 -7 112.89 5.5
1 5 -7 111.59 5.3
0 -5 7 126.59 8.7
0 -5 7 119.99 6.7
0 5 -7 108.49 5.5
0 5 -7 111.19 5
1 -5 7 17.9 5
1 -5 7 13.3 3.7
-1 5 -7 14 2.3
-1 5 -7 18.6 3.3
2 -5 7 82.19 7.7
2 -5 7 88.49 7.6
-2 5 -7 85.19 6.2
-2 5 -7 84.39 4.1
3 -5 7 73.59 9.1
3 -5 7 85.39 8.1
-3 5 -7 86.79 7.6
-3 5 -7 86.49 4.4
4 -5 7 25.1 4.9
4 -5 7 13.3 5.5
-4 5 -7 18.1 2.5
-4 5 -7 19.2 5
-5 -6 7 26.3 4
5 6 -7 29.6 4.7
5 6 -7 19.2 3.4
-4 -6 7 26.6 3.7
4 6 -7 28.1 3.2
4 6 -7 35.2 4.7
-3 -6 7 18.1 6.6
-3 -6 7 36.8 4.4
3 6 -7 25.6 3.2
3 6 -7 30.6 4
-2 -6 7 16 5.6
-2 -6 7 16 3.1
2 6 -7 11.9 2.4
2 6 -7 16.2 2.5
-1 -6 7 96.79 6.1
-1 -6 7 95.69 9.2
1 6 -7 82.49 4.6
1 6 -7 93.99 5
0 -6 7 55.79 7.3
0 -6 7 49.8 5.5
0 6 -7 59.29 4.1
0 6 -7 60.09 3.5
1 -6 7 209.98 11.3
1 -6 7 207.18 10.4
-1 6 -7 197.28 8.1
-1 6 -7 201.08 6.9
2 -6 7 58.89 7.2
2 -6 7 59.19 7.7
-2 6 -7 62.39 3.8
-2 6 -7 71.79 5.8
3 -6 7 9.8 4.4
3 -6 7 11.2 5.1
-3 6 -7 13.5 2
-3 6 -7 9.9 3.3
-4 -7 7 34.2 4.7
4 7 -7 51.79 3.9
4 7 -7 39.5 4.9
-3 -7 7 5.2 2.5
-3 -7 7 0.8 5.2
3 7 -7 3.1 1.6
3 7 -7 0.8 1.9
6 0 -8 6.1 4.8
-6 0 8 4.2 1.8
6 0 -8 5.4 2.7
5 0 -8 0.4 2.4
5 0 -8 -3.9 3.9
-5 0 8 1.2 1.3
4 0 -8 10.4 2.5
-4 0 8 11.4 2.3
4 0 -8 6.1 3.7
-3 0 8 120.59 8.4
3 0 -8 125.69 5.5
3 0 -8 130.89 6.6
2 0 -8 26 3.2
-2 0 8 20.4 3.5
2 0 -8 30.1 3.1
-2 0 8 25.1 2.8
1 0 -8 7 1.8
-1 0 8 8.9 2.1
-1 0 8 6.4 2.3
1 0 -8 8.6 2.1
0 0 8 1003 24
0 0 -8 993.7 22.3
0 0 8 976.4 23.3
0 0 -8 1009.8 20.7
1 0 8 511.85 15.5
-1 0 -8 501.85 11.9
-1 0 -8 500.65 14.9
1 0 8 504.75 14.5
-2 0 -8 42.5 5.9
2 0 8 35.3 4.4
-2 0 -8 33.2 2.7
2 0 8 35.5 5.7
-3 0 -8 0.7 1.1
3 0 8 0.5 2.7
3 0 8 1.6 1.7
-3 0 -8 1.2 3.3
4 0 8 92.09 10
4 0 8 86.19 6.2
-4 0 -8 82.99 9.3
-4 0 -8 92.89 4.7
5 0 8 73.59 6.2
-5 0 -8 85.49 4.8
5 0 8 66.69 8.8
-5 0 -8 54.29 8.7
6 -1 -8 34.7 4.2
-6 -1 8 33.7 3.9
6 -1 -8 34.1 6.3
-6 1 8 11 9.1
6 1 -8 27.9 3.9
6 1 -8 34.5 6.4
-6 1 8 34 3.9
5 -1 -8 28 5.6
5 -1 -8 22.5 3.7
-5 -1 8 27.4 3.4
5 1 -8 20.1 5.2
-5 1 8 19.6 2.8
5 1 -8 20.4 3.5
-4 -1 8 13.8 2.4
4 -1 -8 9.3 2.4
-4 -1 8 7.3 3.5
4 -1 -8 12.8 3.9
4 1 -8 14.1 2.6
-4 1 8 13.5 2.2
4 1 -8 10.8 3.8
3 -1 -8 46.1 4
-3 -1 8 48.1 3.4
-3 -1 8 55.19 6.5
3 -1 -8 39.7 4.4
-3 1 8 45.6 3.1
3 1 -8 40.5 4.6
3 1 -8 48.8 3.7
-3 1 8 38.6 5.2
-2 -1 8 131.79 5.8
-2 -1 8 120.29 7.6
2 -1 -8 142.19 5.7
2 -1 -8 147.89 6.5
-2 1 8 140.09 5.6
2 1 -8 135.19 5.7
-2 1 8 143.29 7.4
2 1 -8 141.59 6.3
-1 -1 8 47.2 3.6
-1 -1 8 52.79 5.7
1 -1 -8 49.8 3.6
1 -1 -8 46.8 3.7
1 1 -8 45.8 3.5
-1 1 8 45.3 3.5
1 1 -8 43.2 3.4
-1 1 8 48.4 4.5
0 -1 8 120.69 6.9
0 -1 -8 135.19 6.2
0 -1 8 122.89 6.4
0 -1 -8 125.69 4.8
0 1 8 118.09 6.2
0 1 8 123.79 6.2
0 1 -8 131.69 6.1
0 1 -8 126.49 5.1
-1 -1 -8 309.77 8.2
1 -1 8 294.67 10.6
-1 -1 -8 316.57 11.2
1 -1 8 315.47 11.6
-1 1 -8 299.97 10.9
1 1 8 298.17 11.1
1 1 8 287.47 10.1
-1 1 -8 300.77 8.5
2 -1 8 58.09 5
-2 -1 -8 61.59 3.5
-2 -1 -8 58.29 7.2
2 -1 8 58.69 7.1
-2 1 -8 59.69 3.5
2 1 8 48.7 6.5
-2 1 -8 61.59 6.8
2 1 8 67.09 5.3
-3 -1 -8 29.4 6.1
3 -1 8 25 3.9
-3 -1 -8 25.5 2.7
3 -1 8 18.7 4.6
3 1 8 22.7 3.5
3 1 8 26.9 5.3
-3 1 -8 31.8 5.5
-3 1 -8 29.6 2.6
-4 -1 -8 21.3 6.9
-4 -1 -8 18.5 2.6
4 -1 8 17.6 4.9
4 -1 8 12.1 3.4
4 1 8 22.4 4.9
4 1 8 18.2 3.6
-4 1 -8 19.9 5.5
-4 1 -8 22.8 3
-5 -1 -8 21.3 2.9
5 -1 8 11 5.2
-5 -1 -8 20.5 8.2
5 -1 8 22.2 4.3
-5 1 -8 19.9 5.9
-5 1 -8 21.6 2.8
5 1 8 18.7 4.9
5 1 8 18.2 3.7
-6 -2 8 24.7 3.5
6 2 -8 29.2 5.9
6 2 -8 19.5 3.5
-5 -2 8 5.3 2.2
5 2 -8 -1.4 3.9
5 2 -8 4.7 2.4
-4 -2 8 144.39 6.3
4 -2 -8 129.49 5.6
-4 -2 8 134.39 9.9
4 -2 -8 127.99 7.8
4 2 -8 142.89 8.2
-4 2 8 135.69 5.6
4 2 -8 143.79 6.3
3 -2 -8 114.69 5.2
-3 -2 8 98.59 7.8
-3 -2 8 102.39 5.3
3 -2 -8 106.19 6
3 2 -8 104.49 6.3
3 2 -8 103.19 5.2
-3 2 8 96.99 7.2
-3 2 8 109.09 4.8
2 -2 -8 40.5 3.8
-2 -2 8 46.8 3.5
-2 -2 8 36.4 5.1
2 -2 -8 42 3.7
-2 2 8 42 3
2 2 -8 42.7 3.4
2 2 -8 48.4 3.9
-2 2 8 39.6 4.5
1 -2 -8 94.29 4.4
-1 -2 8 105.19 5.5
1 -2 -8 98.29 4.7
-1 -2 8 104.79 6.8
1 2 -8 95.39 4.8
-1 2 8 98.89 5.7
-1 2 8 93.39 4.8
1 2 -8 101.89 5
0 -2 8 336.17 11.3
0 -2 -8 323.87 9.8
0 -2 -8 339.77 8.6
0 -2 8 329.27 12.1
0 2 8 330.17 10.7
0 2 -8 328.37 9.4
0 2 -8 332.57 10.5
0 2 8 336.27 11
1 -2 8 435.06 13.9
-1 -2 -8 432.26 10.2
1 -2 8 439.56 14.4
-1 -2 -8 431.26 13.6
1 2 8 411.06 12.4
1 2 8 413.06 13.5
-1 2 -8 439.36 13.6
-1 2 -8 442.46 11.1
2 -2 8 28.4 4.2
-2 -2 -8 23.5 5.3
-2 -2 -8 21.6 2.4
2 -2 8 31.6 5.4
2 2 8 23.2 3.4
2 2 8 35 5.2
-2 2 -8 29.4 2.7
-2 2 -8 25.1 4.6
3 -2 8 134.69 7.5
3 -2 8 134.49 10
-3 -2 -8 131.69 11
-3 -2 -8 130.09 5.3
-3 2 -8 128.49 5.4
-3 2 -8 120.09 8.9
3 2 8 131.49 6.8
3 2 8 120.29 8.4
-4 -2 -8 43.1 8.4
4 -2 8 44.9 5.3
-4 -2 -8 52.89 3.8
4 -2 8 49.5 7.7
-4 2 -8 58.99 3.9
4 2 8 55.09 5
-4 2 -8 53.49 7.6
4 2 8 47.5 7.3
5 -2 8 34.7 7.9
-5 -2 -8 26.7 8.8
5 -2 8 24.9 4.8
-5 -2 -8 29.4 3.3
5 2 8 30.2 4.6
-5 2 -8 35.2 3.7
-5 2 -8 22.5 6.4
5 2 8 29.7 6.8
-6 -3 8 27.7 3.7
6 3 -8 23.6 5.4
6 3 -8 20.9 3.6
-5 -3 8 66.79 4.7
5 3 -8 72.19 5.1
5 3 -8 60.69 6.6
-4 -3 8 34.4 6.4
-4 -3 8 46.6 3.9
4 3 -8 42.2 5.4
4 3 -8 40.8 4.1
-3 -3 8 26.1 3.4
-3 -3 8 23.8 4.6
3 3 -8 24.4 3
3 3 -8 27.7 3.9
-2 -3 8 21.6 4.3
-2 -3 8 29.8 3.5
2 3 -8 28.8 3.6
2 3 -8 28.3 3.2
-1 -3 8 115.09 6
-1 -3 8 120.49 7.5
1 3 -8 107.99 5.2
1 3 -8 97.29 5
0 -3 8 62.69 5.7
0 -3 8 56.19 4.8
0 3 -8 60.89 3.7
0 3 -8 63.69 4.5
1 -3 8 32 4.6
1 -3 8 29.2 4.8
-1 3 -8 31.4 4.1
-1 3 -8 32.1 3
-2 -3 -8 59.79 6.7
-2 -3 -8 56.29 3.6
2 -3 8 50.09 5.8
2 -3 8 53.69 6.5
-2 3 -8 56.49 3.5
2 3 8 55.19 4.5
-2 3 -8 56.29 6.7
2 3 8 64.29 6.8
3 -3 8 20.2 5.1
-3 -3 -8 27.7 2.8
3 -3 8 30.9 4.8
-3 -3 -8 30 6.6
-3 3 -8 30.8 2.8
-3 3 -8 32.3 5.7
3 3 8 38 5.6
3 3 8 28.4 3.9
4 -3 8 32.5 4.9
-4 -3 -8 40.3 8.5
4 -3 8 40.5 7.2
-4 -3 -8 40.4 3.3
4 3 8 52.89 6.7
4 3 8 36.7 4.6
-4 3 -8 34.1 6
-4 3 -8 34.5 3
-5 -4 8 72.19 5.2
5 4 -8 70.29 5.2
5 4 -8 76.59 7.7
-4 -4 8 212.28 12.7
-4 -4 8 208.58 8.3
4 4 -8 197.98 9.3
4 4 -8 201.58 7.9
-3 -4 8 43.6 6.5
-3 -4 8 60.89 4.4
3 4 -8 50.79 3.7
3 4 -8 55.89 4.6
-2 -4 8 95.09 8.3
-2 -4 8 113.39 5.8
2 4 -8 108.49 5.7
2 4 -8 106.29 5.2
-1 -4 8 10.3 2.7
-1 -4 8 10.2 3.4
1 4 -8 9.3 2.2
1 4 -8 5.1 1.9
0 -4 8 120.79 8.4
0 -4 8 122.69 7.1
0 4 -8 132.69 6.6
0 4 -8 128.99 5.5
1 -4 8 41.4 5.9
1 -4 8 41.5 5.8
-1 4 -8 48.3 5.1
-1 4 -8 49.6 3.6
2 -4 8 8.2 4
2 -4 8 12.7 3.8
-2 4 -8 14.9 2.2
-2 4 -8 13 3.5
3 -4 8 122.49 8.5
3 -4 8 80.29 9.5
-3 4 -8 99.59 8.2
-3 4 -8 108.39 5
4 -4 8 11.9 4.3
4 -4 8 23.5 6.5
-4 4 -8 11.8 4.4
-4 4 -8 18.1 2.6
-5 -5 8 16 3.3
5 5 -8 7.7 3.7
5 5 -8 12.4 3.1
-4 -5 8 17.2 3.2
-4 -5 8 18.7 5.4
4 5 -8 16.3 2.9
4 5 -8 13.7 3.5
-3 -5 8 -6.1 3.5
-3 -5 8 0.7 1.8
3 5 -8 1.1 1.8
3 5 -8 -1 1.2
-2 -5 8 146.79 10.1
-2 -5 8 158.58 7.2
2 5 -8 163.08 6.6
2 5 -8 155.38 7
-1 -5 8 78.49 5.6
-1 -5 8 80.69 8.3
1 5 -8 85.89 4.8
1 5 -8 80.59 4.9
0 -5 8 49.8 6.7
0 -5 8 63.99 5.5
0 5 -8 58.59 4.3
0 5 -8 57.89 3.8
1 -5 8 0.9 3
1 -5 8 0.5 3.5
-1 5 -8 5.3 2.2
-1 5 -8 6.7 1.8
2 -5 8 16.9 5.1
2 -5 8 16.7 4.9
-2 5 -8 15 2.2
-2 5 -8 22 3.9
3 -5 8 32.5 5.8
3 -5 8 16 6
-3 5 -8 31.7 3.3
-3 5 -8 32.4 5.1
4 -5 8 42.3 6.6
4 -5 8 33.9 7.4
-4 5 -8 43.2 3.6
-4 5 -8 40.9 6.7
-4 -6 8 26.5 4.2
4 6 -8 23.6 4
4 6 -8 29.6 3.8
-3 -6 8 132.09 7.1
-3 -6 8 130.99 11.8
3 6 -8 121.99 6.8
3 6 -8 127.39 6.1
-2 -6 8 105.09 6.6
-2 -6 8 115.99 11.2
2 6 -8 109.49 6
2 6 -8 117.49 5.9
-1 -6 8 10.6 3.2
-1 -6 8 1.4 5
1 6 -8 8 2.1
1 6 -8 9.5 2.4
0 -6 8 21.9 4.6
0 -6 8 35.2 6.7
0 6 -8 23.7 3.2
0 6 -8 17 2.5
1 -6 8 16.5 6.1
1 -6 8 18 5.1
-1 6 -8 23.1 3
-1 6 -8 14.8 3.1
2 -6 8 10.6 4.5
2 -6 8 9.7 4.9
-2 6 -8 6.1 1.7
-2 6 -8 8 2.5
3 -6 8 76.99 9.8
3 -6 8 85.49 9.1
-3 6 -8 88.39 7.2
-3 6 -8 89.29 4.6
-3 -7 8 89.59 6.7
-3 -7 8 73.79 10.2
3 7 -8 85.79 5.8
3 7 -8 80.59 5
-2 -7 8 58.19 8.6
-2 -7 8 55.69 6.1
2 7 -8 61.89 4.1
2 7 -8 54.89 4.5
-1 -7 8 0.6 2.8
-1 -7 8 2.1 5.2
1 7 -8 2.1 1.6
1 7 -8 3.2 1.7
-6 0 9 2.7 2
6 0 -9 -2.1 4
6 0 -9 2.2 2.6
5 0 -9 59.79 5.3
-5 0 9 63.59 4.6
5 0 -9 66.99 7.2
4 0 -9 0.2 2.1
4 0 -9 -1 3.3
-4 0 9 2.6 1.5
-4 0 9 1.9 3.3
3 0 -9 101.69 6.7
-3 0 9 98.79 7.7
-3 0 9 104.69 5.6
3 0 -9 99.59 5.6
2 0 -9 55.89 4.5
-2 0 9 49.1 5.7
2 0 -9 56.49 5
-2 0 9 50.29 3.8
1 0 -9 82.39 4.8
-1 0 9 77.49 6.2
1 0 -9 80.69 4.9
-1 0 9 84.69 5.2
0 0 -9 11.9 2.9
0 0 -9 14 2.4
0 0 9 10.4 2.9
0 0 9 9.5 2.5
1 0 9 112.49 7.3
1 0 9 122.09 7.2
-1 0 -9 119.59 5.2
-1 0 -9 128.89 8
-2 0 -9 93.09 8.4
2 0 9 71.89 6.8
2 0 9 73.29 5.9
-2 0 -9 71.69 4.2
3 0 9 2.4 2.4
-3 0 -9 2.9 1.7
3 0 9 2.1 2.6
-3 0 -9 -4.4 4.2
-4 0 -9 16.4 2.5
4 0 9 13.1 4.2
4 0 9 14.6 3.4
-4 0 -9 15.9 5.8
6 -1 -9 7.5 5
6 -1 -9 16.5 3.4
-6 -1 9 16.2 3.3
6 1 -9 16.5 5.8
-6 1 9 18.2 3.3
6 1 -9 18.4 3.4
5 -1 -9 9.2 2.9
-5 -1 9 9.8 2.4
5 -1 -9 8.4 4.3
-5 1 9 6.1 2
5 1 -9 13.9 3
5 1 -9 9.4 4.5
-4 -1 9 57.19 4.3
4 -1 -9 50.69 5.5
-4 -1 9 50.69 7.2
4 -1 -9 58.49 4.7
4 1 -9 68.69 7
-4 1 9 52.69 3.8
4 1 -9 60.99 4.8
3 -1 -9 19.2 3
3 -1 -9 18.1 3.7
-3 -1 9 17.2 4.3
-3 -1 9 26.1 3.5
-3 1 9 18.5 4.3
3 1 -9 19.9 3.2
-3 1 9 22.9 3.1
3 1 -9 19.6 3.9
-2 -1 9 106.69 5.7
2 -1 -9 112.49 5.7
-2 -1 9 106.79 7.8
2 -1 -9 103.59 5.9
-2 1 9 106.89 5.5
2 1 -9 111.29 5.8
2 1 -9 112.59 6.3
-2 1 9 107.89 7.1
-1 -1 9 17.8 3.2
-1 -1 9 13.2 3.3
1 -1 -9 15.1 2.8
1 -1 -9 14.2 2.7
1 1 -9 18.5 2.8
-1 1 9 19.3 3
-1 1 9 21.6 3.8
1 1 -9 18.8 2.7
0 -1 9 2.7 1.9
0 -1 9 3.7 2.5
0 -1 -9 4.5 2
0 -1 -9 0.8 2.3
0 1 9 0.6 1.7
0 1 9 1 1.9
0 1 -9 3.7 2.3
0 1 -9 1.4 1.6
-1 -1 -9 65.19 3.9
1 -1 9 70.99 5.9
-1 -1 -9 75.89 6.9
1 -1 9 54.59 6
1 1 9 71.49 5.4
-1 1 -9 67.19 4.1
1 1 9 62.49 5.5
-1 1 -9 74.79 6.5
-2 -1 -9 12.5 2.2
-2 -1 -9 12 4.4
2 -1 9 8.2 3.2
2 -1 9 12.4 3.2
2 1 9 7.6 3.3
-2 1 -9 10.2 1.9
2 1 9 12 3.1
-2 1 -9 10.3 3.8
-3 -1 -9 18.5 6.2
-3 -1 -9 22.3 3
3 -1 9 19 4
3 -1 9 20.4 5.1
3 1 9 24.3 4
-3 1 -9 18.7 2.5
3 1 9 24.2 5.5
-3 1 -9 10.9 4.7
4 -1 9 89.89 6.7
-4 -1 -9 87.69 4.7
-4 -1 -9 72.49 10
4 -1 9 72.49 9.3
4 1 9 79.99 6.2
4 1 9 94.59 8.6
-4 1 -9 63.39 8.5
-4 1 -9 85.59 4.7
-5 -2 9 17.4 3
5 2 -9 14.8 4.4
5 2 -9 16.9 3.2
-4 -2 9 55.99 4.3
-4 -2 9 41.1 6.9
4 2 -9 52.49 4.8
4 2 -9 59.09 6.1
-3 -2 9 89.79 5.3
3 -2 -9 90.79 8.3
3 -2 -9 89.79 6.9
-3 -2 9 81.59 7.6
3 2 -9 92.49 6.1
-3 2 9 73.29 9.9
-3 2 9 82.59 5.3
3 2 -9 83.29 5.1
2 -2 -9 55.39 4.5
-2 -2 9 59.69 7
-2 -2 9 58.29 4.4
2 -2 -9 55.19 4.4
-2 2 9 50.89 5.8
2 2 -9 55.99 4.5
-2 2 9 54.69 4
2 2 -9 57.59 4.4
1 -2 -9 1.6 2.1
-1 -2 9 -0.5 1.3
-1 -2 9 -0.3 2.3
1 -2 -9 2.5 2.3
1 2 -9 1.1 1.5
1 2 -9 -0.7 1.2
-1 2 9 0.4 1.6
0 -2 9 10.3 3.7
0 -2 9 12 3.2
0 -2 -9 8.4 2.2
0 -2 -9 5 2.8
0 2 9 6.1 2.4
0 2 -9 7.7 2.1
0 2 -9 8.8 2.7
0 2 9 8.4 2.7
-1 -2 -9 108.29 7.9
-1 -2 -9 97.99 4.5
1 -2 9 93.19 6.9
1 -2 9 89.39 7.2
1 2 9 110.39 6.8
-1 2 -9 100.89 4.9
1 2 9 111.89 7.9
-1 2 -9 103.59 6.6
2 -2 9 97.19 6.8
-2 -2 -9 102.89 8.8
-2 -2 -9 105.99 4.7
2 -2 9 93.69 7.6
-2 2 -9 103.39 7.6
-2 2 -9 106.89 4.8
2 2 9 90.89 6
2 2 9 91.29 7.6
-3 -2 -9 37.2 7.1
3 -2 9 41.7 5.6
-3 -2 -9 47.1 3.9
3 -2 9 23 5.5
3 2 9 43.1 5.1
3 2 9 36.3 6.1
-3 2 -9 36.2 3.1
-3 2 -9 44.3 6.7
4 -2 9 30.6 6.1
-4 -2 -9 33.2 3.4
-4 -2 -9 33 7.8
4 -2 9 40.5 5.9
-4 2 -9 37.6 3.3
-4 2 -9 37.9 7.2
4 2 9 30.4 6.1
4 2 9 34.6 4.8
-5 -3 9 7.9 2.4
5 3 -9 7.2 2.5
5 3 -9 10.6 4.4
-4 -3 9 222.08 8.9
-4 -3 9 205.68 12.8
4 3 -9 212.38 8.4
4 3 -9 225.08 10.1
-3 -3 9 12.9 4.1
-3 -3 9 6.1 2
3 3 -9 7.3 2
3 3 -9 7.1 2.4
-2 -3 9 13.9 3.7
-2 -3 9 13.1 3
2 3 -9 11.3 2.7
2 3 -9 10.8 2.6
-1 -3 9 91.49 5.9
-1 -3 9 98.89 7.8
1 3 -9 95.89 5.1
1 3 -9 86.89 5.1
0 -3 9 36.2 5.5
0 -3 9 35.8 5.1
0 3 -9 35.2 3.6
0 3 -9 32.6 3.8
1 -3 9 97.69 7.1
1 -3 9 105.49 7.5
-1 3 -9 90.59 6.6
-1 3 -9 91.69 4.7
2 -3 9 11.6 4.2
2 -3 9 11.6 3.7
-2 3 -9 14.1 3.9
-2 3 -9 16 2.3
3 -3 9 2.2 4.2
3 -3 9 9.5 3.4
-3 3 -9 9.7 4.1
-3 3 -9 11.3 2.3
4 -3 9 17.4 4.3
4 -3 9 14.9 5.4
-4 3 -9 10.3 5
-4 3 -9 14.1 2.5
-5 -4 9 30.2 4.1
5 4 -9 26 5.1
5 4 -9 28 3.8
-4 -4 9 24 3.9
-4 -4 9 26.9 6.3
4 4 -9 17.2 3
4 4 -9 27.4 4.3
-3 -4 9 51.39 5.2
-3 -4 9 43.5 6.7
3 4 -9 48.2 5.2
3 4 -9 53.19 4.1
-2 -4 9 86.89 7.8
-2 -4 9 80.19 5.4
2 4 -9 79.19 4.8
2 4 -9 69.39 5
-1 -4 9 92.39 7.9
-1 -4 9 90.19 5.9
1 4 -9 89.39 5.4
1 4 -9 90.39 4.9
0 -4 9 6.1 2.6
0 -4 9 7.1 3.9
0 4 -9 3.7 2.1
0 4 -9 4.6 1.4
1 -4 9 46.6 6.4
1 -4 9 45 6.3
-1 4 -9 54.39 3.8
-1 4 -9 45.9 5.2
2 -4 9 38.9 6.3
2 -4 9 50.69 6.8
-2 4 -9 54.79 3.7
-2 4 -9 51.89 6
3 -4 9 5 3.5
3 -4 9 1.4 4.5
-3 4 -9 7.4 2
-3 4 -9 7.8 3.5
4 -4 9 94.59 8.6
4 -4 9 92.49 11.4
-4 4 -9 94.69 9.2
-4 4 -9 93.49 5.2
-4 -5 9 113.09 6.8
-4 -5 9 130.39 11.6
4 5 -9 117.19 6.3
4 5 -9 126.59 7.5
-3 -5 9 137.59 11.1
-3 -5 9 145.39 7.6
3 5 -9 151.58 6.8
3 5 -9 142.69 7.4
-2 -5 9 34.6 4.7
-2 -5 9 27 6.2
2 5 -9 35.4 4.3
2 5 -9 37.6 3.6
-1 -5 9 122.89 7.4
-1 -5 9 111.69 9.8
1 5 -9 130.79 6.1
1 5 -9 119.79 6.3
0 -5 9 21.6 4.4
0 -5 9 17 5.2
0 5 -9 23.6 3.5
0 5 -9 26.7 3.1
1 -5 9 36 6.6
1 -5 9 27.1 5.6
-1 5 -9 37.6 4.7
-1 5 -9 25.6 3.2
2 -5 9 37.9 6.1
2 -5 9 39.6 6.8
-2 5 -9 35.9 4.9
-2 5 -9 44.8 3.4
3 -5 9 1.6 5.2
3 -5 9 2.1 4.4
-3 5 -9 4.9 1.9
-3 5 -9 3.6 3.1
-4 -6 9 8.8 3.4
4 6 -9 6.1 2.8
4 6 -9 8.3 2.5
-3 -6 9 5.4 2.5
-3 -6 9 4 5.4
3 6 -9 6.1 2.3
3 6 -9 8.6 2.5
-2 -6 9 71.89 6.1
-2 -6 9 70.19 8.7
2 6 -9 80.39 5.4
2 6 -9 85.09 5.1
-1 -6 9 23.6 6
-1 -6 9 23.1 4.6
1 6 -9 18.9 3.2
1 6 -9 25.9 3.3
0 -6 9 50.89 7.6
0 -6 9 53.29 6.5
0 6 -9 52.99 3.9
0 6 -9 60.29 4.6
1 -6 9 21.5 6.3
1 -6 9 32.9 6.3
-1 6 -9 24.8 3.8
-1 6 -9 36.2 3
2 -6 9 13.6 5.6
2 -6 9 18.4 5.5
-2 6 -9 16.1 2.5
-2 6 -9 21.1 4.2
-3 -7 9 52.09 6
-3 -7 9 35.6 8.5
3 7 -9 54.49 5.7
3 7 -9 51.69 4.5
-2 -7 9 9.7 6.3
-2 -7 9 15.6 4.1
2 7 -9 11.3 2.8
2 7 -9 14.8 2.7
-1 -7 9 41.6 7.3
-1 -7 9 30.4 5.4
1 7 -9 39.6 3.8
1 7 -9 38.3 3.6
0 -7 9 0.7 3.8
0 -7 9 7.9 4.9
0 7 -9 -0.1 1.2
0 7 -9 -0.1 1.4
5 0 -10 127.19 8.5
5 0 -10 113.69 6.3
-5 0 10 105.79 6.1
-4 0 10 158.48 7.4
4 0 -10 167.78 8.7
4 0 -10 163.38 7.2
-4 0 10 146.49 10.8
-3 0 10 36.5 5.8
3 0 -10 38.9 3.9
3 0 -10 40.2 4.8
-3 0 10 44.9 3.8
2 0 -10 60.29 4.9
2 0 -10 57.79 5.3
-2 0 10 52.69 6.4
-2 0 10 63.29 4.8
1 0 -10 67.09 4.9
1 0 -10 74.99 5.5
-1 0 10 71.89 5.5
-1 0 10 59.99 6.6
0 0 10 148.59 8.2
0 0 -10 168.28 6.6
0 0 -10 146.19 8.1
0 0 10 154.38 9.2
1 0 10 131.99 8.5
1 0 10 133.49 8
-1 0 -10 125.59 8.1
-1 0 -10 125.69 5.7
2 0 10 19.4 4.8
-2 0 -10 17.5 2.8
-2 0 -10 17.7 5.1
2 0 10 13.6 3.5
-3 0 -10 40 7
3 0 10 43.8 5.8
3 0 10 30.7 5.8
-3 0 -10 37.4 3.5
4 0 10 52.09 6.6
-4 0 -10 63.59 4.3
-4 0 -10 47.4 8.3
4 0 10 51.69 7.8
-5 -1 10 79.79 5.4
5 -1 -10 72.39 7.2
5 -1 -10 72.89 5.5
-5 1 10 79.59 5.1
5 1 -10 79.29 5.6
5 1 -10 87.79 7.7
4 -1 -10 16.9 4
4 -1 -10 13.4 3.1
-4 -1 10 15 2.8
-4 -1 10 16.9 5.2
4 1 -10 11.2 3.5
4 1 -10 21.1 3.5
-4 1 10 18.6 3.1
-4 1 10 11 4
3 -1 -10 5.6 3.1
-3 -1 10 5.6 3.4
3 -1 -10 10.3 2.7
-3 -1 10 7 2.1
3 1 -10 8.9 2.7
-3 1 10 13.1 3.4
-3 1 10 9.9 2.4
3 1 -10 6.2 3.2
2 -1 -10 6.7 2.9
2 -1 -10 7.7 2.5
-2 -1 10 7.1 3.4
-2 -1 10 6.6 2.3
-2 1 10 4.9 2.1
-2 1 10 9.6 2.7
2 1 -10 9.3 2.7
2 1 -10 8.1 3
-1 -1 10 55.09 6.6
1 -1 -10 63.19 5.5
1 -1 -10 61.29 4.6
-1 -1 10 64.79 5.4
-1 1 10 67.09 6
-1 1 10 74.99 5.5
1 1 -10 61.89 5.2
1 1 -10 67.89 4.8
0 -1 -10 29.2 3.2
0 -1 10 31.8 4.9
0 -1 10 30 4.7
0 -1 -10 33.9 4.6
0 1 -10 34.7 4.6
0 1 -10 35.6 3.7
0 1 10 32.5 4.8
0 1 10 35.5 5
1 -1 10 55.79 6.4
-1 -1 -10 47.1 3.7
-1 -1 -10 48.1 5.7
1 -1 10 41.1 5.5
1 1 10 62.59 5.7
-1 1 -10 50.49 3.6
-1 1 -10 51.89 5.9
1 1 10 55.49 5.3
-2 -1 -10 21.7 2.9
2 -1 10 23.1 4.8
-2 -1 -10 21.4 5.4
2 -1 10 16.9 3.9
-2 1 -10 19.9 5
-2 1 -10 22.2 2.9
2 1 10 14.8 4.6
2 1 10 20.2 4
3 -1 10 36.7 5.4
-3 -1 -10 38.4 3.7
-3 -1 -10 33.7 6.7
3 -1 10 32.4 6
3 1 10 28.9 5.9
-3 1 -10 41.6 3.5
-3 1 -10 46.5 7.4
3 1 10 40.3 5.1
-4 -1 -10 17.5 7.6
4 -1 10 17.8 5.4
4 -1 10 14.2 4.3
-4 -1 -10 18.7 2.8
4 1 10 16.9 4.1
-4 1 -10 10.7 5.8
-4 1 -10 20.5 3.1
4 1 10 19 5.6
-5 -2 10 33.9 4.2
5 2 -10 43.4 4.6
5 2 -10 40.6 5.8
-4 -2 10 124.89 6.9
-4 -2 10 131.59 10.4
4 2 -10 129.39 7.7
4 2 -10 121.69 6.6
-3 -2 10 2.6 3.3
-3 -2 10 1 1.7
3 2 -10 0.6 2.3
3 2 -10 3.4 2.9
-2 -2 10 200.08 8.6
-2 -2 10 177.68 10.7
2 2 -10 198.48 8.3
2 2 -10 188.98 7.9
-1 -2 10 8.3 2.6
-1 -2 10 8.6 3.3
1 -2 -10 13.9 2.7
1 -2 -10 11.3 2.9
1 2 -10 14.2 2.9
1 2 -10 12 2.4
-1 2 10 12.2 3.3
-1 2 10 19.2 3.2
0 -2 -10 195.88 8.5
0 -2 -10 197.18 6.8
0 -2 10 207.48 9.9
0 -2 10 193.78 10.5
0 2 -10 205.38 8.9
0 2 10 196.98 9.2
0 2 -10 203.88 7.4
0 2 10 185.58 9.1
1 -2 10 31.7 5.1
-1 -2 -10 32.4 3.2
1 -2 10 31.1 5.5
-1 -2 -10 35.1 5.2
-1 2 -10 31.3 4.5
1 2 10 36.5 5.7
1 2 10 29 4.3
-1 2 -10 29.8 3.2
-2 -2 -10 16.3 2.7
2 -2 10 18.7 5.3
2 -2 10 18.6 4.4
-2 -2 -10 25.1 6
2 2 10 16.5 3.6
-2 2 -10 21.2 2.9
2 2 10 12.1 4.4
-2 2 -10 15.4 4.9
3 -2 10 6.9 2.7
3 -2 10 1.4 3.8
-3 -2 -10 8.6 5.3
-3 -2 -10 8 2.2
-3 2 -10 3.2 1.7
3 2 10 10.3 3.5
3 2 10 8.3 2.3
-3 2 -10 11.4 4.9
-4 -2 -10 34.3 3.6
4 -2 10 35.9 5.6
4 -2 10 29.2 6.6
-4 -2 -10 18.6 7.5
4 2 10 30.4 6.6
-4 2 -10 35.2 3.8
4 2 10 34.3 5.3
-4 2 -10 31.6 6.7
-5 -3 10 20.1 3.7
5 3 -10 17.5 3.2
5 3 -10 15.1 4.3
-4 -3 10 21.1 3.4
-4 -3 10 20.1 5.5
4 3 -10 23.9 4.1
4 3 -10 23.3 3.6
-3 -3 10 5 2.2
-3 -3 10 5.4 4
3 3 -10 5 2.4
3 3 -10 4.4 2.5
-2 -3 10 19.1 3.7
-2 -3 10 15.4 4.2
2 3 -10 21 3.2
2 3 -10 28.6 4
-1 -3 10 94.19 6.5
-1 -3 10 90.89 7.8
1 3 -10 96.49 5.2
1 3 -10 83.69 5.5
0 -3 10 59.99 7.8
0 -3 10 55.59 6.3
0 3 -10 53.19 3.9
0 3 -10 51.19 5.3
1 -3 10 42.7 6
1 -3 10 54.79 6.8
-1 3 -10 57.59 6.1
-1 3 -10 41 3.6
2 -3 10 3.8 3.2
2 -3 10 0.4 3.5
-2 3 -10 4.3 1.7
-2 3 -10 0.6 2.9
3 -3 10 6.2 4.6
3 -3 10 10.5 4
-3 3 -10 15.7 4.6
-3 3 -10 13.6 2.4
-4 -4 10 44.2 7.4
-4 -4 10 57.99 5.4
4 4 -10 64.89 6
4 4 -10 54.39 4.9
-3 -4 10 27.9 5.8
-3 -4 10 37.9 4.7
3 4 -10 35 4.4
3 4 -10 43.8 4.1
-2 -4 10 28.2 4.3
-2 -4 10 42 6.6
2 4 -10 35.2 4.3
2 4 -10 35.3 4.1
-1 -4 10 21.6 5.1
1 4 -10 17.8 3.2
1 4 -10 23.8 3.1
0 -4 10 192.48 11.6
0 -4 10 209.88 10.7
0 4 -10 215.78 9.1
0 4 -10 214.98 7.9
1 -4 10 49.3 7.1
1 -4 10 36.1 5.9
-1 4 -10 44.7 4.3
-1 4 -10 38.7 4.8
2 -4 10 44.9 6.6
2 -4 10 40 7.3
-2 4 -10 46.6 3.6
-2 4 -10 41.8 5.7
3 -4 10 85.89 8.3
3 -4 10 59.19 9.3
-3 4 -10 80.99 4.8
-3 4 -10 79.29 8.4
-4 -5 10 4.2 5.2
-4 -5 10 14.5 3.5
4 5 -10 10.1 3.4
4 5 -10 9.4 2.7
-3 -5 10 21 4
-3 -5 10 27.1 5.7
3 5 -10 20.2 3.1
3 5 -10 20.4 3.7
-2 -5 10 21 4.4
-2 -5 10 15.3 5.4
2 5 -10 17.7 3.4
2 5 -10 21.3 3.4
-1 -5 10 8.8 3.2
-1 -5 10 0.9 4.2
1 5 -10 8.5 2.4
1 5 -10 4 2
0 -5 10 24.6 6.1
0 -5 10 27.4 5.1
0 5 -10 26.7 3.3
0 5 -10 28.6 4.1
1 -5 10 149.59 10.9
1 -5 10 171.68 11
-1 5 -10 168.48 8.5
-1 5 -10 174.48 7
2 -5 10 29.4 6.3
2 -5 10 49.5 7.4
-2 5 -10 46.4 3.7
-2 5 -10 42.3 5.4
-3 -6 10 8.4 3.5
-3 -6 10 5.4 5.6
3 6 -10 5.1 2.5
3 6 -10 5.5 2.3
-2 -6 10 35.4 7.5
-2 -6 10 32.4 5.2
2 6 -10 28.5 3.6
2 6 -10 33.4 4.3
-1 -6 10 18.9 4.5
-1 -6 10 21.1 6.3
1 6 -10 24.6 3.8
1 6 -10 26.4 3.6
0 -6 10 112.99 10.6
0 -6 10 137.39 9.7
0 6 -10 128.29 7
0 6 -10 125.99 6.1
1 -6 10 38.5 7.1
1 -6 10 50.19 8.7
-1 6 -10 39.1 4.8
-1 6 -10 46.1 3.7
-1 -7 10 15 5.7
-1 -7 10 9.8 4.5
1 7 -10 3.6 2.2
1 7 -10 6.1 2.5
5 0 -11 102.09 6.4
5 0 -11 102.39 7.9
-5 0 11 99.19 6.4
-4 0 11 275.27 14.6
-4 0 11 283.67 10.6
4 0 -11 276.37 11.2
4 0 -11 276.37 9.8
3 0 -11 4.2 2.6
-3 0 11 2.7 1.9
-3 0 11 3 3
3 0 -11 2.4 2.8
-2 0 11 17.7 3.4
2 0 -11 19.3 3.5
2 0 -11 18.7 3.8
-2 0 11 24.4 5.2
-1 0 11 5.4 2.5
-1 0 11 11.7 3.6
1 0 -11 9.9 3.2
1 0 -11 6.8 2.7
0 0 -11 2.9 3.2
0 0 11 -1.8 1.9
0 0 -11 4 2.5
0 0 11 -2.5 2.6
-1 0 -11 2.3 3.8
1 0 11 2.1 3
-1 0 -11 3.5 2.1
1 0 11 6 3.5
-2 0 -11 93.39 5.1
2 0 11 73.89 6.9
2 0 11 85.59 7.9
-2 0 -11 75.89 8
-3 0 -11 1.5 1.7
3 0 11 1.6 2.4
3 0 11 0.3 2.7
-3 0 -11 1.7 5.4
-4 -1 11 6.3 2.3
4 -1 -11 6.9 2.7
4 -1 -11 6.5 3.5
-4 -1 11 5.4 4.2
-4 1 11 3.5 1.9
4 1 -11 9.3 3
-4 1 11 6 3.8
4 1 -11 7.2 3.5
-3 -1 11 1.4 1.9
-3 -1 11 3.9 3.4
3 -1 -11 6.3 3.2
3 -1 -11 3.2 2.6
-3 1 11 5.3 2.5
3 1 -11 6.7 3.4
3 1 -11 2.2 2.5
-3 1 11 2.6 1.7
-2 -1 11 11.8 3.1
2 -1 -11 19.1 3.4
-2 -1 11 15.1 4.9
2 -1 -11 16.9 3.6
2 1 -11 13.4 3.2
-2 1 11 13.1 3.1
2 1 -11 19.5 3.7
-2 1 11 19.4 4.4
-1 -1 11 97.09 6.7
1 -1 -11 98.19 5.7
1 -1 -11 95.39 6.5
-1 -1 11 98.49 8
1 1 -11 101.89 6.7
-1 1 11 101.19 7.8
-1 1 11 94.49 6.5
1 1 -11 91.89 5.9
0 -1 11 108.39 8.7
0 -1 -11 112.69 7.3
0 -1 11 100.09 7.8
0 -1 -11 114.39 5.9
0 1 -11 120.39 6.1
0 1 -11 124.79 7.8
0 1 11 119.09 8.5
0 1 11 114.79 7.9
-1 -1 -11 37 3.8
1 -1 11 38.1 5.8
-1 -1 -11 34.6 5.7
1 -1 11 38.3 6.3
1 1 11 29.1 4.9
1 1 11 32.7 5.2
-1 1 -11 34.3 5.3
-1 1 -11 35 3.8
-2 -1 -11 25.8 6
2 -1 11 25.8 5.2
2 -1 11 25.9 4.8
-2 -1 -11 33 3.4
-2 1 -11 25.4 5.7
2 1 11 33.5 6
-2 1 -11 30.8 3.5
2 1 11 30.5 4.9
-3 -1 -11 63.79 8.9
3 -1 11 69.29 8.1
3 -1 11 54.09 8.2
-3 -1 -11 68.19 4.8
-3 1 -11 66.09 4.4
3 1 11 69.49 6.3
-3 1 -11 77.99 9.2
3 1 11 48.8 7.9
-4 -2 11 85.09 6
-4 -2 11 69.79 9.6
4 2 -11 84.39 6.1
4 2 -11 76.99 7.1
-3 -2 11 33.2 4.6
-3 -2 11 18.8 4.9
3 2 -11 27.4 3.9
3 2 -11 30.7 4.8
-2 -2 11 13.3 4.2
-2 -2 11 11.1 3.2
2 2 -11 6.7 3
2 2 -11 8.9 3.3
-1 -2 11 14.5 3.6
-1 -2 11 11.6 4.5
1 2 -11 8.8 2.7
1 2 -11 14 3.7
0 -2 11 30.4 6.1
0 -2 11 43.4 6.6
0 2 -11 42.2 4.3
0 2 -11 46.4 5.4
1 -2 11 23.4 5.4
-1 -2 -11 23.7 4.8
-1 -2 -11 22.7 3
1 -2 11 17 4.3
1 2 11 30.7 4.6
-1 2 -11 32.2 3.6
1 2 11 20.8 4.3
-1 2 -11 26.6 4.9
-2 -2 -11 13.9 2.5
2 -2 11 16.2 4.6
2 -2 11 15.9 4.2
-2 -2 -11 10.2 5
-2 2 -11 13.2 2.5
2 2 11 12.2 3.5
-2 2 -11 18.1 4.8
2 2 11 10.2 4.1
-3 -2 -11 6.2 6.1
-3 -2 -11 16.6 3
3 -2 11 10.7 3.7
3 -2 11 9.9 5.2
3 2 11 13.8 3.4
-3 2 -11 12.1 4.9
3 2 11 19.9 5.1
-3 2 -11 11.8 2.5
-4 -3 11 6.8 2.6
-4 -3 11 -1.9 4.3
4 3 -11 2.8 3.2
4 3 -11 3.1 2.6
-3 -3 11 12 4.4
-3 -3 11 17.4 3.6
3 3 -11 12.6 3.1
3 3 -11 17.3 3.8
-2 -3 11 22.5 5.1
-2 -3 11 18.3 3.8
2 3 -11 20.6 3.7
2 3 -11 24.8 3.8
-1 -3 11 15.9 3.7
-1 -3 11 8.8 4.2
1 3 -11 14.1 3.4
1 3 -11 13.9 2.7
0 -3 11 69.69 8.6
0 -3 11 69.39 7.6
0 3 -11 65.69 4.7
0 3 -11 66.29 5.9
1 -3 11 19.9 4.8
1 -3 11 26.1 5.5
-1 3 -11 28.4 4.7
-1 3 -11 30.6 3.5
2 -3 11 34.8 5.7
2 -3 11 23.9 5.8
-2 3 -11 19.9 4.6
-2 3 -11 29.9 3.5
-4 -4 11 18.5 6
4 4 -11 14 3.6
-3 -4 11 41.9 7.5
-3 -4 11 43.4 5.5
3 4 -11 39.2 4.4
3 4 -11 41.1 5.2
-2 -4 11 25.5 5.5
-2 -4 11 28 4.7
2 4 -11 34 4.3
2 4 -11 32.1 4.1
-1 -4 11 27.9 5.2
-1 -4 11 31.9 5.4
1 4 -11 32.6 4.2
1 4 -11 30.7 4.2
0 -4 11 82.39 8.5
0 -4 11 98.59 8.8
0 4 -11 96.09 5.4
0 4 -11 107.79 6.7
1 -4 11 39.4 6.6
1 -4 11 35.9 5.9
-1 4 -11 50.09 5.9
-1 4 -11 49.6 3.7
2 -4 11 19.6 6
2 -4 11 23.1 5.3
-2 4 -11 20.8 3.1
-2 4 -11 18.1 4.1
-3 -5 11 34.1 6.6
-3 -5 11 15.6 3.9
3 5 -11 21 3.4
3 5 -11 18.7 3.6
-2 -5 11 170.88 9.8
-2 -5 11 189.88 13
2 5 -11 210.58 8.9
2 5 -11 195.88 8.6
-1 -5 11 13.5 5.3
-1 -5 11 7.4 3.7
1 5 -11 15.6 3.4
1 5 -11 16.9 3
0 -5 11 1.4 3.5
0 -5 11 -1 4.3
0 5 -11 1.7 1.8
0 5 -11 4.1 1.8
1 -5 11 7.3 4.6
1 -5 11 2.4 5
-1 5 -11 5.8 2.9
-1 5 -11 8.1 2.2
-1 -6 11 39.3 6.3
-1 -6 11 52.49 8.8
1 6 -11 34.8 4.8
1 6 -11 41.1 4.4
-4 0 12 -0.4 1.9
-4 0 12 2.8 3.9
4 0 -12 -2.5 2.5
4 0 -12 -0.2 3.3
-3 0 12 15.8 3.2
3 0 -12 17.2 3.4
3 0 -12 14.5 4
-3 0 12 15.2 4.6
2 0 -12 14.8 3.3
-2 0 12 16.5 4.1
-2 0 12 13.2 3.4
2 0 -12 10.9 3.2
-1 0 12 167.08 9.2
1 0 -12 158.98 8.3
1 0 -12 166.88 7.2
-1 0 12 140.19 9.9
0 0 -12 3.9 2.4
0 0 12 5.9 3.3
0 0 12 -0.2 3.1
0 0 -12 0.9 3.1
-1 0 -12 19.7 3
-1 0 -12 16.7 4.5
1 0 12 14 3.5
1 0 12 11.5 3.8
-2 0 -12 8.1 2.5
2 0 12 7.3 3.4
2 0 12 7.8 4.3
-2 0 -12 8.2 4.7
-4 -1 12 115.29 11.3
-4 -1 12 127.99 7.7
4 1 -12 119.49 7.4
4 1 -12 140.09 8.6
-3 -1 12 92.99 9.1
3 -1 -12 105.59 7
3 -1 -12 105.89 8.4
-3 -1 12 110.49 7.2
-3 1 12 105.09 7.3
3 1 -12 117.99 7
-3 1 12 129.09 10.1
3 1 -12 111.49 7.7
-2 -1 12 43.1 5.4
2 -1 -12 53.29 5
2 -1 -12 46.2 4.7
-2 -1 12 47.6 6.9
-2 1 12 48.7 6.6
2 1 -12 45.4 4.9
2 1 -12 48.3 5.1
-2 1 12 51.19 5.7
1 -1 -12 45.3 5
-1 -1 12 36.9 6.5
-1 -1 12 47 6.2
1 -1 -12 41.8 4.3
-1 1 12 37.3 5.4
-1 1 12 42.3 6.2
1 1 -12 39.6 4.5
1 1 -12 38.8 4.9
0 -1 12 93.49 8.8
0 -1 -12 116.99 5.9
0 -1 -12 121.09 7.7
0 -1 12 112.29 8.7
0 1 -12 108.59 6.2
0 1 12 104.39 8.1
0 1 12 90.09 8.2
0 1 -12 106.69 7.6
-1 -1 -12 9.2 2.5
1 -1 12 5 3.6
1 -1 12 9 4
-1 -1 -12 8.5 4.1
-1 1 -12 9 4
-1 1 -12 15.5 3
1 1 12 13.5 4.6
1 1 12 9.3 3.5
2 -1 12 21 4.8
2 -1 12 16.7 5.1
-2 -1 -12 12 2.7
-2 -1 -12 14.5 5.2
-2 1 -12 17.6 5.5
2 1 12 13.1 4.8
-2 1 -12 14.6 2.9
2 1 12 20.5 4.7
-3 -2 12 52.79 5.9
-3 -2 12 68.79 9.3
3 2 -12 54.09 5.4
3 2 -12 59.79 6.2
-2 -2 12 11.8 4
-2 -2 12 6.1 2.7
2 2 -12 6.5 3
2 2 -12 7.3 3.1
-1 -2 12 38 6.8
-1 -2 12 28.9 5.2
1 2 -12 39 5.1
1 2 -12 37.5 4.6
0 -2 12 41.9 7.1
0 -2 12 45.8 6.8
0 2 -12 42 4.4
0 2 -12 56.89 6.3
1 -2 12 -2.6 2.9
1 -2 12 -1.8 2.6
-1 2 -12 1.8 3.2
-1 2 -12 -2.7 1.8
2 -2 12 14.6 4.9
2 -2 12 23.2 5.2
-2 2 -12 15.2 5.1
-2 2 -12 15.1 2.9
-3 -3 12 97.79 7.1
-3 -3 12 74.39 9.5
3 3 -12 90.99 7.2
3 3 -12 100.49 6.6
-2 -3 12 30.7 5.3
-2 -3 12 27.4 5.5
2 3 -12 28.2 4.4
2 3 -12 26.1 4.1
-1 -3 12 2.8 3.3
-1 -3 12 19.5 4.6
1 3 -12 7.1 3
1 3 -12 7.3 3
0 -3 12 55.99 8
0 -3 12 60.39 7.8
0 3 -12 72.69 6.4
0 3 -12 58.49 4.7
1 -3 12 -0.5 3
1 -3 12 4.3 3.4
-1 3 -12 -4.1 1.5
-1 3 -12 -1.4 3.1
-2 -4 12 0.2 2.8
-2 -4 12 -2 3.7
2 4 -12 2 2.2
2 4 -12 2 2.3
-1 -4 12 7 3.7
-1 -4 12 -3.8 3.8
1 4 -12 -1.5 2.1
1 4 -12 -0.1 2.3
0 -4 12 2.2 3.9
0 -4 12 0.1 3.1
0 4 -12 1.3 2
0 4 -12 5.6 2.9
1 -4 12 4.5 4.8
1 -4 12 0.8 4.6
-1 4 -12 3.4 3.4
-1 4 -12 1.7 2.2
-3 0 13 58.69 8.6
3 0 -13 60.89 6.1
2 0 -13 0.7 2.7
2 0 -13 1.9 2.9
-2 0 13 1.9 2.4
-2 0 13 6.4 3.8
1 0 -13 69.89 5.6
-1 0 13 82.09 7.2
1 0 -13 72.99 6.4
-1 0 13 93.99 8.2
0 0 13 166.78 10.9
0 0 -13 179.38 7.9
0 0 13 176.48 11.6
0 0 -13 192.68 9.6
1 0 13 1.2 3.6
-1 0 -13 -5.1 3.5
1 0 13 5.3 3.4
-1 0 -13 -1 1.8
-2 -1 13 75.89 9.4
-2 -1 13 81.39 6.7
2 1 -13 78.79 6.2
2 1 -13 74.59 6.4
-1 -1 13 12.2 3.6
-1 -1 13 10.1 3.5
1 -1 -13 9.3 3.9
1 -1 -13 4.2 2.5
1 1 -13 5.9 2.7
-1 1 13 2.1 2.9
1 1 -13 1.9 3.1
-1 1 13 7.1 3.7
0 -1 -13 86.29 5.4
0 -1 13 80.19 9.6
0 -1 13 61.99 7.6
0 -1 -13 84.19 6.9
0 1 -13 73.49 7.2
0 1 13 87.59 9.6
0 1 -13 83.09 5.8
0 1 13 86.29 7.7
1 -1 13 176.88 11.8
1 -1 13 190.68 11.6
-1 -1 -13 175.28 10.6
-1 -1 -13 182.08 7.5
1 1 13 197.88 11.8
-1 1 -13 165.88 7.6
1 1 13 176.78 11.3
-2 -2 13 53.79 7
-2 -2 13 42 7
2 2 -13 44.4 5.2
2 2 -13 34.6 4.9
-1 -2 13 13.8 4.2
-1 -2 13 9.3 3.8
1 2 -13 11.5 2.9
1 2 -13 9.5 3.6
0 -2 13 145.89 11.8
0 -2 13 152.58 10.9
0 2 -13 173.48 8
0 2 -13 159.18 9.3
loop_
_geom_angle_atom_site_label_1
_geom_angle_atom_site_label_2
_geom_angle_atom_site_label_3
_geom_angle
_geom_angle_site_symmetry_1
_geom_angle_site_symmetry_3
_geom_angle_publ_flag
H1B N1 H1A 108.5(8) . . ?
H1C N1 H1A 110.4(8) . . ?
H1C N1 H1B 108.4(7) . . ?
C2 N1 H1A 109.1(6) . . ?
C2 N1 H1B 112.3(6) . . ?
C2 N1 H1C 108.1(5) . . ?
C6 N3 H3 126.3(5) . . ?
C5 N3 H3 126.4(5) . . ?
C5 N3 C6 107.29(5) . . ?
C5 N2 C4 105.32(5) . . ?
O1 C1 O2 126.50(5) . . ?
C2 C1 O2 116.25(5) . . ?
C2 C1 O1 117.20(5) . . ?
C6 C4 N2 109.50(5) . . ?
C3 C4 N2 120.82(5) . . ?
C3 C4 C6 129.67(6) . . ?
C4 C6 N3 105.99(6) . . ?
H6 C6 N3 122.3(5) . . ?
H6 C6 C4 131.7(5) . . ?
C1 C2 N1 109.89(5) . . ?
H2 C2 N1 108.1(5) . . ?
H2 C2 C1 108.3(4) . . ?
C3 C2 N1 110.53(5) . . ?
C3 C2 C1 109.64(6) . . ?
C3 C2 H2 110.4(4) . . ?
N2 C5 N3 111.89(6) . . ?
H5 C5 N3 123.5(4) . . ?
H5 C5 N2 124.6(4) . . ?
C2 C3 C4 112.75(6) . . ?
H3A C3 C4 111.4(5) . . ?
H3A C3 C2 107.7(4) . . ?
H3B C3 C4 109.8(4) . . ?
H3B C3 C2 107.5(5) . . ?
H3B C3 H3A 107.4(7) . . ?
loop_
_geom_bond_atom_site_label_1
_geom_bond_atom_site_label_2
_geom_bond_distance
_geom_bond_site_symmetry_2
_geom_bond_publ_flag
O2 C1 1.2594(7) . ?
O1 C1 1.2503(7) . ?
N1 H1A 1.022(9) . ?
N1 H1B 1.014(9) . ?
N1 H1C 1.002(11) . ?
N1 C2 1.4904(8) . ?
N3 H3 0.994(7) . ?
N3 C6 1.3775(8) . ?
N3 C5 1.3515(9) . ?
N2 C4 1.3878(8) . ?
N2 C5 1.3270(7) . ?
C1 C2 1.5432(8) . ?
C4 C6 1.3763(8) . ?
C4 C3 1.5030(8) . ?
C6 H6 1.067(8) . ?
C2 H2 1.093(8) . ?
C2 C3 1.5405(9) . ?
C5 H5 1.089(8) . ?
C3 H3A 1.095(8) . ?
C3 H3B 1.085(9) . ?
loop_
_geom_torsion_atom_site_label_1
_geom_torsion_atom_site_label_2
_geom_torsion_atom_site_label_3
_geom_torsion_atom_site_label_4
_geom_torsion
_geom_torsion_site_symmetry_1
_geom_torsion_site_symmetry_2
_geom_torsion_site_symmetry_3
_geom_torsion_site_symmetry_4
_geom_torsion_publ_flag
C5 N2 C4 C3 179.01(6) . . . . ?
C6 N3 C5 N2 0.32(8) . . . . ?
O1 C1 C2 C3 94.16(7) . . . . ?
N1 C2 C3 C4 -57.73(7) . . . . ?
C2 C3 C4 C6 -127.85(7) . . . . ?
H1A N1 C2 C1 163.8(6) . . . . ?
H1B N1 C2 C1 43.5(6) . . . . ?
H1C N1 C2 C1 -76.1(6) . . . . ?
C4 N2 C5 H5 178.3(6) . . . . ?
H3 N3 C5 H5 2.7(9) . . . . ?
H3 N3 C6 H6 -1.6(10) . . . . ?
C5 N2 C4 C6 0.14(8) . . . . ?
C5 N3 C6 C4 -0.22(8) . . . . ?
O2 C1 C2 N1 155.01(6) . . . . ?
C1 C2 C3 C4 -179.02(5) . . . . ?
N2 C4 C6 N3 0.06(7) . . . . ?
H1A N1 C2 C3 42.7(6) . . . . ?
H1B N1 C2 C3 -77.7(6) . . . . ?
H1C N1 C2 C3 162.8(6) . . . . ?
C6 N3 C5 H5 -178.3(6) . . . . ?
C5 N3 C6 H6 179.4(6) . . . . ?
O1 C1 C2 H2 -145.4(4) . . . . ?
C4 N2 C5 N3 -0.28(8) . . . . ?
O1 C1 C2 N1 -27.52(8) . . . . ?
O2 C1 C2 C3 -83.32(7) . . . . ?
C2 C3 C4 N2 53.53(8) . . . . ?
C3 C4 C6 N3 -178.69(7) . . . . ?
H1A N1 C2 H2 -78.2(7) . . . . ?
H1B N1 C2 H2 161.4(7) . . . . ?
H1C N1 C2 H2 41.9(7) . . . . ?
H3 N3 C5 N2 -178.7(7) . . . . ?
H3 N3 C6 C4 178.8(7) . . . . ?
O2 C1 C2 H2 37.2(5) . . . . ?
N1 C2 C3 H3A 65.6(5) . . . . ?
C1 C2 C3 H3B 59.8(5) . . . . ?
H2 C2 C3 H3B -59.5(6) . . . . ?
H3B C3 C4 N2 173.4(5) . . . . ?
C3 C4 C6 H6 1.8(7) . . . . ?
N1 C2 C3 H3B -179.0(5) . . . . ?
H2 C2 C3 C4 61.8(4) . . . . ?
H3A C3 C4 N2 -67.7(5) . . . . ?
H3B C3 C4 C6 -8.0(5) . . . . ?
C1 C2 C3 H3A -55.7(5) . . . . ?
H2 C2 C3 H3A -174.9(6) . . . . ?
H3A C3 C4 C6 110.9(5) . . . . ?
N2 C4 C6 H6 -179.5(7) . . . . ?
loop_
_restr_rigu_atom_site_label_1
_restr_rigu_atom_site_label_2
_restr_rigu_target_weight_param
_restr_rigu_u13_diff
_restr_rigu_u23_diff
_restr_rigu_u33_diff
N1 H1A 0.004000 -0.000905 -0.000904 -0.006286
N1 H1B 0.004000 0.002022 0.002015 0.000558
N1 H1C 0.004000 -0.001632 0.001433 -0.002073
H1A H1B 0.004000 0.014113 0.010334 -0.002542
H1A H1C 0.004000 -0.002647 0.011550 0.002135
H1B H1C 0.004000 -0.005790 -0.015472 0.000983
N3 H3 0.004000 -0.000644 -0.001466 -0.000713
N3 N2 0.004000 0.000299 0.003302 0.000014
N3 C4 0.004000 -0.000194 -0.001654 0.000359
N3 C6 0.004000 -0.000336 -0.002607 -0.000382
N3 H6 0.004000 -0.001218 -0.011198 -0.006098
N3 C5 0.004000 0.000942 0.003127 -0.001257
N3 H5 0.004000 -0.002193 0.012490 -0.008906
H3 C6 0.004000 -0.001309 -0.003687 -0.000254
H3 C5 0.004000 0.000474 0.005524 0.000651
N2 C4 0.004000 0.000882 0.001675 -0.000175
N2 C6 0.004000 0.000021 -0.001400 -0.001010
N2 C5 0.004000 0.000356 -0.002570 0.000240
N2 H5 0.004000 0.000704 -0.007243 -0.004728
C4 C6 0.004000 -0.000579 0.001249 0.000133
C4 H6 0.004000 -0.003400 0.005675 -0.003439
C4 C5 0.004000 0.001139 0.000475 -0.000956
C6 H6 0.004000 -0.001332 -0.001637 -0.001540
C6 C5 0.004000 0.000720 0.003842 -0.000345
C2 H2 0.004000 0.000131 -0.005357 0.004855
C2 C3 0.004000 -0.002062 0.002046 0.000077
C2 H3A 0.004000 -0.003783 0.002322 -0.005942
C2 H3B 0.004000 -0.007171 0.006178 -0.010004
H2 C3 0.004000 -0.009121 -0.012517 -0.001123
C5 H5 0.004000 -0.002150 0.002092 -0.003148
C3 H3A 0.004000 -0.000448 -0.004011 -0.002780
C3 H3B 0.004000 0.001735 0.000738 -0.002075
H3A H3B 0.004000 0.016565 0.021656 0.003312

_cod_database_fobs_code 2108883
