#------------------------------------------------------------------------------
#$Date: 2021-07-28 08:23:42 +0300 (Wed, 28 Jul 2021) $
#$Revision: 267783 $
#$URL: file:///home/coder/svn-repositories/cod/cif/2/10/88/2108853.cif $
#------------------------------------------------------------------------------
#
# This file is available in the Crystallography Open Database (COD),
# http://www.crystallography.net/. The original data for this entry
# were provided by IUCr Journals, http://journals.iucr.org/.
#
# The file may be used within the scientific community so long as
# proper attribution is given to the journal article from which the
# data were obtained.
#
data_2108853
loop_
_publ_author_name
'Bujak, Maciej'
'Podsiad\/lo, Marcin'
'Katrusiak, Andrzej'
_publ_section_title
;
 Properties and interactions -- melting point of tribromobenzene isomers
;
_journal_coeditor_code           LO5092
_journal_issue                   4
_journal_name_full               'Acta Crystallographica Section B'
_journal_page_first
;
;
_journal_paper_doi               10.1107/S2052520621006399
_journal_volume                  77
_journal_year                    2021
_chemical_formula_moiety         'C6 H3 Br3'
_chemical_formula_sum            'C6 H3 Br3'
_chemical_formula_weight         314.78
_space_group_crystal_system      orthorhombic
_space_group_IT_number           19
_space_group_name_Hall           'P 2ac 2ab'
_space_group_name_H-M_alt        'P 21 21 21'
_atom_sites_solution_hydrogens   difmap
_atom_sites_solution_primary     direct
_atom_sites_solution_secondary   difmap
_audit_creation_method           SHELXL-2014/7
_cell_angle_alpha                90
_cell_angle_beta                 90
_cell_angle_gamma                90
_cell_formula_units_Z            4
_cell_length_a                   4.06406(18)
_cell_length_b                   13.5231(6)
_cell_length_c                   14.1996(6)
_cell_measurement_reflns_used    2027
_cell_measurement_temperature    270.0(1)
_cell_measurement_theta_max      24.65
_cell_measurement_theta_min      4.15
_cell_volume                     780.39(6)
_computing_cell_refinement
'CrysAlisPro 1.171.39.46 (Rigaku Oxford Diffraction, 2018)'
_computing_data_collection
'CrysAlisPro 1.171.39.46 (Rigaku Oxford Diffraction, 2018)'
_computing_data_reduction
'CrysAlisPro 1.171.39.46 (Rigaku Oxford Diffraction, 2018)'
_computing_molecular_graphics    'Mercury (Macrae at al., 2020)'
_computing_publication_material  'SHELXL-2014/7 (Sheldrick, 2014)'
_computing_structure_refinement  'SHELXL-2014/7 (Sheldrick, 2014)'
_computing_structure_solution    'SHELXS-97 (Sheldrick, 2008)'
_diffrn_ambient_temperature      270.0(1)
_diffrn_detector_area_resol_mean 16.1544
_diffrn_measured_fraction_theta_full 0.998
_diffrn_measured_fraction_theta_max 0.998
_diffrn_measurement_device_type  'Xcalibur, Eos'
_diffrn_measurement_method       '\w scans'
_diffrn_radiation_type           MoK\a
_diffrn_radiation_wavelength     0.71073
_diffrn_reflns_av_R_equivalents  0.0673
_diffrn_reflns_av_unetI/netI     0.0402
_diffrn_reflns_Laue_measured_fraction_full 0.998
_diffrn_reflns_Laue_measured_fraction_max 0.998
_diffrn_reflns_limit_h_max       5
_diffrn_reflns_limit_h_min       -5
_diffrn_reflns_limit_k_max       16
_diffrn_reflns_limit_k_min       -16
_diffrn_reflns_limit_l_max       17
_diffrn_reflns_limit_l_min       -17
_diffrn_reflns_number            10906
_diffrn_reflns_point_group_measured_fraction_full 0.999
_diffrn_reflns_point_group_measured_fraction_max 0.999
_diffrn_reflns_theta_full        25.242
_diffrn_reflns_theta_max         25.992
_diffrn_reflns_theta_min         2.869
_diffrn_source                   'fine-focus sealed X-ray tube'
_exptl_absorpt_coefficient_mu    15.413
_exptl_absorpt_correction_T_max  0.274
_exptl_absorpt_correction_T_min  0.072
_exptl_absorpt_correction_type   analytical
_exptl_absorpt_process_details
;
CrysAlisPro 1.171.39.46 (Rigaku Oxford Diffraction, 2018)
Analytical numeric absorption correction using a multifaceted crystal
model based on expressions derived by R.C. Clark & J.S. Reid.
(Clark, R. C. & Reid, J. S. (1995). Acta Cryst. A51, 887-897)
Empirical absorption correction using spherical harmonics,
implemented in SCALE3 ABSPACK scaling algorithm.
;
_exptl_crystal_colour            yellow
_exptl_crystal_density_diffrn    2.679
_exptl_crystal_density_method    'not measured'
_exptl_crystal_description       needle
_exptl_crystal_F_000             576
_exptl_crystal_size_max          0.35
_exptl_crystal_size_mid          0.16
_exptl_crystal_size_min          0.10
_refine_diff_density_max         0.486
_refine_diff_density_min         -0.460
_refine_diff_density_rms         0.112
_refine_ls_abs_structure_details
;
 Refined as an inversion twin.
;
_refine_ls_abs_structure_Flack   0.45(4)
_refine_ls_extinction_coef       0.0136(7)
_refine_ls_extinction_expression Fc^*^=kFc[1+0.001xFc^2^\l^3^/sin(2\q)]^-1/4^
_refine_ls_extinction_method     'SHELXL-2014/7 (Sheldrick 2014)'
_refine_ls_goodness_of_fit_ref   1.000
_refine_ls_hydrogen_treatment    constr
_refine_ls_matrix_type           full
_refine_ls_number_parameters     84
_refine_ls_number_reflns         1520
_refine_ls_number_restraints     0
_refine_ls_restrained_S_all      1.000
_refine_ls_R_factor_all          0.0414
_refine_ls_R_factor_gt           0.0296
_refine_ls_shift/su_max          0.000
_refine_ls_shift/su_mean         0.000
_refine_ls_structure_factor_coef Fsqd
_refine_ls_weighting_details
'w=1/[\s^2^(Fo^2^)+(0.0210P)^2^] where P=(Fo^2^+2Fc^2^)/3'
_refine_ls_weighting_scheme      calc
_refine_ls_wR_factor_gt          0.0536
_refine_ls_wR_factor_ref         0.0563
_reflns_Friedel_coverage         0.633
_reflns_Friedel_fraction_full    1.000
_reflns_Friedel_fraction_max     1.000
_reflns_number_gt                1297
_reflns_number_total             1520
_reflns_threshold_expression     'I > 2\s(I)'
_cod_data_source_file            lo5092sup1.cif
_cod_data_source_block           135TBB_270K
_cod_database_code               2108853
_shelx_shelxl_version_number     2014/7
_shelx_space_group_comment
;
The symmetry employed for this shelxl refinement is uniquely defined
by the following loop, which should always be used as a source of
symmetry information in preference to the above space-group names.
They are only intended as comments.
;
_shelx_estimated_absorpt_t_min   0.075
_shelx_estimated_absorpt_t_max   0.308
_shelx_res_file
;

    135tbb_270k.res created by SHELXL-2014/7


TITL 135TBB_270K in P2(1)2(1)2(1)
CELL 0.71073   4.064061  13.523128  14.199620  90.0000  90.0000  90.0000
ZERR    4.00   0.000182   0.000584   0.000611   0.0000   0.0000   0.0000
LATT -1
SYMM 0.5-X, -Y, 0.5+Z
SYMM -X, 0.5+Y, 0.5-Z
SYMM 0.5+X, 0.5-Y, -Z
SFAC C H BR
UNIT 24 12 12
OMIT 0 52
OMIT 0 3 2
HTAB
ACTA
SIZE 0.10 0.16 0.35
REM TEMP -3
L.S. 100
BOND $H
FMAP 2
PLAN 150
CONF
TWIN
WGHT    0.021000
EXTI    0.013588
BASF   0.44882
FVAR       0.14155
C11   1    0.297154    0.229401    0.335337    11.00000    0.04169    0.03906 =
         0.02727    0.00332    0.00338    0.00413
BR11  3    0.436315    0.108859    0.391023    11.00000    0.05902    0.03967 =
         0.05303    0.00584   -0.00328    0.00667
C12   1    0.138580    0.226523    0.250197    11.00000    0.03809    0.03671 =
         0.03591   -0.00472    0.01049   -0.00471
AFIX  43
H12   2    0.099043    0.166767    0.219819    11.00000   -1.20000
AFIX   0
C13   1    0.039713    0.314638    0.211050    11.00000    0.03140    0.04614 =
         0.02857   -0.00583    0.00447   -0.00413
BR13  3   -0.175123    0.312974    0.092934    11.00000    0.05216    0.06265 =
         0.03257    0.00306   -0.00278   -0.00399
C14   1    0.100010    0.403682    0.253871    11.00000    0.03561    0.03764 =
         0.03696    0.00062    0.00334   -0.00039
AFIX  43
H14   2    0.035379    0.462678    0.225754    11.00000   -1.20000
AFIX   0
C15   1    0.259067    0.403564    0.339770    11.00000    0.03848    0.03325 =
         0.04686    0.00005    0.00050   -0.00279
BR15  3    0.350629    0.524050    0.400911    11.00000    0.06553    0.03829 =
         0.06254   -0.00897   -0.00880   -0.00707
C16   1    0.365159    0.316409    0.381594    11.00000    0.03477    0.04435 =
         0.03493   -0.00311    0.00088   -0.00417
AFIX  43
H16   2    0.477723    0.316838    0.438616    11.00000   -1.20000
AFIX   0
HKLF 4

REM  135TBB_270K in P2(1)2(1)2(1)
REM R1 =  0.0296 for    1297 Fo > 4sig(Fo)  and  0.0414 for all    1520 data
REM     84 parameters refined using      0 restraints

END

WGHT      0.0210      0.0000

REM No hydrogen bonds found for HTAB generation

REM Highest difference peak  0.486,  deepest hole -0.460,  1-sigma level  0.112
Q1    1   0.0720  0.3232  0.1055  11.00000  0.05    0.49
Q2    1   0.2389  0.1821  0.1021  11.00000  0.05    0.36
Q3    1   0.6893  0.0963  0.4056  11.00000  0.05    0.36
Q4    1   0.5003  0.1725  0.4060  11.00000  0.05    0.35
Q5    1   0.1464  0.4438  0.1016  11.00000  0.05    0.34
Q6    1   0.0342  0.4040  0.1395  11.00000  0.05    0.34
Q7    1   0.6061  0.0592  0.3208  11.00000  0.05    0.32
Q8    1  -0.0281  0.4203  0.0509  11.00000  0.05    0.31
Q9    1   0.2085  0.5068  0.1961  11.00000  0.05    0.30
Q10   1   0.7546  0.3345  0.4048  11.00000  0.05    0.30
Q11   1   0.6099  0.5184  0.3898  11.00000  0.05    0.30
Q12   1   0.4642  0.1228  0.3413  11.00000  0.05    0.29
Q13   1   0.2637  0.4182  0.1564  11.00000  0.05    0.28
Q14   1   0.3012  0.1753  0.4384  11.00000  0.05    0.28
Q15   1  -0.0088  0.2842  0.0462  11.00000  0.05    0.28
Q16   1   0.0044  0.3883  0.4030  11.00000  0.05    0.27
Q17   1   0.3416  0.1250  0.2181  11.00000  0.05    0.27
Q18   1   0.7973  0.2682  0.3964  11.00000  0.05    0.27
Q19   1   0.1900  0.2214  0.1589  11.00000  0.05    0.27
Q20   1   0.6578  0.2627  0.3797  11.00000  0.05    0.27
...
;
_shelx_res_checksum              72901
_shelx_hkl_file
;
   0   0  -2   28.30    1.71
   0   0   2   29.92    1.86
   0   0  -2   26.97    1.94
   0   0   2   29.13    1.77
   0   0  -3    2.90    0.90
   0   0   3    3.89    1.18
   0   0   3    2.29    1.24
   0   0  -3    3.79    1.21
   0   0   3    3.47    0.93
   0   0  -3    4.73    0.99
   0   0   3    3.10    0.92
   0   0  -3    3.50    1.11
   0   0   3    2.96    0.89
   0   0   4  875.33   18.83
   0   0  -4  863.38   17.48
   0   0  -4  829.70   16.09
   0   0  -5    0.27    1.02
   0   0   5    1.37    1.40
   0   0   5    1.31    0.98
   0   0  -5    0.35    0.83
   0   0  -6  698.66   17.17
   0   0   6  730.48   19.17
   0   0   6  705.69   17.08
   0   0  -6  667.39   15.88
   0   0   7    1.63    1.61
   0   0  -7   -0.13    1.20
   0   0  -7   -0.48    1.01
   0   0   7    0.18    1.24
   0   0   8  121.85    7.23
   0   0   8  122.78    8.02
   0   0  -8  123.24    6.38
   0   0  -8  120.55    7.10
   0   0  -9    0.54    1.45
   0   0   9   -0.39    1.87
   0   0  -9    0.34    1.11
   0   0 -10  331.13   11.71
   0   0  10  342.91   14.66
   0   0 -10  341.14   13.12
   0   0  11   -0.95    2.47
   0   0 -11    1.54    1.47
   0   0 -11   -1.28    1.30
   0   0  12   43.99    5.49
   0   0 -12   40.00    4.12
   0   0 -12   40.19    4.79
   0   0 -13   -1.38    1.46
   0   0  13   -0.01    1.99
   0   0 -13   -0.15    1.46
   0   0  14   69.53    7.33
   0   0 -14   69.37    6.46
   0   0 -14   72.90    5.76
   0   0 -15   -0.27    1.23
   0   0 -15   -3.16    2.18
   0   0  15   -1.34    1.97
   0   0 -16   35.33    4.85
   0   0 -16   33.79    4.14
   0   0  16   37.87    5.58
   0   0 -17    1.70    1.24
   0   0  17    1.29    1.92
   0   0 -17    0.58    1.47
   0   0 -18    0.68    1.39
   0   0 -18    1.69    1.24
   0   0 -19   -3.19    2.14
   0   0  19    0.11    1.44
   0   0 -19   -0.56    1.54
   0   0  19    0.08    2.39
   0   0 -20    5.49    2.18
   0   0  20    4.67    2.67
   0   0  20    8.08    2.95
   0  -1   2    0.61    0.44
   0  -1  -2    0.69    0.29
   0   1  -2    1.73    0.75
   0   1   2    0.89    0.38
   0   1  -2    0.31    0.25
   0   1   2    0.55    0.26
   0   1   2    0.37    0.26
   0  -1  -2    0.60    0.32
   0  -1  -2    0.76    0.49
   0  -1   2    0.37    0.25
   0  -1  -2    0.60    0.23
   0  -1   2    0.73    0.56
   0   1  -2    0.19    0.46
   0   1  -2    0.19    0.54
   0  -1  -2    0.37    0.34
   0  -1   2    0.92    0.28
   0  -1   2    0.44    0.39
   0   1   3   25.85    2.03
   0  -1  -3   27.01    1.70
   0   1   3   23.84    2.10
   0   1  -3   24.50    1.59
   0   1   3   24.73    1.65
   0  -1   3   25.45    2.45
   0  -1   3   28.02    2.44
   0  -1   3   25.33    1.67
   0  -1   3   25.85    2.52
   0   1  -3   28.70    2.64
   0  -1  -3   25.45    1.93
   0   1   3   24.81    1.66
   0  -1  -3   25.65    1.92
   0  -1  -3   25.34    1.65
   0   1  -3   27.51    2.41
   0  -1  -4    0.66    0.76
   0  -1   4    0.59    1.37
   0   1  -4    1.88    1.31
   0   1   4    0.32    0.70
   0  -1   4    1.12    0.75
   0   1   4    0.24    0.91
   0  -1  -4    0.45    0.86
   0   1  -4   -0.72    1.33
   0   1  -4    0.68    0.62
   0   1  -5   23.13    3.02
   0  -1  -5   21.59    2.24
   0  -1   5   21.68    2.96
   0   1   5   22.23    2.18
   0   1   5   17.68    2.43
   0   1  -5   21.12    2.03
   0   1  -5   19.04    2.59
   0  -1  -5   21.76    2.35
   0   1  -6    3.81    1.59
   0   1   6    1.85    1.28
   0   1  -6    1.23    0.74
   0  -1   6    0.65    1.74
   0   1  -6    3.88    1.83
   0  -1  -6    3.53    1.05
   0  -1  -6    3.84    1.31
   0   1   6    2.31    1.09
   0   1   7  113.65    6.15
   0  -1  -7  108.11    6.04
   0  -1  -7  118.93    5.95
   0   1   7  113.83    6.95
   0   1  -7  126.31    7.47
   0  -1   7  127.70    8.03
   0   1  -7  118.15    5.80
   0   1  -8    3.62    1.28
   0   1   8    2.89    1.96
   0  -1  -8    2.82    1.36
   0  -1   8    2.54    1.88
   0  -1  -8    4.63    1.58
   0   1  -8    5.61    2.10
   0   1   8    5.15    1.61
   0  -1   9    5.93    2.14
   0   1   9    3.20    2.18
   0   1  -9    5.48    1.95
   0  -1  -9    3.72    1.39
   0  -1  -9    3.72    1.64
   0   1  -9    3.37    1.33
   0   1   9    5.06    1.89
   0   1 -10    2.05    2.00
   0  -1 -10    5.97    2.14
   0   1  10    3.77    1.98
   0   1  10    3.53    1.89
   0  -1  10    1.10    2.26
   0   1 -10    5.22    1.75
   0  -1 -10    5.79    1.84
   0  -1  11   42.54    5.56
   0   1 -11   42.04    4.19
   0  -1 -11   42.71    4.21
   0  -1 -11   44.68    4.77
   0   1 -11   35.06    4.46
   0   1  11   36.47    4.95
   0   1  11   45.54    4.96
   0  -1 -12    1.40    1.40
   0  -1 -12    2.79    1.89
   0  -1  12    3.00    2.86
   0   1  12    4.06    1.97
   0   1 -12    3.72    2.22
   0   1 -12    2.25    1.48
   0   1 -13   11.32    2.71
   0  -1 -13   13.51    2.87
   0  -1  13   14.57    3.77
   0   1 -13   13.46    2.56
   0  -1 -13   11.58    2.29
   0   1  13   10.29    3.16
   0  -1 -14   -0.70    1.37
   0  -1  14    2.45    2.34
   0   1  14    0.72    2.33
   0   1 -14   -0.28    1.24
   0   1 -14   -2.58    2.25
   0  -1 -14   -0.68    1.80
   0  -1 -15    3.37    1.86
   0   1  15    6.31    2.99
   0   1 -15    2.02    1.34
   0   1 -15    0.99    1.58
   0  -1 -15    1.60    1.37
   0  -1  15   -1.56    2.80
   0   1  16    3.77    2.83
   0   1 -16   -1.54    1.51
   0  -1  16    1.73    1.84
   0  -1 -16    1.83    1.30
   0   1 -16    1.28    1.74
   0  -1 -16    1.55    1.67
   0  -1  17   17.30    3.51
   0  -1 -17   15.72    3.27
   0   1 -17   17.14    3.01
   0   1  17   18.83    3.99
   0  -1 -17   14.10    2.87
   0  -1  17   22.62    4.66
   0   1 -17   17.17    3.69
   0   1  18    3.94    2.58
   0  -1 -18   -1.46    1.56
   0   1 -18   -1.46    1.78
   0   1 -18    0.18    1.25
   0  -1 -18   -2.89    1.97
   0  -1  18    0.22    1.54
   0  -1  18   -0.15    1.55
   0   1 -19   -2.26    2.21
   0  -1 -19   -1.37    1.88
   0  -1  19    0.45    2.33
   0  -1  19   -0.84    2.14
   0  -1 -19    1.72    1.58
   0   1  19    0.72    2.15
   0   1 -19    1.80    1.38
   0  -1 -20    0.81    1.80
   0  -1 -20   -1.58    1.81
   0   1 -20    3.63    2.28
   0   1  20    1.58    2.69
   0  -1  20   -3.07    2.43
   0  -1  20   -1.61    2.39
   0   1 -21    3.06    2.16
   0  -1 -21    1.47    1.80
   0  -2   0    0.73    0.23
   0   2   0    1.48    0.32
   0  -2   0    0.88    0.24
   0  -2   0    0.94    0.26
   0   2   0    0.89    0.25
   0   2  -1    0.77    0.37
   0  -2   1    0.39    0.26
   0  -2   1    0.16    0.20
   0  -2   1    0.31    0.20
   0   2  -1    0.07    0.15
   0   2  -1    0.66    0.26
   0  -2  -1    0.34    0.23
   0   2   1    0.47    0.31
   0   2  -1   -0.05    0.39
   0  -2   1    0.52    0.40
   0   2   1    0.49    0.25
   0  -2  -1    0.52    0.35
   0   2   2   23.04    1.61
   0  -2   2   25.03    1.92
   0  -2   2   22.90    1.96
   0   2  -2   25.17    1.94
   0   2  -2   21.46    1.82
   0  -2   2   21.82    1.79
   0   2   2   23.01    1.22
   0   2  -2   22.97    1.87
   0   2  -2   21.13    1.38
   0  -2  -2   22.04    1.65
   0  -2   2   22.57    1.40
   0  -2  -2   20.49    1.13
   0  -2  -2   21.33    1.26
   0  -2   2   23.16    1.27
   0   2   2   23.52    1.31
   0   2   3   69.02    2.71
   0   2  -3   66.87    2.53
   0   2  -3   72.25    4.03
   0  -2  -3   65.29    2.29
   0  -2   3   69.23    3.85
   0  -2  -3   65.35    3.24
   0   2  -3   69.84    3.95
   0  -2  -3   60.04    2.51
   0   2   3   62.76    2.67
   0  -2   3   65.95    2.50
   0  -2   3   62.47    2.80
   0   2   4   42.35    2.69
   0  -2   4   41.92    2.60
   0  -2   4   41.28    3.59
   0   2  -4   44.36    3.57
   0   2  -4   41.77    3.61
   0  -2  -4   41.58    2.23
   0   2   4   44.76    2.49
   0   2  -4   42.45    2.28
   0  -2  -4   40.41    2.81
   0  -2  -5   36.47    2.52
   0  -2   5   35.30    2.80
   0   2  -5   36.82    3.73
   0  -2   5   35.60    3.65
   0   2  -5   35.06    2.37
   0  -2  -5   34.08    2.86
   0   2   5   39.61    3.09
   0   2  -5   35.70    3.62
   0   2   5   35.12    2.56
   0  -2  -6    3.31    1.00
   0  -2   6    0.85    0.82
   0   2  -6    3.14    1.62
   0  -2   6    5.26    2.20
   0   2   6    1.02    0.72
   0   2  -6    1.94    1.83
   0  -2  -6    3.41    0.83
   0   2  -6    3.17    0.96
   0  -2  -6    3.11    1.03
   0   2   6    3.47    1.35
   0   2  -7   29.76    2.76
   0  -2   7   35.11    4.40
   0   2  -7   35.82    4.21
   0  -2  -7   31.98    3.24
   0   2  -7   31.43    3.99
   0  -2   7   32.78    2.12
   0   2   7   28.15    3.35
   0  -2  -7   33.60    1.79
   0  -2  -7   29.15    2.91
   0   2   7   34.13    3.22
   0   2   8    7.70    2.03
   0   2  -8   12.46    3.03
   0  -2  -8   11.95    2.06
   0   2  -8   10.70    2.76
   0   2   8   13.23    0.88
   0   2  -8   10.91    1.88
   0  -2  -8   11.80    2.20
   0   2  -8   12.35    0.93
   0  -2   8    8.47    2.63
   0  -2   8   12.88    1.07
   0   2   8   11.01    2.15
   0   2  -9    5.88    1.66
   0  -2   9   11.16    3.13
   0   2   9    9.73    2.18
   0   2   9    4.66    2.03
   0  -2  -9    6.39    1.85
   0  -2  -9    6.15    1.71
   0   2  -9    9.34    2.76
   0   2  10    4.18    2.15
   0  -2  10    5.64    3.02
   0   2  10    4.30    1.93
   0  -2 -10    1.38    1.19
   0   2 -10    3.43    1.97
   0   2 -10    4.05    1.43
   0  -2 -10    5.02    1.73
   0   2 -11   34.53    3.69
   0   2  11   31.40    4.12
   0  -2 -11   34.97    4.08
   0  -2  11   32.13    4.91
   0   2  11   28.29    4.28
   0   2 -11   38.61    4.90
   0  -2 -11   34.91    3.99
   0   2  12    7.07    2.90
   0  -2  12    6.42    2.26
   0  -2 -12    8.64    2.30
   0   2 -12    6.49    2.72
   0   2  12    8.11    2.48
   0  -2 -12    5.16    1.94
   0  -2  12    7.14    3.32
   0   2 -12    7.36    1.99
   0   2 -13    1.87    1.42
   0  -2 -13   -1.46    1.73
   0  -2 -13    1.04    1.49
   0   2  13   -0.57    1.77
   0  -2  13   -0.74    1.59
   0   2 -13    2.21    1.49
   0   2  13    1.37    1.83
   0  -2  13    2.06    2.12
   0  -2 -14    3.04    1.89
   0  -2 -14    0.87    1.35
   0  -2  14    4.95    2.94
   0  -2  14    0.24    1.52
   0   2  14    5.42    2.50
   0   2 -14    1.95    1.41
   0   2 -14    3.16    1.83
   0  -2 -15   18.53    3.27
   0   2 -15   16.99    2.82
   0  -2 -15   15.45    3.26
   0  -2  15   16.82    3.37
   0  -2  15   15.06    3.85
   0   2 -15   14.31    3.31
   0   2  15   18.28    3.85
   0   2 -16    1.79    1.31
   0  -2  16    0.46    2.19
   0  -2 -16    2.23    1.79
   0  -2  16    2.53    1.70
   0   2 -16    2.02    1.87
   0   2  16    0.85    1.52
   0  -2 -16    0.86    1.73
   0  -2  17    6.16    3.12
   0  -2 -17   -0.91    1.61
   0  -2  17   -0.53    1.51
   0   2 -17    0.52    2.07
   0  -2 -17    1.13    1.45
   0   2 -17   -0.68    1.19
   0   2  17   -1.47    1.91
   0   2  18    0.14    1.66
   0  -2  18    0.18    2.00
   0   2 -18    3.32    2.02
   0  -2 -18    1.35    1.39
   0   2 -18   -1.62    1.50
   0  -2 -18    2.23    2.16
   0  -2  18    1.59    1.88
   0  -2  19    8.17    3.32
   0   2  19    5.82    2.72
   0  -2 -19    7.66    2.35
   0   2 -19   -0.28    1.83
   0  -2  19    5.69    2.60
   0  -2 -19    7.01    2.68
   0  -2  20    0.43    1.58
   0   2 -20   -1.46    2.05
   0  -2  20   -0.28    1.42
   0   2  20    0.93    2.07
   0  -2 -20    0.82    1.47
   0   3   0    0.02    0.24
   0  -3   0    0.11    0.31
   0   3   0    0.68    0.31
   0  -3   0    0.66    0.36
   0  -3   0    0.48    0.39
   0   3   0    0.05    0.34
   0  -3   1  117.17    4.07
   0  -3  -1   98.63    2.97
   0   3   1  102.46    3.32
   0  -3   1  102.32    3.26
   0   3  -1  111.61    3.49
   0   3   1  106.45    2.96
   0  -3   1  106.17    3.14
   0   3  -1  100.97    2.85
   0   3  -1  101.36    3.09
   0  -3  -1  108.06    3.51
   0  -3   1  104.68    2.98
   0   3  -2  944.87   17.08
   0  -3  -2  998.02   16.29
   0   3  -2  957.83   16.69
   0   3   2  989.99   14.69
   0  -3   2 1000.00   15.29
   0  -3   2  931.42   14.29
   0   3   2  991.65   14.16
   0   3  -3   27.94    2.51
   0  -3   3   32.00    1.86
   0   3   3   28.65    1.67
   0   3  -3   31.44    2.71
   0  -3   3   30.00    2.00
   0  -3  -3   27.43    2.26
   0   3   3   28.90    1.81
   0   3  -4  309.15    9.93
   0   3   4  312.97    7.49
   0  -3   4  316.44    9.75
   0   3  -4  328.36   10.12
   0  -3   4  303.02    7.84
   0  -3  -4  305.72    8.75
   0   3  -4  309.67    7.06
   0  -3  -4  311.37    6.66
   0   3   4  309.15    7.44
   0  -3   5   83.36    4.16
   0   3  -5   85.89    5.66
   0   3   5   82.93    3.88
   0   3   5   86.23    4.23
   0  -3   5   87.96    5.51
   0  -3  -5   87.13    4.58
   0  -3  -5   86.54    3.56
   0   3  -5   81.42    5.42
   0   3  -5   83.92    3.64
   0  -3   6  130.51    5.78
   0   3   6  130.11    5.45
   0   3  -6  124.71    7.40
   0  -3   6  131.53    7.57
   0   3  -6  134.66    7.57
   0  -3  -6  136.54    5.24
   0   3   6  135.72    6.12
   0   3  -6  130.93    5.04
   0  -3  -6  130.65    6.24
   0   3  -7   -0.99    1.93
   0   3  -7    3.86    2.14
   0   3   7    1.72    0.95
   0   3   7    1.62    1.29
   0   3  -7    2.79    1.00
   0  -3  -7    1.76    0.81
   0  -3  -7    2.99    1.46
   0  -3  -7    2.06    1.15
   0  -3   7   -2.03    2.27
   0  -3   7    0.85    1.12
   0   3   8  373.11   12.92
   0   3   8  416.85   12.28
   0  -3  -8  384.72    8.90
   0  -3  -8  369.50   11.53
   0   3  -8  368.91   14.69
   0   3  -8  379.48   10.77
   0  -3  -8  391.75   12.72
   0  -3   8  377.54    9.94
   0  -3   8  381.53   11.86
   0   3  -8  381.69   14.83
   0  -3   8  364.98   14.71
   0  -3  -9   38.97    3.84
   0  -3   9   39.99    2.51
   0  -3  -9   39.98    4.12
   0   3  -9   34.19    4.66
   0  -3   9   40.59    5.17
   0  -3  -9   43.57    2.25
   0   3  -9   27.24    4.17
   0   3  -9   38.41    3.35
   0   3   9   36.07    4.28
   0   3   9   43.17    4.20
   0  -3   9   37.48    3.91
   0  -3  10    8.64    3.78
   0   3 -10    6.24    0.72
   0  -3  10    5.86    1.95
   0  -3 -10    6.08    1.85
   0   3 -10    5.46    1.69
   0  -3 -10    7.47    0.71
   0  -3 -10    9.37    2.24
   0   3  10    8.05    0.78
   0   3 -10    5.45    2.29
   0   3 -10   11.16    3.38
   0   3  10    8.34    2.75
   0   3  10    5.88    2.09
   0  -3 -11    3.85    1.61
   0   3 -11    5.50    2.83
   0  -3  11    5.91    2.07
   0  -3  11    6.13    3.22
   0   3  11    1.92    1.85
   0   3 -11    2.26    1.19
   0  -3 -11    5.37    1.91
   0   3  11    3.62    1.91
   0  -3  12  100.97    7.05
   0  -3 -12   89.04    6.66
   0   3 -12   94.41    8.01
   0   3  12   88.17    7.59
   0  -3  12  102.84    8.77
   0   3 -12   93.08    6.12
   0  -3 -12  101.41    7.07
   0   3  12   99.58    7.45
   0  -3 -13    3.86    1.88
   0   3 -13    3.32    2.18
   0  -3  13    3.20    1.73
   0   3 -13    4.32    1.70
   0  -3 -13    2.25    1.72
   0  -3  13    6.87    3.04
   0   3  13    4.31    2.51
   0   3  13    0.77    2.13
   0   3  14   40.92    5.63
   0  -3 -14   47.52    5.11
   0  -3  14   46.20    5.20
   0  -3 -14   42.93    4.86
   0  -3  14   41.49    5.85
   0   3 -14   44.58    5.57
   0   3 -14   41.03    4.39
   0   3  14   49.81    5.68
   0  -3  15    5.26    2.14
   0   3  15    3.26    2.49
   0   3 -15    7.00    2.54
   0   3 -15    2.94    1.48
   0   3  15    4.09    2.36
   0  -3 -15    5.52    2.22
   0  -3 -15    4.33    1.86
   0  -3  15    2.31    1.96
   0  -3 -16   -1.27    1.60
   0   3 -16    2.58    1.47
   0   3  16    4.26    2.39
   0  -3  16    2.84    1.64
   0   3 -16    0.90    1.86
   0  -3  16    1.56    1.89
   0  -3 -16   -2.29    1.84
   0   3  17    4.36    2.46
   0   3 -17   -0.34    1.81
   0  -3  17   -1.11    2.31
   0   3 -17    0.55    1.20
   0  -3 -17    1.02    1.52
   0  -3  17   -4.16    2.29
   0  -3 -17   -1.59    1.38
   0  -3  18   20.94    4.56
   0  -3  18   10.32    2.97
   0   3 -18   16.54    3.66
   0  -3 -18   20.26    3.68
   0  -3 -18   14.95    3.22
   0   3  18   20.09    4.41
   0  -3  19    3.09    2.66
   0   3  19    3.99    2.76
   0  -3  19   -0.55    1.40
   0  -3 -19   -1.58    1.51
   0   3 -19    1.36    2.03
   0  -3  20   -0.06    1.73
   0   3 -20    2.76    2.13
   0   3  20    4.00    2.89
   0  -3 -20    1.50    1.65
   0  -3 -21    1.39    1.50
   0  -4   0    2.53    0.72
   0  -4   0    2.67    0.54
   0   4   0    1.64    0.54
   0  -4   0    2.60    0.65
   0  -4   1  214.53    5.15
   0  -4   1  216.48    5.28
   0   4  -1  216.34    5.55
   0  -4  -1  201.77    5.62
   0   4   1  205.67    4.56
   0   4   1  212.67    5.05
   0   4   2    0.60    0.42
   0  -4   2    1.41    0.48
   0   4  -2    0.71    0.75
   0  -4  -2    0.00    0.61
   0  -4   2    0.33    0.52
   0   4  -3  629.98   13.83
   0  -4   3  608.97   11.73
   0  -4  -3  579.87   12.88
   0   4   3  617.52   10.60
   0   4   3  616.04   11.17
   0  -4   3  611.81   10.67
   0   4  -3  583.80   13.80
   0   4  -4   10.08    1.96
   0   4  -4   10.51    2.06
   0   4   4   11.48    1.28
   0  -4   4   10.01    1.42
   0  -4  -4    9.70    1.68
   0   4   4   10.11    1.29
   0   4  -5   -1.09    1.58
   0   4  -5    1.58    1.32
   0  -4   5    0.04    0.76
   0  -4  -5    0.45    0.51
   0   4   5   -0.43    0.68
   0  -4   5   -0.43    1.26
   0  -4  -5    2.53    1.42
   0   4   5   -0.23    0.59
   0   4  -6   -0.99    1.61
   0   4  -6    1.29    0.64
   0   4  -6    2.17    1.53
   0  -4  -6    2.19    0.77
   0  -4   6    2.92    1.84
   0   4   6    2.52    0.97
   0  -4  -6    3.09    1.37
   0   4   6    3.95    1.12
   0  -4   6    0.39    0.86
   0  -4  -7  290.62    8.54
   0   4  -7  282.85   12.24
   0  -4   7  282.44   11.93
   0   4  -7  285.34    8.37
   0   4   7  274.69    8.99
   0  -4  -7  293.23   10.59
   0   4  -7  307.04   12.51
   0   4   7  287.61    9.76
   0  -4   7  294.07    9.65
   0   4   8   15.95    2.23
   0  -4  -8   16.68    2.16
   0  -4   8   16.35    3.34
   0   4   8   13.60    2.38
   0   4  -8   21.33    3.74
   0  -4   8   19.55    2.71
   0   4  -8   19.71    3.57
   0  -4  -8   18.79    2.43
   0   4  -8   19.85    2.22
   0  -4  -8   17.84    2.76
   0  -4   8   17.43    2.58
   0  -4  -9  129.05    7.76
   0   4  -9  107.11    8.29
   0   4   9  121.10    7.42
   0  -4   9  116.58    8.50
   0  -4  -9  131.47    5.47
   0  -4  -9  125.28    6.61
   0   4  -9  116.86    8.50
   0   4   9  134.17    7.12
   0  -4   9  123.98    5.97
   0  -4   9  112.79    6.66
   0   4  -9  115.99    5.80
   0  -4 -10    1.33    0.71
   0  -4  10    0.61    2.46
   0  -4 -10    0.41    1.49
   0   4 -10    2.07    2.73
   0   4  10    1.49    1.52
   0   4  10    0.68    1.40
   0   4 -10    1.79    2.40
   0  -4  10   -1.10    1.58
   0  -4  10   -1.04    0.96
   0  -4 -10    1.69    1.30
   0   4 -10   -0.42    0.99
   0   4 -11   53.99    4.41
   0   4 -11   60.31    6.63
   0   4  11   57.89    5.75
   0  -4  11   60.75    5.27
   0   4 -11   59.01    6.55
   0  -4 -11   62.04    5.73
   0  -4 -11   62.56    5.29
   0  -4  11   61.95    6.99
   0   4  11   57.25    5.37
   0  -4 -12    9.36    2.44
   0   4  12    9.84    2.58
   0   4  12   12.74    3.10
   0  -4 -12   11.21    2.38
   0  -4  12   13.40    3.90
   0   4 -12   10.51    2.17
   0   4 -12   13.92    3.67
   0  -4  12    7.35    2.37
   0  -4 -13   38.50    4.49
   0  -4  13   33.48    4.41
   0   4  13   41.49    5.08
   0   4 -13   36.91    3.91
   0  -4  13   41.09    5.84
   0   4 -13   43.06    5.81
   0   4  13   43.03    5.44
   0  -4 -13   36.21    4.54
   0   4  14    0.99    1.74
   0   4  14    1.43    1.82
   0  -4 -14    3.18    1.65
   0  -4 -14    1.25    1.80
   0  -4  14    1.94    2.26
   0  -4  14   -0.28    1.53
   0   4 -14    6.58    2.83
   0   4 -14    1.82    1.09
   0   4  15    7.02    2.72
   0  -4 -15    0.79    1.50
   0   4  15    0.88    1.88
   0   4 -15    4.81    1.89
   0  -4  15    3.77    2.48
   0  -4  15    2.89    1.69
   0  -4 -15    2.95    1.71
   0   4 -15    2.81    2.22
   0  -4  16    1.57    1.73
   0  -4  16   -0.89    2.17
   0  -4 -16   -0.67    1.55
   0   4  16    1.97    2.24
   0   4  16    1.26    1.81
   0  -4 -16    4.81    2.06
   0   4 -16    1.65    1.91
   0   4 -16    1.09    1.47
   0   4  17    7.12    2.89
   0   4 -17    7.78    2.62
   0  -4  17   12.92    3.32
   0  -4 -17    6.26    2.36
   0  -4 -17    5.91    2.27
   0  -4  17    7.39    3.37
   0  -4 -18    0.80    1.40
   0   4 -18    0.37    2.06
   0   4  18    0.87    2.15
   0  -4  18   -2.33    2.28
   0  -4  18    0.93    2.17
   0  -4  19    6.39    2.78
   0  -4  19    1.98    2.07
   0   4 -19    1.49    2.15
   0   4  19    4.78    2.33
   0  -4 -19    2.31    1.94
   0  -4 -20    0.96    1.47
   0   4  20    0.41    1.76
   0   4 -20   -0.30    1.54
   0  -5   0    0.31    0.50
   0   5   0    0.10    0.47
   0   5   0    0.59    0.47
   0  -5   0    0.21    0.58
   0  -5  -1   37.08    2.49
   0   5  -1   39.16    2.38
   0  -5   1   39.35    2.27
   0   5   1   39.66    2.17
   0  -5  -1   38.46    2.25
   0   5   1   39.59    1.97
   0  -5   1   34.29    2.13
   0   5   2   92.51    3.51
   0   5  -2   88.39    4.21
   0  -5   2   92.45    3.72
   0  -5   2   92.74    3.47
   0  -5  -2   95.66    4.32
   0   5  -3    3.13    1.12
   0  -5  -3    2.32    0.89
   0   5   3    2.55    0.67
   0  -5   3    2.73    0.85
   0   5   3    2.79    0.64
   0  -5   3    3.15    0.72
   0  -5  -4   35.80    3.10
   0   5  -4   37.71    3.51
   0  -5   4   37.41    2.67
   0  -5   4   36.61    2.24
   0  -5  -4   36.49    1.32
   0   5  -4   36.87    3.51
   0   5   4   36.67    2.24
   0   5   4   35.89    2.42
   0   5   5   67.00    3.62
   0  -5   5   68.42    3.91
   0   5  -5   72.90    5.25
   0   5  -5   70.14    5.20
   0   5   5   63.93    3.39
   0  -5  -5   69.08    4.70
   0   5   6  110.65    5.08
   0  -5  -6  120.62    6.51
   0   5  -6  112.91    7.09
   0  -5   6  104.54    5.28
   0  -5  -6  109.48    4.29
   0   5  -6  106.65    6.80
   0   5   6  109.87    5.04
   0   5   7    0.49    1.00
   0   5  -7    2.96    1.95
   0   5  -7    1.47    1.85
   0   5   7   -0.42    1.04
   0  -5  -7   -0.66    0.74
   0  -5   7   -0.02    1.12
   0  -5  -7    0.18    1.23
   0  -5  -8   16.21    2.16
   0   5   8   15.14    2.34
   0   5   8   16.15    2.59
   0   5  -8   12.61    1.80
   0   5  -8   14.45    3.17
   0  -5   8   13.07    3.11
   0  -5   8   14.99    2.46
   0  -5  -8   12.54    2.49
   0   5  -8   15.62    3.31
   0   5   9   21.07    2.82
   0  -5   9   22.41    3.01
   0  -5   9   20.51    2.87
   0   5  -9   20.20    2.37
   0   5  -9   18.99    3.84
   0  -5  -9   19.95    2.60
   0   5  -9   25.04    4.31
   0  -5   9   23.11    4.11
   0  -5  -9   21.78    3.54
   0  -5  -9   23.50    2.83
   0   5   9   20.37    3.16
   0   5  10   47.80    5.02
   0   5 -10   37.29    3.40
   0   5  10   47.02    4.57
   0  -5 -10   36.42    4.45
   0   5 -10   45.06    5.89
   0  -5  10   33.84    5.12
   0  -5  10   38.48    3.53
   0   5 -10   36.73    5.23
   0  -5  10   39.02    4.14
   0  -5 -10   39.32    3.93
   0  -5 -10   41.45    3.33
   0  -5  11   -0.08    0.80
   0   5  11   -0.29    1.45
   0   5  11   -1.65    1.96
   0  -5 -11    0.12    0.65
   0   5 -11    0.84    1.08
   0  -5  11    2.50    1.39
   0  -5  11   -2.30    3.07
   0   5 -11   -1.74    2.46
   0  -5 -11    2.02    2.09
   0  -5 -11    1.77    1.38
   0  -5 -12   19.55    3.14
   0   5 -12   15.27    2.49
   0  -5  12   15.41    2.97
   0  -5  12   23.54    4.68
   0  -5 -12   16.00    3.32
   0   5 -12   18.65    4.16
   0   5  12   13.61    2.93
   0   5 -12   18.28    3.72
   0   5  12   16.10    3.08
   0  -5 -13    3.17    1.61
   0   5 -13    4.97    2.37
   0  -5  13    6.30    3.22
   0   5  13    7.50    2.59
   0   5 -13    5.06    1.65
   0   5  13    2.76    1.90
   0  -5 -13    5.85    1.93
   0  -5  13    8.24    2.69
   0   5  14   17.33    3.63
   0  -5  14   12.52    3.73
   0   5 -14   13.39    2.46
   0   5 -14   16.24    4.01
   0  -5  14   15.28    3.18
   0   5  14   12.52    3.46
   0  -5 -14   10.95    2.81
   0  -5 -14   12.18    2.82
   0   5  15    0.76    1.78
   0   5 -15   -1.66    2.58
   0  -5  15    4.21    2.27
   0   5  15    1.25    2.12
   0   5 -15    2.17    1.51
   0  -5 -15    0.00    1.34
   0  -5 -15   -1.49    1.88
   0  -5  15    4.04    2.36
   0   5  16   10.09    3.17
   0   5  16    7.91    2.97
   0  -5  16    6.77    2.68
   0   5 -16   12.96    3.60
   0  -5  16    4.95    2.16
   0  -5 -16    4.67    2.10
   0  -5 -16    9.32    2.55
   0   5  17    0.89    2.09
   0   5 -17   -3.94    2.80
   0  -5  17   -0.77    2.15
   0  -5 -17    2.08    2.37
   0   5  18    3.49    2.19
   0  -5 -18   -3.55    2.50
   0   5 -18    2.30    2.22
   0  -5  18    1.78    1.93
   0   5  19    1.99    2.09
   0  -5  19   -0.80    1.54
   0   5 -19   -2.39    2.36
   0  -5 -19   -0.69    1.86
   0  -5 -20    4.33    2.32
   0   5  20    5.92    2.85
   0  -6   0   44.13    2.61
   0   6   0   48.82    2.70
   0  -6   0   45.72    2.85
   0   6   0   45.86    2.56
   0  -6   1    9.45    1.28
   0  -6   1   11.75    1.40
   0   6   1   10.21    1.29
   0   6   1   10.55    0.73
   0   6  -1   10.68    1.39
   0   6   1   10.15    1.12
   0  -6  -1   11.68    1.55
   0  -6  -1   10.28    1.27
   0  -6   2   45.95    2.80
   0   6   2   51.20    2.80
   0   6  -2   47.81    3.24
   0  -6   2   52.47    2.83
   0   6   2   47.26    2.35
   0  -6  -2   53.70    3.48
   0   6   3   78.23    3.64
   0   6  -3   77.69    4.62
   0  -6   3   78.09    3.91
   0  -6  -3   81.59    4.53
   0  -6   3   85.41    3.65
   0  -6   4   32.16    2.63
   0   6   4   30.76    2.36
   0  -6  -4   32.57    3.13
   0   6   4   30.69    2.12
   0  -6   4   28.06    2.11
   0   6  -4   30.21    3.20
   0  -6  -5    0.48    0.25
   0  -6  -5    0.25    1.22
   0  -6   5    0.51    0.75
   0   6  -5    1.66    1.57
   0   6   5    0.34    0.49
   0   6   5    1.16    0.85
   0  -6   5    0.60    0.60
   0   6  -5    1.13    1.46
   0  -6   6   73.75    4.45
   0   6  -6   73.76    5.83
   0  -6  -6   75.69    5.34
   0   6  -6   77.26    6.07
   0   6   6   81.77    4.37
   0  -6  -6   77.50    3.08
   0   6   6   76.49    4.14
   0  -6  -7   34.20    3.85
   0   6   7   31.58    2.99
   0   6   7   31.96    2.95
   0  -6   7   30.19    3.03
   0   6  -7   34.40    4.57
   0  -6  -7   33.19    2.60
   0   6  -7   32.29    4.34
   0   6   8   10.92    2.02
   0  -6  -8   13.00    2.65
   0   6  -8   10.71    3.14
   0   6   8   12.96    2.27
   0  -6  -8    8.82    1.54
   0   6  -8    8.27    2.98
   0  -6   8    9.01    1.92
   0   6  -9   13.77    3.35
   0  -6  -9   17.44    3.20
   0  -6  -9   11.94    2.33
   0   6  -9   14.82    3.76
   0   6   9   13.38    2.57
   0  -6  -9   13.01    2.24
   0   6   9   15.33    2.52
   0  -6   9   10.34    2.25
   0  -6   9   11.64    2.46
   0  -6  10   52.78    4.73
   0   6  10   53.91    4.76
   0   6  10   54.57    5.34
   0   6 -10   52.40    6.22
   0  -6 -10   61.31    5.96
   0  -6 -10   57.72    4.58
   0  -6 -10   58.57    4.70
   0   6 -10   57.21    6.88
   0  -6  10   57.18    4.93
   0   6 -11   17.62    2.47
   0  -6 -11   16.15    2.25
   0  -6  11   20.25    3.26
   0   6 -11   15.83    3.76
   0  -6 -11   18.54    2.91
   0   6  11   17.46    3.16
   0  -6  11   18.58    2.63
   0  -6 -11   18.83    3.60
   0   6 -11   19.37    4.47
   0   6  11   13.35    2.64
   0  -6 -12   10.92    2.37
   0  -6  12   11.32    2.83
   0   6 -12   10.59    3.54
   0   6  12    7.50    2.33
   0   6  12    7.45    2.49
   0   6 -12   10.51    2.11
   0  -6 -12   10.39    2.84
   0   6 -12    4.10    2.10
   0  -6 -13    0.98    1.90
   0   6 -13    2.64    2.39
   0   6  13    0.59    1.60
   0   6 -13    0.06    0.89
   0   6  13    2.73    2.05
   0  -6 -13    0.22    1.41
   0  -6  13   -0.22    1.82
   0   6 -13    2.04    2.67
   0   6  14    0.39    1.67
   0  -6 -14   -1.34    2.22
   0  -6 -14   -0.35    1.26
   0   6  14   -1.58    1.50
   0   6 -14   -0.33    0.99
   0   6 -14   -3.75    3.07
   0  -6  14   -2.46    1.99
   0   6 -15   -1.82    1.47
   0  -6 -15    0.38    1.34
   0   6 -15   -0.41    1.55
   0   6  15    1.60    1.75
   0   6  15   -2.22    2.30
   0  -6  15   -2.58    1.82
   0   6 -16    6.35    2.64
   0  -6  16    7.98    2.54
   0   6  16    8.91    3.19
   0  -6 -16   13.94    3.24
   0   6  16   17.87    3.98
   0   6  17    2.95    2.00
   0   6 -17    0.46    2.25
   0  -6  17    4.67    2.51
   0  -6 -17    2.77    2.16
   0   6  17    2.64    2.12
   0   6  18   -1.70    2.09
   0  -6  18    2.91    2.09
   0   6  18   -0.19    2.02
   0   6 -18    0.59    2.45
   0  -6 -18    2.68    1.84
   0  -6  19    1.77    2.15
   0   6  19    4.14    2.33
   0  -6 -19    0.76    1.77
   0   6 -19   -0.50    1.97
   0   6  20   -5.87    3.23
   0  -7   0    0.36    0.79
   0   7   0    0.72    0.65
   0  -7   0    0.65    0.78
   0   7   0    0.04    0.61
   0  -7  -1  558.63   11.94
   0  -7  -1  563.28   13.02
   0   7   1  558.07   11.13
   0  -7   1  539.95   12.03
   0   7   1  573.00    8.75
   0   7  -1  553.86   12.22
   0   7   1  579.62   11.79
   0  -7   1  544.31   11.86
   0   7   2   59.35    3.29
   0   7   2   59.53    2.87
   0   7  -2   59.10    3.76
   0  -7   2   57.05    3.34
   0  -7  -2   59.46    3.88
   0  -7   2   63.01    3.41
   0   7   3  133.11    4.43
   0  -7  -3  131.00    6.22
   0  -7   3  136.00    5.52
   0  -7   3  136.27    5.13
   0   7  -3  131.47    6.31
   0   7   3  129.74    5.11
   0  -7   4   17.73    1.84
   0   7   4   19.47    2.00
   0  -7   4   20.62    2.20
   0  -7  -4   18.07    2.52
   0   7   4   19.72    1.80
   0   7  -4   18.95    2.73
   0   7   5  464.43   11.21
   0  -7   5  429.06   10.28
   0   7   5  446.34   10.27
   0  -7  -5  450.09   13.60
   0   7  -5  467.67   14.49
   0  -7   5  438.86   11.65
   0   7   6    3.32    1.06
   0  -7   6    3.07    0.95
   0  -7   6    2.38    1.12
   0   7  -6    3.61    1.95
   0  -7  -6    5.56    2.07
   0   7   6    2.77    1.06
   0  -7  -6    3.29    0.37
   0   7  -7   38.64    4.86
   0   7   7   32.86    3.00
   0  -7   7   32.38    2.69
   0   7  -7   30.49    4.10
   0  -7   7   30.10    3.15
   0  -7  -7   36.26    4.18
   0  -7  -7   33.68    1.84
   0  -7  -7   37.27    2.71
   0   7   7   32.32    3.01
   0  -7   8   24.59    3.06
   0   7  -8   23.80    4.18
   0   7   8   26.25    2.99
   0  -7  -8   27.00    3.69
   0   7  -8   25.57    4.29
   0  -7  -8   24.28    2.09
   0   7   8   23.60    2.89
   0  -7  -8   21.48    2.22
   0   7  -9  159.07   10.34
   0  -7  -9  160.75    9.28
   0  -7   9  157.21    7.96
   0   7  -9  150.26   10.47
   0  -7  -9  170.65    9.42
   0   7   9  163.28    8.14
   0   7   9  161.47    7.64
   0  -7  -9  177.82    7.22
   0  -7  -9  157.28    6.53
   0   7  10    1.67    1.15
   0  -7 -10    1.94    1.01
   0  -7  10    3.90    1.77
   0  -7  10    3.89    1.83
   0  -7 -10    3.36    1.93
   0   7 -10   -0.03    2.27
   0  -7 -10    2.36    1.04
   0  -7 -10    1.80    1.34
   0   7 -10    5.94    2.85
   0   7  10    4.48    1.90
   0  -7 -11   90.32    6.13
   0  -7 -11   71.30    5.12
   0  -7  11   85.09    6.52
   0   7 -11   85.04    7.91
   0  -7 -11   95.79    7.79
   0   7  11   90.44    6.48
   0   7 -11   83.43    8.03
   0   7  11   80.89    6.57
   0  -7  11   85.63    6.03
   0  -7 -11   98.35    6.24
   0   7  12    3.32    1.85
   0   7 -12   -0.71    2.49
   0  -7 -12    4.20    2.15
   0  -7 -12    5.22    1.77
   0   7  12    5.26    2.09
   0  -7  12    1.53    1.57
   0   7  13    5.26    2.10
   0  -7 -13    7.49    2.83
   0   7  13    6.23    2.47
   0  -7 -13    5.74    2.06
   0   7 -13    9.74    3.41
   0  -7  13    3.84    1.94
   0   7 -13    4.02    2.65
   0  -7 -14    6.71    2.74
   0  -7  14    5.13    2.35
   0   7  14    5.02    2.26
   0   7  14    4.14    2.10
   0   7 -14    9.40    3.35
   0  -7  15   28.80    4.43
   0  -7 -15   37.84    5.40
   0   7  15   37.58    5.34
   0   7  15   32.48    4.97
   0   7 -15   39.05    6.32
   0   7  16   -2.37    2.16
   0  -7  16    2.01    1.93
   0   7  16    1.32    2.09
   0  -7 -16    0.03    2.00
   0   7 -16   -0.44    2.10
   0   7 -17    0.96    1.74
   0   7  17    5.27    2.83
   0  -7  17    3.26    2.34
   0   7  17    2.75    2.02
   0  -7 -17    5.04    2.83
   0  -7 -18    6.13    2.59
   0  -7  18    0.98    2.01
   0   7  18   -2.30    2.49
   0   7  18    0.02    1.89
   0   7 -18    0.81    1.91
   0  -7  19    3.94    2.42
   0   7  19    0.97    1.66
   0   7  19    6.39    2.82
   0  -8   0    0.35    0.82
   0  -8   0    0.85    0.78
   0   8   0    0.54    0.64
   0   8   0    0.78    0.90
   0   8   1    0.58    0.26
   0   8  -1    0.03    0.83
   0   8   1    0.20    0.64
   0  -8  -1    0.37    0.93
   0   8   1    0.20    0.66
   0  -8   1    0.37    0.74
   0  -8   1    0.18    0.74
   0   8  -2    0.29    0.90
   0   8   2    0.72    0.75
   0   8   2    1.15    0.59
   0  -8   2    1.62    0.91
   0  -8  -2    0.93    1.19
   0  -8   2    0.73    0.77
   0  -8   3    3.24    0.85
   0  -8  -3    5.22    1.67
   0   8   3    4.78    1.28
   0  -8   3    4.35    1.23
   0   8   3    6.10    1.07
   0   8  -3    4.63    1.48
   0   8   4    4.40    0.98
   0  -8   4    3.88    1.34
   0   8  -4    3.89    1.78
   0  -8   4    2.61    0.91
   0   8   4    2.70    0.98
   0  -8  -4    3.88    1.54
   0  -8  -5    2.26    1.64
   0   8  -5    6.91    2.07
   0   8   5    5.86    1.19
   0  -8   5    3.93    1.38
   0  -8   5    3.97    1.08
   0   8   5    5.39    1.38
   0   8  -6    5.30    2.46
   0  -8   6    1.46    1.06
   0   8   6    1.74    0.97
   0  -8   6    1.83    0.95
   0   8   6    2.56    1.24
   0  -8  -6    0.20    1.48
   0  -8  -7    1.51    1.85
   0   8  -7    0.27    2.05
   0  -8   7   -1.02    1.30
   0  -8   7   -0.23    0.87
   0   8   7    0.51    1.08
   0   8   7    1.32    0.91
   0  -8  -8    7.94    1.39
   0  -8   8    5.87    1.31
   0   8  -8    6.59    2.62
   0  -8  -8    9.33    2.54
   0   8   8    8.62    1.91
   0  -8  -8    8.79    0.85
   0  -8   8   10.39    2.24
   0   8   8    8.09    1.87
   0   8  -9    9.20    3.15
   0   8   9    7.33    1.80
   0  -8  -9    7.65    1.52
   0  -8  -9    7.63    2.32
   0   8   9    6.52    1.69
   0   8  -9    5.85    2.68
   0  -8   9    5.52    1.72
   0  -8   9    6.40    1.46
   0   8  10    0.77    1.18
   0  -8 -10    0.98    1.05
   0  -8  10    1.73    1.39
   0   8 -10    2.19    2.18
   0  -8 -10    0.98    1.80
   0  -8  10    1.21    1.40
   0   8 -10   -0.60    2.41
   0  -8 -10    0.92    1.55
   0   8  10   -0.02    1.33
   0   8 -11    1.57    2.10
   0   8 -11   -1.05    2.65
   0   8  11    2.38    1.93
   0  -8 -11    1.89    2.17
   0  -8  11    1.76    1.71
   0  -8 -11    1.80    1.56
   0  -8  11   -0.45    1.48
   0   8  11    1.95    1.41
   0  -8 -11    2.41    1.33
   0   8 -12    4.11    3.10
   0   8  12    5.33    2.26
   0  -8  12    3.04    1.80
   0   8 -12    1.06    1.99
   0   8  12    3.66    1.92
   0  -8 -12    2.09    1.40
   0  -8 -12   -0.93    1.82
   0   8 -13    7.19    3.41
   0   8 -13   -0.80    2.54
   0   8  13    1.17    1.56
   0   8  13    2.87    1.80
   0  -8  13    0.81    1.66
   0  -8 -13    1.09    1.87
   0   8 -14    1.84    2.25
   0   8  14    1.37    1.67
   0  -8  14    1.86    1.90
   0  -8 -14    5.28    2.54
   0   8  14    6.89    2.59
   0   8 -14   -1.62    2.78
   0   8  15    0.99    1.37
   0   8  15   -0.14    1.92
   0  -8  15    0.43    1.88
   0   8 -15    3.50    2.70
   0  -8 -15    4.32    2.16
   0   8  16    6.27    2.93
   0   8  16   -2.59    2.31
   0  -8  16    3.78    2.11
   0  -8 -16    4.74    2.45
   0   8 -16    5.56    3.42
   0   8  17   -2.71    2.86
   0   8 -17   -4.98    3.64
   0  -8  17   -4.64    2.51
   0  -8 -17   -0.56    1.98
   0   8  17    3.03    2.34
   0   8  18   -0.32    2.52
   0  -8  18   -1.10    2.10
   0  -8 -18   -1.26    2.49
   0   9   0    0.08    0.66
   0  -9   0    0.12    0.85
   0  -9   0    0.52    1.19
   0   9   0   -0.87    0.91
   0   9   0    0.66    0.84
   0  -9  -1   10.59    1.93
   0   9   1    9.20    0.80
   0  -9   1    9.99    1.83
   0   9  -1    8.65    1.56
   0  -9   1    8.36    1.60
   0   9   1    8.21    1.53
   0   9  -1    8.28    1.58
   0   9   1    8.70    1.42
   0  -9   2   20.16    2.33
   0   9   2   19.46    1.97
   0   9  -2   16.62    2.34
   0  -9  -2   21.62    2.88
   0  -9   2   19.99    2.31
   0   9   2   20.80    2.30
   0  -9   3    4.84    1.38
   0  -9   3    5.88    1.40
   0   9   3    5.19    1.09
   0  -9  -3    6.58    1.73
   0   9  -3    4.13    1.61
   0   9   3    6.08    1.35
   0   9   4    0.65    0.67
   0  -9   4   -0.55    0.76
   0   9   4    0.18    0.92
   0  -9  -4    0.17    1.34
   0   9   4    0.18    0.67
   0  -9   4    0.78    1.04
   0   9  -4   -2.28    1.75
   0   9   5    9.62    1.45
   0   9  -5   10.56    2.80
   0  -9   5   10.71    2.03
   0  -9  -5   10.46    2.42
   0  -9   5    9.26    1.60
   0   9   5   10.60    1.87
   0  -9   6   24.33    2.94
   0   9   6   25.33    2.79
   0   9   6   20.04    2.26
   0  -9   6   23.36    2.49
   0   9  -6   25.73    3.89
   0  -9  -6   26.42    3.76
   0  -9   7    5.33    1.43
   0   9   7    4.26    1.27
   0  -9  -7    6.69    2.69
   0   9   7    5.88    1.63
   0   9  -7    8.75    2.94
   0  -9   7    5.81    1.95
   0  -9  -8   -0.80    0.80
   0  -9  -8   -1.25    1.73
   0  -9   8   -1.92    1.59
   0   9   8    1.00    1.13
   0  -9   8    0.68    0.85
   0   9   8   -0.73    1.01
   0   9   9    6.43    1.80
   0  -9  -9    5.63    1.34
   0   9   9    5.30    1.68
   0  -9  -9    4.91    2.14
   0  -9   9    5.23    1.76
   0   9  -9    5.08    2.62
   0  -9   9    5.86    1.50
   0   9 -10   11.79    4.01
   0  -9 -10   12.63    2.09
   0  -9  10   13.97    2.93
   0   9  10    9.90    2.31
   0  -9 -10   14.07    3.15
   0  -9  10   12.56    2.11
   0   9  10   10.37    2.12
   0  -9  10   13.81    2.66
   0  -9 -10    9.68    2.59
   0   9  11    1.19    1.28
   0   9 -11    0.99    2.06
   0  -9  11    1.76    1.39
   0  -9 -11    0.43    0.83
   0   9  11    0.54    1.24
   0  -9  11    0.56    0.79
   0  -9  11   -0.09    1.35
   0  -9 -11    1.40    2.09
   0  -9 -11    1.03    1.37
   0  -9 -12    5.18    2.67
   0   9  12    6.46    2.34
   0   9 -12    2.81    2.35
   0  -9  12    4.30    1.49
   0  -9  12    3.51    1.89
   0   9  12    1.80    1.45
   0  -9 -13   -0.24    2.33
   0  -9  13    1.19    1.72
   0   9  13    7.33    2.31
   0   9 -13    3.86    2.84
   0   9  13    1.52    1.50
   0  -9 -14    3.82    2.25
   0   9  14    2.83    2.11
   0  -9  14    4.96    2.23
   0   9  14    4.47    2.10
   0   9 -14    0.29    2.28
   0  -9  15   -1.70    2.19
   0   9  15   -0.67    1.80
   0  -9 -15   -1.80    1.75
   0   9  15   -1.70    1.43
   0   9  16    5.64    2.44
   0  -9 -16    3.76    2.89
   0   9  16   11.41    3.55
   0  -9  16    2.83    1.97
   0   9  17    6.66    2.99
   0  -9 -17    4.21    2.39
   0  -9  17    5.84    2.47
   0  -9  18    0.45    1.43
   0   9  18   -1.42    2.47
   0  -9 -18   -3.60    2.74
   0  10   0  172.72    6.90
   0 -10   0  173.58    7.09
   0 -10   0  182.07    7.90
   0  10   0  169.47    5.29
   0  10   0  183.65    7.06
   0  10   1  149.14    3.48
   0  10  -1  155.83    6.64
   0 -10  -1  148.62    7.28
   0 -10   1  155.49    6.69
   0  10  -1  146.71    6.65
   0 -10   1  158.46    7.09
   0  10   1  140.52    6.17
   0  10   1  146.26    6.09
   0  10  -2    3.67    1.50
   0 -10   2    4.95    1.56
   0  10   2    6.24    1.34
   0 -10   2    4.12    1.43
   0 -10  -2    4.19    1.61
   0  10   2    3.48    1.45
   0 -10   3  202.55    7.99
   0  10   3  193.71    6.70
   0 -10  -3  205.50    9.22
   0  10   3  193.12    7.51
   0 -10   3  211.93    8.06
   0  10  -3  195.67    8.82
   0  10   4   63.74    3.65
   0  10   4   69.24    4.48
   0 -10  -4   63.37    5.31
   0  10  -4   65.85    5.37
   0 -10   4   68.52    4.40
   0 -10   4   71.50    4.84
   0  10   4   66.70    3.80
   0  10   5   -0.19    0.71
   0  10   5   -0.26    0.68
   0 -10   5    0.75    1.11
   0  10  -5    2.93    2.15
   0 -10   5    0.35    0.81
   0 -10  -5   -0.48    1.42
   0  10   5    1.11    1.20
   0  10   6   51.65    4.13
   0 -10   6   45.94    3.62
   0  10   6   44.43    3.40
   0 -10   6   47.08    4.13
   0  10  -6   56.41    5.48
   0 -10  -6   51.52    5.21
   0  10   7  122.88    6.03
   0  10  -7  134.30    8.97
   0 -10  -7  131.35    8.52
   0 -10   7  127.37    6.94
   0 -10   7  127.57    6.12
   0  10   7  136.71    6.84
   0 -10  -8    8.31    2.41
   0  10  -8    7.95    2.59
   0  10   8    7.63    1.69
   0 -10   8    5.30    1.34
   0 -10   8    5.92    1.83
   0  10   8    8.52    1.72
   0  10   9   25.12    3.09
   0  10  -9   28.77    4.71
   0  10   9   32.23    3.65
   0 -10   9   29.15    3.55
   0 -10  -9   28.14    2.79
   0 -10   9   24.31    2.81
   0 -10  -9   24.97    4.02
   0  10 -10   30.26    5.18
   0 -10 -10   22.00    4.13
   0 -10  10   21.28    3.24
   0  10  10   24.56    3.35
   0 -10 -10   24.88    4.21
   0  10  10   26.36    3.43
   0 -10  10   22.24    2.81
   0 -10  10   21.14    3.79
   0 -10 -11    4.43    1.90
   0  10 -11   13.67    3.63
   0  10  11   14.14    2.84
   0  10  11   13.64    2.54
   0 -10 -11   17.84    3.60
   0 -10  11   10.72    1.97
   0 -10  11   13.63    2.92
   0 -10  11   11.37    2.83
   0  10 -12    0.79    2.28
   0 -10 -12   -0.99    2.41
   0  10  12    3.51    1.72
   0 -10  12    3.80    1.77
   0  10  12    1.09    1.33
   0 -10 -13   35.89    5.69
   0  10  13   23.48    3.85
   0 -10  13   25.50    4.04
   0  10  13   29.67    4.46
   0  10 -13   34.12    6.06
   0 -10  14    1.86    1.37
   0  10  14    4.59    2.29
   0  10 -14    9.91    3.69
   0 -10 -14    7.51    2.72
   0  10  14    1.47    1.47
   0  10 -15   -1.89    2.69
   0 -10 -15    1.38    2.22
   0 -10  15   -0.40    1.76
   0  10  15   -1.19    1.73
   0 -10 -16    2.70    2.51
   0  10  16    3.42    2.65
   0 -10  16   -1.06    1.55
   0 -10 -17    1.65    1.79
   0 -10  17    0.10    1.82
   0  10  17    2.01    2.05
   0 -11   0    0.12    1.16
   0  11   0    0.69    0.56
   0 -11   0    0.16    1.03
   0  11   0    0.94    1.11
   0  11   0   -0.47    1.13
   0  11  -1    2.98    1.03
   0 -11   1    3.97    1.50
   0  11   1    3.53    1.18
   0 -11  -1    2.85    1.79
   0 -11   1    6.00    1.87
   0  11  -1    3.55    1.37
   0  11   1    3.76    1.34
   0  11  -1    3.56    1.47
   0 -11   2   31.64    3.20
   0  11  -2   32.79    3.55
   0  11   2   35.48    3.17
   0  11   2   29.30    2.76
   0 -11   2   30.47    3.30
   0 -11  -2   31.71    3.72
   0 -11  -3   -1.08    1.73
   0 -11   3   -0.07    0.98
   0  11   3    0.53    1.05
   0  11  -3    1.24    1.47
   0 -11   3    0.66    1.17
   0  11   3    0.85    0.71
   0  11   4   14.97    1.92
   0 -11   4   14.51    2.23
   0  11   4   14.74    1.93
   0  11  -4   19.01    3.09
   0  11   4   18.52    2.54
   0 -11   4   17.25    2.59
   0 -11  -4   18.28    3.29
   0  11   5    4.01    1.65
   0  11   5    5.41    1.28
   0 -11  -5    2.94    1.67
   0 -11   5    2.71    1.36
   0  11   5    3.39    1.09
   0  11  -5    3.68    1.55
   0 -11   5    3.40    1.34
   0  11   6    9.05    1.55
   0  11  -6   15.52    3.40
   0 -11   6    6.23    1.51
   0  11   6    9.78    1.93
   0 -11  -6   10.38    2.84
   0 -11   6   10.96    2.19
   0  11   6    7.99    1.57
   0 -11  -7   10.86    2.69
   0 -11   7   11.46    2.00
   0  11   7    9.28    2.00
   0  11   7   10.87    1.89
   0 -11   7   10.36    2.27
   0  11   7   11.74    1.78
   0  11  -7    9.68    2.81
   0  11   8   27.12    3.05
   0 -11   8   26.44    2.95
   0  11  -8   26.11    4.34
   0 -11   8   28.71    3.56
   0 -11  -8   27.70    4.04
   0  11   8   35.48    3.79
   0 -11   9   -2.32    1.89
   0  11  -9    0.08    1.69
   0  11   9   -0.74    0.87
   0  11   9   -1.20    1.23
   0 -11  -9   -3.97    3.16
   0 -11  -9   -1.37    2.21
   0 -11   9    0.69    0.87
   0 -11 -10    0.34    1.67
   0 -11  10   -1.41    2.14
   0  11  10    0.42    1.39
   0 -11 -10   -2.32    2.39
   0  11  10    0.16    1.01
   0 -11  10    0.06    1.40
   0  11 -10    1.31    1.87
   0 -11 -11    6.68    2.51
   0 -11  11    1.05    1.41
   0  11 -11    7.34    3.00
   0  11  11    6.03    2.10
   0 -11 -11   11.37    3.29
   0 -11  11    4.81    2.08
   0  11  11    5.64    1.80
   0 -11  12    9.06    2.47
   0  11  12    7.11    2.08
   0 -11 -12    7.70    3.20
   0  11 -12    4.02    2.68
   0  11 -13    8.93    3.55
   0 -11  13    3.77    2.13
   0 -11 -13    3.40    2.46
   0  11  13    2.22    1.57
   0  11  14    1.12    1.93
   0 -11 -14   -0.02    1.69
   0 -11  14   -1.07    1.59
   0  11  15    2.30    1.91
   0  11 -15    0.84    2.10
   0 -11 -15    3.71    2.96
   0 -11  15   -0.10    1.75
   0  11  16   -0.86    1.66
   0 -11  16    0.49    1.58
   0 -11 -16    3.32    2.84
   0  11  17    2.02    2.17
   0 -11  17    2.28    2.29
   0  12   0    7.46    1.78
   0 -12   0    8.79    1.82
   0 -12   0    4.80    1.69
   0  12   0    5.85    1.64
   0 -12   1    7.06    2.07
   0  12  -1    4.18    1.38
   0 -12  -1    4.53    1.62
   0  12  -1    5.31    1.14
   0 -12   1    3.02    1.28
   0  12   1    3.00    1.30
   0  12   1    2.85    1.28
   0  12  -1    4.40    1.65
   0 -12   2    2.20    1.31
   0  12  -2    2.14    1.08
   0  12   2    0.27    1.15
   0 -12  -2    1.13    1.59
   0  12  -2    0.03    1.35
   0  12   2    0.19    0.79
   0 -12   2   -0.07    1.15
   0  12  -2    0.89    1.37
   0 -12   3   48.35    4.31
   0  12  -3   48.07    4.64
   0  12   3   49.45    4.10
   0  12   3   44.16    3.49
   0 -12  -3   46.60    4.83
   0 -12   3   47.16    4.17
   0  12   4    6.59    1.78
   0  12   4    5.86    1.35
   0 -12   4    5.58    1.70
   0  12  -4   10.58    2.61
   0 -12  -4    7.06    2.19
   0  12   4    5.77    1.41
   0 -12   4    7.74    1.70
   0  12  -5    3.42    2.20
   0  12   5    1.23    1.33
   0 -12   5    2.94    1.38
   0 -12  -5    4.01    2.11
   0  12   5    4.84    1.26
   0  12   5    4.65    1.31
   0 -12   5    4.04    1.43
   0 -12  -6    2.75    1.83
   0  12  -6   -1.28    2.03
   0  12   6    2.90    1.11
   0  12   6    4.54    1.56
   0  12   6    3.19    1.16
   0 -12   6    4.79    1.55
   0 -12   6    4.20    1.50
   0  12   7   23.94    3.09
   0 -12   7   24.51    3.37
   0  12  -7   26.12    4.35
   0 -12   7   21.23    2.76
   0 -12  -7   24.77    4.08
   0  12   7   22.38    2.64
   0  12   7   22.27    2.45
   0 -12  -8    0.93    1.87
   0  12   8    1.73    1.08
   0 -12   8    0.13    0.85
   0  12   8    1.57    1.57
   0 -12   8    4.53    1.66
   0  12   8    1.44    0.93
   0 -12   9   -1.17    2.19
   0 -12   9    0.24    1.38
   0 -12  -9    0.73    1.98
   0  12   9    0.90    1.36
   0  12   9   -0.25    0.88
   0  12  -9    0.75    1.67
   0 -12  -9   -0.89    2.14
   0 -12  10    3.66    1.83
   0 -12  10    0.82    1.60
   0  12  10    4.47    1.64
   0 -12 -10    2.62    2.27
   0 -12 -10    4.15    2.49
   0  12 -10    2.66    2.17
   0  12 -11   14.14    3.71
   0  12  11   16.03    2.98
   0 -12  11   17.07    3.26
   0 -12 -11   20.55    4.14
   0 -12  11   11.30    3.16
   0 -12 -12   -1.36    2.18
   0  12 -12    1.46    2.24
   0 -12  12    1.36    1.43
   0  12  12    2.12    1.57
   0 -12 -13   -0.65    2.36
   0 -12  13   -0.71    1.37
   0  12 -13    2.45    2.68
   0  12  13   -1.23    1.80
   0  12  14    1.02    1.61
   0 -12 -14    0.36    2.40
   0  12 -14   -0.19    2.97
   0 -12  14   -0.36    1.75
   0  12 -15   -1.01    2.32
   0 -12 -15    0.36    1.77
   0 -12  15    3.16    1.91
   0  12  15    4.84    2.46
   0  12  16   -0.64    1.71
   0 -12  16    6.16    2.74
   0  13   0   -0.14    1.14
   0  13   0   -1.75    1.44
   0 -13   0   -0.06    1.44
   0  13  -1    8.52    2.00
   0 -13  -1    9.80    2.48
   0  13   1    6.20    1.65
   0 -13   1   10.83    2.49
   0 -13   1    5.80    1.77
   0  13  -1    7.54    1.94
   0  13   1    6.44    1.83
   0 -13   2   22.66    3.11
   0  13  -2   17.21    2.72
   0  13   2   16.58    2.42
   0 -13   2   24.23    3.50
   0 -13  -2   25.12    3.71
   0  13   2   18.72    2.62
   0  13  -2   20.51    3.31
   0 -13   3    0.55    1.20
   0  13  -3    0.13    1.06
   0  13   3    0.28    0.86
   0  13  -3   -0.96    1.37
   0  13   3   -2.11    1.32
   0  13  -3   -0.25    1.20
   0 -13  -3    1.90    1.76
   0 -13   3    1.03    1.20
   0  13   4    9.36    2.12
   0 -13   4   10.09    2.22
   0  13   4    7.27    1.56
   0 -13   4    9.08    2.06
   0  13   4    8.08    1.56
   0  13  -4    9.77    2.54
   0 -13  -4    6.48    2.35
   0  13  -5    8.12    2.24
   0  13   5    8.03    1.57
   0 -13   5    5.96    1.81
   0 -13   5    9.11    2.16
   0  13   5    7.10    1.57
   0  13   5    8.49    2.05
   0 -13  -5    8.64    2.77
   0  13   6    3.09    1.12
   0 -13  -6    4.14    2.14
   0  13  -6    3.04    1.91
   0 -13   6    0.37    1.06
   0 -13   6    4.96    1.53
   0  13   6    2.90    1.07
   0  13   6    3.18    1.44
   0 -13   7    5.30    1.87
   0 -13   7    8.12    1.94
   0  13  -7    7.46    2.67
   0  13   7   11.38    2.43
   0 -13  -7    8.52    2.62
   0 -13  -8   14.50    3.50
   0  13  -8   20.10    4.21
   0 -13  -8   17.57    4.80
   0 -13   8   16.15    2.94
   0  13   8   16.77    2.91
   0  13   9    0.51    1.15
   0 -13   9    3.25    1.69
   0 -13   9    1.32    2.14
   0 -13  -9   -0.78    1.88
   0  13  -9    2.83    2.00
   0 -13  -9    3.83    3.02
   0 -13 -10   -1.53    2.16
   0 -13 -10   -3.41    2.22
   0 -13  10   -0.75    2.36
   0 -13  10    2.11    1.60
   0  13 -10   -2.32    2.33
   0  13  10    0.11    1.15
   0 -13  11    4.68    2.10
   0 -13 -11    7.25    2.81
   0  13 -11    8.98    3.16
   0  13  11    8.20    2.34
   0  13 -12    6.48    2.99
   0 -13  12    0.84    1.49
   0 -13 -12    5.50    3.11
   0  13  12    5.01    2.13
   0  13  13    3.73    2.22
   0 -13 -13    0.67    2.21
   0  13 -13   -3.36    3.05
   0 -13  13   -0.14    1.77
   0 -13 -14   -1.26    2.12
   0  13 -14   -1.99    2.46
   0 -13  14    3.14    2.22
   0  13  14    1.93    1.70
   0 -13  15    3.46    2.27
   0  13  15   -2.74    2.71
   0  14   0   83.15    5.71
   0  14   0   87.10    6.09
   0 -14   0  101.25    7.38
   0 -14   1   12.43    2.44
   0  14  -1    9.56    2.37
   0  14   1   10.29    2.16
   0  14   1    7.83    2.02
   0  14  -1    9.34    2.15
   0 -14   1    9.64    2.38
   0 -14  -1    8.47    2.41
   0 -14  -2    3.28    1.82
   0  14  -2    3.18    1.59
   0 -14   2    3.61    1.77
   0 -14   2    3.94    1.51
   0  14  -2    2.87    1.46
   0  14   2    2.85    1.47
   0  14   2    3.68    1.27
   0  14   3   21.66    2.77
   0  14  -3   22.09    3.28
   0  14  -3   17.92    2.92
   0 -14   3   22.11    3.25
   0  14   3   20.60    2.89
   0 -14  -3   24.41    4.01
   0 -14   3   21.87    3.17
   0 -14  -4   46.24    5.45
   0  14   4   52.74    4.62
   0  14  -4   46.12    5.11
   0  14   4   49.92    4.03
   0 -14   4   42.66    4.43
   0 -14   4   54.33    4.94
   0  14   4   52.32    3.92
   0  14  -4   54.39    5.10
   0 -14   5   -0.32    1.37
   0 -14   5    0.00    1.03
   0  14  -5   -0.25    1.55
   0 -14  -5   -0.92    1.42
   0  14   5   -0.11    1.27
   0 -14  -6   24.76    4.28
   0  14   6   21.79    3.22
   0 -14   6   20.23    3.10
   0  14  -6   24.47    4.24
   0 -14  -7   13.38    3.74
   0 -14   7    6.68    2.11
   0  14  -7   13.08    3.37
   0  14   7   11.36    2.49
   0 -14  -8   10.37    3.82
   0  14   8    7.07    2.08
   0 -14  -8    9.98    2.92
   0  14  -8   13.09    3.38
   0 -14   8    9.13    2.33
   0 -14   8   12.91    4.25
   0 -14   9    5.72    2.11
   0 -14   9    5.98    3.14
   0 -14  -9    3.31    2.26
   0  14  -9    9.02    3.44
   0  14   9    5.87    2.20
   0 -14  -9    7.34    3.60
   0 -14  10   12.40    2.87
   0 -14 -10   22.57    5.13
   0 -14  10   18.54    4.29
   0  14 -10   14.02    3.71
   0  14  10   18.16    3.30
   0 -14 -10   17.06    3.89
   0  14 -11    1.37    2.20
   0  14  11    1.61    1.72
   0 -14  11    4.54    1.94
   0 -14 -11    2.61    2.19
   0  14  12   -2.44    1.76
   0  14 -12    4.25    2.81
   0 -14 -12    3.91    2.88
   0 -14  12   -5.26    2.69
   0 -14  13    3.56    2.11
   0 -14 -13    3.90    2.45
   0  14 -13    5.01    2.91
   0  14  13   -0.89    1.57
   0  14  14    5.26    2.49
   0 -14  14    2.33    1.81
   0  15   0   -0.82    1.44
   0  15   0   -0.85    1.38
   0 -15   0   -1.52    1.64
   0  15  -1    9.74    2.17
   0  15   1    8.08    2.03
   0 -15  -1    8.26    2.54
   0  15   1    9.07    2.00
   0  15  -1    8.89    2.43
   0 -15   1    5.46    2.03
   0  15   2    1.43    1.06
   0  15   2    0.64    1.31
   0 -15  -2   -1.83    1.71
   0 -15   2   -1.13    1.50
   0  15  -2    1.63    1.54
   0  15  -2    1.07    1.40
   0 -15   2   -2.28    1.84
   0 -15  -3    2.46    2.06
   0  15  -3   -1.61    1.65
   0  15  -3    0.71    1.13
   0  15   3    0.23    1.26
   0 -15   3    3.15    1.62
   0 -15   3   -0.27    1.30
   0  15   4   -1.03    1.17
   0 -15  -4    2.25    2.09
   0  15  -4    1.13    1.53
   0 -15   4    3.16    1.69
   0 -15   4   -0.30    1.30
   0  15  -4   -2.69    1.78
   0  15  -5   15.01    3.46
   0  15   5   15.33    2.81
   0 -15  -5   12.70    3.10
   0 -15   5   13.72    2.77
   0 -15  -6    1.60    2.08
   0  15  -6   -1.79    2.11
   0 -15   6   -2.93    1.83
   0  15   6    0.17    1.27
   0 -15   7    4.61    2.92
   0  15   7    0.52    1.48
   0 -15   7   -1.92    1.47
   0 -15  -7    1.48    3.38
   0 -15  -7   -3.38    2.58
   0  15  -7   -7.22    3.19
   0 -15  -8    1.45    1.95
   0  15  -8    1.44    2.20
   0 -15   8   -0.38    1.69
   0  15   8    2.66    1.59
   0 -15   8    0.00    2.01
   0 -15  -8    1.65    2.96
   0 -15  -9    4.84    2.36
   0 -15  -9    8.10    3.67
   0 -15   9    2.21    2.63
   0  15   9    5.10    2.08
   0  15  -9    4.39    2.39
   0  15  -9    4.51    2.25
   0 -15   9    6.55    2.23
   0 -15 -10    0.23    2.19
   0  15  10    2.11    1.51
   0 -15  10   -0.08    2.25
   0 -15  10   -0.87    2.18
   0 -15 -10    1.79    3.21
   0  15 -10   -1.14    2.34
   0  15 -11    0.97    1.73
   0 -15 -11   -3.28    2.24
   0 -15  11    3.03    1.97
   0  15  11    2.20    1.62
   0 -15 -12   -0.88    2.20
   0  15 -12   -1.85    2.44
   0 -15  12   -1.15    1.59
   0  15  12    3.45    2.13
   0  15 -12   -2.50    2.28
   0  15 -13    5.63    3.17
   0 -15  13    0.60    1.46
   0  15 -13    4.51    2.93
   0  15  13    3.01    1.92
   0 -16   0    2.97    1.97
   0  16   0    0.43    1.35
   0  16   0   -2.22    1.79
   0  16   1    1.98    1.44
   0 -16   1    2.47    1.90
   0  16  -1    1.49    1.23
   0 -16  -1   -0.56    1.41
   0  16  -1   -1.72    1.53
   0  16   2    1.60    1.38
   0 -16   2   -0.73    1.38
   0  16  -2    0.58    1.54
   0 -16  -2   -0.23    1.62
   0  16  -2    0.83    1.64
   0  16  -3    0.15    1.62
   0 -16   3   -0.47    1.33
   0 -16  -3   -1.57    1.63
   0  16  -3   -0.51    1.49
   0 -16   3    1.28    1.40
   0  16   3    1.46    1.43
   0  16  -4    0.33    1.63
   0 -16   4    1.65    1.43
   0 -16  -4    2.29    2.27
   0  16  -4   -3.72    2.02
   0  16   4    2.48    1.51
   0  16  -5    3.66    2.06
   0 -16  -5   -0.28    1.60
   0 -16   5    0.64    1.24
   0  16   5    0.34    1.35
   0  16  -5    1.76    1.49
   0 -16  -6   -3.93    2.99
   0  16  -6    1.67    2.12
   0 -16   6    1.74    3.02
   0 -16   6    1.85    1.58
   0  16   6    3.01    1.66
   0 -16  -6    0.86    1.99
   0  16  -7    0.62    1.97
   0  16   7    1.16    1.74
   0 -16   7   -0.67    2.99
   0 -16  -7   -5.51    4.18
   0 -16  -7    1.71    1.64
   0 -16   7    2.05    1.56
   0 -16  -8   -0.84    3.65
   0 -16  -8   -0.13    1.92
   0  16   8    4.30    2.18
   0 -16   8    3.87    1.99
   0  16  -8    0.99    1.71
   0 -16   8    6.44    3.25
   0 -16   9    4.32    2.89
   0 -16  -9    5.16    3.28
   0  16   9    1.19    1.54
   0  16  -9    1.85    2.55
   0 -16  -9    2.06    2.35
   0 -16   9    1.00    1.49
   0  16 -10    0.96    2.00
   0  16  10    3.34    1.72
   0 -16 -10    1.38    3.07
   0 -16  10    3.07    2.59
   0 -16 -10   -0.80    1.86
   0 -16  10    1.55    1.67
   0  16  11    0.17    1.55
   0 -16 -11    3.56    3.11
   0 -16  11    0.44    1.27
   0  16 -11    0.82    2.21
   0 -16  12   -2.71    2.13
   0  16  12    0.16    1.56
   0 -17   0   -0.42    1.73
   0  17   0   -2.80    1.92
   0 -17   1   11.13    2.77
   0 -17  -1   20.64    4.00
   0  17  -1   14.31    2.77
   0  17   1   15.96    2.95
   0 -17  -2   22.69    4.43
   0  17   2   17.20    3.07
   0  17  -2   18.28    3.18
   0  17   3    3.85    1.63
   0 -17  -3    3.99    2.43
   0  17  -3    5.26    2.37
   0 -17   3    4.56    2.17
   0  17  -3    1.77    1.72
   0 -17   4    4.23    3.85
   0  17  -4    1.88    1.58
   0 -17   4    0.08    1.50
   0  17   4    6.55    2.21
   0  17  -4    2.61    1.69
   0 -17  -4    8.93    5.32
   0 -17  -4    0.40    1.79
   0  17   5   11.92    2.75
   0 -17  -5   12.64    3.76
   0 -17   5   12.87    2.93
   0  17  -5   15.73    3.75
   0 -17  -5   14.68    5.32
   0  17  -5    7.12    2.32
   0 -17   5   16.11    4.96
   0  17   6    5.86    2.20
   0  17  -6    0.24    1.77
   0 -17  -6    2.01    2.26
   0 -17   6    3.67    1.93
   0 -17  -6   -0.67    4.64
   0 -17   6    5.30    3.29
   0  17  -6    1.57    1.74
   0 -17   7   -1.35    2.93
   0 -17  -7   -1.05    3.02
   0  17  -7    2.67    2.20
   0  17  -7    3.28    2.68
   0  17   7   -0.17    1.24
   0 -17   7   -0.02    1.18
   0 -17  -7    1.81    2.01
   0 -17   8    7.93    2.33
   0  17   8    9.23    2.69
   0 -17  -8   12.16    4.89
   0  17  -8    6.98    2.85
   0 -17  -8    6.46    2.71
   0 -17   8   11.83    4.41
   0  17  -9    0.89    2.18
   0 -17   9    3.05    2.49
   0  17   9    3.85    2.12
   0 -17   9    3.16    2.05
   0 -17  -9    4.56    2.86
   0 -17  -9    5.88    3.55
   0  17  10   -2.71    1.76
   0 -17  10    1.42    1.78
   0 -17  10    0.06    1.12
   0  17 -10    1.16    2.28
   0 -18   0    0.89    3.62
   0  18   0   -1.52    1.50
   0 -18   1   -1.19    3.57
   0 -18  -1   -1.98    2.10
   0 -18  -1   -2.83    3.97
   0  18   1    0.37    1.58
   0  18  -1   -1.23    1.37
   0 -18   2   -2.74    3.35
   0  18  -2    1.25    1.38
   0 -18  -2    4.10    3.66
   0 -18  -2   -2.05    1.88
   0  18   2   -1.78    1.60
   0 -18  -3   -0.73    3.82
   0 -18  -3    0.16    1.90
   0  18   3    2.26    1.96
   0  18  -3    0.56    1.36
   0  18   4    0.75    1.32
   0 -18  -4   -2.40    3.65
   0  18  -4    2.89    2.10
   0 -18   4   -1.62    2.36
   0 -18   4    0.28    1.13
   0 -18  -4    3.89    2.77
   0 -18   5    6.16    4.11
   0 -18   5   -1.20    1.77
   0 -18  -5    2.73    2.51
   0  18  -5   -1.96    1.87
   0  18   5   -4.51    2.26
   0 -18  -5    5.10    4.01
   0  18  -6    1.37    2.00
   0 -18   6    1.50    1.40
   0  18   6    0.97    1.38
   0 -18  -6    1.22    2.71
   0  18  -6    0.78    1.94
   0 -18  -6    3.90    2.62
   0  18  -7    7.24    3.14
   0 -18  -7   -1.44    2.93
   0  18  -7    0.25    1.59
   0 -18   7   -0.12    1.53
   0  18   7    0.15    1.56
   0 -18   7    8.96    4.14
   0  18  -8    1.36    1.78
   0  18   8    3.74    2.21
   0 -18   8   -3.90    2.31
   0 -18   8    0.83    1.98
   0 -18  -9    0.45    2.51
   0 -18   9    0.32    2.48
   0  18  -9    3.39    2.40
   0  19   0    0.67    1.23
   0 -19   0   -1.86    4.11
   0 -19  -1    0.43    3.54
   0 -19   1   -6.28    4.92
   0  19   1    0.90    1.42
   0  19  -1   -0.27    1.17
   0  19   2    7.07    2.54
   0  19  -2    6.99    2.18
   0 -19  -3   -1.75    2.07
   0  19  -3    0.85    1.78
   0  19   3   -1.36    1.83
   0  19   4    1.61    1.57
   0 -19  -4    0.89    1.58
   0  19  -4    1.11    1.59
   0  19   5   -1.87    2.05
   0 -19  -5   -2.16    2.38
   0 -19   5   -3.82    1.88
   0  19   6    1.98    1.49
   0 -19  -6    3.55    2.65
   1   0   0   -0.12    0.19
   1   0   0    0.18    0.44
  -1   0   0    0.71    0.25
  -1   0   0    0.30    0.26
  -1   0   0    0.67    0.47
  -1   0   0    0.07    0.99
   1   0   0    0.30    0.20
  -1   0   0   -0.45    0.84
  -1   0   1   41.55    2.71
  -1   0  -1   35.90    1.06
   1   0   1   35.98    2.07
   1   0  -1   36.63    1.58
  -1   0  -1   34.82    2.50
  -1   0  -1   40.77    2.80
   1   0  -1   34.81    1.50
   1   0   1   37.08    1.08
   1   0   1   36.41    1.76
  -1   0   1   38.56    1.59
  -1   0   1   42.46    2.86
  -1   0  -1   36.67    2.04
   1   0  -1   37.43    1.50
  -1   0   1   37.20    1.58
   1   0  -2  705.05   11.10
  -1   0   2  675.50   13.44
  -1   0  -2  714.35   13.77
  -1   0   2  686.22   11.83
  -1   0  -2  687.90   12.66
   1   0  -2  660.41   11.39
  -1   0   2  645.77   13.49
  -1   0  -2  725.11   12.22
  -1   0   2  703.31   10.85
  -1   0  -2  668.54   13.44
  -1   0   2  694.56   10.85
  -1   0   2  680.26   11.78
   1   0  -2  710.25   10.68
   1   0   2  715.40   11.84
   1   0  -3  290.28    6.69
  -1   0  -3  310.70    7.48
  -1   0   3  307.94    6.59
  -1   0  -3  307.36    8.00
   1   0   3  291.81    7.29
   1   0  -3  306.23    6.05
  -1   0   3  290.89    6.06
  -1   0   3  282.95    7.49
   1   0  -3  284.39    7.39
  -1   0   3  292.45    7.81
  -1   0  -3  303.37    7.98
  -1   0   3  274.81    7.77
  -1   0  -3  296.75    8.00
  -1   0  -4  216.63    6.56
  -1   0  -4  198.85    7.11
  -1   0  -4  205.75    6.63
  -1   0  -4  214.14    6.31
  -1   0   4  209.15    6.31
   1   0   4  202.76    6.65
   1   0  -4  200.52    6.18
   1   0  -4  197.78    6.57
  -1   0   4  203.01    6.32
  -1   0   4  199.89    6.80
   1   0  -4  205.45    5.28
  -1   0   5   84.42    3.77
  -1   0  -5   84.12    4.67
  -1   0  -5   80.91    3.69
  -1   0  -5   83.21    3.89
   1   0  -5   78.09    3.45
  -1   0   5   80.42    4.59
   1   0   5   83.12    4.59
  -1   0  -5   80.58    4.77
   1   0  -5   79.00    4.34
   1   0  -5   81.17    4.54
  -1   0   5   83.31    3.86
   1   0  -6  185.25    7.68
   1   0  -6  168.56    7.16
  -1   0  -6  165.34    7.79
   1   0  -6  175.00    5.68
   1   0   6  171.48    7.68
  -1   0   6  186.23    5.78
  -1   0  -6  177.68    7.89
  -1   0  -6  184.67    7.62
  -1   0  -6  189.72    6.07
  -1   0   6  167.97    7.48
  -1   0   6  180.29    5.97
   1   0  -7   84.84    4.24
   1   0   7   77.49    5.58
  -1   0   7   83.36    5.56
   1   0  -7   69.83    5.09
  -1   0  -7   77.42    5.50
  -1   0   7   82.42    3.66
  -1   0  -7   82.22    5.56
  -1   0   7   76.03    5.73
  -1   0  -7   76.20    5.99
   1   0  -7   79.40    5.36
  -1   0  -7   86.80    3.94
   1   0   8  222.63   10.53
  -1   0  -8  224.40   10.03
  -1   0   8  248.08   10.26
  -1   0  -8  241.93   10.57
  -1   0   8  243.04    6.55
   1   0  -8  216.40    9.67
  -1   0  -8  223.39   11.79
  -1   0   8  224.31   10.99
   1   0  -8  222.54    9.80
  -1   0  -8  245.73    6.82
   1   0  -8  229.17    7.84
  -1   0   9   -1.05    1.94
  -1   0  -9    0.28    0.55
   1   0  -9   -1.50    1.69
   1   0  -9   -2.07    1.77
   1   0  -9    0.06    0.42
   1   0   9    1.16    1.72
   1   0   9   -0.06    0.44
  -1   0   9    1.91    1.88
  -1   0  -9    0.87    1.73
   1   0  -9   -0.26    0.89
  -1   0  -9    2.02    1.82
  -1   0  -9   -0.54    2.76
  -1   0  10    7.39    2.99
   1   0  10   10.49    3.17
  -1   0 -10    7.36    2.13
   1   0 -10    9.39    1.91
   1   0 -10    8.06    1.04
  -1   0  10   13.02    2.82
  -1   0 -10    7.50    3.65
   1   0 -10    9.55    2.62
   1   0  10    7.82    1.09
  -1   0 -10    9.45    2.91
   1   0 -10    8.91    2.48
  -1   0  11   46.30    6.13
   1   0 -11   45.73    3.92
   1   0 -11   50.03    5.34
  -1   0  11   56.73    5.56
  -1   0 -11   54.32    5.32
   1   0  11   46.92    5.84
  -1   0 -11   32.96    6.22
  -1   0 -11   43.72    5.46
  -1   0 -12   80.09    6.65
   1   0 -12   70.98    6.51
   1   0  12   67.88    7.00
  -1   0 -12   72.11    7.22
   1   0 -12   79.74    5.32
  -1   0  12   81.84    8.17
  -1   0 -13    3.51    2.03
   1   0 -13    1.74    1.23
  -1   0 -13    2.64    1.84
  -1   0  13    1.05    2.07
   1   0  13    1.60    1.81
  -1   0 -13   -0.25    2.03
   1   0 -13   -0.19    1.76
  -1   0 -14   41.88    4.83
  -1   0 -14   27.45    5.19
  -1   0  14   49.77    6.45
  -1   0 -14   38.25    5.11
   1   0 -14   36.45    4.85
   1   0 -14   40.29    4.00
   1   0  14   39.34    5.77
  -1   0 -15   14.74    3.13
   1   0  15    9.63    3.29
   1   0 -15    8.71    1.97
  -1   0  15    8.49    3.26
  -1   0 -15   12.31    2.98
   1   0 -15   10.99    2.88
  -1   0 -15    5.64    2.32
  -1   0 -16    1.71    2.15
   1   0 -16    4.17    1.62
  -1   0  16    8.14    2.82
  -1   0  16    5.93    2.66
   1   0 -16   -0.60    1.91
  -1   0 -16    5.26    2.05
  -1   0 -16    3.06    1.61
   1   0  16    1.27    2.23
  -1   0 -17    2.34    1.82
  -1   0 -17   -1.41    2.62
   1   0  17    5.92    3.16
  -1   0  17    5.04    2.76
   1   0 -17    4.13    2.29
  -1   0  17    2.13    2.07
  -1   0 -17    3.83    2.13
  -1   0  18   10.44    3.05
   1   0  18   10.42    3.40
  -1   0 -18   10.27    3.38
  -1   0 -18   11.34    2.70
   1   0 -18   10.60    3.21
  -1   0  19    2.06    2.28
   1   0  19    0.87    2.50
  -1   0 -19    7.43    2.66
   1   0 -19    5.96    2.76
  -1   0 -19   -1.09    2.17
   1   0  20    0.28    1.65
  -1   0 -20    2.89    1.79
  -1   0 -20   -1.41    1.89
   1   0 -20    2.18    2.34
   1  -1  20    1.73    1.83
  -1  -1 -20    2.53    1.69
  -1  -1 -20    2.62    2.18
   1   1 -20    5.03    2.76
  -1   1  19    3.91    2.16
   1   1 -19    4.36    2.54
  -1  -1 -19    1.64    1.46
   1  -1  19    6.97    2.81
   1  -1  19    3.20    2.41
  -1   1  19    3.19    2.42
  -1  -1 -19    5.78    2.67
   1  -1  18    3.36    2.34
  -1   1  18    1.77    2.40
   1   1 -18    0.74    1.79
  -1  -1 -18    0.05    1.80
   1  -1  18    0.97    1.86
  -1  -1 -18    4.32    1.98
   1   1 -17    0.68    2.07
  -1   1  17   -0.45    2.03
  -1  -1 -17    7.33    3.13
  -1  -1 -17    2.41    1.52
   1  -1  17    3.13    2.41
   1  -1  17    6.19    2.31
   1   1 -16   -0.35    2.11
   1  -1  16   -0.76    1.90
  -1   1  16    0.02    1.84
  -1  -1 -16   -0.31    1.69
  -1  -1 -16   -0.37    1.53
  -1  -1 -16    0.73    1.71
  -1   1  15   10.21    3.32
  -1  -1 -15    7.04    2.05
  -1  -1 -15    4.93    2.40
   1   1 -15    9.83    2.16
   1   1 -15   10.38    2.86
   1  -1  15    7.94    2.91
  -1  -1 -15    9.67    2.70
  -1  -1 -14    2.04    2.04
   1   1 -14    2.53    1.92
   1   1 -14    2.07    1.15
  -1   1  14    1.81    1.83
   1  -1  14   -0.33    2.06
  -1  -1 -14    0.72    1.61
  -1  -1 -14    2.64    1.76
   1   1 -13   16.43    3.20
   1  -1  13   15.15    3.87
  -1   1  13   16.51    3.46
   1   1 -13   15.56    2.41
  -1   1  13   20.29    4.44
  -1  -1 -13   12.38    2.75
  -1  -1 -13   12.35    3.92
  -1  -1 -13   19.99    3.72
  -1   1  12   13.17    3.04
   1  -1  12   21.05    4.30
   1   1 -12   13.56    2.10
   1   1 -12   13.85    3.11
  -1  -1 -12   19.67    3.47
  -1   1  12   19.16    4.29
  -1  -1 -12    7.76    3.20
  -1  -1 -12   16.97    3.57
  -1   1  11    3.53    1.90
   1  -1  11    7.65    2.76
   1   1 -11    5.02    1.47
  -1   1  11    8.19    3.11
   1   1 -11    4.06    2.13
  -1  -1 -11    4.75    2.06
  -1  -1 -11    3.22    2.38
  -1  -1 -11    9.62    3.27
   1   1 -11    4.37    2.22
   1   1 -10    0.89    0.89
  -1  -1 -10    1.92    1.72
   1   1 -10    0.19    1.82
   1   1 -10   -1.81    2.12
  -1   1  10    2.32    2.17
  -1   1  10    1.50    0.59
   1  -1  10    1.02    2.14
  -1   1  10   -0.82    2.22
  -1  -1 -10    2.59    2.32
  -1  -1 -10    0.58    2.33
   1   1  -9   56.78    5.21
  -1   1   9   65.04    5.46
   1   1  -9   61.36    3.29
  -1  -1  -9   68.64    6.69
  -1   1   9   68.01    3.08
  -1  -1  -9   69.11    5.78
  -1  -1  -9   68.36    5.82
   1   1  -9   54.63    5.24
  -1   1   9   59.10    6.17
   1  -1   9   68.05    3.26
   1   1  -9   64.70    4.08
   1  -1   9   60.51    6.06
   1   1  -8   62.78    5.16
  -1  -1  -8   65.57    3.04
   1  -1   8   53.65    5.26
  -1   1   8   66.83    3.14
  -1  -1  -8   61.25    5.17
   1   1  -8   63.81    3.84
  -1  -1  -8   67.20    5.28
   1   1  -8   54.83    4.93
  -1   1   8   64.48    5.90
  -1   1   8   59.98    4.94
  -1  -1  -8   60.43    5.65
  -1   1   7   46.85    4.67
  -1   1   7   44.85    2.64
  -1  -1  -7   48.75    4.04
  -1  -1  -7   44.81    2.59
   1  -1   7   48.74    4.59
   1   1  -7   44.20    2.97
   1   1  -7   37.22    3.89
  -1  -1  -7   44.29    4.52
  -1   1   7   45.18    3.87
  -1  -1  -7   39.05    3.98
   1   1  -7   43.00    4.01
   1   1  -6   31.05    3.13
  -1  -1  -6   35.51    3.09
  -1  -1  -6   30.72    2.97
  -1  -1  -6   33.74    3.63
   1   1  -6   33.27    2.31
   1   1  -6   34.69    3.55
  -1  -1  -6   39.45    2.90
  -1  -1  -6   37.25    2.41
  -1   1   6   34.45    3.14
   1  -1   6   33.81    3.57
  -1   1   6   33.00    2.29
  -1   1   6   37.24    3.72
  -1   1   5   15.26    1.59
  -1  -1  -5   13.10    1.73
   1  -1   5   13.67    2.09
  -1  -1  -5   18.21    1.95
   1   1  -5   14.71    1.97
  -1  -1  -5   14.50    2.29
  -1  -1  -5   16.67    1.66
   1   1  -5   16.32    1.40
  -1   1   5   16.35    1.96
   1   1  -5   15.34    2.17
  -1   1   5   15.76    2.04
  -1  -1  -4   32.76    2.45
   1  -1   4   30.80    2.77
   1   1  -4   29.96    1.48
   1   1  -4   30.91    2.41
  -1  -1  -4   33.41    2.70
  -1   1   4   33.14    2.38
  -1   1   4   30.69    2.33
   1   1  -4   29.17    1.67
  -1   1   4   28.59    2.04
  -1  -1  -4   32.28    3.16
  -1  -1  -4   28.52    2.02
  -1  -1  -4   29.15    2.24
   1   1  -4   25.21    2.52
   1   1  -3  142.25    3.31
  -1  -1  -3  137.83    4.43
  -1  -1  -3  142.01    5.71
  -1   1   3  140.67    3.70
   1  -1   3  141.70    5.05
  -1  -1  -3  144.91    5.82
  -1  -1  -3  142.59    3.97
   1   1  -3  136.72    5.20
  -1   1   3  136.48    4.46
  -1  -1  -3  150.54    5.60
   1   1  -3  134.18    4.41
  -1  -1  -2  259.99    7.94
  -1   1   2  283.61    6.11
  -1  -1  -2  275.68    6.11
   1   1  -2  276.28    4.62
   1   1  -2  270.12    6.83
   1  -1   2  261.88    6.37
  -1  -1  -2  279.88    4.82
  -1  -1  -2  264.98    7.96
   1   1  -2  288.50    6.92
  -1   1   2  272.33    4.82
  -1  -1  -2  266.66    7.31
   1   1  -2  274.80    6.09
   1   1  -1    6.55    0.86
   1  -1   1    7.43    0.79
   1   1  -1    9.16    0.82
  -1  -1  -1    6.33    0.60
   1   1  -1    5.66    0.75
  -1   1   1    7.65    0.79
   1   1  -1    7.23    0.63
   1   1  -1    7.12    0.59
  -1   1   1    6.74    0.83
  -1  -1  -1    6.27    0.93
   1   1  -1    6.31    0.79
   1   1   0   36.18    1.85
  -1  -1   0   34.97    1.40
   1  -1   0   31.65    1.76
  -1   1   0   34.45    1.40
   1   1   0   35.61    1.49
  -1  -1   0   37.41    2.96
   1  -1   0   33.90    1.40
  -1  -1   0   34.97    1.66
  -1  -1   0   37.88    2.90
   1  -1   0   37.21    2.01
   1   1   1   10.26    1.24
   1  -1  -1    7.48    0.91
  -1   1  -1    7.71    1.01
  -1   1  -1    7.10    0.76
   1   1   1    7.70    0.66
  -1  -1   1    7.55    0.93
   1  -1  -1    7.92    0.59
  -1   1  -1    8.37    1.12
  -1  -1   1    9.57    1.63
  -1  -1   1   10.21    1.71
   1  -1  -1    7.12    0.72
  -1  -1   1    7.40    0.78
  -1  -1   2  245.62    7.69
  -1   1  -2  281.09    6.88
  -1  -1   2  270.61    6.17
  -1  -1   2  274.31    4.63
  -1   1  -2  269.70    6.61
  -1  -1   2  245.59    7.80
   1  -1  -2  266.43    5.84
   1  -1  -2  271.15    4.99
  -1  -1   2  228.39    6.55
   1   1   2  273.73    6.19
  -1  -1   3  141.68    4.78
  -1  -1   3  145.37    5.56
   1   1   3  134.02    4.51
   1  -1  -3  138.76    4.09
  -1   1  -3  135.23    4.97
  -1   1  -3  137.95    5.04
  -1  -1   3  148.52    5.70
   1   1   3  151.06    3.84
   1  -1  -3  139.19    4.05
  -1  -1   3  138.25    3.24
  -1  -1   3  142.25    5.60
   1  -1  -3  142.79    4.41
  -1  -1   4   29.80    2.42
  -1  -1   4   32.89    2.58
  -1   1  -4   31.51    2.71
   1  -1  -4   27.51    2.23
  -1   1  -4   30.76    2.40
   1   1   4   25.33    2.18
   1   1   4   28.89    1.88
  -1  -1   4   34.51    2.63
  -1   1  -4   25.92    2.43
  -1  -1   4   29.95    2.86
  -1  -1   4   28.48    1.59
   1  -1  -4   28.26    1.98
   1  -1  -4   28.23    2.18
  -1   1  -5   15.56    2.27
  -1  -1   5   16.12    1.79
   1  -1  -5   14.90    1.97
   1  -1  -5   14.08    1.59
   1  -1  -5   16.00    1.97
  -1   1  -5   17.26    1.76
  -1   1  -5   14.62    1.97
  -1  -1   5   22.24    2.68
   1   1   5   14.75    1.85
  -1  -1   5   14.74    1.95
  -1  -1   5   15.96    1.82
  -1   1  -6   32.39    3.70
   1  -1  -6   28.74    3.04
  -1  -1   6   36.86    3.74
  -1  -1   6   32.66    2.43
   1  -1  -6   32.20    2.55
  -1  -1   6   34.15    2.65
  -1   1  -6   32.32    3.17
   1  -1  -6   31.43    2.91
  -1   1  -6   34.44    2.45
   1   1   6   33.13    3.08
  -1  -1   6   32.16    3.17
   1  -1  -7   42.60    3.83
  -1   1  -7   42.95    2.68
  -1  -1   7   40.97    2.68
  -1   1  -7   56.40    5.78
   1  -1  -7   43.55    3.02
  -1   1  -7   48.03    4.48
   1  -1  -7   42.45    3.79
  -1  -1   7   42.11    4.24
  -1   1  -7   41.01    3.82
   1   1   7   42.49    4.01
  -1  -1   8   71.38    3.41
  -1   1  -8   67.29    7.37
  -1   1  -8   68.71    3.35
  -1   1  -8   72.19    5.84
   1  -1  -8   63.76    4.14
  -1  -1   8   70.33    5.65
   1  -1  -8   59.27    4.79
  -1   1  -8   70.00    5.33
   1  -1  -8   64.74    5.12
   1   1   8   64.62    5.39
  -1  -1   9   69.70    6.50
   1   1   9   61.80    5.63
   1  -1  -9   68.35    3.01
   1  -1  -9   61.28    4.33
  -1   1  -9   70.31    3.21
  -1   1  -9   61.43    7.81
  -1   1  -9   65.91    5.92
  -1   1  -9   58.84    5.09
   1  -1  -9   68.80    5.52
   1   1   9   56.40    3.30
  -1   1 -10    0.09    3.58
   1   1  10    3.98    2.58
  -1   1 -10    1.38    1.29
  -1  -1  10    3.46    2.62
   1  -1 -10    2.57    1.19
  -1   1 -10    4.15    2.47
   1  -1 -10    0.67    1.59
  -1   1 -10    1.40    0.58
  -1  -1  11    1.96    2.29
  -1   1 -11    3.61    2.60
   1  -1 -11    5.33    1.68
   1   1  11    4.61    2.22
   1  -1 -11    6.67    2.14
  -1   1 -11    5.22    2.17
  -1   1 -11    3.01    2.52
   1  -1 -12   17.00    2.71
   1  -1 -12   16.45    3.19
  -1  -1  12   19.03    4.07
  -1   1 -12   12.18    3.99
   1   1  12   12.72    3.00
  -1   1 -12   16.39    3.13
  -1   1 -12   15.81    3.70
  -1   1 -13   14.06    4.28
  -1  -1  13   16.33    3.27
  -1   1 -13   14.40    3.06
  -1  -1  13   16.37    4.15
   1   1  13   15.12    3.61
   1  -1 -13   19.71    2.94
   1  -1 -13   13.41    3.06
  -1   1 -13   14.78    3.60
  -1  -1  14   -0.58    2.51
  -1   1 -14    2.58    2.40
  -1  -1  14    5.21    2.55
  -1   1 -14    2.85    2.11
   1  -1 -14    1.26    0.97
   1   1  14    0.51    2.40
   1  -1 -14    1.10    1.39
  -1   1 -14    4.78    2.56
  -1   1 -15    3.07    2.39
  -1  -1  15    5.38    2.43
  -1   1 -15    9.10    2.76
   1  -1 -15   10.86    2.29
   1  -1 -15   12.38    3.30
   1   1  15    8.72    3.46
  -1   1 -15   12.04    3.09
  -1  -1  15    9.13    3.22
   1   1  16    3.72    2.84
  -1   1 -16    3.01    2.26
   1  -1 -16   -0.66    1.64
  -1  -1  16    3.19    2.40
  -1   1 -16    2.73    2.40
  -1   1 -16    2.46    1.68
   1  -1 -16    1.86    1.22
   1  -1 -17    5.62    2.68
  -1   1 -17    4.34    2.21
   1   1  17    3.01    2.82
  -1   1 -17    6.93    2.31
  -1  -1  17    1.68    2.15
  -1   1 -17    4.03    2.89
   1  -1 -17    3.94    1.62
  -1   1 -18    3.93    2.94
   1  -1 -18    1.93    1.55
  -1   1 -18    1.79    1.76
  -1  -1  18   -3.69    2.13
   1   1  18    6.39    3.22
  -1   1 -18    3.90    2.33
  -1   1 -19    2.28    2.16
  -1   1 -19    4.80    2.00
  -1  -1  19    5.23    2.33
   1  -1 -19    5.08    2.27
   1   1  19    5.47    3.22
  -1   1 -20    6.06    2.70
   1  -1 -20    2.33    1.98
  -1   1 -20    4.34    2.22
   1  -2  20   -1.38    2.10
  -1  -2 -20    3.17    1.97
  -1   2  20    5.98    2.70
   1   2 -20    0.86    2.00
   1  -2  19    1.52    1.63
   1  -2  19    2.04    2.28
  -1   2  19    7.05    3.01
  -1  -2 -19    2.06    1.84
   1   2 -19    3.40    2.58
  -1  -2 -19   -0.93    2.32
  -1  -2 -18   -0.93    2.29
  -1  -2 -18    0.03    1.62
  -1   2  18    1.57    1.73
   1  -2  18    0.49    1.67
   1  -2  18   -0.62    2.23
   1   2 -18    0.66    2.03
   1  -2  17    5.94    2.20
  -1   2  17   11.30    3.45
  -1  -2 -17    4.98    1.95
   1   2 -17    4.72    2.58
   1  -2  17    2.71    2.70
  -1  -2 -17    5.44    2.77
  -1   2  16    4.11    2.29
   1  -2  16    4.01    2.04
  -1  -2 -16    4.98    2.01
  -1  -2 -16    5.70    2.90
   1  -2  16    4.27    2.43
   1   2 -16    4.33    2.22
  -1   2  15    3.54    2.08
   1  -2  15    3.05    2.07
  -1  -2 -15    3.00    2.09
  -1  -2 -15    4.17    2.26
   1  -2  15    2.04    1.76
  -1   2  15    2.31    2.01
  -1  -2 -15    2.74    1.59
   1   2 -15   -3.32    2.29
   1   2 -14   12.14    2.15
   1   2 -14   13.15    3.10
  -1   2  14   17.95    3.87
   1  -2  14   14.43    3.00
  -1   2  14   19.96    4.11
   1  -2  14   11.18    3.38
  -1  -2 -14   14.04    3.55
  -1  -2 -14   11.32    2.56
  -1  -2 -14   14.38    2.82
   1   2 -13   14.90    3.44
  -1   2  13   17.46    3.47
  -1   2  13   23.19    4.22
  -1  -2 -13   21.41    3.54
   1  -2  13   14.13    3.70
  -1  -2 -13   17.31    3.33
  -1  -2 -13   13.79    3.83
   1   2 -13   18.90    2.54
  -1  -2 -12   -0.22    2.31
  -1   2  12    0.72    2.16
   1  -2  12   -2.38    2.33
   1   2 -12   -0.77    1.79
  -1  -2 -12   -0.09    1.47
  -1   2  12    1.39    1.97
   1   2 -12   -0.12    0.76
   1   2 -12   -1.35    1.97
  -1  -2 -12   -1.52    1.62
  -1  -2 -11   18.72    3.49
  -1   2  11   15.37    3.71
  -1  -2 -11   17.66    4.32
   1   2 -11   13.70    3.06
  -1  -2 -11   14.12    2.93
   1   2 -11   13.06    2.10
   1  -2  11   17.89    4.08
   1   2 -11   11.26    2.90
  -1   2  11   14.60    3.13
  -1   2  10   65.63    5.69
  -1  -2 -10   70.17    7.02
  -1  -2 -10   77.02    6.22
   1   2 -10   72.78    4.44
  -1  -2 -10   75.72    6.58
  -1   2  10   71.46    7.01
   1  -2  10   74.62    7.20
   1   2 -10   71.47    6.30
  -1  -2 -10   73.81    3.13
   1   2 -10   76.55    6.37
  -1   2  10   74.29    3.22
   1   2  -9   23.48    3.69
   1   2  -9   27.23    2.57
  -1  -2  -9   27.71    2.03
  -1  -2  -9   21.75    3.41
  -1   2   9   26.19    3.36
   1  -2   9   25.35    3.98
  -1  -2  -9   26.77    3.71
  -1   2   9   27.27    4.50
  -1   2   9   27.00    2.00
   1   2  -9   25.52    3.99
  -1  -2  -9   24.31    3.76
  -1  -2  -8   32.34    2.24
  -1  -2  -8   39.23    3.96
  -1   2   8   30.96    3.39
  -1   2   8   29.40    4.18
  -1  -2  -8   33.61    4.07
   1   2  -8   37.99    2.78
   1  -2   8   32.66    4.29
   1   2  -8   33.38    3.91
  -1   2   8   32.09    2.27
  -1  -2  -8   30.52    3.61
   1   2  -8   35.13    4.24
  -1  -2  -7  102.09    6.84
  -1   2   7  103.40    5.64
  -1  -2  -7   94.76    4.09
   1   2  -7   86.78    6.20
  -1   2   7   94.69    6.53
   1   2  -7   85.81    5.76
  -1  -2  -7  101.37    5.72
   1  -2   7   96.21    6.84
  -1  -2  -7   83.63    5.21
   1   2  -7   92.25    4.04
   1   2  -6  116.89    4.11
  -1  -2  -6  130.04    7.59
   1  -2   6  119.34    7.16
   1   2  -6  120.28    6.14
  -1   2   6  117.70    5.57
   1   2  -6  118.55    6.89
  -1  -2  -6  123.71    5.63
  -1  -2  -6  121.65    4.83
  -1  -2  -6  119.11    5.50
  -1   2   6  117.24    6.72
   1   2  -5    3.61    1.24
   1   2  -5    4.68    0.68
  -1   2   5    5.31    1.37
  -1  -2  -5    4.60    1.01
   1   2  -5    4.38    1.63
  -1  -2  -5    3.07    1.62
   1  -2   5    4.39    1.66
  -1   2   5    4.40    1.06
  -1  -2  -5    4.44    1.09
  -1  -2  -5    5.02    1.00
  -1  -2  -4  175.38    7.87
   1   2  -4  167.52    5.96
  -1   2   4  180.68    5.32
  -1  -2  -4  159.17    5.10
  -1   2   4  170.97    5.63
   1   2  -4  158.53    7.16
   1  -2   4  170.14    5.01
  -1  -2  -4  164.58    4.50
  -1  -2  -4  180.26    6.51
   1  -2   4  165.02    7.20
  -1   2   4  175.32    5.84
   1   2  -3  128.84    4.56
  -1  -2  -3  147.48    6.08
  -1  -2  -3  124.85    3.98
  -1  -2  -3  135.85    6.37
  -1   2   3  137.26    4.48
   1  -2   3  131.49    3.61
  -1  -2  -3  132.26    3.23
   1   2  -3  135.95    6.10
  -1   2   3  133.03    3.15
  -1  -2  -3  138.95    6.30
   1  -2   3  136.26    5.87
   1   2  -2    7.83    1.04
   1   2  -2    8.41    1.21
  -1  -2  -2    8.70    1.65
  -1   2   2    8.03    1.00
   1  -2   2    7.26    0.58
  -1  -2  -2    7.28    0.49
  -1  -2  -2    6.55    1.36
   1   2  -2    9.18    1.57
   1  -2   2    8.96    1.31
  -1  -2  -2   10.83    2.17
  -1  -2  -1  103.49    3.06
  -1  -2  -1  121.25    5.92
  -1   2   1  102.95    3.21
   1   2  -1  130.52    3.41
  -1  -2  -1  110.32    4.48
   1   2  -1  107.88    3.50
   1  -2   1  110.72    3.61
   1   2  -1  123.68    4.53
   1   2  -1  120.13    3.72
   1  -2   1  107.34    3.88
  -1  -2  -1  129.48    6.00
   1   2   0  510.85    9.07
   1  -2   0  494.39    9.31
  -1   2   0  487.59    6.81
   1  -2   0  495.36    7.59
  -1  -2   0  499.97    8.40
  -1   2   0  502.25    8.30
  -1  -2   0  497.47    9.08
   1   2   0  492.47    8.55
  -1  -2   1  123.04    5.84
  -1  -2   1  108.63    3.33
  -1  -2   1  112.11    5.72
   1  -2  -1  110.19    3.67
   1   2   1  112.90    2.69
   1   2   1  113.80    4.82
  -1  -2   1  105.47    3.63
  -1   2  -1  110.95    3.67
   1   2   1  111.06    3.17
  -1  -2   1  104.34    2.52
  -1   2  -1  104.32    3.04
  -1  -2   2    6.48    0.98
  -1   2  -2    5.82    1.05
  -1  -2   2    7.52    1.65
   1   2   2    8.12    0.63
   1  -2  -2    6.88    0.96
   1  -2  -2    6.98    0.67
   1   2   3  142.29    4.10
   1   2   3  126.78    4.39
  -1   2  -3  128.10    4.93
  -1  -2   3  138.68    4.76
   1  -2  -3  141.05    4.02
  -1   2  -3  140.18    5.26
   1  -2  -3  125.99    4.31
  -1  -2   3  146.09    6.31
   1  -2  -3  134.39    4.39
  -1  -2   3  143.56    6.32
  -1   2  -4  161.13    5.95
  -1  -2   4  168.05    5.90
  -1  -2   4  184.51    6.96
   1  -2  -4  169.61    5.44
   1   2   4  173.28    4.55
   1  -2  -4  162.84    5.91
   1   2   4  165.67    5.47
  -1   2  -4  157.88    6.64
  -1  -2   4  163.06    3.69
   1  -2  -4  160.97    5.40
   1   2   4  155.72    5.43
   1   2   5    3.11    1.01
   1  -2  -5    3.77    1.05
   1  -2  -5    4.44    1.15
  -1   2  -5    5.46    1.74
   1   2   5    4.73    0.94
   1  -2  -5    4.01    1.22
  -1  -2   5    3.98    1.23
  -1  -2   5    6.39    1.42
  -1   2  -5    4.45    1.20
  -1  -2   5    4.16    0.74
   1   2   5    5.37    1.16
  -1   2  -6  122.09    5.97
   1  -2  -6  119.40    5.34
  -1  -2   6  118.85    5.83
   1   2   6  134.92    6.08
  -1   2  -6  108.28    7.38
  -1  -2   6  121.78    5.30
   1  -2  -6  112.59    5.38
   1   2   6  117.71    5.63
  -1  -2   7   91.03    5.60
  -1  -2   7   95.08    4.43
  -1   2  -7   95.29    7.75
   1   2   7  103.68    5.84
  -1   2  -7   90.63    5.57
   1  -2  -7   86.88    4.78
   1  -2  -7   95.01    5.29
   1   2   7   91.41    5.42
  -1  -2   8   34.69    2.54
  -1  -2   8   29.80    3.56
  -1   2  -8   34.62    2.47
  -1   2  -8   27.77    4.94
   1  -2  -8   31.28    3.34
   1  -2  -8   31.68    2.99
   1   2   8   36.21    3.74
  -1   2  -8   34.97    4.25
   1   2   8   36.03    3.81
  -1   2  -8   30.97    3.46
  -1  -2   9   26.31    3.51
   1   2   9   26.82    3.47
   1  -2  -9   29.64    3.10
  -1   2  -9   34.77    6.59
  -1   2  -9   26.87    2.09
   1  -2  -9   25.78    3.51
   1   2   9   29.94    3.93
  -1   2  -9   29.67    3.66
  -1   2  -9   26.59    4.01
  -1  -2   9   26.66    2.20
  -1  -2  10   78.92    3.51
  -1   2 -10   73.37    5.85
  -1   2 -10   77.55    3.40
  -1  -2  10   67.10    5.75
   1  -2 -10   75.69    5.93
  -1   2 -10   71.32    6.69
   1  -2 -10   81.71    5.48
   1   2  10   70.37    6.37
  -1   2 -11   14.07    3.46
  -1   2 -11   11.79    2.57
  -1  -2  11   17.18    3.34
   1  -2 -11   16.68    3.11
   1  -2 -11   16.78    2.70
   1   2  11   15.09    3.55
   1  -2 -12    1.50    1.53
  -1   2 -12    1.26    2.27
  -1  -2  12    4.17    2.60
   1   2  12    0.40    1.87
  -1   2 -12    0.31    1.37
   1  -2 -12    0.30    1.55
  -1   2 -12    3.36    2.63
   1   2  13   18.33    3.78
   1  -2 -13   19.18    2.98
   1  -2 -13   16.74    3.35
  -1   2 -13   17.53    4.75
  -1  -2  13   20.39    3.70
  -1   2 -13   18.23    4.27
  -1   2 -13   22.05    3.75
  -1   2 -14   10.15    3.69
  -1   2 -14   18.41    3.44
  -1  -2  14   16.39    3.54
   1   2  14   14.24    3.66
   1  -2 -14   17.08    3.00
   1  -2 -14   12.95    3.24
  -1   2 -14   13.40    3.42
  -1   2 -15    4.48    2.49
   1   2  15   -0.18    2.05
   1  -2 -15    2.40    1.61
  -1  -2  15   -1.73    2.48
   1  -2 -15   -0.18    1.57
  -1   2 -15    0.01    1.30
  -1   2 -15   -2.07    2.52
  -1   2 -16    2.94    1.88
  -1  -2  16    2.19    2.34
   1  -2 -16    3.47    2.44
  -1   2 -16    1.92    2.10
   1   2  16    4.97    2.82
   1  -2 -16    2.17    1.53
  -1   2 -16    4.32    2.19
  -1   2 -17    3.83    2.48
  -1   2 -17    2.53    1.53
  -1  -2  17    6.40    2.50
  -1   2 -17    4.51    2.11
   1  -2 -17    5.56    2.47
   1  -2 -17    2.32    1.60
   1   2  17    9.09    3.19
   1  -2 -18    1.14    1.56
   1   2  18    9.91    4.09
  -1   2 -18    3.45    2.34
  -1  -2  18    2.80    2.26
  -1   2 -18    2.71    1.94
  -1   2 -18    2.55    2.39
  -1   2 -19   -0.98    2.11
   1   2  19    0.25    2.49
  -1   2 -19    3.59    2.15
   1  -2 -19    3.02    2.20
  -1  -2  19    5.82    2.67
  -1   2 -20    1.87    2.54
  -1   2 -20    0.53    1.23
   1  -2 -20   -3.55    2.23
  -1   3  20    0.05    2.03
   1  -3  20    4.73    2.32
  -1  -3 -20    6.35    2.51
  -1  -3 -19    0.87    1.65
  -1   3  19    0.84    1.83
   1  -3  19   -1.68    2.68
   1   3 -19   -0.51    1.77
   1  -3  18    3.28    2.60
  -1   3  18    6.81    2.94
   1  -3  18    1.69    2.31
  -1  -3 -18    1.70    1.81
   1   3 -18    2.18    1.96
  -1  -3 -18    0.86    1.64
   1  -3  17    1.51    1.54
  -1  -3 -17    7.02    2.35
  -1   3  17    0.05    1.77
   1  -3  17    1.22    2.28
  -1  -3 -17    5.12    2.48
   1   3 -17    4.53    2.33
   1  -3  16   19.46    3.50
  -1  -3 -16   14.23    3.48
   1  -3  16   23.20    4.99
  -1  -3 -16   18.23    3.43
  -1   3  16   22.76    4.37
   1   3 -16   21.22    3.98
  -1   3  16   25.81    4.68
  -1   3  15   -1.00    1.96
   1   3 -15    1.36    2.32
  -1  -3 -15   -1.55    1.32
   1  -3  15    1.15    1.51
  -1   3  15   -1.67    2.39
   1  -3  15    6.33    2.80
  -1  -3 -15    4.77    2.29
  -1  -3 -14   12.20    2.61
  -1   3  14   11.37    2.91
   1  -3  14   12.24    2.86
   1  -3  14   14.83    4.15
  -1  -3 -14   12.10    3.61
  -1   3  14   13.69    3.38
   1   3 -14   14.70    3.48
  -1  -3 -14    9.76    2.70
  -1  -3 -13    7.53    2.73
   1   3 -13    9.56    3.07
  -1   3  13    4.30    2.16
   1  -3  13    6.69    2.89
   1  -3  13    7.18    2.32
   1   3 -13    4.41    2.12
  -1   3  13    7.90    2.72
  -1  -3 -13    2.79    1.66
  -1  -3 -13    6.20    1.97
   1   3 -13    5.10    1.43
  -1   3  12   43.64    5.59
   1   3 -12   31.02    4.51
   1   3 -12   32.00    4.54
   1   3 -12   31.85    3.07
  -1   3  12   35.78    4.74
   1  -3  12   35.37    4.21
   1  -3  12   32.55    5.31
  -1  -3 -12   35.63    4.49
  -1  -3 -12   31.07    4.06
  -1  -3 -12   26.11    4.39
  -1   3  11   -1.57    2.00
  -1  -3 -11    1.28    0.54
  -1  -3 -11    2.75    1.84
  -1   3  11   -0.85    2.03
   1  -3  11   -0.53    2.19
   1   3 -11    1.35    2.27
   1   3 -11    1.90    1.08
  -1  -3 -11   -0.48    1.82
  -1  -3 -11    1.48    1.72
   1   3 -11    1.13    2.16
   1  -3  11    5.73    2.16
  -1  -3 -10  120.45    4.49
  -1   3  10  112.72    4.34
   1   3 -10  117.00    8.23
  -1   3  10  117.92    7.50
  -1  -3 -10  115.06    7.67
   1  -3  10  100.47    6.36
   1  -3  10  125.71    9.16
  -1  -3 -10  108.64    7.76
   1   3 -10  113.62    8.09
  -1   3  10  130.70    9.18
   1   3 -10  109.55    5.12
  -1  -3 -10  128.15    8.12
  -1  -3  -9   12.39    2.59
   1  -3   9   10.91    3.33
  -1  -3  -9   10.85    2.45
   1  -3   9   10.79    2.11
   1   3  -9   12.23    2.99
   1   3  -9   12.28    2.93
  -1  -3  -9   13.83    1.59
  -1  -3  -9   14.61    2.73
  -1   3   9   12.76    2.53
  -1   3   9   14.45    3.28
   1   3  -9   12.38    1.61
   1   3  -8    5.33    2.49
  -1   3   8    3.66    2.05
  -1  -3  -8    4.55    2.28
  -1  -3  -8    3.20    0.90
  -1  -3  -8    4.92    1.59
   1   3  -8    1.79    0.62
  -1   3   8    1.43    1.36
   1  -3   8    4.89    2.39
   1   3  -8    7.53    2.57
  -1  -3  -8    3.11    1.50
   1  -3   8    2.14    1.26
  -1   3   7   10.20    1.86
   1   3  -7   10.69    2.23
   1  -3   7    8.98    1.69
  -1  -3  -7   10.30    1.73
  -1  -3  -7    8.93    1.44
  -1  -3  -7   10.07    1.79
  -1  -3  -7   12.33    2.69
   1   3  -7    9.25    1.08
  -1   3   7    8.55    2.45
   1  -3   7   13.60    3.13
   1   3  -7   10.92    2.79
   1   3  -6  255.49    9.44
   1  -3   6  270.84   11.63
  -1  -3  -6  256.08    8.05
   1   3  -6  257.09    5.58
  -1  -3  -6  254.13    7.68
   1  -3   6  257.51    7.80
   1   3  -6  267.69   11.53
  -1  -3  -6  262.55    8.20
  -1   3   6  285.56    8.68
  -1  -3  -6  270.81   11.03
  -1   3   6  241.88   10.03
  -1  -3  -5   40.52    3.26
  -1   3   5   35.64    2.92
   1  -3   5   36.30    4.06
  -1   3   5   34.12    2.67
   1   3  -5   39.78    4.36
  -1  -3  -5   36.99    2.17
  -1  -3  -5   44.38    4.27
  -1  -3  -5   34.94    2.34
   1  -3   5   37.01    2.48
   1   3  -5   37.13    3.18
   1   3  -5   37.22    1.40
  -1   3   5   38.58    3.45
  -1   3   4  218.85    5.89
   1   3  -4  207.46    7.01
   1  -3   4  213.49    8.94
  -1  -3  -4  210.79    7.85
   1   3  -4  206.88    9.29
  -1  -3  -4  215.68    9.13
   1  -3   4  209.45    5.59
  -1  -3  -4  207.70    5.51
  -1   3   4  212.52    6.43
  -1   3   4  216.54    6.66
   1   3  -3   22.16    2.01
  -1  -3  -3   22.34    1.20
  -1  -3  -3   25.59    3.08
   1   3  -3   25.63    3.17
   1  -3   3   23.22    1.43
   1  -3   3   22.19    2.59
  -1   3   3   24.73    1.87
  -1  -3  -2   86.24    4.98
   1  -3   2   81.92    2.36
   1   3  -2   82.66    4.94
  -1  -3  -2   75.78    2.08
  -1   3   2   75.12    3.08
   1   3  -2   77.74    3.38
   1  -3   2   79.43    4.29
   1  -3   1   23.80    1.90
   1   3  -1   24.89    1.77
   1   3  -1   25.09    1.09
  -1  -3  -1   27.13    2.61
   1  -3   1   28.72    2.29
   1  -3   1   25.23    1.11
  -1  -3  -1   24.46    1.59
   1   3  -1   25.23    2.45
  -1   3   1   24.55    1.61
   1  -3   1   26.52    2.05
   1  -3   0  499.28    9.27
  -1   3   0  515.61    7.37
   1   3   0  505.09    9.57
  -1  -3   0  473.98    9.09
   1  -3   0  518.62   10.15
   1   3   0  461.00   10.21
   1  -3   0  496.44    8.55
  -1   3   0  510.02    9.16
  -1  -3   0  515.58    9.28
  -1   3   0  524.15    7.76
   1  -3  -1   23.27    1.83
  -1   3  -1   26.33    1.16
   1   3   1   25.69    1.06
  -1   3  -1   23.51    1.75
  -1  -3   1   24.21    1.68
  -1  -3   1   29.19    1.78
  -1   3  -1   24.64    1.58
   1   3   1   29.22    1.50
   1   3   2   81.83    2.29
   1  -3  -2   79.40    3.46
  -1  -3   2   81.19    3.39
  -1   3  -2   86.13    3.74
  -1   3  -2   82.68    2.55
   1  -3  -3   21.62    1.91
   1   3   3   23.65    1.39
  -1  -3   3   21.28    1.89
   1   3   3   23.75    1.91
  -1   3  -3   20.91    2.17
   1  -3  -3   25.54    1.42
   1   3   4  208.11    6.30
   1  -3  -4  194.66    5.60
   1   3   4  210.29    5.51
  -1  -3   4  203.29    6.71
  -1   3  -4  212.38    6.98
   1  -3  -4  213.97    6.54
  -1   3  -4  217.72    8.19
  -1  -3   5   37.80    3.49
   1   3   5   36.66    1.66
   1   3   5   38.81    2.60
  -1   3  -5   37.65    3.99
  -1   3  -5   38.95    3.04
  -1  -3   5   38.93    3.02
  -1  -3   5   35.55    1.97
   1  -3  -5   36.91    2.81
   1   3   5   31.75    2.57
  -1  -3   6  241.70    7.18
   1   3   6  257.30    6.25
  -1   3  -6  246.27    8.61
  -1  -3   6  260.70    8.92
   1   3   6  251.72    8.21
   1   3   6  259.80    8.11
   1  -3  -6  275.38    8.39
  -1  -3   6  256.44    8.88
  -1   3  -6  262.15   11.74
   1  -3  -6  253.50    8.36
   1  -3  -7   10.15    1.87
  -1  -3   7   13.10    1.92
  -1  -3   7   10.94    2.15
   1   3   7    9.65    1.78
  -1   3  -7   14.20    3.60
   1   3   7   10.08    1.90
   1  -3  -7    9.79    1.74
  -1   3  -7   10.85    1.98
  -1  -3   8    2.98    1.01
  -1   3  -8    2.61    3.09
   1  -3  -8    4.30    1.55
   1   3   8    1.18    0.99
   1  -3  -8    2.70    1.17
   1   3   8    2.14    1.42
  -1   3  -8    2.64    1.51
  -1  -3   8    2.54    1.48
  -1  -3   9   13.02    1.74
  -1   3  -9    8.50    2.50
  -1  -3   9   12.25    2.54
   1   3   9   10.98    2.16
   1  -3  -9   11.29    1.93
   1  -3  -9   13.08    2.41
  -1   3  -9   12.49    2.57
   1   3   9   13.82    2.83
  -1  -3  10  125.37    4.91
  -1  -3  10  116.09    7.41
  -1   3 -10  119.36    4.68
   1   3  10  117.29    7.16
   1  -3 -10  132.08    7.60
   1   3  10  117.60    7.86
  -1   3 -10  117.09    8.76
  -1   3 -10  120.27    7.36
   1  -3 -10  125.80    7.02
   1  -3 -11    1.42    1.40
   1   3  11    2.03    1.73
  -1  -3  11    0.96    0.64
  -1  -3  11    0.68    1.89
   1  -3 -11    0.75    1.76
  -1   3 -11    0.88    0.51
  -1   3 -11    2.07    2.38
   1   3  11   -1.81    2.18
  -1   3 -11    2.69    1.70
   1   3  12   37.07    4.94
  -1  -3  12   33.52    4.36
   1  -3 -12   39.11    4.43
   1  -3 -12   33.37    4.39
  -1   3 -12   33.31    5.13
  -1   3 -12   36.18    4.38
  -1   3 -13    1.19    2.18
   1  -3 -13    5.59    1.92
  -1  -3  13    7.25    2.59
  -1   3 -13    3.24    1.82
   1   3  13    7.48    2.95
   1  -3 -13    3.99    1.93
  -1   3 -13    6.80    2.81
   1   3  14   11.20    3.57
  -1  -3  14   14.47    3.31
  -1   3 -14    9.50    3.43
   1  -3 -14   14.72    2.93
  -1   3 -14   15.08    3.12
   1  -3 -14   17.50    3.79
  -1   3 -14   12.63    3.69
  -1  -3  15    0.92    1.80
  -1   3 -15    0.28    1.70
   1  -3 -15   -0.66    2.06
   1  -3 -15    1.24    1.35
   1   3  15    2.57    2.10
  -1   3 -15    0.89    2.44
  -1   3 -15    5.32    3.04
   1  -3 -16   26.72    3.98
  -1  -3  16   22.54    4.18
  -1   3 -16   16.74    3.35
  -1   3 -16   19.80    4.74
   1  -3 -16   17.50    3.74
   1   3  16   23.09    4.97
  -1   3 -16   24.90    4.62
   1  -3 -17    4.16    2.07
   1   3  17   -0.01    1.94
  -1  -3  17    5.65    2.39
   1  -3 -17    1.08    1.59
  -1   3 -17    0.27    2.14
  -1   3 -17    7.04    2.59
  -1   3 -17    2.27    1.75
   1   3  18    5.78    3.12
  -1  -3  18    0.64    2.03
   1  -3 -18    3.24    1.97
  -1   3 -18    3.43    1.79
   1  -3 -18    2.02    1.86
  -1   3 -18    1.50    2.39
   1   3  19    1.99    2.30
  -1  -3  19    1.77    2.09
  -1   3 -19    0.72    1.55
  -1   3 -19   -2.29    2.38
   1  -3 -19    4.82    2.53
  -1   3 -20   -0.48    1.61
   1  -3 -20    2.60    2.07
   1  -4  20    0.69    2.18
   1  -4  19   -0.59    1.82
   1  -4  19    0.63    1.63
  -1   4  19    2.24    1.78
  -1  -4 -19    2.24    1.73
   1   4 -19    1.47    1.79
  -1   4  18    1.45    1.78
   1   4 -18    0.10    1.91
   1  -4  18   -1.84    2.07
  -1   4  18    2.52    2.13
  -1  -4 -18   -0.72    1.29
  -1   4  17    4.23    2.38
  -1   4  17    1.96    2.20
   1   4 -17    5.27    2.69
  -1  -4 -17    5.64    2.28
   1  -4  17    7.99    2.74
   1  -4  17    2.57    2.32
  -1  -4 -16    1.81    1.53
   1  -4  16    8.18    3.42
  -1   4  16    3.12    1.99
  -1   4  16    0.94    1.51
  -1  -4 -16    5.33    2.14
   1   4 -16    1.03    1.78
   1  -4  16    5.93    2.45
  -1  -4 -15   13.41    3.21
   1  -4  15   16.91    4.22
  -1   4  15   17.45    3.89
   1  -4  15   17.64    3.26
  -1   4  15   15.41    3.60
   1   4 -15   16.16    3.45
  -1  -4 -15   15.09    3.28
   1  -4  14    2.48    1.98
  -1  -4 -14    5.67    2.21
  -1   4  14    6.83    2.95
  -1   4  14    7.99    2.79
   1   4 -14    7.62    2.89
  -1  -4 -14    5.05    2.11
   1   4 -14    6.33    2.78
   1  -4  14    6.13    2.14
   1  -4  13    2.95    2.34
  -1  -4 -13    2.94    2.06
   1   4 -13    0.57    1.59
   1  -4  13    2.00    1.56
  -1   4  13   -0.36    1.77
  -1  -4 -13    0.83    1.55
   1   4 -13    0.80    1.96
  -1  -4 -13    0.68    1.16
  -1   4  13   -2.03    2.21
   1   4 -12    7.73    2.89
  -1   4  12    3.62    1.72
   1  -4  12   -0.30    2.74
  -1  -4 -12    4.31    2.06
  -1  -4 -12    4.73    2.11
   1   4 -12    2.94    1.09
   1  -4  12    6.53    2.09
   1   4 -12    6.27    2.75
  -1   4  12    4.34    2.02
  -1  -4 -12    6.23    1.96
  -1  -4 -11   67.50    6.01
   1   4 -11   60.68    3.85
   1  -4  11   64.98    7.20
  -1   4  11   66.35    5.96
  -1  -4 -11   65.38    3.43
   1  -4  11   63.46    5.24
  -1  -4 -11   67.52    5.49
  -1  -4 -11   61.31    5.78
   1   4 -11   71.08    6.96
   1   4 -11   61.24    6.22
  -1   4  11   71.71    6.80
  -1   4  10    2.83    2.05
  -1  -4 -10    3.94    1.69
  -1  -4 -10    2.99    0.93
  -1   4  10    6.93    2.97
   1  -4  10    5.21    1.87
  -1  -4 -10    2.20    1.64
  -1  -4 -10    4.49    1.86
   1   4 -10    3.80    2.30
   1   4 -10    3.53    1.02
   1   4 -10    4.18    2.43
   1  -4  10    4.27    2.50
   1   4  -9   70.55    6.18
   1   4  -9   68.51    3.51
  -1   4   9   76.18    5.50
  -1  -4  -9   72.96    4.06
   1  -4   9   73.87    7.05
  -1  -4  -9   65.03    6.03
  -1  -4  -9   77.77    5.63
   1  -4   9   72.04    4.95
   1   4  -9   77.10    7.02
  -1  -4  -9   72.04    5.01
  -1   4   9   77.58    6.81
   1  -4   8   36.60    5.11
  -1  -4  -8   36.66    3.04
   1   4  -8   26.10    3.82
  -1   4   8   35.76    3.55
   1  -4   8   29.97    3.04
  -1  -4  -8   32.23    4.14
  -1  -4  -8   28.03    2.87
  -1  -4  -8   32.50    3.43
  -1   4   8   37.60    4.56
   1   4  -8   29.82    2.06
   1   4  -8   38.86    5.20
   1   4  -7   44.08    4.32
  -1  -4  -7   48.48    3.27
  -1   4   7   56.59    5.28
  -1  -4  -7   47.59    4.73
   1  -4   7   48.60    3.47
   1  -4   7   49.58    5.26
   1   4  -7   53.12    5.66
  -1  -4  -7   44.16    3.56
  -1  -4  -7   51.27    3.74
   1   4  -7   45.64    2.27
  -1   4   7   48.28    3.85
  -1  -4  -6    1.46    0.74
  -1   4   6    0.47    0.92
   1  -4   6    2.52    1.94
  -1  -4  -6    1.35    1.68
  -1  -4  -6    2.65    0.93
   1   4  -6    1.54    1.22
   1   4  -6    3.31    1.99
   1  -4   6    1.09    0.83
  -1   4   6   -0.78    1.33
   1   4  -5  301.74   12.20
  -1   4   5  267.52    8.74
  -1  -4  -5  269.50   10.79
  -1   4   5  274.82    9.79
  -1   4   5  292.00    8.41
   1  -4   5  299.92    7.70
  -1  -4  -5  290.59    6.95
  -1  -4  -5  279.30    6.19
   1   4  -5  298.64    9.66
   1  -4   5  292.68   11.52
   1  -4   4   21.09    2.98
  -1   4   4   20.80    1.95
  -1   4   4   20.96    1.79
   1   4  -4   16.34    2.08
   1  -4   4   18.87    1.59
  -1  -4  -4   21.78    2.93
  -1  -4  -4   18.63    1.42
   1   4  -4   21.04    3.13
  -1  -4  -4   23.16    3.03
  -1   4   4   19.03    2.02
   1   4  -3   25.66    2.25
   1  -4   3   24.10    1.59
  -1  -4  -3   31.08    3.64
   1   4  -3   28.37    3.20
  -1   4   3   25.92    1.58
  -1  -4  -3   28.69    3.07
  -1   4   3   25.85    2.04
   1  -4   3   25.83    2.74
   1  -4   2   11.06    1.46
   1  -4   2   10.58    0.93
  -1   4   2   10.51    1.26
  -1  -4  -2   11.08    1.94
   1   4  -2   10.84    1.41
   1  -4   2   10.86    1.56
   1   4  -2   10.50    1.81
  -1  -4  -2   12.58    2.41
   1   4  -1  246.88    4.58
   1   4  -1  232.91    6.37
  -1  -4  -1  242.24    8.08
  -1   4   1  234.21    6.04
   1  -4   1  237.86    5.01
   1  -4   1  234.03    6.73
   1   4  -1  227.07    7.30
  -1  -4  -1  246.66    5.95
   1  -4   1  244.41    6.54
  -1  -4  -1  242.14   11.01
  -1  -4  -1  242.25    6.12
   1  -4   1  233.14    5.96
   1   4   0   22.09    1.71
   1   4   0   22.89    1.44
   1  -4   0   24.02    1.35
   1  -4   0   21.10    1.88
  -1   4   0   21.93    1.28
  -1   4   0   21.21    1.62
  -1  -4   0   23.58    2.14
  -1  -4   0   23.41    3.54
  -1  -4   0   20.37    1.65
  -1  -4   0   25.71    2.29
  -1   4   0   22.17    1.55
   1   4   0   21.18    1.75
  -1   4   0   23.45    1.40
  -1   4  -1  250.14    5.14
  -1  -4   1  233.12    6.25
  -1  -4   1  233.67    6.24
   1   4   1  250.06    4.94
   1  -4  -1  236.44    6.80
  -1  -4   1  214.43   10.44
   1   4   1  249.91    5.14
  -1   4  -1  253.32    6.36
  -1   4  -1  268.64    7.93
  -1   4  -2   10.77    1.45
  -1   4  -2    9.68    0.94
  -1  -4   2    9.86    2.43
   1   4   2   11.16    0.91
  -1  -4   2    9.54    1.31
   1  -4  -2   10.51    1.45
   1   4   3   26.56    1.60
  -1  -4   3   24.77    2.12
  -1  -4   3   31.55    3.85
   1  -4  -3   27.35    2.33
  -1   4  -3   26.40    2.54
  -1   4  -4   18.89    2.62
  -1  -4   4   20.45    2.04
   1  -4  -4   19.66    1.19
   1  -4  -4   22.25    2.23
   1   4   4   21.21    1.61
   1   4   4   20.54    2.01
  -1  -4   4   23.73    3.32
   1   4   5  291.72    8.28
   1   4   5  280.83    7.32
  -1  -4   5  293.31    8.95
  -1  -4   5  284.92    6.03
   1  -4  -5  281.11    8.69
  -1   4  -5  278.52   11.11
  -1  -4   6    3.86    1.43
   1   4   6    0.28    0.72
  -1  -4   6    2.52    0.71
   1   4   6    2.49    0.92
   1  -4  -6    0.69    0.96
  -1   4  -6    0.35    0.96
  -1   4  -6   -0.39    1.90
  -1  -4   7   56.86    4.33
   1   4   7   46.65    3.51
  -1   4  -7   52.14    4.00
   1  -4  -7   53.00    3.96
  -1  -4   7   51.43    3.09
  -1   4  -7   45.64    5.81
  -1  -4   7   47.05    4.00
   1  -4  -7   50.00    3.64
   1   4   7   46.60    3.73
   1  -4  -8   32.50    3.41
  -1  -4   8   32.71    3.16
  -1  -4   8   31.14    3.50
  -1   4  -8   30.28    6.01
   1   4   8   30.33    3.25
  -1   4  -8   27.15    3.13
   1  -4  -8   31.90    3.17
   1   4   8   27.82    3.25
   1   4   9   79.77    5.36
   1  -4  -9   71.40    5.04
  -1   4  -9   69.41    5.24
  -1  -4   9   74.94    4.46
   1  -4  -9   74.74    5.13
  -1  -4   9   70.89    5.62
   1  -4  -9   75.55    5.44
   1   4   9   72.96    5.43
  -1   4 -10    2.60    1.56
   1   4  10    2.88    1.55
   1  -4 -10    2.47    1.51
   1   4  10    4.65    1.99
  -1  -4  10    4.86    1.96
   1  -4 -10    4.38    1.63
  -1  -4  10    3.27    1.14
   1   4  11   67.32    5.71
   1   4  11   60.09    5.84
  -1  -4  11   63.64    5.72
  -1  -4  11   64.40    3.65
   1  -4 -11   69.15    5.81
  -1   4 -11   61.72    5.40
   1  -4 -11   70.65    5.74
  -1   4 -12    5.20    2.03
   1  -4 -12    3.81    1.70
   1   4  12    6.00    2.24
  -1  -4  12    4.46    2.02
   1  -4 -12    5.43    2.12
   1   4  12    5.95    2.06
  -1   4 -13   -1.53    2.74
   1   4  13    1.98    1.85
   1   4  13    0.30    1.48
  -1   4 -13    4.96    2.15
   1  -4 -13    1.03    1.71
  -1  -4  13   -3.17    2.24
   1  -4 -13    2.04    1.90
  -1   4 -14    7.64    2.24
   1   4  14    1.25    2.19
   1  -4 -14    7.70    2.51
  -1  -4  14    3.53    1.94
  -1   4 -14    5.72    3.17
   1  -4 -14    6.84    2.28
  -1   4 -15   16.97    3.36
   1   4  15   16.94    4.10
  -1   4 -15   14.45    4.46
   1  -4 -15   18.17    3.73
   1  -4 -15   15.81    3.23
  -1  -4  15   12.89    3.47
  -1  -4  16    2.28    2.26
  -1   4 -16    1.81    2.62
   1  -4 -16    9.34    2.86
  -1   4 -16    0.62    1.55
   1   4  16   10.47    3.86
   1  -4 -16    7.99    2.79
   1   4  17    2.40    2.75
  -1   4 -17    4.43    3.11
   1  -4 -17    4.01    2.29
  -1   4 -17    2.60    1.84
   1  -4 -17    6.30    2.54
  -1  -4  17    2.88    2.21
  -1   4 -18   -0.78    1.50
   1  -4 -18    0.52    1.69
  -1   4 -18   -1.58    2.73
   1   4  18   -0.09    2.39
  -1  -4  18    1.37    1.82
   1  -4 -18    0.17    1.51
  -1   4 -19    5.28    3.11
   1   4  19    3.30    2.91
  -1  -4  19   -1.69    2.51
  -1   4 -19   -3.33    2.06
   1  -4 -19   -0.21    1.39
   1  -4 -19    2.07    1.77
   1  -4 -20    1.89    1.79
   1  -5  20   -3.93    2.18
   1  -5  19   -1.68    1.78
   1   5 -19    0.98    2.00
  -1  -5 -19   -0.26    1.61
  -1   5  19   -0.51    1.69
   1  -5  19    2.53    2.99
  -1  -5 -18    4.82    2.47
  -1   5  18    5.21    3.17
   1  -5  18    2.57    1.80
   1   5 -18    3.67    2.43
   1  -5  18   -1.01    2.28
   1  -5  17   -3.05    2.61
  -1   5  17    2.52    2.35
   1   5 -17   -1.16    2.11
  -1  -5 -17   -1.44    1.90
  -1   5  17   -0.86    1.83
   1  -5  17    2.94    2.67
   1  -5  16    7.35    3.06
  -1   5  16   -0.28    1.91
   1   5 -16    4.40    2.22
  -1  -5 -16    3.70    2.13
  -1   5  16    2.14    2.80
   1  -5  16    4.52    2.00
   1   5 -15   11.38    3.43
  -1  -5 -15   10.22    2.95
   1  -5  15   15.59    3.19
   1  -5  15   17.91    4.14
  -1  -5 -15    6.63    2.46
  -1   5  15    8.21    3.23
  -1   5  15   10.50    3.06
   1   5 -15   18.42    3.98
   1  -5  14   -1.19    2.29
  -1  -5 -14    1.84    1.83
  -1   5  14    2.19    2.29
   1   5 -14   -3.82    2.55
   1  -5  14    0.53    1.56
  -1  -5 -14   -0.47    1.54
  -1   5  14    0.78    1.46
   1   5 -14    3.47    2.45
   1  -5  13    7.45    3.20
  -1  -5 -13   10.65    2.78
   1   5 -13    7.16    2.64
  -1  -5 -13    5.24    2.29
   1  -5  13    9.40    2.57
  -1   5  13    5.86    2.35
  -1   5  13    9.10    2.89
   1   5 -13    7.70    2.85
   1  -5  12   28.05    3.84
  -1   5  12   34.05    4.57
  -1   5  12   34.73    4.62
   1  -5  12   28.12    4.91
  -1  -5 -12   34.31    4.71
  -1  -5 -12   33.31    3.71
   1   5 -12   23.81    4.34
   1   5 -12   24.78    4.39
  -1  -5 -12   26.67    3.87
   1  -5  11   36.72    5.58
   1  -5  11   32.38    3.83
   1   5 -11   32.55    4.97
   1   5 -11   28.44    2.55
  -1   5  11   29.27    3.99
  -1  -5 -11   29.88    4.24
  -1   5  11   32.85    4.50
  -1  -5 -11   33.52    3.63
  -1  -5 -11   34.12    2.80
   1   5 -11   31.01    4.64
  -1  -5 -11   32.18    3.78
  -1   5  10    0.38    1.51
   1   5 -10    5.38    2.96
   1   5 -10    3.30    0.91
  -1  -5 -10    5.45    1.69
   1  -5  10    4.57    3.00
  -1  -5 -10    0.85    1.86
  -1   5  10    8.04    2.93
  -1  -5 -10    3.09    1.02
   1   5 -10    4.45    2.42
  -1  -5 -10    3.63    1.54
   1  -5  10    1.18    1.08
  -1  -5  -9  122.91    5.96
  -1  -5  -9  109.27    6.18
   1  -5   9  108.75    6.19
   1   5  -9  128.17    9.45
  -1  -5  -9  102.06    5.45
   1   5  -9  109.02    7.89
  -1  -5  -9  105.14    7.60
  -1   5   9  119.97    6.79
  -1   5   9  126.85    8.16
   1  -5   9  127.34    9.29
   1   5  -8   48.77    4.91
  -1  -5  -8   42.22    3.54
  -1   5   8   40.62    3.84
   1   5  -8   52.94    6.14
  -1  -5  -8   42.16    3.12
   1  -5   8   47.39    3.74
   1  -5   8   45.24    5.35
  -1  -5  -8   40.88    4.85
  -1   5   8   53.95    5.20
   1   5  -7   26.03    4.21
  -1  -5  -7   18.76    3.36
  -1  -5  -7   21.22    2.30
  -1   5   7   20.08    2.57
   1   5  -7   21.34    3.33
   1  -5   7   19.44    3.55
  -1   5   7   22.35    3.20
   1  -5   7   20.54    2.29
  -1  -5  -7   19.57    1.84
   1   5  -6   23.72    3.04
   1  -5   6   18.18    3.12
  -1   5   6   23.06    2.98
   1  -5   6   20.26    2.08
  -1  -5  -6   21.02    3.35
  -1  -5  -6   20.25    3.01
  -1  -5  -6   23.44    2.08
  -1  -5  -6   18.74    1.66
   1   5  -6   17.96    3.39
  -1   5   6   22.01    2.51
  -1   5   5  287.58    8.40
   1   5  -5  261.25   11.43
   1   5  -5  262.60    9.38
  -1   5   5  262.00    8.11
  -1  -5  -5  281.34   11.09
  -1  -5  -5  255.05    6.13
   1  -5   5  253.75    7.17
  -1  -5  -5  270.71   10.97
  -1   5   5  284.06    9.66
   1  -5   5  271.08   10.64
  -1   5   4   34.94    2.17
   1   5  -4   34.19    3.02
  -1  -5  -4   39.45    3.97
  -1   5   4   31.96    2.56
  -1  -5  -4   33.14    4.02
   1   5  -4   36.88    3.98
   1  -5   4   31.46    2.15
  -1   5   4   35.81    2.77
   1  -5   4   36.00    3.40
  -1   5   3   86.66    3.26
  -1  -5  -3   89.65    5.62
  -1  -5  -3   89.30    6.84
   1   5  -3   83.13    5.42
   1   5  -3   80.49    4.21
   1  -5   3   78.93    4.08
   1  -5   3   80.69    3.26
  -1   5   3   76.54    3.73
   1  -5   3   86.03    4.66
   1   5  -2  100.75    2.51
   1  -5   2   97.69    4.51
  -1   5   2   97.44    4.08
  -1  -5  -2  112.11    5.80
   1  -5   2  101.43    3.48
  -1  -5  -2  101.97    7.67
  -1  -5  -2  100.01    3.78
   1   5  -2  107.29    5.36
   1   5  -2   99.62    4.41
   1  -5   2  107.78    4.38
   1  -5   1  307.55    8.37
   1   5  -1  307.99    5.85
  -1  -5  -1  307.05    7.67
  -1  -5  -1  329.46    9.45
  -1  -5  -1  290.67   13.85
  -1   5   1  298.59    7.34
  -1  -5  -1  275.25    8.31
  -1   5   1  306.22    7.60
   1   5  -1  304.58    8.45
   1   5  -1  314.28    8.03
   1  -5   1  313.12    6.57
  -1   5   0    0.74    0.91
  -1  -5   0    0.50    0.58
   1  -5   0    0.74    0.84
  -1  -5   0    0.12    0.62
   1  -5   0    0.71    0.33
  -1   5   0    1.29    0.63
  -1   5   0    0.63    0.60
   1   5   0    0.76    0.60
  -1  -5   0    3.11    2.29
   1   5   0    0.75    0.48
  -1   5   0    0.52    0.38
  -1   5  -1  275.04    9.77
  -1  -5   1  311.51    7.81
  -1   5  -1  322.56    7.80
  -1   5  -1  312.33    7.64
  -1  -5   1  269.67   13.45
   1  -5  -1  322.90    8.53
   1   5   1  318.97    6.49
   1  -5  -1  314.98    5.05
  -1   5  -1  259.86    8.99
  -1   5  -2  102.83    6.28
  -1  -5   2   99.68    7.93
  -1  -5   2  102.35    3.38
  -1   5  -2  100.53    4.50
  -1  -5   2   98.87    4.31
   1   5   2  102.61    3.28
   1  -5  -2  103.52    4.69
   1  -5  -3   79.67    4.33
  -1   5  -3   79.51    4.51
   1   5   3   87.33    3.17
  -1  -5   3   86.51    7.30
  -1  -5   3   79.43    4.06
  -1   5  -3   76.14    5.80
  -1  -5   3   81.48    2.41
   1  -5  -4   34.65    2.97
   1   5   4   34.36    2.67
  -1  -5   4   32.77    1.29
  -1  -5   4   29.97    2.64
  -1   5  -4   30.55    4.17
  -1  -5   4   43.18    4.99
   1   5   4   33.24    2.12
  -1   5  -4   32.69    3.39
  -1  -5   4   34.82    1.48
  -1   5  -5  268.03   12.51
   1   5   5  270.71    7.20
   1  -5  -5  264.72    8.72
  -1  -5   5  260.93    8.65
  -1  -5   5  286.40   12.26
  -1  -5   5  258.78    4.89
  -1   5  -5  239.28   10.67
  -1  -5   5  257.64    5.26
   1  -5  -5  256.23    5.72
   1   5   5  255.65    7.87
  -1  -5   6   23.14    1.66
  -1  -5   6   17.24    1.17
   1  -5  -6   17.01    2.36
   1   5   6   19.14    2.03
  -1  -5   6   22.36    2.63
  -1   5  -6   23.50    4.19
  -1  -5   6   28.45    3.84
   1   5   6   20.96    2.41
   1  -5  -7   22.19    2.81
   1   5   7   20.46    2.30
   1   5   7   20.01    2.50
  -1  -5   7   18.43    2.67
  -1   5  -7   19.30    4.30
  -1  -5   7   23.63    2.02
   1  -5  -7   23.68    2.62
   1  -5  -8   43.38    4.07
  -1   5  -8   37.46    6.50
  -1  -5   8   45.60    4.23
  -1   5  -8   39.14    3.74
   1  -5  -8   47.38    3.82
   1   5   8   41.62    3.81
   1   5   8   43.96    3.60
  -1  -5   9  110.00    6.98
  -1  -5   9  118.13    6.38
   1  -5  -9   99.83    6.53
   1   5   9  102.47    6.35
   1  -5  -9  112.97    6.28
   1   5   9  110.67    6.36
  -1   5  -9  107.68    6.41
   1  -5 -10    5.00    1.74
  -1  -5  10    3.52    1.30
   1  -5 -10    4.54    1.88
   1   5  10    4.92    1.95
  -1   5 -10    4.74    1.82
   1   5  10    3.97    1.96
  -1  -5  10    4.59    2.06
  -1  -5  11   32.10    2.92
   1  -5 -11   31.71    3.93
   1  -5 -11   34.55    4.12
   1   5  11   32.40    4.34
  -1   5 -11   29.45    3.61
  -1  -5  11   28.82    3.92
   1   5  11   29.82    3.83
  -1  -5  12   29.14    4.25
   1   5  12   24.98    3.72
   1  -5 -12   28.15    3.88
   1   5  12   24.68    4.06
  -1   5 -12   28.55    3.80
   1  -5 -12   33.29    4.38
  -1   5 -13    1.52    2.55
   1   5  13    6.82    2.27
  -1  -5  13    5.94    2.35
  -1   5 -13    8.21    2.38
   1  -5 -13    9.40    2.77
   1   5  13    2.72    2.12
   1  -5 -13    7.21    2.50
  -1   5 -14    1.75    1.74
  -1   5 -14   -2.58    2.61
   1   5  14    1.86    2.17
  -1  -5  14    0.23    1.41
   1  -5 -14    0.18    1.30
   1  -5 -14   -1.60    2.07
   1   5  14    0.31    1.60
  -1  -5  15   10.97    3.11
  -1   5 -15   14.07    4.09
  -1   5 -15   13.22    3.01
   1   5  15    7.48    2.50
   1  -5 -15   12.91    3.08
   1  -5 -15   10.63    2.86
  -1  -5  16    2.54    2.09
  -1   5 -16    5.38    3.30
   1  -5 -16    6.99    2.52
   1   5  16    4.82    2.71
   1  -5 -16    5.95    2.24
  -1   5 -16    3.92    1.97
  -1   5 -17    1.42    1.67
   1  -5 -17    1.86    1.81
  -1  -5  17   -1.70    2.29
   1   5  17   -0.34    2.57
   1  -5 -17    4.27    2.50
  -1   5 -17    1.25    2.40
   1  -5 -18    0.99    1.37
   1   5  18    7.59    3.39
  -1   5 -18   -0.23    2.00
   1  -5 -18    1.48    1.88
  -1  -5  18    2.85    2.10
  -1   5 -18    6.22    2.44
   1  -5 -19   -0.21    1.28
   1   5  19    3.46    2.34
  -1   5 -19   -0.05    2.09
  -1  -5  19    3.02    2.18
  -1   5 -19    1.15    1.61
   1  -5 -19    1.95    1.96
   1  -6  19   -2.12    1.76
  -1  -6 -19    1.07    1.85
   1  -6  18   -0.80    1.97
  -1  -6 -18    4.19    2.38
  -1   6  18    4.83    2.72
   1  -6  18    4.52    2.54
   1   6 -18    6.45    3.00
   1  -6  17   -1.55    1.75
  -1  -6 -17    0.74    1.93
  -1   6  17    0.40    2.22
   1  -6  17    2.70    2.70
   1   6 -17   -1.65    2.05
   1  -6  16   -1.98    2.92
  -1  -6 -16    3.71    2.35
   1  -6  16    2.69    1.75
   1   6 -16    0.00    2.05
  -1   6  16    1.58    2.09
  -1   6  16   -0.62    1.83
   1   6 -16    4.47    2.70
  -1   6  15   -0.88    1.97
   1  -6  15    4.25    2.94
   1  -6  15    1.66    1.49
  -1  -6 -15    2.57    2.10
  -1   6  15    1.58    1.93
   1   6 -15   -1.04    2.10
   1   6 -15    2.35    2.44
  -1   6  14    6.96    2.70
   1  -6  14    6.15    2.96
  -1  -6 -14    7.86    2.72
   1   6 -14    4.87    2.66
   1   6 -14    5.69    2.28
   1  -6  14    9.78    2.47
  -1   6  14   14.16    3.49
   1   6 -13    0.82    2.41
   1  -6  13   -3.71    2.80
  -1  -6 -13   -0.71    1.49
  -1   6  13    3.40    2.07
   1   6 -13   -1.07    2.11
  -1  -6 -13    1.23    1.24
   1  -6  13    0.40    1.48
  -1   6  13   -1.27    1.95
  -1  -6 -12   13.40    2.54
   1  -6  12   12.65    2.69
   1   6 -12   15.29    3.84
  -1  -6 -12   12.07    3.08
   1  -6  12   17.15    4.05
  -1   6  12   15.61    3.36
  -1   6  12   13.98    3.17
   1   6 -12   13.69    3.84
   1   6 -11    5.68    2.48
  -1   6  11    8.84    2.73
  -1  -6 -11    7.16    2.53
   1  -6  11    6.43    1.87
  -1  -6 -11   10.07    2.00
   1  -6  11   13.58    3.72
  -1  -6 -11    8.98    1.77
  -1   6  11    8.54    2.35
   1   6 -11    7.13    2.77
  -1  -6 -10    5.03    2.33
  -1   6  10    9.63    2.90
   1   6 -10    5.53    3.03
   1   6 -10    4.73    2.47
   1  -6  10    7.74    2.97
   1  -6  10    1.98    1.18
  -1  -6 -10    3.89    1.33
  -1  -6 -10    6.57    1.60
  -1  -6 -10    2.52    1.10
  -1   6  10    6.07    2.20
   1  -6   9    7.71    3.18
  -1   6   9    8.07    1.85
   1  -6   9    4.44    1.49
  -1  -6  -9    5.60    1.27
  -1  -6  -9    9.73    3.05
  -1   6   9    7.67    2.49
  -1  -6  -9    5.58    1.53
   1   6  -9    4.24    2.44
   1   6  -9    4.06    3.05
   1   6  -8   66.58    5.83
   1  -6   8   70.63    4.61
  -1  -6  -8   66.71    3.96
   1   6  -8   74.65    7.38
  -1   6   8   64.43    4.72
  -1  -6  -8   67.17    3.57
  -1  -6  -8   70.04    6.39
  -1   6   8   74.86    5.79
   1  -6   8   66.33    6.29
  -1   6   7    5.86    1.82
   1   6  -7    4.75    2.14
  -1   6   7    5.34    1.48
  -1  -6  -7    5.61    1.90
   1  -6   7    3.47    1.12
  -1  -6  -7    6.59    2.12
   1  -6   7    5.35    2.08
  -1  -6  -7    4.39    0.95
   1   6  -7    6.51    2.69
  -1  -6  -7    5.69    1.00
   1  -6   6    7.22    2.48
  -1   6   6    9.29    1.88
  -1   6   6    9.25    1.89
   1   6  -6    8.17    2.09
  -1  -6  -6    9.65    2.28
  -1  -6  -6   10.72    2.70
   1  -6   6    8.81    1.39
  -1  -6  -6    8.60    1.03
   1   6  -6    7.98    2.75
   1  -6   5   16.18    1.76
  -1  -6  -5   16.35    3.05
  -1  -6  -5   18.17    1.15
  -1   6   5   16.95    2.20
  -1  -6  -5   23.48    3.59
   1  -6   5   15.33    2.53
   1   6  -5   17.17    3.14
   1   6  -5   15.65    2.58
  -1   6   5   17.01    2.07
   1  -6   5   15.47    2.12
   1   6  -4   71.77    4.58
  -1  -6  -4   76.70    2.62
  -1  -6  -4   73.95    1.89
  -1   6   4   69.05    3.96
  -1  -6  -4   77.42    6.73
   1  -6   4   71.86    4.60
   1  -6   4   73.75    3.54
   1   6  -4   72.09    5.44
  -1   6   4   67.50    2.02
  -1  -6  -4   74.70    5.55
  -1   6   4   73.42    3.43
   1  -6   4   66.22    4.06
  -1   6   3   15.77    0.93
   1   6  -3   16.08    2.43
   1   6  -3   16.94    2.02
  -1  -6  -3   19.21    1.65
  -1  -6  -3   19.13    2.73
   1  -6   3   15.85    1.57
  -1  -6  -3   18.57    3.49
  -1   6   3   18.18    1.97
  -1   6   3   16.52    1.12
   1  -6   3   16.33    2.02
  -1   6   2   50.66    2.22
  -1   6   2   50.94    3.06
  -1  -6  -2   51.81    3.98
   1   6  -2   53.01    3.71
   1  -6   2   47.60    3.36
   1  -6   2   51.34    2.67
   1   6  -2   50.04    1.99
   1   6  -2   49.44    3.24
  -1  -6  -2   53.37    3.30
  -1  -6  -2   50.81    6.20
  -1   6   2   51.53    1.55
  -1   6   1    8.62    1.07
   1  -6   1    9.37    1.11
  -1   6   1   10.69    1.47
   1   6  -1    8.10    1.35
  -1  -6  -1    9.45    1.39
  -1  -6  -1    7.82    3.40
  -1  -6  -1   10.60    1.88
  -1   6   1    8.93    1.37
   1   6  -1    8.92    1.50
   1  -6   1    8.96    1.58
  -1  -6   0   -0.77    0.80
  -1   6   0    0.67    0.95
  -1  -6   0   -0.42    0.71
   1  -6   0    0.44    0.29
   1  -6   0    0.33    0.82
  -1  -6   0    0.12    3.06
  -1   6   0    0.10    0.57
  -1   6   0   -0.25    0.80
   1   6   0    0.35    0.62
  -1   6   0    0.52    0.45
   1   6   1    7.12    0.96
  -1   6  -1   11.55    2.25
  -1  -6   1    8.57    1.35
  -1  -6   1   10.13    4.44
  -1  -6   1    7.70    1.35
  -1   6  -1   10.47    1.40
   1   6   1   10.08    1.45
   1  -6  -1    6.43    1.43
  -1   6  -1   10.08    1.27
  -1  -6   2   50.10    3.17
   1   6   2   47.96    2.41
   1  -6  -2   52.59    3.57
  -1  -6   2   61.67    6.93
  -1   6  -2   54.90    4.80
  -1   6  -2   51.59    3.28
  -1  -6   2   48.51    2.63
  -1   6  -3   14.93    2.94
   1  -6  -3   16.52    2.12
  -1  -6   3   14.19    1.23
  -1  -6   3   15.52    1.93
  -1  -6   3   16.89    3.93
   1   6   3   16.94    1.48
   1   6   3   15.55    1.19
  -1   6  -3   14.49    2.08
  -1   6  -4   74.55    6.28
   1  -6  -4   69.75    4.43
   1   6   4   72.77    3.35
  -1  -6   4   72.29    4.30
  -1  -6   4   81.23    7.61
  -1  -6   4   68.06    2.49
  -1   6  -4   71.20    5.00
   1   6   4   76.33    4.02
  -1  -6   4   71.46    2.55
   1   6   5   16.86    2.01
  -1  -6   5   16.55    1.24
  -1  -6   5   14.15    1.07
  -1   6  -5   15.61    3.45
  -1  -6   5   15.78    2.23
  -1   6  -5    9.98    2.53
  -1  -6   5   18.75    3.89
   1  -6  -5   14.94    2.35
   1   6   5   19.55    1.87
  -1   6  -6    8.68    2.85
   1   6   6    7.64    1.42
  -1  -6   6    8.26    0.89
   1   6   6    8.86    1.40
   1  -6  -6    7.11    1.62
  -1  -6   6    8.20    0.96
  -1  -6   6    6.93    2.64
  -1   6  -6    3.73    1.92
  -1  -6   6    7.44    1.69
   1  -6  -7    8.83    2.23
   1   6   7    6.25    1.53
   1   6   7    6.38    1.40
  -1  -6   7    8.10    2.59
  -1  -6   7    6.41    1.61
  -1   6  -7    6.25    3.07
  -1   6  -7    5.95    3.19
  -1  -6   7    4.94    0.77
   1   6   8   73.64    4.65
  -1  -6   8   79.84    6.42
  -1  -6   8   74.71    5.42
  -1   6  -8   70.46    8.26
   1  -6  -8   73.84    4.74
   1  -6  -8   70.80    5.43
   1   6   8   68.61    4.88
  -1   6  -9    4.45    4.21
   1  -6  -9    4.34    1.82
   1   6   9    5.47    1.69
   1  -6  -9    7.10    1.77
   1   6   9    4.81    1.71
  -1  -6   9    0.43    1.56
   1  -6 -10    5.66    1.98
   1  -6 -10    4.00    1.66
   1   6  10    6.57    1.83
  -1  -6  10    2.79    1.36
   1  -6 -10    7.82    2.58
   1   6  10    6.32    2.10
   1   6  11    9.00    2.38
   1  -6 -11   10.97    2.48
   1   6  11    8.65    2.30
  -1   6 -11   11.48    2.46
   1  -6 -11    8.43    2.05
  -1  -6  11    8.12    2.57
  -1  -6  11    7.71    1.79
   1  -6 -12   17.50    3.35
   1   6  12   13.21    2.92
  -1   6 -12    4.70    3.07
  -1  -6  12   13.17    3.01
  -1   6 -12   11.82    2.60
   1   6  12   13.04    3.09
   1  -6 -12   16.66    3.07
  -1  -6  13    2.06    2.01
   1  -6 -13    1.81    1.88
  -1   6 -13    0.34    2.71
   1   6  13   -1.20    1.63
   1  -6 -13    0.69    1.66
  -1   6 -13   -0.62    1.20
   1   6  13    0.64    1.96
   1   6  14    4.12    2.12
   1  -6 -14   10.45    2.73
   1  -6 -14    8.39    2.42
  -1   6 -14   10.03    3.42
  -1  -6  14   11.61    3.11
  -1   6 -14    7.72    2.31
   1   6  14   11.18    2.99
  -1   6 -15   -0.91    2.70
   1  -6 -15   -0.17    1.42
   1   6  15   -0.93    1.83
  -1   6 -15   -0.49    1.31
  -1  -6  15    1.45    1.78
   1   6  15    0.63    1.62
   1  -6 -15    1.41    1.50
   1  -6 -16    0.53    1.69
  -1  -6  16    4.12    2.11
   1  -6 -16    0.67    1.62
   1   6  16   -0.72    2.09
   1   6  16    3.97    2.24
  -1   6 -16    1.46    2.39
  -1   6 -16    6.69    2.39
   1   6  17    4.10    2.38
   1  -6 -17    2.24    2.03
  -1   6 -17    4.96    3.10
   1  -6 -17   -2.22    2.18
  -1   6 -17   -1.55    1.80
  -1  -6  17   -1.84    2.58
   1   6  18    5.41    2.94
  -1   6 -18    1.95    2.62
   1  -6 -18    2.29    1.88
  -1  -6  18    4.06    2.28
  -1   6 -18    0.08    1.23
   1  -6 -18    2.55    1.78
   1   6  19    1.09    2.24
   1  -6 -19    2.17    2.06
   1  -6 -20   -1.51    1.62
   1  -7  19    3.99    2.32
  -1  -7 -18    0.64    2.25
   1  -7  18   -0.31    2.25
  -1   7  18    2.94    2.50
   1  -7  18    2.52    2.07
   1   7 -18   -0.26    1.80
  -1  -7 -17    5.85    2.56
   1  -7  17    2.34    2.36
  -1   7  17    9.15    3.26
   1  -7  17    4.34    2.13
   1   7 -17    4.47    2.52
   1   7 -16    6.12    2.71
  -1  -7 -16    8.18    3.14
   1  -7  16    9.27    3.49
  -1   7  16   10.73    3.62
   1  -7  16    6.67    2.33
   1   7 -16    8.02    3.09
   1   7 -15    1.76    2.32
  -1   7  15    1.11    2.16
   1   7 -15   -0.16    2.35
  -1  -7 -15   -1.34    2.07
   1  -7  15   -2.80    1.63
   1  -7  15    4.02    2.51
   1  -7  14    2.12    1.60
  -1   7  14    0.74    1.96
   1   7 -14    3.32    2.29
  -1  -7 -14    2.79    1.91
   1  -7  14    3.98    2.48
  -1   7  14   -1.78    1.77
   1   7 -14   -1.90    2.58
   1   7 -13   45.71    6.20
  -1   7  13   44.90    5.37
   1  -7  13   47.31    6.31
  -1  -7 -13   38.35    5.45
   1  -7  13   40.46    4.72
   1   7 -13   39.81    5.84
  -1   7  13   43.95    5.34
   1  -7  12   13.97    3.60
   1  -7  12   20.08    3.40
  -1  -7 -12   20.64    4.12
  -1   7  12   19.16    3.46
   1   7 -12   18.61    4.10
  -1   7  12   17.37    3.46
   1   7 -12   23.44    4.95
  -1  -7 -11    6.49    1.50
  -1   7  11    6.50    2.40
  -1  -7 -11    2.70    2.07
  -1   7  11    3.87    2.04
   1   7 -11    6.19    2.68
   1  -7  11    6.79    2.62
   1  -7  11    6.91    2.12
   1   7 -11    2.69    2.51
  -1  -7 -11    7.09    1.88
  -1  -7 -10   15.32    1.88
   1   7 -10   13.40    3.37
  -1   7  10   15.79    2.90
   1  -7  10   17.00    3.82
  -1  -7 -10   12.32    3.08
   1  -7  10   15.42    2.63
   1   7 -10   18.01    4.26
  -1   7  10   17.44    2.94
   1   7  -9   40.79    5.17
  -1   7   9   34.74    3.81
   1  -7   9   35.76    4.80
   1  -7   9   41.54    3.84
  -1  -7  -9   35.26    4.73
  -1  -7  -9   36.16    2.62
   1   7  -9   41.79    5.86
  -1   7   9   41.02    4.49
   1  -7   8    9.32    1.86
  -1   7   8   10.04    2.33
   1  -7   8   11.73    3.05
  -1  -7  -8    9.21    1.24
   1   7  -8    9.76    2.54
  -1   7   8    8.80    2.22
  -1  -7  -8    8.93    2.80
  -1  -7  -8   12.17    2.75
  -1  -7  -8    9.14    1.38
   1   7  -8    6.42    3.23
   1   7  -7  132.32    7.91
  -1   7   7  117.90    6.19
  -1  -7  -7  141.68    8.78
  -1  -7  -7  120.31    4.44
   1   7  -7  139.78    9.38
  -1  -7  -7  138.84    8.91
   1  -7   7  117.49    5.59
  -1   7   7  117.68    6.48
   1  -7   7  122.61    7.88
   1   7  -6   84.52    5.96
  -1   7   6   77.80    4.79
  -1   7   6   72.25    4.54
   1  -7   6   78.92    4.25
  -1  -7  -6   92.65    6.96
  -1  -7  -6   83.02    7.00
  -1  -7  -6   92.03    3.32
   1   7  -6   86.97    6.90
   1  -7   6   79.65    4.90
   1  -7   6   85.89    6.07
   1   7  -5    2.40    1.82
  -1  -7  -5   -1.06    1.32
   1  -7   5    2.09    0.87
   1  -7   5   -0.04    0.96
   1   7  -5   -0.11    1.48
  -1   7   5   -1.02    1.07
  -1  -7  -5    3.27    2.46
  -1  -7  -5    0.29    0.26
  -1   7   5    0.12    0.61
   1   7  -4   31.05    3.17
  -1   7   4   28.74    2.70
   1  -7   4   23.74    2.63
   1  -7   4   27.75    2.30
  -1  -7  -4   30.33    3.70
  -1  -7  -4   28.65    2.01
  -1  -7  -4   29.63    4.75
   1   7  -4   31.45    3.53
  -1   7   4   26.46    1.39
  -1   7   4   27.20    1.87
  -1   7   3  224.18    5.00
   1   7  -3  237.98    8.24
   1  -7   3  234.47    8.10
  -1  -7  -3  208.34   12.74
   1   7  -3  236.02    8.97
  -1  -7  -3  238.34    9.70
   1  -7   3  234.56    6.82
  -1  -7  -3  230.73    7.06
  -1   7   3  232.10    4.97
  -1   7   3  233.28    7.61
   1   7  -2   86.26    4.83
  -1   7   2   82.11    4.19
   1  -7   2   86.23    3.76
   1  -7   2   88.99    4.72
  -1  -7  -2   92.53    9.20
   1   7  -2   80.83    4.51
  -1   7   2   83.60    3.25
  -1   7   2   87.51    2.44
  -1   7   1  151.76    5.68
  -1  -7  -1  142.73   12.29
  -1  -7  -1  158.75    6.98
  -1   7   1  156.42    5.80
   1  -7   1  156.01    6.35
   1  -7   1  152.69    5.11
  -1  -7  -1  150.11    5.78
   1   7  -1  150.67    5.92
  -1   7   1  153.42    4.87
  -1   7   0   55.11    3.97
   1   7   0   50.46    3.27
   1   7   0   51.53    2.79
   1  -7   0   54.71    3.65
  -1  -7   0   51.52    3.30
  -1   7   0   49.15    3.22
  -1   7   0   46.54    2.49
  -1   7   0   54.28    3.51
  -1  -7   0   58.33    8.31
  -1  -7   0   49.59    3.60
  -1   7  -1  166.72    7.76
   1   7   1  150.23    5.72
  -1  -7   1  161.69    6.02
  -1   7  -1  150.09    5.87
  -1  -7   1  153.74   12.74
   1  -7  -1  161.60    6.60
  -1   7  -1  153.70    5.26
  -1  -7   1  152.73    5.90
   1   7   1  152.43    4.95
   1   7   2   84.11    4.13
  -1  -7   2   79.03    9.01
  -1   7  -2   90.37    6.34
   1   7   2   84.92    3.56
  -1  -7   2   87.49    4.53
   1  -7  -2   82.30    4.83
  -1   7  -2   85.29    4.30
  -1  -7   2   84.89    4.00
   1  -7  -3  246.16    8.72
   1   7   3  236.27    5.29
  -1  -7   3  212.07   14.30
  -1   7  -3  243.29   11.15
   1   7   3  243.33    6.55
  -1  -7   3  230.64    6.28
  -1  -7   3  229.80    7.94
  -1   7  -3  233.45    8.38
  -1   7  -4   26.00    3.20
  -1   7  -4   31.69    4.31
  -1  -7   4   35.95    5.91
  -1  -7   4   27.74    2.87
  -1  -7   4   27.95    1.89
   1  -7  -4   30.00    3.14
   1   7   4   27.45    2.17
   1   7   4   26.09    1.69
   1   7   5    0.27    0.88
   1   7   5    1.54    0.76
  -1  -7   5   -1.13    1.27
   1  -7  -5    2.38    1.56
  -1   7  -5   -1.31    1.98
  -1   7  -5   -2.25    2.20
  -1  -7   5   -0.04    0.40
  -1  -7   5   -0.52    2.74
  -1   7  -6   74.67    7.24
  -1  -7   6   79.91    3.10
   1  -7  -6   85.87    5.56
   1   7   6   84.30    4.34
  -1  -7   6   99.21    8.39
  -1  -7   6   83.02    5.16
  -1   7  -6   85.01    7.31
   1   7   6   79.42    4.64
  -1   7  -7  127.72    9.66
   1  -7  -7  134.13    7.29
  -1  -7   7  127.44    6.76
  -1  -7   7  138.23    9.63
   1   7   7  129.44    5.79
  -1  -7   7  121.19    4.00
  -1   7  -7  125.37    9.61
   1   7   7  125.86    6.15
  -1   7  -8   14.30    3.82
   1   7   8    9.86    2.06
   1  -7  -8   10.39    2.55
  -1   7  -8   18.59    4.77
   1   7   8    7.52    1.69
  -1  -7   8    9.81    1.21
  -1  -7   8   10.75    2.22
  -1  -7   8    7.90    2.44
  -1  -7   9   31.36    2.26
   1   7   9   38.16    3.66
  -1   7  -9   34.10    6.16
  -1  -7   9   44.87    5.03
   1  -7  -9   38.02    3.52
   1  -7  -9   36.33    4.35
   1   7   9   37.15    3.85
  -1  -7   9   33.64    3.93
   1   7  10   18.73    2.96
   1  -7 -10   15.76    3.01
  -1   7 -10   16.68    5.18
   1  -7 -10   14.93    2.43
   1   7  10   13.42    2.53
  -1  -7  10   16.41    3.01
   1  -7 -11    4.64    1.96
   1  -7 -11    4.53    1.74
  -1   7 -11    5.33    3.30
   1   7  11    2.22    1.16
  -1  -7  11    7.20    2.31
   1   7  11    2.20    1.38
  -1   7 -12    7.92    2.97
  -1  -7  12   19.76    3.81
   1   7  12   17.54    3.15
   1  -7 -12   16.65    3.34
   1  -7 -12   17.14    2.94
   1   7  12   16.77    3.24
   1   7  13   47.20    5.41
   1  -7 -13   43.66    5.31
  -1   7 -13   40.28    6.69
  -1  -7  13   38.70    4.97
   1  -7 -13   48.18    5.16
   1   7  13   41.52    5.43
  -1   7 -14    1.67    2.60
   1  -7 -14    4.65    2.42
   1  -7 -14    3.53    2.09
   1   7  14    2.94    1.74
   1   7  14    0.24    1.79
  -1  -7  14    2.19    2.07
  -1   7 -15    2.34    2.97
  -1  -7  15    0.01    1.62
   1   7  15   -0.64    2.06
   1   7  15    0.22    1.83
   1  -7 -15    2.76    1.72
   1  -7 -15    4.03    1.91
   1   7  16    7.30    3.27
  -1   7 -16   11.06    3.70
   1   7  16   11.92    3.18
   1  -7 -16    6.71    2.54
  -1  -7  16    2.22    1.76
   1  -7 -16    8.92    2.93
   1   7  17    4.09    2.55
   1   7  17    7.75    2.65
   1  -7 -17    4.81    2.34
  -1   7 -17    7.07    2.91
  -1  -7  17    3.15    2.12
   1  -7 -17    2.99    1.88
  -1   7 -18   -0.84    2.28
   1  -7 -18    1.57    2.03
  -1  -7  18    1.34    2.22
   1   7  18    0.61    2.20
   1  -7 -19    3.35    2.20
   1   7  19    8.51    3.58
   1  -8  19   -4.51    2.66
  -1   8  18    2.09    2.39
  -1  -8 -18   -1.69    1.97
   1  -8  18    1.81    1.84
  -1   8  17    3.85    2.58
  -1  -8 -17    7.41    2.86
   1  -8  17    0.34    1.44
   1   8 -17    1.14    2.36
   1   8 -17   -1.05    2.30
   1   8 -16   -3.09    2.49
  -1   8  16    2.07    2.29
  -1  -8 -16    5.15    2.88
   1  -8  16    3.11    1.86
   1   8 -16    1.35    2.36
   1   8 -15   -4.31    2.63
  -1   8  15    2.24    2.59
   1  -8  15   -0.60    1.48
  -1  -8 -15   -0.04    1.96
   1   8 -15   -2.02    2.62
   1   8 -14    2.77    2.14
  -1  -8 -14    4.05    2.57
  -1   8  14    0.81    1.58
   1  -8  14   -0.87    1.69
   1  -8  14   -0.98    2.47
   1   8 -14    0.08    1.94
   1  -8  13    9.32    2.55
   1   8 -13    8.88    3.18
  -1   8  13    9.69    2.81
   1  -8  13    6.44    2.94
  -1  -8 -13    6.62    2.51
   1   8 -13    7.89    3.15
   1  -8  12    1.56    1.44
   1   8 -12    4.52    2.90
   1  -8  12    4.26    2.53
  -1  -8 -12    3.35    2.41
  -1   8  12    5.37    2.18
   1   8 -12   -0.03    2.44
  -1   8  11   11.74    2.64
   1  -8  11   13.05    3.60
   1  -8  11    9.12    2.28
  -1  -8 -11   15.38    3.67
  -1   8  11   11.26    2.43
   1   8 -11   13.66    3.23
   1   8 -11   11.66    3.85
   1  -8  10    0.86    0.96
  -1  -8 -10    3.46    2.29
   1   8 -10    1.96    1.71
   1  -8  10    4.46    2.41
  -1   8  10    0.92    1.37
   1   8 -10    3.00    2.65
  -1   8  10    0.96    1.22
  -1   8   9   17.97    2.92
   1   8  -9   17.74    3.41
   1  -8   9   16.64    2.45
  -1  -8  -9   19.20    3.93
  -1   8   9   14.68    2.64
  -1  -8  -9   22.51    3.62
   1   8  -9   18.31    4.32
  -1   8   8   12.57    2.42
  -1  -8  -8   10.46    2.90
  -1   8   8   11.88    2.29
   1  -8   8    8.98    1.77
   1   8  -8   16.07    3.31
  -1  -8  -8   13.98    3.57
   1   8  -8   10.81    3.30
   1  -8   8   12.81    2.31
   1   8  -7   45.93    4.94
  -1   8   7   49.90    4.10
   1   8  -7   48.86    5.62
  -1  -8  -7   55.65    5.99
   1  -8   7   51.48    3.74
  -1  -8  -7   56.56    2.91
  -1  -8  -7   56.71    6.02
   1  -8   7   44.71    3.98
  -1   8   7   48.97    4.02
   1   8  -6    1.74    1.70
  -1   8   6    1.21    0.97
  -1  -8  -6   -0.09    1.81
  -1   8   6    1.14    1.15
  -1  -8  -6    0.83    2.22
   1   8  -6   -0.90    1.96
  -1  -8  -6    0.78    0.41
   1  -8   6    1.89    1.00
   1  -8   6    0.73    1.01
   1   8  -5   10.15    2.36
  -1  -8  -5   14.60    3.06
  -1  -8  -5    8.85    3.31
  -1   8   5   10.59    1.95
  -1   8   5   10.64    1.46
   1  -8   5   10.13    1.94
  -1   8   5    8.87    0.94
   1   8  -5   10.76    2.59
   1  -8   5    8.94    1.55
  -1  -8  -5   10.74    1.29
  -1  -8  -4   10.50    1.50
  -1   8   4    8.90    0.97
   1   8  -4   10.29    2.18
   1  -8   4    9.50    1.47
  -1  -8  -4   12.97    2.65
  -1   8   4    8.62    1.71
  -1  -8  -4    8.09    3.04
   1  -8   4   11.29    1.99
   1   8  -4   12.61    2.51
  -1   8   4   10.98    1.17
  -1   8   3   83.75    3.16
   1  -8   3   86.07    4.23
   1  -8   3   83.13    4.93
   1   8  -3   79.68    4.89
   1   8  -3   84.70    5.27
  -1  -8  -3   93.62    9.53
  -1  -8  -3   92.26    6.23
  -1   8   3   85.80    4.71
  -1   8   3   85.06    2.85
   1  -8   2    4.87    1.47
  -1   8   2    5.25    1.33
   1  -8   2    3.76    0.98
  -1   8   2    4.29    0.87
   1   8  -2    4.58    1.40
  -1  -8  -2    6.68    1.78
   1  -8   1   59.86    4.16
  -1   8   1   60.64    3.65
  -1  -8  -1   60.85    4.58
  -1   8   1   59.43    3.73
  -1  -8  -1   62.33    3.86
   1  -8   1   60.68    3.38
   1   8  -1   58.39    3.79
  -1  -8  -1   56.11    8.67
  -1  -8   0    1.57    1.15
   1  -8   0    4.00    1.40
   1   8   0    1.38    0.98
   1   8   0    1.87    0.80
  -1   8   0    2.14    1.09
  -1   8   0    3.12    1.36
  -1  -8   0    3.75    1.27
  -1   8   0    2.83    0.72
  -1   8  -1   64.83    4.95
  -1   8  -1   59.39    3.84
   1   8   1   60.30    3.24
  -1  -8   1   59.72    3.86
   1  -8  -1   62.01    4.24
  -1  -8   1   61.83    3.93
  -1   8  -1   62.74    3.33
   1   8   1   62.38    3.74
  -1  -8   1   52.93    8.66
  -1   8  -2    6.34    1.44
   1   8   2    4.86    1.03
   1  -8  -2    5.02    1.58
   1   8   2    5.45    1.35
  -1  -8   2    3.37    1.27
  -1  -8   2    4.49    1.17
  -1  -8   2    0.02    3.85
  -1   8  -2    7.66    2.28
  -1   8  -3   92.47    6.93
  -1  -8   3   86.45    5.06
  -1  -8   3   80.42    4.01
   1   8   3   86.29    2.79
   1   8   3   84.25    3.95
   1  -8  -3   80.27    3.18
  -1  -8   3   87.75   10.48
   1  -8  -3   85.09    5.32
  -1   8  -3   85.51    4.99
  -1   8  -4   13.09    3.26
   1   8   4    9.62    1.50
   1  -8  -4   10.22    2.10
  -1   8  -4   12.63    2.57
  -1  -8   4   11.80    2.10
  -1  -8   4    9.62    4.26
   1  -8  -4    9.34    0.96
   1   8   4    9.67    0.98
  -1  -8   4   10.72    1.41
   1   8   5    8.17    1.68
   1  -8  -5    9.28    2.15
  -1  -8   5   10.66    1.35
  -1   8  -5   10.00    3.30
   1   8   5    8.02    1.36
  -1   8  -5   10.28    2.69
  -1  -8   5   14.85    4.57
   1  -8  -5    9.14    0.91
  -1  -8   5    7.69    1.92
   1   8   6    1.21    1.05
   1  -8  -6   -0.16    1.59
   1   8   6    0.04    0.74
  -1  -8   6    0.17    0.46
  -1   8  -6   -0.33    1.89
  -1   8  -6    1.95    2.12
  -1  -8   6    0.40    1.22
  -1  -8   6    0.81    2.62
   1  -8  -7   43.71    4.44
  -1   8  -7   58.09    6.81
  -1   8  -7   53.83    6.50
  -1  -8   7   55.32    6.59
   1   8   7   44.48    3.78
  -1  -8   7   47.52    4.29
  -1  -8   7   47.64    2.66
   1   8   7   48.76    3.57
  -1  -8   8    8.14    2.34
   1   8   8   13.08    2.12
  -1   8  -8    7.98    3.34
   1  -8  -8    8.79    2.41
  -1  -8   8   12.39    3.36
   1   8   8    8.88    1.98
  -1  -8   8    8.94    1.19
  -1   8  -8    8.45    3.09
   1  -8  -9   17.01    3.24
  -1  -8   9   22.25    4.07
   1   8   9   24.26    2.95
  -1   8  -9   16.41    4.20
  -1  -8   9   17.16    2.92
   1   8   9   19.89    2.87
   1  -8  -9   21.83    2.78
  -1   8  -9   18.00    4.29
   1   8  10    1.17    1.01
  -1   8 -10    3.59    3.16
  -1  -8  10    0.58    1.34
  -1  -8  10    1.33    1.36
   1  -8 -10    2.80    1.53
   1   8  10   -0.39    1.51
   1  -8 -10    0.55    1.58
   1  -8 -11   12.01    2.51
   1   8  11   13.59    2.75
   1  -8 -11    6.99    2.34
  -1   8 -11    8.15    3.48
  -1  -8  11    9.80    2.67
   1   8  11   12.02    2.81
   1   8  12    1.72    1.46
   1   8  12    1.93    1.84
  -1  -8  12    0.00    1.73
   1  -8 -12    1.83    1.48
   1  -8 -12    3.50    1.67
  -1   8 -13    8.28    3.79
   1   8  13    8.87    2.61
   1  -8 -13    8.07    2.33
   1  -8 -13   10.14    2.68
   1   8  13    7.86    2.82
  -1  -8  13    5.71    2.18
  -1  -8  14    2.73    1.87
   1   8  14    4.49    2.31
   1  -8 -14    2.54    2.01
  -1   8 -14    0.28    2.20
   1  -8 -14   -0.86    1.79
   1   8  14    0.74    1.69
   1   8  15    0.38    1.85
   1   8  15    1.76    1.82
   1  -8 -15   -0.02    1.97
   1  -8 -15    4.16    2.10
  -1  -8  15   -1.97    2.27
   1  -8 -16   -2.73    2.64
   1   8  16    0.71    1.79
   1   8  16    0.35    2.02
  -1  -8  16    1.74    2.05
   1  -8 -16   -0.24    1.63
  -1   8 -16    4.73    3.05
   1   8  17    5.49    3.08
   1   8  17    0.33    1.83
   1  -8 -17    1.61    2.09
  -1  -8  17    5.36    2.54
  -1   8 -17    6.75    3.46
   1   8  18   -4.81    3.29
   1  -8 -18   -0.06    1.93
   1  -9  18    1.28    1.83
  -1  -9 -17    7.18    3.34
   1  -9  17   -0.20    1.62
   1   9 -17    1.24    2.25
  -1   9  17   -6.45    3.45
   1   9 -17   -0.42    1.76
   1   9 -16    2.52    1.89
  -1  -9 -16    3.41    2.18
  -1   9  16    5.51    2.88
   1  -9  16    4.07    2.15
   1   9 -16   -3.06    2.88
  -1   9  15   -0.37    1.93
   1   9 -15    2.66    2.22
  -1  -9 -15    0.71    1.80
   1   9 -15    2.14    2.77
   1  -9  15    2.75    1.64
   1   9 -14    0.47    2.07
  -1  -9 -14    2.19    2.13
   1  -9  14    2.20    1.85
  -1   9  14    0.20    1.64
   1   9 -14    5.94    2.94
  -1  -9 -13    2.18    2.07
  -1   9  13    4.60    2.20
   1   9 -13    5.23    2.50
   1   9 -13    4.95    3.00
   1  -9  13    0.80    1.43
   1   9 -12    9.77    3.12
  -1  -9 -12    9.52    2.99
   1  -9  12    9.57    2.35
  -1   9  12   10.12    2.70
   1  -9  12   10.30    2.24
   1   9 -12   11.12    3.91
  -1  -9 -11    4.08    2.33
  -1   9  11    1.26    1.39
   1  -9  11    1.58    1.08
   1   9 -11   -1.29    2.26
   1  -9  11    1.80    1.39
   1   9 -11    1.79    2.42
  -1  -9 -10    0.01    1.96
   1  -9  10    2.49    1.31
  -1  -9 -10   -1.46    1.90
   1   9 -10    1.04    2.14
   1  -9  10    0.85    1.24
  -1   9  10    2.24    1.61
   1   9 -10   -1.83    2.38
  -1  -9  -9   24.43    4.03
   1   9  -9   20.04    3.99
  -1  -9  -9   26.53    4.64
  -1   9   9   21.92    3.11
   1  -9   9   19.60    2.65
   1  -9   9   21.51    3.00
   1   9  -9   20.06    4.20
  -1  -9  -8   38.10    5.19
   1  -9   8   28.20    3.07
  -1  -9  -8   31.72    4.70
  -1   9   8   27.51    3.27
   1   9  -8   29.64    4.26
   1  -9   8   28.73    3.36
   1   9  -8   36.03    5.21
  -1   9   8   26.60    3.17
   1   9  -7    4.82    2.34
  -1  -9  -7    3.67    2.01
  -1   9   7    2.05    1.40
   1  -9   7    2.83    1.08
  -1  -9  -7    2.91    2.12
  -1   9   7    2.94    1.18
   1   9  -7    4.34    2.36
   1  -9   7    2.91    1.45
   1  -9   6   13.66    2.31
  -1  -9  -6   11.87    3.10
   1   9  -6   15.90    3.22
   1  -9   6   10.80    1.84
  -1  -9  -6   15.07    1.28
  -1   9   6   14.70    2.38
  -1  -9  -6    9.04    3.11
  -1   9   6   11.32    1.17
  -1   9   6   15.30    1.98
   1   9  -6   14.42    2.87
   1  -9   5   33.68    3.40
   1   9  -5   37.30    4.13
  -1   9   5   36.75    3.41
  -1   9   5   34.46    2.02
  -1  -9  -5   33.81    4.35
   1  -9   5   32.09    2.92
  -1  -9  -5   35.47    6.09
   1   9  -5   34.02    4.12
  -1   9   5   32.46    2.35
  -1   9   4   16.44    1.46
  -1   9   4   15.54    2.33
  -1  -9  -4   20.31    3.42
   1   9  -4   15.19    2.56
   1  -9   4   17.68    2.11
   1  -9   4   15.73    2.34
  -1  -9  -4   13.36    4.24
   1   9  -4   17.64    2.82
  -1   9   4   14.77    1.40
  -1   9   3   14.99    1.50
   1  -9   3   14.19    2.17
   1   9  -3   18.26    2.64
  -1   9   3   17.08    2.41
   1  -9   3   16.90    2.08
  -1  -9  -3   17.99    5.11
  -1   9   3   16.53    1.31
  -1   9   2   65.75    3.52
   1   9  -2   64.91    4.45
   1  -9   2   69.16    4.72
   1  -9   2   71.36    3.98
  -1  -9  -2   69.48    9.65
  -1  -9  -2   74.57    5.66
  -1   9   2   71.91    4.38
  -1   9   1   38.23    3.03
  -1   9   1   39.83    3.31
   1   9  -1   38.82    3.33
  -1  -9  -1   40.74    3.90
  -1  -9  -1   41.20    3.32
   1  -9   1   38.59    3.45
   1  -9   1   40.70    2.97
  -1  -9  -1   33.40    8.11
  -1   9   0   -1.14    0.98
  -1  -9   0   -0.60    1.18
  -1   9   0   -1.03    1.09
   1  -9   0   -0.53    1.08
   1   9   0    1.33    1.12
  -1  -9   0   -0.72    1.09
  -1  -9   0   -0.94    6.78
   1   9   0    0.47    0.72
  -1   9   0    0.07    0.48
  -1   9  -1   44.29    4.18
   1   9   1   37.73    3.17
   1   9   1   38.70    2.79
  -1  -9   1   41.44    3.40
  -1  -9   1   41.88    3.60
  -1   9  -1   37.89    3.30
  -1   9  -1   38.50    2.68
  -1  -9   1   36.59    8.94
   1  -9  -1   41.54    3.81
  -1   9  -2   78.82    5.98
   1  -9  -2   73.13    5.02
  -1  -9   2   64.49    4.20
   1   9   2   71.48    4.22
   1   9   2   73.25    3.86
  -1   9  -2   70.17    4.07
  -1  -9   2   69.34   10.57
  -1  -9   2   70.82    4.55
  -1   9  -2   68.35    4.52
   1   9   3   15.37    1.07
  -1  -9   3   16.31    2.36
   1   9   3   16.83    1.93
  -1   9  -3   14.46    2.22
   1   9   3   15.35    2.07
  -1   9  -3   19.87    3.63
  -1  -9   3   19.64    6.72
  -1  -9   3   16.07    2.08
   1  -9  -3   19.19    2.79
  -1   9  -4   17.80    3.57
  -1  -9   4   15.73    1.94
   1  -9  -4   16.49    2.71
  -1   9  -4   18.34    2.83
   1   9   4   17.22    1.99
  -1  -9   4   16.16    2.46
  -1   9  -5   27.40    3.79
  -1  -9   5   35.68    2.71
   1   9   5   31.18    2.76
  -1  -9   5   31.47    3.36
  -1  -9   5   45.37    7.56
  -1   9  -5   39.16    5.33
   1  -9  -5   39.94    4.25
   1   9   5   34.47    3.22
   1   9   6   14.98    2.21
  -1   9  -6   18.60    4.08
  -1  -9   6   13.67    1.63
   1  -9  -6   16.51    2.80
  -1   9  -6   11.49    2.82
  -1  -9   6   13.76    2.43
  -1  -9   6   16.37    4.26
   1   9   6   16.15    2.15
   1   9   7    1.70    1.09
  -1   9  -7    1.31    2.48
  -1   9  -7    0.12    2.71
   1   9   7    1.29    0.87
  -1  -9   7    3.63    1.60
  -1  -9   7    0.68    2.05
   1  -9  -7    5.31    2.37
  -1  -9   8   38.26    5.69
   1  -9  -8   27.83    3.80
   1   9   8   32.17    3.18
  -1   9  -8   33.31    5.39
  -1  -9   8   31.83    3.76
   1   9   8   30.49    3.31
  -1   9  -8   30.49    5.21
   1   9   9   22.14    3.06
   1  -9  -9   21.12    3.65
   1   9   9   23.63    2.89
  -1   9  -9   21.03    4.76
  -1  -9   9   25.30    3.43
  -1  -9   9   20.19    3.88
   1  -9  -9   20.77    2.78
  -1   9  -9   24.98    4.96
   1   9  10   -0.02    0.99
   1  -9 -10    0.00    1.40
  -1  -9  10    0.75    1.24
  -1  -9  10    2.26    1.71
   1   9  10   -0.34    1.11
  -1   9 -10   -2.12    2.98
   1  -9 -10   -0.41    1.18
   1   9  11    2.91    1.55
   1  -9 -11    2.00    1.73
  -1   9 -11    2.15    3.47
   1  -9 -11    2.79    2.01
   1   9  11    2.98    1.85
  -1  -9  11    2.65    2.12
   1  -9 -11    4.50    1.69
   1  -9 -12    9.36    2.56
  -1  -9  12    7.57    2.45
   1   9  12    8.91    2.42
  -1   9 -12   11.56    4.12
   1   9  12    7.37    2.23
   1  -9 -12    8.25    2.15
   1  -9 -13    5.82    2.62
  -1   9 -13    4.84    3.44
   1   9  13    4.69    2.02
  -1  -9  13    3.40    2.03
   1  -9 -13    5.53    2.15
   1   9  13    4.89    2.11
   1  -9 -14    1.83    1.72
   1  -9 -14    1.39    2.00
  -1   9 -14   -1.03    2.37
  -1  -9  14    0.61    1.39
   1   9  14    3.15    2.00
   1   9  14    5.63    2.70
  -1  -9  15    3.89    2.42
   1  -9 -15    1.82    2.00
   1   9  15    1.12    1.72
   1   9  15   -1.91    2.04
  -1   9 -16   -0.84    2.36
   1   9  16   -4.15    2.69
   1   9  16   -4.36    2.60
  -1  -9  16   -0.33    1.51
   1  -9 -16    2.31    1.88
   1   9  17   -1.31    2.16
  -1   9 -17   -0.47    1.76
   1  -9 -17    4.37    2.19
   1   9  17   -0.18    2.16
  -1  -9  17   -0.06    1.46
   1   9  18    0.75    2.03
   1  -9 -18    4.75    2.73
   1 -10  18    0.57    1.63
   1 -10  17    3.21    2.08
  -1 -10 -16    0.05    2.17
  -1  10  16   -0.12    1.51
   1 -10  16   -1.37    2.07
   1  10 -16   -3.29    2.46
   1  10 -16   -3.18    2.53
  -1  10  15   10.10    3.23
  -1 -10 -15   11.08    3.86
   1 -10  15    8.82    2.44
   1  10 -15    9.47    4.02
   1  10 -15    9.17    3.73
  -1 -10 -14    5.38    2.72
  -1  10  14    3.85    2.46
   1  10 -14   11.61    4.08
   1  10 -14    5.37    2.62
   1 -10  14    4.54    1.85
   1 -10  14    3.51    1.71
   1  10 -13   -0.84    2.30
   1 -10  13   -0.91    1.38
  -1  10  13   -0.93    1.85
  -1 -10 -13   -0.35    1.97
   1 -10  13    0.32    1.04
   1  10 -13    0.30    2.27
   1 -10  12    4.38    1.90
  -1  10  12    2.45    1.88
  -1 -10 -12    5.10    2.75
   1  10 -12    6.00    2.81
   1 -10  12    3.50    1.58
   1  10 -12   -0.18    2.37
   1  10 -11   27.04    4.81
   1 -10  11   29.04    3.83
  -1  10  11   19.90    3.28
  -1 -10 -11   28.04    4.23
   1 -10  11   20.52    3.14
  -1 -10 -11   34.41    5.61
   1  10 -11   30.53    5.37
   1  10 -10   10.15    3.31
   1 -10  10    4.69    1.69
  -1 -10 -10   10.20    3.43
  -1 -10 -10    9.25    2.78
  -1  10  10    6.15    2.04
   1  10 -10   10.23    3.34
   1 -10  10   10.79    2.30
   1  10  -9   19.32    3.89
   1 -10   9   18.06    2.65
  -1  10   9   15.85    2.83
  -1 -10  -9   21.55    4.36
   1 -10   9   16.89    2.75
  -1 -10  -9   20.24    3.77
   1  10  -9   17.26    3.89
   1 -10   8   18.03    2.85
  -1  10   8   18.71    3.10
   1 -10   8   17.71    2.51
  -1 -10  -8   23.03    4.39
   1  10  -8   17.19    3.60
   1  10  -8   21.95    4.27
  -1 -10  -8   16.42    3.68
   1  10  -7   14.70    3.20
   1 -10   7   13.96    2.45
  -1  10   7   17.23    2.74
  -1 -10  -7   19.09    3.74
   1 -10   7   14.93    2.18
  -1 -10  -7   13.74    3.53
   1  10  -7    9.22    2.79
  -1 -10  -6   12.72    3.21
  -1  10   6   13.18    2.41
   1 -10   6   11.34    1.89
  -1 -10  -6    9.81    3.50
   1  10  -6   12.92    2.89
   1 -10   6   12.38    2.24
   1  10  -6   11.71    2.64
   1  10  -5   81.95    6.05
  -1  10   5   85.68    5.46
  -1 -10  -5   87.70    9.47
   1 -10   5   85.47    4.99
  -1 -10  -5   91.71    7.25
  -1  10   5   85.46    3.58
   1 -10   5   83.04    5.55
  -1  10   5   81.84    3.82
  -1  10   4   43.22    2.58
  -1 -10  -4   49.65    5.13
  -1  10   4   43.00    3.80
   1 -10   4   40.42    3.73
  -1 -10  -4   42.82    7.40
   1  10  -4   44.51    4.30
  -1  10   4   44.43    2.48
   1 -10   4   50.08    3.77
   1  10  -3   31.49    3.53
  -1  10   3   25.09    2.17
  -1  10   3   30.72    3.22
  -1 -10  -3   29.40    3.94
   1 -10   3   30.66    2.86
   1 -10   3   29.36    3.34
  -1  10   3   28.87    1.88
  -1  10   2   43.87    3.15
   1  10  -2   38.78    3.60
  -1 -10  -2   41.84    4.49
  -1  10   2   37.48    3.44
   1 -10   2   45.89    3.48
  -1 -10  -2   33.13    7.43
   1 -10   2   37.62    3.69
  -1  10   1   86.29    4.83
  -1  10   1   91.86    5.16
  -1 -10  -1   97.39    6.40
   1 -10   1   91.02    4.84
   1  10  -1   90.26    5.33
   1 -10   1   91.87    5.76
  -1 -10  -1   87.30    5.19
   1  10  -1   93.54    4.85
  -1 -10  -1   81.80   12.29
  -1  10   0   28.27    2.97
   1 -10   0   29.93    3.37
   1  10   0   33.21    2.84
   1  10   0   29.64    3.05
  -1 -10   0   31.50    3.09
  -1  10   0   29.02    2.12
  -1  10   0   33.89    3.22
  -1 -10   0   38.78    3.90
  -1 -10   0   39.68   10.68
  -1  10  -1   95.50    6.14
  -1 -10   1   92.62    5.74
   1 -10  -1   94.55    5.94
  -1  10  -1   86.98    5.18
   1  10   1   92.95    4.63
  -1 -10   1   90.77    5.41
   1  10   1   90.38    5.19
  -1  10  -1   94.84    4.31
  -1 -10   1   97.89   14.03
   1 -10  -2   43.97    4.14
  -1  10  -2   45.84    4.71
   1  10   2   41.96    3.49
  -1 -10   2   48.72    3.99
   1  10   2   47.01    3.26
  -1 -10   2   43.53    3.78
  -1  10  -2   39.35    3.60
  -1  10  -2   45.71    3.31
  -1 -10   2   50.25   10.41
  -1  10  -3   39.04    4.61
  -1 -10   3   34.56    7.66
  -1  10  -3   27.18    2.98
  -1 -10   3   29.95    3.29
  -1 -10   3   32.75    3.14
   1 -10  -3   30.87    3.63
   1  10   3   31.33    3.00
   1  10   3   32.67    2.82
   1 -10  -4   49.15    4.70
   1  10   4   44.14    3.52
  -1 -10   4   56.10    9.04
  -1 -10   4   48.47    4.23
  -1  10  -4   42.55    4.20
  -1 -10   4   50.83    3.83
  -1  10  -4   47.89    5.41
   1  10   4   48.05    3.41
  -1  10  -5  102.01    8.23
  -1 -10   5   89.09    4.81
  -1 -10   5   86.33    5.78
  -1 -10   5   90.36   10.26
   1  10   5   87.49    4.79
   1 -10  -5   90.94    6.55
  -1  10  -5   83.80    6.39
   1  10   5   83.84    5.13
   1  10   6   10.94    1.95
  -1  10  -6   12.92    3.59
  -1  10  -6   12.77    2.95
   1 -10  -6   12.65    2.81
   1  10   6   12.47    1.99
  -1 -10   6   13.58    2.29
  -1 -10   6   16.25    4.76
   1  10   7   13.68    2.28
  -1  10  -7   11.22    3.22
   1  10   7   15.96    2.24
  -1 -10   7   18.80    4.47
  -1 -10   7   17.88    3.00
  -1  10  -7   21.33    4.57
   1 -10  -7   15.14    2.94
   1 -10  -8   14.98    3.10
   1  10   8   20.82    2.81
   1  10   8   15.73    2.42
  -1 -10   8   18.73    4.34
  -1 -10   8   19.40    3.13
  -1  10  -8   15.95    3.92
  -1  10  -8   14.62    4.11
   1  10   9   13.50    2.46
   1 -10  -9   17.48    3.45
  -1  10  -9   18.99    4.59
  -1  10  -9   13.27    3.99
  -1 -10   9   22.13    3.35
  -1 -10   9   20.64    4.40
   1  10   9   16.97    2.57
   1  10  10    8.67    2.27
  -1  10 -10    4.80    2.72
   1 -10 -10   10.61    3.10
   1  10  10    6.24    1.77
  -1 -10  10    7.29    2.33
  -1 -10  10   12.76    3.44
  -1  10 -10    8.83    3.35
   1 -10 -10    8.33    1.99
   1 -10 -11   24.77    4.22
  -1 -10  11   33.90    4.83
   1  10  11   23.34    3.52
  -1  10 -11   27.39    5.62
   1 -10 -11   22.22    3.15
  -1 -10  11   24.77    3.90
   1  10  11   24.53    3.40
   1  10  12    5.78    2.06
  -1 -10  12    6.16    2.63
   1  10  12    3.26    1.58
   1 -10 -12    3.95    2.18
  -1  10 -12    7.42    3.71
   1 -10 -12    2.80    1.51
   1 -10 -13   -5.36    2.96
  -1  10 -13   -1.11    2.57
   1 -10 -13    1.84    1.30
   1  10  13    3.43    2.06
  -1 -10  13   -3.39    2.18
   1  10  13   -0.14    1.15
   1 -10 -14    9.04    3.17
   1  10  14    5.75    2.12
  -1  10 -14    2.76    2.63
  -1 -10  14    2.62    2.01
   1  10  14    4.69    2.14
  -1  10 -15    2.80    2.60
   1  10  15    4.91    2.86
   1 -10 -15    6.72    2.63
  -1 -10  15    8.80    2.82
   1  10  15   12.38    3.22
  -1  10 -16   -0.35    2.13
   1 -10 -16    1.14    1.76
   1  10  16    0.86    1.96
  -1 -10  16    0.64    2.10
   1  10  16   -6.71    3.49
   1  10  17    0.82    1.66
   1 -10 -17    1.83    1.88
   1  10  18    0.78    1.79
   1 -11  17    1.60    1.95
  -1 -11 -16    1.10    2.43
  -1  11  16   -1.34    2.48
   1 -11  16    3.97    2.20
   1  11 -16   -1.79    2.51
  -1  11  15   -0.28    1.96
  -1 -11 -15    4.55    3.12
   1 -11  15   -0.30    1.47
   1  11 -15    2.37    2.58
   1  11 -15    6.34    3.60
   1  11 -14   -0.56    1.78
   1  11 -14   -1.27    2.12
  -1 -11 -14   -1.94    2.81
  -1  11  14   -1.28    1.73
   1 -11  14   -1.32    1.36
   1 -11  13    1.35    1.25
   1  11 -13    1.37    2.17
  -1 -11 -13    1.68    1.91
   1 -11  13    1.84    1.58
  -1  11  13    7.54    2.70
   1  11 -13    7.75    3.35
   1  11 -12   -3.99    2.75
  -1  11  12    3.14    1.93
  -1 -11 -12    0.74    2.03
   1 -11  12   -1.02    1.73
   1 -11  12    0.63    1.08
   1  11 -12    0.01    1.98
   1 -11  11   -0.46    1.34
  -1  11  11    0.81    1.47
   1  11 -11    3.89    2.10
  -1 -11 -11    1.67    1.83
   1 -11  11    1.91    1.26
   1  11 -11   -0.76    2.25
  -1  11  10   14.04    2.89
   1  11 -10   18.20    4.18
  -1 -11 -10   17.81    4.22
   1 -11  10    9.58    2.23
  -1 -11 -10   18.97    4.07
   1 -11  10   12.20    2.53
   1  11 -10   20.40    4.83
  -1  11   9    8.20    2.22
  -1 -11  -9    6.00    2.94
   1 -11   9    7.03    2.09
   1  11  -9    7.76    3.02
   1 -11   9    7.79    1.85
  -1 -11  -9    8.10    2.86
   1  11  -9    9.31    2.82
  -1  11   8    1.75    1.50
   1  11  -8    1.34    1.82
  -1 -11  -8    3.45    2.68
   1 -11   8    1.52    1.14
  -1 -11  -8    1.47    2.21
   1 -11   8   -0.62    1.11
   1  11  -7    5.65    2.09
  -1  11   7    8.97    2.17
   1 -11   7    8.44    1.83
  -1 -11  -7    9.33    2.86
  -1 -11  -7    8.09    3.06
   1 -11   7    9.05    2.04
  -1 -11  -6   24.01    4.01
   1  11  -6   16.62    3.17
   1 -11   6   16.58    2.63
  -1  11   6   17.01    2.72
   1 -11   6   16.68    2.37
  -1 -11  -6   20.27    5.05
   1  11  -5    0.67    1.52
  -1 -11  -5    0.44    1.57
   1 -11   5    2.70    1.23
  -1 -11  -5    1.96    2.84
   1 -11   5    0.63    1.03
  -1  11   5    0.15    1.29
   1  11  -4   16.19    2.79
  -1 -11  -4   13.98    2.90
  -1 -11  -4   16.00    5.05
  -1  11   4   17.96    2.64
   1 -11   4   16.74    2.30
   1 -11   4   14.64    2.45
   1 -11   3   16.15    2.61
  -1 -11  -3   19.72    3.43
  -1  11   3   13.97    1.74
   1 -11   3   20.08    2.53
   1  11  -3   15.09    2.59
  -1 -11  -3   20.73    5.98
  -1  11   3   15.96    2.54
   1 -11   2   14.78    2.59
  -1 -11  -2   13.75    2.82
  -1  11   2   18.05    2.51
  -1  11   2   13.61    2.01
   1  11  -2   16.93    2.72
   1 -11   2   16.06    2.22
  -1 -11  -2   16.72    6.98
   1  11  -1    5.13    1.40
  -1  11   1    5.09    1.55
  -1  11   1    3.53    1.33
   1  11  -1    4.00    1.44
  -1 -11  -1    3.62    1.44
   1 -11   1    5.42    1.81
  -1 -11  -1    4.54    1.95
  -1 -11  -1   -0.53    4.25
  -1 -11   0   10.33    2.11
  -1  11   0    8.66    1.95
  -1 -11   0   12.28    2.48
   1  11   0    9.77    1.72
  -1  11   0   10.32    2.16
   1 -11   0    9.81    2.29
   1  11   0    5.58    1.54
  -1  11   0    8.99    1.23
  -1  11  -1    4.43    1.05
  -1  11  -1    3.78    1.67
  -1  11  -1    5.01    1.74
   1  11   1    4.67    1.57
  -1 -11   1    4.81    1.55
   1 -11  -1    5.38    1.72
  -1 -11   1    6.65    1.95
   1  11   1    5.39    1.35
  -1  11  -2   16.15    2.04
  -1 -11   2   17.86    2.80
  -1  11  -2   16.94    2.57
   1 -11  -2   15.66    2.79
  -1 -11   2   15.80    2.57
   1  11   2   16.25    2.37
  -1  11  -2   14.72    2.87
   1  11   2   14.77    1.98
  -1 -11   2   13.29    5.73
   1 -11  -3   17.38    2.98
  -1  11  -3   17.67    2.66
  -1 -11   3   22.24    2.93
   1  11   3   18.36    2.27
  -1 -11   3   16.55    2.64
   1  11   3   20.48    2.59
  -1  11  -3   16.66    2.44
  -1  11  -3   17.80    3.22
  -1 -11   3   21.13    6.81
  -1  11  -4   14.08    2.52
  -1 -11   4   17.04    2.82
   1 -11  -4   17.83    3.22
   1  11   4   18.95    2.35
  -1  11  -4   18.91    3.60
   1  11   4   15.92    2.27
  -1 -11   4   18.59    2.53
  -1 -11   4   21.21    6.19
   1  11   5    1.14    1.04
  -1 -11   5    3.14    4.09
  -1  11  -5    0.23    1.95
  -1  11  -5    0.44    1.29
   1  11   5    1.47    1.08
   1  11   5    1.83    1.02
   1 -11  -5   -2.18    2.07
  -1 -11   5   -1.25    1.42
   1  11   6   18.91    2.54
   1  11   6   18.68    2.51
  -1  11  -6   21.97    4.25
   1 -11  -6   21.59    3.56
  -1 -11   6   19.49    4.97
  -1  11  -6   18.00    3.31
  -1 -11   6   18.92    2.95
  -1  11  -7   11.21    3.31
   1  11   7    9.83    2.04
  -1  11  -7    9.20    3.17
  -1 -11   7    6.92    2.06
   1 -11  -7    9.13    2.67
  -1 -11   7    9.70    3.44
   1  11   7    9.94    1.87
   1  11   8    1.25    1.19
  -1  11  -8    2.75    2.47
   1  11   8    0.77    0.97
  -1 -11   8    1.82    1.69
  -1 -11   8    2.10    2.37
  -1  11  -8    4.23    2.78
   1 -11  -8    2.00    1.75
   1  11   9    7.66    1.91
   1  11   9    7.12    1.94
  -1  11  -9    6.99    3.05
  -1 -11   9    4.89    1.89
  -1 -11   9    3.80    1.82
  -1  11  -9    7.13    3.19
   1 -11  -9    9.31    2.64
   1  11  10   16.14    2.88
  -1  11 -10   15.93    4.07
   1 -11 -10   18.26    3.82
  -1  11 -10   16.77    4.55
   1 -11 -10   17.79    2.65
   1  11  10   14.10    2.63
  -1 -11  10   21.06    4.10
  -1 -11  10   16.81    3.12
   1 -11 -11    3.04    2.21
  -1  11 -11    5.37    3.04
   1  11  11    3.16    1.78
  -1 -11  11    3.62    2.08
  -1 -11  11   -0.65    1.88
   1 -11 -11    0.16    1.16
   1  11  11   -1.23    1.60
   1 -11 -12   -1.11    2.14
  -1  11 -12    3.25    3.28
   1 -11 -12    1.17    1.22
   1  11  12    3.49    1.98
  -1 -11  12   -1.79    1.85
   1  11  12    0.97    1.42
   1  11  13    2.83    1.92
  -1  11 -13    3.81    3.38
   1 -11 -13    2.95    1.96
  -1 -11  13    3.80    2.09
   1  11  13    1.71    1.84
   1  11  14    4.10    2.23
  -1  11 -14   -3.48    3.18
   1 -11 -14    3.79    2.32
  -1 -11  14   -0.15    1.81
   1  11  14    3.06    2.00
  -1  11 -15   -1.09    2.65
   1  11  15   -1.34    2.08
  -1 -11  15    3.90    2.45
   1 -11 -15   -3.24    2.51
   1  11  15    3.25    2.45
   1  11  16    0.78    1.66
   1 -11 -16   -1.46    2.09
   1  11  16   -0.97    1.79
  -1  11 -16   -1.11    2.78
  -1 -11  16   -0.01    1.63
   1  11  17    2.85    2.59
   1 -12  16    1.53    1.68
   1  12 -15   -0.29    2.49
   1 -12  15    2.74    1.87
  -1  12  15    0.26    1.48
  -1 -12 -15   -3.04    3.02
   1  12 -14    0.79    3.04
  -1 -12 -14    0.33    2.63
  -1  12  14    5.09    2.55
   1 -12  14    3.31    1.97
  -1  12  13    2.45    2.16
  -1 -12 -13    2.48    2.36
   1 -12  13    4.80    2.11
   1  12 -13    7.77    3.36
   1 -12  12    0.11    0.99
   1  12 -12    0.96    2.43
  -1  12  12    0.27    1.27
  -1 -12 -12    0.18    1.82
   1 -12  12    3.87    1.91
   1 -12  11    0.19    1.25
  -1  12  11    1.78    1.85
  -1 -12 -11    4.47    2.83
   1 -12  11   -0.74    1.52
   1  12 -11    1.82    2.48
  -1 -12 -10   19.26    4.46
   1 -12  10   17.30    3.11
   1  12 -10   13.71    3.86
  -1  12  10   17.07    3.13
   1 -12  10   20.48    3.11
  -1 -12 -10   21.13    4.57
  -1 -12  -9    2.40    1.96
  -1  12   9    2.36    1.68
  -1 -12  -9    5.26    2.99
   1  12  -9    4.47    2.68
   1 -12   9    1.31    1.22
   1 -12   9    4.75    1.87
   1  12  -8    8.14    2.55
  -1 -12  -8   12.00    3.26
  -1 -12  -8   11.51    3.55
   1 -12   8   11.91    2.60
   1 -12   8   10.38    2.24
  -1  12   8   11.88    2.62
  -1 -12  -7    4.97    2.62
   1  12  -7    2.75    2.06
  -1  12   7    4.48    2.06
   1 -12   7    4.08    1.63
   1 -12   7    2.77    1.29
  -1 -12  -7    2.23    2.70
   1 -12   6   36.64    4.01
  -1  12   6   35.58    3.90
  -1 -12  -6   43.93    5.67
   1 -12   6   34.90    3.53
  -1 -12  -6   38.68    6.77
   1  12  -6   34.02    4.36
   1 -12   5    5.14    1.65
  -1  12   5    5.56    1.85
   1  12  -5    6.19    2.35
  -1 -12  -5    7.14    2.39
   1 -12   5    7.45    1.78
  -1 -12  -5    8.29    4.05
   1 -12   4   39.42    4.06
   1  12  -4   38.86    4.32
  -1  12   4   41.58    4.01
   1 -12   4   37.63    3.61
  -1 -12  -4   37.31    4.63
  -1 -12  -4   29.61    6.45
   1 -12   3    4.82    1.78
  -1 -12  -3    2.39    1.68
   1  12  -3    2.35    1.56
   1 -12   3    2.43    1.13
  -1  12   3    3.38    1.65
   1 -12   2    3.18    1.53
  -1 -12  -2    5.69    2.27
   1  12  -2    3.06    1.14
   1  12  -2    3.63    1.37
  -1  12   2    2.59    1.55
   1 -12   2    5.07    1.53
  -1 -12  -2    3.61    4.53
  -1  12   1    6.47    1.63
  -1  12   1    4.32    1.61
  -1 -12  -1    7.04    2.24
   1  12  -1    4.41    1.66
  -1 -12  -1    0.01    3.37
   1  12  -1    3.39    1.13
   1 -12   1    3.76    1.51
  -1  12   0   92.91    5.98
   1 -12   0  109.24    6.94
  -1 -12   0  110.35    6.36
  -1 -12   0  104.43    7.19
  -1  12   0  101.76    6.07
   1  12   0  101.83    5.53
   1  12   0  100.59    6.05
   1 -12  -1    6.19    2.09
  -1  12  -1    7.17    2.16
  -1  12  -1    7.73    1.98
   1  12   1    4.67    1.36
   1  12   1    5.70    1.58
  -1 -12   1    6.81    4.91
  -1  12  -1    4.40    1.04
  -1 -12   1    2.69    1.51
  -1 -12   1    5.50    1.76
  -1  12  -2    5.38    1.18
  -1  12  -2    4.85    2.21
  -1 -12   2    4.65    1.78
  -1  12  -2    4.93    1.72
   1  12   2    4.27    1.31
   1  12   2    3.69    1.28
  -1 -12   2    4.49    1.74
   1 -12  -2    2.93    1.78
  -1 -12   2    7.54    5.08
  -1 -12   3    2.22    1.64
  -1 -12   3    2.68    1.44
   1  12   3    0.54    0.90
  -1  12  -3    3.19    1.67
   1 -12  -3   -0.43    1.62
   1  12   3    3.59    1.20
  -1  12  -3    2.54    1.12
  -1  12  -3    3.37    1.73
  -1 -12   3    6.38    5.16
  -1  12  -4   43.95    5.22
   1  12   4   36.87    3.55
   1  12   4   38.02    3.45
  -1 -12   4   33.43    3.84
  -1 -12   4   35.70    7.52
  -1  12  -4   36.36    3.70
   1 -12  -4   41.66    4.74
   1  12   5    6.86    1.73
  -1  12  -5    3.67    1.83
   1 -12  -5    8.28    2.33
   1  12   5    5.99    1.47
  -1 -12   5    6.24    2.15
   1  12   5    3.75    1.36
  -1 -12   5    4.05    3.50
  -1  12  -5    5.13    1.83
  -1  12  -6   40.67    5.41
   1  12   6   37.74    3.59
  -1 -12   6   35.39    4.04
  -1 -12   6   36.04    6.45
   1  12   6   33.98    3.61
  -1  12  -6   40.62    4.88
   1  12   6   40.47    3.68
   1 -12  -6   35.25    4.56
   1  12   7    2.71    1.46
  -1  12  -7    2.61    1.87
   1  12   7    2.28    1.26
  -1  12  -7    4.60    2.21
   1 -12  -7    3.13    1.96
  -1 -12   7    4.33    1.88
  -1 -12   7    0.70    2.56
   1  12   7    1.69    1.22
   1  12   8    9.10    2.02
   1 -12  -8   10.07    2.83
  -1  12  -8    9.85    3.54
  -1  12  -8   13.07    3.24
  -1 -12   8    7.55    2.27
  -1 -12   8   11.09    3.54
   1  12   8   12.70    2.38
  -1  12  -9    0.35    2.24
   1  12   9    1.95    1.35
   1 -12  -9    2.17    2.53
   1  12   9    2.96    1.53
  -1 -12   9    2.47    1.71
  -1 -12   9    9.10    3.31
  -1  12  -9    1.02    2.14
   1 -12 -10   18.49    4.08
   1  12  10   18.94    2.95
  -1 -12  10   17.02    3.27
  -1 -12  10   15.95    3.76
   1 -12 -10   18.48    2.79
   1  12  10   22.51    3.40
  -1  12 -10   21.47    4.72
  -1  12 -10   19.84    4.41
  -1  12 -11    2.90    2.43
   1  12  11    1.29    1.54
   1 -12 -11   -1.38    2.30
   1  12  11    3.39    1.75
  -1  12 -11    0.59    3.00
  -1 -12  11   -1.40    1.93
  -1 -12  11   -0.26    1.48
   1 -12 -11    0.55    1.05
   1  12  12   -2.05    1.84
   1  12  12   -0.95    1.44
  -1 -12  12   -0.33    1.18
   1 -12 -12    0.46    1.88
  -1  12 -12    4.67    3.03
   1  12  13    3.65    1.95
  -1  12 -13    5.40    3.53
   1 -12 -13    0.19    2.11
   1  12  13    1.80    1.57
  -1 -12  13    2.69    2.06
   1  12  14    2.73    1.68
   1  12  14    2.48    1.78
  -1 -12  14    4.69    2.18
   1 -12 -14    0.44    2.12
  -1  12 -14    4.38    3.03
   1  12  15    6.36    2.70
   1 -12 -15    0.41    2.15
  -1 -12  15    2.51    1.96
  -1  12 -15   -0.66    2.12
   1 -13  15    5.35    2.29
   1 -13  14   -1.45    1.84
   1  13 -14    3.16    3.12
  -1  13  14    0.24    1.62
  -1 -13 -14    1.32    2.11
  -1 -13 -13   -0.27    2.45
  -1  13  13    2.28    2.06
   1 -13  13    3.60    1.95
   1  13 -13   -3.64    2.51
  -1  13  12   -2.44    1.85
  -1 -13 -12    1.75    2.56
   1 -13  12    0.04    1.11
   1  13 -12    0.84    1.85
   1 -13  11   -0.34    1.35
   1  13 -11   -0.37    1.76
  -1 -13 -11    0.53    2.25
   1 -13  11    1.66    1.44
  -1  13  11    0.30    1.50
  -1 -13 -10    2.26    1.86
   1  13 -10    0.56    1.76
  -1  13  10    4.05    1.99
   1 -13  10    4.34    1.77
  -1 -13 -10    3.47    2.34
   1 -13  10    1.83    1.24
   1 -13   9    3.00    1.32
   1 -13   9    4.62    1.54
  -1  13   9    8.09    2.25
  -1 -13  -9    8.16    3.29
  -1 -13  -9    7.04    3.17
   1  13  -9   10.52    3.39
   1  13  -8    0.46    2.33
  -1  13   8    0.46    1.25
   1 -13   8    0.21    1.06
   1 -13   8    1.78    1.46
  -1 -13  -8   -0.97    2.55
  -1 -13  -8   -3.56    2.92
   1 -13   7    5.23    1.87
  -1  13   7    3.98    1.68
  -1 -13  -7    3.93    2.03
   1 -13   7    7.87    2.00
  -1 -13  -7    7.45    3.17
   1  13  -7    4.08    2.05
   1 -13   6    4.38    1.49
   1 -13   6    2.84    1.50
   1  13  -6    2.66    1.84
  -1  13   6    3.66    1.79
  -1 -13  -6   -1.95    4.17
  -1 -13  -6    3.50    1.93
   1 -13   5    1.17    1.28
  -1 -13  -5    4.45    3.81
  -1  13   5    3.84    1.47
  -1 -13  -5    2.75    2.13
   1  13  -5    3.97    2.17
   1 -13   5    1.75    1.29
  -1  13   4    1.00    1.12
   1 -13   4    2.83    1.64
  -1 -13  -4    4.17    2.27
   1  13  -4    3.45    1.67
   1 -13   4    3.06    1.72
  -1 -13  -4    1.22    4.34
  -1  13   3    9.63    2.27
   1 -13   3    9.75    2.27
  -1 -13  -3    9.40    2.68
   1  13  -3   10.38    2.39
   1 -13   3   13.50    2.42
  -1 -13  -3    9.81    5.15
   1  13  -2    2.96    1.51
  -1  13   2    4.30    1.81
   1  13  -2    4.18    1.68
   1 -13   2    3.23    1.55
  -1 -13  -2    0.49    1.42
   1 -13   2    1.28    1.28
  -1 -13  -2    3.29    3.80
   1  13  -1    1.29    1.42
   1  13  -1    2.55    1.29
   1 -13   1    2.34    1.65
  -1 -13  -1    2.72    1.93
  -1  13   1    1.47    1.36
  -1 -13   0    0.77    1.35
  -1  13   0    1.48    1.39
   1  13   0    0.36    0.92
   1  13   0    2.97    1.48
  -1  13   0   -0.55    1.36
  -1 -13   0    3.44    1.66
   1 -13   0    1.45    1.49
  -1 -13   1    3.27    1.62
   1 -13  -1    3.16    1.84
  -1 -13   1    2.42    1.64
  -1  13  -1    3.61    1.58
   1  13   1    3.39    1.33
   1  13   1    1.37    1.09
  -1  13  -1    1.85    1.41
  -1 -13   1   -0.70    4.69
  -1  13  -2    2.66    1.47
   1  13   2    0.93    1.07
  -1 -13   2    4.38    1.97
   1  13   2    2.49    1.32
   1 -13  -2    0.43    1.41
  -1 -13   2    0.27    4.09
  -1 -13   2    0.00    1.36
  -1  13  -2    3.01    1.78
   1  13   3    9.81    1.99
  -1  13  -3   12.61    2.58
  -1  13  -3    9.07    1.70
  -1  13  -3    9.59    2.52
   1  13   3   11.63    2.18
  -1 -13   3    9.79    2.38
   1 -13  -3   12.18    2.99
  -1 -13   3   13.51    5.74
   1 -13  -4    2.48    1.98
  -1  13  -4    1.80    1.29
  -1  13  -4    3.53    2.19
  -1  13  -4    1.65    1.50
   1  13   4    3.60    1.53
   1  13   4    1.26    1.12
  -1 -13   4    2.02    1.88
  -1 -13   4    1.01    2.29
   1  13   5    3.23    1.28
  -1  13  -5    3.06    1.44
  -1  13  -5    4.11    2.37
   1 -13  -5    3.33    1.61
  -1 -13   5    4.96    2.11
   1  13   5    4.31    1.52
   1  13   5    3.12    1.33
  -1 -13   5    4.55    3.42
   1  13   6    3.93    1.47
  -1  13  -6    3.83    2.32
   1 -13  -6    7.27    2.82
   1  13   6    4.24    1.47
  -1 -13   6    4.32    1.94
   1  13   6    4.30    1.51
  -1 -13   6    4.96    3.23
  -1  13  -6    3.90    1.88
   1  13   7    6.03    1.82
  -1  13  -7    4.52    2.31
   1 -13  -7    9.13    2.86
  -1  13  -7    4.89    2.13
   1  13   7    6.33    1.93
  -1 -13   7    8.78    3.76
   1  13   7    5.04    1.65
  -1 -13   7    5.88    2.05
   1  13   8    1.12    1.12
  -1  13  -8   -0.94    1.68
   1 -13  -8   -0.18    2.04
   1  13   8    0.15    0.93
  -1 -13   8    0.57    1.57
  -1  13  -8   -2.31    2.33
  -1 -13   8    0.57    1.83
   1  13   8   -0.49    0.87
   1  13   9    6.89    1.99
   1  13   9    5.12    1.59
  -1 -13   9   10.03    3.33
   1 -13  -9    4.96    2.25
  -1 -13   9    5.14    2.20
  -1  13  -9    8.94    3.38
  -1  13  -9    3.44    2.13
  -1 -13  10    1.51    1.74
   1 -13 -10    3.48    2.29
   1  13  10    6.06    2.03
  -1 -13  10    5.86    2.81
  -1  13 -10    3.00    2.42
   1  13  10    1.05    1.07
  -1  13 -10    2.42    2.02
   1  13  11   -2.22    1.61
   1  13  11   -1.93    1.45
   1 -13 -11    3.17    2.06
  -1 -13  11   -1.14    1.44
  -1  13 -11   -0.53    2.31
  -1  13 -11   -2.75    2.85
   1  13  12    5.55    2.33
   1 -13 -12    0.77    1.92
   1  13  12    1.22    1.40
  -1 -13  12    1.59    1.87
  -1  13 -12    1.30    2.03
  -1 -13  13    3.71    2.25
   1 -13 -13    0.58    2.20
   1  13  13    2.32    1.79
  -1  13 -13   -0.35    2.02
   1  13  13    7.76    2.60
  -1  13 -14   -4.69    2.94
   1 -13 -14    0.78    1.98
  -1 -13  14   -0.62    2.36
   1 -14  14   -3.25    1.86
   1  14 -13    4.03    2.70
  -1  14  13    1.75    2.15
  -1 -14 -13   -1.23    2.76
   1  14 -12    3.44    2.81
  -1 -14 -12    5.30    2.48
   1 -14  12    2.74    1.66
  -1  14  12    7.17    2.63
   1  14 -11    6.43    2.75
  -1  14  11    5.50    1.96
  -1 -14 -11   10.02    3.34
   1 -14  11    5.00    1.97
  -1  14  10    1.81    1.80
   1 -14  10    0.17    1.60
  -1 -14 -10    0.20    1.97
  -1 -14 -10   -0.07    1.89
   1 -14  10    1.69    1.57
   1  14 -10   -0.26    2.48
   1 -14   9    1.59    1.22
  -1 -14  -9    1.64    2.34
  -1 -14  -9    4.12    2.64
   1 -14   9    2.54    1.38
   1  14  -9    0.70    2.04
  -1  14   9    3.21    1.98
  -1  14   8   11.51    2.86
  -1 -14  -8   11.91    3.71
   1 -14   8    9.25    2.47
   1 -14   8   10.30    2.25
  -1 -14  -8    7.01    3.09
   1  14  -8    6.95    2.65
   1  14  -7   13.29    3.41
  -1 -14  -7   16.72    4.02
  -1  14   7   11.51    2.49
   1 -14   7    7.88    2.03
   1 -14   7    8.95    2.20
   1 -14   6    9.13    2.06
   1 -14   6    8.65    2.16
   1  14  -6    7.74    2.46
  -1 -14  -6    6.97    2.45
  -1  14   6    6.68    2.10
  -1 -14  -6    6.29    3.46
  -1 -14  -5   14.13    3.43
   1  14  -5   13.81    3.12
   1 -14   5   16.48    2.84
   1 -14   5   14.42    2.73
  -1 -14  -5   18.68    5.85
  -1  14   5   13.68    2.75
   1 -14   4    7.42    2.16
  -1  14   4    4.93    1.70
  -1 -14  -4    5.27    2.51
   1  14  -4    6.13    2.09
   1 -14   4    4.26    1.42
  -1 -14  -4    4.09    3.71
   1 -14   3   13.13    2.62
  -1  14   3   12.54    2.50
  -1 -14  -3   15.38    3.48
   1 -14   3   12.86    2.42
   1  14  -3   14.23    2.97
   1  14  -3   14.36    2.58
  -1 -14  -3   16.86    5.68
   1  14  -2   29.43    3.47
  -1  14   2   31.77    3.75
  -1 -14  -2   28.08    4.61
   1  14  -2   22.99    3.42
  -1 -14  -2   31.46    8.10
   1 -14   2   23.17    3.55
  -1 -14  -1   17.52    3.56
   1  14  -1   18.08    2.62
   1  14  -1   18.07    2.97
   1 -14   1   17.28    3.12
  -1  14   1   18.86    3.04
  -1 -14  -1   11.35    5.00
   1  14   0    1.11    1.21
  -1 -14   0   -0.74    1.41
   1 -14   0   -0.02    1.50
  -1 -14   0   -1.24    2.52
  -1  14   0    0.02    1.34
   1  14   0   -0.22    1.10
  -1 -14   1   18.04    3.16
  -1 -14   1   21.86    3.83
   1  14   1   18.85    2.68
   1  14   1   18.09    2.94
   1 -14  -1   23.63    3.82
  -1  14  -1   14.17    2.56
  -1 -14   1   19.16    6.32
  -1  14  -2   25.87    3.52
  -1 -14   2   29.65    3.76
   1  14   2   24.50    3.23
   1 -14  -2   32.95    4.38
   1  14   2   25.21    3.02
  -1 -14   2   30.07    7.83
  -1  14  -3   14.99    3.06
   1 -14  -3   12.51    3.16
  -1  14  -3   14.30    2.77
   1  14   3   11.23    2.40
  -1 -14   3   12.23    2.65
  -1 -14   3   18.96    6.21
   1  14   3   16.18    2.56
   1 -14  -4    8.55    2.54
  -1  14  -4    9.10    2.39
   1  14   4    8.11    2.00
   1  14   4    5.13    1.62
  -1 -14   4    6.58    2.14
  -1  14  -4    7.92    2.71
   1  14   5   17.00    2.64
  -1  14  -5   11.79    2.57
  -1  14  -5   13.11    3.42
   1  14   5   15.73    2.56
   1 -14  -5   15.69    3.45
  -1 -14   5   17.37    3.27
   1  14   5   14.91    2.52
  -1 -14   5   22.71    6.02
   1  14   6    7.25    1.86
   1  14   6    9.41    2.11
  -1  14  -6    9.35    2.39
  -1 -14   6    5.71    3.65
  -1 -14   6   12.04    2.81
   1  14   6    4.62    1.51
   1 -14  -6   11.05    2.98
  -1  14  -6   10.78    3.17
   1  14   7   12.89    2.55
   1 -14  -7   18.08    3.75
   1  14   7   12.28    2.48
  -1  14  -7   12.79    3.39
  -1 -14   7    8.17    2.32
  -1  14  -7    9.46    2.51
   1  14   7   14.55    2.47
  -1 -14   7   12.51    4.22
   1  14   8   11.46    2.38
   1 -14  -8    9.93    3.21
  -1  14  -8   14.30    3.55
   1  14   8    7.55    2.13
  -1 -14   8    9.63    2.61
  -1 -14   8    9.56    3.96
   1  14   8    8.39    2.07
  -1  14  -8    9.06    3.22
   1  14   9    0.43    1.36
  -1  14  -9   -1.52    2.63
   1 -14  -9   -0.67    2.04
  -1  14  -9    6.35    2.66
   1  14   9    2.14    1.55
   1  14   9    2.76    1.36
  -1 -14   9    1.08    1.43
  -1 -14   9    0.69    1.88
   1 -14 -10    1.64    2.02
  -1  14 -10    2.62    2.02
   1  14  10    0.26    1.38
   1  14  10    1.13    1.18
  -1 -14  10    2.32    1.61
  -1 -14  10   -3.11    2.37
   1  14  10    1.22    1.27
  -1  14 -10    0.92    2.35
   1  14  11    9.05    2.49
  -1  14 -11   12.35    3.61
   1  14  11    6.63    2.25
  -1 -14  11    9.91    3.08
   1 -14 -11    5.32    2.37
  -1  14 -11    3.04    2.54
   1  14  12    0.50    1.57
  -1  14 -12    0.55    2.13
  -1 -14  12    4.39    2.13
   1 -14 -12    6.90    3.17
  -1 -14  13    0.04    1.70
   1 -14 -13   -0.55    2.31
  -1  14 -13   -5.97    3.54
  -1  14 -14   -0.62    2.75
   1  15 -12   -0.83    2.27
  -1  15  12    2.04    1.71
  -1 -15 -12    4.85    2.37
   1 -15  12    2.50    1.72
   1  15 -11    2.37    2.38
  -1  15  11    3.64    2.30
   1 -15  11    0.77    1.27
  -1 -15 -11   -1.65    2.25
   1  15 -10    4.69    2.56
  -1  15  10    0.09    1.29
  -1 -15 -10    0.76    2.23
  -1 -15 -10   -1.36    2.53
   1 -15  10   -0.20    1.11
  -1  15   9    2.50    1.83
  -1 -15  -9   -1.43    2.87
  -1 -15  -9    5.64    3.24
   1 -15   9    2.92    1.80
   1  15  -9    0.54    1.85
   1  15  -8   13.48    3.75
  -1  15   8   13.07    3.12
  -1 -15  -8   12.87    3.94
  -1 -15  -8   11.21    4.34
   1 -15   8    8.00    2.13
   1 -15   8    7.38    2.30
   1  15  -7    0.16    1.80
  -1  15   7   -1.15    1.44
  -1 -15  -7    3.31    2.71
   1 -15   7   -0.70    1.27
   1 -15   7   -2.21    1.91
  -1 -15  -7    3.61    2.99
   1 -15   6    7.11    2.09
  -1 -15  -6   13.51    3.90
   1  15  -6    8.65    2.81
   1 -15   6    3.85    1.79
  -1 -15  -6    9.14    4.74
  -1  15   6    7.02    2.31
  -1  15   5    2.85    2.00
  -1 -15  -5    1.49    1.87
   1  15  -5    0.88    1.43
   1 -15   5    0.31    1.19
   1 -15   5    2.06    1.58
  -1 -15  -5    6.76    4.60
   1 -15   4    1.00    1.48
  -1  15   4    8.54    2.35
   1  15  -4    5.31    1.97
   1 -15   4    2.08    1.53
  -1 -15  -4    5.93    4.10
  -1 -15  -4    6.57    2.46
   1  15  -4    5.43    1.94
   1  15  -3    1.61    1.13
  -1  15   3    3.55    1.60
   1  15  -3    4.21    1.90
   1 -15   3    2.53    1.65
  -1 -15  -3    5.08    4.84
  -1  15   2   26.72    3.63
   1 -15   2   22.90    3.67
  -1 -15  -2   31.94    5.26
   1  15  -2   24.18    3.66
  -1 -15  -2   35.32    8.52
   1  15  -2   24.02    3.25
  -1 -15  -1   -3.26    5.02
  -1  15   1    1.31    1.53
   1  15  -1   -1.05    1.29
   1  15  -1    1.13    1.27
  -1 -15  -1    1.75    1.75
   1 -15   1    3.29    1.79
  -1  15   0    0.53    1.17
   1  15   0    2.09    1.24
   1  15   0    1.05    1.28
   1 -15   0    1.67    1.63
  -1 -15   0   -2.59    3.91
  -1  15  -1    3.15    1.75
   1  15   1    2.36    1.36
   1  15   1    3.83    1.62
   1 -15  -1    5.12    2.40
  -1 -15   1    4.77    4.51
  -1 -15   1   -0.54    1.60
  -1  15  -2   23.80    3.51
   1  15   2   23.76    3.13
  -1 -15   2   25.08    3.70
  -1 -15   2   26.20    6.96
   1 -15  -2   24.36    4.02
   1  15   2   20.47    3.10
  -1  15  -3    1.10    1.42
   1 -15  -3    3.47    2.24
   1  15   3    2.81    1.55
  -1 -15   3    1.72    3.58
   1  15   3    3.09    1.59
  -1 -15   3    5.25    2.05
   1 -15  -4    9.64    2.97
   1  15   4    6.72    1.91
  -1  15  -4    3.16    1.63
   1  15   4    3.90    1.61
  -1 -15   4    6.43    2.19
  -1 -15   4   11.59    5.15
   1  15   5    1.50    1.14
   1 -15  -5   -1.44    2.08
  -1  15  -5    3.29    1.99
  -1  15  -5    5.42    2.07
   1  15   5    1.37    1.31
  -1 -15   5    0.13    1.47
  -1 -15   5    0.32    2.15
   1  15   5   -1.32    1.37
   1  15   6    6.52    1.90
   1 -15  -6    8.32    3.19
  -1  15  -6    5.50    2.37
   1  15   6    6.82    1.95
  -1 -15   6    6.47    2.21
   1  15   6    6.70    1.85
  -1  15  -6    2.72    1.75
   1  15   7    0.88    0.98
   1 -15  -7    0.40    2.35
  -1  15  -7    3.27    2.34
   1  15   7    2.71    1.66
  -1 -15   7    3.01    1.74
   1  15   7   -0.13    1.10
  -1 -15   7    0.74    2.88
  -1 -15   8    7.93    2.42
   1  15   8   11.00    2.50
  -1  15  -8    8.80    3.05
   1  15   8   12.37    2.58
   1 -15  -8    9.38    3.08
  -1 -15   8    9.45    3.69
   1  15   8    6.69    1.94
  -1  15  -9    4.54    2.94
  -1  15  -9    2.03    2.04
   1  15   9    1.71    1.38
  -1 -15   9   -0.42    2.43
   1 -15  -9    4.85    2.55
  -1 -15   9    0.83    1.20
  -1  15 -10    2.37    2.18
   1 -15 -10    0.39    1.69
  -1  15 -10   -1.41    2.01
   1  15  10   -0.86    1.55
  -1 -15  10    2.64    1.69
  -1 -15  10    1.05    2.15
   1 -15 -11   -1.25    2.34
  -1  15 -11    0.52    1.69
   1 -15 -11    0.54    1.69
  -1 -15  11   -0.16    1.80
  -1  15 -11   -2.75    2.58
  -1  15 -12    6.34    3.17
  -1 -15  12    2.72    1.96
  -1  15 -13    3.66    2.79
   1 -16  11    0.77    1.43
   1  16 -10    2.65    2.36
  -1  16  10    1.03    1.47
  -1 -16 -10    2.71    2.86
  -1 -16 -10   -1.25    2.19
   1 -16  10   -0.99    1.36
  -1  16   9   -2.27    2.11
   1  16  -9   -0.04    1.69
  -1 -16  -9    1.18    1.76
  -1 -16  -9    1.08    2.53
   1 -16   9   -3.08    1.83
   1  16  -8    0.48    1.86
  -1  16   8    3.73    2.21
  -1 -16  -8    0.03    2.20
   1 -16   8    3.32    1.54
   1  16  -7    4.29    2.54
   1 -16   7    1.98    1.71
  -1  16   7    1.72    1.87
  -1 -16  -7   -0.84    2.41
   1 -16   7    0.23    1.28
  -1 -16  -7    5.73    4.16
   1  16  -6    0.67    1.97
  -1  16   6   -1.46    1.85
  -1 -16  -6    2.25    2.57
   1 -16   6   -0.71    1.23
   1 -16   6    2.47    1.90
  -1 -16  -6    7.27    4.57
   1  16  -5   -1.03    1.52
  -1  16   5    1.98    1.42
   1  16  -5    0.21    1.72
  -1 -16  -5    4.95    2.95
   1 -16   5    1.14    1.73
   1 -16   5    1.83    1.35
  -1 -16  -4    2.76    2.12
  -1  16   4   -0.83    1.62
   1  16  -4    0.44    1.78
   1 -16   4    3.99    1.90
   1 -16   4   -0.11    1.17
  -1 -16  -4    1.06    3.93
   1  16  -4    1.28    1.54
   1 -16   3   -0.66    1.65
   1  16  -3    2.78    1.79
  -1  16   3    4.11    1.78
  -1 -16  -3    2.57    4.11
   1  16  -3    4.06    1.91
   1  16  -2    1.46    1.51
  -1 -16  -2   -1.12    1.81
  -1  16   2   -1.37    1.92
   1 -16   2   -2.32    1.79
  -1 -16  -2    3.11    3.31
   1  16  -2    1.53    1.15
   1  16  -1   -1.12    1.21
   1 -16   1   -1.51    1.93
  -1  16   1    0.83    1.20
   1  16  -1    2.77    1.81
  -1 -16  -1    1.76    4.17
  -1  16   0    1.39    1.74
   1 -16   0    1.79    1.60
  -1 -16   0    3.53    4.75
   1  16   0    2.27    1.46
   1  16   0   -0.12    1.14
  -1  16  -1   -0.73    1.63
   1  16   1    1.23    1.19
   1 -16  -1    3.94    2.13
   1  16   1    0.29    1.09
  -1 -16   1    0.15    3.80
  -1  16  -2    0.27    1.50
   1 -16  -2   -1.55    1.95
   1  16   2    2.38    1.42
   1  16   2    1.67    1.16
  -1 -16   2    0.81    1.59
  -1  16  -3    0.43    1.41
   1  16   3    2.48    1.28
   1  16   3    4.09    1.56
  -1 -16   3    3.71    1.95
   1 -16  -3    1.27    2.25
  -1 -16   3    3.79    4.20
   1  16   4    3.83    1.55
  -1  16  -4    1.38    1.73
   1  16   4    1.43    1.22
   1 -16  -4    2.95    2.15
   1  16   4    0.44    1.13
  -1 -16   4    3.58    1.89
  -1 -16   4    4.86    3.66
  -1  16  -5    0.43    1.78
   1  16   5    2.63    1.48
   1 -16  -5    0.44    1.36
   1  16   5    0.71    1.23
   1  16   5    1.00    1.26
  -1 -16   5   -0.49    1.16
  -1 -16   5    2.96    3.04
   1  16   6    1.52    1.32
   1  16   6    1.48    1.45
  -1  16  -6   -1.96    2.24
   1  16   6    2.04    1.50
  -1 -16   6   -0.21    1.68
  -1 -16   6    1.56    3.07
   1 -16  -6    2.95    2.61
   1  16   7    2.80    1.82
  -1  16  -7    0.47    1.47
   1 -16  -7   -0.34    2.11
  -1 -16   7    0.99    1.48
  -1 -16   7   -0.41    2.30
  -1  16  -8    1.80    1.91
   1 -16  -8    1.58    2.22
   1  16   8    4.25    1.88
  -1 -16   8   -0.91    1.30
  -1 -16   8    0.43    2.44
   1 -16  -9    1.62    2.05
   1  16   9    3.71    1.74
  -1  16  -9    0.15    1.73
  -1 -16   9    4.97    2.21
  -1 -16   9   -0.41    2.13
  -1  16 -10   -0.19    1.51
   1 -16 -10    0.29    2.44
  -1 -16  10   -5.78    3.13
  -1 -16  10   -0.25    1.69
  -1  16 -11    4.41    2.49
   1  17  -9    4.29    2.24
  -1  17   9   -3.83    2.59
  -1 -17  -9    1.94    2.81
  -1 -17  -9   -1.09    2.55
   1 -17   9   -1.88    1.44
   1  17  -8   -4.57    2.95
  -1  17   8    4.02    2.17
  -1 -17  -8    5.72    3.63
  -1 -17  -8   -1.53    3.78
   1 -17   8    3.43    1.67
   1  17  -7   -0.81    1.97
  -1  17   7    4.46    2.28
  -1 -17  -7   -2.03    2.94
   1 -17   7    5.40    2.07
  -1 -17  -7    0.07    4.03
   1  17  -6    1.49    1.66
   1  17  -6    2.15    2.25
  -1  17   6    7.01    2.44
  -1 -17  -6    2.97    2.40
   1 -17   6    4.77    1.78
  -1 -17  -6    3.17    3.55
  -1  17   5    6.72    2.40
   1  17  -5    3.86    2.02
  -1 -17  -5    3.69    2.53
   1 -17   5    5.92    2.05
  -1 -17  -5    6.39    4.14
   1  17  -5    0.99    1.51
   1 -17   5    1.24    1.38
   1 -17   4    3.96    1.76
   1  17  -4    2.53    1.77
  -1  17   4    2.85    1.83
  -1 -17  -4    0.42    2.12
   1  17  -4    3.89    2.27
  -1 -17  -4    1.35    2.77
  -1  17   3    6.84    2.23
   1 -17   3    6.36    2.44
  -1 -17  -3    5.26    2.38
   1  17  -3    4.90    2.47
  -1 -17  -3    5.55    4.76
   1  17  -3    4.59    1.80
   1 -17   2    5.44    2.33
   1  17  -2    3.59    1.79
  -1  17   2    5.79    2.31
   1  17  -2    3.44    1.87
  -1 -17  -2   -0.50    2.54
   1  17  -1    4.61    1.66
  -1  17   1   14.00    3.15
   1 -17   1    6.18    2.28
   1  17  -1    5.29    1.94
  -1 -17  -1    9.80    6.17
   1  17   0    7.80    2.22
   1  17   0   10.01    2.67
   1 -17   0   10.76    2.96
  -1  17   0    8.55    2.38
  -1 -17   0   14.81    6.11
   1 -17  -1   11.75    3.30
   1  17   1    4.97    1.81
   1  17   1    6.92    2.10
  -1  17  -1   11.20    2.73
  -1 -17   1    4.91    4.23
   1 -17  -2    5.55    2.37
  -1  17  -2    5.54    2.12
   1  17   2    5.07    1.89
   1  17   2   -0.36    1.10
  -1 -17   2    3.66    2.17
  -1 -17   2    5.68    4.44
   1  17   3    3.71    1.78
   1 -17  -3    6.45    2.64
  -1  17  -3    3.70    2.11
   1  17   3    5.61    2.04
  -1 -17   3    8.43    2.54
  -1 -17   3    4.78    4.00
   1 -17  -4   -0.35    1.88
  -1  17  -4    5.08    2.36
   1  17   4    7.58    2.11
  -1 -17   4    3.07    1.96
  -1 -17   4   10.22    4.54
   1 -17  -5    3.84    2.23
   1  17   5    5.55    1.93
  -1  17  -5    0.95    1.45
  -1 -17   5    4.22    2.21
  -1  17  -6    4.31    2.17
   1  17   6    3.68    1.68
  -1 -17   6    3.83    1.98
  -1 -17   6    4.02    3.41
   1 -17  -6   -0.08    1.79
   1 -17  -7    5.59    2.50
  -1  17  -7    1.04    1.85
   1  17   7    3.61    1.84
  -1 -17   7    3.28    1.76
  -1 -17   7    5.87    3.74
   1 -17  -8    6.68    3.76
  -1  17  -8   -2.37    2.18
  -1 -17   8    3.02    1.81
  -1 -17   8   -3.88    3.01
  -1 -17   9    0.79    2.15
  -1 -17  10    4.78    3.32
  -1 -18  -8    4.48    3.39
   1  18  -7   -0.10    1.24
   1  18  -7    1.56    1.77
  -1 -18  -7   -1.74    3.12
   1 -18   7   -0.39    1.41
   1  18  -6    3.24    2.49
   1  18  -6   -1.55    1.77
  -1  18   6    1.27    1.45
   1 -18   6    0.68    1.30
  -1 -18  -6    3.48    3.51
  -1 -18  -6   -5.66    3.51
  -1 -18  -5   -3.00    3.31
   1  18  -5    1.54    1.45
  -1  18   5   -1.11    1.91
   1  18  -5    1.59    1.89
   1  18  -4    0.17    1.63
  -1  18   4   -1.81    1.98
   1  18  -4   -3.13    2.03
  -1 -18  -4   -5.07    3.06
   1 -18   4   -3.95    2.43
  -1 -18  -4   -4.38    3.91
  -1 -18  -3   -0.16    1.65
   1  18  -3    1.19    1.48
  -1  18   3    0.19    1.43
   1  18  -3    1.11    1.73
  -1 -18  -3   -4.45    4.56
   1 -18   3   -0.57    1.82
   1 -18   2    2.16    2.08
  -1  18   2   -1.38    1.67
   1  18  -2   -0.07    1.68
   1  18  -2    1.76    1.34
  -1  18   1    0.41    1.53
   1 -18   1   -5.06    2.92
   1  18  -1   -1.60    1.55
   1  18  -1    4.24    2.09
  -1 -18  -1    3.26    3.63
   1  18   0    3.34    1.85
   1  18   0    3.92    1.78
  -1  18   0    0.37    1.61
   1 -18   0   -1.04    1.49
   1  18   1    2.63    1.81
  -1  18  -1    2.27    1.66
   1 -18  -1    0.10    1.92
  -1 -18   1    4.09    4.60
   1  18   1   -1.41    1.87
  -1  18  -2   -0.70    1.49
   1  18   2    1.90    1.37
   1 -18  -2   -1.92    2.43
  -1 -18   2    0.73    2.96
   1 -18  -3   -1.27    2.29
   1  18   3    4.85    1.79
  -1  18  -3    3.14    2.18
  -1 -18   3    5.54    4.11
  -1 -18   3    4.87    2.15
  -1  18  -4   -0.62    1.60
   1 -18  -4    2.93    2.72
   1  18   4   -0.37    1.19
  -1 -18   4   -0.88    3.03
  -1 -18   4    1.05    1.86
  -1  18  -5    0.09    1.83
   1  18   5    0.07    1.38
  -1 -18   5    0.60    1.48
  -1 -18   5   -1.60    2.89
   1 -18  -5    0.83    2.00
   1 -18  -6   -2.56    2.68
  -1 -18   6    1.72    1.60
  -1 -18   6   -3.50    3.72
  -1 -18   7   -2.76    3.29
  -1 -18   8   -4.25    3.13
  -1 -19  -5    2.67    2.79
   1  19  -5    2.91    2.02
   1  19  -5    5.24    2.65
  -1 -19  -4    2.98    2.42
   1  19  -4    4.37    2.17
   1  19  -4   -0.12    1.45
   1  19  -3    0.41    1.54
   1  19  -3    4.82    2.45
   1 -19   2    1.42    1.82
   1  19  -2    1.62    1.82
   1  19  -2   -2.13    1.69
   1 -19   1    0.86    1.88
   1  19  -1    4.52    2.08
   1  19   0    0.10    1.32
   1 -19   0   -2.61    2.55
   1  19   1    4.44    1.91
   1 -19  -1    0.35    2.36
   1  19   2    1.07    1.48
   1 -19  -2    1.76    1.79
   1 -19  -3   -0.39    2.00
   1  19   3    1.64    1.63
   1 -19  -4    5.31    3.12
   2   0   0    9.26    0.77
  -2   0   0    9.12    0.72
   2   0   0   10.05    0.92
  -2   0   0    7.94    1.95
  -2   0   0   11.32    2.30
  -2   0   0    9.57    0.87
  -2   0   1   59.80    5.04
  -2   0  -1   70.13    5.33
  -2   0  -1   65.36    2.00
  -2   0   1   62.97    2.64
  -2   0  -1   64.20    3.49
   2   0  -1   62.64    3.00
   2   0   1   62.07    2.01
  -2   0   1   61.30    2.32
  -2   0  -1   77.30    5.33
  -2   0   1   62.85    4.82
   2   0   1   67.50    3.22
   2   0   2    7.61    1.20
  -2   0   2    5.98    0.87
  -2   0  -2    6.32    0.57
  -2   0   2    6.73    1.08
   2   0   2    6.48    0.60
  -2   0  -2   11.10    2.39
  -2   0   2    7.82    2.16
  -2   0  -2    5.93    1.28
   2   0  -2    6.45    0.99
  -2   0  -2    5.39    1.71
  -2   0   2    8.30    1.97
   2   0  -2    6.93    1.00
  -2   0   3   45.44    4.21
  -2   0  -3   49.24    4.47
  -2   0   3   45.83    2.98
  -2   0  -3   42.19    3.24
   2   0  -3   45.17    2.59
   2   0   3   43.32    1.73
  -2   0   3   45.38    2.74
   2   0  -3   46.41    3.33
  -2   0  -3   49.50    4.34
  -2   0   3   47.49    4.16
   2   0  -3   43.51    2.41
   2   0   3   46.43    3.03
   2   0   4    4.97    1.24
  -2   0   4    5.59    2.01
  -2   0  -4    4.09    1.47
  -2   0   4    5.36    1.14
  -2   0   4    6.54    1.45
  -2   0  -4    5.33    1.52
   2   0  -4    5.98    1.10
   2   0  -4    5.82    1.41
   2   0  -4    6.03    0.98
  -2   0  -4    5.51    1.61
  -2   0   4    9.17    2.09
  -2   0  -4    4.88    1.38
  -2   0   5   48.51    3.54
   2   0  -5   44.73    3.07
  -2   0  -5   40.64    3.68
  -2   0   5   45.90    4.15
   2   0  -5   40.76    2.47
  -2   0   5   47.30    3.71
  -2   0  -5   45.77    4.03
   2   0  -5   47.08    3.82
  -2   0  -5   46.03    4.08
  -2   0   5   49.22    4.05
  -2   0  -5   43.73    3.45
   2   0   5   43.00    3.50
  -2   0  -6    2.86    1.26
  -2   0   6    3.75    1.70
   2   0   6    2.81    1.15
  -2   0  -6    4.22    1.59
   2   0  -6    3.17    1.32
  -2   0   6    3.94    1.45
  -2   0  -6    2.97    1.64
  -2   0   6    5.26    1.64
   2   0  -6    4.02    1.68
   2   0  -6    3.47    0.81
  -2   0  -6    6.69    1.84
  -2   0   6    5.12    1.68
  -2   0   7    7.50    2.12
  -2   0   7    5.17    1.71
   2   0  -7    6.55    1.29
  -2   0  -7    6.29    1.87
  -2   0   7    6.04    1.63
  -2   0   7   10.15    2.35
  -2   0  -7    7.88    2.40
   2   0  -7    8.07    1.86
   2   0  -7    6.89    1.89
   2   0   7    5.57    1.80
  -2   0  -7    6.66    1.90
   2   0  -8   10.41    2.16
   2   0   8   12.99    2.58
   2   0  -8   11.36    1.53
  -2   0   8   15.79    2.63
  -2   0  -8   11.11    2.69
   2   0  -8   11.28    2.62
   2   0  -8   10.94    1.81
  -2   0  -8   11.85    2.47
  -2   0  -8   12.26    2.25
  -2   0   8   14.57    2.36
  -2   0   8   10.77    2.47
   2   0  -9   32.89    3.84
   2   0  -9   32.16    2.83
  -2   0   9   28.36    3.93
  -2   0  -9   34.79    4.50
  -2   0  -9   34.26    4.36
  -2   0  -9   37.44    3.66
  -2   0   9   36.26    3.45
  -2   0   9   31.21    3.91
   2   0  -9   31.94    4.20
   2   0   9   32.15    4.24
  -2   0 -10    3.43    1.94
   2   0 -10    1.07    0.88
   2   0 -10   -0.14    1.36
  -2   0  10   -0.68    1.94
  -2   0  10    1.85    1.91
  -2   0 -10    1.25    2.19
   2   0 -10    0.59    1.88
  -2   0 -10    1.41    1.19
  -2   0  10    2.49    1.28
   2   0  10   -1.18    2.16
  -2   0 -11   -1.58    1.93
   2   0 -11    0.81    1.68
   2   0  11    0.59    2.24
  -2   0  11    3.97    1.86
  -2   0  11    0.42    1.80
  -2   0 -11   -2.22    2.07
   2   0 -11   -0.14    1.97
   2   0 -11   -0.04    0.81
  -2   0 -11    0.64    1.10
  -2   0  11    0.85    1.04
  -2   0 -12   24.59    4.79
   2   0 -12   26.13    3.99
   2   0 -12   24.15    2.82
   2   0  12   23.31    4.50
  -2   0  12   22.87    4.06
  -2   0  12   26.35    4.17
  -2   0 -12   32.51    4.74
   2   0 -12   25.05    4.26
  -2   0 -13   12.43    4.12
   2   0  13   12.88    3.90
  -2   0  13   19.65    3.81
  -2   0 -13   10.06    2.88
   2   0 -13   14.14    3.39
  -2   0 -14    0.23    2.33
   2   0  14    4.61    3.24
  -2   0  14   -1.06    1.85
  -2   0 -14    2.83    2.31
   2   0 -14    1.08    2.16
  -2   0  15   -0.63    1.64
  -2   0 -15   -0.66    1.98
   2   0  15   -0.01    2.22
   2   0 -15    0.77    2.02
  -2   0 -15   -1.38    2.12
  -2   0 -16    2.43    2.93
  -2   0  16    6.66    2.47
  -2   0 -16    9.51    3.08
   2   0  16    4.99    2.73
   2   0 -16    6.48    3.08
   2   0  17    1.54    2.39
  -2   0 -17    3.41    2.56
  -2   0  17    4.18    2.25
  -2   0 -17    1.94    1.77
   2   0 -17    0.26    1.73
   2   0  18   -1.09    2.13
  -2   0 -18   -0.70    2.30
  -2   0  18    2.15    1.78
  -2   0 -18    3.53    2.48
   2   0 -18   -0.53    2.11
  -2   0 -19    3.52    2.32
   2   0  19    5.22    2.27
  -2   0 -19    3.56    1.91
   2   0 -19    1.45    1.89
  -2  -1 -19    3.47    2.83
   2  -1  19    6.07    2.52
  -2  -1 -19    1.34    1.63
   2   1 -19   -2.35    2.18
   2  -1  18   -2.25    2.09
  -2   1  18   -1.92    1.87
  -2  -1 -18    0.93    1.92
   2  -1  18   -4.08    2.18
  -2  -1 -18   -4.29    3.06
   2   1 -18   -0.56    2.16
  -2  -1 -17    2.91    2.45
   2  -1  17    0.09    1.81
   2  -1  17   -0.38    1.31
  -2   1  17   -1.14    2.39
  -2  -1 -17   -2.05    2.22
   2   1 -17    3.00    2.60
  -2  -1 -16   10.05    3.02
   2  -1  16    7.81    3.38
  -2  -1 -16    2.48    2.15
  -2   1  16    6.85    2.98
   2   1 -16    8.89    3.39
  -2  -1 -15    6.58    2.84
  -2   1  15   10.98    3.13
  -2  -1 -15    7.01    2.68
   2  -1  15    7.54    3.32
   2   1 -15    5.04    2.38
   2   1 -14    1.76    1.75
  -2   1  14    2.51    2.47
   2  -1  14    2.94    2.69
  -2   1  14    0.92    1.80
  -2  -1 -14    5.41    2.55
  -2  -1 -14   -1.33    2.63
   2   1 -14    8.21    3.14
  -2  -1 -13    9.84    3.06
  -2   1  13    8.16    2.87
  -2  -1 -13    5.96    2.71
   2  -1  13    6.21    2.72
   2   1 -13    6.45    2.92
   2   1 -13    5.30    2.29
  -2  -1 -12    5.80    2.63
   2  -1  12    6.28    3.18
  -2   1  12    6.58    2.81
  -2  -1 -12    3.83    1.95
   2   1 -12    4.81    2.13
   2   1 -12    6.61    2.50
   2  -1  11   18.87    3.88
  -2  -1 -11   15.93    3.73
  -2   1  11   14.26    3.09
   2   1 -11   15.03    1.96
  -2  -1 -11   17.46    3.80
   2   1 -11   15.17    3.03
   2   1 -11   16.53    3.81
  -2   1  11   17.24    2.32
   2  -1  10   42.18    5.22
   2   1 -10   35.85    4.33
  -2   1  10   40.55    4.68
   2   1 -10   41.38    3.09
  -2  -1 -10   39.54    5.17
  -2   1  10   42.03    3.66
  -2  -1 -10   36.71    3.58
   2   1 -10   40.53    4.97
  -2  -1 -10   33.50    4.49
  -2  -1  -9   45.50    5.39
   2   1  -9   38.95    4.22
  -2  -1  -9   48.08    3.79
   2  -1   9   44.38    5.06
   2   1  -9   45.77    3.09
  -2   1   9   47.01    4.75
   2   1  -9   50.23    5.48
  -2   1   9   46.24    3.85
  -2  -1  -9   45.73    4.09
  -2  -1  -9   44.60    4.56
   2   1  -8    4.32    1.79
  -2  -1  -8    7.42    1.81
   2   1  -8    5.00    1.07
  -2   1   8    6.74    1.99
  -2  -1  -8    4.48    1.60
  -2  -1  -8    6.67    2.68
   2   1  -8    6.38    2.31
  -2   1   8    4.91    1.52
   2  -1   8    7.48    2.37
  -2  -1  -8    7.18    1.99
  -2  -1  -7   18.51    2.52
   2   1  -7   18.31    1.84
   2   1  -7   21.12    2.82
   2   1  -7   20.29    1.72
  -2  -1  -7   17.81    2.49
  -2  -1  -7   17.69    3.17
  -2   1   7   21.77    2.91
   2  -1   7   19.82    2.96
   2   1  -7   23.91    3.48
  -2   1   7   19.79    2.65
  -2  -1  -7   23.63    3.19
   2   1  -6   41.92    3.48
   2   1  -6   41.60    2.55
  -2  -1  -6   40.23    3.66
  -2   1   6   44.75    3.75
  -2  -1  -6   46.60    4.60
   2   1  -6   49.35    4.47
  -2   1   6   41.15    3.70
  -2  -1  -6   48.94    4.28
  -2  -1  -6   41.00    3.48
   2  -1   6   43.94    3.94
   2   1  -5  114.15    5.15
  -2  -1  -5  113.84    6.27
  -2   1   5  116.50    5.59
  -2  -1  -5  108.87    6.30
   2   1  -5  115.58    6.19
  -2   1   5  109.12    6.14
  -2  -1  -5  116.23    6.80
  -2  -1  -5  107.66    5.34
   2   1  -5  108.73    3.81
   2  -1   5  105.88    5.70
  -2  -1  -4  134.47    6.96
   2   1  -4  135.38    5.18
   2   1  -4  129.34    3.93
   2   1  -4  136.66    4.05
  -2   1   4  128.80    5.41
  -2  -1  -4  130.98    3.99
  -2  -1  -4  124.25    6.31
  -2   1   4  134.87    5.73
   2   1  -4  134.47    6.29
  -2   1   4  124.94    6.70
  -2  -1  -4  144.05    7.59
  -2  -1  -4  137.90    5.71
   2  -1   4  137.00    5.81
  -2   1   3   63.99    5.12
   2   1  -3   63.47    2.62
  -2   1   3   62.49    3.36
  -2  -1  -3   68.51    2.14
  -2  -1  -3   65.69    4.11
   2   1  -3   64.77    2.81
  -2   1   3   64.89    3.39
   2  -1   3   63.44    1.70
   2   1  -3   64.95    3.35
   2   1  -3   65.39    4.00
  -2  -1  -3   67.78    5.06
  -2   1   3   74.67    5.19
  -2  -1  -3   70.53    5.18
   2  -1   3   65.51    3.66
  -2   1   2   87.45    6.00
   2   1  -2   86.58    3.70
   2   1  -2   86.81    3.19
  -2   1   2   89.62    3.64
  -2  -1  -2   83.22    4.27
  -2   1   2   87.68    3.28
   2   1  -2   84.35    4.27
  -2   1   2   92.29    5.81
  -2  -1  -2   91.29    5.92
  -2  -1  -2   92.20    6.06
   2  -1   2   84.50    3.89
  -2  -1  -1   68.94    3.57
  -2   1   1   68.05    5.24
   2   1  -1   63.10    3.09
  -2  -1  -1   72.15    5.36
   2   1  -1   71.30    2.34
  -2   1   1   70.03    2.87
  -2   1   1   70.50    2.33
  -2  -1  -1   65.82    2.27
  -2   1   1   70.54    5.17
  -2  -1  -1   70.32    5.29
   2   1  -1   65.97    2.89
   2  -1   1   69.15    3.23
  -2   1   0  110.41    6.75
   2  -1   0  117.21    4.64
  -2   1   0  114.41    2.31
  -2  -1   0  114.80    6.92
  -2  -1   0  121.24    4.47
  -2  -1   0  113.08    3.26
  -2  -1   0  116.12    3.30
  -2   1   0  115.40    3.46
  -2   1   0  109.54    6.53
  -2  -1   0  110.39    6.65
   2   1   0  116.46    2.52
  -2   1  -1   77.40    5.44
  -2  -1   1   69.00    5.46
  -2  -1   1   66.40    2.64
   2   1   1   70.16    2.59
  -2   1  -1   66.42    2.38
  -2  -1   1   68.90    3.08
  -2   1  -1   64.10    4.95
  -2  -1   1   68.31    5.26
   2  -1  -1   69.24    3.30
  -2   1  -2   96.61    6.18
   2  -1  -2   85.88    3.19
  -2   1  -2   84.67    2.73
  -2  -1   2   85.95    3.97
  -2   1  -2   87.32    4.47
   2  -1  -2   85.88    3.78
  -2  -1   2   90.47    3.53
   2   1   2   84.93    2.81
  -2   1  -2   90.40    5.80
  -2  -1   2   83.41    5.76
  -2  -1   2   96.71    6.27
   2   1   2   88.66    4.12
   2  -1  -3   64.16    2.85
   2  -1  -3   68.24    3.31
  -2  -1   3   68.05    3.39
  -2  -1   3   67.90    4.04
  -2   1  -3   63.68    4.04
  -2   1  -3   66.73    4.98
  -2  -1   3   72.49    5.26
  -2   1  -3   67.29    3.93
  -2  -1   3   68.29    5.32
   2   1   3   60.27    3.60
   2  -1  -4  132.12    4.60
  -2  -1   4  133.13    6.21
  -2   1  -4  128.62    6.10
  -2  -1   4  133.95    5.44
  -2   1  -4  129.61    7.02
  -2  -1   4  133.43    7.07
  -2   1  -4  131.71    5.88
   2  -1  -4  130.95    4.74
  -2  -1   4  128.57    7.12
   2   1   4  124.73    5.42
   2  -1  -5  114.01    4.80
   2  -1  -5  112.18    4.53
  -2  -1   5  123.22    6.45
  -2  -1   5  126.41    6.97
  -2   1  -5  113.22    6.08
  -2  -1   5  108.57    5.42
   2  -1  -5  112.46    5.86
  -2   1  -5  109.53    6.32
  -2  -1   5  111.00    6.37
  -2   1  -5  105.64    5.70
   2   1   5  108.02    5.48
   2  -1  -6   40.61    3.20
   2  -1  -6   41.72    2.88
  -2  -1   6   41.71    4.05
  -2  -1   6   46.24    4.17
  -2  -1   6   41.21    3.65
   2  -1  -6   47.17    4.03
  -2   1  -6   41.68    3.95
  -2  -1   6   46.95    4.10
  -2   1  -6   40.37    4.02
  -2   1  -6   41.93    3.97
   2   1   6   40.15    3.57
   2   1   7   21.19    2.95
   2  -1  -7   19.03    2.11
   2  -1  -7   16.95    2.34
  -2  -1   7   16.78    2.75
  -2  -1   7   17.97    2.80
  -2  -1   7   20.07    2.83
  -2   1  -7   19.92    3.11
   2  -1  -7   21.71    3.06
  -2   1  -7   22.62    2.89
  -2  -1   7   17.64    2.63
  -2   1  -7   15.79    2.74
  -2   1  -8    7.42    2.38
  -2  -1   8    4.69    1.89
   2  -1  -8    4.12    1.60
  -2  -1   8    5.26    1.68
  -2  -1   8    8.42    2.31
  -2   1  -8    4.34    1.92
   2   1   8    7.11    2.03
   2  -1  -8    4.99    1.97
   2  -1  -8    6.76    1.50
  -2   1  -8    4.01    1.47
  -2  -1   8    7.46    1.78
   2  -1  -9   42.88    4.24
  -2  -1   9   41.38    3.94
   2  -1  -9   43.01    3.62
  -2  -1   9   50.54    5.19
   2  -1  -9   44.29    3.35
  -2   1  -9   46.10    5.31
  -2  -1   9   49.97    4.96
   2  -1  -9   48.87    4.96
  -2   1  -9   48.75    4.16
  -2  -1   9   49.98    4.21
  -2   1  -9   43.60    5.15
   2   1   9   44.39    4.68
   2  -1 -10   39.80    4.37
  -2   1 -10   40.10    5.37
  -2  -1  10   37.54    4.70
  -2   1 -10   36.98    4.92
  -2   1 -10   43.69    3.85
  -2  -1  10   39.05    3.61
   2  -1 -10   40.24    4.89
   2  -1 -10   46.72    3.77
   2   1  10   40.21    5.07
   2  -1 -11   16.46    2.88
   2   1  11   12.27    2.87
  -2   1 -11    9.11    3.35
   2  -1 -11   18.35    2.60
  -2  -1  11   17.55    3.36
  -2   1 -11   20.19    4.15
   2  -1 -11   15.23    3.52
  -2   1 -11   14.41    2.22
   2   1  12    6.84    2.61
  -2   1 -12    4.28    2.50
   2  -1 -12    5.32    1.50
  -2  -1  12    7.77    2.62
  -2   1 -12    5.41    2.52
   2  -1 -12    3.85    2.40
   2   1  13    7.75    2.93
   2  -1 -13    8.42    1.94
  -2  -1  13    7.06    2.32
  -2   1 -13    9.32    2.85
  -2   1 -13    8.71    3.80
   2  -1 -13    8.91    2.79
   2   1  14    4.21    2.94
  -2  -1  14    3.71    2.17
  -2   1 -14    0.66    2.23
   2  -1 -14    3.44    2.16
  -2   1 -14   -0.82    2.64
  -2   1 -15    7.01    3.58
   2   1  15    4.25    3.08
  -2  -1  15    7.82    2.81
  -2   1 -15    6.18    2.61
   2  -1 -15    5.85    2.81
   2   1  16    8.65    3.42
  -2   1 -16    5.51    3.03
  -2  -1  16    8.82    2.93
  -2   1 -16    7.75    2.75
   2  -1 -16    7.39    2.95
   2   1  17    0.58    2.57
  -2   1 -17    5.14    3.47
  -2  -1  17    1.53    1.89
  -2   1 -17    3.83    2.42
   2  -1 -17    1.33    2.23
  -2  -1  18    0.77    1.85
   2   1  18   -3.01    2.98
  -2   1 -18    0.51    1.93
  -2   1 -18    1.90    2.16
   2  -1 -18   -4.70    2.92
  -2   1 -19    2.98    2.13
   2  -1 -19    0.88    1.71
  -2  -2 -19    1.35    1.85
   2  -2  18    3.37    2.66
  -2   2  18    4.29    2.66
   2  -2  18    0.50    1.10
  -2  -2 -18    2.83    1.79
  -2  -2 -18    2.69    2.10
   2   2 -18    2.19    2.49
  -2  -2 -17    4.29    2.70
   2  -2  17    2.14    3.03
  -2   2  17    3.01    1.71
   2  -2  17    7.33    2.52
  -2  -2 -17    4.15    2.29
   2   2 -17    4.92    2.36
   2  -2  16    2.37    2.77
  -2   2  16    4.83    2.46
   2  -2  16    1.42    1.52
  -2  -2 -16   -1.16    1.93
  -2  -2 -16   -1.49    2.48
   2   2 -16    2.81    2.12
  -2   2  15    3.77    2.13
   2  -2  15    9.61    2.67
  -2  -2 -15    9.79    2.69
   2  -2  15    2.70    2.42
   2   2 -15    6.40    2.73
   2   2 -15    7.82    2.66
  -2  -2 -15   11.35    3.73
  -2  -2 -14   11.04    3.48
   2   2 -14    6.73    2.34
   2  -2  14   10.71    3.79
  -2   2  14    6.50    2.55
   2  -2  14   11.28    2.60
  -2  -2 -14    6.27    2.75
   2   2 -14   11.58    3.29
  -2  -2 -13    6.49    2.73
   2   2 -13    8.16    2.94
  -2  -2 -13    9.02    2.82
  -2   2  13    5.94    2.57
   2  -2  13    9.18    3.53
   2  -2  13   10.09    2.53
   2   2 -13    6.81    2.82
   2  -2  12   25.33    4.57
  -2   2  12   26.87    4.22
  -2  -2 -12   25.82    4.31
   2   2 -12   28.50    4.39
  -2  -2 -12   29.26    4.63
   2   2 -12   24.72    4.34
   2   2 -11   42.61    5.07
  -2   2  11   44.72    5.28
   2   2 -11   45.51    5.54
  -2   2  11   49.46    3.87
  -2  -2 -11   47.83    5.32
  -2  -2 -11   49.07    5.87
   2  -2  11   51.19    6.22
  -2  -2 -10   -0.14    1.54
   2   2 -10    0.02    1.75
  -2  -2 -10    1.96    1.07
  -2   2  10    1.52    1.80
  -2  -2 -10   -0.68    1.82
   2  -2  10    2.21    2.29
   2   2 -10   -0.43    1.77
  -2   2  10   -0.48    0.86
   2   2  -9   40.19    4.51
   2  -2   9   28.62    4.51
  -2   2   9   42.66    4.56
  -2  -2  -9   41.19    3.57
  -2   2   9   41.37    3.55
   2   2  -9   39.33    2.49
  -2  -2  -9   39.68    5.23
   2   2  -9   38.51    4.83
  -2  -2  -9   39.08    4.07
   2   2  -8   75.04    5.46
  -2   2   8   82.15    5.83
   2   2  -8   80.37    3.31
  -2  -2  -8   73.36    6.53
  -2  -2  -8   78.61    5.00
   2   2  -8   70.29    6.16
  -2   2   8   79.47    5.05
  -2  -2  -8   82.45    5.81
  -2  -2  -8   75.46    5.20
   2  -2   8   78.52    6.54
   2   2  -7   60.73    4.64
   2   2  -7   70.34    5.85
  -2   2   7   68.37    4.96
   2   2  -7   67.33    2.71
  -2   2   7   65.98    4.65
  -2  -2  -7   71.35    5.59
  -2  -2  -7   59.37    4.28
  -2  -2  -7   62.71    5.75
  -2  -2  -7   61.91    4.50
   2  -2   7   66.17    5.62
   2   2  -6   45.14    3.74
  -2  -2  -6   51.88    4.22
  -2   2   6   45.94    3.75
   2   2  -6   51.99    2.08
  -2  -2  -6   53.11    5.00
   2   2  -6   51.09    4.82
  -2   2   6   52.67    4.24
  -2  -2  -6   49.19    4.63
  -2  -2  -6   47.65    3.55
   2  -2   6   52.69    4.62
   2   2  -5  188.85    4.74
   2   2  -5  193.11    7.17
  -2  -2  -5  195.99    8.51
  -2  -2  -5  190.33    4.74
  -2   2   5  197.85    7.24
  -2  -2  -5  187.81    8.73
   2   2  -5  198.28    4.13
   2  -2   5  191.53    5.43
   2   2  -5  186.05    8.59
  -2   2   5  190.26    8.35
  -2  -2  -5  204.34    9.49
  -2  -2  -5  183.21    6.94
   2  -2   5  187.91    8.09
  -2  -2  -4   69.91    4.90
   2   2  -4   64.44    3.78
  -2  -2  -4   77.95    5.42
  -2  -2  -4   67.59    1.91
  -2   2   4   66.36    3.76
   2   2  -4   69.46    2.33
   2  -2   4   65.50    2.27
   2   2  -4   66.08    4.62
  -2   2   4   72.71    5.19
  -2  -2  -4   70.77    5.61
   2   2  -4   65.92    2.34
   2  -2   4   70.74    4.38
   2   2  -3  108.50    3.09
  -2  -2  -3  121.23    7.04
  -2   2   3  108.56    4.54
   2   2  -3  111.26    3.42
  -2  -2  -3  111.09    5.60
   2   2  -3  109.50    5.42
  -2   2   3  119.84    6.91
  -2  -2  -3  121.50    7.36
   2   2  -3  111.36    4.69
   2  -2   3  110.15    4.99
  -2  -2  -2  205.68    9.56
   2   2  -2  186.80    4.57
  -2   2   2  187.19    5.68
   2   2  -2  194.54    5.39
  -2  -2  -2  181.02    6.71
   2   2  -2  196.18    6.89
  -2   2   2  181.12    8.73
  -2  -2  -2  193.87    9.36
   2   2  -2  197.65    6.15
   2  -2   2  187.95    6.01
   2  -2   1  193.52    6.61
  -2  -2  -1  200.35    9.41
   2   2  -1  191.23    4.20
  -2   2   1  190.22    4.25
  -2  -2  -1  184.87    6.09
  -2  -2  -1  184.13    4.73
   2   2  -1  185.60    6.21
  -2   2   1  179.92    8.73
  -2  -2  -1  190.32    9.19
  -2   2   1  184.45    5.22
   2  -2   1  186.30    5.43
   2   2  -1  191.33    5.94
   2  -2   0    9.75    1.48
  -2   2   0    8.22    0.98
  -2  -2   0    8.04    2.70
  -2  -2   0    8.99    1.00
  -2  -2   0    8.13    1.13
   2   2   0    8.46    1.21
  -2  -2   0    9.44    2.26
   2  -2   0    8.94    1.01
  -2  -2   1  182.00    5.13
   2  -2  -1  190.19    6.14
  -2  -2   1  187.65    9.31
  -2   2  -1  174.16    8.71
  -2  -2   1  184.11    8.95
  -2   2  -1  182.57    4.80
  -2  -2   1  197.12    5.23
   2  -2  -2  188.01    4.55
  -2  -2   2  197.76    9.52
  -2   2  -2  183.37    4.88
  -2  -2   2  188.75    5.59
  -2   2  -2  176.83    8.66
  -2  -2   2  199.38    9.35
   2  -2  -2  190.53    6.13
   2  -2  -3  111.70    3.48
  -2   2  -3  109.61    5.37
  -2  -2   3  119.11    7.13
  -2  -2   3  104.25    4.45
   2  -2  -3  107.43    4.52
  -2   2  -3  115.84    6.74
  -2  -2   3  115.68    7.09
  -2   2  -3  108.62    5.25
   2   2   3  110.78    4.96
   2  -2  -4   68.65    3.07
   2  -2  -4   61.98    3.54
  -2  -2   4   71.31    5.52
  -2   2  -4   62.96    4.31
  -2  -2   4   68.77    3.83
  -2   2  -4   66.14    5.16
  -2  -2   4   76.42    5.65
  -2   2  -4   58.91    4.10
   2   2   4   63.11    3.91
   2  -2  -5  185.26    6.03
   2  -2  -5  194.07    6.50
  -2  -2   5  197.89    9.03
  -2   2  -5  189.24    8.02
  -2  -2   5  187.62    7.26
  -2   2  -5  189.33    8.67
  -2  -2   5  203.96    9.09
  -2   2  -5  181.15    7.82
   2   2   5  194.01    7.42
   2  -2  -6   49.21    3.39
  -2  -2   6   52.43    4.58
  -2   2  -6   47.15    4.22
  -2  -2   6   53.92    4.11
   2  -2  -6   49.33    4.04
  -2   2  -6   51.87    4.41
  -2  -2   6   51.02    4.56
  -2   2  -6   51.68    4.38
   2  -2  -6   47.31    3.26
   2   2   6   50.52    3.97
  -2   2  -7   68.75    5.35
   2  -2  -7   65.06    4.35
   2  -2  -7   62.50    4.00
  -2  -2   7   58.96    4.72
  -2  -2   7   62.70    4.88
   2  -2  -7   67.22    5.10
  -2   2  -7   68.03    4.91
  -2  -2   7   74.35    5.24
  -2   2  -7   63.75    5.40
   2   2   7   62.83    4.74
   2  -2  -8   78.18    5.25
   2  -2  -8   77.70    4.71
  -2   2  -8   86.93    6.41
  -2  -2   8   82.21    5.98
   2  -2  -8   79.62    5.85
  -2   2  -8   79.37    5.37
  -2  -2   8   84.65    5.70
  -2  -2   8   73.04    5.19
  -2   2  -8   77.18    6.60
   2   2   8   75.00    5.54
   2  -2  -9   34.30    3.72
  -2  -2   9   38.90    3.71
   2  -2  -9   38.22    3.52
  -2   2  -9   42.09    5.34
  -2   2  -9   41.86    4.81
  -2  -2   9   40.92    4.59
   2  -2  -9   40.17    4.40
  -2   2  -9   46.00    4.07
   2   2   9   42.72    4.61
  -2   2 -10   -0.13    2.28
   2   2  10    1.65    1.99
   2  -2 -10    1.42    0.93
  -2  -2  10    0.43    0.93
  -2  -2  10    1.15    1.54
  -2   2 -10    0.69    1.93
   2  -2 -10    0.93    1.66
  -2   2 -10    1.12    0.99
  -2  -2  11   54.84    4.25
   2  -2 -11   50.53    4.32
  -2   2 -11   52.95    5.81
  -2  -2  11   53.09    5.56
   2  -2 -11   50.01    5.64
  -2   2 -11   48.54    3.98
  -2   2 -11   47.67    6.86
   2   2  11   45.91    5.39
   2  -2 -12   33.31    3.76
  -2  -2  12   23.52    3.92
  -2   2 -12   25.80    5.63
  -2   2 -12   29.29    4.49
   2   2  12   23.15    4.36
   2  -2 -12   27.60    4.59
   2   2  13    5.90    2.53
  -2   2 -13   11.01    4.66
   2  -2 -13    9.13    2.17
  -2  -2  13    7.00    2.61
  -2   2 -13    4.34    2.09
   2  -2 -13    9.98    3.07
  -2   2 -14    8.29    3.22
  -2   2 -14    9.03    3.93
   2  -2 -14    7.15    1.98
   2   2  14    8.13    3.15
  -2  -2  14    9.61    2.97
   2  -2 -14    9.84    3.29
  -2   2 -15    4.68    2.45
   2   2  15    9.11    3.29
  -2   2 -15    8.42    3.79
  -2  -2  15    7.07    2.84
   2  -2 -15    8.70    2.92
   2   2  16    5.48    3.21
  -2   2 -16    4.29    3.51
  -2  -2  16    5.43    2.83
  -2   2 -16   -1.00    1.94
   2  -2 -16    0.78    1.96
  -2   2 -17   -1.89    3.61
   2   2  17   11.76    3.69
  -2   2 -17    3.37    2.05
  -2  -2  17    5.07    2.41
   2  -2 -17    5.72    3.00
   2   2  18    0.64    2.58
  -2   2 -18   -0.34    1.82
  -2  -2  18    6.10    2.72
  -2   2 -18    2.15    1.80
   2  -2 -18    1.46    2.20
  -2   2 -19    0.74    2.15
  -2   2 -19    0.46    1.37
   2  -2 -19   -2.33    2.33
   2  -3  18   -2.30    2.92
  -2  -3 -18    3.96    2.17
   2   3 -18   -2.26    2.76
  -2   3  17    2.68    2.18
  -2  -3 -17    1.48    1.57
   2  -3  17    0.24    1.16
   2  -3  17    4.58    3.25
  -2  -3 -17    1.34    1.76
   2   3 -17   -0.43    2.05
  -2  -3 -16    2.58    2.19
  -2   3  16    3.09    2.43
  -2  -3 -16   -2.87    2.21
   2   3 -16   -0.91    1.80
   2  -3  16    1.69    1.29
   2  -3  16    0.12    2.81
   2   3 -16   -1.93    2.63
  -2  -3 -15    1.22    2.01
   2   3 -15   -2.19    2.26
   2  -3  15    4.40    2.96
   2  -3  15    2.47    1.48
  -2   3  15    3.52    2.17
  -2  -3 -15    4.56    2.58
   2   3 -15    2.83    1.82
   2   3 -14    7.02    2.49
   2  -3  14    8.95    3.43
  -2   3  14    8.88    3.07
   2  -3  14    6.89    2.12
  -2  -3 -14    2.14    1.69
   2   3 -14    6.90    2.74
  -2  -3 -14    8.77    2.81
  -2  -3 -13    1.85    1.68
   2   3 -13    2.49    1.76
   2  -3  13    0.21    2.00
  -2   3  13    2.59    2.03
   2  -3  13    4.74    2.00
  -2  -3 -13    2.84    1.69
   2   3 -13    5.99    2.56
  -2  -3 -12    8.12    2.61
   2   3 -12    4.99    2.02
  -2   3  12    9.96    2.87
   2  -3  12    9.26    2.19
  -2  -3 -12    6.40    2.38
   2  -3  12    6.78    2.75
   2   3 -12    5.64    2.31
  -2  -3 -11    5.84    2.26
   2  -3  11    3.29    2.22
   2   3 -11    4.09    2.09
  -2   3  11    4.73    2.02
  -2  -3 -11    6.52    1.62
   2  -3  11    4.34    1.58
  -2  -3 -11    4.82    2.42
  -2   3  11    4.51    1.25
   2   3 -11    1.63    1.62
  -2  -3 -10   11.23    2.42
   2  -3  10    6.50    2.35
   2   3 -10   10.38    2.79
  -2   3  10    8.49    2.49
   2  -3  10    7.71    1.94
  -2  -3 -10    8.14    2.84
  -2  -3 -10    9.15    1.77
  -2   3  10   10.29    1.87
   2   3 -10   10.21    3.11
  -2  -3  -9    9.67    2.13
   2   3  -9   11.88    2.81
  -2   3   9   12.87    2.77
   2  -3   9   11.70    2.05
  -2   3   9   12.08    2.11
  -2  -3  -9   13.24    3.44
   2  -3   9   11.25    3.07
   2   3  -9   13.94    3.34
  -2  -3  -9   11.26    2.07
   2  -3   8   13.08    1.87
   2   3  -8   16.73    2.93
   2  -3   8   15.63    3.49
  -2   3   8   16.43    2.60
  -2  -3  -8   15.16    3.28
  -2   3   8   16.92    2.48
   2   3  -8   13.58    3.09
  -2  -3  -8   16.72    2.46
  -2  -3  -8   16.41    2.36
   2   3  -7    1.48    1.37
  -2   3   7    3.92    1.63
   2  -3   7    3.52    0.94
  -2  -3  -7    7.97    2.64
   2  -3   7    3.37    1.74
  -2   3   7    5.95    1.70
   2   3  -7    1.93    1.49
  -2  -3  -7    5.30    1.63
  -2  -3  -7    3.24    1.28
   2  -3   6    5.99    2.11
  -2  -3  -6    3.88    1.43
  -2   3   6    2.35    1.37
   2  -3   6    2.53    0.71
  -2  -3  -6    5.15    2.18
   2   3  -6    3.33    1.34
   2   3  -6    2.19    1.66
  -2  -3  -6    4.40    1.34
  -2  -3  -5   18.55    2.87
  -2  -3  -5   18.68    1.15
  -2   3   5   18.09    2.21
   2  -3   5   16.89    1.38
   2   3  -5   17.94    2.32
  -2  -3  -5   19.14    3.07
   2  -3   5   18.87    2.81
   2   3  -5   21.96    3.26
  -2  -3  -5   20.89    3.30
   2   3  -4   22.69    0.96
  -2  -3  -4   19.57    0.84
  -2   3   4   21.45    2.16
   2  -3   4   19.42    1.08
  -2  -3  -4   19.08    2.88
  -2  -3  -4   21.38    3.09
   2   3  -4   19.42    2.26
   2  -3   4   19.10    2.59
   2   3  -4   21.72    3.04
  -2  -3  -4   21.21    3.38
   2  -3   3   12.56    1.86
   2   3  -3   11.71    0.74
  -2   3   3   12.35    1.57
  -2  -3  -3   13.91    2.15
   2   3  -3   12.98    1.79
  -2  -3  -3   11.14    2.45
   2   3  -3   13.54    1.00
   2   3  -3   13.61    2.27
  -2  -3  -3   19.07    3.51
   2  -3   2   14.74    1.70
  -2   3   2   13.65    1.56
   2   3  -2   15.60    1.49
  -2  -3  -2   14.17    1.92
   2   3  -2   14.73    1.78
  -2  -3  -2   15.67    2.98
   2   3  -2   15.71    2.18
   2   3  -2   13.51    0.96
   2  -3   2   11.96    1.84
  -2  -3  -2   17.69    3.26
   2  -3   1   21.42    2.25
  -2   3   1   20.40    1.74
   2   3  -1   21.77    1.44
  -2  -3  -1   20.97    2.05
  -2  -3  -1   20.86    1.66
   2   3  -1   20.53    2.00
   2   3  -1   23.12    2.36
  -2  -3  -1   29.04    4.07
  -2  -3  -1   26.21    3.82
   2  -3   1   20.51    1.74
   2  -3   0    1.89    0.52
  -2   3   0    2.40    0.65
   2   3   0    1.97    0.26
  -2  -3   0    2.32    0.67
  -2  -3   0    2.22    0.63
   2   3   0    2.57    0.92
  -2  -3   0    0.88    1.77
   2  -3   0    0.92    0.80
  -2  -3   0    2.93    2.07
   2  -3  -1   20.66    2.16
  -2  -3   1   23.81    1.66
  -2  -3   1   19.10    1.70
   2   3   1   20.56    1.75
  -2  -3   1   24.85    3.81
  -2   3  -1   19.64    1.63
   2  -3  -1   20.51    1.29
  -2  -3   1   26.78    4.08
   2  -3  -2   14.21    1.79
   2  -3  -2   13.34    0.92
  -2   3  -2   13.96    1.42
  -2  -3   2   13.25    1.49
   2   3   2   13.52    1.25
  -2  -3   2   12.32    2.82
  -2  -3   2   12.49    3.05
   2   3   3   12.27    1.68
   2  -3  -3   10.78    0.90
   2  -3  -3   13.07    1.78
  -2  -3   3   13.51    1.70
  -2  -3   3   17.46    3.39
  -2   3  -3   11.65    1.76
  -2  -3   3   10.96    2.60
   2  -3  -3   12.22    1.12
  -2   3  -4   20.74    2.59
   2  -3  -4   22.11    1.56
  -2  -3   4   20.82    2.22
  -2  -3   4   22.05    3.48
   2   3   4   22.92    1.37
   2  -3  -4   21.70    2.30
   2   3   4   20.94    2.32
  -2  -3   4   29.15    3.88
   2  -3  -4   21.24    1.78
   2  -3  -5   18.54    1.76
   2   3   5   18.16    2.29
  -2   3  -5   19.86    2.64
   2  -3  -5   18.71    2.18
  -2  -3   5   17.56    2.96
  -2  -3   5   16.14    2.16
  -2   3  -5   15.80    2.30
   2   3   5   16.42    1.26
  -2  -3   5   16.34    3.00
   2   3   6    3.66    1.30
  -2   3  -6    3.08    1.98
   2  -3  -6    2.73    1.03
   2  -3  -6    2.02    1.00
  -2  -3   6    2.69    1.59
  -2  -3   6    1.05    1.23
  -2   3  -6    2.91    1.38
   2   3   6    4.40    0.80
   2   3   7    3.16    1.57
   2  -3  -7    2.35    1.25
  -2  -3   7    2.77    0.52
  -2  -3   7    4.75    2.02
   2  -3  -7    1.84    1.11
  -2  -3   7    1.08    1.34
  -2   3  -7    1.35    1.40
   2  -3  -7    3.95    1.63
  -2   3  -7    4.20    1.67
  -2   3  -7    3.53    1.90
   2   3   7    3.38    0.85
  -2  -3   8   15.56    2.69
   2  -3  -8   15.81    2.34
  -2  -3   8   18.71    3.02
  -2   3  -8   11.73    2.62
  -2   3  -8   16.24    3.31
   2   3   8   12.90    2.48
   2  -3  -8   19.58    2.99
  -2   3  -8   16.16    2.50
   2   3   9   13.22    2.72
  -2   3  -9   10.49    3.32
  -2  -3   9   10.02    2.35
  -2   3  -9   10.50    2.52
   2  -3  -9   10.56    2.61
  -2   3  -9   11.11    2.03
   2  -3  -9   12.72    2.29
  -2  -3   9   12.58    2.26
  -2   3 -10    8.08    3.49
   2  -3 -10    8.92    2.00
  -2  -3  10    4.48    2.00
  -2   3 -10   12.28    2.74
  -2  -3  10   15.84    2.49
   2  -3 -10   11.17    2.74
  -2   3 -10    8.57    1.82
   2   3  10    8.93    2.46
   2   3  11    3.15    1.79
  -2   3 -11    6.03    3.75
   2  -3 -11    7.46    1.91
  -2  -3  11    3.34    1.78
  -2  -3  11    6.43    1.68
  -2   3 -11    6.73    2.38
   2  -3 -11    1.98    1.52
  -2   3 -11    3.89    1.33
  -2   3 -12    3.24    3.55
   2  -3 -12    7.65    2.05
  -2  -3  12   11.08    2.99
  -2   3 -12    1.95    1.61
   2  -3 -12    7.78    2.76
   2   3  12    8.73    2.86
   2  -3 -13    4.65    1.74
  -2  -3  13    3.53    1.96
  -2   3 -13   -1.46    4.25
  -2   3 -13    2.52    1.86
   2   3  13    2.60    2.46
   2  -3 -13    6.79    2.72
   2   3  14    8.94    3.34
  -2   3 -14   12.14    4.93
   2  -3 -14    8.14    2.33
  -2  -3  14    7.67    2.94
  -2   3 -14    6.64    2.25
   2  -3 -14   11.28    3.19
  -2   3 -15    1.30    2.72
   2   3  15    4.90    2.73
  -2  -3  15    2.15    2.46
  -2   3 -15    4.04    2.34
   2  -3 -15    6.73    3.09
  -2   3 -16   -1.88    3.36
   2   3  16    6.40    3.27
  -2  -3  16    3.99    2.49
  -2   3 -16    1.55    1.97
   2  -3 -16    0.33    2.24
  -2   3 -17    3.21    2.73
   2   3  17    3.78    2.28
  -2  -3  17    3.62    2.72
  -2   3 -17   -1.17    2.13
   2  -3 -17    1.54    2.43
  -2  -3  18   -4.27    2.66
  -2   3 -18    0.29    1.66
  -2   3 -18   -2.24    3.43
   2  -3 -18    3.04    2.27
  -2   3 -19    3.83    2.33
   2  -3 -19   -1.24    1.89
   2  -4  18   -0.14    1.79
  -2   4  18    1.64    2.40
  -2  -4 -18    2.55    1.89
   2   4 -18    1.93    1.93
   2  -4  17   -3.32    2.62
  -2   4  17    0.60    2.23
  -2  -4 -17    1.01    1.94
   2   4 -17    1.70    2.34
  -2  -4 -16    0.84    1.65
  -2  -4 -16   -0.92    1.57
   2  -4  16    0.44    2.41
  -2   4  16   -0.67    2.42
   2  -4  16   -0.30    1.46
   2   4 -16   -2.21    2.89
   2   4 -16    0.54    2.22
  -2   4  15    4.12    2.61
   2  -4  15    1.46    1.45
   2   4 -15    1.74    2.34
   2  -4  15    3.25    2.84
  -2  -4 -15    1.43    1.87
  -2  -4 -15    4.65    2.46
   2   4 -15    4.30    2.47
  -2  -4 -14   13.50    3.21
   2   4 -14   14.04    3.70
  -2   4  14    9.83    3.19
   2  -4  14    7.93    3.13
   2   4 -14   10.47    2.96
   2  -4  14   11.80    2.52
  -2  -4 -14   10.70    2.74
  -2  -4 -13    9.24    2.55
  -2  -4 -13    8.27    2.61
   2   4 -13    9.12    3.12
   2  -4  13    7.49    3.22
  -2   4  13   11.17    2.97
   2  -4  13   11.62    2.59
   2   4 -13    8.23    3.14
  -2  -4 -12    2.36    1.66
   2   4 -12   -0.30    1.83
  -2   4  12    1.32    1.74
   2  -4  12    0.43    1.26
  -2  -4 -12   -0.28    1.46
   2  -4  12    0.80    2.09
   2   4 -12    1.77    2.44
  -2  -4 -11    1.30    1.07
   2  -4  11   -0.42    1.94
   2   4 -11   -0.81    1.88
  -2   4  11    2.95    1.98
  -2  -4 -11    1.81    1.74
   2  -4  11    1.81    1.09
  -2  -4 -11    1.42    1.01
  -2   4  11    1.63    1.10
   2   4 -11    0.95    1.78
  -2  -4 -10   22.45    2.95
   2  -4  10   26.09    4.58
   2   4 -10   24.80    3.90
  -2   4  10   24.80    3.71
   2  -4  10   25.60    3.09
  -2  -4 -10   25.68    4.32
  -2   4  10   24.92    2.91
   2   4 -10   23.22    4.09
  -2  -4 -10   27.47    3.03
  -2  -4  -9   16.23    2.49
   2  -4   9   12.54    3.44
   2   4  -9   13.78    2.89
  -2   4   9   10.51    2.35
  -2  -4  -9   15.11    3.51
   2  -4   9   10.58    1.81
  -2   4   9   15.46    2.43
   2   4  -9   14.60    3.30
  -2  -4  -9   13.38    2.27
   2   4  -8    7.16    2.19
   2  -4   8    6.48    2.66
  -2   4   8    7.81    1.98
  -2  -4  -8    6.73    2.88
   2  -4   8    4.62    1.22
   2   4  -8    7.23    2.50
  -2  -4  -8    8.61    1.80
  -2  -4  -8   10.08    2.09
   2  -4   7   16.92    1.81
   2   4  -7   22.82    3.23
  -2   4   7   20.82    2.81
  -2  -4  -7   20.40    2.76
  -2  -4  -7   19.36    3.95
   2  -4   7   17.64    3.27
   2   4  -7   15.23    3.42
  -2  -4  -7   17.64    2.26
  -2   4   6   24.51    2.73
   2   4  -6   25.87    3.00
   2  -4   6   21.50    1.76
  -2  -4  -6   21.20    3.56
  -2  -4  -6   27.57    3.44
   2   4  -6   22.26    3.52
  -2   4   6   21.66    1.27
   2  -4   6   17.46    3.24
   2  -4   5    7.34    2.20
  -2  -4  -5    6.37    0.67
  -2   4   5    9.03    1.73
   2   4  -5    6.81    1.66
  -2  -4  -5    5.35    2.03
   2  -4   5    5.47    0.81
   2   4  -5    8.96    2.40
  -2  -4  -5   10.15    2.29
  -2  -4  -4   37.33    4.14
   2   4  -4   34.29    3.03
  -2  -4  -4   36.07    4.03
  -2   4   4   36.01    2.89
   2  -4   4   34.86    1.61
   2   4  -4   38.85    4.30
   2  -4   4   35.39    3.72
   2  -4   3   22.28    2.54
  -2  -4  -3   29.88    4.10
  -2   4   3   29.90    2.51
  -2  -4  -3   33.00    3.52
   2  -4   3   28.02    1.10
   2   4  -3   27.68    2.65
   2   4  -3   33.74    3.87
   2  -4   3   27.78    3.18
   2  -4   2    5.43    1.38
  -2  -4  -2    2.88    1.87
  -2   4   2    3.84    0.96
  -2  -4  -2    7.44    1.65
   2   4  -2    5.26    1.34
   2   4  -2    4.70    0.51
   2   4  -2    4.38    1.54
   2  -4   2    4.76    1.43
   2  -4   1    1.59    0.96
  -2   4   1    3.07    0.87
  -2  -4  -1    3.64    2.42
   2   4  -1    2.24    0.86
  -2  -4  -1    1.47    0.85
  -2  -4  -1    3.29    0.84
  -2   4   1    1.67    0.36
   2   4  -1    1.85    0.92
   2  -4   1    2.48    0.88
   2   4  -1    1.74    1.24
   2  -4   0   63.92    3.99
  -2  -4   0   79.75    6.89
  -2   4   0   65.51    3.28
   2   4   0   71.07    2.92
  -2   4   0   67.56    1.89
  -2  -4   0   65.80    3.28
  -2  -4   0   70.37    3.51
   2   4   0   84.22    4.73
   2  -4   0   79.16    3.39
   2   4   0   72.57    3.84
   2  -4  -1    2.59    0.54
  -2   4  -1    3.57    0.96
  -2  -4   1    3.78    2.72
  -2  -4   1    2.29    0.62
  -2  -4   1    1.82    0.78
   2  -4  -1    2.00    0.96
   2   4   1    3.10    0.96
   2  -4  -2    4.65    0.42
   2  -4  -2    3.77    1.03
  -2   4  -2    5.39    1.04
  -2  -4   2    5.61    2.54
  -2  -4   2    4.08    1.16
  -2  -4   2    4.91    0.64
   2   4   2    5.67    1.01
  -2   4  -2    4.19    1.17
   2  -4  -2    4.55    0.45
   2  -4  -3   29.86    2.67
  -2  -4   3   29.74    4.24
  -2  -4   3   27.35    2.46
   2   4   3   30.80    1.67
  -2   4  -3   31.23    2.94
   2  -4  -3   28.12    1.46
   2  -4  -4   34.08    2.96
  -2  -4   4   36.10    4.29
  -2  -4   4   36.13    2.97
  -2   4  -4   32.42    3.25
   2   4   4   32.57    2.97
   2  -4  -4   33.28    2.00
  -2  -4   5    6.17    2.22
   2   4   5    6.37    1.72
  -2   4  -5    7.59    1.87
   2  -4  -5    7.39    1.59
  -2  -4   5    5.85    1.51
   2  -4  -5    7.36    1.17
   2   4   6   20.03    2.58
  -2   4  -6   21.49    3.24
   2  -4  -6   24.31    2.67
  -2  -4   6   22.10    2.81
  -2  -4   6   29.34    3.96
   2   4   7   16.51    2.53
   2  -4  -7   16.54    2.40
  -2  -4   7   18.67    2.76
  -2  -4   7   16.84    2.96
  -2   4  -7   21.17    2.94
   2  -4  -7   24.08    2.99
  -2   4  -7   26.17    3.89
  -2   4  -8    8.22    2.77
   2  -4  -8   10.11    2.16
  -2  -4   8    4.53    1.58
  -2  -4   8    7.81    2.29
  -2   4  -8    4.61    1.93
   2  -4  -8    7.70    1.83
   2   4   8    5.47    1.88
   2   4   9   12.77    2.65
  -2   4  -9   15.08    3.61
  -2  -4   9   16.24    2.67
   2  -4  -9   13.02    2.39
  -2  -4   9   13.77    2.81
  -2   4  -9   13.18    2.99
  -2   4  -9   14.65    2.51
   2  -4  -9    9.93    2.26
  -2  -4  10   22.60    2.83
   2   4  10   25.79    3.83
   2  -4 -10   29.74    3.56
  -2  -4  10   23.51    3.66
   2  -4 -10   25.48    3.63
  -2   4 -10   26.14    3.88
  -2   4 -10   25.22    3.08
  -2   4 -10   25.64    5.07
  -2   4 -11    1.70    2.52
   2  -4 -11    3.48    1.52
   2  -4 -11    1.88    1.21
  -2  -4  11    1.55    1.83
  -2   4 -11    0.20    1.56
   2   4  11    2.41    2.06
   2  -4 -11    1.28    1.37
  -2   4 -11    2.48    1.41
  -2  -4  11    0.61    0.94
  -2  -4  12    2.83    2.03
   2   4  12   -1.98    1.83
  -2   4 -12    3.25    3.14
   2  -4 -12    1.99    1.25
  -2   4 -12   -0.25    1.67
   2  -4 -12    2.17    2.00
  -2   4 -13    3.96    3.60
   2  -4 -13   10.61    2.52
  -2  -4  13   10.75    3.10
  -2   4 -13    9.56    2.84
   2  -4 -13   11.82    3.20
   2   4  13   13.29    3.55
  -2   4 -14    2.41    2.82
   2  -4 -14   14.10    2.94
  -2  -4  14    9.95    3.12
  -2   4 -14   11.90    3.33
   2  -4 -14   13.13    3.34
   2   4  14   14.95    3.84
   2   4  15    1.70    2.66
  -2   4 -15    2.03    2.49
   2  -4 -15    2.03    1.70
  -2  -4  15    0.20    1.95
  -2   4 -15    3.66    2.58
   2  -4 -15   -2.20    2.06
  -2   4 -16   -1.17    1.86
  -2  -4  16    2.61    2.51
   2   4  16    2.12    2.81
  -2   4 -16    3.44    2.15
   2  -4 -16   -0.96    2.44
   2   4  17   -2.85    2.84
  -2  -4  17   -0.01    2.17
  -2   4 -17    0.59    1.74
  -2   4 -17   -6.02    4.18
   2  -4 -17    2.20    2.29
   2   4  18    6.17    2.99
  -2   4 -18    1.67    2.06
  -2  -4  18   -0.09    1.64
  -2   4 -18   -0.40    1.75
   2  -4 -18    4.90    2.76
  -2   4 -19    2.49    1.96
   2  -4 -19    1.97    2.22
   2  -5  18   -2.06    2.94
  -2   5  18   -1.26    2.22
  -2  -5 -18   -2.12    2.13
   2   5 -18    1.47    2.32
   2   5 -17    2.06    2.48
  -2   5  17    4.69    2.97
  -2  -5 -17    2.47    2.14
   2  -5  17    1.07    1.91
   2   5 -17    5.50    2.52
   2  -5  16   -3.66    3.14
   2   5 -16   -1.40    2.34
  -2   5  16    2.35    2.21
  -2  -5 -16    2.30    1.90
   2   5 -16    2.47    2.06
   2  -5  15    2.99    2.24
   2   5 -15    0.53    2.48
  -2  -5 -15    1.98    2.30
   2  -5  15    0.39    1.41
  -2   5  15    2.76    1.93
   2   5 -15   -0.48    1.93
  -2  -5 -14    8.08    2.70
   2   5 -14    2.78    2.07
   2  -5  14    2.36    2.29
  -2   5  14    7.64    2.55
  -2  -5 -14    8.33    2.79
   2  -5  14    8.98    2.64
   2   5 -14    6.17    3.05
  -2  -5 -13   27.92    3.83
   2   5 -13   30.52    4.66
   2  -5  13   34.82    5.50
  -2   5  13   35.48    5.05
   2  -5  13   35.08    4.27
  -2  -5 -13   35.95    5.07
   2   5 -13   29.47    4.80
  -2  -5 -12    9.94    2.31
   2  -5  12   10.52    3.05
   2   5 -12    9.30    3.06
  -2   5  12    8.89    2.77
  -2  -5 -12   10.83    3.10
   2  -5  12   12.55    2.48
   2   5 -12    8.22    3.21
  -2  -5 -11   14.28    2.28
   2  -5  11   15.15    3.73
   2   5 -11   14.11    3.45
  -2   5  11   13.36    2.83
  -2  -5 -11   10.53    2.90
   2  -5  11   11.00    2.25
  -2   5  11   14.82    2.31
   2   5 -11   14.51    3.40
  -2  -5 -11   12.20    2.34
   2  -5  10   19.97    4.05
  -2  -5 -10   17.22    2.47
   2   5 -10   17.28    3.43
  -2   5  10   20.73    3.26
  -2  -5 -10   18.19    3.68
   2  -5  10   20.07    2.76
  -2  -5 -10   20.71    2.77
   2   5 -10   15.90    3.80
  -2   5   9   24.00    3.34
   2  -5   9   25.53    4.27
   2   5  -9   25.37    3.81
  -2  -5  -9   27.11    3.25
   2  -5   9   23.75    2.61
  -2  -5  -9   27.59    4.35
  -2  -5  -9   22.32    2.72
   2   5  -9   27.53    4.56
   2   5  -8   20.40    3.38
  -2   5   8   15.56    2.60
   2  -5   8   22.21    4.15
  -2  -5  -8   18.89    3.76
   2  -5   8   16.57    1.99
  -2  -5  -8   17.44    2.65
   2   5  -8   22.12    4.06
  -2  -5  -8   17.76    2.27
  -2  -5  -7  186.46    9.05
   2   5  -7  194.74    9.14
  -2   5   7  185.78    8.12
  -2  -5  -7  218.60   12.10
   2  -5   7  176.63    6.01
   2   5  -7  211.53   11.77
   2  -5   7  213.49   11.36
   2   5  -6   79.65    5.51
  -2  -5  -6   92.35    6.41
  -2   5   6   79.16    4.94
  -2  -5  -6   90.12    7.69
   2  -5   6   73.39    3.31
   2   5  -6   89.98    7.57
   2  -5   6   75.77    6.52
  -2   5   5    5.24    1.57
  -2  -5  -5    4.11    1.73
   2   5  -5    5.72    1.70
  -2  -5  -5    3.19    2.19
   2  -5   5    5.09    0.84
   2  -5   5    7.76    2.50
   2   5  -5    4.10    2.02
   2   5  -4   49.59    3.82
   2  -5   4   54.56    4.19
  -2   5   4   51.02    3.57
  -2  -5  -4   62.40    5.62
   2  -5   4   48.96    2.17
   2   5  -4   58.09    5.67
  -2  -5  -4   55.42    5.49
   2  -5   4   55.86    4.83
   2  -5   3  239.41    8.94
  -2  -5  -3  266.11   12.41
  -2   5   3  259.62    7.90
   2  -5   3  242.57    4.98
   2   5  -3  242.96    8.26
   2   5  -3  231.21   10.84
  -2  -5  -3  246.39   10.83
   2  -5   3  219.67    9.03
   2   5  -2   92.74    4.81
   2   5  -2   92.90    2.36
  -2  -5  -2  104.44    8.07
  -2   5   2   87.74    4.33
  -2  -5  -2   91.93    5.91
   2  -5   2   87.68    5.12
   2   5  -2   97.50    6.46
   2  -5   2   87.14    4.97
   2  -5   1  155.63    6.76
   2   5  -1  142.68    4.27
   2   5  -1  155.19    6.14
  -2  -5  -1  174.21   10.75
  -2   5   1  154.77    5.61
  -2  -5  -1  155.29    6.94
  -2  -5  -1  147.69    5.41
   2   5  -1  164.95    7.70
   2  -5   1  146.47    5.66
   2  -5   0  112.12    4.41
  -2  -5   0   99.28    4.40
  -2  -5   0  111.21    5.01
  -2  -5   0  107.42    8.66
  -2   5   0   99.31    4.42
  -2   5   0  100.26    2.86
   2   5   0  113.56    5.64
   2  -5   0  101.10    5.33
   2   5   0  102.84    4.92
   2  -5   0  110.36    3.76
   2  -5  -1  152.95    3.66
  -2  -5   1  153.07   10.24
  -2   5  -1  144.27    5.42
   2   5   1  151.24    3.34
  -2  -5   1  139.55    5.42
   2  -5  -1  154.66    6.52
   2   5   1  156.48    5.73
  -2   5  -1  159.35    3.63
  -2  -5   1  150.85    4.91
   2  -5  -2   93.73    5.01
   2   5   2   91.56    2.44
  -2  -5   2  101.65    8.26
  -2   5  -2   92.80    4.24
  -2  -5   2   95.79    2.97
  -2   5  -2   92.23    2.78
  -2  -5   2   89.11    4.43
   2   5   2   90.51    3.13
  -2   5  -2   90.81    4.79
   2  -5  -3  252.10    8.62
  -2  -5   3  256.04   12.79
   2   5   3  243.38    5.04
  -2  -5   3  244.34    7.93
  -2   5  -3  260.74    8.78
  -2  -5   4   65.89    6.48
   2   5   4   54.92    2.57
  -2  -5   4   50.58    3.64
   2  -5  -4   49.73    3.82
  -2   5  -4   53.56    4.24
   2   5   4   58.21    4.08
   2   5   5    5.30    1.51
   2  -5  -5    4.58    0.49
  -2   5  -5    7.19    2.04
   2   5   5    5.46    1.12
   2  -5  -5    4.20    1.57
  -2  -5   5    6.76    2.22
  -2  -5   5    4.19    1.49
   2  -5  -6   81.19    5.10
   2   5   6   83.41    4.33
  -2  -5   6   75.80    5.00
  -2  -5   6   83.05    6.65
  -2   5  -6   81.95    6.11
   2   5   6   77.33    4.97
   2  -5  -7  189.40    8.26
   2   5   7  191.27    7.57
  -2  -5   7  183.76    9.73
  -2  -5   7  191.82    8.50
  -2   5  -7  182.93   10.20
   2   5   7  191.02    8.29
   2   5   8   19.52    2.98
   2  -5  -8   20.26    2.85
   2   5   8   19.94    2.54
  -2  -5   8   20.99    3.18
   2  -5  -8   20.11    2.92
  -2   5  -8   15.86    3.49
  -2  -5   8   17.60    3.05
   2   5   9   24.52    3.03
  -2   5  -9   31.06    5.25
   2  -5  -9   28.28    3.51
  -2  -5   9   27.25    3.55
   2  -5  -9   32.50    3.84
  -2   5  -9   23.67    3.56
   2   5   9   29.40    3.75
  -2  -5   9   26.60    3.74
   2   5  10   17.51    3.01
  -2   5 -10   22.78    5.13
  -2  -5  10   20.45    2.94
   2  -5 -10   22.19    3.17
  -2  -5  10   14.83    3.07
  -2   5 -10   19.98    3.38
   2  -5 -10   21.08    3.32
   2   5  11   12.83    2.95
  -2  -5  11   11.98    2.22
  -2   5 -11   18.38    4.69
   2  -5 -11   12.64    2.62
  -2  -5  11   17.53    3.47
  -2   5 -11   15.62    3.17
  -2   5 -11   14.98    2.40
   2  -5 -11   12.79    2.93
   2   5  12    7.94    2.64
  -2   5 -12   11.29    3.78
   2  -5 -12    9.64    2.19
  -2  -5  12    9.86    2.94
  -2   5 -12    7.39    2.67
   2  -5 -12    7.79    2.35
  -2   5 -13   30.48    6.98
  -2  -5  13   29.82    4.65
  -2   5 -13   39.73    5.19
   2   5  13   34.97    5.06
   2  -5 -13   41.19    4.59
   2  -5 -13   40.96    5.29
   2   5  14    6.19    2.94
  -2   5 -14    5.42    4.18
   2  -5 -14    7.80    2.27
  -2  -5  14    6.18    2.57
  -2   5 -14    6.04    2.48
   2  -5 -14    6.56    2.51
   2   5  15    1.99    2.44
  -2   5 -15    2.66    3.62
   2  -5 -15    1.89    1.60
  -2  -5  15    0.07    2.07
  -2   5 -15    3.69    2.47
   2  -5 -15    2.26    2.17
  -2   5 -16   -2.18    2.55
   2  -5 -16    4.15    2.03
  -2  -5  16    1.29    2.29
  -2   5 -16    3.31    2.50
   2  -5 -16    2.98    2.35
   2   5  16    4.51    2.93
  -2   5 -17    3.41    2.68
   2   5  17    0.62    2.57
  -2  -5  17    5.59    2.76
  -2   5 -17    2.20    2.30
   2  -5 -17    1.75    1.89
  -2  -5  18    0.02    2.00
  -2   5 -18    2.25    2.73
   2   5  18    1.26    2.59
  -2   5 -18   -0.75    1.76
   2  -5 -18    0.77    2.07
   2  -6  18    0.44    2.19
   2   6 -18   -0.40    1.86
   2   6 -17    1.30    1.93
   2  -6  17    3.20    2.41
  -2   6  17    1.88    2.52
  -2  -6 -17   -2.30    2.31
   2   6 -17    2.08    1.96
   2  -6  16   -4.55    2.91
  -2   6  16   -0.57    1.71
  -2  -6 -16   -1.15    2.09
   2   6 -16    2.43    2.12
   2   6 -16   -0.50    2.01
   2   6 -15   -0.16    2.09
   2  -6  15    1.27    2.41
  -2   6  15    3.75    2.39
  -2  -6 -15    3.65    2.06
   2   6 -15    1.79    1.88
   2  -6  14    7.82    3.04
  -2   6  14   11.95    3.04
  -2  -6 -14    7.58    2.92
   2  -6  14   10.28    2.51
   2   6 -14    9.59    3.30
   2   6 -14    9.42    3.36
   2   6 -13    4.34    2.85
   2  -6  13   -3.03    2.45
  -2   6  13    1.06    1.84
  -2  -6 -13    1.94    1.65
   2  -6  13   -1.49    1.68
   2   6 -13   -1.46    2.10
   2   6 -12    1.90    1.95
  -2   6  12    2.10    1.75
  -2  -6 -12    4.72    2.80
   2  -6  12    1.74    1.15
   2  -6  12    1.98    2.25
   2   6 -12    2.70    2.26
  -2  -6 -12    1.67    1.14
   2  -6  11    6.07    2.80
   2   6 -11    8.45    3.04
  -2  -6 -11    7.26    1.76
  -2   6  11    6.36    2.35
   2  -6  11    1.55    1.12
   2   6 -11    6.69    2.96
  -2  -6 -11    3.94    2.21
  -2  -6 -11    4.94    1.52
   2  -6  10   18.71    3.90
  -2   6  10   21.29    3.39
  -2  -6 -10   18.56    4.03
   2  -6  10   17.72    2.51
  -2  -6 -10   23.30    3.06
   2   6 -10   16.17    3.42
  -2  -6 -10   20.31    2.57
   2   6 -10   17.50    4.03
   2  -6   9    1.14    1.82
   2   6  -9    1.74    1.84
  -2   6   9    2.84    1.20
  -2  -6  -9    1.82    1.95
   2  -6   9    0.02    0.81
   2   6  -9   -0.32    2.12
  -2  -6  -9    0.51    1.13
   2   6  -8   13.72    2.90
  -2  -6  -8   17.64    2.90
   2  -6   8   20.15    3.99
  -2   6   8   14.28    2.52
   2  -6   8   15.65    1.93
  -2  -6  -8   17.26    3.71
   2   6  -8   20.21    4.14
   2  -6   7    3.43    1.98
  -2   6   7    4.82    1.48
   2   6  -7    3.03    1.73
  -2  -6  -7    4.72    2.20
  -2  -6  -7    9.39    2.61
   2  -6   7    4.38    1.05
   2   6  -7    5.77    2.72
   2  -6   6   35.73    4.43
  -2   6   6   30.24    3.17
   2   6  -6   34.01    3.72
  -2  -6  -6   40.32    5.40
   2  -6   6   29.94    2.18
   2   6  -6   34.85    4.99
  -2  -6  -6   34.40    4.41
   2  -6   5   10.42    2.15
   2  -6   5    8.39    2.24
  -2  -6  -5   10.31    2.92
  -2   6   5   10.04    1.91
  -2  -6  -5   12.09    3.19
   2  -6   5   11.03    1.30
   2   6  -5   10.28    2.00
   2   6  -5   10.63    3.00
  -2   6   4   38.19    3.18
  -2  -6  -4   40.13    4.92
   2  -6   4   38.15    2.11
  -2  -6  -4   41.33    5.22
   2   6  -4   47.20    5.09
   2  -6   4   41.85    3.78
   2   6  -4   45.10    3.81
   2  -6   4   43.04    4.12
   2  -6   3    6.64    1.72
  -2  -6  -3   12.80    3.52
   2  -6   3    9.35    1.88
  -2   6   3    8.05    1.59
   2  -6   3    9.05    1.00
  -2  -6  -3   10.96    2.76
   2   6  -3    9.63    2.03
   2   6  -3   11.23    2.72
   2  -6   2   29.34    3.20
   2   6  -2   29.80    1.17
   2   6  -2   35.13    3.15
  -2   6   2   32.96    2.77
  -2  -6  -2   34.34    4.10
  -2  -6  -2   36.29    5.40
   2   6  -2   36.91    3.89
   2  -6   2   33.21    2.78
   2   6  -1   21.21    2.49
  -2   6   1   21.09    2.18
   2   6  -1   19.37    1.40
  -2  -6  -1   26.92    5.07
  -2  -6  -1   22.61    2.98
  -2  -6  -1   21.84    2.19
   2   6  -1   21.34    2.64
   2  -6   1   19.18    2.48
   2  -6   1   18.62    1.65
  -2  -6   0   39.22    5.96
   2  -6   0   34.17    1.94
   2  -6   0   34.63    3.20
   2   6   0   32.91    1.85
  -2   6   0   31.94    2.61
  -2  -6   0   38.07    3.37
   2   6   0   31.62    2.92
  -2  -6   0   31.12    2.61
   2   6   0   35.79    2.87
   2  -6  -1   23.09    2.71
  -2   6  -1   21.35    2.18
   2   6   1   18.03    1.26
  -2  -6   1   25.07    2.28
  -2  -6   1   18.71    2.10
   2   6   1   19.50    1.73
   2   6   1   17.31    2.16
  -2  -6   1   23.01    4.79
  -2   6  -1   19.11    1.32
   2  -6  -2   35.00    3.27
  -2   6  -2   33.08    2.74
   2   6   2   29.63    1.60
  -2  -6   2   32.64    1.98
  -2  -6   2   32.85    2.89
   2   6   2   34.74    1.63
  -2   6  -2   33.02    2.96
  -2  -6   2   30.58    5.17
   2   6   3    8.24    0.93
  -2   6  -3    9.41    1.58
  -2  -6   3    5.24    2.38
  -2  -6   3    8.73    0.62
  -2  -6   3    9.40    1.72
   2  -6  -3    8.51    1.89
  -2   6  -3    9.38    1.84
   2   6   4   37.28    2.13
  -2  -6   4   38.89    3.34
   2  -6  -4   42.90    3.87
  -2   6  -4   43.11    3.81
  -2  -6   4   38.51    5.42
   2   6   4   39.45    3.42
   2   6   5    7.53    1.77
  -2   6  -5    7.19    1.79
   2  -6  -5    8.38    2.01
   2   6   5    9.44    1.23
  -2  -6   5    6.84    1.55
  -2  -6   6   42.37    5.38
   2  -6  -6   31.85    3.43
   2   6   6   31.90    2.59
  -2  -6   6   33.49    3.54
  -2   6  -6   27.56    3.75
   2   6   6   29.31    3.25
   2   6   7    3.09    1.40
  -2   6  -7    5.93    2.19
   2  -6  -7    4.35    1.90
   2   6   7    5.86    1.37
  -2  -6   7    1.77    1.20
  -2  -6   7    5.70    2.30
   2   6   8   16.23    2.65
   2   6   8   15.53    2.25
   2  -6  -8   19.80    2.95
  -2  -6   8   19.53    3.45
  -2  -6   8   14.09    2.54
  -2   6  -8   18.31    3.68
   2   6   9    0.72    1.38
  -2  -6   9    0.58    1.28
  -2   6  -9    2.11    2.65
   2  -6  -9    0.71    1.30
   2   6   9    0.11    1.10
  -2  -6   9    0.93    1.47
   2  -6  -9    0.92    1.38
   2   6  10   20.18    3.08
  -2   6 -10   12.79    3.99
   2  -6 -10   17.65    3.00
   2   6  10   18.31    2.80
  -2  -6  10   15.91    3.05
  -2  -6  10   21.44    3.22
   2  -6 -10   21.58    3.29
   2   6  11    5.28    2.10
  -2   6 -11    2.59    3.08
   2  -6 -11    5.82    2.27
  -2  -6  11    5.60    1.69
   2   6  11    4.88    1.78
  -2  -6  11    3.05    1.87
   2  -6 -11    3.54    1.72
   2  -6 -12    1.20    1.45
  -2   6 -12    5.21    4.21
   2  -6 -12    4.28    1.89
   2   6  12    1.99    1.65
  -2  -6  12    0.15    1.90
   2  -6 -12    1.41    1.82
  -2   6 -13    5.33    3.95
   2  -6 -13   -0.22    1.57
  -2  -6  13   -0.41    2.08
   2   6  13    4.29    2.26
   2  -6 -13   -2.24    1.85
   2   6  14    4.10    2.29
  -2   6 -14   15.16    5.78
   2  -6 -14   11.73    3.04
  -2  -6  14    4.53    2.31
   2  -6 -14   10.51    2.97
   2   6  15   -1.66    2.02
   2  -6 -15    5.05    2.43
  -2  -6  15    2.16    1.76
  -2   6 -15    3.14    3.06
   2  -6 -15    2.97    2.18
   2   6  16    1.62    2.20
   2  -6 -16    4.78    2.39
  -2  -6  16    0.71    1.89
  -2   6 -16    1.25    2.59
   2  -6 -16    2.17    1.88
  -2   6 -17   -2.60    3.09
   2   6  17    2.43    2.24
  -2  -6  17   -2.61    2.31
   2  -6 -17   -1.98    2.15
   2   6  18    1.58    2.16
   2  -6 -18    1.49    2.33
   2   7 -17   -2.04    2.45
   2  -7  17    3.39    2.52
  -2   7  17   -4.31    3.14
  -2  -7 -17   -1.91    2.12
   2   7 -17    4.65    2.90
   2   7 -16    1.87    2.61
   2  -7  16   -4.36    2.41
  -2   7  16   -1.64    2.66
  -2  -7 -16    0.51    2.13
   2   7 -16    0.04    1.83
   2  -7  15    3.05    2.08
   2   7 -15    2.47    2.64
  -2   7  15    1.09    1.78
  -2  -7 -15   -0.41    1.64
   2   7 -15    0.48    1.65
   2   7 -14    3.15    2.07
   2  -7  14    3.94    2.37
  -2   7  14    3.61    2.14
  -2  -7 -14    1.08    1.87
   2   7 -14    6.00    2.82
   2   7 -13    8.18    3.15
   2  -7  13    7.88    2.85
  -2   7  13    5.61    2.55
  -2  -7 -13    8.10    2.76
   2  -7  13    1.69    1.20
   2   7 -13    8.82    3.19
   2   7 -12    0.83    1.96
  -2   7  12    5.36    2.27
  -2  -7 -12    3.60    2.26
   2  -7  12    4.75    1.57
   2  -7  12    4.23    2.42
   2   7 -12    6.63    3.13
   2  -7  11    8.26    2.88
   2   7 -11    5.03    1.86
  -2   7  11    8.47    2.46
  -2  -7 -11   12.67    3.44
   2  -7  11    8.33    1.93
  -2  -7 -11    8.42    2.00
   2   7 -11   10.00    3.74
  -2  -7 -10    9.43    2.11
   2  -7  10   10.06    3.07
   2   7 -10    8.47    2.73
  -2   7  10   10.31    2.62
  -2  -7 -10    9.04    3.04
   2  -7  10    7.83    1.76
   2   7 -10    8.59    3.11
   2  -7   9    2.52    2.14
  -2  -7  -9    3.82    1.78
  -2   7   9    2.41    1.37
   2   7  -9    0.67    1.62
  -2  -7  -9    2.10    1.95
   2  -7   9    3.67    1.16
   2   7  -9    1.05    2.54
   2  -7   8    9.27    2.78
   2   7  -8   10.11    2.70
  -2   7   8    8.35    1.98
  -2  -7  -8   13.26    3.67
   2  -7   8    7.97    1.45
  -2  -7  -8   12.65    2.69
   2   7  -8   10.75    3.38
   2  -7   7    1.78    1.40
   2  -7   7    4.37    2.11
  -2  -7  -7    6.74    2.66
  -2   7   7    5.04    1.64
   2   7  -7    5.06    1.93
  -2  -7  -7    1.89    1.85
   2  -7   7    3.14    0.95
   2   7  -7    5.74    2.88
   2  -7   6    1.41    1.80
   2  -7   6    2.27    1.49
  -2   7   6    0.03    1.26
   2   7  -6    3.85    1.78
  -2  -7  -6    1.05    1.86
   2  -7   6    0.65    0.63
  -2  -7  -6    1.99    1.97
   2   7  -6    1.98    2.26
   2  -7   5    1.24    1.35
   2  -7   5    1.75    1.46
  -2   7   5    0.70    1.20
  -2  -7  -5    1.79    1.80
   2   7  -5    1.09    1.43
   2  -7   5    1.59    0.64
  -2  -7  -5    2.18    2.24
   2   7  -5    4.05    2.18
   2   7  -4   38.77    3.71
   2  -7   4   37.98    3.82
  -2   7   4   37.38    3.30
  -2  -7  -4   41.17    5.46
   2  -7   4   33.84    2.21
  -2  -7  -4   39.72    5.62
   2   7  -4   38.72    4.66
   2  -7   4   36.37    3.54
   2  -7   3    1.37    1.09
  -2   7   3    1.89    1.16
  -2  -7  -3    2.51    1.92
   2   7  -3    1.93    1.14
   2  -7   3    0.94    0.49
  -2  -7  -3    2.82    2.52
   2   7  -3    1.31    1.45
   2  -7   3    1.02    1.24
   2   7  -2    6.28    0.58
   2  -7   2    9.42    2.18
   2  -7   2    8.69    1.39
  -2   7   2    8.32    1.66
  -2  -7  -2    9.02    2.79
   2   7  -2    7.12    1.66
   2   7  -2    8.65    1.94
   2  -7   1    1.82    1.24
  -2   7   1    2.28    1.06
  -2  -7  -1    3.57    1.56
   2   7  -1    2.35    1.09
  -2  -7  -1    1.89    0.95
   2   7  -1    2.94    1.19
   2  -7   0   25.30    1.50
   2   7   0   30.46    2.94
   2   7   0   29.77    1.93
  -2   7   0   28.55    2.64
  -2  -7   0   26.69    3.35
  -2  -7   0   25.14    2.56
   2  -7   0   28.61    3.21
   2   7   0   28.54    2.46
  -2   7  -1    2.69    0.55
   2  -7  -1    4.58    1.57
  -2   7  -1    4.14    1.19
   2   7   1    2.25    0.58
  -2  -7   1    1.37    0.96
  -2  -7   1    1.69    0.96
   2   7   1    3.79    1.37
   2   7   1    3.22    0.80
   2  -7  -2    6.28    1.77
  -2   7  -2    7.72    1.46
   2   7   2    7.70    0.95
  -2  -7   2    9.92    1.46
  -2  -7   2    8.67    1.74
  -2   7  -2    7.71    1.58
   2  -7  -3    0.79    1.19
  -2   7  -3    3.00    1.29
   2   7   3    1.11    0.48
  -2  -7   3    2.54    0.56
  -2  -7   3    1.58    1.02
  -2   7  -3    2.61    1.26
   2  -7  -4   36.86    3.68
   2   7   4   38.28    2.32
  -2  -7   4   38.47    3.49
  -2   7  -4   40.64    3.72
   2   7   5    3.05    1.31
  -2   7  -5    2.00    1.66
   2   7   5    2.13    0.71
   2  -7  -5    1.95    1.57
  -2  -7   5    2.62    1.52
  -2  -7   5    4.20    2.89
   2   7   6    0.83    1.19
   2  -7  -6   -0.24    1.35
   2   7   6    1.97    0.84
  -2  -7   6    2.20    1.59
  -2  -7   6   -0.18    2.41
  -2   7  -6   -0.24    1.42
   2   7   7    5.51    1.75
  -2   7  -7    3.83    2.23
   2  -7  -7    4.92    1.81
   2   7   7    4.04    1.13
  -2  -7   7    2.04    2.06
  -2  -7   7    2.69    1.46
   2   7   8    6.60    1.96
   2  -7  -8    5.49    1.74
   2   7   8    9.76    1.83
  -2  -7   8    6.40    1.98
  -2   7  -8   10.76    2.99
  -2  -7   8    9.87    2.86
   2   7   9    2.62    1.38
  -2   7  -9    0.83    2.39
   2  -7  -9    6.14    2.14
   2   7   9    4.75    1.44
  -2  -7   9    5.85    2.43
  -2  -7   9    3.17    1.79
   2  -7  -9    3.84    1.51
  -2  -7  10    6.98    2.29
  -2   7 -10   11.67    4.21
   2  -7 -10    6.10    2.04
  -2  -7  10    8.26    2.41
   2   7  10    8.28    2.09
   2  -7 -10    7.94    2.14
   2   7  10   11.05    2.57
   2   7  11    6.42    2.32
  -2   7 -11    6.07    4.14
   2  -7 -11    4.25    1.94
   2   7  11   10.41    2.42
  -2  -7  11    7.81    2.72
   2  -7 -11    9.12    2.38
  -2  -7  11    4.93    1.81
   2   7  12    9.78    2.85
   2  -7 -12    7.22    2.29
  -2   7 -12    7.85    3.69
  -2  -7  12    4.91    2.49
   2  -7 -12    4.92    2.04
   2   7  13    6.80    2.57
  -2   7 -13    5.26    4.12
   2  -7 -13    5.71    2.22
  -2  -7  13    3.34    2.21
   2  -7 -13    5.23    2.30
   2   7  14   -0.22    2.28
  -2   7 -14    6.96    4.61
  -2  -7  14    1.38    2.02
   2  -7 -14    6.68    2.50
   2  -7 -14    4.31    2.04
  -2   7 -15    0.80    2.81
   2  -7 -15    0.48    1.68
  -2  -7  15    1.38    2.09
   2  -7 -15    5.24    2.20
   2   7  15   -1.75    2.39
   2   7  16   -0.50    1.98
  -2   7 -16    1.31    1.91
   2  -7 -16   -3.01    2.10
  -2  -7  16   -3.31    3.04
   2  -7 -16    1.44    1.97
   2   7  17   -0.75    2.21
   2  -7 -17   -0.35    1.47
  -2   7 -17    2.22    3.38
  -2  -7  17   -4.24    3.12
   2  -7 -18    2.61    2.12
   2   8 -17    3.90    3.14
   2  -8  17    9.63    3.78
  -2  -8 -16    4.40    2.52
   2   8 -16    0.08    2.21
   2  -8  16   -1.33    2.62
  -2   8  16   -0.28    2.11
   2   8 -16    3.74    2.80
   2   8 -15    3.25    2.54
   2  -8  15    0.96    2.55
  -2  -8 -15    7.00    2.73
  -2   8  15    5.78    3.01
   2   8 -15    3.29    2.67
   2   8 -14   -0.75    2.25
   2  -8  14   -0.41    1.98
  -2   8  14    2.79    2.01
  -2  -8 -14    1.25    2.20
   2   8 -14    2.15    2.24
   2   8 -13    4.19    2.83
   2  -8  13   -0.53    1.96
  -2   8  13   -0.65    1.91
  -2  -8 -13   -2.30    1.93
   2   8 -13   -1.00    2.14
   2   8 -12    2.04    1.86
  -2   8  12    1.31    1.75
  -2  -8 -12   -1.59    2.29
   2  -8  12    2.44    2.16
   2   8 -12    6.72    3.18
  -2  -8 -11   23.13    4.31
   2  -8  11   24.29    4.41
   2   8 -11   24.51    4.23
  -2   8  11   23.68    3.64
   2  -8  11   23.89    3.01
  -2  -8 -11   25.49    3.47
   2   8 -11   20.37    4.52
   2  -8  10   16.13    3.59
   2   8 -10   10.57    3.09
  -2   8  10    9.18    2.44
  -2  -8 -10   11.29    2.52
  -2  -8 -10   13.15    3.47
   2  -8  10    8.19    1.71
   2   8 -10   11.59    3.94
   2  -8   9   10.57    2.50
   2  -8   9   13.76    3.20
   2   8  -9    8.12    2.75
  -2   8   9   10.88    2.42
  -2  -8  -9   15.05    3.76
   2  -8   9    9.74    1.71
  -2  -8  -9   13.56    2.97
   2   8  -9   17.35    3.98
   2   8  -8    5.95    2.29
  -2   8   8    8.58    2.17
   2  -8   8    8.91    2.68
  -2  -8  -8    6.64    2.48
  -2  -8  -8   10.61    3.26
   2  -8   8    5.45    1.26
   2  -8   8    8.66    2.38
   2   8  -8    5.40    2.52
   2  -8   7   15.81    3.08
  -2  -8  -7   19.50    3.48
  -2   8   7   16.22    2.56
   2   8  -7   21.63    3.48
  -2  -8  -7   17.96    3.54
   2  -8   7   15.58    1.89
   2  -8   7   19.04    3.13
   2   8  -7   20.83    4.30
  -2  -8  -6   23.88    4.11
   2  -8   6   19.85    3.21
  -2   8   6   20.43    2.86
   2   8  -6   15.29    2.87
  -2  -8  -6   22.18    4.28
   2  -8   6   19.08    2.02
   2  -8   6   15.19    2.75
   2   8  -6   26.10    4.41
   2   8  -5   74.32    5.52
   2  -8   5   73.16    5.54
  -2  -8  -5   80.18    7.66
  -2   8   5   64.74    4.67
   2  -8   5   67.58    3.56
   2   8  -5   73.93    6.73
   2  -8   5   70.97    5.21
   2   8  -4   29.94    3.42
   2  -8   4   32.07    3.74
  -2   8   4   30.03    3.09
  -2  -8  -4   35.74    5.33
   2  -8   4   33.09    2.36
   2   8  -4   36.13    4.32
   2  -8   4   35.26    3.30
  -2   8   3   27.11    2.92
  -2  -8  -3   25.86    4.30
   2  -8   3   21.92    1.92
   2   8  -3   20.82    2.73
   2  -8   3   29.28    3.36
   2   8  -3   26.87    3.43
   2  -8   2    9.61    2.19
  -2   8   2    8.12    1.80
  -2  -8  -2    8.20    2.56
   2   8  -2    8.97    2.04
   2   8  -2    8.86    1.91
   2  -8   1   71.61    5.20
   2   8  -1   70.59    4.76
  -2   8   1   65.40    4.24
  -2  -8  -1   73.42    6.63
  -2  -8  -1   64.48    4.20
   2   8  -1   70.72    4.40
   2  -8   0   35.84    3.71
   2   8   0   33.59    3.29
   2   8   0   32.63    2.22
  -2   8   0   32.74    3.05
  -2  -8   0   32.56    4.17
  -2  -8   0   30.48    2.89
   2   8   0   31.94    2.62
   2   8   1   71.83    4.64
  -2   8  -1   62.49    4.19
   2   8   1   74.12    3.25
  -2  -8   1   74.26    5.59
  -2  -8   1   69.19    4.42
   2  -8  -1   66.01    4.88
   2  -8  -2    6.83    1.96
  -2   8  -2    8.70    1.72
  -2  -8   2   10.14    1.85
  -2  -8   2    6.54    1.68
   2   8   2    8.46    1.10
   2   8   2    6.40    1.69
  -2   8  -2    7.88    1.61
  -2  -8   3   28.42    2.28
   2  -8  -3   21.33    2.89
  -2   8  -3   24.01    2.73
   2   8   3   22.05    1.81
  -2  -8   3   24.06    2.88
  -2   8  -3   25.53    2.89
   2  -8  -4   31.44    3.64
   2   8   4   32.43    2.30
  -2  -8   4   32.12    3.41
  -2   8  -4   31.73    3.36
   2   8   5   69.29    3.58
  -2  -8   5   64.74    4.88
   2  -8  -5   67.63    5.25
  -2   8  -5   71.00    5.48
   2   8   5   74.89    5.16
   2   8   6   16.49    2.59
  -2   8  -6   17.92    3.16
   2  -8  -6   16.01    2.90
  -2  -8   6   24.58    4.88
   2   8   6   18.00    2.00
  -2  -8   6   17.29    2.66
   2   8   7   18.50    2.85
  -2  -8   7   27.22    4.93
  -2   8  -7   17.06    3.53
   2  -8  -7   21.13    3.32
   2   8   7   18.04    2.18
  -2  -8   7   17.40    2.80
   2   8   8    8.23    2.01
  -2   8  -8    6.19    2.51
   2  -8  -8    8.37    2.29
   2   8   8    7.68    1.71
  -2  -8   8    4.88    1.77
  -2  -8   8   12.70    3.48
   2   8   9   11.52    2.53
  -2  -8   9   10.12    2.77
   2  -8  -9   13.69    2.62
   2   8   9   11.42    2.21
  -2  -8   9   12.40    2.73
  -2   8  -9   11.12    3.64
   2   8  10    9.06    2.57
  -2   8 -10   16.03    4.51
  -2  -8  10   13.69    3.17
  -2  -8  10   10.21    2.60
   2  -8 -10   11.27    3.04
   2  -8 -10   12.17    2.56
  -2   8 -11   17.31    4.84
  -2  -8  11   26.79    3.96
   2  -8 -11   16.09    3.18
   2   8  11   23.53    3.76
  -2  -8  11   20.17    3.57
   2  -8 -11   24.16    3.60
   2   8  12   -0.53    1.56
  -2   8 -12    0.77    3.16
   2  -8 -12    0.72    1.37
  -2  -8  12   -0.19    1.62
   2  -8 -12    1.26    1.51
  -2   8 -13   -2.48    3.47
   2  -8 -13    1.55    1.59
  -2  -8  13    0.16    1.67
   2  -8 -13    1.77    1.80
   2   8  13    5.16    2.51
  -2   8 -14    3.19    2.77
   2  -8 -14    4.12    2.09
  -2  -8  14    7.41    3.02
   2   8  14    1.96    1.79
   2  -8 -14    4.92    2.37
   2   8  15    8.51    3.24
  -2   8 -15   11.21    4.63
   2  -8 -15    6.02    2.23
  -2  -8  15    7.05    2.62
   2  -8 -15    4.52    2.39
   2   8  16    4.06    2.94
  -2   8 -16    0.01    2.59
   2  -8 -16    2.29    2.10
  -2  -8  16    2.00    2.35
   2  -8 -16   -0.61    2.09
   2  -8 -17    5.15    2.64
   2   8  17   -1.38    2.97
   2  -8 -17    0.93    1.87
   2  -8 -18    1.84    1.92
   2  -9  17    2.62    2.22
   2   9 -16    5.03    3.02
   2  -9  16    1.43    1.71
  -2   9  16    4.85    2.42
  -2  -9 -16    1.98    2.27
   2   9 -16   -1.56    2.54
   2   9 -15    2.10    2.43
   2  -9  15   -3.93    2.65
  -2   9  15    1.82    1.75
  -2  -9 -15    0.49    2.29
   2   9 -15    4.96    3.23
   2   9 -14    0.47    2.10
   2  -9  14    1.72    2.48
  -2   9  14   -1.32    1.83
  -2  -9 -14    0.99    1.65
   2   9 -14    2.19    2.59
   2  -9  13    1.97    1.66
   2   9 -13    0.81    2.15
   2  -9  13    1.21    1.61
  -2   9  13    0.01    1.81
  -2  -9 -13    1.11    2.12
   2   9 -13   -3.94    2.81
   2  -9  12    5.12    2.32
   2   9 -12    6.23    2.99
   2  -9  12    8.14    2.83
  -2   9  12    7.52    2.57
  -2  -9 -12    9.18    3.25
   2   9 -12    5.93    3.09
   2  -9  11    6.92    2.53
   2  -9  11    7.02    2.75
   2   9 -11    6.33    2.71
  -2  -9 -11    8.53    2.48
  -2   9  11    3.98    1.95
  -2  -9 -11    3.72    2.86
   2   9 -11    6.69    3.27
   2  -9  10   28.32    4.04
   2  -9  10   29.92    4.68
   2   9 -10   28.23    4.53
  -2   9  10   25.26    3.64
  -2  -9 -10   32.45    5.27
   2  -9  10   22.88    2.78
  -2  -9 -10   27.79    4.16
   2   9 -10   33.06    5.52
   2  -9   9    0.34    1.56
   2   9  -9    3.94    2.05
  -2   9   9   -0.78    1.38
  -2  -9  -9   -0.37    1.93
  -2  -9  -9    0.78    1.80
   2  -9   9   -0.58    0.90
   2  -9   9   -1.00    1.31
   2   9  -9    0.92    2.12
   2  -9   8   11.51    2.72
  -2   9   8    7.28    2.03
   2   9  -8   14.42    3.12
   2  -9   8   10.52    2.56
  -2  -9  -8   13.56    3.70
  -2  -9  -8   11.49    2.97
   2  -9   8    9.38    1.61
   2   9  -8   12.45    3.52
   2  -9   7   12.28    2.65
   2  -9   7    9.58    2.36
  -2   9   7    7.88    2.06
   2   9  -7   10.92    2.69
  -2  -9  -7   12.29    3.43
   2  -9   7    8.86    1.48
   2   9  -7   13.98    3.55
  -2  -9  -7   13.55    3.75
   2   9  -6   54.19    5.14
   2  -9   6   57.46    4.98
  -2   9   6   58.07    4.69
  -2  -9  -6   64.26    7.16
   2  -9   6   54.60    3.55
   2   9  -6   60.79    6.42
   2  -9   5    3.27    1.56
  -2   9   5    3.23    1.41
  -2  -9  -5    5.19    2.11
   2   9  -5    6.25    1.85
   2  -9   5    5.93    1.26
   2   9  -5    5.38    2.46
   2   9  -4   70.31    5.35
  -2   9   4   71.38    4.88
   2  -9   4   69.03    3.74
   2  -9   4   66.74    5.33
  -2  -9  -4   80.57    7.65
   2   9  -4   78.75    6.23
   2  -9   3   15.79    2.69
  -2   9   3   16.44    2.40
  -2  -9  -3   21.55    4.24
   2  -9   3   16.62    1.84
   2   9  -3   22.16    3.03
   2   9  -3   15.43    2.58
   2  -9   2   43.36    4.27
  -2   9   2   38.08    3.54
  -2  -9  -2   48.02    5.88
   2   9  -2   37.90    3.59
   2   9  -2   45.12    4.09
   2  -9   1   10.57    2.26
  -2   9   1   10.03    1.98
  -2  -9  -1   10.18    3.07
   2   9  -1   10.47    2.27
  -2  -9  -1    7.10    1.75
   2   9  -1    9.92    1.75
   2  -9   0  113.71    6.72
   2   9   0  102.91    4.35
  -2   9   0   99.44    5.46
  -2  -9   0   96.39    5.37
   2   9   0  100.98    5.85
  -2  -9   0   93.59    7.72
  -2   9  -1   10.35    1.79
   2   9   1    8.81    1.32
   2  -9  -1   11.15    2.32
  -2  -9   1   11.73    2.72
  -2  -9   1    8.68    1.96
   2   9   1    9.03    1.97
   2  -9  -2   37.20    4.01
  -2   9  -2   37.58    3.50
   2   9   2   40.94    2.63
  -2  -9   2   42.49    4.29
  -2  -9   2   42.98    3.76
   2   9   2   42.24    3.76
  -2   9  -2   39.82    3.36
   2  -9  -3   19.62    3.06
   2   9   3   22.00    1.93
  -2   9  -3   17.30    2.57
  -2  -9   3   18.72    2.63
   2   9   3   17.53    2.63
  -2   9  -3   18.46    2.48
   2  -9  -4   75.69    5.72
  -2   9  -4   79.88    5.18
   2   9   4   74.01    3.73
  -2  -9   4   66.00    4.99
  -2   9  -4   70.31    5.07
   2   9   5    4.68    1.67
   2  -9  -5    4.14    1.75
   2   9   5    3.71    0.98
  -2  -9   5    2.60    1.28
  -2   9  -5    4.36    1.71
   2  -9  -6   62.24    5.36
   2   9   6   55.49    3.61
  -2  -9   6   51.67    4.64
  -2   9  -6   53.63    5.20
   2   9   6   65.14    5.15
   2   9   7    8.25    2.16
   2  -9  -7   10.42    2.54
   2   9   7    9.90    1.72
  -2  -9   7    9.81    2.31
  -2   9  -7   13.15    3.08
   2   9   8   11.38    2.41
   2  -9  -8   11.10    2.56
  -2   9  -8   11.97    3.36
  -2  -9   8    9.36    2.46
   2   9   8    9.36    1.78
  -2  -9   8   12.33    3.54
   2   9   9    1.41    1.50
  -2   9  -9    4.59    3.10
   2  -9  -9    0.22    1.32
  -2  -9   9    1.05    1.71
  -2  -9   9    0.72    1.78
  -2   9 -10   28.90    5.65
  -2  -9  10   34.28    4.87
   2  -9 -10   30.63    4.30
  -2  -9  10   25.38    4.00
   2  -9 -10   33.12    4.10
   2   9  10   30.54    4.02
   2   9  11    4.48    1.73
  -2   9 -11    7.30    4.00
   2  -9 -11    5.30    2.10
  -2  -9  11    7.99    2.62
  -2  -9  11    4.26    1.96
   2  -9 -11    4.49    1.83
   2   9  12    5.40    2.23
  -2   9 -12    6.61    3.40
   2  -9 -12    2.35    1.72
  -2  -9  12    4.60    2.37
   2  -9 -12    5.42    2.06
  -2   9 -13    2.82    3.61
   2  -9 -13    3.30    1.96
   2  -9 -13    0.65    1.67
  -2  -9  13   -1.62    2.24
   2   9  13    0.15    1.76
   2  -9 -13    4.10    2.28
   2   9  14   -0.37    1.50
  -2   9 -14    1.36    3.09
   2  -9 -14    4.15    2.19
  -2  -9  14    4.42    2.23
   2   9  15   -2.02    2.41
  -2  -9  15    1.31    1.98
   2  -9 -15   -2.44    2.04
   2  -9 -15    1.55    1.51
   2   9  16    2.29    2.28
  -2   9 -16    4.71    3.23
   2  -9 -16    6.89    2.82
  -2  -9  16   -1.97    1.96
   2  -9 -16    3.64    2.48
   2  -9 -17    0.45    1.52
   2  -9 -17    1.74    1.87
   2 -10  17   -0.32    1.63
   2 -10  16    0.92    1.44
   2  10 -15    3.27    2.87
  -2  10  15   -0.40    2.10
  -2 -10 -15   -3.62    3.14
   2 -10  15    5.14    2.33
   2  10 -15   -1.50    2.67
   2  10 -14    1.50    2.63
  -2  10  14   -0.87    1.74
   2 -10  14   -0.52    1.66
  -2 -10 -14    0.30    1.95
   2  10 -14    1.71    2.67
   2 -10  13    6.89    2.63
   2  10 -13    5.08    2.98
  -2  10  13    4.28    2.11
  -2 -10 -13    5.15    2.62
   2  10 -13    5.35    3.20
   2  10 -12    7.28    2.97
  -2  10  12    4.10    2.26
  -2 -10 -12   -0.65    2.92
   2  10 -12    8.27    3.08
   2 -10  12    7.43    2.70
   2  10 -11    5.43    3.17
  -2  10  11    1.48    1.78
  -2 -10 -11    0.13    1.75
   2 -10  11    1.79    1.60
   2  10 -11   -4.05    2.67
  -2 -10 -10    4.13    2.29
  -2  10  10    2.05    1.76
  -2 -10 -10    2.76    2.64
   2 -10  10   -0.30    1.36
   2  10 -10   -0.19    1.78
   2  10 -10    0.27    2.76
   2  10  -9    1.53    1.86
  -2 -10  -9    4.29    2.16
  -2  10   9    3.17    1.81
  -2 -10  -9    2.78    2.16
   2  10  -9   -0.25    2.16
   2 -10   9    4.85    1.94
   2 -10   8    8.52    2.17
  -2  10   8    8.39    2.26
   2  10  -8    6.60    2.60
  -2 -10  -8    6.86    2.90
   2 -10   8    7.38    1.57
  -2 -10  -8    6.03    2.60
   2  10  -8    9.61    3.09
   2  10  -7    1.11    1.70
   2 -10   7    0.19    1.25
  -2  10   7    1.65    1.45
  -2 -10  -7   -1.03    2.56
   2 -10   7    1.74    1.00
   2  10  -7    2.30    2.37
  -2  10   6    6.87    1.98
   2  10  -6    9.24    2.47
  -2 -10  -6   10.16    3.40
   2 -10   6    7.78    1.54
   2 -10   6    9.11    2.26
   2  10  -6    9.70    2.84
   2 -10   5    2.28    1.63
  -2  10   5   -0.25    1.33
  -2 -10  -5   -0.51    1.93
   2  10  -5    0.70    1.38
   2 -10   5    1.62    0.85
   2  10  -5    2.94    1.82
  -2  10   4    2.62    1.48
  -2 -10  -4    4.47    2.13
   2  10  -4    5.09    1.99
   2 -10   4    3.17    1.00
   2  10  -4    2.91    1.60
   2 -10   4    7.85    2.18
  -2  10   3    3.64    1.55
  -2 -10  -3    2.56    2.05
   2  10  -3    4.32    1.67
   2 -10   3    3.17    1.82
   2  10  -3    3.82    1.66
   2 -10   2   22.00    3.26
  -2  10   2   26.46    3.16
  -2 -10  -2   27.23    4.81
  -2 -10  -2   31.29    6.86
   2  10  -2   22.97    3.15
   2 -10   1    2.74    1.42
   2  10  -1    2.14    0.94
  -2  10   1    1.22    1.20
  -2 -10  -1    2.31    2.09
  -2 -10  -1    2.87    4.25
   2  10  -1    1.50    1.46
  -2 -10  -1    2.56    1.16
  -2  10   0    4.09    1.50
   2 -10   0    0.37    1.25
   2  10   0    4.66    1.00
  -2 -10   0    5.91    2.43
  -2 -10   0    4.66    5.17
   2  10   0    3.97    1.71
  -2 -10   0    3.06    1.28
   2 -10  -1    1.46    1.35
   2  10   1    1.74    0.84
  -2 -10   1    2.28    1.52
  -2 -10   1    0.11    4.74
  -2  10  -1    2.44    1.36
  -2 -10   1    2.53    1.44
   2  10   1    0.73    0.98
   2  10   2   22.79    3.00
   2 -10  -2   22.30    3.28
   2  10   2   23.26    2.14
  -2  10  -2   21.54    2.78
  -2 -10   2   26.41    3.92
  -2 -10   2   23.80    3.02
  -2 -10   2   28.78    6.58
  -2  10  -2   22.38    2.58
   2 -10  -3    5.54    1.97
  -2  10  -3    3.10    1.26
   2  10   3    3.38    0.87
  -2 -10   3    3.44    1.50
   2  10   3    2.88    1.40
  -2  10  -3    2.85    1.23
  -2  10  -4    5.41    1.75
   2 -10  -4    1.90    1.59
   2  10   4    3.80    0.92
  -2  10  -4    4.33    1.56
  -2 -10   4    4.20    1.63
   2  10   4    2.92    1.38
   2  10   5    2.66    1.47
  -2  10  -5    1.34    1.35
   2 -10  -5    4.03    1.92
   2  10   5    2.09    0.90
  -2 -10   5    0.91    1.43
   2  10   6    5.23    1.77
  -2  10  -6    9.85    2.44
   2 -10  -6    9.06    2.63
   2  10   6    7.61    1.44
  -2 -10   6    6.90    2.11
   2  10   7    2.01    1.46
  -2  10  -7   -0.78    1.73
  -2 -10   7    3.32    1.79
   2 -10  -7    3.97    2.13
   2  10   8    9.65    2.35
  -2  10  -8    8.38    2.75
   2 -10  -8   10.44    2.91
  -2 -10   8    9.52    2.37
   2  10   9    3.15    1.48
  -2  10  -9    5.91    2.68
   2 -10  -9    3.48    2.01
  -2 -10   9    5.60    2.38
  -2 -10   9    2.58    1.56
   2  10  10   -0.17    1.29
  -2  10 -10   -0.39    2.86
   2 -10 -10    1.65    1.45
  -2 -10  10    2.13    1.66
   2 -10 -10    0.39    1.15
  -2 -10  10    2.60    2.57
  -2 -10  11   -2.42    1.80
   2  10  11    1.92    1.47
  -2  10 -11    4.66    3.55
   2 -10 -11    7.78    2.89
  -2 -10  11    0.28    1.58
   2 -10 -11    2.27    1.54
   2  10  12    6.78    2.50
   2 -10 -12    6.75    2.45
  -2  10 -12    7.06    3.95
  -2 -10  12    4.67    2.60
   2 -10 -12    3.01    1.83
   2  10  13    8.00    3.02
  -2  10 -13    3.20    2.82
   2 -10 -13    3.28    1.94
   2 -10 -13    7.94    2.52
  -2 -10  13    2.59    2.06
   2 -10 -13    2.70    1.99
  -2  10 -14   -1.73    3.04
   2 -10 -14    0.28    1.76
  -2 -10  14   -4.61    2.94
   2  10  14   -0.42    1.50
   2 -10 -14    0.35    1.23
   2  10  15   -2.60    2.68
  -2  10 -15    0.60    2.75
   2 -10 -15   -3.47    2.27
  -2 -10  15   -1.69    2.20
   2 -10 -15   -1.66    1.91
   2 -10 -16    1.34    2.06
   2  10  16   -1.26    2.10
   2 -10 -16    2.94    2.12
   2 -11  16    0.96    1.50
   2 -11  15    3.89    2.09
   2  11 -15   -2.65    3.20
   2 -11  14    1.87    1.81
   2  11 -14   -2.00    2.66
  -2  11  14    1.31    1.84
  -2 -11 -14    4.70    3.08
   2  11 -14   -1.73    2.35
   2 -11  13    4.89    2.57
   2  11 -13    0.01    1.83
  -2  11  13   -0.02    1.85
  -2 -11 -13    3.09    2.31
   2  11 -13    1.97    2.59
   2 -11  12    0.97    1.62
   2  11 -12    3.39    2.83
  -2  11  12    1.12    1.81
  -2 -11 -12   -1.76    2.58
   2  11 -12    0.74    2.42
   2  11 -11    8.59    3.21
  -2  11  11    3.16    1.59
  -2 -11 -11    7.55    3.34
   2 -11  11    4.20    2.01
   2  11 -11   -0.31    2.59
  -2 -11 -10   -0.07    2.06
   2 -11  10    2.13    1.93
   2  11 -10   -0.04    1.58
  -2  11  10    1.58    1.71
  -2 -11 -10    0.56    1.63
   2  11 -10   -0.16    2.47
  -2 -11  -9   17.56    4.10
   2  11  -9    9.59    3.08
  -2  11   9    6.97    2.12
  -2 -11  -9   10.89    3.45
   2 -11   9   11.36    2.71
   2  11  -9   15.09    3.82
  -2  11   8    2.45    1.65
   2  11  -8    1.57    1.60
  -2 -11  -8    4.93    2.42
   2  11  -8    5.91    2.83
   2 -11   8    4.82    2.05
   2 -11   7    0.09    1.18
  -2  11   7    0.29    1.32
   2  11  -7    0.58    1.65
  -2 -11  -7    0.98    2.04
   2  11  -7    2.27    1.83
  -2  11   6    1.41    1.46
   2  11  -6    0.91    1.80
  -2 -11  -6    0.88    1.80
   2 -11   6    1.24    0.91
   2 -11   6    0.31    1.46
   2  11  -6   -2.60    2.21
   2 -11   5   21.89    3.51
  -2  11   5   22.55    3.21
  -2 -11  -5   24.34    4.66
   2  11  -5   17.61    3.19
   2 -11   5   18.22    2.32
   2  11  -5   23.38    3.73
   2 -11   4    9.17    2.47
  -2  11   4    6.30    1.92
  -2 -11  -4    1.10    2.04
   2  11  -4    8.97    2.27
   2 -11   4    5.04    1.24
   2  11  -4    7.95    2.05
  -2  11   3    8.21    1.96
  -2 -11  -3    8.03    3.06
   2  11  -3   10.60    2.43
   2 -11   3    7.46    2.25
   2 -11   2    0.11    1.34
  -2  11   2   -0.28    1.04
  -2 -11  -2    0.96    1.82
  -2 -11  -2    0.29    3.42
   2  11  -2    0.04    1.25
   2 -11   1   19.07    3.25
   2  11  -1   17.02    2.11
  -2  11   1   19.53    2.84
  -2 -11  -1   18.42    4.12
  -2 -11  -1   25.27    8.04
   2  11  -1   16.71    2.82
  -2 -11  -1   18.23    2.70
   2  11   0    0.34    0.81
  -2  11   0   -0.88    1.22
   2 -11   0    0.15    1.43
  -2 -11   0   -3.38    2.58
   2  11   0   -0.31    1.28
  -2 -11   0   -0.64    1.23
   2 -11  -1   17.15    2.97
  -2  11  -1   22.49    2.94
   2  11   1   13.76    1.86
  -2 -11   1   19.26    4.15
  -2 -11   1    9.67    4.38
   2  11   1   17.79    2.84
  -2 -11   1   14.99    2.62
   2 -11  -2    1.36    1.33
  -2  11  -2    2.19    1.60
   2  11   2   -0.31    0.61
  -2 -11   2   -1.31    5.02
  -2 -11   2    3.02    1.53
   2  11   2    0.45    0.90
  -2  11  -2   -0.04    0.95
   2 -11  -3    8.23    2.24
  -2  11  -3    9.13    2.23
   2  11   3    9.72    1.58
  -2 -11   3   12.13    5.17
  -2 -11   3   10.07    2.20
   2  11   3    9.48    2.07
  -2  11  -3    6.62    1.70
  -2  11  -4    7.52    1.96
   2 -11  -4    7.35    2.27
  -2  11  -4    9.01    2.25
   2  11   4    4.25    1.07
  -2 -11   4   10.40    4.89
  -2 -11   4    6.73    1.90
   2  11   4    5.92    1.81
   2  11   5   22.03    3.20
  -2  11  -5   18.94    3.04
   2 -11  -5   19.38    3.39
   2  11   5   21.44    2.39
  -2  11  -5   19.42    3.09
  -2 -11   5   19.66    3.04
   2  11   5   21.84    3.00
   2  11   6    3.24    1.79
  -2  11  -6    0.52    1.19
   2 -11  -6    3.20    1.88
  -2 -11   6   -1.18    1.64
   2  11   7    2.01    1.27
  -2  11  -7   -0.35    1.48
   2 -11  -7   -1.34    1.85
  -2 -11   7    0.60    1.10
   2  11   8    2.18    1.59
  -2  11  -8    2.61    1.98
   2 -11  -8    4.26    2.11
  -2 -11   8    3.53    1.91
   2  11   9   13.39    2.84
   2 -11  -9   12.91    3.16
  -2 -11   9   11.82    2.90
  -2 -11   9    5.30    2.79
  -2  11  -9   17.49    4.19
   2  11  10   -1.34    1.83
  -2  11 -10    3.40    2.79
   2 -11 -10   -1.32    1.75
  -2 -11  10    1.71    1.80
  -2 -11  10   -5.02    2.82
   2  11  11    1.30    1.65
  -2  11 -11    2.89    2.50
   2 -11 -11    4.52    2.33
  -2 -11  11    2.67    1.85
   2 -11 -11    1.81    1.33
  -2  11 -12    0.89    3.02
   2  11  12   -1.58    2.13
   2 -11 -12    4.38    2.25
  -2 -11  12    0.96    1.95
   2 -11 -12   -1.16    1.43
   2  11  13    0.89    1.80
   2 -11 -13    0.92    1.93
   2 -11 -13   -1.42    2.23
  -2  11 -13    3.49    3.07
  -2 -11  13    0.23    1.78
   2 -11 -13    1.16    1.17
  -2  11 -14   -2.06    3.32
   2 -11 -14   -1.71    1.84
  -2 -11  14    4.46    2.48
   2 -11 -14    2.29    1.66
   2  11  14    0.73    2.03
  -2  11 -15    0.29    2.45
   2 -11 -15    5.58    2.81
   2  11  15    3.66    2.30
   2 -11 -15    3.39    2.16
   2 -12  15   -0.29    1.50
   2 -12  14   -0.29    1.60
  -2 -12 -14    9.20    3.42
   2  12 -14    7.24    3.97
   2 -12  13   -0.28    1.74
   2  12 -13    4.67    2.68
  -2  12  13    1.92    2.00
  -2 -12 -13    2.29    2.18
   2  12 -13    0.88    2.07
   2 -12  12   10.39    2.99
   2  12 -12   12.88    3.63
  -2  12  12   11.44    2.96
  -2 -12 -12    3.79    2.26
   2  12 -12   12.13    3.77
   2 -12  11    2.50    1.92
   2  12 -11   -0.78    2.49
  -2  12  11   -0.25    1.47
  -2 -12 -11    0.85    2.24
   2  12 -11    1.04    2.17
   2 -12  10   -1.90    1.76
  -2 -12 -10    0.18    2.09
   2  12 -10    2.27    2.55
  -2  12  10   -1.00    1.76
  -2 -12 -10    1.71    2.14
   2  12 -10    1.34    2.21
   2 -12   9    0.73    1.30
   2  12  -9   -0.68    1.68
  -2  12   9    1.08    1.49
  -2 -12  -9    2.53    2.77
   2  12  -9    2.04    2.08
   2 -12   8   26.64    4.01
   2  12  -8   37.12    5.15
  -2  12   8   33.83    4.19
  -2 -12  -8   34.09    5.66
   2  12  -8   41.49    5.70
   2 -12   7    2.91    1.77
  -2  12   7    3.03    1.98
   2  12  -7    4.82    2.04
  -2 -12  -7    2.30    2.21
   2  12  -7    4.06    2.11
   2 -12   6   15.94    3.03
  -2  12   6   15.46    2.82
   2  12  -6   12.13    2.99
  -2 -12  -6   16.88    4.08
   2  12  -6   17.09    3.30
   2 -12   5    1.33    1.47
  -2  12   5    2.53    1.37
   2  12  -5    6.24    2.39
   2 -12   5    3.40    1.32
   2 -12   4   21.61    3.49
  -2  12   4   26.76    3.53
  -2 -12  -4   28.45    5.03
   2  12  -4   24.02    3.53
   2 -12   4   28.03    2.92
  -2 -12  -4   29.07    6.35
   2 -12   3   10.16    2.74
  -2  12   3   11.04    2.28
  -2 -12  -3    9.74    3.18
   2  12  -3   14.43    2.91
  -2 -12  -3   10.83    4.89
   2  12  -2   67.45    5.51
   2 -12   2   72.52    5.97
   2  12  -2   59.61    4.19
  -2  12   2   54.28    4.78
  -2 -12  -2   72.33    7.99
  -2 -12  -2   63.25   10.43
   2 -12   1    5.09    1.85
   2  12  -1    5.75    1.34
  -2  12   1    4.68    1.86
  -2 -12  -1    6.69    2.97
   2  12  -1    4.16    1.64
  -2 -12  -1    8.07    4.37
   2 -12   0   -0.13    1.36
   2  12   0    1.09    0.96
  -2 -12   0    3.25    2.44
  -2 -12   0    5.99    6.47
   2  12   0    1.23    1.41
  -2  12   0    1.49    1.19
  -2 -12   0    2.08    1.50
   2 -12  -1    3.00    1.72
  -2  12  -1    9.39    2.27
   2  12   1    6.35    1.43
   2  12   1    5.86    1.83
  -2 -12   1    5.23    1.81
   2 -12  -2   63.84    5.78
   2  12   2   62.67    5.17
  -2  12  -2   56.99    4.90
   2  12   2   60.59    3.99
  -2 -12   2   67.00    5.37
  -2 -12   2   79.31   12.72
  -2  12  -3   10.04    2.47
   2  12   3    9.70    1.69
  -2 -12   3   11.11    5.85
   2 -12  -3   12.37    2.91
  -2 -12   3   10.82    2.45
   2  12   3    8.96    2.09
  -2  12  -3    8.38    1.82
   2 -12  -4   30.19    4.15
  -2  12  -4   24.49    3.34
  -2 -12   4   31.45    7.62
  -2 -12   4   26.02    3.61
   2  12   4   24.62    3.30
  -2  12  -4   21.98    2.93
   2  12   5    2.97    1.59
  -2  12  -5    2.61    1.47
   2 -12  -5    2.19    1.74
  -2  12  -5    3.34    1.48
  -2 -12   5    8.86    4.37
  -2 -12   5    4.68    2.17
   2  12   5    3.11    1.52
   2  12   6   15.44    2.85
  -2  12  -6   17.35    3.08
   2 -12  -6   14.23    3.24
  -2 -12   6   14.64    2.88
   2  12   6   14.25    2.63
   2  12   7    2.82    1.57
  -2  12  -7    4.42    2.09
   2 -12  -7    4.98    2.17
  -2 -12   7    6.06    2.07
   2  12   8   28.70    3.88
  -2  12  -8   29.98    4.62
   2 -12  -8   39.35    5.21
  -2 -12   8   32.47    4.27
   2  12   9    1.39    1.24
  -2  12  -9    0.49    1.76
   2 -12  -9    2.40    1.91
  -2 -12   9   -0.61    1.79
   2  12  10   -0.29    1.21
  -2  12 -10    3.48    2.91
   2 -12 -10    0.15    1.91
  -2 -12  10    1.98    2.06
  -2 -12  10    0.17    1.49
   2  12  11    0.05    1.24
  -2  12 -11   -0.60    2.59
   2 -12 -11    1.96    2.22
  -2 -12  11   -0.72    1.76
   2 -12 -11    0.51    1.32
   2  12  12    8.28    2.89
  -2  12 -12   12.28    3.78
   2 -12 -12   11.30    3.09
  -2 -12  12    8.63    2.69
   2 -12 -12   11.34    2.80
   2  12  13    1.70    1.69
  -2  12 -13   -0.22    2.76
   2 -12 -13    0.50    1.62
   2 -12 -13   -1.49    2.17
  -2 -12  13   -0.73    1.68
   2 -12 -13   -3.51    2.17
   2  12  14   -3.59    2.40
  -2  12 -14    3.75    3.20
   2 -12 -14   -0.15    2.23
   2 -12 -14    2.21    2.00
   2  12  15   -0.80    2.10
   2 -13  14    1.23    1.54
   2 -13  13   -1.00    1.91
  -2 -13 -13    0.80    2.18
   2  13 -13    3.80    3.29
   2 -13  12    4.85    2.25
   2  13 -12   -2.29    2.58
  -2  13  12    2.81    2.25
  -2 -13 -12   -2.30    2.80
   2  13 -12   -1.32    2.65
   2 -13  11    0.66    1.65
   2  13 -11   -3.35    2.35
  -2  13  11    0.09    1.44
  -2 -13 -11   -1.66    2.00
   2  13 -11   -1.00    2.10
   2 -13  10    1.04    1.75
   2  13 -10   -0.83    1.84
  -2  13  10    2.82    1.99
  -2 -13 -10   -0.56    2.31
  -2 -13 -10   -0.98    2.41
   2  13 -10    0.39    2.16
   2 -13   9    0.91    1.42
   2  13  -9    7.80    3.20
  -2  13   9    2.42    1.87
  -2 -13  -9    5.29    3.20
   2  13  -9    2.78    2.00
   2 -13   8    1.59    1.66
   2  13  -8   -1.79    2.08
  -2  13   8    3.11    2.04
  -2 -13  -8    4.06    2.98
   2 -13   7    2.54    1.90
  -2  13   7    1.40    1.71
   2  13  -7    3.71    2.12
  -2 -13  -7    3.49    2.43
   2 -13   6    4.69    1.86
  -2  13   6    4.76    1.88
   2  13  -6    0.89    1.94
  -2 -13  -6    7.65    2.96
  -2  13   5    3.72    1.93
  -2 -13  -5    6.18    2.97
   2  13  -5    4.17    1.92
   2 -13   5   10.96    2.84
  -2 -13  -5    0.35    2.57
   2 -13   4    0.66    1.15
  -2  13   4   -0.51    1.19
  -2 -13  -4    2.51    2.52
   2  13  -4    2.72    1.91
  -2 -13  -4    2.11    3.79
   2 -13   3    7.14    2.48
   2  13  -3    2.89    1.26
  -2  13   3    0.20    1.41
  -2 -13  -3    5.44    3.12
   2  13  -3    0.27    1.04
  -2 -13  -3    1.27    2.80
   2 -13   2    6.76    2.60
   2  13  -2    4.00    1.34
  -2  13   2    2.01    1.44
  -2 -13  -2    3.47    2.12
   2  13  -2    2.77    1.80
  -2 -13  -2    8.70    5.49
   2  13  -1    3.05    1.17
  -2  13   1    3.84    1.70
  -2 -13  -1    3.24    2.10
   2  13  -1    3.85    1.96
  -2 -13  -1    8.06    4.87
   2 -13   1    1.71    1.83
   2 -13   0    2.76    1.94
   2  13   0   -0.33    0.93
  -2  13   0   -0.93    1.39
   2  13   0   -0.46    1.33
  -2 -13   0    2.54    4.00
  -2 -13   0    0.41    1.51
  -2  13  -1    3.65    1.87
   2 -13  -1    5.74    2.26
   2  13   1    3.60    1.20
  -2 -13   1   -2.14    5.62
   2  13   1    0.86    1.08
  -2 -13   1    0.73    1.43
  -2  13  -2    3.71    1.63
   2 -13  -2    6.64    2.50
  -2 -13   2    3.57    6.02
   2  13   2    3.94    1.63
  -2 -13   2    5.39    1.72
  -2  13  -3    2.55    1.35
  -2 -13   3    9.41    5.31
  -2 -13   3    4.72    2.10
   2  13   3    3.86    1.68
   2 -13  -3   -0.84    1.91
  -2  13  -3    4.44    1.41
   2 -13  -4   -0.52    1.44
  -2  13  -4    1.80    1.60
  -2 -13   4    1.91    4.93
  -2 -13   4    1.36    1.60
   2  13   4    0.55    1.39
  -2  13  -4   -1.23    1.13
   2  13   5    6.13    2.05
  -2  13  -5    4.64    1.64
   2 -13  -5    3.99    2.19
  -2  13  -5    3.21    1.85
  -2 -13   5    5.85    2.20
   2  13   5    7.03    2.12
   2  13   6    3.28    1.66
  -2  13  -6    2.65    1.60
   2 -13  -6    2.58    2.20
  -2  13  -6    2.16    1.51
  -2 -13   6    4.80    2.15
   2  13   6    4.02    1.73
   2  13   7    0.43    1.33
  -2  13  -7   -0.09    1.37
   2 -13  -7   -0.84    1.53
  -2 -13   7    1.08    1.44
   2  13   7    0.07    1.18
   2  13   8   -1.25    1.34
  -2  13  -8    1.55    1.87
   2 -13  -8    0.14    1.88
  -2 -13   8   -0.05    1.38
   2  13   8    2.66    1.34
   2  13   9    2.56    1.75
  -2  13  -9    1.88    1.50
   2 -13  -9    3.05    2.33
  -2 -13   9    0.16    1.35
   2  13  10    2.19    1.47
  -2  13 -10   -2.04    1.96
  -2 -13  10    6.74    3.18
   2 -13 -10    3.84    2.63
  -2 -13  10    2.02    1.77
   2  13  11    0.03    1.66
   2 -13 -11   -3.17    2.15
   2 -13 -11   -0.78    1.57
  -2  13 -11   -1.23    1.99
   2  13  12    3.52    2.31
   2 -13 -12    2.83    2.07
  -2 -13  12    1.17    1.94
   2 -13 -12    1.97    1.84
  -2  13 -12    4.91    3.08
   2  13  13    0.01    1.38
   2 -13 -13   -0.98    2.03
   2 -13 -13   -3.13    2.37
  -2  13 -13    4.39    3.05
   2 -13 -13    2.00    1.88
   2  13  14   -0.27    1.83
   2 -14  13    0.24    1.54
   2 -14  12    1.27    1.78
  -2 -14 -12    3.44    2.78
   2 -14  11   -1.37    1.53
   2  14 -11   -7.47    3.44
  -2  14  11   -2.72    2.34
  -2 -14 -11   -1.28    3.06
   2 -14  10    1.80    1.85
   2  14 -10    3.93    2.88
  -2  14  10   -2.95    1.90
  -2 -14 -10   -0.77    1.90
  -2 -14 -10    5.89    3.28
   2  14  -9    8.24    3.18
  -2  14   9    2.04    1.44
  -2 -14  -9    3.04    2.69
   2 -14   9    5.04    2.43
   2  14  -8    0.28    1.77
   2 -14   8    0.80    1.58
  -2  14   8   -0.13    1.56
  -2 -14  -8    2.29    2.31
  -2  14   7    0.50    1.25
   2  14  -7    2.28    1.87
  -2 -14  -7    4.11    3.06
   2 -14   7   -2.69    2.24
   2 -14   6    0.55    1.52
  -2  14   6    3.13    2.00
   2  14  -6    4.96    2.49
  -2 -14  -6    1.72    2.00
   2 -14   5    3.15    1.90
  -2  14   5    5.36    1.92
  -2 -14  -5    2.62    2.26
   2  14  -5    3.33    1.99
  -2 -14  -5    6.77    4.23
   2 -14   4    1.85    1.55
  -2  14   4   -0.88    1.54
  -2 -14  -4   -0.34    1.81
   2  14  -4   -0.59    1.36
  -2 -14  -4   -1.56    3.47
   2 -14   3    5.03    2.22
   2  14  -3    4.68    1.74
  -2  14   3    5.76    2.10
  -2 -14  -3    8.39    3.46
   2  14  -3    8.76    2.61
  -2 -14  -3    6.27    4.62
   2  14  -2    4.21    1.35
  -2  14   2    2.95    1.63
  -2 -14  -2    1.16    2.37
   2  14  -2    4.03    1.86
   2 -14   2    3.56    2.19
   2  14  -1    4.00    1.19
  -2  14   1    4.26    1.79
   2  14  -1    6.87    2.09
  -2 -14  -1    6.63    5.33
   2 -14   1    9.84    2.71
   2 -14   0   -0.81    1.57
   2  14   0   -2.19    1.33
  -2  14   0    0.90    1.31
   2  14   0    0.52    1.41
  -2 -14   0   -0.20    1.13
   2 -14  -1    5.75    2.17
  -2  14  -1    5.50    2.02
   2  14   1    5.57    1.99
  -2 -14   1    4.95    5.45
  -2 -14   1    2.41    1.67
   2 -14  -2    2.62    1.94
  -2  14  -2    3.68    1.79
  -2 -14   2    6.74    5.14
   2  14   2    6.77    2.18
  -2 -14   2    1.72    1.45
   2 -14  -3    6.70    2.51
  -2  14  -3    8.65    2.44
  -2 -14   3    6.71    4.62
   2  14   3    6.03    2.00
  -2 -14   3    5.87    2.15
   2 -14  -4   -0.80    1.86
  -2  14  -4   -1.04    1.53
  -2 -14   4   -2.60    3.35
  -2 -14   4    1.80    1.64
   2  14   4   -1.05    1.58
   2  14   5    3.11    1.46
   2 -14  -5    5.74    2.57
  -2  14  -5    5.22    1.98
  -2 -14   5    4.96    3.48
  -2 -14   5    5.41    1.92
   2  14   5    5.83    1.87
   2  14   6    0.94    1.15
  -2  14  -6    1.71    1.30
  -2  14  -6    1.03    1.46
   2 -14  -6   -0.56    1.53
  -2 -14   6    0.37    1.56
   2  14   6   -0.72    1.38
   2  14   7    3.52    1.71
  -2  14  -7    3.37    1.99
   2 -14  -7    2.42    2.17
  -2  14  -7    3.73    1.76
  -2 -14   7    1.97    1.79
   2  14   7    2.23    1.45
   2  14   8    1.48    1.32
  -2  14  -8    3.12    1.82
   2 -14  -8    1.02    1.90
  -2 -14   8    5.21    2.25
   2  14   8    2.29    1.68
   2  14   9    6.22    2.16
  -2  14  -9    1.89    1.88
   2 -14  -9    4.75    2.61
  -2 -14   9    6.49    2.43
   2  14   9    2.31    1.50
   2  14  10    1.98    1.60
   2 -14 -10    0.58    2.26
  -2 -14  10   -1.30    1.91
   2  14  10   -0.56    1.28
   2  14  11    0.27    1.64
  -2  14 -11    4.04    3.12
   2 -14 -11   -1.47    2.33
  -2 -14  11    0.50    1.81
   2 -14 -11   -2.42    1.61
   2  14  12    0.59    2.11
  -2  14 -12    0.47    2.18
   2  14  13    3.72    2.05
  -2  14 -13    5.43    3.05
   2 -15  12    1.10    1.77
   2 -15  11    4.77    2.41
  -2 -15 -11    0.60    2.18
   2 -15  10    6.19    2.33
  -2 -15 -10    5.36    2.80
   2  15 -10   -0.28    2.27
  -2  15  10    4.04    2.00
  -2 -15 -10    5.10    3.29
   2 -15   9   -2.62    2.25
   2  15  -9   -0.04    1.94
  -2  15   9   -1.83    1.83
  -2 -15  -9   -0.58    2.26
   2 -15   8    1.09    1.32
   2  15  -8    4.29    2.48
  -2  15   8    2.56    2.05
  -2 -15  -8    1.09    2.43
   2 -15   7   -2.48    1.71
  -2  15   7   -0.67    1.35
   2  15  -7   -2.24    2.03
  -2 -15  -7    1.79    1.97
   2 -15   6    5.34    2.13
  -2  15   6    8.95    2.49
   2  15  -6   14.26    3.36
  -2 -15  -6   14.04    4.48
   2 -15   5    2.70    1.89
  -2  15   5    5.69    2.14
  -2 -15  -5    5.21    3.02
   2  15  -5    1.55    1.65
  -2 -15  -5    0.15    3.27
   2  15  -4    9.59    2.23
  -2  15   4   10.85    2.81
   2 -15   4    9.00    2.80
  -2 -15  -4   12.34    3.99
   2  15  -4    8.49    2.40
  -2 -15  -4   11.81    5.76
   2 -15   3   -0.39    1.42
  -2  15   3   -1.19    1.65
  -2 -15  -3    1.70    1.70
   2  15  -3    0.91    1.68
  -2 -15  -3   -1.26    4.17
   2  15  -3    1.05    1.18
   2 -15   2    4.64    2.35
   2  15  -2    6.14    1.72
  -2  15   2    4.45    2.02
   2  15  -2    7.37    2.28
  -2 -15  -2    2.52    3.99
  -2  15   1   -0.47    1.44
   2 -15   1    3.59    1.84
   2  15  -1    5.11    2.27
  -2 -15  -1    0.17    3.36
   2 -15   0   22.00    3.89
  -2  15   0   22.79    3.53
   2  15   0   26.24    3.97
  -2 -15   0   22.91    8.50
  -2  15  -1    2.55    1.67
   2  15   1    1.66    1.52
   2 -15  -1    4.62    2.21
  -2 -15   1    4.42    4.10
  -2 -15   1    2.65    1.71
  -2  15  -2    7.10    2.27
   2 -15  -2    7.13    2.95
   2  15   2    2.73    1.60
  -2 -15   2    8.50    5.79
  -2 -15   2    7.77    2.43
   2 -15  -3   -2.34    2.22
  -2  15  -3    1.09    1.26
  -2 -15   3   -1.78    4.74
   2  15   3    3.02    1.85
  -2 -15   3   -1.90    1.79
   2 -15  -4   13.00    3.51
  -2  15  -4   10.62    2.60
  -2 -15   4    8.66    4.90
   2  15   4   13.30    2.90
  -2 -15   4   11.49    2.88
   2  15   5    4.51    2.00
   2 -15  -5    3.76    2.12
  -2  15  -5    4.62    2.22
  -2 -15   5   -2.22    3.21
  -2 -15   5    4.09    2.14
   2  15   5    5.42    1.99
   2  15   6   12.42    2.90
   2 -15  -6   13.80    3.73
  -2  15  -6   15.30    3.20
  -2 -15   6   17.05    5.64
  -2 -15   6   12.04    2.92
   2  15   6   13.10    2.91
   2  15   7   -1.09    1.69
   2 -15  -7   -1.00    2.56
  -2  15  -7   -1.14    1.54
  -2 -15   7    0.76    1.60
   2  15   7   -1.48    1.68
   2  15   8    0.74    1.42
   2 -15  -8    2.62    2.52
  -2  15  -8    2.91    1.64
  -2 -15   8   -1.86    2.00
   2  15   8    1.22    1.23
   2  15   9    0.11    1.41
   2 -15  -9   -0.05    1.84
  -2  15  -9   -2.03    1.79
  -2 -15   9    2.46    1.79
   2  15   9    0.16    1.46
   2  15  10    1.84    1.54
  -2  15 -10    6.61    2.93
   2 -15 -10    2.18    1.87
  -2 -15  10    7.46    2.62
   2  15  10    3.20    1.80
   2  15  11   -0.70    1.36
  -2  15 -11    0.81    1.95
   2  15  11   -5.00    2.16
  -2  15 -12   -1.31    2.21
   2  15  12   -0.50    1.40
   2 -16  10    2.43    2.03
  -2 -16 -10    4.82    3.36
  -2 -16  -9    3.98    2.78
   2 -16   9    2.83    2.07
   2 -16   8    2.75    2.13
   2  16  -8    0.07    1.85
  -2  16   8    1.22    1.63
  -2 -16  -8   -1.67    2.73
  -2  16   7    5.61    2.22
   2  16  -7    2.67    2.13
  -2 -16  -7    2.26    2.34
   2 -16   7    2.63    2.02
   2 -16   6    0.93    1.65
  -2  16   6   -0.29    1.49
   2  16  -6    0.32    2.01
  -2 -16  -6   -1.20    2.53
   2 -16   5    5.28    2.35
   2  16  -5    3.70    1.52
  -2  16   5    9.78    2.79
   2  16  -5    7.38    2.75
  -2 -16  -5    3.53    2.98
  -2 -16  -5    3.09    3.80
   2 -16   4    1.69    2.01
  -2  16   4    0.25    1.56
   2  16  -4    1.81    2.33
  -2 -16  -4    6.23    3.89
   2 -16   3    2.75    1.86
  -2  16   3    1.35    1.35
   2  16  -3    2.10    1.91
  -2 -16  -3    0.21    3.11
   2 -16   2    2.60    2.34
  -2  16   2   -0.21    1.41
   2  16  -2   -2.18    2.08
  -2 -16  -2    2.55    5.73
   2 -16   1    5.50    2.65
   2  16  -1    4.98    2.23
  -2 -16  -1   -2.68    5.60
  -2  16   1    4.53    2.21
   2 -16   0    2.52    2.16
  -2  16   0   -2.79    2.04
   2  16   0    0.74    1.62
  -2 -16   0   -1.05    2.83
   2 -16  -1    7.83    2.60
  -2  16  -1    4.26    2.18
   2  16   1   10.69    2.73
   2 -16  -2    3.29    2.41
  -2  16  -2   -2.75    1.87
   2  16   2   -1.65    1.57
  -2 -16   2   -1.09    1.90
   2 -16  -3    5.95    2.76
  -2  16  -3    5.58    2.07
  -2 -16   3    0.59    3.89
   2  16   3    5.58    2.15
  -2 -16   3    2.57    1.81
   2  16   4   -0.52    1.58
   2 -16  -4    2.98    2.22
  -2  16  -4    1.02    1.59
  -2 -16   4    3.77    4.84
   2  16   4   -2.03    1.78
  -2 -16   4    0.38    1.66
   2  16   5    8.30    2.53
   2 -16  -5    2.61    1.92
  -2  16  -5    3.23    1.92
  -2 -16   5    8.62    4.47
   2  16   5    6.73    2.34
  -2 -16   5    6.20    2.40
   2  16   6    4.35    2.13
  -2  16  -6   -2.86    2.21
   2  16   6    1.06    1.10
  -2 -16   6    0.31    1.30
   2 -16  -6    1.77    2.18
   2  16   7    3.51    1.99
   2 -16  -7    5.29    3.00
  -2  16  -7    3.71    2.17
  -2 -16   7    3.40    2.15
   2  16   7    1.81    1.38
   2  16   8   -1.65    1.43
   2 -16  -8   -4.73    3.05
  -2  16  -8    1.37    1.86
  -2 -16   8    0.08    2.00
   2  16   8    3.39    2.01
   2  16   9    2.72    1.69
   2  16   9    1.26    1.21
   2  16  10    2.94    1.92
   2  16  10    0.06    1.21
   2  16  11   -0.03    1.66
   2 -17   9   -0.65    1.71
   2 -17   8   -0.48    1.72
  -2 -17  -8    4.57    3.20
   2 -17   7    1.70    1.64
  -2 -17  -7    2.36    2.82
   2 -17   6    4.19    2.39
   2  17  -6   -2.15    1.94
   2 -17   5   -1.88    2.02
  -2  17   5   -1.77    1.59
   2  17  -5    1.45    1.85
  -2 -17  -5    3.22    3.89
   2 -17   4    6.28    2.76
  -2  17   4    1.26    1.49
   2  17  -4    0.19    1.86
  -2 -17  -4   -1.15    2.90
   2 -17   3    1.71    1.67
  -2  17   3   -1.19    1.88
   2  17  -3   -0.82    1.89
   2 -17   2   -0.88    1.64
  -2  17   2   -1.46    1.88
   2  17  -2    0.74    1.94
  -2 -17  -2    1.97    4.02
   2 -17   1    0.68    1.69
  -2  17   1   -2.11    2.06
   2  17  -1    0.53    1.26
  -2 -17  -1   -2.70    4.58
   2 -17   0    3.03    2.26
  -2  17   0    0.67    1.51
   2  17   0    3.30    2.00
  -2 -17   0    1.47    4.76
   2 -17  -1    0.57    1.64
  -2  17  -1    1.46    1.47
   2  17   1   -0.27    1.78
   2 -17  -2   -0.24    2.27
  -2  17  -2   -0.07    1.43
   2  17   2    0.92    1.36
  -2 -17   2    0.47    1.72
   2 -17  -3    3.27    2.29
  -2  17  -3   -2.33    2.10
  -2 -17   3    5.16    4.22
   2  17   3    2.50    1.73
  -2 -17   3    5.50    2.60
   2  17   4    3.26    1.80
   2 -17  -4    1.85    1.81
  -2  17  -4   -0.27    1.50
   2  17   4    2.30    1.57
  -2 -17   4    3.43    2.15
   2  17   5   -3.29    2.01
   2 -17  -5    0.23    2.30
  -2  17  -5   -1.32    1.83
  -2 -17   5    0.46    3.55
   2  17   5   -2.39    1.80
  -2 -17   5    5.94    2.59
   2  17   6    0.77    1.52
   2 -17  -6    4.49    2.90
   2  17   6    3.14    1.90
   2  17   7   -3.03    1.93
   2  17   7    1.69    1.41
   2  17   8   -0.84    1.31
   2  17   8    0.95    1.59
   2  17   9   -0.05    1.48
   2 -18   6    0.23    1.31
   2 -18   5    0.44    1.86
   2 -18   4    5.53    2.59
   2 -18   3   -3.29    2.46
   2  18  -3    3.64    2.61
   2 -18   2   -2.10    2.33
   2  18  -2    0.43    1.52
   2 -18   1   -3.15    2.06
   2  18  -1   -1.65    1.81
   2 -18   0    2.34    1.77
   2  18   0   -0.65    1.97
   2 -18  -1   -2.75    2.53
   2  18   1    1.84    1.57
   2 -18  -2   -0.02    1.51
   2  18   2   -1.18    1.64
   2  18   3    2.34    1.92
   2  18   4    1.03    1.62
   2  18   4    0.41    1.07
   2  18   5    2.61    1.83
   2  18   5    1.05    1.30
   2  18   6    3.83    2.19
   2  18   6   -0.23    1.56
   3   0   0    0.44    0.80
  -3   0   0   -0.26    0.57
  -3   0   0   -1.42    2.77
  -3   0   0    0.07    0.26
   3   0   1    2.20    1.05
   3   0   1    1.26    0.80
   3   0  -1    1.64    0.86
  -3   0  -1    1.16    0.40
  -3   0  -1    0.91    2.12
  -3   0   1    3.66    2.53
  -3   0   1    1.79    0.80
  -3   0   1    1.14    0.45
   3   0  -1    1.40    0.85
  -3   0  -1    2.96    2.34
  -3   0   1    0.61    2.35
   3   0  -2   29.82    2.52
   3   0  -2   30.71    2.50
  -3   0  -2   29.82    1.47
  -3   0   2   32.72    2.76
  -3   0  -2   29.17    4.49
  -3   0   2   34.23    5.01
  -3   0   2   29.51    1.97
  -3   0  -2   25.56    4.37
  -3   0   2   33.51    4.71
   3   0   2   29.92    2.84
   3   0   3    5.83    1.45
   3   0  -3    5.58    1.21
  -3   0  -3    5.46    0.60
  -3   0  -3    9.30    2.70
  -3   0   3    3.09    2.37
  -3   0   3    6.40    1.47
  -3   0   3    5.15    0.99
   3   0  -3    5.59    1.26
  -3   0  -3    6.68    1.77
   3   0  -3    4.50    1.53
  -3   0  -3    3.51    2.23
  -3   0   3    5.10    2.26
   3   0   4   11.51    2.07
   3   0  -4   11.27    1.56
  -3   0  -4   12.49    0.92
  -3   0  -4   10.56    3.13
  -3   0   4   10.48    3.32
  -3   0   4   12.55    2.14
   3   0  -4    9.84    1.49
  -3   0   4   12.29    1.69
  -3   0  -4   10.59    2.23
   3   0  -4   12.43    2.30
  -3   0  -4   18.23    3.76
  -3   0   4   15.32    3.29
   3   0   5    1.71    1.33
  -3   0  -5    3.83    0.61
  -3   0  -5    8.27    2.79
  -3   0   5    3.09    1.99
  -3   0   5    4.37    1.65
   3   0  -5    3.12    1.20
  -3   0   5    3.41    1.24
  -3   0  -5    0.06    1.49
   3   0  -5    1.40    1.33
   3   0  -5    3.38    0.97
  -3   0  -5    3.61    2.21
  -3   0   5    5.79    2.50
   3   0   6   24.83    3.33
   3   0  -6   25.82    2.33
  -3   0   6   25.76    4.16
   3   0  -6   22.99    2.61
  -3   0   6   25.67    3.37
  -3   0   6   28.89    3.25
  -3   0  -6   27.46    3.78
   3   0  -6   28.92    3.73
  -3   0  -6   34.51    4.70
  -3   0   6   25.55    3.81
   3   0   7   12.55    2.70
   3   0  -7    9.32    1.48
   3   0  -7    7.94    1.81
  -3   0   7    9.71    2.37
  -3   0   7    8.39    2.13
  -3   0  -7    6.32    2.19
   3   0  -7   11.87    2.69
  -3   0  -7   10.17    3.01
  -3   0   7   11.71    2.84
  -3   0  -7    9.87    2.27
   3   0   8   11.30    2.53
   3   0  -8   12.98    1.89
   3   0  -8   10.49    2.19
  -3   0   8   11.67    2.52
  -3   0   8   11.17    2.48
  -3   0  -8   14.33    3.31
   3   0  -8   14.73    3.12
  -3   0  -8   13.28    3.18
  -3   0   8   11.47    2.71
  -3   0  -8   12.24    2.63
   3   0   9    2.58    1.81
   3   0  -9    2.20    1.42
  -3   0   9    2.79    2.04
  -3   0   9    2.40    1.66
  -3   0  -9    1.13    1.92
   3   0  -9    2.13    2.32
  -3   0  -9    1.59    1.66
  -3   0   9    3.30    1.89
  -3   0  -9    0.17    1.49
   3   0  10    1.49    2.09
   3   0 -10    6.98    2.10
  -3   0  10    8.68    2.45
  -3   0  10    7.46    2.46
  -3   0 -10    6.18    2.45
   3   0 -10    4.47    2.18
  -3   0 -10    5.67    2.05
  -3   0  10    5.50    2.14
  -3   0 -10    3.82    1.92
   3   0  11    0.41    2.07
   3   0 -11    1.77    1.38
  -3   0  11    0.80    1.47
  -3   0  11   -3.66    2.13
  -3   0 -11    1.04    1.96
   3   0 -11   -1.64    2.20
  -3   0 -11   -1.59    1.77
  -3   0  11   -1.75    1.29
  -3   0 -11    1.50    1.69
   3   0  12    9.61    3.15
  -3   0  12    4.99    2.08
  -3   0  12    5.26    2.42
  -3   0 -12    5.62    2.84
   3   0 -12    3.51    2.05
  -3   0 -12    6.93    3.08
  -3   0 -13    3.68    2.44
   3   0  13    4.43    2.50
  -3   0  13    0.81    1.74
  -3   0 -13    4.63    2.64
   3   0 -13    9.52    3.33
  -3   0 -14    1.12    2.20
   3   0  14   -5.07    3.04
  -3   0  14   -0.29    2.10
  -3   0 -14    0.56    2.61
   3   0 -14    1.20    2.06
  -3   0 -15    0.53    2.55
   3   0  15    3.68    2.36
  -3   0  15    2.98    2.71
  -3   0 -15    0.77    1.70
   3   0 -15   -0.78    2.40
  -3   0 -16    1.63    2.39
   3   0  16   -3.02    3.05
  -3   0  16    6.61    2.92
  -3   0 -16   -0.37    2.75
   3   0 -16    2.48    2.51
  -3   0 -17    1.30    2.64
   3   0  17   -1.85    2.17
  -3   0  17    3.37    2.51
  -3   0 -17   -3.70    2.48
   3   0 -17   -2.22    2.92
  -3  -1 -18   -3.54    3.17
  -3  -1 -17    2.85    2.74
   3  -1  17    0.93    2.57
  -3   1  17    0.79    1.61
  -3  -1 -17   -1.83    2.38
   3   1 -17   -0.24    2.49
  -3  -1 -16    4.55    2.96
   3  -1  16   -2.45    2.42
  -3   1  16   -0.52    1.91
  -3  -1 -16    0.62    1.85
   3   1 -16    0.10    2.47
  -3  -1 -15    1.41    2.17
   3  -1  15    6.83    3.25
  -3   1  15   -1.43    2.51
  -3  -1 -15    1.04    1.78
   3   1 -15   10.65    3.51
   3  -1  14    3.47    2.82
  -3   1  14    7.74    2.92
  -3   1  14    6.66    2.66
  -3  -1 -14   10.16    3.79
   3   1 -14   10.19    3.74
  -3  -1 -14    6.00    3.15
   3  -1  13    5.39    2.84
   3   1 -13    0.71    1.63
  -3   1  13    4.12    2.42
  -3   1  13    1.25    1.70
  -3  -1 -13    0.79    1.94
   3   1 -13   -0.01    2.22
  -3  -1 -13   -0.18    1.83
   3  -1  12    3.43    2.36
   3   1 -12    0.03    1.62
  -3   1  12    2.45    2.02
  -3   1  12    1.98    2.16
  -3  -1 -12    1.49    2.05
   3   1 -12    0.16    1.67
  -3  -1 -12    7.52    2.55
   3   1 -11   15.45    3.09
  -3   1  11   21.17    3.93
  -3   1  11   14.23    3.53
  -3  -1 -11   20.19    4.11
   3  -1  11   16.96    4.05
   3   1 -11   24.24    4.57
  -3   1  11   18.49    3.03
  -3  -1 -11   15.00    3.38
  -3  -1 -11   16.83    3.22
   3  -1  10    4.44    2.05
   3   1 -10    8.73    2.56
  -3   1  10    7.23    2.57
  -3   1  10    8.56    2.75
  -3  -1 -10    7.26    2.53
   3   1 -10    6.40    2.60
  -3   1  10    5.46    2.02
  -3  -1 -10    4.55    1.72
  -3  -1 -10    9.54    2.59
   3  -1   9   20.32    3.62
   3   1  -9   19.09    3.10
  -3   1   9   20.22    3.56
  -3   1   9   16.72    3.27
  -3  -1  -9   19.00    3.97
   3   1  -9   21.07    4.10
  -3   1   9   18.41    3.11
  -3  -1  -9   17.49    3.14
  -3  -1  -9   20.75    3.60
  -3  -1  -8    4.40    2.02
   3  -1   8    6.58    2.07
   3   1  -8    8.89    1.99
  -3   1   8    9.51    2.35
  -3   1   8    8.18    2.31
  -3  -1  -8    4.20    2.15
   3   1  -8    8.59    2.71
  -3   1   8    6.77    2.16
  -3  -1  -8    6.54    1.99
  -3  -1  -8   10.50    2.79
   3   1  -7   25.55    3.08
   3   1  -7   22.84    2.14
  -3  -1  -7   27.42    3.74
  -3   1   7   26.54    3.41
  -3   1   7   25.09    3.33
  -3  -1  -7   20.92    3.51
   3   1  -7   31.42    4.15
   3  -1   7   26.59    3.73
  -3   1   7   21.11    3.45
  -3  -1  -7   26.52    4.04
   3  -1   6    1.51    1.43
   3   1  -6    1.63    0.70
  -3  -1  -6    0.81    1.79
  -3   1   6    1.05    1.13
   3   1  -6    1.52    1.03
  -3   1   6    1.13    1.09
  -3  -1  -6    3.95    1.97
   3   1  -6    3.14    1.90
  -3   1   6    2.36    1.60
  -3  -1  -6    1.70    1.73
   3   1  -5   72.97    4.50
  -3  -1  -5   71.54    6.35
   3   1  -5   73.37    3.56
  -3   1   5   75.92    5.14
  -3  -1  -5   68.35    5.43
  -3   1   5   68.96    4.41
   3   1  -5   79.83    5.90
  -3   1   5   86.14    6.90
  -3  -1  -5   79.42    7.00
   3  -1   5   78.98    5.37
   3  -1   4   15.53    2.33
   3   1  -4   18.32    1.82
  -3   1   4   17.47    2.37
  -3   1   4   18.69    2.00
  -3  -1  -4   18.67    3.57
   3   1  -4   14.03    1.97
  -3  -1  -4   18.47    2.70
   3   1  -4   19.84    2.86
  -3   1   4   16.60    3.24
  -3  -1  -4   22.36    3.98
   3  -1   3   16.42    2.21
   3   1  -3   15.42    1.67
  -3   1   3   13.82    1.94
  -3   1   3   15.55    1.62
  -3  -1  -3   23.01    4.11
   3   1  -3   16.42    2.06
  -3  -1  -3   19.48    2.60
   3   1  -3   15.73    2.44
  -3   1   3   17.89    3.68
  -3  -1  -3   17.27    3.67
   3  -1   2   18.66    2.19
   3   1  -2   16.53    1.79
   3   1  -2   17.34    2.10
  -3   1   2   18.83    1.95
  -3   1   2   19.40    1.46
  -3  -1  -2   15.02    3.75
  -3  -1  -2   16.50    2.26
   3   1  -2   14.58    2.21
  -3   1   2   19.72    3.62
  -3  -1  -2   17.77    3.71
   3  -1   1   72.83    4.57
   3   1  -1   77.38    4.01
  -3  -1  -1   84.14    7.56
  -3   1   1   74.95    3.61
  -3   1   1   72.88    2.36
  -3   1   1   84.49    7.29
  -3  -1  -1   89.23    7.41
   3   1  -1   79.53    4.22
   3  -1   1   79.44    4.31
   3  -1   0    2.46    0.91
   3   1   0    3.44    1.05
   3  -1   0    2.69    0.96
  -3   1   0    3.25    0.72
  -3  -1   0    3.40    0.67
  -3  -1   0    3.74    2.82
  -3  -1   0    3.23    0.61
  -3   1   0    0.00    2.18
  -3  -1   0    6.21    2.85
   3  -1  -1   77.54    4.39
  -3  -1   1   87.98    7.73
  -3   1  -1   78.35    3.13
  -3  -1   1   82.76    3.81
  -3  -1   1   76.01    3.15
  -3   1  -1   78.02    7.00
  -3  -1   1   83.73    7.28
   3  -1  -1   76.35    3.76
   3   1   2   17.82    2.27
   3  -1  -2   16.10    1.77
   3  -1  -2   16.62    2.05
  -3   1  -2   17.27    1.36
  -3  -1   2   17.65    2.04
  -3  -1   2   17.02    1.65
  -3  -1   2   22.92    4.08
  -3   1  -2   18.32    3.95
  -3  -1   2   23.28    4.19
   3   1   3   18.99    2.51
   3  -1  -3   17.85    2.09
   3  -1  -3   18.65    1.94
  -3   1  -3   15.85    1.27
  -3  -1   3   14.34    2.09
  -3  -1   3   15.91    1.77
  -3  -1   3   20.32    4.06
  -3   1  -3   20.64    3.82
  -3  -1   3   17.56    3.76
   3   1   4   15.38    2.33
  -3   1  -4   17.59    1.39
  -3  -1   4   18.35    2.52
   3  -1  -4   16.37    1.85
  -3  -1   4   18.36    3.61
  -3  -1   4   14.38    1.78
  -3   1  -4   16.27    2.66
   3  -1  -4   18.10    2.76
   3  -1  -4   16.52    2.04
  -3   1  -4   17.83    3.49
  -3  -1   4   15.79    3.63
   3  -1  -5   74.58    4.16
  -3  -1   5   81.21    7.02
   3  -1  -5   75.88    4.23
  -3   1  -5   70.83    3.05
  -3  -1   5   86.55    5.78
  -3   1  -5   64.08    5.18
  -3  -1   5   77.33    4.67
   3  -1  -5   75.35    5.55
  -3   1  -5   80.84    7.02
  -3  -1   5   79.23    6.82
   3   1   5   81.59    5.37
   3   1   6    1.17    1.44
   3  -1  -6    1.00    0.82
   3  -1  -6    2.00    1.06
  -3  -1   6    0.83    1.73
  -3  -1   6    3.48    1.63
  -3  -1   6    1.67    1.18
  -3   1  -6    5.02    2.07
   3  -1  -6    2.97    1.83
  -3   1  -6   -1.11    1.92
  -3  -1   6    3.26    2.35
   3  -1  -7   25.43    2.83
   3   1   7   22.12    3.31
   3  -1  -7   22.94    2.43
  -3  -1   7   22.30    3.96
  -3  -1   7   24.86    3.54
  -3  -1   7   22.21    3.08
  -3   1  -7   25.31    3.66
   3  -1  -7   26.46    3.74
  -3   1  -7   30.97    4.34
  -3  -1   7   26.62    3.98
  -3   1  -7   25.59    3.53
   3   1   8   11.07    2.62
   3  -1  -8    7.97    1.60
   3  -1  -8    6.07    1.69
  -3  -1   8    6.12    2.20
  -3  -1   8    8.90    2.52
  -3  -1   8    7.21    2.01
  -3   1  -8    9.05    2.32
   3  -1  -8    8.21    2.33
  -3   1  -8    8.26    2.51
  -3  -1   8   10.99    2.78
  -3   1  -8    8.70    2.48
   3  -1  -9   22.04    2.61
   3   1   9   16.61    3.16
   3  -1  -9   17.12    2.84
  -3  -1   9   17.37    3.26
  -3   1  -9   18.17    3.52
   3  -1  -9   17.95    3.52
  -3   1  -9   20.53    3.57
  -3  -1   9   18.99    3.36
  -3   1  -9   13.62    2.94
   3   1  10    5.99    2.13
   3  -1 -10    6.12    1.93
   3  -1 -10    6.86    1.65
  -3  -1  10    5.82    2.09
  -3   1 -10    7.15    2.98
   3  -1 -10   10.63    3.08
  -3   1 -10    6.01    2.26
  -3  -1  10    7.09    2.23
  -3   1 -10    3.26    1.72
  -3   1 -11   13.65    3.37
   3   1  11   21.31    4.14
  -3  -1  11   16.28    3.54
  -3   1 -11   14.34    3.52
   3  -1 -11   16.62    3.75
  -3   1 -11   16.22    3.13
  -3  -1  11   21.26    3.42
  -3   1 -12    2.20    2.08
   3   1  12   -2.54    2.23
  -3  -1  12    1.55    1.87
  -3   1 -12    5.65    2.98
   3  -1 -12    5.11    2.61
  -3   1 -13    6.01    2.89
   3   1  13    0.29    2.31
  -3  -1  13    4.04    2.42
  -3   1 -13    5.86    3.01
   3  -1 -13    1.88    2.79
  -3   1 -14    8.35    3.92
   3   1  14    3.07    2.20
  -3  -1  14   10.07    3.24
  -3   1 -14   -0.04    2.13
   3  -1 -14    7.78    3.04
  -3   1 -15    8.28    4.01
   3   1  15    1.33    2.68
  -3  -1  15    4.39    2.20
  -3   1 -15    3.16    2.20
   3  -1 -15    2.18    2.10
  -3   1 -16    4.12    3.83
   3   1  16   -0.60    2.25
  -3  -1  16    1.28    1.90
  -3   1 -16    6.66    3.14
   3  -1 -16   -3.80    3.12
  -3   1 -17    6.80    3.34
   3   1  17    6.43    3.38
  -3  -1  17    0.73    2.29
  -3   1 -17   -5.24    2.67
   3  -1 -17   -0.31    1.85
  -3  -2 -18    1.87    2.18
   3  -2  17   -1.84    2.36
  -3   2  17    6.95    3.15
   3   2 -17    1.95    2.21
  -3  -2 -17    2.37    1.95
   3  -2  16    3.89    2.89
  -3   2  16    5.09    2.73
  -3  -2 -16    2.86    2.38
   3   2 -16    6.12    2.88
  -3  -2 -16   -2.18    3.16
   3  -2  15    3.82    3.12
  -3   2  15    2.18    2.13
  -3   2  15    1.74    2.30
  -3  -2 -15    0.39    2.06
   3   2 -15    1.75    2.56
  -3  -2 -15    5.06    2.60
   3   2 -14    1.09    1.92
   3  -2  14    5.66    3.36
  -3   2  14   -2.54    2.34
  -3   2  14    1.83    2.09
  -3  -2 -14   -2.09    2.14
   3   2 -14   -6.90    3.58
  -3  -2 -14    1.50    2.21
   3  -2  13    9.73    3.30
   3   2 -13   16.27    3.69
  -3   2  13   12.99    3.45
  -3   2  13   17.52    3.86
  -3  -2 -13   17.52    4.08
   3   2 -13   14.58    3.95
  -3  -2 -13   16.32    3.53
   3  -2  12    7.55    2.97
   3   2 -12    6.59    2.51
  -3   2  12    8.60    2.56
  -3   2  12    9.21    2.62
  -3  -2 -12    5.41    2.59
   3   2 -12    9.93    3.29
  -3  -2 -12    4.11    1.97
   3  -2  11   -1.36    2.41
   3   2 -11    0.10    1.38
  -3   2  11    4.24    2.11
  -3   2  11    3.86    2.24
  -3  -2 -11    3.94    2.48
   3   2 -11    3.64    2.18
  -3   2  11    4.13    1.76
  -3  -2 -11   -0.04    1.71
   3  -2  10    4.60    2.34
  -3  -2 -10    4.14    1.89
   3   2 -10    0.98    1.37
  -3   2  10    6.47    2.30
  -3   2  10    4.44    2.23
  -3  -2 -10    4.67    2.39
   3   2 -10    7.46    3.01
  -3   2  10    5.15    1.86
  -3  -2 -10    5.63    2.03
  -3  -2 -10    3.22    1.58
   3   2  -9   29.99    3.87
   3  -2   9   27.65    4.42
  -3   2   9   36.77    4.50
  -3  -2  -9   31.23    3.95
  -3   2   9   33.11    4.45
  -3  -2  -9   30.19    4.95
  -3   2   9   33.43    4.12
   3   2  -9   35.83    5.08
  -3  -2  -9   26.67    3.53
  -3  -2  -9   32.44    4.58
   3  -2   8    6.56    2.30
   3   2  -8    5.16    1.68
  -3   2   8    4.43    1.70
  -3  -2  -8    6.58    2.29
  -3   2   8    5.65    2.00
  -3  -2  -8    5.96    2.43
   3   2  -8    2.52    1.73
  -3   2   8    7.87    2.21
  -3  -2  -8    8.38    2.63
   3   2  -7   40.65    4.01
  -3  -2  -7   43.57    4.74
  -3   2   7   41.87    4.25
  -3  -2  -7   45.17    5.20
  -3   2   7   44.52    4.42
   3   2  -7   49.24    5.42
  -3   2   7   44.94    4.93
  -3  -2  -7   48.20    5.66
   3  -2   7   45.29    4.82
  -3   2   6   14.21    2.33
   3   2  -6   17.41    2.53
  -3   2   6   15.65    2.40
  -3  -2  -6   14.28    2.87
  -3  -2  -6   16.31    3.06
   3   2  -6   16.38    3.10
  -3   2   6   16.20    3.37
   3  -2   6   16.02    2.80
  -3  -2  -6   13.98    3.15
   3   2  -5   30.76    3.03
   3   2  -5   34.06    2.15
  -3   2   5   30.47    3.19
  -3   2   5   32.84    3.17
  -3  -2  -5   29.77    3.73
  -3  -2  -5   39.07    4.78
   3   2  -5   35.06    4.19
  -3   2   5   32.50    4.50
  -3  -2  -5   33.00    4.86
   3  -2   5   30.92    3.57
   3  -2   4    4.95    1.51
   3   2  -4    6.43    1.00
  -3   2   4    4.55    1.20
  -3   2   4    4.98    1.23
   3   2  -4    5.26    1.54
  -3  -2  -4    6.08    1.77
  -3  -2  -4    2.75    2.02
   3   2  -4    5.30    1.90
  -3   2   4    7.54    2.97
  -3  -2  -4    6.19    2.88
   3   2  -3   80.80    3.54
   3   2  -3   80.90    4.58
  -3   2   3   71.23    4.19
  -3  -2  -3   75.27    5.07
  -3   2   3   78.93    3.62
   3   2  -3   84.78    5.54
  -3   2   3   80.44    7.30
  -3  -2  -3   77.69    7.36
  -3  -2  -3   96.79    7.88
   3  -2   3   82.87    4.97
   3  -2   2   17.50    2.09
   3   2  -2   19.07    2.24
   3  -2   2   20.00    2.59
   3   2  -2   17.25    1.72
  -3   2   2   16.58    1.88
  -3   2   2   17.70    1.34
  -3  -2  -2   19.62    2.50
   3   2  -2   19.60    2.65
  -3   2   2   24.77    4.29
  -3  -2  -2   21.37    4.08
  -3  -2  -2   12.90    3.40
   3   2  -1   52.83    3.68
  -3  -2  -1   59.50    6.46
  -3   2   1   53.15    3.13
  -3  -2  -1   53.99    3.74
  -3   2   1   53.20    1.57
   3   2  -1   51.28    3.08
   3   2  -1   54.46    3.93
  -3   2   1   59.07    6.44
  -3  -2  -1   60.51    6.57
   3  -2   1   55.57    4.04
   3  -2   1   54.65    3.46
   3  -2   0   10.58    1.50
   3  -2   0    8.79    1.77
  -3   2   0    8.84    1.24
  -3  -2   0    8.88    1.10
   3   2   0   10.18    1.69
  -3   2   0   10.55    3.29
  -3  -2   0   15.78    3.90
   3  -2  -1   49.47    3.73
  -3   2  -1   53.87    2.82
  -3  -2   1   50.39    2.76
  -3  -2   1   53.51    6.18
  -3   2  -1   53.68    6.07
  -3  -2   1   49.44    6.03
   3  -2  -1   52.45    2.93
   3  -2  -1   54.54    3.18
   3  -2  -2   17.27    1.65
   3  -2  -2   17.50    2.23
  -3   2  -2   18.11    1.60
  -3  -2   2   16.63    1.73
  -3   2  -2   18.44    3.93
  -3  -2   2   23.80    4.32
  -3  -2   2   17.20    3.76
   3   2   2   22.84    2.64
   3  -2  -3   79.16    3.62
  -3  -2   3   81.57    7.53
  -3   2  -3   77.99    3.31
  -3  -2   3   77.30    4.02
  -3   2  -3   73.16    7.01
  -3  -2   3   90.43    7.57
   3  -2  -3   81.90    4.63
   3   2   3   78.49    5.03
   3   2   4    6.25    1.69
   3  -2  -4    4.02    1.29
  -3   2  -4    4.74    0.90
   3  -2  -4    5.81    1.13
  -3  -2   4    4.79    1.26
  -3  -2   4    2.39    2.29
  -3   2  -4    6.41    2.92
  -3  -2   4    5.64    2.62
   3  -2  -5   34.00    2.65
   3  -2  -5   29.22    2.76
  -3   2  -5   29.78    2.22
  -3  -2   5   31.79    3.04
  -3  -2   5   42.37    5.42
  -3   2  -5   31.92    4.50
  -3  -2   5   42.37    5.27
   3   2   5   35.62    3.69
   3   2   6   14.57    2.63
   3  -2  -6   16.37    2.22
   3  -2  -6   14.01    1.93
  -3  -2   6   15.69    2.37
  -3  -2   6   18.71    3.48
  -3   2  -6   14.64    2.89
   3  -2  -6   20.38    2.96
  -3   2  -6   21.49    3.83
  -3   2  -6   18.23    2.86
  -3  -2   6   16.00    3.52
   3  -2  -7   41.79    3.51
  -3  -2   7   40.92    4.86
   3  -2  -7   40.53    3.50
  -3   2  -7   44.42    4.77
  -3  -2   7   40.42    4.07
   3  -2  -7   45.06    4.55
  -3   2  -7   44.80    5.23
  -3  -2   7   47.12    5.36
  -3   2  -7   37.37    4.19
   3   2   7   43.48    4.39
   3   2   8    5.55    1.96
   3  -2  -8    3.90    1.22
   3  -2  -8    7.69    1.76
  -3  -2   8    6.03    2.27
  -3  -2   8    4.30    1.79
  -3   2  -8    2.69    1.55
   3  -2  -8    6.96    2.20
  -3   2  -8    7.51    2.37
  -3   2  -8    9.58    2.65
  -3  -2   8    6.61    2.47
   3   2   9   30.72    4.22
   3  -2  -9   35.54    3.52
  -3  -2   9   32.26    4.24
  -3  -2   9   32.50    4.23
  -3   2  -9   34.89    4.74
  -3   2  -9   34.64    4.39
  -3  -2   9   33.91    4.47
   3  -2  -9   33.52    4.46
  -3   2  -9   25.64    4.04
   3  -2 -10    3.88    1.50
  -3  -2  10    4.38    1.87
  -3  -2  10    1.10    1.68
  -3   2 -10    5.58    2.39
   3  -2 -10    5.63    2.45
   3   2  10    3.77    2.07
  -3   2 -10    3.45    1.76
  -3  -2  10    6.69    2.26
  -3   2 -10    6.79    2.59
  -3   2 -11    1.92    2.45
   3   2  11    4.22    2.48
   3  -2 -11    2.66    1.32
  -3  -2  11    0.19    1.80
  -3   2 -11    3.49    1.97
   3  -2 -11    5.13    2.51
  -3   2 -11    5.99    2.17
  -3   2 -12   12.31    4.00
  -3  -2  12    9.15    2.99
  -3   2 -12    4.41    2.47
   3  -2 -12   11.45    3.47
   3   2  12   10.74    3.45
  -3   2 -13   17.47    4.41
   3   2  13   13.98    3.87
  -3  -2  13   16.77    3.81
  -3   2 -13   21.56    4.59
   3  -2 -13   13.40    3.69
  -3   2 -14    3.99    2.89
   3   2  14    1.19    2.30
  -3  -2  14    0.57    1.63
  -3   2 -14    0.57    2.07
   3  -2 -14   -0.05    2.24
  -3   2 -15    9.31    4.59
   3   2  15    0.06    2.64
  -3  -2  15    4.69    2.47
  -3   2 -15    3.37    2.49
   3  -2 -15    4.62    2.82
  -3   2 -16    3.34    3.21
  -3  -2  16    4.81    2.54
   3   2  16    2.99    2.23
  -3   2 -16    3.31    2.46
   3  -2 -16    6.28    3.42
   3   2  17   -0.58    2.67
  -3  -2  17    1.45    2.45
  -3   2 -17    1.95    1.89
   3  -2 -17   -2.75    2.47
   3  -3  17    4.32    3.02
  -3   3  17    0.92    2.24
  -3   3  17   -4.81    2.75
   3  -3  16   -0.79    2.58
  -3   3  16   -4.23    3.01
  -3   3  16   -1.67    2.08
  -3  -3 -16   -1.90    2.08
   3   3 -16   -0.05    2.24
  -3  -3 -16    6.25    2.99
   3   3 -15    2.16    2.23
  -3   3  15    4.38    2.68
  -3   3  15   -1.16    1.96
  -3  -3 -15    2.66    2.29
   3   3 -15    1.98    2.48
  -3  -3 -15    3.05    2.29
   3   3 -14    2.36    2.03
   3  -3  14    2.44    2.46
  -3   3  14    2.25    1.91
  -3   3  14    3.41    2.21
  -3  -3 -14    0.12    2.04
   3   3 -14    0.40    2.16
  -3  -3 -14    4.46    2.20
   3  -3  13   -0.52    2.18
   3   3 -13    2.42    1.90
  -3   3  13    1.59    1.79
  -3   3  13    2.41    1.88
  -3  -3 -13    3.10    2.16
   3   3 -13    2.08    2.69
  -3  -3 -13    1.44    1.86
   3  -3  12    6.53    2.99
   3   3 -12    2.15    1.74
  -3   3  12    2.99    1.86
  -3   3  12    8.09    2.86
  -3  -3 -12    2.14    1.83
   3   3 -12    2.67    2.17
  -3  -3 -12    4.37    2.12
   3  -3  11    3.58    2.14
   3   3 -11    4.20    2.27
  -3  -3 -11    5.23    1.98
  -3   3  11    6.24    2.31
  -3   3  11    5.63    2.25
  -3  -3 -11    3.27    2.18
   3   3 -11    4.35    2.64
  -3   3  11    6.74    2.10
  -3  -3 -11    3.73    1.80
   3  -3  10   -1.50    1.53
   3   3 -10   -4.32    2.33
  -3   3  10    0.99    1.54
  -3  -3 -10    1.79    1.69
  -3   3  10    1.31    2.01
  -3  -3 -10   -1.38    2.12
   3   3 -10   -0.26    2.05
  -3   3  10    1.26    1.54
  -3  -3 -10    0.13    1.15
   3  -3   9    2.09    1.91
   3   3  -9    0.52    1.14
  -3   3   9    3.29    1.91
  -3   3   9    0.33    1.68
  -3  -3  -9    0.91    1.46
  -3  -3  -9    2.10    2.13
   3   3  -9    0.36    1.96
  -3   3   9    2.29    1.50
   3  -3   8   12.69    3.01
   3   3  -8   13.41    2.63
  -3   3   8   18.38    3.11
  -3   3   8   14.76    2.92
  -3  -3  -8   19.34    3.74
  -3  -3  -8   17.53    3.06
   3   3  -8   12.09    3.17
  -3   3   8   16.24    3.14
  -3  -3  -8   14.91    3.28
   3  -3   7   13.18    2.92
  -3   3   7   11.00    2.15
   3   3  -7   11.42    2.27
  -3   3   7   11.01    2.43
  -3  -3  -7   11.55    3.06
  -3  -3  -7    8.24    2.18
   3   3  -7   14.03    3.32
  -3   3   7   13.78    3.02
  -3  -3  -7   12.35    3.42
   3  -3   6   14.07    2.75
  -3   3   6   15.07    2.54
   3   3  -6   12.23    2.36
  -3   3   6   12.10    2.29
  -3  -3  -6   11.94    2.95
   3   3  -6   10.68    2.70
  -3   3   6   14.46    3.18
  -3  -3  -6   12.04    2.92
  -3  -3  -6   14.57    3.56
  -3   3   5    7.71    1.72
  -3   3   5   11.65    1.96
   3   3  -5   12.48    2.25
  -3  -3  -5    5.75    2.05
  -3   3   5    7.75    2.66
   3   3  -5    9.78    2.82
  -3  -3  -5    6.45    1.99
   3  -3   5    6.34    1.92
  -3  -3  -5   12.98    3.26
   3   3  -4   15.57    1.25
   3  -3   4   18.27    2.66
  -3   3   4   17.91    2.28
  -3   3   4   19.70    2.23
   3   3  -4   15.40    2.29
  -3  -3  -4   15.80    2.58
  -3   3   4   16.75    3.67
   3   3  -4   20.96    3.25
  -3  -3  -4   22.91    4.03
  -3  -3  -4   16.62    3.97
   3   3  -3    9.80    1.11
   3  -3   3    9.54    1.83
   3  -3   3   11.57    2.18
  -3   3   3   11.93    1.79
  -3   3   3    9.19    1.27
   3   3  -3   10.92    2.03
  -3  -3  -3    7.52    1.86
   3   3  -3    9.91    2.17
  -3   3   3   13.29    3.47
  -3  -3  -3    7.18    2.77
  -3  -3  -3   12.45    3.16
  -3  -3  -2   50.59    6.22
   3   3  -2   42.48    2.48
   3   3  -2   43.84    3.52
  -3  -3  -2   38.72    3.52
  -3   3   2   41.45    3.07
  -3   3   2   45.34    2.14
   3  -3   2   40.49    3.78
   3   3  -2   45.83    4.06
  -3   3   2   44.77    5.89
  -3  -3  -2   50.07    6.07
   3  -3   2   46.01    3.48
  -3  -3  -1   14.18    3.85
   3  -3   1   10.29    1.58
   3   3  -1    9.96    1.31
   3  -3   1   10.00    2.01
  -3   3   1    9.86    1.49
  -3  -3  -1   10.43    1.77
  -3  -3  -1   11.14    1.30
   3   3  -1   11.11    1.80
   3   3  -1   11.11    1.97
  -3   3   1    5.73    2.87
  -3  -3  -1   12.20    3.44
  -3  -3   0    4.63    2.38
   3  -3   0    6.42    1.15
   3  -3   0    4.53    1.50
  -3   3   0    5.96    1.21
  -3  -3   0    5.76    1.03
  -3  -3   0    6.17    1.27
   3   3   0    4.51    1.22
  -3   3   0    1.24    2.52
   3   3   0    5.70    1.48
  -3  -3   0    9.41    3.03
  -3  -3   1   12.29    3.82
   3  -3  -1   10.31    1.33
   3  -3  -1   11.83    2.05
  -3   3  -1    9.83    1.43
  -3  -3   1   10.82    1.46
   3   3   1    9.36    1.66
  -3   3  -1   13.25    3.70
   3  -3  -1   10.31    1.22
  -3  -3   1    7.72    3.06
  -3  -3   2   47.55    6.00
   3  -3  -2   40.56    3.51
   3  -3  -2   46.11    2.50
  -3   3  -2   43.71    2.72
  -3  -3   2   42.42    2.90
   3   3   2   38.81    2.88
  -3   3  -2   41.64    5.55
   3  -3  -2   41.09    2.50
  -3  -3   2   54.60    6.32
   3   3   3    9.15    1.96
   3  -3  -3   10.95    1.28
  -3   3  -3   10.06    1.41
   3  -3  -3   10.08    1.80
  -3  -3   3    9.97    1.58
   3   3   3    7.99    1.22
  -3   3  -3   13.82    3.78
  -3  -3   3    7.73    2.82
  -3  -3   3   12.71    3.73
   3   3   4   17.42    2.59
   3  -3  -4   18.32    1.69
   3  -3  -4   15.12    2.18
  -3   3  -4   18.28    1.82
  -3  -3   4   17.59    2.22
  -3   3  -4   20.31    4.17
  -3  -3   4   22.81    4.20
  -3  -3   4   19.44    4.03
   3   3   5    9.33    2.25
   3  -3  -5   10.21    1.86
  -3   3  -5    7.51    1.27
   3  -3  -5    8.46    1.24
  -3  -3   5    4.82    1.31
  -3   3  -5   10.91    3.45
  -3  -3   5   10.35    3.40
  -3  -3   5    2.62    2.06
   3   3   6   11.11    2.27
   3  -3  -6   14.16    2.20
   3  -3  -6   12.54    1.69
  -3  -3   6   12.82    2.14
   3  -3  -6   10.78    2.37
  -3   3  -6   12.01    2.97
  -3  -3   6   15.22    3.61
  -3   3  -6   10.57    2.44
  -3  -3   6   15.73    3.40
   3   3   7   12.58    2.62
   3  -3  -7    8.50    1.80
  -3  -3   7    6.19    1.79
  -3   3  -7    8.36    2.30
   3  -3  -7   13.79    2.69
  -3  -3   7   12.63    2.98
  -3   3  -7   12.67    3.02
  -3   3  -7   10.75    2.62
  -3  -3   7   10.60    2.88
   3   3   8   15.99    2.94
   3  -3  -8   16.03    2.36
  -3  -3   8   12.49    2.62
  -3  -3   8   14.81    3.12
  -3   3  -8   12.39    2.69
   3  -3  -8   14.60    2.84
  -3   3  -8   17.02    3.28
  -3   3  -8   19.28    3.44
   3   3   9    0.87    1.23
   3  -3  -9    2.24    1.35
  -3  -3   9    3.56    2.01
  -3  -3   9   -1.78    1.75
  -3   3  -9    2.07    1.64
   3  -3  -9    2.17    1.47
  -3   3  -9    2.91    1.81
  -3   3  -9    1.79    1.99
  -3   3 -10   -0.51    1.44
   3   3  10    1.70    1.83
   3  -3 -10   -1.20    1.31
  -3  -3  10    2.32    1.44
  -3  -3  10    2.67    1.88
  -3   3 -10   -2.77    2.49
   3  -3 -10   -1.97    1.75
  -3   3 -10    0.68    1.59
  -3   3 -11    6.67    3.25
   3   3  11    3.42    1.97
   3  -3 -11    3.47    1.46
  -3  -3  11    7.99    2.12
  -3  -3  11   12.16    2.95
  -3   3 -11    1.47    1.66
   3  -3 -11    7.38    3.00
  -3   3 -11    4.19    1.69
  -3   3 -12    7.20    3.87
   3   3  12    4.37    2.42
  -3  -3  12    3.99    2.21
  -3   3 -12    4.81    2.74
   3  -3 -12    4.30    2.47
  -3   3 -13    2.92    2.57
   3   3  13   -1.65    1.93
  -3   3 -13   -0.98    2.32
   3  -3 -13    0.72    2.11
  -3   3 -14   -0.10    2.69
  -3  -3  14    2.03    1.90
  -3   3 -14    3.56    2.39
   3  -3 -14    2.06    2.45
   3   3  14    1.63    2.06
  -3   3 -15   -3.16    3.31
   3   3  15    1.85    2.23
  -3  -3  15    1.65    1.98
  -3   3 -15    3.99    2.46
   3  -3 -15    0.47    2.16
  -3   3 -16    2.49    2.36
   3   3  16    0.43    1.84
  -3  -3  16    2.06    2.65
  -3   3 -16    0.56    2.15
   3  -3 -16    0.56    2.25
  -3   3 -17    2.31    2.10
  -3  -3  17   -2.40    2.90
  -3   3 -17    1.24    1.96
   3  -3 -17   -2.08    2.40
   3  -4  17   -1.23    2.95
  -3   4  17    0.75    1.92
   3   4 -16    6.05    2.82
   3  -4  16    1.63    2.53
  -3   4  16    1.80    2.02
  -3   4  16    4.37    2.41
  -3  -4 -16    2.61    2.57
   3   4 -16    6.81    3.38
   3   4 -15   -3.71    2.44
   3  -4  15    3.80    2.71
  -3   4  15   -1.19    2.02
  -3   4  15    1.11    1.82
  -3  -4 -15   -1.97    2.31
   3   4 -15    2.69    2.81
  -3  -4 -15   -1.69    1.97
   3  -4  14   -2.49    2.20
   3   4 -14    4.63    2.62
  -3   4  14    0.16    1.63
  -3  -4 -14    2.42    2.52
   3   4 -14    2.59    2.42
  -3  -4 -14   -1.64    1.62
   3  -4  13    4.28    2.22
   3   4 -13    5.53    2.77
  -3   4  13    0.79    1.84
  -3  -4 -13    2.77    2.20
   3   4 -13   -0.86    2.28
  -3  -4 -13    2.80    1.73
   3  -4  12    3.59    2.60
   3   4 -12    3.52    2.10
  -3   4  12    6.17    2.39
  -3  -4 -12    6.05    2.89
   3   4 -12    1.37    1.51
  -3  -4 -12    6.64    2.16
   3   4 -11    2.14    1.87
   3  -4  11    4.99    2.88
  -3   4  11    2.06    1.62
  -3  -4 -11    1.91    1.50
  -3  -4 -11    3.02    2.14
   3   4 -11    0.49    2.21
  -3   4  11    4.08    1.61
   3  -4  10    3.63    2.16
   3   4 -10    4.03    1.82
  -3   4  10    0.90    1.59
  -3  -4 -10    0.32    2.00
  -3  -4 -10    1.85    1.25
  -3   4  10    2.07    1.34
   3   4 -10    3.46    2.35
   3  -4   9    7.17    3.08
   3   4  -9    2.47    1.62
  -3   4   9    6.20    2.11
  -3  -4  -9    3.53    2.01
  -3  -4  -9    3.34    1.76
  -3   4   9    4.86    2.00
   3   4  -9    2.02    1.90
   3  -4   8    2.75    1.98
   3   4  -8    0.75    1.63
  -3   4   8    1.86    1.42
  -3  -4  -8    4.45    2.18
  -3   4   8    0.83    1.59
   3   4  -8    1.06    1.59
  -3  -4  -8    3.13    1.75
   3  -4   7   15.44    3.20
  -3   4   7   14.86    2.55
   3   4  -7   13.80    2.52
  -3  -4  -7   17.78    3.65
  -3   4   7   14.84    3.16
   3   4  -7   14.65    3.20
  -3  -4  -7   16.13    3.05
   3  -4   6    8.26    2.32
  -3   4   6    8.14    1.94
   3   4  -6    8.22    1.92
  -3  -4  -6   11.55    2.83
  -3   4   6   12.25    3.01
   3   4  -6   10.42    3.10
  -3  -4  -6    5.38    1.98
  -3  -4  -5    3.27    2.18
   3  -4   5    5.70    2.10
  -3   4   5    3.07    1.26
   3   4  -5    4.97    1.64
  -3  -4  -5    2.39    1.38
  -3   4   5    5.29    2.73
   3   4  -5    6.08    2.53
  -3  -4  -5   11.57    3.67
   3  -4   4    4.90    1.75
  -3  -4  -4    5.61    2.34
   3  -4   4    7.38    2.03
  -3   4   4    5.43    1.49
  -3   4   4    5.67    1.32
   3   4  -4    8.01    1.89
  -3  -4  -4    4.03    1.64
  -3   4   4    9.46    3.02
   3   4  -4    7.27    2.32
  -3  -4  -4   12.16    3.80
   3  -4   3   37.30    3.84
   3   4  -3   32.74    1.73
   3   4  -3   38.40    3.52
  -3  -4  -3   36.48    5.31
  -3   4   3   34.45    3.11
  -3  -4  -3   31.88    3.52
  -3   4   3   37.37    2.70
   3   4  -3   35.55    4.30
  -3   4   3   37.28    5.22
   3  -4   3   33.66    3.44
  -3  -4  -3   42.77    6.08
   3   4  -2   11.70    1.21
   3  -4   2   12.21    2.20
  -3  -4  -2   14.94    4.15
  -3   4   2   11.14    1.79
  -3   4   2   12.63    1.20
  -3  -4  -2   13.30    2.25
   3   4  -2   12.86    2.11
  -3   4   2   18.42    4.25
   3   4  -2   15.37    2.86
  -3  -4  -2   14.74    3.97
   3  -4   2   13.88    2.04
   3   4  -1   17.94    1.68
   3  -4   1   16.01    2.49
  -3  -4  -1   12.60    3.71
  -3   4   1   17.95    2.09
  -3  -4  -1   21.08    2.38
  -3  -4  -1   15.61    1.69
   3   4  -1   15.23    2.21
  -3   4   1   18.06    4.25
   3   4  -1   16.73    2.73
   3  -4   1   17.89    2.12
  -3  -4  -1   13.84    4.22
   3  -4   0    4.48    1.02
   3  -4   0    5.35    1.77
  -3  -4   0    2.37    2.34
  -3   4   0    4.50    1.21
  -3  -4   0    6.31    1.30
  -3  -4   0    6.03    1.08
  -3   4   0    4.61    3.10
   3   4   0    6.59    1.53
   3   4   0    3.85    1.42
  -3  -4   0   11.31    4.00
   3  -4  -1   16.05    2.37
  -3  -4   1   15.74    3.85
  -3   4  -1   15.26    1.83
  -3  -4   1   16.91    1.90
   3  -4  -1   17.70    1.46
  -3   4  -1   17.14    4.02
   3   4   1   18.57    2.39
   3  -4  -1   16.84    1.61
  -3  -4   1   22.43    4.53
   3  -4  -2   14.36    1.24
  -3  -4   2   14.66    3.74
  -3   4  -2   13.66    1.66
  -3  -4   2   13.99    1.86
  -3   4  -2   10.92    2.86
   3   4   2   13.10    1.78
   3  -4  -2   13.88    2.16
   3  -4  -2   12.64    1.26
  -3  -4   2   12.10    3.64
   3  -4  -3   36.23    1.93
   3  -4  -3   32.76    3.23
  -3  -4   3   40.31    5.59
  -3   4  -3   33.02    2.55
  -3  -4   3   31.63    2.87
   3   4   3   34.17    2.60
  -3   4  -3   39.71    5.62
   3   4   3   33.75    3.52
   3  -4  -3   34.61    1.95
  -3  -4   3   33.05    5.24
   3   4   4    7.62    2.03
  -3  -4   4    4.19    2.69
   3  -4  -4    6.16    1.55
  -3   4  -4    7.60    1.32
  -3  -4   4    6.00    1.38
  -3   4  -4    3.01    2.01
  -3  -4   4    7.19    3.42
   3   4   5    3.40    1.54
  -3  -4   5    5.15    2.41
   3  -4  -5    4.88    1.45
  -3   4  -5    4.85    1.14
  -3  -4   5    2.70    1.14
  -3   4  -5    4.52    2.58
  -3   4  -5    5.05    1.99
  -3  -4   5    6.20    2.86
  -3  -4   6    7.76    2.78
   3   4   6    9.83    2.37
   3  -4  -6    9.38    1.85
  -3  -4   6    7.08    1.71
  -3   4  -6    6.50    2.69
  -3   4  -6    9.42    2.47
   3   4   7   17.19    3.03
   3  -4  -7   15.75    2.52
  -3  -4   7   17.09    2.76
   3  -4  -7   18.25    3.08
  -3   4  -7   11.83    2.87
  -3   4  -7   18.51    3.31
  -3  -4   7   13.82    3.09
   3   4   8    4.66    1.96
   3  -4  -8    3.29    1.48
  -3  -4   8    5.19    1.72
   3  -4  -8    3.90    1.93
  -3   4  -8    4.83    2.24
  -3  -4   8    4.63    2.04
  -3   4  -8    4.36    2.07
  -3   4  -9    0.17    1.82
   3   4   9    5.31    2.09
   3  -4  -9    3.97    1.50
  -3  -4   9    2.05    1.23
   3  -4  -9    2.36    1.54
  -3  -4   9    5.77    2.23
  -3   4  -9    5.02    2.07
  -3   4 -10    2.83    2.40
   3   4  10    5.61    2.22
  -3  -4  10    2.16    1.51
   3  -4 -10    3.85    1.49
  -3  -4  10    6.01    2.09
  -3   4 -10    5.00    2.39
   3  -4 -10    5.81    2.27
  -3   4 -10    6.90    2.34
  -3   4 -11    3.67    2.23
   3   4  11    1.19    1.85
   3  -4 -11    0.12    1.39
  -3  -4  11    4.79    1.95
  -3  -4  11    1.51    1.79
  -3   4 -11    6.42    2.60
   3  -4 -11    0.60    1.37
  -3   4 -11    3.43    1.65
  -3   4 -12    9.27    3.53
   3   4  12    6.40    2.41
   3  -4 -12    3.13    1.53
  -3  -4  12    5.28    2.41
  -3   4 -12    5.65    2.41
   3  -4 -12   10.30    3.06
  -3   4 -13    6.19    3.85
   3   4  13   -1.02    2.20
  -3  -4  13    5.76    2.57
  -3   4 -13    3.09    2.26
   3  -4 -13    3.87    2.09
  -3   4 -14   -1.24    2.94
   3   4  14    2.16    2.58
  -3  -4  14    4.78    2.91
  -3   4 -14    1.58    2.77
   3  -4 -14    0.72    2.39
  -3   4 -15    0.65    3.50
   3   4  15    3.32    2.86
  -3  -4  15   -3.34    2.74
  -3   4 -15    0.81    2.09
   3  -4 -15    0.78    2.04
  -3   4 -16    2.00    3.01
  -3  -4  16    0.41    1.97
  -3   4 -16   -3.99    3.04
   3  -4 -16    2.88    2.55
   3   5 -17   -3.49    2.90
  -3   5  17    0.79    1.47
   3   5 -16   -3.91    2.61
   3  -5  16    1.37    2.18
  -3   5  16    1.25    2.67
  -3  -5 -16    1.61    2.58
   3   5 -16   -4.09    2.87
   3   5 -15    0.33    1.85
   3  -5  15    3.04    2.23
  -3   5  15    3.47    2.37
  -3  -5 -15    3.42    2.35
   3   5 -15    8.40    3.63
   3  -5  14    4.92    2.77
   3   5 -14    8.53    3.30
  -3   5  14    3.03    2.27
  -3  -5 -14    4.66    2.79
   3   5 -14    4.11    2.56
   3  -5  13    3.22    2.20
   3   5 -13   -2.33    2.34
  -3   5  13    0.73    2.34
  -3  -5 -13    0.14    2.37
   3   5 -13   -0.66    2.31
   3  -5  12   -0.66    2.24
   3   5 -12    2.66    2.07
  -3   5  12    6.59    2.39
  -3  -5 -12    2.20    2.16
   3   5 -12    6.28    3.04
   3  -5  11   18.78    4.10
   3   5 -11   16.17    3.42
  -3   5  11   18.88    3.63
  -3  -5 -11   13.87    3.71
  -3  -5 -11   17.94    3.10
  -3   5  11   16.16    2.88
   3   5 -11   19.98    4.10
   3  -5  10   12.86    3.02
   3   5 -10   11.21    2.95
  -3   5  10   15.07    3.01
  -3  -5 -10   14.81    3.70
  -3   5  10   16.58    3.16
  -3  -5 -10   15.05    2.91
   3   5 -10   15.60    3.98
   3  -5   9   10.37    3.00
   3   5  -9    6.49    2.07
  -3   5   9    7.90    2.17
  -3  -5  -9    7.35    2.98
  -3   5   9    6.23    2.31
   3   5  -9    6.68    2.54
  -3  -5  -9    4.90    1.92
  -3  -5  -8   16.31    3.10
   3  -5   8   12.43    3.24
   3   5  -8   14.69    2.87
  -3   5   8   14.84    2.77
  -3  -5  -8   13.36    3.40
  -3   5   8   17.34    3.12
   3   5  -8   13.57    3.47
  -3  -5  -7   14.79    3.16
   3  -5   7   11.19    2.84
  -3   5   7   14.68    2.56
   3   5  -7   16.79    2.94
  -3  -5  -7   16.12    3.50
  -3   5   7   12.64    3.07
   3   5  -7   16.25    3.65
   3  -5   6    8.50    2.26
  -3  -5  -6   13.31    3.08
  -3   5   6    8.58    1.88
   3   5  -6   13.51    2.70
  -3  -5  -6    7.54    2.52
  -3   5   6   10.81    2.93
   3   5  -6    9.53    3.06
   3   5  -5   40.87    3.97
   3  -5   5   38.84    4.11
  -3  -5  -5   52.53    5.86
  -3   5   5   39.34    3.68
  -3  -5  -5   43.24    4.93
   3   5  -5   42.62    5.29
   3  -5   5   35.22    4.37
   3   5  -4   59.95    4.61
   3  -5   4   56.27    4.87
  -3  -5  -4   63.69    6.64
  -3   5   4   58.72    4.31
  -3  -5  -4   65.94    5.61
   3   5  -4   62.52    6.16
   3  -5   4   63.45    5.48
   3  -5   3    8.58    2.22
   3  -5   3    6.71    1.82
  -3   5   3    7.67    1.57
  -3  -5  -3    7.28    2.32
  -3  -5  -3    7.83    2.03
   3   5  -3    6.78    1.79
   3   5  -3    7.71    2.45
   3  -5   2   20.42    3.04
   3  -5   2   18.48    2.59
  -3   5   2   19.51    2.29
  -3  -5  -2   26.20    5.08
  -3  -5  -2   17.72    2.51
   3   5  -2   21.41    2.79
   3   5  -2   19.97    3.45
   3  -5   1   38.94    3.92
   3   5  -1   33.80    3.27
  -3   5   1   30.79    2.81
  -3  -5  -1   32.89    3.08
  -3  -5  -1   38.96    5.82
  -3  -5  -1   30.92    2.55
   3   5  -1   33.69    3.98
   3  -5   1   40.11    3.47
   3  -5   0   62.64    4.95
   3   5   0   64.48    4.45
  -3  -5   0   67.39    7.53
  -3   5   0   60.25    3.81
  -3  -5   0   66.83    3.90
  -3  -5   0   61.73    3.69
   3   5   0   65.10    5.05
   3  -5   0   65.97    3.91
   3  -5  -1   30.49    3.34
   3   5   1   31.79    3.13
   3  -5  -1   34.13    1.78
  -3   5  -1   35.04    2.84
  -3  -5   1   38.75    2.58
  -3  -5   1   31.85    2.69
  -3  -5   1   32.38    5.63
   3   5   1   38.12    3.57
   3  -5  -2   17.88    2.74
  -3   5  -2   18.94    2.10
  -3  -5   2   25.05    5.17
  -3  -5   2   20.36    2.32
   3   5   2   18.77    2.31
   3  -5  -3    8.42    1.92
  -3   5  -3    7.58    1.46
  -3  -5   3    7.75    2.94
  -3  -5   3    5.09    1.34
  -3  -5   4   72.44    7.43
  -3   5  -4   55.04    3.69
  -3  -5   4   61.66    4.38
   3  -5  -4   59.18    4.58
   3   5   4   63.70    4.81
   3  -5  -5   47.92    4.19
  -3  -5   5   54.72    6.40
  -3   5  -5   38.46    3.17
  -3  -5   5   42.69    3.83
  -3   5  -5   39.57    4.25
   3   5   5   42.43    4.13
   3   5   6    7.63    2.02
   3  -5  -6    9.62    2.00
  -3  -5   6   10.33    3.23
  -3  -5   6   12.73    2.31
  -3   5  -6    4.31    2.39
  -3   5  -6    8.34    2.26
   3   5   7   17.20    2.92
   3  -5  -7   13.32    2.42
  -3  -5   7   13.28    2.52
  -3  -5   7   16.88    3.46
  -3   5  -7   16.00    3.51
  -3   5  -7   14.39    3.07
   3   5   8   17.90    3.19
  -3  -5   8   16.18    3.30
   3  -5  -8   14.25    2.49
  -3  -5   8   13.55    2.57
   3  -5  -8   16.50    3.06
  -3   5  -8   18.41    3.49
  -3   5  -8   18.51    3.66
  -3   5  -9    5.13    2.62
   3   5   9    7.12    2.38
   3  -5  -9    6.68    1.91
  -3  -5   9    6.67    2.28
   3  -5  -9    6.22    2.30
  -3   5  -9    8.34    2.76
  -3  -5   9    5.90    2.05
  -3   5 -10   17.24    4.31
   3   5  10   15.97    3.52
   3  -5 -10   17.01    3.04
  -3  -5  10   12.18    2.94
   3  -5 -10   18.29    3.55
  -3   5 -10   13.17    2.91
  -3  -5  10   11.98    2.69
  -3   5 -11   26.10    5.72
   3   5  11   14.80    3.22
   3  -5 -11   14.83    2.71
  -3  -5  11   21.53    3.94
  -3  -5  11   19.43    3.36
   3  -5 -11   17.92    3.46
  -3   5 -11   18.61    3.34
  -3   5 -12    7.45    4.15
   3   5  12   -1.17    1.62
   3  -5 -12    1.87    1.36
  -3  -5  12    6.30    2.41
   3  -5 -12    4.30    2.08
  -3   5 -13    1.50    2.50
   3   5  13    3.91    2.66
  -3  -5  13    4.50    2.54
   3  -5 -13   -1.25    2.31
  -3   5 -14   -1.48    3.68
   3   5  14    1.03    2.11
  -3  -5  14    4.26    2.26
   3  -5 -14    0.58    2.21
   3   5  15    3.78    2.93
  -3  -5  15    4.64    2.90
   3  -5 -15   -0.38    2.70
  -3   5 -16    0.84    2.17
   3   5  16    5.14    3.53
  -3  -5  16   -2.16    2.52
   3  -5 -16    2.08    2.76
   3   6 -17   -1.39    2.51
   3   6 -16   -0.80    2.15
   3  -6  16    4.30    2.57
  -3   6  16    1.27    1.89
   3   6 -16    5.23    2.82
   3   6 -15    1.79    2.23
   3  -6  15    2.85    2.65
  -3   6  15    2.92    2.53
  -3  -6 -15    1.86    2.29
   3   6 -15   -2.39    2.62
   3  -6  14    3.73    2.49
   3   6 -14    4.10    2.36
  -3   6  14    1.56    1.74
  -3  -6 -14    2.76    2.01
   3   6 -14    1.86    2.08
   3  -6  13    2.48    2.49
   3   6 -13    4.15    2.84
  -3   6  13    1.43    1.56
  -3  -6 -13    4.10    2.88
   3   6 -13    5.73    3.18
   3  -6  12    2.69    2.47
   3   6 -12    5.74    2.77
  -3   6  12    3.43    2.16
  -3  -6 -12    4.73    2.89
   3   6 -12    9.46    3.27
   3  -6  11    2.78    2.10
   3   6 -11    3.27    2.49
  -3   6  11    2.08    1.68
  -3  -6 -11    3.02    2.43
  -3   6  11    0.72    1.19
   3   6 -11   -2.37    2.26
  -3  -6 -11   -1.06    1.62
   3   6 -10   20.16    3.88
  -3   6  10   18.18    3.27
  -3  -6 -10   23.66    4.85
   3  -6  10   13.82    3.76
  -3   6  10   21.82    3.57
   3   6 -10   20.52    4.31
  -3  -6 -10   21.26    3.54
  -3  -6  -9    0.81    1.15
   3  -6   9    2.78    2.19
   3   6  -9    3.95    2.16
  -3   6   9    0.68    1.35
  -3  -6  -9    1.68    2.30
  -3   6   9    1.54    1.52
   3   6  -9    0.44    2.14
   3  -6   8    4.49    2.21
  -3  -6  -8    3.38    1.98
  -3   6   8    4.32    1.67
   3   6  -8    4.18    2.07
  -3  -6  -8    3.84    2.24
  -3   6   8    4.50    2.22
   3   6  -8    5.30    2.59
   3  -6   7    1.43    1.79
   3  -6   7    0.80    1.89
  -3  -6  -7    0.70    1.55
  -3   6   7    0.18    1.02
   3   6  -7   -1.92    1.51
  -3  -6  -7    0.98    1.67
   3   6  -7    0.86    1.94
   3  -6   6   25.64    3.91
  -3   6   6   23.65    3.08
  -3  -6  -6   26.49    4.23
   3   6  -6   24.42    3.32
  -3  -6  -6   30.42    4.68
   3   6  -6   24.15    4.52
   3  -6   6   24.15    3.48
   3  -6   5    5.98    2.00
   3  -6   5    4.91    1.93
  -3   6   5    3.07    1.36
   3   6  -5    3.40    1.65
  -3  -6  -5   10.14    3.48
  -3  -6  -5    5.31    2.06
   3   6  -5    4.95    2.45
   3  -6   4   47.50    4.55
   3   6  -4   49.89    4.39
  -3   6   4   49.26    4.01
  -3  -6  -4   49.28    5.10
  -3  -6  -4   55.81    6.34
   3   6  -4   52.97    5.88
   3  -6   4   47.13    4.68
   3  -6   3    2.67    1.63
   3  -6   3    2.58    1.42
  -3   6   3    2.62    1.19
  -3  -6  -3    1.90    1.52
   3   6  -3    4.95    1.60
  -3  -6  -3    5.60    3.31
   3   6  -3    3.88    2.22
   3  -6   2   12.11    2.52
   3  -6   2   13.06    2.19
  -3   6   2   13.82    2.17
  -3  -6  -2   14.17    2.43
   3   6  -2   12.37    2.24
  -3  -6  -2   23.33    4.98
   3   6  -2   15.37    3.05
   3  -6   1    6.40    2.01
  -3   6   1    5.17    1.36
  -3  -6  -1    6.17    1.54
   3   6  -1    7.72    1.98
  -3  -6  -1    5.07    1.24
  -3  -6  -1    7.42    3.55
   3   6  -1    6.45    1.91
   3  -6   0   71.27    5.38
   3   6   0   69.63    4.89
  -3   6   0   71.33    4.42
  -3  -6   0   71.19    4.16
  -3  -6   0   68.92    4.12
   3   6   0   70.71    5.28
  -3  -6   0   61.77    7.74
   3  -6  -1    7.72    2.02
  -3   6  -1    5.93    1.30
  -3  -6   1    7.17    1.14
  -3  -6   1    4.65    1.21
   3   6   1    5.79    1.55
  -3  -6   1    4.94    3.70
   3   6   1    4.10    1.27
   3  -6  -2   12.41    2.36
  -3   6  -2   12.77    1.91
  -3  -6   2   12.26    1.84
  -3  -6   2   17.86    4.54
   3  -6  -3    0.64    1.17
  -3   6  -3    2.40    1.03
  -3  -6   3    1.65    0.95
  -3  -6   3    2.57    2.73
   3  -6  -4   48.60    4.31
  -3   6  -4   48.66    3.69
  -3  -6   4   44.50    3.88
  -3  -6   4   52.44    6.67
   3   6   4   49.38    4.46
   3   6   5    4.53    1.77
   3  -6  -5    4.04    1.54
  -3   6  -5    5.37    1.44
  -3  -6   5    5.42    2.57
  -3  -6   5    4.52    1.53
  -3   6  -5    5.34    1.92
   3   6   6   22.72    3.24
   3  -6  -6   28.85    3.60
  -3  -6   6   27.32    4.41
  -3  -6   6   28.52    3.36
  -3   6  -6   22.10    3.47
   3   6   7    0.81    1.21
   3  -6  -7    1.10    1.41
  -3  -6   7    3.08    1.86
  -3  -6   7   -0.02    1.10
  -3   6  -7    0.16    1.79
   3   6   8    3.81    1.65
   3  -6  -8    3.44    1.56
  -3  -6   8    1.67    1.76
  -3  -6   8    2.31    1.55
  -3   6  -8    3.40    1.89
  -3   6  -8    5.13    2.35
  -3   6  -9    1.67    1.83
   3   6   9    4.63    2.21
  -3  -6   9    2.70    1.63
   3  -6  -9    3.62    1.47
  -3  -6   9    6.56    2.33
   3  -6  -9    1.94    1.62
  -3   6  -9   -0.32    1.63
  -3  -6  10   23.17    3.73
  -3   6 -10   22.77    4.95
   3   6  10   21.23    3.74
   3  -6 -10   21.00    3.32
  -3  -6  10   14.85    3.15
   3  -6 -10   18.81    3.46
  -3   6 -10   25.31    4.12
  -3   6 -11    1.31    2.43
   3   6  11   -0.27    1.66
   3  -6 -11    3.31    1.78
  -3  -6  11    1.86    1.56
   3  -6 -11    4.17    2.26
  -3   6 -11    3.28    1.89
  -3  -6  11   -0.01    1.31
  -3   6 -12    2.34    2.86
   3   6  12    0.43    1.95
   3  -6 -12    4.25    2.08
  -3  -6  12    2.32    1.80
   3  -6 -12    3.61    1.90
  -3   6 -13    4.48    4.21
   3   6  13    1.77    2.32
   3  -6 -13    2.29    1.63
   3  -6 -13    2.51    1.73
  -3  -6  13    2.50    1.94
   3  -6 -13   -1.56    2.09
  -3   6 -14    0.33    2.25
   3   6  14    5.39    2.64
  -3  -6  14   -1.60    1.93
   3  -6 -14    2.98    2.37
  -3   6 -15   -2.07    3.67
   3   6  15    1.09    1.93
  -3  -6  15    0.97    2.10
   3  -6 -15   -1.31    2.54
  -3  -6  16    1.53    2.52
   3  -6 -16    2.93    2.66
   3   7 -16   -1.66    2.31
   3  -7  16    0.23    2.32
   3   7 -15    5.58    3.15
   3  -7  15   -2.37    2.48
  -3   7  15    6.02    2.92
  -3  -7 -15    2.47    2.27
   3   7 -15    2.04    2.46
   3   7 -14   -2.35    2.35
   3  -7  14   -1.81    1.99
  -3   7  14   -4.90    2.84
  -3  -7 -14    4.99    3.01
   3   7 -14   -4.48    2.97
   3  -7  13    1.00    1.93
   3   7 -13    1.10    2.32
  -3   7  13    0.36    1.80
  -3  -7 -13    1.99    1.99
   3   7 -13   -1.59    2.48
   3  -7  12   -1.38    1.98
   3   7 -12    3.54    2.43
  -3   7  12    2.29    2.02
  -3  -7 -12   -1.82    2.68
   3   7 -12    4.96    2.74
   3  -7  11    4.37    2.69
   3   7 -11    1.55    1.82
  -3   7  11    2.79    1.89
  -3  -7 -11    1.81    1.81
  -3   7  11    6.87    2.34
   3   7 -11    0.89    2.39
  -3  -7 -10   -1.60    1.43
   3  -7  10    1.83    2.31
   3   7 -10   -0.95    1.73
  -3   7  10   -1.39    1.97
  -3  -7 -10    3.78    3.04
  -3   7  10   -2.60    2.03
   3   7 -10   -0.26    2.03
   3  -7   9   -1.37    2.03
  -3  -7  -9    0.41    1.55
   3   7  -9   -3.53    2.16
  -3   7   9    1.78    1.56
  -3  -7  -9    0.02    1.94
   3  -7   9    1.95    1.88
   3   7  -9    0.42    1.79
   3  -7   8    4.63    2.35
  -3   7   8    3.04    1.66
  -3  -7  -8    4.02    2.23
   3   7  -8   -0.19    1.65
  -3  -7  -8    1.51    2.42
   3  -7   8    1.91    1.81
   3   7  -8    3.70    2.23
   3  -7   7   15.62    3.12
   3  -7   7   12.51    3.08
  -3   7   7   17.03    2.71
   3   7  -7   14.85    2.97
  -3  -7  -7   19.75    3.52
  -3  -7  -7   16.27    3.83
   3   7  -7   16.43    3.81
   3  -7   6    0.20    1.34
   3  -7   6    3.30    1.99
  -3   7   6    0.74    1.24
   3   7  -6    0.91    1.60
  -3  -7  -6    1.81    1.71
  -3  -7  -6    4.49    2.47
   3   7  -6    5.45    2.76
   3  -7   5    0.74    1.23
   3  -7   5    1.11    1.35
  -3   7   5    0.18    1.09
   3   7  -5    0.72    1.13
  -3  -7  -5    3.43    2.10
  -3  -7  -5    0.18    1.94
   3   7  -5    1.80    2.15
   3  -7   4    5.33    2.17
   3  -7   4    1.71    1.07
  -3   7   4    2.40    1.11
  -3  -7  -4    7.35    2.48
   3   7  -4    3.82    1.55
   3   7  -4    0.73    1.86
  -3  -7  -4    2.33    2.36
  -3  -7  -3   11.24    3.65
   3  -7   3    9.25    2.35
  -3   7   3    9.70    1.94
  -3  -7  -3   13.21    2.61
   3   7  -3    8.40    2.01
   3   7  -3   11.86    2.96
  -3  -7  -2    6.10    3.37
   3  -7   2    2.21    1.60
  -3   7   2    3.54    1.38
  -3  -7  -2    4.48    1.77
   3   7  -2    3.36    1.37
   3   7  -2    5.38    1.95
   3  -7   1    4.98    1.96
  -3   7   1    5.73    1.50
  -3  -7  -1    5.24    1.42
   3   7  -1    6.55    1.80
  -3  -7  -1    4.62    1.31
   3   7  -1    4.60    1.55
   3  -7   0    2.44    1.58
  -3  -7   0    3.47    3.25
  -3   7   0    0.06    0.91
  -3  -7   0    0.83    0.82
  -3  -7   0   -0.07    0.85
   3   7   0    1.67    1.20
   3   7   0   -0.62    1.07
  -3  -7   1    5.42    2.64
   3  -7  -1    7.49    2.12
  -3   7  -1    7.06    1.47
  -3  -7   1    6.04    1.49
   3   7   1    7.56    1.63
  -3  -7   2    7.08    3.02
   3  -7  -2    4.99    1.86
  -3   7  -2    3.12    1.19
  -3  -7   2    3.16    1.30
   3   7   2    5.13    1.76
  -3  -7   3    7.36    3.86
   3  -7  -3    7.28    1.88
  -3   7  -3   10.38    1.87
  -3  -7   3    9.63    1.92
   3   7   4    3.57    1.66
   3  -7  -4    3.98    1.69
  -3   7  -4    3.43    1.31
  -3  -7   4    4.32    1.55
  -3  -7   4    3.35    3.15
   3   7   5    1.10    1.42
   3  -7  -5   -0.12    1.08
  -3   7  -5   -1.13    1.19
  -3  -7   5    1.45    1.29
  -3  -7   5   -3.57    2.74
  -3   7  -5    0.59    1.22
   3   7   6    1.56    1.63
   3  -7  -6    0.66    1.22
  -3   7  -6    1.64    1.18
  -3  -7   6    1.78    1.11
  -3  -7   6    5.91    2.85
  -3   7  -6    1.06    1.19
   3   7   7   12.54    2.67
   3  -7  -7   14.97    2.76
  -3  -7   7   16.62    3.96
  -3  -7   7   19.79    2.98
  -3   7  -7   17.23    3.49
   3   7   8    3.02    1.76
   3  -7  -8    2.79    1.47
  -3  -7   8    4.05    2.51
  -3  -7   8    0.15    1.05
  -3   7  -8    4.18    2.54
  -3   7  -9    1.02    1.96
   3   7   9    1.45    1.58
   3  -7  -9   -1.08    1.65
  -3  -7   9    0.52    1.76
  -3  -7   9    0.60    1.35
   3  -7  -9   -1.45    1.68
  -3   7 -10    0.96    1.93
   3   7  10    0.67    1.46
  -3  -7  10    2.35    1.86
   3  -7 -10   -0.95    1.50
  -3  -7  10   -0.58    1.51
   3  -7 -10   -0.57    1.55
  -3   7 -10   -1.75    1.59
  -3   7 -11    1.18    1.80
   3   7  11    6.27    2.60
   3  -7 -11    1.26    1.63
  -3  -7  11    3.25    2.02
   3  -7 -11    4.15    1.91
  -3   7 -11    3.41    1.89
  -3   7 -12    2.92    2.79
   3   7  12   -1.85    1.79
   3  -7 -12    0.67    1.48
  -3  -7  12    1.61    1.73
   3  -7 -12    1.34    1.90
  -3   7 -13   -1.60    3.59
   3   7  13    1.15    2.00
   3  -7 -13   -0.76    1.78
  -3  -7  13    2.95    2.00
   3  -7 -13   -0.21    1.84
  -3   7 -14    1.73    2.14
   3   7  14    1.04    2.03
  -3  -7  14   -2.13    2.35
   3  -7 -14   -0.46    1.78
  -3   7 -15    1.37    3.67
   3   7  15    2.25    2.69
  -3  -7  15    0.46    2.05
   3  -7 -15   -0.31    1.97
   3  -8  16   -1.90    2.02
   3   8 -15    5.36    3.25
   3  -8  15    2.27    2.01
  -3   8  15    4.63    2.64
  -3  -8 -15    2.95    2.44
   3   8 -15   -1.17    1.95
   3   8 -14   -2.39    2.31
   3  -8  14   -0.47    1.89
  -3   8  14   -0.11    2.04
  -3  -8 -14    0.35    2.05
   3   8 -14    1.97    2.31
   3  -8  13    2.03    1.73
   3  -8  13    4.26    2.47
   3   8 -13    0.04    2.97
  -3   8  13    4.92    2.64
  -3  -8 -13    3.78    2.15
   3   8 -13    0.92    2.45
   3  -8  12    2.40    2.13
   3   8 -12   -0.20    2.07
  -3   8  12    1.68    1.96
  -3  -8 -12    3.21    2.26
   3  -8  12   -2.30    2.17
   3   8 -12    4.98    2.94
   3  -8  11    3.19    2.25
   3   8 -11    3.74    2.37
  -3   8  11    0.84    1.63
   3  -8  11    1.16    1.62
  -3  -8 -11   -4.20    2.65
   3   8 -11   -1.41    2.51
   3  -8  10    5.08    2.27
   3  -8  10    4.36    2.33
  -3  -8 -10    8.37    2.77
   3   8 -10    1.99    2.30
  -3   8  10    4.90    2.14
  -3  -8 -10    2.76    2.30
   3   8 -10    5.40    2.77
   3  -8   9    7.14    2.62
   3  -8   9    7.91    2.84
   3   8  -9   10.07    3.00
  -3   8   9    5.77    1.95
  -3  -8  -9   12.72    3.00
  -3  -8  -9   13.22    3.86
   3   8  -9   14.57    4.06
   3  -8   8    7.21    2.38
   3  -8   8    7.65    2.36
  -3   8   8    7.70    2.07
   3   8  -8   10.85    3.06
  -3  -8  -8    9.48    3.72
  -3  -8  -8    9.51    2.97
   3   8  -8   13.61    3.65
   3  -8   7    2.70    1.89
   3  -8   7    2.15    1.75
  -3   8   7    4.33    1.61
   3   8  -7    1.65    1.65
  -3  -8  -7    6.39    3.17
  -3  -8  -7    4.62    2.68
   3   8  -7    6.06    2.88
   3  -8   6    9.27    2.28
   3  -8   6   10.77    2.26
  -3   8   6   12.16    2.50
   3   8  -6   11.00    2.49
  -3  -8  -6    7.71    2.63
   3   8  -6   10.88    3.04
  -3  -8  -6   10.34    3.24
   3  -8   5    0.54    1.46
  -3   8   5    6.13    1.91
  -3  -8  -5    5.85    3.09
   3   8  -5    3.53    1.82
  -3  -8  -5    4.11    2.42
   3   8  -5    6.58    2.78
   3  -8   4   14.16    2.79
  -3  -8  -4   21.08    4.90
  -3   8   4   11.51    2.11
  -3  -8  -4   12.98    3.03
   3   8  -4    9.78    2.36
   3   8  -4   15.28    3.26
   3  -8   3   12.51    2.92
  -3  -8  -3   20.52    5.00
  -3   8   3   16.41    2.46
  -3  -8  -3   19.15    3.50
   3   8  -3   12.45    2.41
   3   8  -3   14.72    3.01
   3  -8   2   17.50    3.14
  -3  -8  -2   15.88    4.78
  -3   8   2   13.43    2.32
  -3  -8  -2   15.07    2.69
   3   8  -2   14.81    2.69
   3   8  -2   15.75    2.84
   3  -8   1    5.60    1.90
  -3   8   1    5.44    1.49
  -3  -8  -1    5.93    4.88
  -3  -8  -1    2.00    1.04
   3   8  -1    4.74    1.70
  -3  -8  -1    3.97    1.48
   3   8  -1    4.01    1.41
   3  -8   0   20.37    3.20
  -3   8   0   15.37    2.35
  -3  -8   0   25.04    5.87
  -3  -8   0   17.37    2.45
   3   8   0   19.80    2.87
   3  -8  -1    5.45    2.01
  -3   8  -1    2.59    1.13
  -3  -8   1    5.64    4.01
  -3  -8   1    3.88    1.43
   3   8   1    3.94    1.60
   3  -8  -2   13.91    2.75
  -3   8  -2   13.22    2.25
  -3  -8   2   12.13    4.80
  -3  -8   2   14.55    2.29
   3   8   2   17.14    2.74
   3  -8  -3   14.20    2.73
  -3  -8   3   18.78    5.09
  -3   8  -3   13.80    2.16
  -3  -8   3   16.28    2.45
   3   8   3   17.63    2.76
   3   8   4   13.20    2.56
   3  -8  -4    9.82    2.32
  -3  -8   4   13.56    4.15
  -3   8  -4   10.36    1.98
  -3  -8   4   11.05    2.12
   3   8   5    5.26    1.87
  -3  -8   5    6.44    3.11
   3  -8  -5    5.40    1.91
  -3   8  -5    4.21    1.46
  -3  -8   5    2.56    1.19
  -3   8  -5    2.30    1.28
   3   8   6   12.10    2.70
  -3  -8   6   20.37    4.63
   3  -8  -6   11.83    2.65
  -3   8  -6   10.72    2.28
  -3  -8   6   10.86    2.41
  -3   8  -6    9.85    2.29
   3   8   7    5.06    2.01
   3  -8  -7    4.20    1.91
  -3  -8   7    4.60    1.85
  -3  -8   7    1.25    2.19
  -3   8  -7    5.37    2.21
   3   8   8    5.56    1.93
   3  -8  -8   10.02    2.65
  -3  -8   8    7.21    2.18
  -3   8  -8    7.62    2.46
  -3   8  -9   13.33    3.47
   3   8   9   11.67    2.80
   3  -8  -9   11.24    2.72
  -3  -8   9    9.13    2.83
  -3  -8   9   10.26    2.52
   3  -8  -9    9.68    2.45
  -3   8 -10    1.58    2.05
   3   8  10    3.61    2.05
   3  -8 -10    4.03    1.85
  -3  -8  10    0.40    1.83
  -3  -8  10    1.78    1.51
   3  -8 -10    2.56    1.78
  -3   8 -11   -0.27    2.22
   3   8  11    0.35    1.62
   3  -8 -11    1.35    1.87
  -3  -8  11    2.34    2.14
   3  -8 -11    1.53    2.09
  -3   8 -11    3.42    2.37
  -3   8 -12    3.47    3.33
   3   8  12    4.43    2.35
   3  -8 -12    1.65    1.67
  -3  -8  12    3.57    2.17
   3  -8 -12    3.25    2.11
  -3   8 -13    4.74    3.78
   3   8  13    3.87    2.12
   3  -8 -13    4.89    2.39
  -3  -8  13    7.57    3.03
   3  -8 -13    3.15    1.98
  -3   8 -14    3.15    2.99
   3   8  14   -6.01    3.07
   3  -8 -14    1.77    1.62
  -3  -8  14    2.35    2.34
   3  -8 -14    0.97    2.13
  -3  -8  15    1.79    1.99
   3  -8 -15    0.09    2.04
   3  -9  15   -0.12    1.93
   3  -9  14    0.34    1.63
   3   9 -14    2.37    2.47
   3  -9  14    4.73    2.44
  -3   9  14    3.38    2.59
  -3  -9 -14    0.07    1.85
   3   9 -14    2.91    2.41
   3  -9  13    5.76    2.86
   3   9 -13   -1.39    2.11
  -3   9  13    1.01    1.73
  -3  -9 -13    0.47    1.80
   3  -9  13    1.06    2.17
   3   9 -13   -1.45    2.19
   3  -9  12    8.27    3.07
   3  -9  12    6.04    2.65
   3   9 -12    7.08    3.35
  -3   9  12    4.30    2.25
  -3  -9 -12   11.35    3.62
   3   9 -12    6.55    3.13
   3  -9  11   -1.24    1.85
   3  -9  11    2.18    2.14
   3   9 -11    0.56    2.37
  -3   9  11    4.77    2.43
  -3  -9 -11    4.08    3.06
   3   9 -11   -0.75    2.52
   3  -9  10    5.54    2.38
   3  -9  10    2.95    1.87
   3   9 -10    4.89    2.37
  -3   9  10    5.50    2.16
  -3  -9 -10    0.21    1.44
  -3  -9 -10    6.48    3.39
   3   9 -10    9.43    3.71
   3   9  -9   -3.32    2.50
  -3   9   9    2.03    1.60
  -3  -9  -9    0.24    2.29
  -3  -9  -9    0.06    1.91
   3   9  -9   -0.73    2.33
   3  -9   9    0.66    1.56
   3  -9   8   18.47    3.45
  -3   9   8   28.76    3.90
   3   9  -8   26.81    4.22
  -3  -9  -8   25.53    5.45
   3   9  -8   21.84    4.80
  -3  -9  -8   27.94    4.73
  -3  -9  -7    4.89    2.58
   3  -9   7    8.07    2.47
  -3   9   7    4.15    1.71
   3   9  -7    4.58    2.08
  -3  -9  -7    1.61    2.22
   3   9  -7   -0.12    2.21
   3  -9   6   11.56    2.83
  -3  -9  -6   16.69    4.29
  -3   9   6    9.50    2.38
   3   9  -6    9.06    2.42
  -3  -9  -6   11.97    3.71
   3   9  -6    9.54    2.98
   3  -9   5   -1.56    1.85
  -3  -9  -5    0.66    2.00
  -3   9   5   -0.10    1.30
   3   9  -5   -1.38    1.71
  -3  -9  -5   -2.61    2.47
   3   9  -5   -0.16    1.72
   3  -9   4   28.30    4.06
  -3   9   4   27.84    3.38
  -3  -9  -4   25.58    5.25
  -3  -9  -4   24.03    4.43
   3   9  -4   31.13    3.95
   3   9  -4   30.41    4.36
   3  -9   3    5.03    2.25
  -3   9   3    1.69    1.37
  -3  -9  -3    2.52    1.46
  -3  -9  -3   -1.44    3.71
   3   9  -3    3.24    1.83
   3   9  -3    2.51    1.46
   3  -9   2   31.74    4.24
   3   9  -2   41.15    4.33
  -3   9   2   39.15    3.89
  -3  -9  -2   48.71    5.23
  -3  -9  -2   48.68    8.04
   3  -9   1    2.35    1.48
  -3   9   1    2.85    1.21
   3   9  -1    1.97    1.22
  -3  -9  -1    3.27    1.44
  -3  -9  -1    1.45    3.54
   3  -9   0   15.35    2.94
  -3   9   0   11.49    2.16
   3   9   0   10.94    2.40
  -3  -9   0   12.24    2.20
  -3  -9   0   10.26    4.70
   3  -9  -1    6.43    2.24
  -3   9  -1    2.32    1.10
  -3  -9   1    3.45    1.39
   3   9   1    3.34    1.65
  -3  -9   1    0.13    3.21
   3  -9  -2   38.45    4.37
   3   9   2   40.20    4.11
  -3   9  -2   37.02    3.69
  -3  -9   2   41.17    3.89
  -3  -9   2   33.04    6.22
   3  -9  -3    1.35    1.22
  -3   9  -3    1.91    1.23
  -3  -9   3    7.04    4.26
  -3  -9   3    4.94    1.72
   3   9   3    3.31    1.61
   3  -9  -4   30.86    4.02
  -3   9  -4   26.49    3.14
  -3  -9   4   34.76    6.78
  -3  -9   4   26.17    3.27
   3   9   4   27.42    3.53
   3   9   4   37.03    4.21
   3   9   5   -3.61    2.01
   3  -9  -5   -0.40    1.40
  -3   9  -5    0.11    1.09
  -3  -9   5    0.10    3.32
  -3  -9   5    1.52    1.36
  -3   9  -5    0.98    1.41
   3   9   6   14.89    2.95
   3  -9  -6   11.48    2.78
  -3  -9   6    8.57    3.70
  -3   9  -6    8.88    2.05
  -3  -9   6   11.55    2.42
  -3   9  -6   10.30    2.49
   3   9   7    5.87    1.99
   3  -9  -7    6.28    2.15
  -3   9  -7    3.97    1.40
  -3  -9   7    5.23    1.77
  -3  -9   7    1.83    2.21
  -3   9  -7    7.17    2.50
   3   9   8   24.62    3.84
   3  -9  -8   27.02    4.10
  -3  -9   8   22.14    3.59
  -3  -9   8   25.49    5.17
  -3   9  -8   22.86    4.01
  -3   9  -9    2.83    2.45
   3   9   9   -1.78    1.59
   3  -9  -9    3.99    2.21
  -3  -9   9   -1.12    1.73
  -3  -9   9    5.14    2.83
  -3   9 -10    2.49    2.22
   3   9  10    8.16    2.64
   3  -9 -10    3.75    2.38
  -3  -9  10    4.79    2.55
  -3  -9  10    3.78    2.13
   3  -9 -10    6.28    2.33
  -3   9 -11   -0.96    2.90
   3   9  11    0.22    1.59
   3  -9 -11    3.94    2.30
  -3  -9  11    5.02    2.09
   3  -9 -11    2.92    1.81
  -3   9 -12    4.00    3.67
   3   9  12    3.58    2.30
   3  -9 -12    7.19    2.64
  -3  -9  12    0.67    1.78
   3  -9 -12    4.71    2.17
  -3   9 -13    0.92    2.30
   3   9  13    1.15    1.65
   3  -9 -13   -1.03    1.65
  -3  -9  13    1.45    2.29
   3  -9 -13   -1.81    1.79
  -3   9 -14    1.11    3.84
   3   9  14   -0.53    2.32
   3  -9 -14   -0.01    2.14
   3  -9 -14    0.64    1.62
  -3  -9  14   -2.69    2.42
   3  -9 -14    2.61    2.32
   3 -10  14   -3.70    2.75
   3  10 -14    0.84    2.55
   3  10 -13    3.34    2.93
  -3  10  13   -0.66    1.60
  -3 -10 -13    2.89    2.32
   3 -10  13    4.48    2.31
   3  10 -13    4.81    2.88
   3 -10  12   -0.72    1.73
   3  10 -12    0.13    1.95
  -3  10  12   -0.33    1.89
  -3 -10 -12    2.21    2.97
   3  10 -12    7.91    3.53
   3 -10  11    1.14    1.82
   3  10 -11    0.57    2.06
  -3  10  11    0.34    1.18
  -3 -10 -11   -1.07    2.51
   3  10 -11    0.94    2.14
   3 -10  10   -1.55    2.08
   3  10 -10    1.12    1.81
  -3  10  10    1.61    1.63
  -3 -10 -10   -2.75    2.37
   3  10 -10    1.27    2.98
   3 -10   9    2.44    1.91
   3  10  -9    1.07    1.93
  -3  10   9    2.45    1.99
  -3 -10  -9    3.43    2.43
   3  10  -9    0.94    2.05
  -3 -10  -9    3.08    2.38
  -3 -10  -8    5.74    2.48
   3 -10   8    4.10    2.11
  -3  10   8    3.84    1.66
   3  10  -8    2.04    1.79
  -3 -10  -8    2.23    2.56
   3  10  -8    5.00    2.87
   3 -10   7    2.70    1.83
  -3 -10  -7    6.43    3.33
  -3  10   7    3.88    1.94
   3  10  -7    8.73    2.71
  -3 -10  -7    2.25    2.63
   3  10  -7    1.95    1.99
   3 -10   6    7.18    2.41
  -3  10   6    3.14    1.49
  -3 -10  -6    1.40    2.08
   3  10  -6    2.64    1.74
  -3 -10  -6    0.26    1.70
   3  10  -6    3.87    2.18
   3 -10   5    3.38    1.91
  -3  10   5    4.12    1.78
   3  10  -5    5.88    1.90
  -3 -10  -5    7.23    2.91
  -3 -10  -5    4.31    2.47
   3  10  -5    4.78    2.14
   3 -10   4    3.65    2.00
  -3  10   4    1.35    1.45
  -3 -10  -4    3.56    2.98
   3  10  -4    0.56    1.46
  -3 -10  -4    3.12    2.83
   3  10  -4    4.22    1.90
   3 -10   3    7.10    2.57
  -3  10   3   10.59    2.38
  -3 -10  -3   10.21    3.25
   3  10  -3    4.08    1.87
  -3 -10  -3   14.49    4.95
   3 -10   2    6.54    2.22
  -3  10   2    7.76    2.04
   3  10  -2    8.68    2.38
  -3 -10  -1    5.09    3.86
   3 -10   1    4.93    2.08
  -3  10   1    8.20    2.06
   3  10  -1    6.30    1.95
  -3 -10   0   -2.51    3.76
   3 -10   0    1.08    1.52
  -3  10   0    0.72    1.09
   3  10   0    1.58    1.44
  -3 -10   0   -0.88    1.08
  -3 -10   1    4.27    3.17
   3 -10  -1    5.70    2.26
  -3  10  -1    3.46    1.59
  -3 -10   1    5.10    1.71
   3  10   1    4.28    1.78
   3 -10  -2    9.28    2.63
  -3  10  -2    7.89    2.06
  -3 -10   2    7.02    1.94
   3  10   2    8.55    2.13
  -3 -10   2   14.76    5.15
   3 -10  -3    4.33    1.78
  -3  10  -3    5.57    1.59
  -3 -10   3    6.05    1.97
   3  10   3    3.69    1.53
  -3 -10   3    2.85    2.83
   3  10   4    1.61    1.46
   3 -10  -4   -0.76    2.01
  -3  10  -4    3.16    1.51
  -3 -10   4    3.09    1.71
   3  10   4    3.40    1.59
  -3 -10   4    3.19    4.18
   3  10   5    4.36    1.78
   3 -10  -5    3.98    1.99
  -3  10  -5    2.73    1.57
  -3 -10   5    3.09    1.43
  -3 -10   5    7.85    4.02
   3  10   5    3.24    1.52
  -3  10  -5    5.30    1.76
   3  10   6    3.82    1.84
   3 -10  -6    6.13    2.33
  -3  10  -6    3.22    1.61
  -3 -10   6    8.47    3.73
  -3 -10   6    3.01    1.85
  -3  10  -6    4.35    1.89
   3  10   7    2.50    1.48
   3 -10  -7    1.71    1.65
  -3  10  -7    2.40    1.55
  -3 -10   7    5.91    3.09
  -3 -10   7    3.94    1.66
  -3  10  -7    0.95    1.50
   3  10   8    5.03    2.18
  -3 -10   8    3.44    2.65
   3 -10  -8    3.24    1.82
  -3 -10   8    5.34    2.23
  -3  10  -8    5.24    2.51
  -3  10  -9    5.03    2.68
  -3 -10   9   -1.50    2.67
   3  10   9    0.35    1.56
   3 -10  -9    2.24    1.71
  -3 -10   9    2.91    1.81
  -3  10 -10    2.79    2.67
   3  10  10    0.75    1.67
   3 -10 -10    3.33    2.06
  -3 -10  10    3.81    2.20
   3 -10 -10   -1.96    1.99
  -3 -10  10    3.40    2.55
  -3  10 -11    2.75    2.38
   3  10  11    0.38    1.72
   3 -10 -11   -0.70    1.99
  -3 -10  11    1.58    1.49
   3 -10 -11    3.14    1.87
  -3  10 -12    1.25    2.49
   3  10  12   -2.13    1.94
   3 -10 -12    1.12    1.41
  -3 -10  12    0.27    1.77
   3 -10 -12    5.00    2.37
  -3  10 -13   -2.39    3.44
   3  10  13    0.60    1.71
   3 -10 -13   -0.32    1.99
  -3 -10  13    1.81    1.98
   3 -10 -13    0.96    1.90
   3 -10 -14   -1.24    1.76
   3 -10 -14    1.64    1.48
   3 -10 -15    2.90    1.99
   3 -11  13    2.12    2.26
  -3 -11 -13    0.40    2.42
   3  11 -13   -1.01    3.07
   3 -11  12    0.76    2.06
   3  11 -12    2.41    2.49
  -3  11  12    2.92    1.79
  -3 -11 -12    0.76    2.26
   3  11 -12   -1.07    2.18
   3 -11  11   -1.20    2.13
   3  11 -11   -0.62    2.19
  -3  11  11   -2.44    2.42
  -3 -11 -11    3.04    2.77
   3  11 -11    0.40    2.23
   3 -11  10   -0.92    1.92
   3  11 -10   -1.83    2.40
  -3  11  10   -3.78    2.59
  -3 -11 -10   -1.79    2.25
  -3 -11 -10    0.26    1.92
   3  11 -10    2.23    2.51
  -3 -11  -9   -5.52    3.03
   3 -11   9   -0.18    1.41
   3  11  -9    0.46    1.82
  -3  11   9   -2.39    1.91
  -3 -11  -9   -2.19    2.66
   3  11  -9    0.16    2.12
   3 -11   8    1.18    1.64
  -3 -11  -8    4.24    2.36
  -3  11   8    3.18    1.72
   3  11  -8   -3.62    2.57
  -3 -11  -8    0.81    2.02
   3  11  -8    4.37    2.46
   3 -11   7    0.51    1.55
  -3  11   7    3.13    1.83
   3  11  -7    3.48    1.72
  -3 -11  -7    3.42    2.82
  -3 -11  -7    0.07    2.41
   3  11  -7    2.46    2.47
   3 -11   6    1.87    1.86
  -3  11   6    5.44    1.94
   3  11  -6    4.93    2.04
  -3 -11  -6    5.99    3.85
  -3 -11  -6    8.31    4.02
   3  11  -6    4.74    2.38
   3 -11   5    2.37    1.72
  -3  11   5    1.32    1.41
   3  11  -5    5.11    2.07
  -3 -11  -5    1.58    2.37
  -3 -11  -5    2.21    3.09
   3  11  -5    2.43    1.65
  -3  11   4    3.77    1.64
  -3 -11  -4    1.86    1.89
   3  11  -4    4.31    1.92
   3 -11   4   -0.37    2.01
  -3 -11  -4   -2.64    3.80
   3 -11   3    2.62    2.17
  -3 -11  -3   -2.06    4.35
  -3  11   3    2.49    1.23
   3  11  -3    3.16    1.65
   3 -11   2    8.50    2.58
  -3 -11  -2   11.76    5.04
  -3  11   2   11.81    2.41
   3  11  -2   10.21    2.57
   3 -11   1    4.69    1.93
  -3  11   1    4.36    1.77
   3  11  -1    3.55    1.68
   3 -11   0   -1.76    1.91
  -3  11   0    0.36    1.26
   3  11   0    1.91    1.78
  -3 -11   0    3.62    1.74
   3 -11  -1    4.05    1.84
  -3  11  -1    6.25    1.95
  -3 -11   1    7.49    5.02
   3  11   1    5.84    1.94
  -3 -11   1    4.97    1.81
   3 -11  -2    8.00    2.53
  -3  11  -2    6.37    1.81
  -3 -11   2    8.47    4.75
  -3 -11   2    7.64    1.98
   3  11   2    9.09    2.23
   3 -11  -3   -0.66    1.58
  -3  11  -3    1.29    1.18
  -3 -11   3    0.44    0.96
   3  11   3    2.37    1.78
  -3 -11   4    3.27    2.87
   3 -11  -4    3.95    2.04
  -3  11  -4    3.21    1.54
  -3 -11   4    3.10    1.81
   3  11   4    2.41    1.38
   3  11   5    2.86    1.73
   3 -11  -5    4.10    2.22
  -3  11  -5    2.45    1.31
  -3 -11   5    2.86    1.54
   3  11   5    3.71    1.64
  -3  11  -5    3.01    1.43
  -3 -11   5    3.51    3.35
   3  11   6    5.75    2.25
   3 -11  -6    5.47    2.31
  -3  11  -6    4.58    1.71
  -3 -11   6    2.57    1.80
  -3 -11   6    4.13    2.81
   3  11   6    5.38    1.91
  -3  11  -6    5.42    2.09
   3  11   7    3.76    1.94
   3 -11  -7    1.37    1.58
  -3  11  -7    2.18    1.48
  -3 -11   7    3.83    3.80
  -3 -11   7    4.00    1.86
  -3  11  -7    2.70    1.51
   3  11   8    2.29    1.53
   3 -11  -8    3.36    2.28
  -3  11  -8    1.56    1.79
  -3 -11   8    5.30    3.03
  -3 -11   8    4.50    2.19
  -3  11  -8    3.74    1.97
   3  11   9    1.75    1.96
  -3 -11   9   -2.89    2.72
   3 -11  -9   -1.12    2.25
  -3 -11   9   -2.17    1.83
  -3  11  -9    0.38    1.89
  -3  11 -10   -0.19    1.55
   3  11  10    1.05    1.85
   3 -11 -10   -1.21    1.73
  -3 -11  10    1.35    1.93
   3 -11 -10   -0.08    1.50
  -3 -11  10   -2.44    2.64
  -3  11 -11    3.73    2.68
   3  11  11   -2.15    2.37
   3 -11 -11    4.53    2.49
  -3 -11  11    1.44    1.50
   3 -11 -11    2.74    1.98
  -3  11 -12    0.26    1.74
   3  11  12    1.60    1.93
   3 -11 -12   -0.66    1.84
  -3 -11  12   -3.90    2.38
   3 -11 -12    0.70    1.70
  -3  11 -13   -1.96    2.54
   3  11  13   -1.14    2.11
   3 -11 -13   -0.34    2.07
   3 -11 -13    3.33    1.99
   3 -11 -14   -1.73    1.98
   3 -12  12    1.56    1.80
  -3 -12 -12    4.23    3.12
   3  12 -12   -3.64    2.86
   3 -12  11   -1.73    1.96
   3  12 -11    1.10    2.07
  -3  12  11    3.99    2.43
  -3 -12 -11    1.59    2.52
   3  12 -11   -1.89    2.71
  -3 -12 -10    3.95    2.59
   3 -12  10    3.79    2.22
   3  12 -10    3.54    2.63
  -3  12  10    1.47    1.90
  -3 -12 -10   -0.43    2.55
   3  12 -10    1.50    2.16
   3 -12   9    5.76    2.60
  -3 -12  -9    6.70    3.23
   3  12  -9    2.18    2.35
  -3  12   9    3.83    1.98
  -3 -12  -9    5.79    3.24
   3  12  -9    7.42    3.22
   3 -12   8    3.64    2.11
  -3  12   8    2.10    1.60
   3  12  -8    2.24    1.90
  -3 -12  -8   -0.42    2.10
  -3 -12  -8   -4.74    2.99
   3  12  -8   -1.99    2.38
   3 -12   7   -1.04    1.61
  -3  12   7   -2.10    1.79
   3  12  -7    1.54    2.03
  -3 -12  -7    1.53    2.78
  -3 -12  -7   -2.97    3.85
   3  12  -7    0.31    1.81
   3 -12   6   12.45    3.02
  -3  12   6   10.92    2.72
   3  12  -6   10.15    2.70
  -3 -12  -6   16.45    4.64
  -3 -12  -6   10.93    3.78
  -3 -12  -5    9.54    3.99
   3 -12   5    6.94    2.51
  -3  12   5    3.27    1.64
   3  12  -5    6.17    2.38
  -3 -12  -5    5.66    3.57
   3 -12   4    4.85    2.41
  -3 -12  -4   -0.27    3.15
  -3  12   4    1.01    1.63
   3  12  -4    4.48    1.97
   3 -12   3    5.87    2.25
  -3  12   3    4.76    2.00
   3  12  -3    6.99    2.47
  -3 -12  -3    5.57    4.51
   3 -12   2    0.22    1.47
  -3  12   2    1.86    1.66
   3  12  -2    1.11    1.40
   3 -12   1    6.91    2.34
  -3  12   1    9.86    2.45
   3  12  -1    8.70    2.20
   3 -12   0   10.58    3.08
  -3  12   0    8.28    2.04
   3  12   0    8.54    2.32
  -3 -12   0    8.46    2.03
  -3 -12   0   10.45    5.63
   3 -12  -1   10.09    2.71
  -3  12  -1    9.39    2.26
   3  12   1    9.16    2.49
  -3 -12   1   10.16    2.39
  -3 -12   1    9.98    5.02
   3 -12  -2    2.86    1.79
  -3  12  -2    2.51    1.70
  -3 -12   2    2.83    1.69
   3  12   2    5.54    2.18
  -3 -12   2    3.58    4.41
  -3  12  -3    2.01    1.45
  -3 -12   3   -0.97    3.09
  -3 -12   3    3.03    1.34
   3  12   3    1.43    1.79
   3  12   4    2.68    1.47
   3 -12  -4    4.03    2.00
  -3  12  -4    2.21    1.46
  -3 -12   4    2.78    5.01
  -3 -12   4    2.36    1.47
   3  12   4    3.44    1.96
   3  12   5    5.80    2.24
   3 -12  -5    5.30    2.38
  -3 -12   5    5.75    4.92
  -3  12  -5    6.95    1.99
  -3 -12   5    6.92    2.10
   3  12   5    7.50    2.16
   3  12   6   14.65    3.26
   3 -12  -6   11.45    3.06
  -3  12  -6   18.39    3.30
  -3 -12   6    8.17    2.40
   3  12   6   14.19    3.07
  -3  12  -6   12.12    2.76
  -3 -12   6   13.16    5.21
   3  12   7   -0.20    1.37
   3 -12  -7    1.39    1.62
  -3  12  -7    1.25    1.39
  -3 -12   7   -0.85    1.78
  -3 -12   7    1.10    2.81
   3  12   7   -0.68    1.40
  -3  12  -7   -1.58    1.46
   3  12   8   -0.74    1.63
   3 -12  -8   -0.38    1.99
  -3  12  -8    0.98    1.79
  -3 -12   8   -0.22    2.46
  -3 -12   8    1.61    1.73
  -3  12  -8    0.21    1.34
   3  12   9    4.21    2.23
   3 -12  -9   -0.37    1.76
  -3  12  -9    3.25    2.00
  -3 -12   9    2.93    2.37
  -3 -12   9    5.01    2.49
  -3  12  -9    4.90    2.70
   3  12  10    1.47    1.61
  -3 -12  10    6.95    3.27
   3 -12 -10   -1.61    2.51
  -3 -12  10    3.12    1.93
  -3  12 -10    2.85    2.13
  -3  12 -11   -4.11    2.93
   3  12  11   -2.78    2.60
   3 -12 -11   -3.78    2.87
  -3 -12  11   -0.70    1.66
   3 -12 -11    0.05    1.57
  -3  12 -12   -1.19    2.82
   3  12  12    5.48    2.59
   3 -12 -12    0.30    1.91
   3 -12 -12    1.66    1.86
   3  13 -12   -5.65    3.22
   3 -13  11    2.12    1.78
  -3 -13 -11   -0.42    2.71
   3  13 -11   -4.13    2.76
  -3 -13 -10   -4.83    3.28
   3 -13  10    2.12    2.20
   3  13 -10    1.12    1.98
  -3  13  10   -2.26    2.02
  -3 -13 -10   -2.91    3.07
   3  13 -10   -2.18    2.28
  -3 -13  -9    0.94    2.73
   3  13  -9   -5.75    2.96
  -3  13   9    0.29    1.67
  -3 -13  -9    1.06    2.12
   3  13  -9   -1.91    2.49
   3 -13   9    0.43    1.52
   3 -13   8   -1.62    1.94
  -3  13   8    3.53    1.99
   3  13  -8    1.61    1.99
  -3 -13  -8   -0.03    1.76
  -3 -13  -8    2.22    2.46
   3 -13   7    4.12    2.51
  -3  13   7    0.77    1.22
   3  13  -7   -4.56    2.94
  -3 -13  -7    2.08    2.71
  -3 -13  -7   -1.34    3.47
  -3 -13  -6    1.77    2.73
   3 -13   6    1.87    2.12
  -3  13   6   -0.04    1.67
   3  13  -6    0.17    1.83
  -3 -13  -6    5.25    3.32
   3 -13   5   10.12    3.04
  -3 -13  -5   13.71    4.75
  -3  13   5    6.18    2.07
   3  13  -5   13.79    3.22
   3 -13   4    4.07    2.35
  -3  13   4    2.59    1.73
   3  13  -4    1.15    1.69
  -3 -13  -4    7.31    4.07
   3 -13   3   -0.09    1.30
  -3  13   3    1.42    1.36
   3  13  -3    1.76    1.65
  -3 -13  -3   -3.57    4.85
  -3 -13  -2    0.75    3.40
   3 -13   2    2.03    2.10
  -3  13   2    1.24    1.46
   3  13  -2    0.61    1.24
   3 -13   1    7.66    2.55
  -3 -13  -1   12.50    6.10
  -3  13   1    9.35    2.33
   3  13  -1   11.77    2.85
   3 -13   0    2.38    1.92
  -3 -13   0   -4.50    6.55
  -3  13   0    4.09    2.11
   3  13   0   -1.47    1.73
   3 -13  -1    6.72    2.00
  -3  13  -1    6.48    2.22
   3  13   1    9.82    2.63
  -3 -13   1   11.46    2.56
  -3 -13   2    0.90    4.15
   3 -13  -2    1.95    1.76
  -3  13  -2    2.02    1.55
   3  13   2    3.33    1.57
  -3 -13   2    1.15    1.54
   3 -13  -3    1.25    2.18
  -3  13  -3    0.50    1.33
  -3 -13   3    1.40    1.35
   3  13   3    0.35    1.15
   3  13   4    0.81    1.74
   3 -13  -4    1.01    1.99
  -3  13  -4    2.01    1.62
  -3 -13   4    1.69    1.39
  -3 -13   4    0.05    4.26
   3  13   4    0.00    1.59
   3  13   5   13.82    3.01
   3 -13  -5   10.55    3.11
  -3  13  -5    7.31    2.32
  -3 -13   5    6.95    5.02
  -3 -13   5    9.47    2.66
   3  13   5    8.15    2.17
   3  13   6    0.96    1.78
   3 -13  -6    3.05    1.99
  -3  13  -6   -0.01    1.23
  -3 -13   6    1.44    1.61
   3  13   6    0.46    1.65
  -3  13  -6    2.78    1.77
   3  13   7    1.63    1.69
   3 -13  -7   -0.05    1.73
  -3  13  -7    1.74    1.89
  -3 -13   7    1.98    2.03
   3  13   7    2.83    2.06
  -3 -13   7   -4.54    3.63
  -3  13  -7   -0.43    1.68
   3  13   8    1.99    1.80
   3 -13  -8   -2.47    2.47
  -3  13  -8   -0.20    1.58
  -3 -13   8    0.23    1.57
  -3 -13   8   -0.87    2.40
   3  13   8   -0.54    1.57
  -3  13  -8    1.21    1.67
   3  13   9    1.08    1.85
   3 -13  -9    2.65    2.28
  -3  13  -9    1.46    1.85
  -3 -13   9   -0.26    2.95
  -3 -13   9    2.37    2.00
   3  13   9    1.26    1.77
  -3  13  -9   -1.42    2.46
   3  13  10    0.06    1.57
   3 -13 -10   -2.97    2.12
  -3 -13  10   -1.25    2.63
  -3  13 -10    1.39    1.91
  -3 -13  10    2.61    2.33
  -3  13 -10   -1.02    1.79
  -3  13 -11    1.12    1.79
  -3  13 -11    4.65    2.12
   3 -13 -11    5.13    2.38
  -3 -14 -10   -1.22    2.05
   3 -14   9    3.04    2.16
  -3 -14  -9   -0.23    2.27
  -3 -14  -9    0.10    2.41
   3 -14   8    0.92    1.83
  -3  14   8   -0.51    1.48
   3  14  -8   -0.17    2.05
  -3 -14  -8    1.88    2.52
   3 -14   7    3.93    2.78
  -3  14   7   -0.29    1.64
   3  14  -7   -3.39    2.47
  -3 -14  -7    3.20    2.79
   3 -14   6    0.91    1.83
  -3 -14  -6    3.95    3.55
  -3  14   6    5.82    2.57
   3  14  -6   -1.30    2.08
   3 -14   5   -0.28    1.97
  -3  14   5    0.43    1.41
   3  14  -5   -0.49    1.89
  -3 -14  -5    1.51    3.29
   3 -14   4    0.14    1.76
  -3  14   4    0.54    1.39
   3  14  -4   -0.25    1.71
  -3 -14  -3   -1.11    4.02
   3 -14   3   -1.27    1.84
  -3  14   3    0.98    1.36
   3  14  -3    0.03    1.26
   3 -14   2    3.45    2.68
  -3  14   2    1.16    1.62
  -3 -14  -2    3.63    4.23
   3  14  -2    3.27    1.85
   3 -14   1    0.55    1.40
  -3  14   1    0.65    1.60
   3 -14   0   -0.29    1.84
  -3  14   0   -0.37    1.45
   3  14   0    0.33    1.25
  -3 -14   0   -1.65    5.07
   3 -14  -1   -1.19    2.19
  -3  14  -1    1.42    1.53
   3  14   1    2.54    1.86
  -3 -14   1    0.72    4.41
  -3 -14   1    0.50    1.55
   3 -14  -2    3.67    2.26
  -3  14  -2    3.25    1.85
   3  14   2    1.40    1.86
  -3 -14   2    1.26    1.65
   3 -14  -3   -2.78    2.21
  -3 -14   3   -3.49    4.69
  -3  14  -3   -0.40    1.64
   3  14   3   -1.48    1.95
  -3 -14   3   -0.99    1.53
   3  14   4    1.96    1.51
   3 -14  -4   -1.98    2.17
  -3  14  -4    1.12    1.50
  -3 -14   4   -3.88    2.21
   3  14   4    1.66    1.26
  -3 -14   4   -1.26    4.46
   3  14   5    0.64    1.70
   3 -14  -5    4.77    2.51
  -3  14  -5   -0.06    1.30
  -3 -14   5   -2.86    1.85
  -3 -14   5   -2.30    4.28
   3  14   5    0.91    1.62
   3  14   6    4.03    1.90
   3 -14  -6   -0.01    2.10
  -3  14  -6    2.56    1.81
  -3 -14   6   -0.90    3.19
  -3 -14   6    2.19    1.61
   3  14   6    1.63    1.54
   3  14   7    3.22    2.32
  -3 -14   7   -2.24    3.27
   3 -14  -7   -4.05    2.95
  -3  14  -7   -3.16    2.22
  -3 -14   7   -1.05    1.38
   3  14   7    2.44    1.91
  -3  14  -7    2.67    1.82
   3  14   8    2.57    1.81
   3 -14  -8   -0.20    2.28
  -3  14  -8    1.35    1.72
  -3 -14   8    1.77    1.66
   3  14   8    2.10    1.75
  -3 -14   8   -0.12    3.18
  -3  14  -8    1.09    1.46
   3  14   9    3.21    2.12
   3 -14  -9    2.11    2.33
  -3  14  -9    1.57    1.82
  -3 -14   9   -3.31    3.51
  -3 -14   9    0.91    1.58
   3  14   9    0.25    1.51
  -3  14  -9   -1.07    1.56
  -3  14 -10    6.23    2.77
  -3  14 -10    4.20    2.52
  -3 -15  -9    5.12    2.70
  -3 -15  -8    0.88    2.62
   3 -15   7   -2.40    2.61
  -3 -15  -7    3.57    2.95
   3 -15   6    1.34    2.33
  -3  15   6    0.26    1.78
  -3 -15  -6    6.89    3.90
   3  15  -6    3.47    2.34
  -3  15   5   -1.39    1.84
   3 -15   5    0.23    1.90
   3  15  -5    6.17    2.50
  -3 -15  -5   -2.39    3.72
  -3 -15  -4    5.17    4.36
   3 -15   4    3.78    2.37
  -3  15   4    1.32    1.72
   3  15  -4    4.20    2.32
   3 -15   3    6.94    2.97
  -3  15   3    3.03    1.79
  -3 -15  -3    5.15    3.79
   3  15  -3    0.21    1.52
   3 -15   2    4.14    2.17
  -3  15   2    3.09    1.71
   3  15  -2    0.25    1.33
  -3 -15  -2   -0.28    4.66
   3 -15   1    3.59    2.55
  -3 -15  -1   -1.35    5.49
  -3  15   1    0.56    1.11
   3  15  -1    3.54    1.95
   3 -15   0    0.09    1.43
  -3  15   0   -0.52    1.32
  -3 -15   0   -0.42    6.97
   3  15   0    3.30    1.85
   3 -15  -1    5.48    2.85
  -3  15  -1    3.55    1.97
   3  15   1    3.02    2.13
   3 -15  -2    0.09    2.09
  -3  15  -2    6.58    2.38
   3  15   2   -0.42    1.39
  -3 -15   2    2.18    1.86
  -3 -15   2   -3.92    7.70
   3 -15  -3    3.34    2.21
  -3  15  -3    4.75    2.43
  -3 -15   3    3.51    4.41
   3  15   3    3.77    2.08
  -3 -15   3    2.24    1.78
   3  15   4    5.85    2.47
   3 -15  -4    4.16    2.18
  -3  15  -4    3.61    2.04
   3  15   4    0.54    1.23
  -3 -15   4    2.26    1.91
   3  15   5    3.43    1.88
   3 -15  -5   -6.18    2.84
  -3  15  -5   -0.51    1.83
  -3 -15   5   -3.60    2.08
   3  15   5    0.60    1.55
  -3 -15   5    2.95    4.44
   3  15   6    1.84    1.95
   3 -15  -6    0.23    1.90
  -3  15  -6   -2.12    2.06
  -3 -15   6    1.40    3.56
  -3 -15   6    0.24    1.47
   3  15   6   -0.98    1.89
   3  15   7    4.43    2.18
  -3 -15   7   -1.87    3.63
  -3  15  -7    2.40    1.70
  -3 -15   7   -0.31    1.74
   3  15   7    3.86    1.93
  -3 -15   8    0.47    2.89
  -3 -15   9   -2.99    2.85
   3 -16   4   -2.73    2.33
   3 -16   3    1.37    2.18
  -3  16   3    0.78    1.68
   3  16  -3    3.19    2.14
  -3 -16  -3    0.39    4.15
  -3 -16  -2   -2.44    5.65
   3 -16   2   -4.57    2.77
  -3  16   2    2.50    2.08
   3  16  -2   -2.27    1.68
   3 -16   1   -1.11    1.66
  -3  16   1   -1.69    1.90
   3  16  -1    0.34    1.58
  -3 -16  -1   -6.94    7.25
   3 -16   0    0.92    2.10
  -3  16   0    5.72    2.25
   3  16   0    1.78    2.02
  -3 -16   0   -0.79    4.88
   3 -16  -1   -2.20    2.06
  -3  16  -1    1.96    1.96
   3  16   1    2.71    1.82
   3 -16  -2   -0.12    2.18
  -3  16  -2   -2.32    2.08
  -3 -16   2    1.53    5.15
   3  16   2    0.04    1.64
  -3 -16   2    2.81    2.07
   3 -16  -3    4.59    2.35
  -3  16  -3    7.70    2.43
   3  16   3    4.62    2.02
  -3 -16   3   -0.22    1.78
  -3 -16   3   11.51    7.76
   3  16   4    0.46    1.69
  -3  16  -4    0.50    1.63
   3  16   4    3.78    2.24
  -3 -16   4    1.92    1.44
   3  16   5    3.85    2.29
   4   0   0   17.64    2.41
  -4   0   0   18.72    4.66
   4   0   0   11.91    2.11
   4   0   0   15.55    2.17
  -4   0   0   16.21    4.59
   4   0  -1   14.51    2.19
   4   0   1   14.36    2.29
   4   0   1   14.84    2.36
   4   0  -1   13.64    2.13
   4   0  -1   17.18    2.28
  -4   0  -1   13.67    4.34
  -4   0   1   18.78    4.37
   4   0   2    1.01    1.09
   4   0   2    1.86    1.22
   4   0  -2    0.68    1.02
   4   0  -2    0.07    0.86
   4   0  -2   -0.75    1.31
  -4   0  -2   -0.05    2.16
  -4   0   2    3.03    2.87
   4   0   3    3.40    1.53
   4   0   3    3.32    1.53
   4   0  -3    2.99    1.18
   4   0  -3    2.15    1.08
   4   0  -3    5.78    1.99
  -4   0  -3    2.28    2.57
  -4   0   3    0.82    2.40
   4   0   4    3.86    1.60
   4   0  -4    1.26    0.71
   4   0  -4    5.49    1.55
   4   0  -4    5.70    2.01
  -4   0  -4    4.99    2.73
  -4   0   4    5.24    3.04
   4   0   5   18.09    3.01
   4   0  -5   18.44    2.47
   4   0  -5   16.33    3.16
  -4   0  -5   16.52    3.95
  -4   0   5   20.52    4.58
   4   0   6   13.94    2.86
  -4   0  -6   13.10    2.84
   4   0  -6   11.06    2.58
  -4   0  -6   16.19    4.16
  -4   0   6   19.02    4.08
   4   0   7    1.06    1.50
  -4   0  -7   -1.22    1.94
   4   0  -7    3.87    2.29
  -4   0  -7   -0.46    1.86
  -4   0   7    2.32    2.73
   4   0   8    4.12    2.21
  -4   0   8    4.00    1.90
  -4   0  -8    0.99    1.51
   4   0  -8    2.75    1.92
  -4   0  -8    1.87    2.41
  -4   0   8    0.86    1.48
   4   0   9    9.72    3.05
  -4   0   9   11.01    2.89
  -4   0  -9   10.77    2.99
   4   0  -9   18.95    4.10
  -4   0  -9   18.04    4.21
  -4   0   9   11.93    2.95
   4   0  10    3.20    2.32
  -4   0 -10    0.82    1.71
   4   0 -10    7.19    3.01
  -4   0 -10    3.45    1.89
  -4   0  10    4.18    2.61
   4   0  11    5.74    2.94
  -4   0 -11    3.40    2.24
   4   0 -11    4.22    3.27
   4   0  12   -2.56    2.41
  -4   0 -12   -7.36    3.39
   4   0 -12   -3.50    2.79
   4   0  13    2.24    3.17
  -4   0  13   -0.41    1.69
  -4   0 -13    0.39    2.40
   4   0 -13   -2.07    2.82
   4   0  14    1.26    2.81
  -4   0  14   -5.81    3.08
  -4   0 -14   -4.64    3.66
   4   0 -14   -0.82    2.16
  -4   0  15    0.30    1.95
  -4   0 -15    1.97    2.39
   4  -1  15   -7.88    4.10
   4  -1  14   -2.53    2.40
  -4  -1 -14   -0.37    1.70
   4   1 -14    2.10    2.71
   4  -1  13    4.84    3.31
  -4  -1 -13    2.51    2.38
   4   1 -13    6.74    3.20
   4  -1  12    2.99    2.34
  -4   1  12    2.68    1.79
  -4  -1 -12    4.92    2.75
   4   1 -12    7.34    3.15
   4  -1  11    2.92    2.50
  -4   1  11    0.38    1.42
  -4  -1 -11   -3.72    3.09
   4   1 -11    4.24    2.82
   4  -1  10    3.57    2.38
  -4   1  10    2.65    1.97
  -4  -1 -10    3.46    2.33
   4   1 -10    4.14    2.51
  -4   1  10    0.07    1.43
  -4  -1 -10    1.31    1.99
   4  -1   9    0.56    1.61
  -4   1   9    5.69    2.26
  -4  -1  -9    0.73    1.88
   4   1  -9    4.23    2.37
  -4   1   9    5.51    2.58
  -4  -1  -9    0.10    1.87
   4  -1   8    2.55    1.82
  -4   1   8    1.51    1.58
  -4  -1  -8    2.33    1.86
   4   1  -8    4.06    2.36
  -4   1   8    1.77    1.90
  -4  -1  -8   -3.03    2.70
   4  -1   7   18.52    3.39
   4   1  -7   14.22    2.48
  -4   1   7   15.71    3.10
  -4  -1  -7   15.74    3.14
   4   1  -7   16.89    3.80
  -4   1   7   18.28    3.90
  -4  -1  -7   18.95    4.33
   4  -1   6    0.65    1.18
  -4  -1  -6    2.41    1.92
  -4   1   6    4.83    1.87
   4   1  -6    2.62    1.21
  -4  -1  -6    1.56    1.14
   4   1  -6    1.71    1.73
  -4   1   6    4.21    2.69
  -4  -1  -6    2.51    2.29
   4  -1   5   -0.31    1.40
  -4  -1  -5   -1.40    2.49
   4   1  -5    0.80    0.89
  -4  -1  -5    0.09    1.22
   4   1  -5   -2.84    1.89
  -4   1   5    0.64    2.50
  -4  -1  -5    2.79    2.69
   4  -1   4   -0.65    1.23
  -4  -1  -4    3.68    3.01
   4   1  -4    1.94    1.14
   4   1  -4    1.46    1.42
  -4   1   4    0.81    2.19
  -4  -1  -4   -0.30    2.31
   4   1  -3   23.01    2.81
   4  -1   3   23.46    3.23
  -4  -1  -3   24.83    5.10
   4   1  -3   19.27    3.11
  -4   1   3   24.49    5.03
  -4  -1  -3   27.44    5.05
   4  -1   3   27.66    3.41
   4  -1   2    3.65    1.41
   4  -1   2    2.98    1.44
   4   1  -2    3.60    1.14
  -4  -1  -2    3.64    3.10
   4   1  -2    3.86    1.37
   4   1  -2    2.26    1.41
  -4   1   2    4.43    2.88
  -4  -1  -2    5.87    3.39
   4  -1   1   13.29    2.20
   4   1  -1   18.63    2.35
   4  -1   1   14.13    2.51
  -4  -1  -1   17.66    4.78
   4   1  -1   16.68    2.33
   4   1  -1   12.63    2.38
  -4   1   1   20.40    4.88
  -4  -1  -1   16.68    4.49
   4   1   0    2.53    1.10
   4  -1   0    3.43    1.23
   4   1   0    1.81    0.91
   4  -1   0    5.44    1.55
  -4  -1   0    0.78    3.06
   4   1   0    5.12    1.66
   4   1   0    1.18    1.04
   4  -1   0    2.30    0.93
  -4   1   0    1.25    2.75
  -4  -1   0    6.70    3.01
   4  -1  -1   18.72    2.44
   4   1   1   18.84    2.66
   4   1   1   12.95    2.21
   4  -1  -1   14.71    2.30
  -4  -1   1    8.77    3.39
   4  -1  -1   16.77    2.13
  -4   1  -1   18.77    4.59
  -4  -1   1   17.66    4.76
   4  -1  -2    3.67    1.17
   4   1   2    4.39    1.58
   4   1   2    6.07    1.73
   4  -1  -2    4.74    1.52
  -4  -1   2   -1.53    2.54
   4  -1  -2    3.81    1.19
  -4   1  -2    2.20    2.55
  -4  -1   2    7.20    3.42
   4   1   3   22.73    3.17
   4  -1  -3   25.59    2.87
   4  -1  -3   25.33    2.57
  -4  -1   3   21.16    5.14
   4  -1  -3   24.28    3.42
  -4   1  -3   26.01    5.24
  -4  -1   3   21.82    4.45
   4   1   4    1.09    1.27
   4  -1  -4    1.49    0.99
  -4  -1   4   -3.70    3.01
   4  -1  -4    0.40    1.31
  -4   1  -4    2.75    2.57
  -4  -1   4    0.65    2.06
   4   1   5    0.07    1.17
   4  -1  -5    1.28    1.00
  -4  -1   5   -4.66    3.01
   4  -1  -5    3.12    1.83
  -4   1  -5   -1.79    2.49
  -4  -1   5    0.50    1.91
   4   1   6    2.78    1.68
  -4  -1   6    3.46    2.29
   4  -1  -6    5.82    2.19
  -4   1  -6    6.28    2.54
  -4  -1   6    4.67    2.53
   4   1   7   19.01    3.47
   4  -1  -7   20.96    3.74
  -4   1  -7   17.29    3.93
  -4  -1   7   20.23    4.24
   4   1   8    6.51    2.47
  -4   1  -8    4.19    1.88
   4  -1  -8    4.21    2.26
  -4   1  -8   -1.59    2.41
  -4  -1   8    1.79    1.95
   4   1   9   -0.53    2.06
  -4  -1   9    1.28    1.30
  -4   1  -9    3.86    1.98
   4  -1  -9    3.80    2.57
  -4   1  -9    3.26    2.33
  -4  -1   9    0.36    1.81
  -4  -1  10    1.95    1.51
  -4   1 -10    0.63    1.79
   4  -1 -10    4.16    2.41
   4   1  10   -1.08    1.93
  -4   1 -10   -2.44    2.33
  -4  -1  10   -0.59    1.84
   4   1  11    4.95    2.92
  -4  -1  11    3.39    2.21
  -4   1 -11    2.25    2.16
   4  -1 -11    2.59    1.96
   4   1  12    3.17    2.82
  -4  -1  12    1.41    2.10
  -4   1 -12    5.53    2.99
   4  -1 -12    6.45    3.10
   4   1  13    4.48    2.75
  -4  -1  13   -1.29    2.00
  -4   1 -13    2.52    2.65
   4  -1 -13    3.54    2.57
  -4   1 -13    4.47    2.66
   4   1  14    0.09    2.68
  -4  -1  14   -4.83    2.94
  -4   1 -14    4.29    2.75
   4  -1 -14    2.28    2.77
  -4   1 -14    1.95    2.15
  -4  -1  15    2.27    2.13
   4  -2  15   -3.02    2.42
   4  -2  14    1.64    2.16
  -4   2  14    4.35    2.30
  -4  -2 -14   -2.64    3.05
   4   2 -14    1.46    2.11
   4  -2  13   -2.27    2.77
  -4   2  13    0.39    1.58
  -4  -2 -13   -1.73    3.13
   4   2 -13   -0.69    1.68
   4  -2  12    1.50    2.17
  -4   2  12    0.61    1.85
  -4  -2 -12    1.59    2.40
   4   2 -12   -4.18    2.86
   4  -2  11    2.70    2.25
  -4   2  11    4.24    2.24
  -4  -2 -11    1.46    2.39
   4   2 -11    5.68    3.01
   4  -2  10    3.48    2.32
  -4   2  10    5.70    2.28
  -4  -2 -10    5.31    2.79
   4   2 -10   10.80    3.66
  -4   2  10    5.14    2.24
  -4  -2 -10    3.70    2.51
   4  -2   9    0.07    1.70
  -4   2   9    5.65    2.35
  -4  -2  -9    4.85    2.40
   4   2  -9    8.88    3.58
  -4   2   9    1.45    1.96
  -4  -2  -9    3.17    2.69
   4  -2   8    1.69    1.91
  -4  -2  -8    0.14    1.43
   4   2  -8    2.88    1.61
  -4   2   8   -2.36    1.74
  -4  -2  -8    0.84    1.52
   4   2  -8    4.57    2.75
  -4   2   8   -1.99    1.91
  -4  -2  -8   -3.22    2.72
   4  -2   7    4.43    2.13
  -4  -2  -7    2.73    2.04
   4   2  -7    5.04    1.79
  -4   2   7    5.93    2.15
  -4  -2  -7    5.26    2.07
   4   2  -7    8.44    2.70
  -4   2   7    7.36    2.78
  -4  -2  -7   12.56    3.77
   4  -2   6   -0.31    1.57
  -4  -2  -6    1.76    2.20
  -4   2   6    1.25    1.22
   4   2  -6    2.02    1.32
  -4  -2  -6   -0.32    1.45
   4   2  -6    1.39    1.57
  -4   2   6   -1.23    2.19
  -4  -2  -6    3.57    3.18
   4  -2   5    9.90    2.49
  -4  -2  -5   12.95    3.56
  -4   2   5    9.85    2.25
   4   2  -5    7.87    1.87
  -4  -2  -5    7.45    2.23
   4   2  -5    7.26    2.42
  -4   2   5    4.90    2.51
  -4  -2  -5    5.92    2.87
   4  -2   4    2.60    1.46
   4  -2   4    2.50    1.58
  -4  -2  -4   -0.14    2.50
   4   2  -4    3.89    1.50
  -4  -2  -4    0.60    1.26
   4   2  -4    2.55    1.89
  -4   2   4    0.65    2.51
  -4  -2  -4    2.55    2.16
   4  -2   3   -0.54    1.22
   4  -2   3   -0.34    1.19
  -4  -2  -3   -2.65    2.72
   4   2  -3   -0.89    1.12
   4   2  -3    2.23    1.48
  -4   2   3    4.30    3.00
  -4  -2  -3    1.49    2.94
   4  -2   2    1.29    1.12
  -4  -2  -2   -0.32    2.75
   4   2  -2    0.22    0.78
   4   2  -2    0.12    1.25
  -4   2   2    2.05    2.88
  -4  -2  -2    4.12    2.78
   4  -2   2    1.59    1.37
   4  -2   1    5.41    1.46
   4  -2   1    6.93    1.92
   4   2  -1    6.67    1.41
  -4  -2  -1    8.19    3.78
   4   2  -1    9.44    1.90
   4   2  -1    4.18    1.45
  -4   2   1   13.67    4.40
  -4  -2  -1    5.47    3.74
   4  -2   0    0.63    0.66
   4   2   0    2.07    0.81
   4  -2   0    1.13    1.11
  -4  -2   0   -0.74    2.89
   4   2   0    2.17    1.39
   4   2   0    2.56    1.36
   4  -2   0    1.16    0.70
  -4   2   0    5.78    3.73
  -4  -2   0    0.01    2.96
   4   2   1    6.70    1.73
   4  -2  -1    8.77    1.66
   4   2   1    6.84    1.62
   4  -2  -1    6.20    1.69
  -4  -2   1    7.48    3.72
   4  -2  -1    7.12    1.37
   4   2   1    8.60    1.89
   4   2   1    7.50    1.76
  -4   2  -1    7.12    3.76
  -4  -2   1    7.09    3.27
   4   2   2    0.26    1.19
   4  -2  -2   -0.75    1.12
  -4  -2   2    2.74    2.84
   4   2   2    0.73    0.77
  -4   2  -2   -0.40    2.37
  -4  -2   2    1.92    2.71
   4   2   3    0.51    1.17
   4  -2  -3   -1.47    1.17
  -4  -2   3    0.85    3.42
  -4   2  -3    1.67    2.73
  -4  -2   3    3.72    3.26
   4   2   4    0.93    1.37
   4  -2  -4    4.03    1.40
  -4  -2   4    2.87    2.16
   4  -2  -4    1.46    1.51
  -4   2  -4    4.00    2.67
  -4  -2   4    3.46    2.69
   4   2   5    6.84    2.02
   4  -2  -5    7.70    1.73
  -4  -2   5    3.12    2.59
   4  -2  -5    7.33    2.21
  -4   2  -5    5.54    2.56
  -4  -2   5   11.31    3.54
   4   2   6    0.70    1.33
   4  -2  -6    1.69    0.86
  -4  -2   6    1.57    2.27
   4  -2  -6    0.21    1.42
  -4   2  -6    4.91    2.87
  -4  -2   6    3.55    2.62
   4   2   7    9.24    2.56
  -4  -2   7    3.75    2.52
  -4  -2   7    6.89    1.82
   4  -2  -7    3.38    1.88
  -4   2  -7    4.45    2.63
  -4  -2   7    7.39    3.02
   4   2   8   -2.02    1.86
  -4  -2   8   -1.22    2.42
  -4  -2   8    1.19    1.25
   4  -2  -8    0.95    1.35
  -4   2  -8   -0.69    2.32
  -4  -2   8   -0.65    2.27
   4   2   9    3.16    1.92
  -4  -2   9    1.34    1.20
   4  -2  -9   -0.13    2.00
  -4   2  -9    2.27    2.45
  -4  -2   9    7.08    2.94
   4   2  10    3.68    1.91
  -4  -2  10    2.68    1.92
  -4   2 -10    1.44    1.86
   4  -2 -10    2.57    2.00
  -4   2 -10    1.82    1.95
  -4  -2  10    1.72    1.68
   4   2  11    4.05    2.22
  -4  -2  11    1.74    1.62
  -4   2 -11    5.89    2.65
   4  -2 -11    3.40    2.05
   4   2  12   -2.42    2.40
  -4  -2  12    0.91    1.98
  -4   2 -12   -4.50    3.14
   4  -2 -12   -1.64    2.41
  -4   2 -12    2.75    2.77
   4   2  13   -0.47    2.53
  -4  -2  13   -5.74    3.16
  -4   2 -13    0.00    1.64
   4  -2 -13   -0.42    2.36
  -4   2 -13   -4.78    3.15
   4   2  14    3.32    3.10
  -4  -2  14    0.92    1.78
  -4   2 -14    1.43    2.18
   4  -2 -14    3.89    2.51
  -4   2 -14    1.54    2.41
  -4  -2  15    0.84    1.79
   4  -3  15    4.88    2.92
  -4   3  15    4.01    2.67
   4  -3  14   -0.54    1.76
  -4   3  14    1.75    2.10
  -4  -3 -14    1.49    3.00
   4   3 -14    1.04    1.97
   4  -3  13    0.60    1.93
  -4   3  13   -2.80    2.34
  -4  -3 -13   -1.55    2.53
   4   3 -13    0.44    1.76
   4  -3  12    1.40    2.19
  -4   3  12   -2.17    2.35
  -4  -3 -12    1.52    2.18
   4   3 -12    1.88    2.19
   4  -3  11   -1.83    2.69
  -4   3  11   -1.47    1.66
  -4  -3 -11    0.87    2.14
   4   3 -11    0.96    1.55
   4  -3  10    9.77    3.32
  -4  -3 -10    5.48    2.47
   4   3 -10    5.75    2.24
  -4   3  10    8.70    2.69
  -4  -3 -10   12.59    4.10
   4   3 -10    4.64    2.61
  -4   3  10    5.54    2.18
   4  -3   9    1.89    1.56
  -4  -3  -9    3.32    2.17
   4   3  -9    2.69    1.52
  -4   3   9    3.91    2.13
  -4  -3  -9    0.51    1.83
   4   3  -9    0.66    1.95
  -4   3   9    0.42    1.70
   4  -3   8    5.37    2.57
   4   3  -8    2.02    1.61
  -4  -3  -8    3.33    2.11
  -4   3   8    5.58    2.19
  -4  -3  -8    3.83    2.29
   4   3  -8    4.73    2.30
  -4   3   8    4.95    2.16
  -4  -3  -8    3.84    2.67
   4  -3   7    8.57    2.53
  -4   3   7    8.07    2.39
   4   3  -7    4.11    1.51
  -4  -3  -7    8.51    2.90
  -4  -3  -7    7.83    2.80
   4   3  -7    6.46    2.49
  -4   3   7    8.55    2.76
  -4  -3  -7    5.08    2.54
   4  -3   6    4.69    1.94
   4  -3   6    5.38    2.15
  -4   3   6    6.71    1.96
   4   3  -6    5.83    2.05
  -4  -3  -6    8.88    3.00
  -4  -3  -6    8.27    2.48
   4   3  -6   10.32    3.32
  -4   3   6    8.71    3.16
  -4  -3  -6    5.25    3.11
   4  -3   5    2.26    1.73
   4  -3   5    3.30    1.93
  -4   3   5    0.15    1.00
   4   3  -5    1.29    1.09
  -4  -3  -5    2.15    2.57
  -4  -3  -5   -3.42    2.04
   4   3  -5    1.38    1.52
  -4   3   5    0.66    2.77
  -4  -3  -5   -1.05    2.73
   4  -3   4   22.15    3.28
   4  -3   4   20.60    3.28
  -4   3   4   20.72    2.80
   4   3  -4   17.63    2.73
  -4  -3  -4   21.05    4.86
  -4  -3  -4   20.59    3.15
   4   3  -4   22.01    3.70
  -4   3   4   27.31    5.09
  -4  -3  -4   26.67    5.40
   4  -3   3    5.93    1.78
   4  -3   3    8.49    2.17
  -4   3   3   10.62    2.01
   4   3  -3   10.45    2.15
  -4  -3  -3    8.83    3.40
  -4  -3  -3    8.94    1.99
   4   3  -3    6.04    2.06
  -4   3   3    2.82    2.71
  -4  -3  -3   10.70    4.21
   4  -3   2    8.87    1.89
   4  -3   2    7.53    2.02
  -4  -3  -2    5.45    2.96
   4   3  -2    6.94    1.75
   4   3  -2    5.42    1.66
  -4   3   2    5.36    2.79
  -4  -3  -2    6.70    3.52
   4  -3   1    6.25    1.97
  -4  -3  -1    4.53    2.56
   4   3  -1    6.23    1.69
   4   3  -1    4.47    1.54
  -4   3   1    7.84    3.98
  -4  -3  -1    5.93    3.06
   4   3   0   25.35    2.65
   4  -3   0   27.11    3.44
  -4  -3   0   22.03    5.04
   4   3   0   28.18    3.43
   4   3   0   22.61    2.85
  -4   3   0   24.86    5.48
  -4  -3   0   31.39    5.47
   4   3   1    8.26    2.03
   4   3   1    6.85    1.49
   4  -3  -1    6.10    1.77
  -4  -3   1    2.57    2.42
   4   3   1    5.21    1.44
   4   3   1    3.33    1.24
  -4   3  -1    5.96    3.09
  -4  -3   1    7.24    3.29
   4   3   2    7.72    1.88
   4  -3  -2    7.69    1.90
  -4  -3   2   11.23    4.02
  -4   3  -2    4.40    2.56
  -4  -3   2   14.57    4.30
   4   3   3    8.27    2.00
   4  -3  -3    8.13    1.90
  -4  -3   3    2.02    2.58
  -4   3  -3   10.11    4.07
  -4  -3   3    8.01    3.47
   4   3   4   23.43    3.42
   4  -3  -4   19.83    2.71
  -4  -3   4   19.66    4.29
  -4   3  -4   21.75    4.62
  -4  -3   4   24.19    4.84
   4   3   5    1.59    1.63
   4  -3  -5   -0.53    1.15
  -4  -3   5    0.94    2.03
  -4  -3   5    0.13    0.81
   4  -3  -5    1.45    1.39
  -4   3  -5   -4.31    3.21
  -4  -3   5   -2.62    2.80
   4   3   6    5.88    2.03
   4  -3  -6    7.48    1.87
  -4  -3   6    6.80    3.27
  -4  -3   6    5.38    1.43
   4  -3  -6    8.23    2.26
  -4   3  -6   10.34    3.72
  -4  -3   6    8.26    3.15
   4   3   7    7.73    2.47
   4  -3  -7    5.22    1.64
  -4  -3   7    9.29    3.28
  -4  -3   7    5.93    1.77
   4  -3  -7    7.73    2.61
  -4   3  -7    8.03    3.06
  -4  -3   7    7.34    3.05
   4   3   8    5.59    2.28
  -4  -3   8    4.34    2.63
  -4  -3   8    1.59    1.09
   4  -3  -8    1.16    1.51
  -4   3  -8    1.46    2.13
  -4  -3   8    3.76    2.65
   4   3   9    3.92    2.19
  -4  -3   9    3.69    2.37
  -4  -3   9    0.06    1.28
   4  -3  -9    2.08    1.76
  -4   3  -9    2.07    2.21
   4   3  10    8.82    3.01
  -4  -3  10    6.60    2.49
  -4  -3  10    8.75    2.71
   4  -3 -10    5.78    2.23
  -4   3 -10    9.95    3.19
   4   3  11    1.41    2.26
  -4  -3  11    4.08    1.98
   4  -3 -11    1.84    2.44
  -4   3 -11   -1.86    2.26
   4   3  12   -4.64    3.07
  -4  -3  12   -1.84    2.14
   4  -3 -12    5.21    2.97
  -4   3 -12   -3.66    3.13
   4   3  13    4.33    3.09
  -4  -3  13    1.65    1.91
   4  -3 -13    0.07    2.46
  -4   3 -13    3.17    2.86
   4   3  14   -0.07    2.56
  -4  -3  14   -3.05    2.13
   4  -3 -14    1.19    2.10
  -4   3 -14    4.82    3.43
  -4  -3  15   -2.42    2.32
   4  -4  15    2.53    2.77
   4  -4  14    5.73    3.31
  -4   4  14    2.84    2.55
  -4  -4 -14    4.85    2.96
   4   4 -14   -1.01    2.02
   4  -4  13   -0.78    2.51
  -4   4  13   -1.95    2.21
  -4  -4 -13   -0.81    2.20
   4   4 -13   -2.79    2.38
   4  -4  12   -6.19    3.10
  -4   4  12    0.84    1.73
  -4  -4 -12   -1.22    2.34
   4  -4  11    7.35    3.28
   4   4 -11    4.74    2.30
  -4   4  11    1.87    1.95
  -4  -4 -11    2.47    2.96
   4   4 -11    1.03    2.50
   4  -4  10    0.86    2.24
   4   4 -10    1.49    1.60
  -4  -4 -10   -0.85    1.80
  -4   4  10    4.05    2.19
  -4  -4 -10   -3.18    2.89
   4   4 -10   -2.01    2.17
  -4   4  10   -0.19    1.62
   4  -4   9    6.42    2.65
   4   4  -9    3.69    1.75
  -4   4   9    2.67    1.77
  -4  -4  -9    9.37    2.78
  -4  -4  -9    2.91    2.48
   4   4  -9    7.57    2.71
  -4   4   9   -0.19    1.37
   4  -4   8    3.85    2.13
   4   4  -8    4.16    2.00
  -4   4   8    5.32    2.06
  -4  -4  -8    8.93    3.06
  -4  -4  -8    4.22    2.64
   4   4  -8    7.80    2.99
  -4   4   8    5.56    2.37
   4  -4   7    1.61    1.46
   4  -4   7    6.17    2.63
  -4   4   7    3.26    1.67
   4   4  -7    1.13    1.38
  -4  -4  -7    2.12    2.30
  -4  -4  -7    5.64    2.56
   4   4  -7    1.59    2.04
  -4   4   7   -2.07    2.59
   4  -4   6    2.00    1.28
   4  -4   6    4.47    2.20
  -4   4   6    1.19    1.14
   4   4  -6    0.55    1.11
  -4  -4  -6    1.55    2.06
  -4  -4  -6    2.21    1.57
   4   4  -6    1.33    1.70
  -4   4   6   -1.18    2.07
   4  -4   5    9.20    2.56
   4  -4   5   14.50    3.11
  -4   4   5   10.66    2.18
   4   4  -5   11.82    2.44
  -4  -4  -5   15.39    3.19
  -4  -4  -5   14.81    3.88
   4   4  -5   11.81    3.13
  -4   4   5    4.69    2.97
  -4  -4  -5   15.96    4.37
   4  -4   4    4.41    1.91
   4  -4   4    5.69    1.99
  -4   4   4    4.63    1.46
   4   4  -4    6.23    1.92
  -4  -4  -4    6.36    2.09
  -4  -4  -4    6.52    3.07
   4   4  -4    8.13    2.67
  -4   4   4    4.45    2.26
  -4  -4  -4    7.82    3.25
   4  -4   3   13.61    2.91
  -4   4   3   13.21    2.19
   4   4  -3   12.18    2.31
  -4  -4  -3   11.84    2.35
  -4  -4  -3   13.22    4.04
   4   4  -3   16.48    3.33
  -4   4   3   17.73    4.53
  -4  -4  -3   15.85    4.57
   4  -4   2   14.03    2.71
  -4   4   2   11.58    1.97
   4   4  -2   11.92    2.29
  -4  -4  -2   13.90    2.37
   4   4  -2    9.62    2.59
  -4  -4  -2   20.00    5.15
  -4   4   2   12.88    3.95
  -4  -4  -2   12.74    4.44
   4  -4   1   17.22    2.98
   4   4  -1   15.36    2.56
   4   4  -1   11.33    2.57
  -4   4   1   17.71    4.71
  -4  -4  -1   12.41    4.02
  -4  -4  -1   24.95    5.74
   4  -4   0    5.06    1.75
   4   4   0    7.19    1.81
   4   4   0    3.54    1.69
  -4   4   0    4.95    3.06
  -4  -4   0    8.59    3.30
  -4  -4   0    5.61    4.03
   4  -4  -1   12.03    2.30
   4   4   1   15.45    2.54
  -4   4  -1   16.20    4.51
  -4  -4   1   10.75    4.25
  -4  -4   1   11.63    4.25
   4   4   2   13.25    2.55
   4  -4  -2    9.17    2.15
  -4  -4   2   12.35    4.13
  -4   4  -2   11.05    3.98
  -4  -4   2   13.66    4.36
   4   4   3   12.41    2.57
   4  -4  -3   14.27    2.57
  -4  -4   3   13.89    2.01
  -4  -4   3   14.70    4.37
  -4   4  -3   10.39    4.09
  -4  -4   3   20.87    5.01
   4   4   4    2.91    1.64
   4  -4  -4    2.56    1.26
  -4  -4   4    5.68    1.39
  -4  -4   4    4.64    3.06
  -4   4  -4   -0.93    2.56
  -4  -4   4    6.32    3.09
   4   4   5   10.68    2.53
   4  -4  -5    8.49    2.00
  -4  -4   5   10.71    1.97
  -4  -4   5   14.02    3.92
  -4   4  -5   16.08    4.12
  -4  -4   5   12.40    3.59
   4   4   6    0.95    1.15
   4  -4  -6    1.53    1.27
  -4  -4   6    1.95    1.03
   4  -4  -6   -0.17    1.64
  -4   4  -6    3.67    3.17
   4   4   7    0.95    1.40
   4  -4  -7    1.95    1.34
  -4  -4   7    1.60    1.19
  -4  -4   7    1.56    1.69
   4  -4  -7    1.15    1.36
  -4   4  -7    4.43    2.41
   4   4   8    4.09    2.06
   4  -4  -8    6.36    1.89
  -4  -4   8    5.56    2.99
  -4  -4   8    2.56    1.43
   4  -4  -8    6.00    2.30
  -4   4  -8    3.00    2.48
   4   4   9    5.91    2.44
  -4  -4   9   -3.20    2.77
  -4  -4   9    6.04    2.24
   4  -4  -9    4.67    2.23
  -4   4  -9    3.12    2.55
   4   4  10   -0.23    1.81
  -4  -4  10    1.41    1.73
  -4  -4  10    0.19    1.53
   4  -4 -10    0.89    1.74
  -4   4 -10   -2.93    2.35
   4   4  11    6.07    2.97
  -4  -4  11    0.91    1.50
   4  -4 -11    1.23    2.39
  -4   4 -11    0.69    1.93
  -4  -4  12    4.37    2.28
   4  -4 -12   -4.27    3.18
   4   4  12    3.59    2.59
  -4   4 -12    0.99    2.06
   4   4  13   -1.56    2.29
  -4  -4  13   -4.09    2.52
  -4   4 -13   -1.01    2.19
  -4  -4  14   -5.23    2.57
  -4  -4  15    1.84    2.17
   4  -5  14    0.95    2.23
  -4   5  14    0.37    1.64
   4  -5  13   -4.74    2.80
  -4   5  13   -3.36    2.73
  -4  -5 -13   -2.95    3.12
   4   5 -13    1.26    2.07
   4  -5  12    5.62    3.12
   4   5 -12   -1.19    1.78
  -4   5  12   -0.66    1.55
  -4  -5 -12    2.44    2.75
   4   5 -12   -4.09    3.35
   4  -5  11    0.16    2.07
   4   5 -11   -2.72    2.16
  -4   5  11    1.94    2.26
   4   5 -11   -1.50    1.93
   4  -5  10    2.45    2.43
   4   5 -10   -0.28    1.88
  -4   5  10    3.62    2.13
  -4  -5 -10   -0.01    1.45
  -4  -5 -10   -1.93    2.71
   4   5 -10    4.82    2.90
  -4   5  10   -2.35    2.40
   4  -5   9    5.22    2.59
   4  -5   9    6.34    2.62
   4   5  -9    4.87    2.05
  -4   5   9    6.90    2.35
  -4  -5  -9    1.29    1.71
  -4  -5  -9    5.28    2.63
  -4   5   9    2.85    2.10
   4   5  -9    5.27    2.35
   4  -5   8   -1.17    1.77
   4  -5   8   -2.98    2.57
  -4   5   8   -0.31    1.39
   4   5  -8    2.58    2.04
  -4  -5  -8   -1.56    1.95
  -4  -5  -8    2.14    1.95
  -4   5   8   -1.17    1.96
   4   5  -8    4.96    2.65
   4  -5   7   -0.78    1.41
   4  -5   7   -0.77    1.60
  -4   5   7   -1.13    1.50
   4   5  -7   -1.54    1.46
  -4  -5  -7   -0.22    1.71
  -4  -5  -7    1.64    2.07
  -4   5   7    0.69    2.14
   4   5  -7   -0.37    1.95
   4  -5   6    2.82    1.66
  -4   5   6    6.20    2.22
   4   5  -6    2.14    1.39
  -4  -5  -6    6.50    2.61
  -4  -5  -6    6.13    3.12
  -4   5   6    3.14    2.50
   4   5  -6    6.11    2.31
   4  -5   5    3.45    1.64
  -4   5   5    3.63    1.58
   4   5  -5    2.50    1.45
  -4  -5  -5    4.18    1.86
  -4   5   5    2.70    2.82
   4   5  -5    4.80    2.40
  -4  -5  -5    0.82    2.44
   4  -5   4   -1.60    1.49
  -4   5   4   -0.77    1.01
   4   5  -4    2.81    1.69
  -4  -5  -4    0.73    1.07
  -4   5   4    0.09    2.38
   4   5  -4    1.99    1.72
  -4  -5  -4   -0.21    2.35
   4  -5   3    1.46    1.32
  -4   5   3    2.07    1.09
   4   5  -3    1.10    1.28
  -4  -5  -3    1.06    1.13
  -4   5   3    0.85    2.77
   4   5  -3    0.27    1.54
  -4  -5  -3    1.58    2.48
   4  -5   2    3.94    1.77
  -4   5   2    3.70    1.31
   4   5  -2    2.83    1.60
  -4  -5  -2    4.90    1.70
  -4   5   2    4.93    2.98
   4   5  -2    4.53    2.16
  -4  -5  -2    4.28    3.56
   4  -5   1    1.28    1.24
  -4   5   1    1.29    0.83
   4   5  -1    0.84    1.24
  -4   5   1   -2.77    3.58
  -4  -5  -1    2.18    2.38
   4  -5   0    1.71    1.54
  -4   5   0    3.31    1.21
   4   5   0    4.23    1.61
  -4   5   0   -0.52    2.83
  -4  -5   0    3.71    2.70
   4  -5  -1   -0.47    1.28
   4   5   1    1.46    1.31
  -4   5  -1    1.28    3.20
  -4  -5   1    0.94    3.37
   4   5   2    2.04    1.64
   4  -5  -2    3.42    1.68
  -4  -5   2    2.82    1.07
  -4   5  -2    3.34    3.04
   4   5   2    5.60    1.81
  -4  -5   2    3.05    2.52
   4   5   3    0.94    1.25
   4  -5  -3    1.43    1.19
  -4  -5   3    0.15    0.69
  -4   5  -3    2.10    3.17
  -4  -5   3    2.68    3.20
   4   5   4   -1.54    1.65
   4  -5  -4   -0.01    1.33
  -4  -5   4    0.13    0.74
  -4   5  -4    1.46    2.67
  -4  -5   4   -0.50    2.29
   4   5   5   -0.36    1.45
   4  -5  -5    3.71    1.64
  -4  -5   5    3.59    1.29
  -4  -5   5    2.27    2.41
   4   5   6    6.08    1.97
   4  -5  -6    4.42    1.84
  -4  -5   6    1.83    1.33
  -4  -5   6    4.59    3.03
  -4   5  -6    3.91    2.62
   4   5   7   -1.99    2.00
   4  -5  -7   -2.56    1.65
  -4  -5   7    0.12    0.98
   4  -5  -7   -0.94    1.69
  -4  -5   7    0.93    2.49
  -4   5  -7    1.33    2.49
   4   5   8   -0.02    1.20
   4  -5  -8   -0.34    1.34
  -4  -5   8   -0.45    1.45
  -4  -5   8   -0.29    2.03
   4  -5  -8    2.65    2.07
  -4   5  -8    3.42    2.57
   4   5   9    6.33    2.45
   4  -5  -9    5.73    2.05
  -4  -5   9    5.34    1.97
  -4  -5   9    1.87    1.67
   4  -5  -9    5.55    2.50
  -4   5  -9    6.98    2.99
   4   5  10    0.43    1.82
  -4  -5  10    1.84    1.90
  -4  -5  10    0.82    1.36
   4  -5 -10    2.77    2.17
  -4   5 -10    1.83    1.98
  -4   5 -10    1.48    2.36
   4   5  11    1.44    2.11
  -4  -5  11    0.26    1.34
   4  -5 -11    0.55    1.94
  -4   5 -11   -1.98    2.56
   4   5  12    0.29    1.67
  -4  -5  12   -0.01    1.56
   4  -5 -12    0.16    2.33
  -4   5 -12   -1.13    2.71
   4   5  13   -1.28    2.13
  -4  -5  13    0.86    2.25
   4  -5 -13    6.55    2.93
  -4   5 -13    0.35    3.09
  -4  -5  14    0.07    1.74
   4  -6  14   -6.97    3.75
  -4   6  14    2.03    2.37
   4  -6  13   -1.51    2.01
   4   6 -13   -2.49    2.59
  -4   6  13   -0.16    1.60
  -4  -6 -13    5.88    3.19
   4   6 -13   -8.60    3.84
   4  -6  12    2.44    2.35
   4   6 -12    2.79    2.14
  -4   6  12    4.68    2.34
  -4  -6 -12    2.23    2.73
   4   6 -12    0.93    2.12
   4  -6  11   -1.93    2.00
   4   6 -11    1.07    1.71
  -4   6  11   -0.25    1.92
  -4  -6 -11   -2.52    2.86
   4   6 -11    2.18    2.29
   4  -6  10    2.11    1.77
   4   6 -10   -0.68    2.18
  -4   6  10    2.00    1.45
  -4  -6 -10   -0.84    2.50
  -4  -6 -10   -2.52    2.04
  -4   6  10   -5.16    2.65
   4   6 -10   -1.12    2.70
   4  -6   9    2.52    2.04
   4   6  -9    2.16    1.91
  -4   6   9    0.64    1.35
  -4  -6  -9    1.75    2.07
  -4  -6  -9   -1.31    1.92
  -4   6   9    0.62    1.83
   4   6  -9    1.25    1.81
   4  -6   8   12.48    3.21
  -4   6   8   12.09    2.78
   4   6  -8   13.29    3.02
  -4  -6  -8   14.04    3.84
  -4  -6  -8   13.88    3.63
  -4   6   8   15.14    3.85
   4   6  -8   13.83    3.61
   4  -6   7   -0.46    1.53
  -4   6   7    3.26    1.81
   4   6  -7    3.79    1.90
  -4  -6  -7    0.88    1.80
  -4   6   7    4.82    2.90
   4   6  -7    1.54    2.16
  -4  -6  -7   -0.65    1.72
   4  -6   6    2.59    1.64
  -4   6   6    5.38    1.80
   4   6  -6    6.05    2.22
  -4  -6  -6    2.73    1.80
  -4   6   6    3.86    2.91
   4   6  -6    3.03    1.86
  -4  -6  -6    4.48    2.69
   4  -6   5    1.83    1.82
  -4   6   5   -1.12    1.05
   4   6  -5    0.63    1.27
  -4  -6  -5   -1.65    1.86
  -4   6   5    3.08    2.78
   4   6  -5    0.48    1.45
  -4  -6  -5   -0.48    2.30
   4  -6   4   12.07    2.96
  -4   6   4    9.84    2.08
   4   6  -4    9.12    2.40
  -4  -6  -4   12.25    2.81
  -4   6   4    7.86    3.19
   4   6  -4    9.48    2.98
  -4  -6  -4    7.50    3.23
  -4  -6  -3   -2.20    3.29
   4  -6   3   -0.96    1.47
  -4   6   3    0.34    0.96
   4   6  -3   -0.47    1.60
  -4  -6  -3    0.02    0.92
  -4   6   3    4.07    3.57
   4   6  -3   -4.26    2.31
  -4  -6  -2   28.13    5.57
   4  -6   2   28.61    3.93
  -4   6   2   30.29    3.33
   4   6  -2   27.74    3.54
  -4   6   2   27.92    5.83
  -4  -6  -1    2.33    2.79
   4  -6   1    0.60    1.35
  -4   6   1   -0.30    1.07
   4   6  -1    1.87    1.34
  -4   6   1   -3.87    4.08
  -4  -6   0   -2.52    3.13
   4  -6   0    2.23    1.62
  -4   6   0    3.10    1.39
  -4  -6   0    2.49    1.00
   4   6   0    1.95    1.26
  -4   6   0    4.51    3.65
  -4  -6   1   -2.69    3.43
   4  -6  -1   -0.53    1.32
  -4   6  -1    1.47    0.97
  -4  -6   1   -0.58    0.99
   4   6   1   -0.61    1.25
  -4   6  -1    0.01    3.15
  -4  -6   2   30.92    5.96
   4  -6  -2   35.70    4.14
   4   6   2   33.91    3.85
  -4  -6   2   31.56    3.12
  -4   6  -2   38.25    6.46
   4   6   3   -0.19    1.31
  -4  -6   3    0.60    3.07
   4  -6  -3    0.25    1.23
  -4  -6   3    0.34    0.83
  -4   6  -3   -1.99    3.58
   4   6   3    0.39    1.27
  -4  -6   4   12.95    4.15
   4   6   4    9.39    2.42
   4  -6  -4    8.91    2.18
  -4  -6   4   11.98    2.13
  -4   6  -4   10.01    3.82
   4   6   5   -2.81    1.73
   4  -6  -5   -0.18    1.37
  -4  -6   5    1.65    1.26
  -4  -6   5    0.52    1.92
   4   6   6    5.41    1.81
   4  -6  -6    3.11    1.41
  -4  -6   6    7.31    2.13
  -4   6  -6   10.32    3.75
  -4  -6   6    5.55    2.00
   4   6   7    0.64    1.48
   4  -6  -7    1.78    1.52
  -4  -6   7    2.84    1.45
  -4   6  -7   -1.50    3.32
  -4  -6   7    5.41    3.11
   4   6   8   11.48    2.82
   4  -6  -8   13.28    2.80
  -4  -6   8   12.31    2.77
   4  -6  -8   11.82    3.05
  -4   6  -8   10.80    3.43
  -4  -6   8    8.92    3.20
   4   6   9    2.49    2.05
   4  -6  -9    1.46    1.41
  -4  -6   9   -0.58    1.28
  -4  -6   9    1.97    2.44
   4  -6  -9    1.49    2.07
  -4   6  -9    1.05    1.79
   4   6  10    3.37    1.92
   4  -6 -10    1.56    1.60
  -4  -6  10    5.61    2.24
  -4  -6  10    0.72    1.73
   4  -6 -10    1.57    1.68
  -4   6 -10    0.69    1.76
  -4   6 -10    0.24    2.36
   4   6  11    4.91    2.72
  -4  -6  11    0.36    1.34
   4  -6 -11    2.07    2.06
  -4   6 -11    1.50    2.01
   4   6  12    3.72    2.38
  -4  -6  12    7.55    2.91
   4  -6 -12    4.35    2.26
  -4   6 -12    1.33    2.07
   4   6  13    7.81    3.13
  -4  -6  13   -3.40    2.60
  -4  -6  14    2.88    2.44
   4   7 -14    2.29    2.08
   4   7 -13    1.91    2.48
  -4   7  13    4.87    2.79
  -4  -7 -13    0.23    1.95
   4   7 -13   -0.59    1.82
   4  -7  12   -0.98    2.02
   4   7 -12    4.74    2.67
  -4   7  12    2.01    1.83
  -4  -7 -12   -0.93    2.46
   4   7 -12   -2.96    2.54
   4  -7  11    5.84    3.04
   4   7 -11   -3.39    2.40
  -4   7  11    2.84    1.94
  -4  -7 -11    6.44    3.69
   4   7 -11   -3.69    2.86
   4  -7  10    4.45    2.24
   4   7 -10    5.34    2.42
  -4   7  10    1.53    1.97
  -4  -7 -10    3.13    2.77
  -4  -7 -10    6.64    2.61
  -4   7  10    2.49    2.04
   4  -7   9   -0.83    1.83
   4   7  -9    2.46    2.06
  -4   7   9    4.95    2.29
  -4  -7  -9    1.84    2.03
  -4   7   9   -0.18    1.87
  -4  -7  -9    3.63    2.81
   4   7  -9    3.72    2.76
   4  -7   8    1.58    1.75
  -4   7   8    2.85    1.84
   4   7  -8    4.18    2.06
  -4  -7  -8    4.84    2.94
  -4   7   8   -2.66    2.58
   4   7  -8    2.29    2.45
  -4  -7  -8   -1.13    2.25
   4  -7   7   -1.01    1.96
  -4   7   7   -1.83    1.88
   4   7  -7    3.30    2.01
  -4  -7  -7   -0.41    1.49
  -4   7   7    6.81    3.13
   4   7  -7    3.70    2.42
  -4  -7  -7    0.16    1.84
  -4  -7  -6    4.62    2.76
   4  -7   6    4.62    2.08
  -4   7   6    5.52    1.96
   4   7  -6    4.44    1.91
  -4  -7  -6    3.64    2.15
  -4   7   6    6.38    3.04
   4   7  -6    6.13    2.73
  -4  -7  -5    2.78    2.93
   4  -7   5    5.05    2.12
  -4   7   5    6.18    1.97
   4   7  -5    7.50    2.27
  -4  -7  -5    7.24    2.64
  -4   7   5    7.18    4.01
   4   7  -5    1.91    1.73
  -4  -7  -4   10.81    4.02
   4  -7   4    7.52    2.52
  -4   7   4    7.88    2.07
   4   7  -4   10.07    2.63
  -4  -7  -4    7.60    2.41
  -4   7   4    9.89    3.97
   4  -7   3   -2.98    2.11
  -4  -7  -3    0.36    2.62
  -4   7   3   -1.59    1.34
   4   7  -3   -1.38    1.72
  -4   7   3   -2.90    3.85
   4  -7   2    3.17    1.82
  -4   7   2    3.37    1.38
   4   7  -2    0.98    1.35
  -4   7   2    1.08    2.88
   4  -7   1   -0.01    1.47
  -4  -7  -1    0.62    2.49
  -4   7   1    2.42    1.17
   4   7  -1    3.40    1.76
   4  -7   0   13.26    2.88
  -4  -7   0   16.34    5.07
  -4   7   0   11.57    2.16
   4   7   0   11.66    2.30
  -4  -7   0   14.60    2.24
  -4   7   0   21.44    5.41
   4  -7  -1    2.82    1.84
  -4  -7   1   -0.42    2.67
  -4   7  -1    2.66    1.28
  -4  -7   1    2.19    1.15
   4   7   1    2.15    1.29
  -4   7  -1    5.99    3.34
   4  -7  -2    2.90    1.77
  -4  -7   2    5.90    2.99
  -4   7  -2    3.52    1.31
  -4  -7   2    3.54    1.32
   4   7   2    5.66    2.03
  -4   7  -2    7.26    3.46
   4   7   3    2.44    1.70
  -4  -7   3    2.71    3.10
   4  -7  -3    1.09    1.65
  -4   7  -3   -1.71    1.17
  -4  -7   3    2.30    1.36
  -4   7  -3   -3.91    3.97
   4   7   3   -0.89    1.45
   4   7   4    9.00    2.31
  -4  -7   4    5.63    2.90
   4  -7  -4    6.40    2.02
  -4  -7   4   10.39    2.12
  -4   7  -4   11.43    4.30
   4   7   5    2.05    1.74
  -4  -7   5    1.89    2.49
   4  -7  -5    4.19    1.77
  -4  -7   5    3.54    1.65
  -4   7  -5    5.83    3.46
   4   7   6    5.94    2.16
  -4  -7   6    5.99    3.12
   4  -7  -6    1.02    1.48
  -4  -7   6    6.28    1.94
  -4   7  -6    9.08    3.85
   4   7   7   -0.04    1.54
   4  -7  -7   -1.08    1.44
  -4  -7   7    0.31    1.12
  -4   7  -7    3.78    2.63
  -4  -7   7   -1.24    2.83
   4   7   8    4.03    1.98
   4  -7  -8    3.43    1.99
  -4  -7   8   -1.07    1.18
   4  -7  -8    1.86    1.47
  -4   7  -8   -0.12    1.95
  -4  -7   8   -1.15    1.75
   4   7   9   -0.81    1.83
   4  -7  -9   -1.13    1.62
  -4  -7   9    2.97    1.78
   4  -7  -9    1.91    1.69
  -4   7  -9    2.29    2.28
  -4  -7   9    0.56    1.95
   4   7  10    3.92    2.34
   4  -7 -10    5.19    2.07
  -4  -7  10    3.40    2.01
   4  -7 -10    3.26    2.15
  -4  -7  10    7.14    2.88
  -4   7 -10    5.47    2.58
  -4   7 -10    2.59    2.30
   4   7  11    1.61    2.00
   4  -7 -11   -3.52    2.21
  -4  -7  11    1.02    1.43
   4  -7 -11    0.76    1.83
  -4   7 -11    0.25    1.99
   4   7  12    5.05    2.41
  -4  -7  12    0.84    1.87
   4  -7 -12   -0.71    1.67
  -4   7 -12   -1.43    2.76
  -4  -7  13   -0.09    1.98
   4   8 -13    0.00    1.90
   4   8 -12    0.29    1.94
  -4   8  12   -1.74    2.26
  -4  -8 -12    0.63    2.43
   4   8 -12   -2.61    2.99
   4  -8  11    2.45    2.43
   4   8 -11    0.95    2.19
  -4   8  11    3.34    1.88
  -4  -8 -11   -3.65    2.81
   4   8 -11    5.02    2.94
   4  -8  10    2.03    2.15
   4   8 -10   -2.88    2.54
  -4   8  10    0.13    1.71
  -4  -8 -10    3.85    2.79
  -4   8  10    5.77    2.94
  -4  -8 -10   -1.95    1.72
   4   8 -10    0.03    2.17
   4  -8   9    0.55    1.62
   4   8  -9    2.20    2.09
  -4   8   9   -1.39    1.61
  -4  -8  -9   -3.43    2.68
  -4   8   9   -0.13    2.05
   4   8  -9    1.10    2.44
  -4  -8  -9    0.38    1.64
  -4  -8  -8    5.69    2.67
   4  -8   8    2.48    1.97
  -4   8   8   -1.58    2.04
   4   8  -8    2.06    1.73
  -4  -8  -8    1.11    2.17
  -4   8   8   -0.75    2.47
   4   8  -8    3.76    2.35
   4  -8   7    2.68    2.10
  -4   8   7    4.23    1.97
   4   8  -7    4.98    2.53
  -4  -8  -7    2.53    1.93
  -4   8   7   -0.93    2.96
   4   8  -7    0.68    2.08
   4  -8   6    1.01    1.77
  -4  -8  -6    4.69    2.69
  -4   8   6   -0.57    1.39
   4   8  -6    3.51    1.92
  -4  -8  -6    4.31    2.32
  -4   8   6    1.62    2.07
   4   8  -6    0.72    1.86
   4  -8   5   -1.31    1.61
  -4  -8  -5    2.05    2.45
  -4   8   5   -0.32    1.23
   4   8  -5    1.28    1.52
  -4  -8  -5    1.76    1.95
   4  -8   4    0.80    1.59
  -4  -8  -4    2.35    2.42
  -4   8   4    1.30    1.09
   4   8  -4    4.46    2.03
  -4   8   4    4.02    2.48
   4  -8   3    2.83    1.73
  -4  -8  -3   -0.60    3.23
  -4   8   3    2.66    1.55
   4   8  -3    2.86    1.95
  -4   8   3   -4.36    4.39
   4  -8   2    6.44    2.45
  -4  -8  -2   10.88    4.34
  -4   8   2    8.85    2.06
   4   8  -2    6.14    2.20
   4  -8   1   -0.97    1.66
  -4   8   1    1.26    1.12
   4   8  -1    0.79    1.10
   4  -8   0   -0.22    1.89
  -4   8   0    0.06    1.07
   4   8   0    0.92    1.52
   4  -8  -1    2.00    1.56
  -4  -8   1    0.03    3.09
  -4   8  -1    0.03    1.00
  -4  -8   1    1.40    1.14
   4   8   1   -0.29    1.04
   4  -8  -2    6.39    2.39
  -4  -8   2    9.63    4.87
  -4   8  -2    8.36    1.86
  -4  -8   2    6.64    1.73
   4   8   2    6.57    2.10
   4   8   3    2.53    1.95
   4  -8  -3    0.03    1.49
  -4  -8   3   -0.67    2.73
  -4   8  -3    1.78    1.07
  -4  -8   3    2.63    1.35
  -4   8  -3    2.26    2.97
   4   8   3    2.29    1.69
   4   8   4    5.32    2.20
   4  -8  -4    2.29    1.76
  -4  -8   4    2.31    2.89
  -4   8  -4    3.70    1.62
  -4  -8   4    4.36    1.78
  -4   8  -4    7.05    3.11
   4   8   4    2.93    1.62
   4   8   5   -0.61    1.45
   4  -8  -5    2.75    1.64
  -4  -8   5   -1.87    1.54
  -4   8  -5   -0.80    2.91
   4   8   6    1.14    1.32
  -4  -8   6   -1.53    3.17
   4  -8  -6   -0.83    1.83
  -4  -8   6    5.29    1.99
  -4   8  -6   -0.17    2.73
   4   8   7    2.26    1.99
  -4  -8   7    3.44    2.42
   4  -8  -7    2.44    1.81
  -4  -8   7    4.30    2.10
  -4   8  -7    2.35    2.05
  -4  -8   8    1.10    2.36
   4   8   8    1.24    1.47
   4  -8  -8    7.11    2.52
  -4  -8   8    2.84    1.66
  -4   8  -8    4.11    3.02
   4   8   9    1.37    1.50
   4  -8  -9    2.30    1.99
  -4  -8   9    4.45    2.36
   4  -8  -9    1.93    1.86
  -4  -8   9   -3.35    2.46
   4   8  10    3.21    2.32
   4  -8 -10   -0.78    1.59
  -4  -8  10    3.84    2.28
   4  -8 -10   -0.29    1.73
  -4   8 -10   -2.97    2.67
  -4  -8  10    0.34    1.52
  -4   8 -10    7.13    3.33
   4   8  11    1.42    2.29
   4  -8 -11    3.97    2.27
  -4  -8  11   -4.82    2.46
   4  -8 -11   -0.12    1.95
  -4   8 -11   -1.64    2.49
   4  -8 -12    1.24    1.44
  -4  -8  12   -1.85    2.07
  -4  -8  13    0.16    1.65
   4   9 -12   -0.71    2.15
  -4  -9 -12   -2.07    3.16
   4   9 -12   -0.98    2.15
   4   9 -11   -4.69    2.87
  -4   9  11   -0.67    1.66
  -4  -9 -11   -3.12    2.86
   4   9 -11   -5.56    3.20
   4  -9  10    2.97    1.88
   4   9 -10   -2.99    2.75
  -4   9  10    2.32    2.04
  -4  -9 -10    0.35    2.22
  -4   9  10   -1.05    2.19
   4   9 -10    0.97    2.10
  -4  -9 -10    2.73    2.06
  -4  -9  -9    0.53    2.31
   4  -9   9    1.19    1.44
   4   9  -9    0.62    1.57
  -4   9   9   -1.92    1.99
  -4  -9  -9    3.31    3.23
  -4   9   9   -1.71    2.29
   4   9  -9    5.58    2.66
  -4  -9  -8   -1.78    2.28
   4  -9   8    2.24    2.07
  -4   9   8   -0.12    1.77
   4   9  -8   -0.05    1.94
  -4  -9  -8    1.19    2.33
  -4   9   8   -0.84    2.64
   4   9  -8    1.43    2.33
   4  -9   7    4.88    2.51
  -4  -9  -7   -2.66    2.92
  -4   9   7   -3.80    2.07
   4   9  -7    0.15    1.93
  -4  -9  -7    3.21    2.30
  -4   9   7    2.21    2.01
   4  -9   6    6.39    2.46
  -4  -9  -6   11.99    3.81
  -4   9   6    5.78    1.92
   4   9  -6    6.62    2.48
  -4   9   6    5.48    3.69
   4  -9   5    0.12    1.72
  -4  -9  -5   -3.19    2.57
  -4   9   5    0.50    1.25
   4   9  -5    1.23    1.39
   4  -9   4    3.34    1.99
  -4  -9  -4    2.13    2.76
  -4   9   4    4.78    1.90
   4   9  -4   -0.66    1.47
   4  -9   3    3.76    2.17
  -4   9   3    0.60    1.19
  -4  -9  -3    2.42    2.88
   4   9  -3    2.01    1.77
   4  -9   2    1.08    1.74
  -4   9   2    0.50    1.23
   4   9  -2   -2.36    1.70
   4  -9   1    3.81    2.37
  -4   9   1    2.19    1.54
  -4  -9  -1   -3.15    5.07
   4   9  -1   -0.80    1.74
   4  -9   0   11.62    3.06
  -4   9   0    9.65    2.20
   4   9   0   10.87    2.49
   4  -9  -1    4.92    2.05
  -4   9  -1    2.01    1.59
  -4  -9   1    2.04    3.91
   4   9   1    2.34    1.66
  -4  -9   1    2.83    1.38
   4  -9  -2    0.30    1.57
  -4   9  -2    0.79    0.96
  -4  -9   2    2.81    4.06
  -4  -9   2    2.06    1.25
   4   9   2    0.26    1.36
   4   9   3    1.96    1.53
   4  -9  -3   -0.19    1.61
  -4   9  -3    0.07    1.05
  -4  -9   3   -0.42    1.00
   4   9   3    1.94    1.20
   4   9   4    4.07    2.13
   4  -9  -4    2.07    2.01
  -4   9  -4    0.32    1.04
  -4  -9   4    4.45    3.64
  -4  -9   4    0.71    1.30
   4   9   4    1.99    1.35
   4   9   5    1.43    1.47
   4  -9  -5    6.38    2.57
  -4   9  -5    0.82    1.00
  -4  -9   5    7.33    4.18
  -4  -9   5    1.84    1.32
   4   9   5    2.13    1.77
   4   9   6    7.35    2.57
   4  -9  -6    5.06    2.17
  -4  -9   6   -0.58    3.52
  -4  -9   6    5.62    2.08
  -4   9  -6    6.42    3.68
   4   9   7    0.04    1.67
   4  -9  -7    2.79    1.77
  -4  -9   7    2.62    3.07
  -4  -9   7   -0.02    1.28
  -4   9  -7   -0.36    3.13
   4   9   8    0.02    1.23
  -4  -9   8   -1.46    2.42
   4  -9  -8    1.69    1.65
  -4  -9   8    4.36    2.27
  -4   9  -8    1.33    2.22
   4   9   9   -0.17    1.61
  -4  -9   9   -1.78    2.91
   4  -9  -9    7.99    2.77
  -4  -9   9    8.24    2.67
   4  -9  -9   -0.59    1.96
  -4   9  -9    1.28    2.52
   4   9  10    5.08    2.51
   4  -9 -10    4.90    2.52
  -4  -9  10    3.85    2.24
   4  -9 -10    2.54    2.12
  -4   9 -10   -0.72    2.29
  -4   9 -10    0.53    2.40
  -4  -9  10    6.21    3.05
   4  -9 -11   -1.97    2.04
  -4  -9  11    1.10    1.78
  -4   9 -11   -0.04    2.10
   4  -9 -12    0.83    1.88
  -4  -9  12    4.97    2.57
  -4  10  11    5.93    2.86
  -4 -10 -11   -0.83    2.11
   4  10 -11    4.14    2.87
  -4 -10 -10    2.38    2.52
   4  10 -10   -4.59    2.75
  -4  10  10    2.15    1.89
  -4 -10 -10   -2.10    2.71
  -4  10  10   -0.50    1.39
   4  10 -10    4.41    2.73
  -4 -10  -9   -3.40    2.93
   4 -10   9    0.10    1.46
   4  10  -9    5.14    2.93
  -4  10   9    2.00    1.91
  -4 -10  -9    8.52    4.05
  -4  10   9    4.40    2.66
   4 -10   8    0.49    1.90
  -4 -10  -8   -0.99    2.79
  -4  10   8   -0.24    1.45
   4  10  -8   -4.27    2.66
  -4 -10  -8   -2.01    2.70
  -4  10   8    2.53    2.66
   4 -10   7    3.88    2.59
  -4 -10  -7   -3.78    2.68
  -4  10   7    0.50    1.58
   4  10  -7    1.80    1.74
  -4  10   7    3.91    2.53
   4 -10   6    1.00    1.81
  -4  10   6    0.09    1.56
   4  10  -6   -1.38    2.08
   4 -10   5    8.06    2.90
  -4  10   5    6.12    1.95
  -4 -10  -5    7.52    3.96
   4  10  -5    4.32    1.93
   4 -10   4    1.69    2.11
  -4  10   4   -2.46    1.56
  -4 -10  -4    0.17    2.25
   4  10  -4    2.08    1.93
   4 -10   3    1.75    1.68
  -4  10   3   -0.88    1.46
  -4 -10  -3    1.93    2.95
   4  10  -3    2.67    1.50
   4 -10   2   -0.34    1.62
  -4  10   2    1.03    1.32
  -4 -10  -2   -3.82    3.88
   4  10  -2   -0.25    1.79
   4 -10   1    7.88    2.65
  -4  10   1    7.09    2.11
  -4 -10  -1   13.34    5.75
   4  10  -1    5.15    2.16
   4 -10   0    1.07    1.92
  -4  10   0    1.01    1.30
  -4 -10   0   -0.51    4.26
   4  10   0    0.92    1.44
   4 -10  -1    7.11    2.54
  -4  10  -1    7.13    2.05
  -4 -10   1   14.88    6.07
   4  10   1    8.29    2.26
  -4 -10   1    9.56    2.19
   4 -10  -2   -0.06    1.21
  -4  10  -2    0.96    1.24
  -4 -10   2    4.51    4.13
  -4 -10   2   -0.87    1.44
   4  10   2    2.16    1.56
   4  10   3    4.84    2.24
   4 -10  -3    0.90    1.81
  -4  10  -3    4.99    1.88
  -4 -10   3   -0.06    3.22
  -4 -10   3    0.86    1.21
   4  10   3    3.52    1.69
   4  10   4   -0.86    1.43
   4 -10  -4   -0.33    1.48
  -4  10  -4    1.87    1.35
  -4 -10   4   -3.31    4.29
  -4 -10   4    1.33    1.45
   4  10   4    1.05    1.76
   4  10   5    5.79    2.50
   4 -10  -5    6.20    2.54
  -4  10  -5    5.03    1.85
  -4 -10   5    8.39    4.48
  -4 -10   5    5.29    1.73
   4  10   5    5.48    2.20
   4  10   6    0.33    1.67
   4 -10  -6   -0.21    1.43
  -4 -10   6    3.30    3.34
  -4 -10   6    2.16    1.37
   4  10   6   -1.70    2.04
   4  10   7    0.67    1.25
   4 -10  -7    2.23    2.11
  -4 -10   7    0.25    2.62
  -4 -10   7    0.83    1.34
   4  10   8    1.90    1.77
   4 -10  -8   -0.08    1.80
  -4 -10   8    1.29    2.33
  -4 -10   8    0.60    1.30
  -4  10  -8    1.00    2.40
   4  10   9    0.54    1.88
  -4 -10   9    1.70    2.57
   4 -10  -9    1.86    1.88
  -4 -10   9    0.51    1.30
   4 -10  -9    0.67    1.92
  -4  10  -9    1.60    2.18
  -4 -10  10    3.05    2.14
   4 -10 -10    3.27    2.19
  -4 -10  10    2.23    1.73
  -4  10 -10   -1.53    2.56
  -4  10 -10    6.03    2.98
   4 -10 -11    0.96    1.79
  -4 -10  11   -0.72    1.90
  -4 -11 -10   -4.33    4.07
  -4  11  10   -2.12    2.25
  -4 -11  -9    2.14    2.62
   4  11  -9    1.89    2.63
  -4  11   9   -0.64    1.98
  -4  11   9    3.07    3.06
   4 -11   8    1.44    2.04
  -4 -11  -8   -2.23    2.59
  -4  11   8    1.04    1.97
   4  11  -8    0.82    1.80
   4 -11   7   -0.29    1.82
  -4 -11  -7    4.38    3.15
  -4  11   7   -2.19    1.59
   4  11  -7    6.79    2.77
   4 -11   6    0.66    1.70
  -4  11   6    5.02    2.26
   4  11  -6    0.37    1.85
   4 -11   5   -1.15    1.68
  -4  11   5    2.11    1.55
   4  11  -5   -0.79    1.52
  -4 -11  -5   -0.34    2.73
   4 -11   4   -0.19    1.98
  -4  11   4    4.10    1.83
   4  11  -4    2.34    2.20
  -4 -11  -4    0.01    3.08
   4 -11   3    1.75    1.84
  -4  11   3    2.74    1.59
   4  11  -3    0.69    1.53
  -4 -11  -3    3.14    3.56
   4 -11   2    0.47    1.73
  -4  11   2   -0.58    1.33
   4  11  -2    2.09    1.58
  -4 -11  -2    0.10    3.23
   4 -11   1    6.81    2.48
  -4  11   1    2.23    1.42
   4  11  -1    4.94    2.13
  -4 -11  -1    6.50    4.77
   4 -11   0    0.63    1.83
  -4  11   0    2.96    1.46
   4  11   0    3.72    1.91
  -4 -11   0    7.81    4.81
   4 -11  -1    3.49    2.10
  -4  11  -1    2.90    1.53
   4  11   1    2.04    1.63
  -4 -11   1    0.62    1.24
  -4 -11   1    2.04    3.47
   4 -11  -2    1.92    2.21
  -4  11  -2    0.35    1.41
   4  11   2   -0.22    1.35
  -4 -11   2    0.17    0.91
  -4 -11   2    2.74    3.73
   4  11   3    2.25    2.02
   4 -11  -3    5.24    2.26
  -4  11  -3    1.25    1.34
  -4 -11   3    1.87    1.51
   4  11   3    3.24    1.95
   4  11   4    2.50    1.96
   4 -11  -4    7.96    2.98
  -4  11  -4    0.97    1.37
  -4 -11   4    3.95    3.87
  -4 -11   4    3.80    1.81
   4  11   4    2.15    1.79
   4  11   5    2.73    1.90
   4 -11  -5    2.26    2.07
  -4  11  -5    3.97    2.06
  -4 -11   5    0.22    1.28
   4  11   5   -0.22    1.84
   4  11   6   -1.10    1.99
   4 -11  -6   -0.03    1.63
  -4  11  -6    2.18    1.63
  -4 -11   6    4.63    3.15
  -4 -11   6   -0.66    1.63
   4  11   6   -0.39    1.26
   4  11   7   -4.05    2.44
   4 -11  -7   -1.45    2.07
  -4 -11   7   -1.08    2.76
  -4 -11   7    6.04    2.34
   4  11   7    2.53    1.77
   4  11   8   -0.43    1.56
   4 -11  -8   -3.11    2.37
  -4 -11   8    1.16    2.57
  -4 -11   8    3.53    2.16
   4  11   8    2.40    1.90
   4 -11  -9    4.47    2.46
  -4 -11   9    3.22    3.00
  -4 -11   9    0.20    1.80
   4 -11 -10    1.32    1.89
  -4 -11  10    2.98    2.29
  -4  11 -10    2.62    2.37
  -4 -12  -9    2.86    2.44
  -4 -12  -8    1.32    2.82
  -4  12   8   -3.08    1.94
   4 -12   7    0.08    1.48
  -4  12   7    1.03    1.82
   4  12  -7   -3.98    2.44
  -4 -12  -7    1.48    2.29
   4 -12   6    6.11    2.77
  -4  12   6    3.98    2.32
   4  12  -6    3.07    2.44
  -4 -12  -6    2.60    3.22
   4 -12   5   -0.03    2.19
  -4  12   5    0.24    1.31
   4  12  -5   -0.37    1.35
  -4 -12  -5    1.07    2.91
   4 -12   4   -0.42    1.71
  -4  12   4   -0.14    1.53
   4  12  -4    1.35    1.50
  -4 -12  -4    0.83    2.35
   4 -12   3   -0.01    1.81
  -4  12   3    0.21    1.15
   4  12  -3    3.33    2.39
   4 -12   2    0.44    2.10
  -4  12   2   -1.03    1.40
   4  12  -2   -1.17    1.82
  -4 -12  -2   -3.35    3.90
   4 -12   1   -1.20    2.09
  -4  12   1    0.51    1.42
   4  12  -1   -2.79    2.09
  -4 -12  -1    3.20    4.97
   4 -12   0    0.47    1.44
  -4  12   0   -2.77    1.93
   4  12   0    4.30    2.40
  -4 -12   0    6.31    5.66
   4 -12  -1   -0.37    1.59
  -4  12  -1    0.73    1.29
   4  12   1    0.28    1.62
  -4 -12   1   -0.58    1.00
   4 -12  -2    2.48    1.86
  -4  12  -2   -2.92    1.88
   4  12   2   -0.87    1.37
  -4 -12   2    2.66    1.76
  -4 -12   2    3.86    4.61
   4  12   3    2.00    1.88
   4 -12  -3   -0.25    1.63
  -4  12  -3    0.57    1.22
  -4 -12   3   -0.10    1.37
   4  12   3   -0.48    1.84
  -4 -12   3   -4.25    3.78
   4  12   4    2.72    1.82
   4 -12  -4    1.15    1.71
  -4  12  -4   -0.92    1.28
  -4 -12   4    1.32    1.33
   4  12   4    1.69    1.55
   4  12   5    2.28    1.85
   4 -12  -5   -1.38    1.76
  -4  12  -5    1.49    1.69
  -4 -12   5   -0.23    1.39
  -4 -12   5    0.47    3.77
   4  12   5    2.86    1.59
   4  12   6    3.21    2.19
   4 -12  -6   -2.88    2.60
  -4  12  -6   -1.46    1.60
  -4 -12   6   -2.78    3.87
  -4 -12   6   -3.74    2.08
   4  12   6    0.54    1.51
   4  12   7   -1.42    2.32
   4 -12  -7    4.72    2.81
  -4  12  -7    2.69    1.72
  -4 -12   7   -6.17    4.32
  -4 -12   7   -0.85    1.67
   4 -12  -8    1.32    1.77
  -4 -12   8    1.20    2.98
  -4 -12   8    2.87    1.77
  -4 -12   9   -7.73    4.30
  -4  13   6    2.25    2.02
  -4  13   5    0.33    1.73
  -4 -13  -5    1.66    3.12
   4 -13   4    2.14    2.37
  -4  13   4   -2.86    2.04
   4  13  -4   -1.59    2.19
   4 -13   3    7.60    3.06
  -4  13   3    8.94    2.81
   4  13  -3    9.12    2.86
  -4 -13  -3    6.74    4.72
   4 -13   2   -0.79    1.70
  -4  13   2   -1.21    1.63
   4  13  -2    2.09    2.00
  -4 -13  -1   10.89    6.27
   4 -13   1    3.83    2.38
  -4  13   1    3.14    1.69
   4  13  -1    4.50    2.38
   4 -13   0   -0.18    1.73
  -4  13   0    2.04    1.62
   4  13   0    1.11    1.91
   4 -13  -1    1.39    1.85
  -4  13  -1    2.61    1.53
   4  13   1    3.87    2.00
   4 -13  -2   -3.77    2.42
  -4  13  -2    1.99    1.59
   4  13   2   -1.08    1.72
  -4 -13   2    0.89    1.41
  -4 -13   2    1.25    4.07
   4  13   3    8.99    2.85
   4 -13  -3    6.15    2.80
  -4  13  -3    1.24    1.35
   4  13   3    1.12    1.66
  -4 -13   3    4.81    1.85
  -4 -13   3    2.63    3.07
   4  13   4   -2.65    2.08
   4 -13  -4    2.26    2.32
  -4  13  -4   -1.16    1.60
  -4 -13   4    0.07    1.13
   4  13   4    2.66    1.89
  -4 -13   4    0.56    3.78
   4 -13  -5   -1.08    2.15
  -4  13  -5    0.40    1.29
  -4 -13   5   -0.20    1.51
  -4  13  -6    0.42    1.64
  -4 -13   6    1.00    1.44
  -4  13  -7    2.96    1.99
  -4 -13   7   -0.36    2.18
  -4  14   4    0.61    1.57
  -4  14   3    2.94    1.94
  -4  14   2    0.06    1.55
  -4  14   1    1.37    1.54
  -4  14   0   -1.63    1.54
  -4  14  -1    1.26    1.73
  -4  14  -2   -0.29    1.67
  -4 -14   2    4.41    2.15
  -4  14  -3    1.13    1.33
  -4 -14   3   -1.75    1.74
  -4  14  -4   -3.48    2.24
  -4 -14   4    2.74    1.74
  -4  14  -5   -1.16    1.51
  -4  14  -6    1.53    1.70
   5   0   0    0.78    1.24
  -5   0   0   -5.31    3.85
   5   0  -1   -0.48    1.47
  -5   0  -1    2.00    3.37
  -5   0   1   -1.40    3.35
   5   0   2    0.79    1.30
   5   0  -2    1.66    1.71
  -5   0  -2    3.86    4.37
  -5   0   2    0.50    3.12
   5   0   3    2.29    1.60
   5   0   3    2.84    1.56
   5   0  -3    5.38    2.30
  -5   0  -3    2.81    2.61
  -5   0   3    7.54    3.83
   5   0   4   -1.29    1.68
   5   0   4   -0.64    1.45
   5   0  -4    0.89    1.31
  -5   0  -4   -0.66    3.20
  -5   0   4    3.96    4.23
   5   0   5    1.67    1.54
   5   0   5    0.03    1.38
   5   0  -5   -0.84    1.57
  -5   0  -5    0.81    3.12
   5   0   6    2.09    2.10
   5   0   6    3.19    2.29
   5   0  -6    2.68    2.30
  -5   0  -6    2.04    2.95
  -5   0   6    3.65    3.43
   5   0   7    2.37    1.70
   5   0  -7    2.74    2.31
  -5   0  -7    1.38    3.00
  -5   0   7    0.50    2.52
   5   0   8    1.76    1.74
   5   0  -8    4.89    2.84
  -5   0  -8   -1.03    2.34
  -5   0   8    2.49    2.77
   5   0   9    0.20    2.17
   5   0  -9    3.35    2.42
  -5   0  -9   -1.03    2.42
  -5   0   9    1.00    1.91
   5   0  10   -4.76    2.78
   5   0 -10   -3.57    2.61
  -5   0 -10   -1.73    2.94
  -5   0  10    1.46    2.04
   5   0  11   -4.30    2.90
   5  -1  11    0.92    2.19
   5  -1  10    3.14    2.78
   5   1 -10    5.44    2.92
  -5   1  10    5.09    2.81
  -5  -1 -10    3.26    2.34
   5  -1   9   -1.23    2.05
   5   1  -9    2.52    2.36
  -5   1   9   -0.72    2.51
  -5  -1  -9    4.07    3.03
   5  -1   8    1.83    2.18
   5   1  -8   -0.89    2.47
  -5   1   8    2.00    1.98
  -5  -1  -8    0.78    3.11
   5  -1   7    0.06    1.82
   5  -1   7   -2.03    1.90
   5   1  -7    2.10    2.19
  -5   1   7    6.19    3.55
  -5  -1  -7    1.44    2.42
   5  -1   6    2.63    2.09
   5   1  -6    1.06    1.78
  -5   1   6    8.37    4.41
  -5  -1  -6    2.56    2.94
   5  -1   5   -0.20    1.36
   5   1  -5    2.41    2.01
  -5  -1  -5    2.04    2.62
   5  -1   4    1.99    1.78
   5   1  -4    3.29    2.15
  -5   1   4    1.54    3.55
  -5  -1  -4    1.56    2.93
   5  -1   3    3.69    1.90
   5   1  -3    1.52    1.62
  -5   1   3    2.26    3.05
  -5  -1  -3    0.81    3.35
   5  -1   2    2.85    1.56
   5   1  -2    4.17    2.35
  -5   1   2    2.35    3.31
  -5  -1  -2   -2.29    2.91
   5  -1   1    0.99    1.00
   5   1  -1   -1.32    1.57
  -5   1   1    1.37    2.91
   5   1   0    2.64    1.38
   5  -1   0    1.52    1.21
  -5   1   0    6.54    4.38
  -5  -1   0    2.64    3.98
   5   1   1    4.87    1.83
   5   1   1    3.65    1.40
   5  -1  -1    2.22    1.75
  -5   1  -1   -1.78    3.62
  -5  -1   1    0.56    3.29
   5   1   2    0.92    1.29
   5  -1  -2   -0.97    1.39
   5   1   2    3.15    1.38
  -5   1  -2    0.05    2.76
  -5  -1   2   -0.71    2.59
   5   1   3    3.19    1.61
   5   1   3    4.81    1.78
   5  -1  -3    2.40    1.73
  -5   1  -3    9.34    4.88
  -5  -1   3    3.22    3.33
   5   1   4    1.34    1.26
   5   1   4    3.38    1.82
   5  -1  -4    6.54    2.45
  -5   1  -4    4.70    3.09
  -5  -1   4    2.39    2.56
   5   1   5   -2.18    1.68
   5   1   5   -1.01    1.69
   5  -1  -5    1.50    1.76
  -5   1  -5    3.81    2.71
  -5  -1   5    3.62    2.46
   5   1   6    0.86    1.41
   5  -1  -6   -1.97    2.10
  -5   1  -6    4.55    2.84
  -5  -1   6    7.73    3.50
   5   1   7   -0.93    1.39
   5  -1  -7   -0.05    1.90
  -5   1  -7    1.79    3.07
  -5  -1   7    1.26    2.87
   5   1   8    0.53    1.31
   5  -1  -8   -2.63    2.69
  -5   1  -8    2.38    2.94
  -5  -1   8    2.42    2.89
   5   1   9    2.83    2.35
   5  -1  -9    2.19    2.10
  -5   1  -9    2.60    2.25
  -5  -1   9    1.74    2.44
   5   1  10   -0.44    2.30
   5  -1 -10   -0.57    2.11
  -5   1 -10    1.80    2.08
   5   1  11    2.36    2.26
   5  -2  11   -0.94    1.97
  -5  -2 -10    3.11    2.34
   5   2 -10   -0.39    1.90
  -5   2  10   -3.42    2.81
   5  -2   9    3.20    2.53
  -5  -2  -9    3.57    2.63
   5   2  -9    4.04    2.44
  -5   2   9   -1.38    2.23
  -5  -2  -9    3.24    2.99
   5  -2   8    2.05    2.03
   5   2  -8   -0.41    1.76
  -5   2   8   -2.34    2.46
  -5  -2  -8   -0.39    2.19
   5  -2   7    3.56    2.23
   5   2  -7   -1.61    1.92
  -5   2   7   -2.81    3.12
  -5  -2  -7   -0.76    3.10
   5  -2   6   -1.79    2.00
   5   2  -6   -3.60    2.78
  -5   2   6    2.01    2.59
  -5  -2  -6   -0.58    2.91
   5  -2   5    3.67    1.74
   5   2  -5    3.74    2.24
  -5   2   5   -0.45    2.82
  -5  -2  -5   -4.00    4.24
   5  -2   4   -1.96    1.96
   5   2  -4    0.62    1.82
  -5   2   4    3.35    2.64
  -5  -2  -4   -1.33    3.24
   5  -2   3   -1.50    1.57
  -5  -2  -3    1.71    3.59
   5   2  -3   -0.78    1.36
  -5   2   3    1.76    3.68
  -5  -2  -3   -1.46    2.56
   5   2  -2    0.13    1.13
   5  -2   2   -0.72    1.16
  -5  -2  -2   -1.76    2.92
  -5   2   2    0.21    2.73
  -5  -2  -2    3.10    3.68
   5   2  -1    3.09    1.45
   5  -2   1    2.87    1.63
  -5  -2  -1    3.01    3.23
   5   2  -1    0.96    1.10
  -5   2   1    9.30    4.58
  -5  -2  -1    0.54    3.35
   5   2   0    1.71    1.52
   5  -2   0    3.59    1.75
  -5  -2   0    1.24    3.31
   5   2   0   -0.89    1.14
  -5   2   0    3.62    4.58
  -5  -2   0    1.60    3.28
   5   2   1    2.17    1.46
   5  -2  -1    2.30    1.31
  -5  -2   1   -4.62    4.29
   5   2   1    0.40    1.00
  -5   2  -1   -5.58    4.68
  -5  -2   1    6.33    4.38
   5   2   2   -0.94    1.09
  -5  -2   2    0.40    2.27
   5  -2  -2    0.81    1.58
   5   2   2   -1.09    1.19
  -5   2  -2    0.00    2.74
  -5  -2   2   -4.09    3.76
   5   2   3    2.40    1.60
  -5  -2   3    1.02    3.11
   5  -2  -3    3.46    1.90
   5   2   3   -2.64    1.84
  -5   2  -3    2.31    3.95
  -5  -2   3    0.90    2.83
   5   2   4   -0.85    1.36
   5   2   4    1.12    1.49
  -5  -2   4   -1.07    2.48
   5  -2  -4    3.13    2.26
  -5   2  -4   -3.27    2.74
   5   2   5    4.05    1.97
   5  -2  -5    3.80    2.12
  -5   2  -5    0.54    2.62
  -5  -2   5    3.99    3.58
   5   2   6    3.34    2.42
   5  -2  -6   -0.63    1.93
  -5   2  -6    6.87    3.83
  -5  -2   6   -2.52    3.16
   5   2   7    0.19    1.79
   5  -2  -7   -4.30    2.84
  -5   2  -7   -4.31    2.99
   5   2   8    0.15    1.81
   5  -2  -8   -1.26    1.87
  -5   2  -8   -4.12    3.25
  -5  -2   8   -1.13    2.87
   5   2   9    1.13    1.77
   5  -2  -9    3.11    2.65
  -5   2  -9    1.72    2.27
  -5  -2   9   -2.37    2.57
   5   2  10    1.98    1.82
   5  -2 -10    0.90    1.78
  -5   2 -10   -1.32    2.04
   5   2  11    0.01    2.09
   5  -3  10    2.50    2.11
  -5  -3 -10    2.58    2.30
   5   3 -10   -4.06    2.71
  -5   3  10    0.60    1.64
   5  -3   9    1.04    1.97
  -5  -3  -9   -4.04    2.58
   5   3  -9    4.16    2.90
  -5   3   9    3.11    2.79
   5  -3   8    1.06    1.64
  -5  -3  -8   -3.98    2.23
   5   3  -8    0.34    2.34
  -5   3   8   -4.27    3.28
   5  -3   7   -1.47    2.11
  -5  -3  -7    6.69    2.87
   5   3  -7    2.93    2.15
  -5   3   7    1.38    2.20
  -5  -3  -7    4.64    3.77
   5  -3   6    5.31    2.31
  -5  -3  -6    3.20    2.74
   5   3  -6   -2.22    2.26
  -5   3   6    6.31    3.43
  -5  -3  -6   -0.96    2.73
   5  -3   5   -1.65    2.06
  -5  -3  -5    4.73    3.06
   5   3  -5    0.13    1.96
  -5   3   5   -1.69    3.06
  -5  -3  -5    1.91    2.65
   5  -3   4    0.38    1.47
  -5  -3  -4   -6.91    4.01
   5   3  -4    0.98    1.42
  -5   3   4    2.57    2.77
  -5  -3  -4   -3.49    3.68
   5  -3   3    0.56    1.65
  -5  -3  -3    8.42    4.52
   5   3  -3    1.71    1.45
  -5   3   3   -1.43    3.54
  -5  -3  -3   -1.83    3.54
   5  -3   2   -0.44    1.41
  -5  -3  -2    6.18    3.50
   5   3  -2    1.03    1.22
  -5   3   2   -3.29    3.89
  -5  -3  -2    2.63    3.25
   5   3  -1    4.76    1.93
   5  -3   1    0.70    1.40
   5   3  -1    1.91    1.09
  -5   3   1    7.32    4.21
  -5  -3  -1    6.18    3.80
   5   3   0    2.46    1.33
   5  -3   0    1.75    1.37
  -5  -3   0   -0.32    3.69
   5   3   0    3.67    1.53
  -5   3   0    1.08    3.21
  -5  -3   0    3.44    3.53
   5   3   1    1.99    1.25
   5  -3  -1    4.11    1.95
  -5  -3   1    4.02    3.63
   5   3   1    2.83    1.55
  -5   3  -1   -2.46    3.64
  -5  -3   1   -2.98    3.18
   5   3   2    4.69    1.93
   5  -3  -2    1.50    1.18
  -5  -3   2    1.96    2.85
   5   3   2   -0.09    1.23
  -5   3  -2    5.92    4.49
  -5  -3   2   -1.07    3.54
   5   3   3    0.32    1.39
  -5  -3   3   -0.24    2.98
   5  -3  -3    0.61    1.70
   5   3   3    0.63    1.27
  -5   3  -3   -0.41    2.87
  -5  -3   3    2.31    3.25
   5   3   4    0.62    1.45
  -5  -3   4   -0.63    2.30
   5  -3  -4   -1.29    1.61
  -5   3  -4   -4.91    3.98
  -5  -3   4   -2.04    3.38
   5   3   5    0.93    1.17
  -5  -3   5    1.89    3.63
   5  -3  -5    2.44    2.08
  -5   3  -5    2.83    3.58
  -5  -3   5   -1.59    2.92
   5   3   6    1.65    1.55
  -5  -3   6   -0.61    2.98
   5  -3  -6    1.97    2.14
  -5   3  -6    4.46    3.95
  -5  -3   6   -3.90    3.13
   5   3   7    0.65    1.33
  -5  -3   7    1.13    2.07
   5  -3  -7    2.79    2.17
  -5   3  -7   -5.12    3.98
  -5  -3   7    2.68    3.10
   5   3   8    5.17    2.34
   5  -3  -8    0.43    1.89
   5   3   9    1.92    1.76
   5  -3  -9    2.34    2.00
  -5   3  -9    0.70    2.25
   5   3  10   -1.87    2.26
  -5   3 -10   -1.02    2.42
  -5  -4 -10   -3.40    2.69
   5   4 -10   -2.59    2.59
  -5   4  10    3.78    2.55
   5  -4   9    3.35    2.24
  -5  -4  -9   -1.93    2.09
   5   4  -9   -0.49    1.61
  -5   4   9   -3.17    2.92
   5  -4   8   -1.97    2.29
  -5  -4  -8    1.43    2.01
  -5  -4  -8    2.34    2.04
   5   4  -8    8.06    3.39
  -5   4   8   -6.00    3.56
   5  -4   7    0.95    1.34
  -5  -4  -7    2.66    2.65
  -5  -4  -7   -4.15    2.76
   5   4  -7    2.92    2.08
  -5   4   7   -0.77    1.87
   5  -4   6    0.24    1.39
  -5  -4  -6    2.75    2.15
   5   4  -6    1.20    2.14
  -5   4   6    3.29    2.46
   5  -4   5    2.65    2.04
  -5  -4  -5    2.02    2.38
  -5   4   5   -3.94    3.52
   5  -4   4    2.03    1.47
  -5  -4  -4   -0.66    2.36
   5   4  -4    3.86    1.63
  -5   4   4    4.83    2.94
  -5  -4  -4   -2.45    3.49
   5  -4   3    0.87    1.57
   5   4  -3    4.49    1.83
  -5   4   3   -1.90    3.16
  -5  -4  -3   -0.40    3.30
   5  -4   2    6.47    2.34
  -5  -4  -2    2.95    2.77
   5   4  -2    1.42    1.27
  -5   4   2    3.04    3.15
  -5  -4  -2    1.55    3.12
   5  -4   1    3.21    2.03
  -5  -4  -1    0.86    3.01
   5   4  -1    3.22    1.80
  -5   4   1   -4.67    4.40
  -5  -4  -1    5.48    3.89
   5   4   0    3.30    1.48
   5  -4   0    3.56    1.75
  -5  -4   0    2.05    3.93
   5   4   0    4.16    1.75
  -5   4   0   11.59    5.75
  -5  -4   0    1.31    3.39
   5   4   1    1.62    1.28
   5  -4  -1   -0.49    1.76
  -5  -4   1    1.18    3.34
   5   4   1    3.18    1.39
  -5   4  -1    6.34    4.40
  -5  -4   1    5.75    4.28
   5   4   2    6.77    2.28
   5  -4  -2    5.35    1.89
  -5  -4   2    1.68    2.91
   5   4   2    6.87    2.17
  -5   4  -2    9.23    4.49
  -5  -4   2    4.32    3.47
   5   4   3    1.29    1.87
   5  -4  -3    2.16    1.34
  -5  -4   3   -4.90    4.00
   5   4   3    1.44    1.68
  -5   4  -3   -1.25    2.91
  -5  -4   3    2.17    3.17
   5   4   4    2.55    1.66
  -5  -4   4   -1.23    2.65
   5  -4  -4    0.80    1.53
   5   4   4    3.43    1.74
  -5   4  -4    4.10    3.56
  -5  -4   4   -0.09    2.43
   5   4   5   -0.35    1.31
  -5  -4   5    1.72    3.59
   5  -4  -5    0.64    1.56
  -5   4  -5    4.25    3.96
   5   4   6    4.11    2.14
   5  -4  -6    5.74    2.68
  -5   4  -6   -1.48    3.49
   5   4   7   -0.60    1.20
  -5  -4   7   -0.43    2.34
   5  -4  -7    1.22    1.44
  -5   4  -7    3.12    2.96
   5   4   8    2.40    1.95
  -5  -4   8   -1.29    2.75
   5  -4  -8    2.05    2.33
  -5   4  -8   -1.26    2.97
   5   4   9   -4.04    2.67
  -5  -4   9    0.76    2.16
   5  -4  -9    3.74    2.38
  -5   4  -9    1.11    2.50
   5   4  10    1.82    1.98
  -5   4 -10    3.15    2.60
  -5  -5 -10    1.05    2.05
   5   5 -10   -3.27    2.44
  -5   5  10    1.00    1.81
  -5  -5  -9   -3.71    2.80
  -5  -5  -9    1.06    1.86
   5   5  -9   -2.47    2.58
  -5   5   9   -1.91    2.41
   5  -5   8    1.85    2.16
  -5  -5  -8   -0.60    1.64
  -5  -5  -8    1.48    1.83
   5   5  -8   -1.85    2.77
  -5   5   8    0.22    2.42
   5  -5   7   -1.20    1.94
  -5  -5  -7   -1.46    2.99
  -5   5   7   -1.27    2.35
   5  -5   6    2.87    2.22
  -5  -5  -6    2.61    2.48
   5   5  -6    0.41    1.49
  -5   5   6    4.92    3.02
   5  -5   5   -1.78    2.05
  -5  -5  -5   -3.56    2.97
   5   5  -5   -1.18    1.72
  -5   5   5   -3.61    2.90
   5  -5   4    0.38    1.43
  -5  -5  -4    3.07    3.31
   5   5  -4    0.82    1.43
  -5   5   4    2.89    3.60
   5  -5   3   -0.39    1.51
  -5  -5  -3    0.83    2.98
   5   5  -3   -0.93    1.49
  -5   5   3    3.50    4.04
   5  -5   2    2.69    1.90
  -5  -5  -2    0.24    3.57
   5   5  -2   -0.18    1.24
  -5   5   2   -2.02    3.19
   5  -5   1    0.14    1.25
  -5  -5  -1   -6.60    4.10
   5   5  -1    4.92    2.13
  -5   5   1   -5.39    4.41
   5   5   0    4.85    2.24
   5  -5   0    1.19    1.77
  -5  -5   0    8.53    4.58
   5   5   0    4.35    2.01
  -5   5   0   -0.03    3.67
   5   5   1    1.09    1.48
   5  -5  -1    1.94    1.59
  -5  -5   1   -3.77    3.71
   5   5   1    2.32    1.70
  -5   5  -1   -5.96    4.52
   5   5   2   -0.24    1.56
   5  -5  -2    2.18    1.51
  -5  -5   2   -1.41    3.65
   5   5   2    0.06    1.38
  -5   5  -2    1.21    2.67
   5   5   3   -0.35    1.31
   5  -5  -3    3.57    1.71
   5   5   3    2.34    1.82
  -5   5  -3   -0.53    3.68
   5   5   4    2.19    1.63
   5  -5  -4    0.86    1.33
  -5  -5   4   -4.23    3.65
   5   5   4   -0.51    1.32
  -5   5  -4   -1.09    2.86
   5   5   5   -1.08    1.41
  -5  -5   5    2.31    2.18
   5  -5  -5   -0.34    1.77
  -5   5  -5   -3.46    3.38
   5   5   6    1.25    1.50
  -5  -5   6   -0.65    2.18
   5  -5  -6   -1.32    2.26
  -5   5  -6    0.62    2.72
   5   5   7   -0.28    1.56
  -5  -5   7   -3.08    2.52
   5  -5  -7   -2.87    2.04
  -5   5  -7   -0.04    2.36
   5   5   8    0.84    1.48
   5  -5  -8   -0.38    2.06
  -5   5  -8   -0.87    2.75
   5   5   9   -0.04    1.43
  -5  -5   9   -0.50    1.70
  -5   5  -9    0.94    2.28
  -5   5 -10    3.64    2.94
  -5  -6 -10    1.65    2.57
   5   6 -10    1.34    2.05
  -5   6  10   -2.40    2.59
  -5  -6  -9    2.25    2.03
  -5  -6  -9   -1.88    3.01
   5   6  -9    2.13    2.32
  -5   6   9    2.28    2.63
   5  -6   8   -0.61    1.45
  -5  -6  -8    1.51    2.31
  -5   6   8    2.25    2.39
   5  -6   7    5.58    2.53
   5   6  -7    0.21    1.78
  -5  -6  -7   -1.78    2.10
  -5   6   7    4.75    3.29
   5  -6   6    1.63    1.59
   5   6  -6    2.78    1.99
  -5  -6  -6    3.25    2.84
  -5   6   6    6.58    3.78
   5  -6   5    1.67    1.59
   5   6  -5    0.42    1.58
  -5  -6  -5    1.07    2.57
  -5   6   5   -0.73    2.97
   5  -6   4    1.87    1.89
   5   6  -4    0.52    1.63
  -5  -6  -4    0.26    2.69
  -5   6   4    1.86    3.26
   5  -6   3   -1.82    1.80
   5   6  -3   -1.91    1.76
  -5  -6  -3   -2.10    3.60
  -5   6   3   -0.22    2.74
   5  -6   2    6.80    2.57
   5   6  -2    5.02    1.97
  -5  -6  -2   10.32    4.70
  -5   6   2    6.72    4.80
   5  -6   1    2.00    1.80
   5   6  -1    1.26    1.65
  -5  -6  -1    2.20    3.67
  -5   6   1    1.02    3.73
   5   6   0    3.29    1.88
   5  -6   0   -0.52    1.21
   5   6   0    0.31    1.32
  -5   6   0    2.08    3.90
   5   6   1    0.25    1.62
   5  -6  -1   -4.89    2.24
  -5  -6   1   -2.68    4.18
   5   6   1    0.13    1.49
  -5   6  -1    2.85    3.72
   5   6   2    7.30    2.44
   5  -6  -2    3.59    1.90
  -5  -6   2    5.19    4.46
   5   6   2    5.73    2.06
  -5   6  -2    0.86    3.56
   5   6   3   -8.08    2.68
   5  -6  -3   -0.15    1.22
  -5  -6   3   -7.13    4.32
   5   6   3    0.96    1.40
  -5   6  -3   -1.59    3.06
   5   6   4    0.71    1.64
   5  -6  -4    1.17    1.29
  -5  -6   4    0.05    3.30
   5   6   4    0.50    1.84
  -5   6  -4   -1.94    3.68
   5   6   5   -1.05    1.80
   5  -6  -5   -1.36    1.64
  -5  -6   5    3.87    3.64
   5   6   5    0.04    1.47
  -5   6  -5    0.37    3.20
   5   6   6    3.78    2.10
  -5  -6   6    2.23    2.64
   5  -6  -6    4.81    2.59
  -5   6  -6   -0.41    3.44
   5   6   7   -0.69    1.78
  -5  -6   7    5.88    4.22
   5  -6  -7   -0.50    1.66
  -5   6  -7   -1.07    3.22
   5   6   8    0.45    1.86
  -5  -6   8    6.16    3.44
  -5   6  -8    6.65    3.83
  -5  -6   9   -2.77    2.91
  -5   6  -9    1.06    2.51
  -5   6 -10    2.60    2.35
  -5  -7  -9   -0.34    2.12
  -5   7   9   -2.09    2.56
   5   7  -8    0.75    1.81
  -5  -7  -8   -0.51    1.92
  -5   7   8   -2.76    3.16
   5  -7   7    2.43    2.18
   5   7  -7    4.67    2.47
  -5  -7  -7   -3.46    3.04
  -5   7   7   -5.26    3.50
   5  -7   6   -1.42    1.97
   5   7  -6   -3.06    2.34
  -5  -7  -6    2.10    2.73
  -5   7   6   -0.50    2.39
   5  -7   5    0.46    1.60
   5   7  -5   -0.86    1.43
  -5  -7  -5    2.49    2.34
  -5   7   5   -1.19    2.83
   5  -7   4   -2.74    2.61
   5   7  -4    0.89    1.26
  -5  -7  -4   -0.79    3.10
  -5   7   4   -3.67    3.41
   5  -7   3   -0.89    1.34
   5   7  -3   -1.77    2.06
  -5  -7  -3   -3.58    3.78
  -5   7   3   -5.99    4.79
   5  -7   2    0.45    1.73
   5   7  -2    0.83    1.68
  -5  -7  -2    0.70    3.28
  -5   7   2   -3.95    3.61
   5  -7   1   -0.66    1.63
   5   7  -1   -1.51    1.99
  -5  -7  -1    4.07    3.14
  -5   7   1   -0.86    3.26
   5  -7   0    1.67    1.53
   5   7   0    1.82    1.51
  -5  -7   0    7.29    4.04
  -5   7   0    0.71    3.47
   5   7   1    5.74    2.48
   5  -7  -1   -0.61    1.50
   5   7   1   -0.63    1.50
  -5  -7   1    4.62    3.89
  -5   7  -1    6.95    4.63
   5   7   2    4.22    2.17
   5  -7  -2   -1.90    2.03
   5   7   2    0.54    1.42
  -5   7  -2    1.35    2.66
   5   7   3   -0.28    1.50
   5  -7  -3   -0.55    1.71
   5   7   3   -0.32    1.34
  -5  -7   3   -6.23    4.88
  -5   7  -3   -3.45    4.95
   5   7   4    1.74    1.76
   5  -7  -4   -3.76    1.95
  -5  -7   4    7.43    3.62
   5   7   4    1.13    1.60
  -5   7  -4   -6.07    3.90
   5   7   5    5.65    2.49
   5  -7  -5   -1.31    1.50
  -5  -7   5    0.37    2.42
   5   7   5    0.75    1.51
  -5   7  -5   -2.21    3.69
   5   7   6   -0.31    1.67
   5  -7  -6    1.59    1.50
  -5  -7   6    0.23    2.78
   5  -7  -6   -0.66    1.60
   5   7   6    1.06    1.67
  -5   7  -6    2.47    2.84
   5   7   7    0.41    1.73
  -5  -7   7   -4.62    3.01
  -5   7  -7   -0.15    2.17
  -5  -7   8    5.62    3.00
  -5   7  -8   -2.57    2.99
  -5  -7   9   -2.14    2.49
  -5   7  -9    0.16    2.33
   5   8  -8    0.70    1.74
   5   8  -7   -0.93    1.90
  -5   8   7   -2.85    2.68
   5  -8   6    3.89    2.48
   5   8  -6    2.11    1.75
  -5  -8  -6    0.70    2.00
  -5   8   6    1.18    2.45
   5  -8   5    1.04    1.82
   5   8  -5    0.16    1.53
  -5  -8  -5   -0.04    2.32
  -5   8   5    5.01    3.47
   5  -8   4    0.30    1.68
   5   8  -4   -1.09    1.71
  -5   8   4    1.77    2.81
  -5  -8  -4   -1.98    3.31
   5  -8   3    0.13    1.95
   5   8  -3    5.31    2.40
  -5   8   3    4.35    3.95
  -5  -8  -3    0.01    3.20
   5  -8   2    0.47    1.60
   5   8  -2    2.63    1.63
  -5   8   2   -0.76    3.25
  -5  -8  -2    3.58    3.13
   5  -8   1    5.79    2.74
   5   8  -1    0.41    1.67
  -5  -8  -1    7.77    5.03
   5  -8   0   -0.18    1.80
   5   8   0    0.51    1.49
  -5   8   0    2.43    4.71
  -5  -8   0    1.50    3.41
   5   8   1    4.60    2.44
   5  -8  -1    1.72    1.75
   5   8   1    1.63    1.81
  -5   8  -1   -0.70    3.49
  -5  -8   1   -5.09    3.65
   5   8   2    2.82    2.15
   5  -8  -2    0.22    1.27
   5   8   2    0.22    1.57
  -5   8  -2    1.36    3.01
  -5  -8   2    2.83    3.27
   5   8   3    2.82    2.14
   5  -8  -3    1.80    2.01
   5   8   3   -0.53    1.66
  -5   8  -3    7.26    4.56
  -5  -8   3    0.19    3.47
   5   8   4    5.35    2.48
   5  -8  -4   -1.02    1.47
   5   8   4    0.00    1.25
  -5   8  -4   -6.16    4.65
  -5  -8   4   -3.63    3.43
   5   8   5    1.37    1.70
   5  -8  -5    0.70    1.78
   5   8   5   -1.65    1.94
  -5  -8   5   -0.96    3.63
  -5   8  -5    1.66    3.44
   5   8   6    1.49    1.94
   5  -8  -6    2.90    1.95
  -5  -8   6    1.27    2.89
  -5   8  -6    1.07    3.46
   5  -8  -7   -3.64    2.21
  -5  -8   7    6.73    4.50
   5   9  -6    4.60    2.55
   5   9  -5   -3.97    2.09
   5  -9   4    0.47    1.36
   5   9  -4    1.44    1.72
   5  -9   3   -4.12    2.76
   5   9  -3   -2.88    2.22
  -5   9   3    1.59    3.71
   5  -9   2   -0.68    1.78
   5   9  -2    0.59    1.33
  -5   9   2   -2.77    3.79
  -5  -9  -2   -6.21    4.17
   5  -9   1   -0.36    2.01
   5   9  -1   -1.05    1.94
  -5   9   1    2.87    3.67
  -5  -9  -1   -4.13    3.79
   5  -9   0    1.67    1.95
   5   9   0    3.76    1.88
  -5   9   0   -3.81    4.49
  -5  -9   0   -5.19    5.11
   5   9   1   -4.65    2.32
   5  -9  -1   -2.02    2.19
   5   9   1    1.54    1.59
  -5   9  -1   -1.03    4.24
  -5  -9   1   -2.11    3.13
   5   9   2    2.47    1.89
   5  -9  -2    1.00    2.01
   5   9   2   -0.48    1.34
  -5  -9   2   -3.47    3.79
   5   9   3   -0.86    1.60
   5  -9  -3    1.47    1.66
   5   9   3   -2.89    2.18
  -5   9  -3   -4.45    5.23
   5   9   4    0.30    1.78
   5  -9  -4    2.26    1.78
   5  -9  -5   -5.79    2.49
   5  -9  -6   -3.09    1.92
   5  -9  -7    0.49    1.35
   5 -10   1    2.24    2.41
   5 -10   0    2.88    2.09
   5 -10  -1   -0.90    1.75
   5 -10  -2   -3.08    2.14
   5 -10  -3   -0.10    1.66
   5 -10  -4    1.91    1.98
   0   0   0    0.00    0.00
;
_shelx_hkl_checksum              64306
loop_
_space_group_symop_operation_xyz
'x, y, z'
'-x+1/2, -y, z+1/2'
'-x, y+1/2, -z+1/2'
'x+1/2, -y+1/2, -z'
loop_
_atom_site_label
_atom_site_type_symbol
_atom_site_fract_x
_atom_site_fract_y
_atom_site_fract_z
_atom_site_U_iso_or_equiv
_atom_site_adp_type
_atom_site_occupancy
_atom_site_site_symmetry_order
_atom_site_calc_flag
_atom_site_refinement_flags_posn
_atom_site_refinement_flags_adp
_atom_site_refinement_flags_occupancy
_atom_site_disorder_assembly
_atom_site_disorder_group
C11 C 0.2972(17) 0.2294(5) 0.3353(5) 0.0360(17) Uani 1 1 d . . . . .
Br11 Br 0.43632(19) 0.10886(5) 0.39102(6) 0.0506(3) Uani 1 1 d . . . . .
C12 C 0.1386(16) 0.2265(5) 0.2502(5) 0.0369(17) Uani 1 1 d . . . . .
H12 H 0.0990 0.1668 0.2198 0.044 Uiso 1 1 calc R U . . .
C13 C 0.0397(16) 0.3146(5) 0.2110(4) 0.0354(15) Uani 1 1 d . . . . .
Br13 Br -0.17512(18) 0.31297(6) 0.09293(5) 0.0491(2) Uani 1 1 d . . . . .
C14 C 0.1000(15) 0.4037(5) 0.2539(5) 0.0367(17) Uani 1 1 d . . . . .
H14 H 0.0354 0.4627 0.2258 0.044 Uiso 1 1 calc R U . . .
C15 C 0.2591(17) 0.4036(5) 0.3398(5) 0.0395(18) Uani 1 1 d . . . . .
Br15 Br 0.35063(19) 0.52405(5) 0.40091(7) 0.0555(3) Uani 1 1 d . . . . .
C16 C 0.3652(15) 0.3164(5) 0.3816(5) 0.0380(16) Uani 1 1 d . . . . .
H16 H 0.4777 0.3168 0.4386 0.046 Uiso 1 1 calc R U . . .
loop_
_atom_site_aniso_label
_atom_site_aniso_U_11
_atom_site_aniso_U_22
_atom_site_aniso_U_33
_atom_site_aniso_U_23
_atom_site_aniso_U_13
_atom_site_aniso_U_12
C11 0.042(4) 0.039(4) 0.027(4) 0.003(3) 0.003(4) 0.004(4)
Br11 0.0590(5) 0.0397(4) 0.0530(5) 0.0058(4) -0.0033(4) 0.0067(4)
C12 0.038(4) 0.037(4) 0.036(4) -0.005(3) 0.010(3) -0.005(3)
C13 0.031(4) 0.046(4) 0.029(3) -0.006(4) 0.004(3) -0.004(4)
Br13 0.0522(4) 0.0626(5) 0.0326(4) 0.0031(4) -0.0028(4) -0.0040(4)
C14 0.036(4) 0.038(4) 0.037(4) 0.001(3) 0.003(3) 0.000(3)
C15 0.038(4) 0.033(4) 0.047(5) 0.000(3) 0.001(4) -0.003(4)
Br15 0.0655(5) 0.0383(4) 0.0625(6) -0.0090(4) -0.0088(6) -0.0071(4)
C16 0.035(4) 0.044(4) 0.035(4) -0.003(4) 0.001(3) -0.004(3)
loop_
_atom_type_symbol
_atom_type_description
_atom_type_scat_dispersion_real
_atom_type_scat_dispersion_imag
_atom_type_scat_source
C C 0.0033 0.0016 'International Tables Vol C Tables 4.2.6.8 and 6.1.1.4'
H H 0.0000 0.0000 'International Tables Vol C Tables 4.2.6.8 and 6.1.1.4'
Br Br -0.2901 2.4595 'International Tables Vol C Tables 4.2.6.8 and 6.1.1.4'
loop_
_geom_angle_atom_site_label_1
_geom_angle_atom_site_label_2
_geom_angle_atom_site_label_3
_geom_angle
_geom_angle_site_symmetry_1
_geom_angle_site_symmetry_3
_geom_angle_publ_flag
C12 C11 C16 122.7(6) . . ?
C12 C11 Br11 118.9(5) . . ?
C16 C11 Br11 118.4(5) . . ?
C11 C12 C13 118.0(6) . . ?
C11 C12 H12 121.0 . . ?
C13 C12 H12 121.0 . . ?
C14 C13 C12 122.0(6) . . ?
C14 C13 Br13 119.1(5) . . ?
C12 C13 Br13 118.9(5) . . ?
C13 C14 C15 118.3(7) . . ?
C13 C14 H14 120.8 . . ?
C15 C14 H14 120.8 . . ?
C14 C15 C16 121.6(7) . . ?
C14 C15 Br15 119.9(6) . . ?
C16 C15 Br15 118.4(5) . . ?
C11 C16 C15 117.4(6) . . ?
C11 C16 H16 121.3 . . ?
C15 C16 H16 121.3 . . ?
loop_
_geom_bond_atom_site_label_1
_geom_bond_atom_site_label_2
_geom_bond_distance
_geom_bond_site_symmetry_2
_geom_bond_publ_flag
C11 C12 1.371(9) . ?
C11 C16 1.376(9) . ?
C11 Br11 1.898(7) . ?
C12 C13 1.375(9) . ?
C12 H12 0.9300 . ?
C13 C14 1.371(9) . ?
C13 Br13 1.891(6) . ?
C14 C15 1.380(10) . ?
C14 H14 0.9300 . ?
C15 C16 1.388(9) . ?
C15 Br15 1.883(7) . ?
C16 H16 0.9300 . ?
loop_
_geom_torsion_atom_site_label_1
_geom_torsion_atom_site_label_2
_geom_torsion_atom_site_label_3
_geom_torsion_atom_site_label_4
_geom_torsion
_geom_torsion_site_symmetry_1
_geom_torsion_site_symmetry_2
_geom_torsion_site_symmetry_3
_geom_torsion_site_symmetry_4
_geom_torsion_publ_flag
C16 C11 C12 C13 -1.2(10) . . . . ?
Br11 C11 C12 C13 180.0(5) . . . . ?
C11 C12 C13 C14 1.0(10) . . . . ?
C11 C12 C13 Br13 179.3(5) . . . . ?
C12 C13 C14 C15 -1.3(10) . . . . ?
Br13 C13 C14 C15 -179.6(5) . . . . ?
C13 C14 C15 C16 1.8(10) . . . . ?
C13 C14 C15 Br15 179.5(5) . . . . ?
C12 C11 C16 C15 1.6(10) . . . . ?
Br11 C11 C16 C15 -179.6(5) . . . . ?
C14 C15 C16 C11 -1.8(10) . . . . ?
Br15 C15 C16 C11 -179.6(5) . . . . ?

_cod_database_fobs_code 2108853
