#------------------------------------------------------------------------------
#$Date: 2019-06-20 07:04:08 +0300 (Thu, 20 Jun 2019) $
#$Revision: 216135 $
#$URL: file:///home/coder/svn-repositories/cod/cif/2/10/84/2108434.cif $
#------------------------------------------------------------------------------
#
# This file is available in the Crystallography Open Database (COD),
# http://www.crystallography.net/. The original data for this entry
# were provided by IUCr Journals, http://journals.iucr.org/.
#
# The file may be used within the scientific community so long as
# proper attribution is given to the journal article from which the
# data were obtained.
#
data_2108434
loop_
_publ_author_name
'Larsen, Finn Krebs'
'Hasen Mamakhel, Aref'
'Overgaard, Jacob'
'J\/orgensen, Jens-Erik'
'Kato, Kenichi'
'Brummerstedt Iversen, Bo'
_publ_section_title
;
 Accessing the rich carbon nitride materials chemistry by heat treatments
 of ammonium thiocyanate, NH~4~SCN
;
_journal_coeditor_code           PX5012SUP1
_journal_issue                   4
_journal_name_full               'Acta Crystallographica Section B'
_journal_page_first
;
;
_journal_paper_doi               10.1107/S2052520619005791
_journal_volume                  75
_journal_year                    2019
_chemical_formula_moiety         'C H6 N3, C N S'
_chemical_formula_sum            'C2 H6 N4 S'
_chemical_formula_weight         118.16
_space_group_IT_number           2
_space_group_name_Hall           '-P 1'
_space_group_name_H-M_alt        'P -1'
_symmetry_cell_setting           triclinic
_symmetry_space_group_name_Hall  '-P 1'
_symmetry_space_group_name_H-M   'P -1'
_audit_creation_date             2006-10-17T09:35:09-00:00
_audit_creation_method           'WinGX routine CIF_UPDATE'
_cell_angle_alpha                90.8810(10)
_cell_angle_beta                 104.3120(10)
_cell_angle_gamma                101.7830(10)
_cell_formula_units_Z            4
_cell_length_a                   6.9149(2)
_cell_length_b                   7.00120(10)
_cell_length_c                   12.3713(3)
_cell_measurement_reflns_used    4126
_cell_measurement_temperature    100(2)
_cell_measurement_theta_max      30.27
_cell_measurement_theta_min      5.38
_cell_volume                     566.74(2)
_computing_cell_refinement       'Saint+ (Bruker-Nonius, 2006)'
_computing_data_collection       'Apex2 (Bruker-Nonius, 2006)'
_computing_data_reduction        'Saint+ (Bruker-Nonius, 2006)'
_computing_molecular_graphics    'Ortep-3 for Windows (Farrugia, 1997)'
_computing_publication_material  'WinGX publication routines (Farrugia, 1999)'
_computing_structure_refinement  'SHELXL-97 (Sheldrick, 1997)'
_computing_structure_solution    'SHELXS-97 (Sheldrick, 1997)'
_diffrn_ambient_temperature      100
_diffrn_detector_area_resol_mean 8.333
_diffrn_measured_fraction_theta_full 0.989
_diffrn_measured_fraction_theta_max 0.989
_diffrn_measurement_device_type  'Bruker X8 APEX-II diffractometer'
_diffrn_measurement_method       '\f-scans and \w-scans'
_diffrn_radiation_probe          x-ray
_diffrn_radiation_type           MoK\a
_diffrn_radiation_wavelength     0.71073
_diffrn_reflns_av_R_equivalents  0.0279
_diffrn_reflns_limit_h_max       9
_diffrn_reflns_limit_h_min       -9
_diffrn_reflns_limit_k_max       9
_diffrn_reflns_limit_k_min       -9
_diffrn_reflns_limit_l_max       17
_diffrn_reflns_limit_l_min       -17
_diffrn_reflns_number            10559
_diffrn_reflns_theta_full        30.32
_diffrn_reflns_theta_max         30.32
_diffrn_reflns_theta_min         5.23
_diffrn_source                   'fine-focus sealed tube'
_diffrn_standards_number         0
_exptl_absorpt_coefficient_mu    0.45
_exptl_absorpt_correction_type   none
_exptl_crystal_colour            colorless
_exptl_crystal_density_diffrn    1.385
_exptl_crystal_density_method    'not measured'
_exptl_crystal_description       block
_exptl_crystal_F_000             248
_exptl_crystal_size_max          0.4
_exptl_crystal_size_mid          0.2
_exptl_crystal_size_min          0.15
_refine_diff_density_max         0.339
_refine_diff_density_min         -0.231
_refine_ls_extinction_method     none
_refine_ls_goodness_of_fit_ref   1.043
_refine_ls_hydrogen_treatment    constr
_refine_ls_matrix_type           full
_refine_ls_number_parameters     127
_refine_ls_number_reflns         3358
_refine_ls_number_restraints     0
_refine_ls_restrained_S_all      1.043
_refine_ls_R_factor_gt           0.028
_refine_ls_shift/su_max          0.001
_refine_ls_structure_factor_coef Fsqd
_refine_ls_weighting_details
'calc w=1/[\s^2^(Fo^2^)+(0.0345P)^2^+0.1355P] where P=(Fo^2^+2Fc^2^)/3'
_refine_ls_weighting_scheme      calc
_refine_ls_wR_factor_ref         0.0734
_reflns_number_gt                2946
_reflns_number_total             3358
_reflns_threshold_expression     >2sigma(I)
_cod_data_source_file            px5012sup1.cif
_cod_data_source_block           1
_cod_database_code               2108434
loop_
_symmetry_equiv_pos_as_xyz
'x, y, z'
'-x, -y, -z'
loop_
_atom_site_label
_atom_site_type_symbol
_atom_site_fract_x
_atom_site_fract_y
_atom_site_fract_z
_atom_site_U_iso_or_equiv
_atom_site_adp_type
_atom_site_occupancy
_atom_site_calc_flag
_atom_site_refinement_flags
S1 S 0.30634(4) 0.09222(4) 0.18451(2) 0.02259(8) Uani 1 d .
N1 N -0.10593(16) -0.04369(16) 0.18671(8) 0.0251(2) Uani 1 d .
C1 C 0.06338(18) 0.01223(16) 0.18419(8) 0.0196(2) Uani 1 d .
S2 S 0.27220(4) 0.56264(4) 0.41160(2) 0.02008(7) Uani 1 d .
N2 N -0.11364(15) 0.45179(15) 0.25730(8) 0.0235(2) Uani 1 d .
C2 C 0.04475(17) 0.49779(16) 0.32144(8) 0.0183(2) Uani 1 d .
N11 N 0.28326(14) 0.07546(15) 0.45830(7) 0.01961(18) Uani 1 d .
H11A H 0.2937 -0.0298 0.4223 0.024 Uiso 1 calc R
H11B H 0.2973 0.1885 0.4278 0.024 Uiso 1 calc R
N10 N 0.22496(15) -0.10672(15) 0.60463(8) 0.02152(19) Uani 1 d .
H10A H 0.2011 -0.1148 0.6712 0.026 Uiso 1 calc R
H10B H 0.2348 -0.2119 0.5683 0.026 Uiso 1 calc R
N12 N 0.23124(15) 0.22191(15) 0.61375(8) 0.02180(19) Uani 1 d .
H12A H 0.2074 0.2138 0.6804 0.026 Uiso 1 calc R
H12B H 0.2453 0.3352 0.5835 0.026 Uiso 1 calc R
C10 C 0.24603(14) 0.06367(16) 0.55911(8) 0.01600(19) Uani 1 d .
N21 N 0.34328(15) 0.60124(16) 0.14441(7) 0.0233(2) Uani 1 d .
H21A H 0.3499 0.4954 0.1814 0.028 Uiso 1 calc R
H21B H 0.374 0.7167 0.181 0.028 Uiso 1 calc R
N20 N 0.27987(16) 0.74633(15) -0.02284(8) 0.0230(2) Uani 1 d .
H20A H 0.2446 0.7369 -0.0964 0.028 Uiso 1 calc R
H20B H 0.3106 0.8618 0.0137 0.028 Uiso 1 calc R
C20 C 0.28667(15) 0.58657(17) 0.03296(8) 0.0179(2) Uani 1 d .
N22 N 0.24046(15) 0.41257(15) -0.02200(8) 0.02242(19) Uani 1 d .
H22A H 0.2052 0.403 -0.0956 0.027 Uiso 1 calc R
H22B H 0.245 0.3067 0.0151 0.027 Uiso 1 calc R
loop_
_atom_site_aniso_label
_atom_site_aniso_U_11
_atom_site_aniso_U_22
_atom_site_aniso_U_33
_atom_site_aniso_U_23
_atom_site_aniso_U_13
_atom_site_aniso_U_12
S1 0.02838(14) 0.02036(15) 0.02027(13) 0.00187(10) 0.00766(10) 0.00626(11)
N1 0.0337(5) 0.0236(5) 0.0190(4) 0.0016(4) 0.0087(4) 0.0059(4)
C1 0.0330(5) 0.0148(5) 0.0126(4) 0.0020(4) 0.0065(4) 0.0076(4)
S2 0.02227(13) 0.01926(14) 0.01836(12) 0.00078(9) 0.00490(9) 0.00407(10)
N2 0.0299(5) 0.0221(5) 0.0180(4) 0.0017(4) 0.0047(3) 0.0058(4)
C2 0.0275(5) 0.0143(5) 0.0154(4) 0.0027(4) 0.0088(4) 0.0056(4)
N11 0.0247(4) 0.0205(5) 0.0160(4) 0.0026(3) 0.0073(3) 0.0076(4)
N10 0.0278(5) 0.0193(5) 0.0194(4) 0.0038(3) 0.0080(3) 0.0069(4)
N12 0.0280(5) 0.0185(5) 0.0211(4) -0.0006(3) 0.0111(4) 0.0041(4)
C10 0.0135(4) 0.0180(5) 0.0156(4) 0.0003(4) 0.0023(3) 0.0033(3)
N21 0.0341(5) 0.0226(5) 0.0142(4) 0.0019(3) 0.0068(3) 0.0076(4)
N20 0.0343(5) 0.0192(5) 0.0168(4) 0.0036(3) 0.0068(4) 0.0086(4)
C20 0.0184(4) 0.0208(5) 0.0162(4) 0.0019(4) 0.0069(3) 0.0052(4)
N22 0.0301(5) 0.0187(5) 0.0173(4) 0.0002(3) 0.0049(3) 0.0042(4)
loop_
_atom_type_symbol
_atom_type_description
_atom_type_scat_dispersion_real
_atom_type_scat_dispersion_imag
_atom_type_scat_source
C C 0.003 0.002 'International Tables Vol C Tables 4.2.6.8 and 6.1.1.4'
H H 0 0 'International Tables Vol C Tables 4.2.6.8 and 6.1.1.4'
N N 0.006 0.003 'International Tables Vol C Tables 4.2.6.8 and 6.1.1.4'
S S 0.125 0.123 'International Tables Vol C Tables 4.2.6.8 and 6.1.1.4'
loop_
_geom_angle_atom_site_label_1
_geom_angle_atom_site_label_2
_geom_angle_atom_site_label_3
_geom_angle
N1 C1 S1 178.39(9)
N2 C2 S2 179.22(10)
C10 N11 H11A 120
C10 N11 H11B 120
H11A N11 H11B 120
C10 N10 H10A 120
C10 N10 H10B 120
H10A N10 H10B 120
C10 N12 H12A 120
C10 N12 H12B 120
H12A N12 H12B 120
N10 C10 N12 120.02(9)
N10 C10 N11 119.78(10)
N12 C10 N11 120.19(10)
C20 N21 H21A 120
C20 N21 H21B 120
H21A N21 H21B 120
C20 N20 H20A 120
C20 N20 H20B 120
H20A N20 H20B 120
N22 C20 N20 120.07(9)
N22 C20 N21 119.94(10)
N20 C20 N21 119.98(10)
C20 N22 H22A 120
C20 N22 H22B 120
H22A N22 H22B 120
loop_
_geom_bond_atom_site_label_1
_geom_bond_atom_site_label_2
_geom_bond_distance
S1 C1 1.6579(12)
N1 C1 1.1645(16)
S2 C2 1.6581(11)
N2 C2 1.1625(14)
N11 C10 1.3348(13)
N11 H11A 0.88
N11 H11B 0.88
N10 C10 1.3235(14)
N10 H10A 0.88
N10 H10B 0.88
N12 C10 1.3237(14)
N12 H12A 0.88
N12 H12B 0.88
N21 C20 1.3331(13)
N21 H21A 0.88
N21 H21B 0.88
N20 C20 1.3263(15)
N20 H20A 0.88
N20 H20B 0.88
C20 N22 1.3253(15)
N22 H22A 0.88
N22 H22B 0.88
loop_
_geom_hbond_atom_site_label_D
_geom_hbond_atom_site_label_H
_geom_hbond_atom_site_label_A
_geom_hbond_site_symmetry_A
_geom_hbond_distance_DH
_geom_hbond_distance_HA
_geom_hbond_distance_DA
_geom_hbond_angle_DHA
N11 H11A S2 1_545 0.88 2.83 3.6101(10) 149.2
N11 H11B S2 . 0.88 2.67 3.4812(10) 154.3
N10 H10A N1 2_556 0.88 2.36 3.1259(14) 145.8
N10 H10A N2 2_556 0.88 2.54 3.0601(14) 118.5
N10 H10B S2 1_545 0.88 2.58 3.4194(10) 160.8
N12 H12A N1 2_556 0.88 2.21 3.0187(14) 151.7
N12 H12B S2 . 0.88 2.7 3.5046(10) 153.3
N21 H21A S1 . 0.88 2.78 3.5717(11) 150.5
N21 H21B S1 1_565 0.88 2.76 3.5350(11) 147
N20 H20A N2 2_565 0.88 2.25 3.0390(13) 149
N20 H20B S1 1_565 0.88 2.65 3.4458(10) 151.3
N22 H22A N2 2_565 0.88 2.27 3.0509(14) 148.4
N22 H22A N1 2 0.88 2.63 3.0996(14) 114.8
N22 H22B S1 . 0.88 2.6 3.4326(10) 158.9
loop_
_refln_index_h
_refln_index_k
_refln_index_l
_refln_F_squared_meas
_refln_F_squared_sigma
_refln_scale_group_code
2 0 0 9998.32 177.99 1
-2 0 0 9866.2 173.91 1
-3 0 0 1130.78 22.16 1
3 0 0 1138.29 22.29 1
-4 0 0 1128.25 23.43 2
-4 0 0 1124.47 21.99 4
4 0 0 1110.2 22.92 1
-4 0 0 1093.94 22.86 1
4 0 0 1118.03 23.08 2
-5 0 0 860.46 19.85 2
-5 0 0 845.68 19.32 1
5 0 0 846.91 19.33 1
5 0 0 852.64 19.58 2
-5 0 0 852.86 18.45 4
6 0 0 216.35 8.22 1
-6 0 0 208.43 8.42 2
-6 0 0 213.62 7.7 4
6 0 0 212.99 8.22 2
-6 0 0 234.35 8.58 1
-7 0 0 93.31 5.8 1
-7 0 0 76.18 4.94 4
-7 0 0 80.06 5.62 2
7 0 0 80.81 5.32 2
7 0 0 88.86 5.55 1
-8 0 0 0.59 1.88 2
-8 0 0 1.43 2.09 1
8 0 0 3 2.03 1
-8 0 0 1.77 1.91 4
8 0 0 4.54 1.99 2
-9 0 0 7.55 3.03 2
-9 0 0 14.64 3.96 1
9 0 0 19.77 3.77 1
-9 0 0 7.32 2.78 4
9 0 0 15.11 3.35 2
-9 1 0 6.3 2.33 4
-9 1 0 9.87 3.09 2
9 -1 0 13.13 3.19 2
9 -1 0 11.71 3.18 1
8 -1 0 79.65 5.74 2
-8 1 0 81.07 5.94 1
-8 1 0 73.91 5.06 4
-8 1 0 79.3 5.86 2
8 -1 0 91.05 6.12 1
7 -1 0 3.04 1.53 1
-7 1 0 3.32 1.66 4
7 -1 0 2.94 1.39 2
-7 1 0 0.81 1.48 2
-7 1 0 0.11 1.73 1
-6 1 0 39.3 3.04 4
-6 1 0 38.7 3.53 1
-6 1 0 33.76 3.47 2
6 -1 0 32.52 3.23 2
6 -1 0 31.51 3.12 1
-5 1 0 2.62 1.36 1
-5 1 0 3.71 1.38 2
-5 1 0 2.07 1.16 4
5 -1 0 2.21 1.2 1
5 -1 0 2.46 1.2 2
-4 1 0 21.73 2.18 2
-4 1 0 22.11 1.94 4
-4 1 0 22.66 2.16 1
4 -1 0 24.48 2.21 1
-3 1 0 17.46 1.63 1
-3 1 0 16.98 1.49 4
3 -1 0 15.28 1.56 1
2 -1 0 11.84 1.17 1
-2 -1 0 40.75 2.1 1
3 1 0 1.27 0.74 1
3 1 0 0.6 0.61 2
-3 -1 0 0.31 0.76 1
-4 -1 0 5.68 1.49 1
-4 -1 0 6.47 1.51 4
-4 -1 0 4.77 1.51 2
4 1 0 1.64 1 1
4 1 0 6.6 1.36 2
5 1 0 2.37 1.25 1
-5 -1 0 3.11 1.41 2
-5 -1 0 2.5 1.35 1
-5 -1 0 1.29 1.33 4
5 1 0 3.5 1.25 2
6 1 0 5.69 1.73 2
6 1 0 8.94 2.08 1
-6 -1 0 7.96 2.31 2
-6 -1 0 5.67 2.01 1
-6 -1 0 11.8 2.37 4
-7 -1 0 34.07 3.78 4
7 1 0 28.61 3.46 1
-7 -1 0 31.09 4.1 2
7 1 0 35.68 3.81 2
-7 -1 0 28.49 3.9 1
-8 -1 0 7.55 2.74 2
-8 -1 0 8.97 2.71 4
-8 -1 0 10.26 3.15 1
8 1 0 6.84 2.26 2
-9 -1 0 42.52 5.58 1
9 1 0 31.65 4.41 2
-9 -1 0 34.47 5.26 2
-9 -1 0 27.97 4.38 4
9 -2 0 44.28 5.02 2
-9 2 0 41.25 4.93 2
9 -2 0 41.58 4.93 1
-9 2 0 43.57 4.21 4
8 -2 0 66.41 5.18 1
8 -2 0 59.87 5.15 2
-8 2 0 53.25 4.97 2
-8 2 0 55.87 4.18 4
7 -2 0 48.85 4.22 1
-7 2 0 39.63 3.95 1
-7 2 0 49.45 3.55 4
-7 2 0 44.26 4.09 2
7 -2 0 45.91 4.14 2
-6 2 0 731.59 16.33 4
6 -2 0 726.04 17.98 1
6 -2 0 736.32 18.08 2
-6 2 0 748.95 17.55 1
-6 2 0 710.94 17.76 2
-5 2 0 267.66 8.55 2
5 -2 0 298.54 8.97 2
-5 2 0 286 7.73 4
5 -2 0 283.82 8.82 1
-5 2 0 302.01 8.63 1
-4 2 0 1344.42 24.99 4
4 -2 0 1351.84 26.91 1
-4 2 0 1380.85 26.88 2
-4 2 0 1353.77 26.38 1
-3 2 0 9.08 0.97 4
3 -2 0 9.74 1.27 1
2 -2 0 941.16 17.66 1
-1 -2 0 1042.27 19.18 1
-2 -2 0 139.83 4.37 1
-3 -2 0 535.7 12.68 1
3 2 0 568.67 12.64 2
3 2 0 568.53 12.41 1
4 2 0 557.08 13.07 1
4 2 0 534.58 13.23 2
-4 -2 0 546.65 13.49 1
-5 -2 0 262.39 8.47 4
5 2 0 241.67 8.4 2
-5 -2 0 247.45 8.78 1
5 2 0 264.68 8.48 1
-5 -2 0 270.76 9.45 2
-6 -2 0 120.89 6.13 4
-6 -2 0 125.74 6.65 1
-6 -2 0 148.6 7.28 2
6 2 0 125.21 6.24 1
6 2 0 126.07 6.17 2
-7 -2 0 16.46 3.36 1
7 2 0 14.71 2.76 2
-7 -2 0 11.09 2.87 4
-7 -2 0 13.7 3.22 2
-8 -2 0 37.65 5.09 2
-8 -2 0 36.4 4.88 1
8 2 0 30.89 3.96 2
-8 -2 0 27.84 4.18 4
9 -3 0 8.82 2.8 2
-9 3 0 12.64 2.48 4
9 -3 0 15.81 3.49 1
-9 3 0 12.13 3.02 2
8 -3 0 0.37 1.54 2
-8 3 0 0.6 1.27 4
-8 3 0 0.54 1.56 2
8 -3 0 -0.69 1.24 1
7 -3 0 12.11 2.43 2
-7 3 0 12.63 1.94 4
7 -3 0 13.46 2.54 1
-7 3 0 11.66 2.51 2
-6 3 0 19.58 2.59 2
6 -3 0 19.37 2.54 1
-6 3 0 21.32 1.95 4
6 -3 0 15.09 2.33 2
5 -3 0 2.96 1.23 1
-5 3 0 4.17 1.38 2
-5 3 0 5.1 1.01 4
-4 3 0 7.74 1.34 2
4 -3 0 7.9 1.34 1
-4 3 0 6.99 0.66 4
3 -3 0 4.04 0.88 1
2 -3 0 17.5 1.14 1
-1 -3 0 13.11 1.09 1
-2 -3 0 178.97 5.26 1
2 3 0 170.94 4.74 2
-3 -3 0 5.61 1.38 1
3 3 0 2.74 0.55 4
3 3 0 4.8 0.64 4
3 3 0 4.1 1.04 2
4 3 0 185.56 6.45 2
4 3 0 191.43 5.1 4
-4 -3 0 194.04 7.01 1
-5 -3 0 8.58 2.11 1
5 3 0 11.88 2.04 2
5 3 0 14.4 1.63 4
-6 -3 0 15.98 3.04 1
6 3 0 13.52 1.8 4
6 3 0 9.61 2.17 2
7 3 0 55.86 3.48 4
7 3 0 60.67 4.74 2
-7 -3 0 60.53 5.64 1
8 3 0 -0.46 1.08 4
8 3 0 0.47 1.53 2
-8 -3 0 -0.76 2.2 1
-9 4 0 15.14 3.15 2
9 -4 0 18.78 3.65 1
8 -4 0 128.26 7.09 1
-8 4 0 107.24 6.14 2
-7 4 0 30.2 3.2 2
7 -4 0 36.5 3.65 1
6 -4 0 774.77 18.71 1
-6 4 0 762.36 17.74 2
-6 4 0 798.61 18.82 3
5 -4 0 65.15 3.76 1
-5 4 0 68.67 4.19 3
-5 4 0 74.37 3.49 2
-4 4 0 633.42 15.62 3
4 -4 0 602.43 13.82 1
-4 4 0 625.95 12.69 2
3 -4 0 320.03 7.57 1
-3 4 0 315.6 9.53 3
-2 4 0 127 5.23 3
2 -4 0 107.01 2.92 1
-1 4 0 2882.64 55.83 3
-1 -4 0 354.91 7.84 1
-2 -4 0 556.35 12.45 1
2 4 0 563.63 10.93 2
3 4 0 11.99 1.46 2
-3 -4 0 9.04 1.73 1
4 4 0 481.77 11.97 2
-4 -4 0 482.95 13.02 1
5 4 0 2.42 1.28 2
-5 -4 0 2.33 1.68 1
-6 -4 0 113.48 6.74 1
6 4 0 106.98 5.7 2
-7 -4 0 0.04 1.79 1
7 4 0 0.43 1.42 2
-9 5 0 1.05 1.84 2
9 -5 0 0.68 1.55 1
8 -5 0 2.77 1.71 1
-8 5 0 1.71 1.55 2
-7 5 0 1.16 1.23 2
7 -5 0 1.65 1.28 1
-6 5 0 4.33 2.11 3
6 -5 0 4.54 1.56 1
-6 5 0 3.96 1.31 2
-5 5 0 2.85 1.69 3
5 -5 0 3.47 1.19 1
-5 5 0 3.55 0.91 2
4 -5 0 27.16 2.21 1
-4 5 0 28.44 3.21 3
3 -5 0 1.61 0.71 1
-3 5 0 1.87 1.43 3
-2 5 0 29.99 3.01 3
2 -5 0 28.41 1.28 1
-1 5 0 2.17 1.27 3
0 5 0 4.62 1.58 3
0 -5 0 5.88 0.69 1
1 5 0 25.21 2.67 3
-1 -5 0 24.73 1.75 1
2 5 0 7.75 1.85 3
-2 -5 0 9.5 1.51 1
3 5 0 90.5 4.63 3
-3 -5 0 83.9 4.32 1
3 5 0 87.59 2.75 2
4 5 0 11.35 1.52 2
-4 -5 0 13.59 2.37 1
5 5 0 16.95 2.08 2
-5 -5 0 13.26 2.81 1
6 5 0 98.64 5.04 2
-6 -5 0 92.36 6.43 1
7 5 0 5.57 1.93 2
-7 -5 0 6.15 2.87 1
-8 6 0 2.37 1.45 2
8 -6 0 3.38 1.85 1
-7 6 0 436.76 14.04 3
7 -6 0 404.65 12.79 1
6 -6 0 2.96 1.41 1
-6 6 0 3.06 2.16 3
-5 6 0 711.04 19.66 3
5 -6 0 722.05 16.55 1
4 -6 0 267.89 7.33 1
-4 6 0 246.1 9.85 3
-3 6 0 400.27 13.06 3
3 -6 0 408.33 8.94 1
-2 6 0 2144.55 45.36 3
-1 6 0 766.1 19.86 3
0 -6 0 1105.41 20.26 1
0 6 0 1089.09 25.91 3
1 6 0 23.04 3 3
-1 -6 0 17.1 1.65 1
-2 -6 0 494.04 11.98 1
2 6 0 500.22 14.38 3
3 6 0 16.21 2.64 3
-3 -6 0 14.98 2.32 1
-4 -6 0 137.63 6.68 1
-5 -6 0 8.54 2.65 1
6 6 0 24.43 2.29 2
-6 -6 0 19.98 3.81 1
8 -7 0 0.2 1.55 1
-7 7 0 3.46 2.71 3
7 -7 0 -0.73 1.21 1
-6 7 0 -0.07 1.96 3
6 -7 0 1.79 1.4 1
5 -7 0 1.35 1.13 1
-5 7 0 3.13 2.25 3
4 -7 0 5.29 1.16 1
-4 7 0 2.58 2.02 3
3 -7 0 11.87 1.19 1
-3 7 0 14.87 3.1 3
-2 7 0 3.09 1.88 3
-1 7 0 11 2.74 3
0 -7 0 1.2 0.79 1
0 7 0 -0.36 1.41 3
-1 -7 0 12.28 1.61 1
1 7 0 13.21 2.82 3
-2 -7 0 27.53 2.61 1
2 7 0 25 3.52 3
-3 -7 0 22.94 2.94 1
3 7 0 18.37 3.09 3
-4 -7 0 11.03 2.75 1
-5 -7 0 5.36 2.51 1
7 -8 0 162.13 7.45 1
-7 8 0 193.49 10.13 3
-6 8 0 127.02 8.25 3
6 -8 0 120.28 5.73 1
-5 8 0 79.64 6.49 3
5 -8 0 82.92 4.2 1
4 -8 0 196.26 5.99 1
-4 8 0 215.71 10.56 3
-3 8 0 48.53 5.37 3
-2 8 0 532.06 17.68 3
-1 8 0 35.78 4.63 3
0 -8 0 56.23 2.58 1
0 8 0 54.73 5.32 3
1 8 0 92.47 6.58 3
-1 -8 0 113.66 4.41 1
-2 -8 0 -1.24 1.38 1
2 8 0 -0.66 1.85 3
-3 -8 0 34.59 3.64 1
5 -9 0 9.7 1.77 1
-5 9 0 12.33 3.74 3
-4 9 0 3.56 2.73 3
-3 9 0 36.66 5.27 3
-2 9 0 17.36 3.94 3
-1 9 0 35.03 5.11 3
0 9 0 53.56 5.85 3
1 9 0 11.38 3.28 3
-2 -9 0 98.4 5.12 1
2 9 0 88.77 6.86 3
2 9 -1 16.13 3.66 3
-2 -9 1 19.43 2.72 1
-1 -9 1 68.39 3.81 1
1 9 -1 67.66 6.27 3
0 9 -1 42.27 5.27 3
-1 9 -1 7.5 3.1 3
-2 9 -1 165.28 9.75 3
-3 9 -1 22.66 4.55 3
-4 9 -1 57.32 6.33 3
5 -9 1 -0.21 1.27 1
-5 9 -1 0.3 2.17 3
-3 -8 1 35.84 3.7 1
-2 -8 1 2.42 1.59 1
2 8 -1 6.14 2.44 3
-1 -8 1 1.22 1.21 1
1 8 -1 4.07 2.21 3
0 -8 1 4.71 1.13 1
0 8 -1 2.15 2.02 3
-1 8 -1 2.22 2 3
-2 8 -1 16.74 3.62 3
3 -8 1 107.25 3.65 1
-3 8 -1 102.01 7.24 3
-4 8 -1 10.15 3.3 3
4 -8 1 9.9 1.58 1
-5 8 -1 39.14 5.24 3
5 -8 1 35.03 2.99 1
-6 8 -1 67.36 6.44 3
6 -8 1 63.76 4.32 1
-7 8 -1 6.98 3.46 3
7 -8 1 5.69 2.08 1
-5 -7 1 71.03 5.6 1
-4 -7 1 40.17 4.01 1
-3 -7 1 55.72 4.05 1
3 7 -1 66.75 4.86 3
-2 -7 1 87.54 4.27 1
2 7 -1 94.68 5.91 3
-1 -7 1 17.76 1.82 1
1 7 -1 11.73 2.75 3
0 7 -1 15.98 2.99 3
0 -7 1 14.99 1.33 1
-1 7 -1 34.02 4.11 3
-2 7 -1 22.23 3.46 3
2 -7 1 22.12 1.38 1
-3 7 -1 6.06 2.43 3
3 -7 1 3.52 0.96 1
-4 7 -1 24.67 3.81 3
4 -7 1 25.99 2.2 1
5 -7 1 17.91 2.27 1
-5 7 -1 24.79 3.96 3
6 -7 1 57.02 4.09 1
-6 7 -1 44.56 5.01 3
-7 7 -1 15.88 3.78 3
7 -7 1 11.74 2.52 1
6 6 -1 1.42 1.27 2
-6 -6 1 0.94 2.1 1
-5 -6 1 116.19 6.69 1
-4 -6 1 6.46 2 1
3 6 -1 18.61 2.71 3
-3 -6 1 14.12 2.22 1
-2 -6 1 71.27 3.69 1
2 6 -1 67.84 4.6 3
-1 -6 1 9.25 1.36 1
1 6 -1 10.83 2.31 3
0 6 -1 99.72 5.68 3
0 -6 1 105.37 3.13 1
-1 6 -1 36.04 3.73 3
-2 6 -1 71.37 4.97 3
2 -6 1 71.29 2.43 1
3 -6 1 0.1 0.67 1
-3 6 -1 0.95 1.58 3
4 -6 1 206.13 6.34 1
-4 6 -1 192.82 8.62 3
5 -6 1 52.08 3.42 1
-5 6 -1 59.13 4.86 3
6 -6 1 212.99 8.07 1
-6 6 -1 220.63 9.38 3
-7 6 -1 59.35 5.32 3
-7 6 -1 64.9 2.98 2
7 -6 1 54.58 4.42 1
8 -6 1 17.56 3.24 1
-8 6 -1 15.33 2.16 2
7 5 -1 28.18 3.15 2
-7 -5 1 30.65 4.56 1
6 5 -1 51.99 3.66 2
-6 -5 1 43.66 4.79 1
-5 -5 1 2.63 1.84 1
5 5 -1 2.51 1.23 2
4 5 -1 143.92 4.87 2
-4 -5 1 136.61 6.31 1
3 5 -1 2.24 1.27 3
3 5 -1 2.02 0.69 2
-3 -5 1 2.95 1.36 1
-2 -5 1 90.69 3.83 1
2 5 -1 87.23 4.65 3
-1 -5 1 7.92 1.15 1
1 5 -1 7.5 1.85 3
0 5 -1 6.87 1.81 3
0 -5 1 8.15 0.82 1
-1 5 -1 137.43 6.12 3
-2 5 -1 7.66 1.92 3
2 -5 1 8.1 0.9 1
3 -5 1 1.11 0.71 1
-3 5 -1 2.05 1.42 3
-4 5 -1 29.28 3.33 3
4 -5 1 28.96 2.31 1
5 -5 1 2.25 1.22 1
-5 5 -1 0.25 1.41 3
-5 5 -1 2.39 0.94 2
-6 5 -1 28.69 3.47 3
-6 5 -1 30.22 2.45 2
6 -5 1 29.94 3.1 1
-7 5 -1 0.97 1.42 2
7 -5 1 0.34 1.27 1
-8 5 -1 3.52 1.8 2
8 -5 1 2.41 1.73 1
-7 -4 1 8.92 2.92 1
7 4 -1 6.58 2.12 2
-6 -4 1 8.35 2.52 1
6 4 -1 6.81 1.93 2
5 4 -1 99.41 4.88 2
-5 -4 1 98.16 5.57 1
-4 -4 1 44.19 3.44 1
4 4 -1 41.96 2.85 2
3 4 -1 3.24 0.96 2
-3 -4 1 4.6 1.31 1
-2 -4 1 85.4 3.56 1
2 4 -1 84.42 2.56 2
-1 -4 1 74.4 2.69 1
0 4 -1 191.1 6.68 3
0 -4 1 192.03 4.13 1
-1 4 -1 86.76 4.37 3
-2 4 -1 843.23 19.19 3
2 -4 1 816.34 15.69 1
3 -4 1 392.65 9.21 1
-3 4 -1 402.73 11.24 3
4 -4 1 365.39 9.56 1
-4 4 -1 380.51 10.97 3
-4 4 -1 365.32 8.58 2
-5 4 -1 613.11 15.38 3
-5 4 -1 593.51 13.69 2
5 -4 1 580.57 14.52 1
6 -4 1 37.96 3.45 1
-6 4 -1 45.23 3.27 2
-6 4 -1 41.97 3.63 3
7 -4 1 167.46 7.64 1
-7 4 -1 173.15 7.22 2
-8 4 -1 76.91 5.26 2
8 -4 1 78.36 5.63 1
-8 4 -1 83.89 3.24 4
-9 4 -1 117.75 7.14 2
9 -4 1 138.99 8.14 1
-8 -3 1 64.31 6.21 1
8 3 -1 57.56 3.73 4
8 3 -1 62.94 5.36 2
7 3 -1 2.76 1.73 2
-7 -3 1 4.99 2.4 1
6 3 -1 49.67 3.85 2
-6 -3 1 55.31 4.91 2
-6 -3 1 40.13 4.19 1
5 3 -1 196.67 7.24 2
-5 -3 1 186.32 7.62 1
4 3 -1 17.6 2 2
-4 -3 1 12.95 2.08 1
3 3 -1 416.24 7.83 4
3 3 -1 406.43 9.89 2
-3 -3 1 400.82 10.26 1
-2 -3 1 77.53 3.12 1
2 3 -1 78.76 2.79 2
-1 -3 1 386.8 8.12 1
0 -3 1 853.82 15.47 1
1 -3 1 1313.34 23.45 1
2 -3 1 87.72 2.81 1
-3 3 -1 297.64 6.98 2
3 -3 1 289.02 7.43 1
-4 3 -1 106.73 4.14 2
4 -3 1 101.71 4.29 1
-4 3 -1 102.96 2.89 4
-5 3 -1 49.5 2.48 4
5 -3 1 50.33 3.37 1
-5 3 -1 52.57 3.25 2
-6 3 -1 24.34 2.17 4
6 -3 1 23.97 2.85 2
-6 3 -1 26.07 2.87 2
6 -3 1 25.66 2.93 1
7 -3 1 11.62 2.51 2
-7 3 -1 8.46 1.81 4
7 -3 1 11.49 2.42 1
-7 3 -1 4.68 1.8 2
8 -3 1 -0.45 1.34 1
-8 3 -1 2.07 1.75 2
8 -3 1 0.2 1.51 2
-8 3 -1 1.94 1.44 4
-9 3 -1 4.77 2.32 2
9 -3 1 4.09 2.27 2
9 -3 1 5.39 2.39 1
-9 3 -1 4.53 1.97 4
8 2 -1 0.98 1.55 2
-8 -2 1 -0.24 2.23 4
-8 -2 1 2.56 2.33 1
-8 -2 1 1.26 2.39 2
-7 -2 1 9.29 2.73 1
7 2 -1 21.73 3.17 2
-7 -2 1 21.88 3.78 2
-7 -2 1 13.12 3 4
6 2 -1 46.35 3.74 1
-6 -2 1 51.29 4.03 4
-6 -2 1 34.43 3.82 1
6 2 -1 43.01 3.71 2
-6 -2 1 47.39 4.4 2
-5 -2 1 240.69 8.65 2
5 2 -1 216.55 7.82 2
5 2 -1 224.84 7.73 1
-5 -2 1 215.95 8.06 1
-5 -2 1 239 7.87 4
4 2 -1 56.08 3.3 2
4 2 -1 60.43 3.38 1
-4 -2 1 50.14 3.33 1
3 2 -1 162.76 5.23 2
-3 -2 1 156.17 5.31 1
-2 -2 1 563.08 11.82 1
-1 -2 1 234.22 5.23 1
2 -2 1 16.14 1.26 1
-3 2 -1 1939.59 34.2 4
3 -2 1 1916.28 36.18 1
-3 2 -1 2012.83 36.34 2
-4 2 -1 142.62 5.04 1
-4 2 -1 140.44 4.5 4
4 -2 1 139.68 5.25 1
-4 2 -1 138.25 5.14 2
-5 2 -1 606.54 15.26 2
-5 2 -1 658.71 15.22 1
5 -2 1 633.69 15.55 1
-5 2 -1 619.37 13.96 4
5 -2 1 664.16 15.68 2
-6 2 -1 104.51 5.55 2
6 -2 1 110.29 5.61 1
6 -2 1 108.63 5.58 2
-6 2 -1 107.03 4.86 4
-6 2 -1 115.53 5.63 1
-7 2 -1 2.29 1.6 2
-7 2 -1 1.02 1.84 1
-7 2 -1 2.01 1.46 4
7 -2 1 0.49 1.31 2
7 -2 1 1.38 1.39 1
-8 2 -1 260.6 9.34 4
8 -2 1 264.38 10.69 1
8 -2 1 250.21 10.56 2
-8 2 -1 238.37 10.27 2
9 -2 1 3.36 2.27 1
9 -2 1 -0.69 1.45 2
-9 2 -1 -0.52 1.99 2
-9 2 -1 0.97 1.82 4
9 1 -1 64.9 5.85 2
-9 -1 1 63.71 5.8 4
-9 -1 1 57.26 6.11 1
-9 -1 1 46.64 5.9 2
8 1 -1 52.28 4.85 1
-8 -1 1 46.89 4.69 4
8 1 -1 46.59 4.7 2
-8 -1 1 43.97 5.08 2
-8 -1 1 41.6 4.89 1
-7 -1 1 167.63 7.47 4
7 1 -1 167.94 7.77 1
-7 -1 1 161.52 7.88 1
-7 -1 1 161.88 8.05 2
7 1 -1 168.45 7.75 2
6 1 -1 0.02 0.86 1
-6 -1 1 0.84 1.51 4
-6 -1 1 2.5 1.59 1
-6 -1 1 3.13 1.72 2
6 1 -1 0.55 1.05 2
5 1 -1 428.82 11.57 1
-5 -1 1 417.61 11.12 4
-5 -1 1 403.98 11.62 1
5 1 -1 405.13 11.56 2
-5 -1 1 439.84 12.24 2
4 1 -1 8.48 1.45 2
-4 -1 1 4.66 1.39 4
4 1 -1 6.56 1.34 1
-4 -1 1 5.19 1.41 1
-3 -1 1 112.95 4.15 1
3 1 -1 119.3 4.19 1
-2 -1 1 112.66 3.57 1
2 -1 1 942.03 18.09 1
3 -1 1 64.54 3.07 1
-3 1 -1 72.55 2.87 4
-3 1 -1 71.97 3.1 1
-4 1 -1 250.09 7.55 2
-4 1 -1 237.33 6.72 4
4 -1 1 236.57 7.37 1
-4 1 -1 240.7 7.16 1
5 -1 1 47.35 3.38 2
5 -1 1 48.91 3.46 1
-5 1 -1 46.56 3.37 1
-5 1 -1 43.56 2.93 4
-5 1 -1 44.66 3.39 2
6 -1 1 102.21 5.44 1
-6 1 -1 106 5.67 2
-6 1 -1 101.98 5.5 1
-6 1 -1 104.82 5.02 4
6 -1 1 97.62 5.32 2
-7 1 -1 4.23 1.9 2
-7 1 -1 4.89 2.19 1
-7 1 -1 1.56 1.5 4
7 -1 1 1.72 1.51 1
7 -1 1 4.78 1.86 2
8 -1 1 36 4.19 2
-8 1 -1 29.8 3.65 4
-8 1 -1 33.33 4.36 2
8 -1 1 32.94 4.12 1
-8 1 -1 32.68 4.38 1
-9 1 -1 1.51 1.88 4
9 -1 1 -0.02 1.79 1
9 -1 1 -0.06 1.55 2
-9 1 -1 0.93 2.2 2
-9 0 1 2.48 2.65 1
-9 0 1 -0.06 1.98 4
9 0 -1 0.55 1.52 2
9 0 -1 1.49 2.09 1
-9 0 1 0.51 2.12 2
-8 0 1 7.06 2.47 4
-8 0 1 4.05 2.51 1
8 0 -1 6.23 2.37 1
-8 0 1 7.68 2.55 2
8 0 -1 9.79 2.58 2
-7 0 1 100.85 6.08 2
7 0 -1 103.33 5.9 1
-7 0 1 100.46 5.92 1
-7 0 1 102.33 5.57 4
7 0 -1 86.04 5.51 2
6 0 -1 11.77 2.22 2
-6 0 1 11.11 2.31 1
6 0 -1 9.55 2.08 1
-6 0 1 11.82 2.22 4
-6 0 1 9.32 2.31 2
-5 0 1 15.21 2.39 2
-5 0 1 17.66 2.24 4
-5 0 1 13.35 2.19 1
5 0 -1 12.55 2.02 1
5 0 -1 12.8 2.04 2
4 0 -1 145.12 5.35 2
4 0 -1 147.33 5.38 1
-4 0 1 140.71 5.4 2
-4 0 1 154.32 5.11 4
-4 0 1 149.42 5.43 1
-3 0 1 3.93 1.05 1
3 0 -1 4.04 0.94 1
2 0 -1 816.08 15.82 1
-2 0 1 814.34 15.78 1
-2 0 -1 3197.09 56.72 1
2 0 1 3209.57 56.83 1
-3 0 -1 290.67 7.69 1
3 0 1 295.46 7.79 1
-3 0 -1 287 7.24 4
-4 0 -1 2031.62 37.3 4
-4 0 -1 2112.36 39.5 2
-4 0 -1 1992.81 38.68 1
4 0 1 2000.26 38.81 1
4 0 1 2008.26 39.02 2
-5 0 -1 36.69 3.36 2
5 0 1 37.89 3.04 2
5 0 1 36.06 3.05 1
-5 0 -1 40.32 3.35 1
-5 0 -1 43.17 3.13 4
-6 0 -1 285.28 9.75 1
-6 0 -1 251.45 8.82 4
6 0 1 274.34 9.67 2
-6 0 -1 290.32 10.2 2
6 0 1 275.59 9.61 1
7 0 1 143.69 7.21 1
-7 0 -1 143.66 7.31 1
-7 0 -1 143.53 6.84 4
-7 0 -1 146.56 7.64 2
7 0 1 151.82 7.4 2
-8 0 -1 184.13 9.5 2
8 0 1 190.46 9.2 2
8 0 1 188.79 9.16 1
-8 0 -1 186.4 8.52 4
-8 0 -1 215.95 9.76 1
9 0 1 36.86 4.69 2
-9 0 -1 32.01 5.09 2
9 0 1 26.58 4.13 1
-9 0 -1 29.84 4.29 4
-9 0 -1 35.4 5.29 1
9 -1 -1 102.84 6.97 2
-9 1 1 106.38 6.3 4
-9 1 1 97.99 6.98 2
9 -1 -1 99.2 6.85 1
-8 1 1 1.31 2.09 1
-8 1 1 -2.37 1.37 2
-8 1 1 1.4 1.7 4
8 -1 -1 -0.4 1.33 1
8 -1 -1 -0.61 1.34 2
-7 1 1 89.96 4.93 4
7 -1 -1 92.94 5.58 1
-7 1 1 92.81 5.66 1
-7 1 1 90.86 5.58 2
7 -1 -1 90.68 5.56 2
-6 1 1 71.56 4.52 2
6 -1 -1 78.78 4.67 2
6 -1 -1 84.53 4.81 1
-6 1 1 85.68 4.81 1
-6 1 1 75.97 4.21 4
5 -1 -1 151.05 5.94 2
-5 1 1 136.54 5.12 4
-5 1 1 137.72 5.57 1
-5 1 1 135.59 5.65 2
5 -1 -1 143.37 5.77 1
-4 1 1 0.3 0.74 4
-4 1 1 1.71 0.96 2
-4 1 1 1.07 0.95 1
4 -1 -1 0.73 0.76 1
-3 1 1 154.49 4.58 1
3 -1 -1 144.86 4.63 1
-3 1 1 140.5 4.13 4
2 -1 -1 815.98 15.63 1
-1 -1 -1 623.6 12.03 1
-2 -1 -1 165.73 4.79 1
3 1 1 39.65 2.44 1
3 1 1 34.56 2.26 2
-3 -1 -1 36.86 2.4 1
-4 -1 -1 44.26 3.03 1
4 1 1 39.23 2.86 1
-4 -1 -1 44.21 3.17 2
4 1 1 41.35 2.86 2
-4 -1 -1 41.94 2.85 4
-5 -1 -1 6.79 1.89 1
-5 -1 -1 11.28 2.09 4
5 1 1 4.86 1.54 1
5 1 1 5.65 1.55 2
-5 -1 -1 10.73 2.22 2
-6 -1 -1 3.41 1.73 4
6 1 1 5.38 1.75 1
-6 -1 -1 4.96 1.91 1
-6 -1 -1 4.06 2.03 2
6 1 1 4.94 1.69 2
-7 -1 -1 6.6 2.55 2
-7 -1 -1 2.69 2.07 4
7 1 1 5.49 2.16 1
7 1 1 4.96 1.89 2
-7 -1 -1 7.68 2.65 1
-8 -1 -1 1.19 2.22 1
8 1 1 7.13 2.34 2
-8 -1 -1 0.38 2.27 2
-8 -1 -1 5.83 2.63 4
9 -2 -1 0.88 1.79 1
-9 2 1 4.5 2.18 2
-9 2 1 5.43 2.06 4
9 -2 -1 2.38 2.1 2
-8 2 1 8.77 2.08 4
8 -2 -1 13.52 2.92 2
-8 2 1 11.64 2.8 2
8 -2 -1 15.79 3.05 1
-7 2 1 6.02 2.18 1
-7 2 1 5.62 1.69 4
7 -2 -1 8.23 2.11 1
7 -2 -1 6.71 1.99 2
-7 2 1 4.39 1.81 2
-6 2 1 16.97 2.49 2
6 -2 -1 15.65 2.36 2
-6 2 1 16.79 2.07 4
-6 2 1 18.78 2.62 1
6 -2 -1 18.26 2.53 1
-5 2 1 153.04 5.89 2
-5 2 1 153.73 5.07 4
-5 2 1 172.68 6.05 1
5 -2 -1 156.4 6.02 1
4 -2 -1 61.11 3.2 1
-4 2 1 60.62 3.17 2
-4 2 1 67.48 3.18 1
-4 2 1 56.13 2.53 4
-3 2 1 974.37 17.71 4
3 -2 -1 998.46 19.39 1
2 -2 -1 753.93 14.39 1
-1 -2 -1 150.91 3.93 1
2 2 1 2705.98 46.87 4
-2 -2 -1 2792.79 49.53 1
3 2 1 680.95 14.97 2
3 2 1 713.03 14.96 1
-3 -2 -1 670.2 15.19 1
4 2 1 944.67 19.91 1
4 2 1 910.03 19.96 2
-4 -2 -1 893.31 20.23 1
-5 -2 -1 250.04 8.4 4
5 2 1 231.08 8.23 2
-5 -2 -1 231.8 8.56 1
-5 -2 -1 244.81 9 2
5 2 1 246.44 8.37 1
-6 -2 -1 1.51 1.78 4
6 2 1 -0.35 0.98 2
-6 -2 -1 2.24 1.73 1
-6 -2 -1 2.5 1.81 2
-7 -2 -1 406.67 14.12 1
-7 -2 -1 402.55 14.45 2
-7 -2 -1 418.31 13.33 4
7 2 1 407.3 13.39 2
-8 -2 -1 -1.21 2.08 1
-8 -2 -1 2.98 2.55 4
8 2 1 0.38 1.24 4
-8 -2 -1 -0.4 2.15 2
8 2 1 2.34 1.73 2
-9 3 1 15.91 3.41 2
9 -3 -1 21.54 3.81 1
9 -3 -1 27.86 4.16 2
-9 3 1 15.45 2.52 4
-8 3 1 22.36 2.54 4
8 -3 -1 29.09 3.72 1
8 -3 -1 23.35 3.46 2
-8 3 1 28.79 3.66 2
7 -3 -1 34.32 3.55 1
7 -3 -1 36.45 3.68 2
-7 3 1 33.51 2.64 4
-7 3 1 37.99 3.63 2
-6 3 1 93.67 4.82 2
6 -3 -1 101.12 5.19 2
6 -3 -1 96.53 5.02 1
-6 3 1 94.01 3.8 4
-5 3 1 124.92 3.79 4
-5 3 1 129.2 5.07 2
5 -3 -1 134.81 5.37 1
-4 3 1 6.77 1.23 2
4 -3 -1 6.01 1.21 1
3 -3 -1 319.72 7.61 1
2 -3 -1 68.36 2.18 1
0 -3 -1 71.04 1.78 1
-1 -3 -1 426.77 8.97 1
2 3 1 27.3 1.69 2
-2 -3 -1 28.95 1.98 1
-3 -3 -1 121.85 4.93 1
3 3 1 129.44 4.6 2
3 3 1 122.29 3.13 4
3 3 1 129.26 3.16 4
-4 -3 -1 31.94 2.96 1
4 3 1 31.03 2.59 2
4 3 1 26.32 1.76 4
5 3 1 19.34 1.75 4
5 3 1 19.36 2.4 2
-5 -3 -1 16.42 2.7 1
-6 -3 -1 32.57 3.92 1
6 3 1 34.09 2.48 4
6 3 1 34.16 3.47 2
7 3 1 10.08 1.76 4
7 3 1 14.68 2.83 2
-7 -3 -1 14.29 3.38 1
-8 -3 -1 26.98 4.6 1
8 3 1 29.22 4.03 2
8 3 1 28.42 2.77 4
-9 4 1 0.53 1.94 2
9 -4 -1 1.52 1.77 1
8 -4 -1 0.69 1.53 1
-8 4 1 0.56 1.59 2
-7 4 1 9.15 2.1 2
7 -4 -1 8.86 2.13 1
-6 4 1 93.64 4.52 2
-6 4 1 104.11 5.23 3
6 -4 -1 97.2 5.03 1
-4 4 1 434.99 12.17 3
-4 4 1 459.86 9.54 2
4 -4 -1 460.85 10.87 1
2 -4 -1 1376.23 24.68 1
-2 4 1 1378.99 29.12 3
-1 4 1 82.42 4.14 3
0 -4 -1 466.8 8.92 1
0 4 1 471.39 12.19 3
-1 -4 -1 1254.29 23.55 1
-2 -4 -1 105 4.03 1
2 4 1 101.21 3 2
3 4 1 1108.46 22.07 2
-3 -4 -1 1120.51 23.45 1
-4 -4 -1 17.77 2.52 1
4 4 1 26.4 2.36 2
-5 -4 -1 79.95 5.14 1
5 4 1 81.44 4.47 2
6 4 1 139.25 6.57 2
-6 -4 -1 135.4 7.34 1
-7 -4 -1 70.14 6.29 1
7 4 1 66.96 4.93 2
-9 5 1 6.45 2.13 2
9 -5 -1 6.64 2.39 1
8 -5 -1 16.29 2.99 1
-8 5 1 16.83 2.6 2
-7 5 1 98.87 4.57 2
7 -5 -1 84.25 5.18 1
-6 5 1 31.99 2.33 2
-6 5 1 31.87 3.65 3
6 -5 -1 30.06 2.96 1
5 -5 -1 34.07 2.67 1
-5 5 1 35.22 3.57 3
-5 5 1 36.22 1.61 2
-4 5 1 18.98 2.74 3
4 -5 -1 25.66 2.08 1
-3 5 1 8.47 2.03 3
3 -5 -1 8.76 1.07 1
-2 5 1 5.13 1.66 3
-1 5 1 3.68 1.45 3
0 -5 -1 118.82 3.07 1
0 5 1 108.87 5.4 3
1 5 1 35.92 3.07 3
-1 -5 -1 36.02 2.1 1
-2 -5 -1 98.16 4.2 1
2 5 1 94.99 4.88 3
3 5 1 19.35 2.46 3
-3 -5 -1 19.98 2.37 1
3 5 1 16.08 1.28 2
4 5 1 74.96 3.41 2
-4 -5 -1 67.77 4.53 1
-5 -5 -1 -0.36 1.51 1
5 5 1 1.61 1.18 2
6 5 1 30.09 3.07 2
-6 -5 -1 27.67 4.22 1
-8 6 1 0.31 1.21 2
8 -6 -1 0.76 1.46 1
7 -6 -1 3.95 1.83 1
-7 6 1 4.97 2.63 3
-6 6 1 71.37 5.31 3
6 -6 -1 72.13 4.26 1
5 -6 -1 1.05 1.11 1
-5 6 1 -1.49 1.48 3
-4 6 1 139.09 7.04 3
4 -6 -1 136.89 4.76 1
3 -6 -1 255.88 6.1 1
-3 6 1 241.8 9.57 3
-2 6 1 190.61 8.11 3
-1 6 1 330.51 11.15 3
0 6 1 74.12 4.85 3
0 -6 -1 73.38 2.53 1
1 6 1 645.92 17.33 3
-1 -6 -1 640.48 13.68 1
-2 -6 -1 357.21 9.67 1
2 6 1 359.39 11.55 3
-3 -6 -1 494.15 13.2 1
3 6 1 498.61 14.24 3
-4 -6 -1 66.32 4.72 1
-5 -6 -1 -0.98 1.71 1
6 6 1 116.76 4.66 2
8 -7 -1 2.92 1.92 1
7 -7 -1 42.28 3.85 1
-7 7 1 42.41 4.92 3
-6 7 1 13.97 3.48 3
6 -7 -1 17.73 2.51 1
-5 7 1 11.99 3.12 3
5 -7 -1 15.46 1.96 1
-4 7 1 61.34 5.13 3
4 -7 -1 70.39 3.18 1
3 -7 -1 2.15 0.74 1
-3 7 1 0.95 1.76 3
-2 7 1 62.77 5.09 3
-1 7 1 18.6 3.12 3
0 -7 -1 85.24 3.02 1
0 7 1 81.39 5.6 3
-1 -7 -1 15.83 1.77 1
1 7 1 16.05 2.97 3
2 7 1 48.54 4.52 3
-2 -7 -1 42.8 3.15 1
-3 -7 -1 17.47 2.74 1
-4 -7 -1 11.14 2.7 1
-7 8 1 29.43 4.88 3
7 -8 -1 38.22 3.68 1
-6 8 1 24.33 4.51 3
6 -8 -1 23.69 2.76 1
5 -8 -1 143.26 5.44 1
-5 8 1 143.88 8.72 3
-4 8 1 12.02 3.35 3
4 -8 -1 9.47 1.37 1
-3 8 1 437.38 15.67 3
-2 8 1 39.07 4.87 3
-1 8 1 82.67 6.29 3
0 8 1 343.31 13.29 3
0 -8 -1 358.28 8.15 1
-1 -8 -1 1.28 1.21 1
1 8 1 1.39 1.96 3
-2 -8 -1 441.31 12.04 1
2 8 1 449.68 15.31 3
-3 -8 -1 1.09 1.93 1
5 -9 -1 7.79 1.65 1
-5 9 1 9.26 3.53 3
-4 9 1 1.02 2.37 3
-3 9 1 19.33 4.16 3
-2 9 1 10.28 3.43 3
-1 9 1 1.66 2.36 3
0 9 1 14.64 3.62 3
1 9 1 0.62 2.11 3
-1 -9 -1 0.2 1.47 1
2 9 -2 90.21 6.92 3
-2 -9 2 91.45 5.02 1
-1 -9 2 -0.12 1.39 1
1 9 -2 1.65 2.04 3
0 9 -2 22.25 4.17 3
-1 9 -2 0.85 1.93 3
-2 9 -2 11.21 3.39 3
-3 9 -2 34.51 5.09 3
-4 9 -2 2.47 2.33 3
4 -9 2 5.93 1.49 1
-5 9 -2 1.3 2.56 3
5 -9 2 2.39 1.51 1
-4 -8 2 9.1 2.8 1
-3 -8 2 59.36 4.48 1
3 8 -2 48.21 4.88 3
2 8 -2 127.91 7.47 3
-2 -8 2 126.97 5.54 1
1 8 -2 56.15 5.28 3
-1 -8 2 56.14 3.28 1
0 -8 2 172.63 5.21 1
0 8 -2 172.95 9.01 3
1 -8 2 7.36 1.23 1
-1 8 -2 7.24 2.54 3
-2 8 -2 35.56 4.67 3
2 -8 2 30.31 1.88 1
-3 8 -2 48.87 5.39 3
3 -8 2 58.79 2.91 1
-4 8 -2 56.94 5.76 3
4 -8 2 60.09 3.39 1
-5 8 -2 -0.81 2.13 3
5 -8 2 1.66 1.35 1
-6 8 -2 13.27 3.78 3
6 -8 2 19.03 2.81 1
-5 -7 2 2.18 2.07 1
-4 -7 2 3.91 2.12 1
3 7 -2 321.12 11.51 3
-3 -7 2 317.57 10.09 1
2 7 -2 -0.67 1.32 3
-2 -7 2 0.07 1.18 1
-1 -7 2 337.78 8.67 1
1 7 -2 347.41 12.31 3
0 7 -2 76.93 5.56 3
0 -7 2 75.84 3.06 1
1 -7 2 242.26 5.81 1
-1 7 -2 226.73 9.92 3
-2 7 -2 292.57 11.64 3
2 -7 2 304.26 7.12 1
3 -7 2 200.39 5.81 1
-3 7 -2 193.47 9.26 3
4 -7 2 174.72 6.02 1
-4 7 -2 179.66 8.95 3
5 -7 2 13.99 2.16 1
-5 7 -2 9.06 2.91 3
6 -7 2 158.01 6.94 1
-6 7 -2 165.14 8.92 3
-7 7 -2 0.7 2.33 3
7 -7 2 2.55 1.77 1
6 6 -2 8.39 1.67 2
-6 -6 2 14.41 3.38 1
5 6 -2 41.22 2.35 2
-5 -6 2 32.65 4 1
-4 -6 2 125.43 6.18 1
-3 -6 2 4.09 1.59 1
3 6 -2 3.31 1.75 3
-2 -6 2 424.55 10.66 1
2 6 -2 404.53 12.66 3
-1 -6 2 95.3 3.69 1
1 6 -2 99.08 5.65 3
0 -6 2 308.78 7.09 1
0 6 -2 306.54 10.75 3
1 -6 2 95.74 3.02 1
-1 6 -2 94.16 5.62 3
2 -6 2 0.81 0.75 1
-2 6 -2 0.74 1.35 3
3 -6 2 364.22 8.85 1
-3 6 -2 356.68 12.34 3
-4 6 -2 38.22 4.12 3
4 -6 2 41.91 2.86 1
-5 6 -2 83.13 5.61 3
5 -6 2 74.13 4.17 1
-6 6 -2 96.57 6.27 3
6 -6 2 88.55 5.07 1
-7 6 -2 2.69 1.3 2
7 -6 2 2.56 1.64 1
8 -6 2 15.37 3.17 1
-8 6 -2 16.5 2.35 2
7 5 -2 51.83 4.03 2
-7 -5 2 46.19 5.5 1
6 5 -2 0.06 1.07 2
-6 -5 2 0.76 1.89 1
5 5 -2 36.56 2.78 2
-5 -5 2 28.97 3.56 1
-4 -5 2 319.96 10.18 1
4 5 -2 324.67 8.35 2
-3 -5 2 307.5 9.18 1
3 5 -2 317.79 9.74 3
3 5 -2 324.8 7.05 2
-2 -5 2 498.64 11.64 1
2 5 -2 491.57 13.39 3
-1 -5 2 93.59 3.4 1
1 5 -2 86.01 4.8 3
0 -5 2 688.71 13.41 1
0 5 -2 697.15 17.54 3
-1 5 -2 4.94 1.76 3
1 -5 2 6.28 0.89 1
-2 5 -2 667.8 17.18 3
2 -5 2 642.74 13.15 1
-3 5 -2 17.39 2.62 3
3 -5 2 22.77 1.86 1
4 -5 2 136.39 5.25 1
-4 5 -2 146.91 6.74 3
5 -5 2 117.45 5.27 1
-5 5 -2 116.85 6.15 3
-5 5 -2 116.67 4.15 2
6 -5 2 46.12 3.66 1
-6 5 -2 48.96 4.45 3
-6 5 -2 46.4 3.11 2
7 -5 2 16.23 2.88 1
-7 5 -2 17.27 2.49 2
8 -5 2 2.76 1.76 1
-8 5 -2 5.74 2.07 2
7 4 -2 2.29 1.59 2
-7 -4 2 5.01 2.62 1
-6 -4 2 170.18 8.13 1
6 4 -2 182.92 7.46 2
-5 -4 2 39.04 3.78 1
5 4 -2 35.52 3.03 2
4 4 -2 155.61 5.5 2
-4 -4 2 149.06 6.21 1
-3 -4 2 497.08 12.26 1
3 4 -2 496.34 11.15 2
-2 -4 2 153.39 4.98 1
2 4 -2 151.66 3.94 2
-1 -4 2 655.29 13.2 1
1 4 -2 663.62 15.78 3
0 4 -2 100 4.63 3
0 -4 2 99.34 2.84 1
1 -4 2 11.6 0.99 1
-1 4 -2 10.03 1.82 3
-2 4 -2 284.03 8.86 3
2 -4 2 268.56 6.53 1
3 -4 2 16.65 1.63 1
-3 4 -2 17.33 2.3 3
-3 4 -2 17.11 1.24 2
-4 4 -2 1.81 1.31 3
-4 4 -2 1.27 0.91 2
4 -4 2 0.33 0.74 1
5 -4 2 5.1 1.47 1
-5 4 -2 5.62 1.44 2
-5 4 -2 2.88 1.65 3
6 -4 2 90.96 5.11 1
-6 4 -2 85.93 4.59 2
-7 4 -2 2.1 0.9 4
-7 4 -2 0.42 1.36 2
7 -4 2 3.89 1.81 1
-8 4 -2 -0.42 1.51 2
8 -4 2 -2.32 1.19 1
-8 4 -2 0.01 0.99 4
8 3 -2 17.04 3.25 2
-8 -3 2 15.44 3.94 2
-8 -3 2 11.93 3.4 1
7 3 -2 196.48 8.67 2
-7 -3 2 221.31 10.07 2
-7 -3 2 197.99 9.36 1
-6 -3 2 12.26 2.62 1
6 3 -2 12.39 2.3 2
-6 -3 2 14.23 2.9 2
-5 -3 2 62.53 4.27 1
5 3 -2 65.58 4.04 2
-4 -3 2 441.06 11.81 1
4 3 -2 442.52 11.33 2
3 3 -2 203.21 5.97 2
-3 -3 2 188.84 6.24 1
2 3 -2 220.99 5.67 2
-2 -3 2 225.35 6.12 1
-1 -3 2 36.43 1.77 1
0 -3 2 0.62 0.42 1
1 -3 2 24.02 1.35 1
2 -3 2 26.31 1.68 1
-3 3 -2 78.89 3.16 2
3 -3 2 79.04 3.38 1
4 -3 2 89.27 4.11 1
-4 3 -2 87.89 3.91 2
-4 3 -2 85.42 2.86 4
-5 3 -2 194.5 5.59 4
5 -3 2 192.09 7.13 1
-5 3 -2 186.08 6.78 2
6 -3 2 30.85 3.28 1
-6 3 -2 31.63 2.48 4
6 -3 2 29.79 3.16 2
-6 3 -2 25.88 3.02 2
7 -3 2 12.09 2.64 1
-7 3 -2 12.32 2.05 4
-7 3 -2 14.25 2.66 2
7 -3 2 13.9 2.73 2
-8 3 -2 63.99 5.13 2
8 -3 2 67.79 5.35 2
-8 3 -2 65.71 4.19 4
8 -3 2 70.29 5.5 1
-9 3 -2 3.76 2.29 2
9 -3 2 6 2.62 1
9 -3 2 4.21 2.43 2
-9 3 -2 3.29 1.9 4
-8 -2 2 70.78 5.81 4
-8 -2 2 75.96 6.1 1
8 2 -2 65.31 5.3 2
-8 -2 2 64.9 6.21 2
-7 -2 2 53.96 5.11 2
-7 -2 2 58.64 5.13 1
7 2 -2 58.36 4.54 2
-7 -2 2 48.01 4.55 4
-6 -2 2 56.94 4.11 4
-6 -2 2 60.8 4.39 1
6 2 -2 50.46 3.88 2
-6 -2 2 54.44 4.66 2
6 2 -2 58.16 4.11 1
5 2 -2 151.56 6 1
5 2 -2 124.79 5.71 2
-5 -2 2 132.06 5.75 4
-5 -2 2 137.06 6.33 2
-5 -2 2 139.29 6.16 1
4 2 -2 31.9 2.53 1
-4 -2 2 25.79 2.53 1
4 2 -2 27.69 2.41 2
-3 -2 2 573.74 12.98 1
3 2 -2 570.85 12.66 1
3 2 -2 579.31 12.94 2
-2 -2 2 209.54 5.62 1
-1 -2 2 881.23 16.59 1
0 -2 2 203.55 4.53 1
1 -2 2 601.88 11.75 1
-2 2 -2 100.16 2.7 4
2 -2 2 101.9 3.41 1
-3 2 -2 14.83 1.31 4
3 -2 2 18.92 1.75 1
-3 2 -2 13.29 1.53 2
-4 2 -2 -0.76 0.73 4
-4 2 -2 1.57 0.98 2
-4 2 -2 -0.18 0.91 1
4 -2 2 1.01 0.86 1
-5 2 -2 250.57 8.49 2
-5 2 -2 258.18 7.61 4
-5 2 -2 271.86 8.42 1
5 -2 2 252.26 8.46 1
5 -2 2 261.14 8.53 2
6 -2 2 15.87 2.45 2
-6 2 -2 17.12 2.72 2
6 -2 2 15.6 2.51 1
-6 2 -2 14.51 2.6 1
-6 2 -2 12.15 2.1 4
-7 2 -2 53.75 3.95 4
7 -2 2 67.4 4.85 2
-7 2 -2 61.6 4.74 2
7 -2 2 64.68 4.8 1
8 -2 2 42.86 4.61 1
8 -2 2 50.65 4.88 2
-8 2 -2 25.61 3.3 4
-8 2 -2 41.36 4.7 2
9 -2 2 37.94 4.83 1
-9 2 -2 28.84 4.48 2
-9 2 -2 25.3 3.52 4
9 -2 2 32.94 4.47 2
-9 -1 2 -0.78 2.15 4
-9 -1 2 -0.83 2.53 1
9 1 -2 0.8 1.66 2
-9 -1 2 2.76 2.74 2
-8 -1 2 121.93 7.44 1
8 1 -2 125.18 7.19 2
-8 -1 2 131.84 7.83 2
-8 -1 2 128.87 7.03 4
8 1 -2 124.49 7.14 1
7 1 -2 3.79 1.74 1
-7 -1 2 -0.15 1.62 2
7 1 -2 -0.07 1.1 2
-7 -1 2 4.57 2.02 4
-7 -1 2 4.55 2.19 1
6 1 -2 124.78 6.1 2
-6 -1 2 123.48 6.3 2
-6 -1 2 117.73 5.94 1
-6 -1 2 126.68 5.82 4
6 1 -2 128.85 6.04 1
-5 -1 2 447.31 12.34 1
-5 -1 2 460.84 11.81 4
5 1 -2 447.76 12.15 1
-5 -1 2 493.8 12.99 2
5 1 -2 450.36 12.42 2
4 1 -2 463.12 11.73 2
-4 -1 2 456 11.03 4
-4 -1 2 464.04 11.67 1
4 1 -2 484.68 11.63 1
3 1 -2 1302.23 25.11 1
-3 -1 2 1295.85 25.22 1
-2 -1 2 48.85 2.3 1
-1 -1 2 2927.52 51.35 1
1 -1 2 1989.82 35.48 1
2 -1 2 86.03 3.2 1
-2 1 -2 85.93 2.9 4
-3 1 -2 639.77 13.99 2
3 -1 2 594.75 13.75 1
-3 1 -2 647.7 13.16 4
-3 1 -2 643.28 13.85 1
4 -1 2 221.43 7.28 1
-4 1 -2 226.73 7.38 2
4 -1 2 230.52 7.27 2
-4 1 -2 227.78 7.17 1
-4 1 -2 236.57 6.85 4
-5 1 -2 161.56 6.12 4
5 -1 2 174.39 6.87 1
5 -1 2 174.13 6.78 2
-5 1 -2 181.74 6.81 1
-5 1 -2 174.1 6.91 2
6 -1 2 50.86 3.9 1
6 -1 2 53.03 3.96 2
-6 1 -2 46.47 3.57 4
-6 1 -2 55.2 4.17 1
-6 1 -2 48.32 4.22 2
-7 1 -2 6.46 2.23 2
-7 1 -2 0.91 1.9 1
7 -1 2 5.93 2.02 1
7 -1 2 3.3 1.67 2
-7 1 -2 3.74 1.89 4
8 -1 2 28.85 3.96 1
8 -1 2 30.63 4.02 2
-8 1 -2 31.14 4.43 2
-8 1 -2 25.72 3.6 4
-8 1 -2 41.89 4.84 1
9 -1 2 10.23 3.18 1
-9 1 -2 6.09 2.42 4
-9 1 -2 4.49 2.62 2
9 -1 2 8.12 2.81 2
-9 0 2 56.77 5.21 4
-9 0 2 53.13 5.81 2
9 0 -2 47.22 5.04 2
-9 0 2 63.04 6.07 1
9 0 -2 71.6 5.83 1
8 0 -2 4.42 2.09 1
8 0 -2 7.43 2.31 2
-8 0 2 4.85 2.43 2
-8 0 2 3.84 2.4 1
-8 0 2 5.68 2.27 4
-7 0 2 133.04 6.43 4
7 0 -2 149.47 7.12 2
-7 0 2 149.06 7.43 2
7 0 -2 140.09 6.95 1
-7 0 2 137.16 7.03 1
-6 0 2 17.14 2.5 4
6 0 -2 12.76 2.17 1
-6 0 2 16.13 2.66 1
6 0 -2 18.31 2.55 2
-6 0 2 15.48 2.61 2
-5 0 2 20.37 2.33 4
5 0 -2 18.03 2.25 2
-5 0 2 15.82 2.22 1
5 0 -2 25.6 2.55 1
-5 0 2 19.43 2.55 2
4 0 -2 944.11 20.15 1
-4 0 2 989.05 19.44 4
4 0 -2 971.18 20.46 2
-4 0 2 950.57 20.13 1
-4 0 2 985.57 20.62 2
3 0 -2 22.8 1.74 1
-3 0 2 22.58 1.87 1
2 0 -2 4369.02 77.31 1
-2 0 2 4481.05 77.35 1
2 0 2 1240 23.53 1
-2 0 -2 1229.61 23.52 1
-3 0 -2 26.47 2.06 1
3 0 2 25.57 2.04 1
-3 0 -2 29.09 2.08 4
4 0 2 851.02 18.96 1
-4 0 -2 866.05 18.1 4
-4 0 -2 868.59 19.26 2
-4 0 -2 861.44 18.97 1
4 0 2 847.47 18.93 2
5 0 2 108.46 5.3 1
-5 0 -2 108.92 5.53 2
-5 0 -2 116.02 5.15 4
-5 0 -2 121.33 5.57 1
5 0 2 107.36 5.26 2
-6 0 -2 270.04 9.14 4
-6 0 -2 271.44 10.12 2
6 0 2 270.08 9.62 2
-6 0 -2 261.43 9.62 1
6 0 2 270.68 9.65 1
7 0 2 1.98 1.61 1
-7 0 -2 0.26 1.79 1
7 0 2 0.51 1.17 2
-7 0 -2 0.71 1.66 4
-7 0 -2 2.18 2.03 2
-8 0 -2 211.9 10.32 2
-8 0 -2 208.7 9.99 1
8 0 2 195.71 9.4 1
8 0 2 197.54 9.48 2
-9 1 2 55.56 5.73 2
9 -1 -2 57.56 5.48 1
9 -1 -2 42.66 4.87 2
-9 1 2 55.5 4.8 4
-8 1 2 35.29 3.75 4
-8 1 2 34.25 4.29 1
8 -1 -2 31.57 3.86 2
8 -1 -2 38.99 4.14 1
-8 1 2 27.15 3.86 2
7 -1 -2 153.96 7.19 1
-7 1 2 167.24 7.41 1
7 -1 -2 151.8 7.24 2
-7 1 2 142.38 7.14 2
-7 1 2 146.95 6.36 4
-6 1 2 62.32 4.22 2
-6 1 2 63.95 4.23 1
6 -1 -2 69.15 4.39 1
6 -1 -2 65.38 4.27 2
-6 1 2 66.43 3.86 4
5 -1 -2 1073.8 23.12 2
-5 1 2 1076.1 22.69 1
5 -1 -2 1065.84 22.9 1
-5 1 2 1060.7 23.08 2
-5 1 2 1067.97 21.52 4
-4 1 2 436 9.93 4
-4 1 2 439.16 10.56 1
4 -1 -2 424.62 10.67 1
-4 1 2 422.68 10.76 2
-3 1 2 1084.89 20.97 1
-3 1 2 1081.73 20.06 4
3 -1 -2 1080.23 21.16 1
2 -1 -2 1963.48 35.26 1
-1 -1 -2 266.8 6.18 1
2 1 2 454.08 10.14 1
-2 -1 -2 454.88 10.33 1
-3 -1 -2 17.98 1.86 1
3 1 2 19.05 1.88 1
3 1 2 16.96 1.76 2
4 1 2 234.4 7.53 1
-4 -1 -2 241.06 7.32 4
4 1 2 224.61 7.45 2
-4 -1 -2 226.39 7.66 1
-4 -1 -2 230.03 7.8 2
-5 -1 -2 3.25 1.64 2
-5 -1 -2 2.64 1.56 1
-5 -1 -2 2.81 1.6 4
5 1 2 1.4 0.98 2
5 1 2 2.87 1.35 1
-6 -1 -2 1.24 1.65 4
-6 -1 -2 2.86 1.86 2
6 1 2 1.43 1.28 1
6 1 2 3.05 1.43 2
-6 -1 -2 -0.31 1.35 1
7 1 2 19.86 3.11 2
-7 -1 -2 22.35 3.65 1
7 1 2 15.66 2.96 1
-7 -1 -2 20.42 3.68 2
-7 -1 -2 20.39 3.33 4
8 1 2 2.55 1.83 2
-8 -1 -2 4.41 2.66 1
-8 -1 -2 2.91 2.25 4
-8 -1 -2 3.36 2.53 2
9 -2 -2 36.53 4.54 1
9 -2 -2 30.79 4.16 2
-9 2 2 37.16 4.64 2
-9 2 2 34.04 3.69 4
-8 2 2 123.45 5.85 4
-8 2 2 114.69 6.67 2
8 -2 -2 130.58 7.15 2
8 -2 -2 112.17 6.63 1
-7 2 2 34.42 3.63 2
-7 2 2 39.67 3.12 4
-7 2 2 41.4 3.87 1
7 -2 -2 38.28 3.77 2
7 -2 -2 39.35 3.81 1
6 -2 -2 133.21 6.05 1
-6 2 2 136.32 5.21 4
-6 2 2 140.06 6.12 2
6 -2 -2 145.79 6.33 2
-6 2 2 145.21 6.09 1
-5 2 2 56 3.41 2
-5 2 2 63.39 3.08 4
5 -2 -2 61.93 3.64 1
-5 2 2 64.22 3.61 1
4 -2 -2 380.13 9.71 1
-4 2 2 393.66 8.59 4
-4 2 2 385.04 9.66 2
3 -2 -2 297.16 7.31 1
-3 2 2 293.24 6.14 4
2 -2 -2 910.76 17.14 1
1 -2 -2 917.76 16.65 1
0 -2 -2 570.38 10.88 1
-1 -2 -2 162.57 4.39 1
-2 -2 -2 2.72 0.88 1
2 2 2 4.58 0.72 4
2 2 2 4.15 0.88 2
3 2 2 125.35 4.67 2
3 2 2 123.54 3.99 4
-3 -2 -2 126.47 4.92 1
3 2 2 121.6 4.63 1
4 2 2 267.14 7.27 4
-4 -2 -2 279.69 8.95 2
-4 -2 -2 267.2 8.2 4
4 2 2 264.6 8.15 1
-4 -2 -2 259.15 8.54 1
4 2 2 256.13 8.19 2
5 2 2 57.75 3.84 2
-5 -2 -2 68.33 4.66 2
-5 -2 -2 55.19 3.88 4
-5 -2 -2 50.48 3.93 1
5 2 2 49.79 3.69 1
6 2 2 94.42 4.62 4
6 2 2 85.69 5.23 2
-6 -2 -2 92.79 5.49 4
-6 -2 -2 90.76 5.75 1
-6 -2 -2 97.21 6.17 2
-7 -2 -2 5.91 2.75 2
7 2 2 2.69 1.65 2
7 2 2 4.94 1.54 4
-7 -2 -2 4.67 2.41 4
-7 -2 -2 2.49 2.28 1
-8 -2 -2 22.23 4.24 1
8 2 2 14.74 3.16 2
-8 -2 -2 19.41 4.23 2
-8 -2 -2 17.79 3.79 4
8 2 2 20.73 2.83 4
-9 3 2 158.5 8.4 2
-9 3 2 181.28 6.97 4
9 -3 -2 172.93 8.77 1
8 -3 -2 12.95 2.76 1
-8 3 2 9.37 1.92 4
-8 3 2 6.77 2.13 2
7 -3 -2 212.26 8.54 1
-7 3 2 214.89 8.29 2
-7 3 2 222.79 6.79 4
6 -3 -2 81.81 4.63 2
-6 3 2 82.42 4.38 2
-6 3 2 73.55 3.24 4
6 -3 -2 75.85 4.45 1
-5 3 2 428.34 9.02 4
5 -3 -2 440.99 11.36 1
-5 3 2 426.31 10.91 2
4 -3 -2 66.62 3.25 1
-4 3 2 68.31 3.03 2
3 -3 -2 93.33 3.33 1
2 -3 -2 54.68 1.98 1
1 -3 -2 53.34 1.52 1
0 -3 -2 19.96 1.08 1
-1 -3 -2 47.87 2.19 1
2 3 2 -0.35 0.54 2
-2 -3 -2 -0.23 0.65 1
3 3 2 160.53 5.4 2
-3 -3 -2 155.08 5.72 1
3 3 2 157.71 3.83 4
3 3 2 152.58 3.82 4
4 3 2 9.88 1.77 2
4 3 2 9.61 1.25 4
-4 -3 -2 11.88 2.18 1
5 3 2 14.61 1.67 4
-5 -3 -2 25.3 3.2 1
5 3 2 22 2.57 2
6 3 2 8.33 2.16 2
-6 -3 -2 14.44 3.04 1
6 3 2 8.39 1.57 4
7 3 2 7.64 1.66 4
7 3 2 6.03 2.07 2
-7 -3 -2 9 2.82 1
9 -4 -2 -0.12 1.5 1
-9 4 2 -0.91 1.72 2
8 -4 -2 80.6 5.58 1
-8 4 2 77.6 5.02 2
-7 4 2 -1.75 1.08 2
7 -4 -2 0.88 1.22 1
-6 4 2 4.45 1.48 2
6 -4 -2 1.63 1.11 1
-6 4 2 3.54 1.71 3
-5 4 2 54.89 3.73 3
5 -4 -2 52.31 3.2 1
-5 4 2 46.59 2.66 2
-4 4 2 1.67 0.72 2
4 -4 -2 1.95 0.92 1
-4 4 2 1.15 1.25 3
3 -4 -2 125.25 3.9 1
-3 4 2 122.51 5.44 3
-2 4 2 261.85 8.4 3
2 -4 -2 261.27 5.62 1
-1 4 2 435.21 11.72 3
0 -4 -2 2.8 0.61 1
0 4 2 6.24 1.51 3
1 4 2 34.9 2.7 3
-1 -4 -2 34.04 1.96 1
2 4 2 142.84 3.99 2
-2 -4 -2 142.15 5.05 1
2 4 2 133.86 5.42 3
-3 -4 -2 47.92 3.27 1
3 4 2 49.62 2.71 2
4 4 2 162.48 5.99 2
-4 -4 -2 168.12 6.99 1
-5 -4 -2 104.34 6.03 1
5 4 2 102.76 5.13 2
-6 -4 -2 13.36 3.14 1
6 4 2 15.18 2.56 2
7 4 2 87.88 5.65 2
-7 -4 -2 80.69 6.5 1
-9 5 2 47.09 4.16 2
9 -5 -2 39.31 4.66 1
-8 5 2 98.89 5.18 2
8 -5 -2 101.88 6.25 1
7 -5 -2 0.4 1.12 1
-7 5 2 2.17 1.31 2
-6 5 2 411.12 12.83 3
6 -5 -2 401.67 11.65 1
-6 5 2 428.58 9.91 2
-5 5 2 33.55 3.49 3
5 -5 -2 31.21 2.58 1
4 -5 -2 276.74 7.37 1
-4 5 2 265.12 9.49 3
3 -5 -2 344.62 7.71 1
-3 5 2 327.57 10.72 3
-2 5 2 260.8 9.16 3
2 -5 -2 266.96 5.58 1
-1 5 2 189.16 7.44 3
0 -5 -2 15.08 1.19 1
0 5 2 9.26 1.97 3
1 5 2 184.74 7.18 3
-1 -5 -2 182.26 5.39 1
-2 -5 -2 4.69 1.36 1
2 5 2 4.56 1.6 3
3 5 2 102.03 3.32 2
-3 -5 -2 104.59 5.05 1
3 5 2 106.78 5.13 3
-4 -5 -2 -0.03 1.33 1
4 5 2 -0.2 0.86 2
-5 -5 -2 -1.18 1.58 1
5 5 2 0.63 1.06 2
-6 -5 -2 7.85 2.76 1
6 5 2 7.52 1.96 2
8 -6 -2 3.21 1.94 1
-8 6 2 4.24 1.4 2
-7 6 2 0.69 1.93 3
7 -6 -2 2.44 1.57 1
-6 6 2 69.37 5.27 3
6 -6 -2 55.77 3.79 1
5 -6 -2 -0.45 0.82 1
-5 6 2 -0.85 1.4 3
-4 6 2 188.21 8.31 3
4 -6 -2 184.2 5.65 1
3 -6 -2 27.37 1.7 1
-3 6 2 31.22 3.51 3
-2 6 2 3.22 1.65 3
-1 6 2 24.02 3.07 3
0 6 2 19.61 2.86 3
0 -6 -2 22.23 1.52 1
-1 -6 -2 61.24 3.02 1
1 6 2 59.93 4.37 3
2 6 2 33.15 3.4 3
-2 -6 -2 23.47 2.4 1
-3 -6 -2 209.32 7.8 1
-4 -6 -2 48.06 4.32 1
-5 -6 -2 137.69 7.67 1
8 -7 -2 20.69 3.31 1
-7 7 2 157.48 8.78 3
7 -7 -2 160.25 7.28 1
-6 7 2 10.96 3.2 3
6 -7 -2 18.79 2.5 1
5 -7 -2 213.5 6.92 1
-5 7 2 217.3 9.9 3
4 -7 -2 18.47 1.73 1
-4 7 2 20.52 3.44 3
3 -7 -2 311.69 6.88 1
-3 7 2 285.74 11.42 3
-2 7 2 3.73 1.98 3
-1 7 2 84.18 5.71 3
0 7 2 20.5 3.17 3
0 -7 -2 23.41 1.76 1
1 7 2 28.97 3.66 3
-1 -7 -2 23.86 2.19 1
2 7 2 21.81 3.3 3
-2 -7 -2 15.62 2.26 1
-3 -7 -2 10.76 2.43 1
-4 -7 -2 1.71 2.01 1
7 -8 -2 2.77 1.74 1
-7 8 2 2.12 2.49 3
6 -8 -2 10.8 2.13 1
-6 8 2 10.69 3.44 3
5 -8 -2 6.91 1.54 1
-5 8 2 2.69 2.41 3
-4 8 2 3.36 2.61 3
4 -8 -2 5.88 1.21 1
-3 8 2 47.54 5.29 3
-2 8 2 86.49 6.38 3
-1 8 2 46.79 5.04 3
0 -8 -2 7.82 1.33 1
0 8 2 7.52 2.57 3
-1 -8 -2 146.82 5.4 1
1 8 2 142.75 8.13 3
-2 -8 -2 4.18 1.84 1
2 8 2 3.5 2.23 3
-3 -8 -2 69.8 4.94 1
5 -9 -2 14.32 1.88 1
-5 9 2 11.94 3.69 3
-4 9 2 12.16 3.84 3
-3 9 2 29.2 4.84 3
-2 9 2 -1.38 1.58 3
-1 9 2 -1.17 1.84 3
0 9 2 0.71 2.12 3
1 9 2 0.42 1.98 3
-1 -9 -2 1.1 1.54 1
2 9 -3 15.77 3.74 3
-2 -9 3 9.63 2.31 1
1 9 -3 8.75 3.1 3
-1 -9 3 8.68 1.96 1
0 9 -3 20.47 4.13 3
-1 9 -3 8.84 3.18 3
-2 9 -3 140.13 8.99 3
3 -9 3 5.87 1.44 1
-3 9 -3 3.32 2.61 3
4 -9 3 13.39 2.02 1
-4 9 -3 10.01 3.54 3
5 -9 3 29.52 3.09 1
-5 9 -3 28.18 5.11 3
-4 -8 3 37.99 4.23 1
3 8 -3 90.77 6.39 3
-3 -8 3 90.16 5.38 1
-2 -8 3 30.28 3.06 1
2 8 -3 26.81 3.96 3
-1 -8 3 201.08 6.58 1
1 8 -3 206.27 9.86 3
0 -8 3 22.28 2.07 1
0 8 -3 28.39 4.1 3
-1 8 -3 359.16 14.03 3
1 -8 3 403.67 9.31 1
2 -8 3 75.22 3.27 1
-2 8 -3 67.08 5.7 3
-3 8 -3 112.49 7.42 3
3 -8 3 109.01 4.38 1
4 -8 3 116.64 5.07 1
-4 8 -3 106.55 7.63 3
5 -8 3 0.78 1.3 1
-5 8 -3 -1.82 2.07 3
-6 8 -3 65.35 6.69 3
6 -8 3 74.78 4.9 1
-5 -7 3 0.79 1.98 1
-4 -7 3 -0.22 1.69 1
3 7 -3 9.01 2.53 3
-3 -7 3 3.55 1.91 1
2 7 -3 15.36 2.94 3
-2 -7 3 19.79 2.33 1
-1 -7 3 0.53 1.02 1
1 7 -3 0.61 1.46 3
0 7 -3 10.94 2.65 3
0 -7 3 10.3 1.46 1
-1 7 -3 263.95 10.69 3
1 -7 3 255.8 6.69 1
2 -7 3 185.79 5.5 1
-2 7 -3 178.8 8.77 3
3 -7 3 64.68 3.25 1
-3 7 -3 60.71 5.09 3
4 -7 3 1.36 1.08 1
-4 7 -3 -0.33 1.8 3
5 -7 3 148.64 6.36 1
-5 7 -3 149.46 8.41 3
6 -7 3 7.6 2.12 1
-6 7 -3 9.31 3.14 3
7 -7 3 158.77 7.88 1
-7 7 -3 157.22 8.91 3
-6 -6 3 54.48 5.45 1
6 6 -3 61.17 3.46 2
5 6 -3 128.76 4.31 2
-5 -6 3 117.67 6.78 1
-4 -6 3 71.46 4.72 1
-3 -6 3 230.46 8.05 1
3 6 -3 246.32 9.11 3
-2 -6 3 8.09 1.69 1
2 6 -3 10.91 2.32 3
-1 -6 3 84.37 3.66 1
1 6 -3 97.06 5.54 3
0 6 -3 113.62 6.12 3
0 -6 3 121.63 3.99 1
1 -6 3 18.28 1.57 1
-1 6 -3 25.08 3.21 3
2 -6 3 95.38 3.63 1
-2 6 -3 86.24 5.54 3
3 -6 3 45.59 2.7 1
-3 6 -3 41.24 4.14 3
4 -6 3 4.63 1.4 1
-4 6 -3 5.45 2.2 3
5 -6 3 156.12 6.48 1
-5 6 -3 172.08 8.31 3
6 -6 3 1.3 1.44 1
-6 6 -3 0.95 2.01 3
-6 6 -3 1.41 0.94 2
7 -6 3 77.41 5.53 1
-7 6 -3 90.6 4.15 2
8 -6 3 0.67 1.79 1
-8 6 -3 1.16 1.53 2
-7 -5 3 7.88 3.11 1
7 5 -3 2.63 1.67 2
-6 -5 3 0.66 1.99 1
6 5 -3 1.6 1.27 2
5 5 -3 0.85 1.11 2
-5 -5 3 2.92 1.79 1
4 5 -3 89.51 3.85 2
-4 -5 3 91.15 5.05 1
3 5 -3 8.47 1.95 3
-3 -5 3 12.3 2.02 1
3 5 -3 12.67 1.23 2
2 5 -3 102.91 5.23 3
-2 -5 3 101.64 4.26 1
-1 -5 3 108.68 3.85 1
1 5 -3 100.56 5.18 3
0 5 -3 80.94 4.65 3
0 -5 3 83.44 3.06 1
1 -5 3 1088.52 20.75 1
-1 5 -3 1092.01 25.14 3
2 -5 3 1.49 0.82 1
-2 5 -3 0.99 1.34 3
3 -5 3 139.22 4.94 1
-3 5 -3 151.87 6.78 3
-4 5 -3 275.8 6.37 2
4 -5 3 263.71 8.21 1
-4 5 -3 268.69 9.86 3
-5 5 -3 51.26 4.31 3
5 -5 3 51.38 3.62 1
-5 5 -3 50.23 2.87 2
-6 5 -3 348.51 9.97 2
-6 5 -3 364.2 12.11 3
6 -5 3 340.03 11.3 1
7 -5 3 21.83 3.3 1
-7 5 -3 24.95 2.96 2
8 -5 3 83.32 6.13 1
-8 5 -3 92 5.6 2
-7 -4 3 55.29 5.46 1
7 4 -3 56.05 4.35 2
-6 -4 3 18.24 3.33 1
6 4 -3 20.54 2.71 2
5 4 -3 142.46 5.88 2
-5 -4 3 143.61 6.8 1
4 4 -3 210.23 6.79 2
-4 -4 3 207.54 7.64 1
-3 -4 3 49.81 3.2 1
3 4 -3 52.85 2.75 2
-2 -4 3 519.09 11.95 1
2 4 -3 539.12 10.87 2
2 4 -3 523.41 13.27 3
1 4 -3 293.35 8.91 3
-1 -4 3 312.78 7.37 1
0 4 -3 1493.63 31.28 3
0 -4 3 1506.66 27.54 1
-1 4 -3 722.68 17.27 3
1 -4 3 719.63 14.34 1
-2 4 -3 666.47 16.34 3
2 -4 3 661.34 13.83 1
3 -4 3 449.44 10.9 1
-3 4 -3 459.47 9.94 2
-3 4 -3 465.69 12.8 3
4 -4 3 17.65 2.12 1
-4 4 -3 21.55 2.76 3
-4 4 -3 20.54 1.96 2
5 -4 3 192.94 7.34 1
-5 4 -3 206.8 7.82 3
-5 4 -3 196.79 6.82 2
-6 4 -3 1.81 1.42 2
6 -4 3 1.1 1.21 1
-7 4 -3 92.09 5.37 2
7 -4 3 97.95 6.04 1
-7 4 -3 80.1 3.21 4
8 -4 3 16.12 3.29 1
-8 4 -3 16.81 1.81 4
-8 4 -3 18.17 3.29 2
-8 -3 3 1.21 2.67 2
8 3 -3 1.68 1.65 2
-8 -3 3 6.29 2.86 1
-7 -3 3 1.89 2.48 2
-7 -3 3 -0.7 1.74 1
7 3 -3 0.09 1.23 2
-6 -3 3 4.16 2.05 1
-6 -3 3 4.72 2.22 2
6 3 -3 4.07 1.65 2
-5 -3 3 162.37 7.16 2
5 3 -3 155.63 6.39 2
-5 -3 3 158.69 6.91 1
4 3 -3 -0.52 0.69 2
-4 -3 3 0.08 1.06 1
3 3 -3 362.19 9.07 2
-3 -3 3 354.16 9.51 1
2 3 -3 113.26 3.76 2
-2 -3 3 112.06 4.02 1
-1 -3 3 85.15 3.04 1
0 -3 3 2395.03 42.65 1
1 -3 3 818.54 15.98 1
2 -3 3 246.13 6.51 1
-2 3 -3 252.4 6.1 2
-3 3 -3 37.73 1.49 4
-3 3 -3 41.97 2.41 2
3 -3 3 39.19 2.56 1
-4 3 -3 275.81 8.41 3
-4 3 -3 254.13 6.36 4
4 -3 3 258.27 8.09 1
-4 3 -3 272.07 7.9 2
-5 3 -3 192.58 5.77 4
5 -3 3 189 7.24 1
-5 3 -3 196.71 7.17 2
-5 3 -3 199.85 7.05 3
-6 3 -3 176.82 6.05 4
-6 3 -3 161.7 7.1 2
6 -3 3 183.25 7.61 2
6 -3 3 169.05 7.38 1
-7 3 -3 107.77 6.23 2
7 -3 3 115.66 6.47 2
-7 3 -3 106.47 4.98 4
7 -3 3 94.15 6.02 1
8 -3 3 4.79 2.2 2
-8 3 -3 7.24 2.12 4
-8 3 -3 2.71 1.97 2
8 -3 3 6.67 2.35 1
-8 -2 3 36.55 4.56 4
8 2 -3 32.49 4.11 2
-8 -2 3 44.99 5.19 1
-8 -2 3 37.35 5.04 2
-7 -2 3 -0.29 1.87 4
-7 -2 3 -1.38 1.63 1
-7 -2 3 -0.19 1.83 2
7 2 -3 -0.17 1.12 2
6 2 -3 301.93 10.33 2
-6 -2 3 322.56 10.36 4
6 2 -3 305.86 10.16 1
-6 -2 3 308.69 10.72 1
-6 -2 3 321.02 11.2 2
5 2 -3 48.2 3.39 1
-5 -2 3 42.95 3.4 4
-5 -2 3 39.49 3.54 1
5 2 -3 43.24 3.26 2
-5 -2 3 46.13 3.73 2
4 2 -3 649.42 15.29 2
-4 -2 3 644.26 15.42 1
4 2 -3 673.38 15.12 1
-3 -2 3 557.58 12.76 1
3 2 -3 569.6 12.51 1
3 2 -3 537.29 12.55 2
-2 -2 3 215.1 5.89 1
-1 -2 3 4371.22 76.42 1
0 -2 3 34.52 1.74 1
1 -2 3 3528.55 62.08 1
-1 2 -3 3516.64 59.5 4
2 -2 3 25.57 1.82 1
-2 2 -3 24.98 1.45 4
-3 2 -3 214.68 5.8 4
-3 2 -3 232.31 6.57 1
3 -2 3 222.56 6.71 1
-3 2 -3 221.67 6.59 2
-4 2 -3 119.12 4.41 4
-4 2 -3 115.57 4.88 1
-4 2 -3 123.43 5.08 2
4 -2 3 110.34 4.92 1
5 -2 3 0.45 1.01 2
-5 2 -3 0.86 1.07 4
-5 2 -3 0.56 1.37 1
-5 2 -3 1.13 1.17 2
5 -2 3 0.18 0.98 1
-6 2 -3 51.22 4.08 1
6 -2 3 60.92 4.34 2
-6 2 -3 58.92 4.34 2
6 -2 3 53.44 4.18 1
-6 2 -3 59.04 3.76 4
-7 2 -3 31.56 3.91 2
7 -2 3 27.5 3.58 2
-7 2 -3 23.18 3.02 4
7 -2 3 18.76 3.14 1
8 -2 3 8.17 2.67 2
8 -2 3 8.97 2.76 1
-8 2 -3 6.58 2.63 2
-8 2 -3 4.67 1.92 4
-9 -1 3 2.3 2.69 1
9 1 -3 1 1.56 2
-9 -1 3 3.22 2.66 2
-9 -1 3 1.09 2.15 4
-8 -1 3 11.64 2.79 4
8 1 -3 9.92 2.72 1
-8 -1 3 11.85 3.21 2
8 1 -3 11.93 2.73 2
-8 -1 3 10.17 2.93 1
-7 -1 3 -0.58 1.71 1
7 1 -3 0.27 1.2 2
-7 -1 3 -1.26 1.43 4
7 1 -3 -1.07 0.92 1
-7 -1 3 -0.96 1.64 2
-6 -1 3 30.4 3.58 2
-6 -1 3 24.55 2.95 4
6 1 -3 32.88 3.25 2
6 1 -3 27.44 3 1
-6 -1 3 26.56 3.26 1
-5 -1 3 180.03 6.49 4
5 1 -3 172.16 6.52 1
5 1 -3 159.71 6.51 2
-5 -1 3 168.55 6.9 2
-5 -1 3 173.16 6.72 1
-4 -1 3 132.7 5.43 2
-4 -1 3 120.69 5.05 1
4 1 -3 124.34 5.06 2
4 1 -3 139.16 5.19 1
-4 -1 3 137.15 4.93 4
3 1 -3 69.72 3.17 1
-3 -1 3 74.54 3.39 1
-2 -1 3 482.56 10.46 1
-1 -1 3 1676.9 30.38 1
0 -1 3 5898.11 102.18 1
1 -1 3 46.49 2.17 1
-2 1 -3 772.72 15.68 1
2 -1 3 771.23 15.75 1
-2 1 -3 744.24 14.85 4
3 -1 3 670.52 14.86 1
-3 1 -3 650.91 14.51 1
-3 1 -3 672.26 14.95 2
-3 1 -3 657.56 13.98 4
-4 1 -3 257.47 8.08 1
-4 1 -3 267.49 7.63 4
-4 1 -3 259.45 8.19 2
4 -1 3 256.5 8.06 1
-5 1 -3 652.99 16.47 2
5 -1 3 642.03 16.18 1
5 -1 3 632.83 16.09 2
-5 1 -3 647.69 15.28 4
-5 1 -3 644.45 16 1
-6 1 -3 78.32 4.92 1
-6 1 -3 62.72 4.61 2
6 -1 3 76.59 4.84 2
-6 1 -3 62.64 4.19 4
6 -1 3 61.77 4.52 1
-7 1 -3 213.8 9 1
-7 1 -3 190.93 8.03 4
7 -1 3 187.62 8.53 1
7 -1 3 186.5 8.54 2
-7 1 -3 184.15 8.83 2
-8 1 -3 2.85 2.29 2
-8 1 -3 0.51 1.72 4
8 -1 3 0.87 1.49 2
-8 1 -3 1.55 2.6 1
8 -1 3 -0.25 1.49 1
-9 0 3 1.05 1.85 4
-9 0 3 2.61 2.3 2
-9 0 3 3.91 2.68 1
9 0 -3 0.8 1.75 1
9 0 -3 3.36 1.95 2
8 0 -3 221.61 9.69 2
-8 0 3 210.01 9.54 1
-8 0 3 203.12 8.63 4
8 0 -3 225.88 9.57 1
-8 0 3 213.83 9.84 2
-7 0 3 33.28 3.9 2
7 0 -3 37.03 3.67 1
7 0 -3 35.33 3.63 2
-7 0 3 28.15 3.67 1
-7 0 3 37.3 3.73 4
6 0 -3 631.1 16.42 2
-6 0 3 619.37 15.18 4
-6 0 3 622.86 16.19 1
-6 0 3 634.89 16.63 2
6 0 -3 620.96 16.03 1
-5 0 3 160.13 6.41 2
5 0 -3 167.32 6.41 2
-5 0 3 145.65 6.04 1
5 0 -3 155.33 6.07 1
-5 0 3 150.32 5.65 4
4 0 -3 1156.72 23.82 2
4 0 -3 1123.8 23.42 1
-4 0 3 1140.34 23.52 1
-4 0 3 1186.08 22.62 4
-4 0 3 1172.07 23.92 2
-3 0 3 98.67 3.8 1
-3 0 3 99.68 3.58 4
3 0 -3 99.34 3.79 1
2 0 -3 113.07 3.66 1
-1 0 -3 10.78 1.14 1
1 0 3 10.98 1.16 1
-2 0 -3 0.04 0.64 1
2 0 3 0.11 0.58 1
3 0 3 415.32 10.46 1
-3 0 -3 410.64 9.91 4
3 0 3 416.04 10.52 2
-3 0 -3 400.11 10.37 1
-3 0 -3 432.41 10.72 2
4 0 3 1.96 0.95 2
-4 0 -3 2.76 1.28 2
-4 0 -3 2.97 1.35 1
4 0 3 2.28 1.2 1
-4 0 -3 3.8 1.36 4
5 0 3 186.87 7.42 1
-5 0 -3 201.1 7.66 1
-5 0 -3 192.53 7.75 2
-5 0 -3 188.58 6.98 4
5 0 3 194.33 7.47 2
-6 0 -3 38.46 4.15 2
-6 0 -3 43.26 3.8 4
-6 0 -3 43.39 4.14 1
6 0 3 40.96 3.78 2
6 0 3 33.65 3.52 1
-7 0 -3 5.29 2.16 4
7 0 3 4.69 1.87 2
-7 0 -3 1.37 1.91 1
-7 0 -3 6.85 2.58 2
7 0 3 7.99 2.48 1
-8 0 -3 2.39 2.13 4
8 0 3 4.41 2.33 1
-8 0 -3 4.17 2.48 2
8 0 3 3.26 2.02 2
-8 0 -3 9.03 3.07 1
-9 1 3 16.61 3.11 4
-9 1 3 24.71 4.16 2
9 -1 -3 22.83 3.8 1
9 -1 -3 23.31 3.87 2
8 -1 -3 3.56 1.85 1
-8 1 3 -0.65 1.51 2
8 -1 -3 2.09 1.66 2
-8 1 3 4.48 2 4
-8 1 3 3.84 2.33 1
-7 1 3 2.52 1.77 1
-7 1 3 -1.29 1.13 4
7 -1 -3 3.44 1.66 1
-7 1 3 -1.19 1.38 2
7 -1 -3 0.35 1.24 2
-6 1 3 479.46 12.94 1
6 -1 -3 467.03 13.1 2
-6 1 3 452 13.02 2
-6 1 3 454.03 11.85 4
6 -1 -3 452.8 12.88 1
-5 1 3 10.12 1.93 2
-5 1 3 5.26 1.71 1
5 -1 -3 7.72 1.63 1
-5 1 3 9.14 1.72 4
5 -1 -3 8.53 1.73 2
4 -1 -3 877.05 18.96 1
-4 1 3 920.4 19.24 2
-4 1 3 903.37 17.91 4
-4 1 3 910.59 18.84 1
-3 1 3 225.76 6.17 1
-3 1 3 234.31 5.81 4
3 -1 -3 221.47 6.2 1
2 -1 -3 106.94 3.41 1
1 -1 -3 6455.87 112.49 1
0 -1 -3 1459.23 26.58 1
1 1 3 1301.54 22.96 4
-1 -1 -3 1263.94 24.08 1
2 1 3 31.7 2.11 1
2 1 3 32.34 1.86 4
-2 -1 -3 35.89 2.25 1
-3 -1 -3 882.2 18.95 1
3 1 3 872.53 18.72 2
3 1 3 894.12 18.78 1
-4 -1 -3 246.63 8.27 2
4 1 3 226.63 7.66 2
-4 -1 -3 240.4 7.59 4
4 1 3 219.73 7.63 1
-4 -1 -3 235.21 7.9 1
-5 -1 -3 376.2 11.73 2
-5 -1 -3 363.19 10.67 4
5 1 3 356.16 10.93 2
5 1 3 347.55 10.78 1
-5 -1 -3 342.69 11.09 1
6 1 3 179.05 7.77 2
-6 -1 -3 168.15 8.22 2
6 1 3 185.33 7.84 1
-6 -1 -3 172.52 7.48 4
-6 -1 -3 169.94 7.85 1
-7 -1 -3 29.23 3.89 4
7 1 3 26.23 3.59 1
-7 -1 -3 29.92 4.22 1
-7 -1 -3 26.55 4.16 2
7 1 3 29.92 3.77 2
-8 -1 -3 106.91 7.57 1
8 1 3 108.72 6.11 4
8 1 3 119.76 7.4 2
-8 -1 -3 113.63 7.13 4
9 -2 -3 20.55 3.66 2
9 -2 -3 29.13 4.01 1
-9 2 3 23.92 3.19 4
-9 2 3 31.64 4.36 2
-8 2 3 11.57 2.39 4
8 -2 -3 8.63 2.41 2
8 -2 -3 15.22 2.97 1
-8 2 3 13.25 2.84 2
7 -2 -3 251.25 9.22 1
7 -2 -3 243.45 9.34 2
-7 2 3 224.82 7.73 4
-7 2 3 268.53 9.23 1
-7 2 3 241.69 9.18 2
-6 2 3 6.88 1.61 4
6 -2 -3 7.16 1.82 1
6 -2 -3 11.07 2.15 2
-6 2 3 9.57 2.03 2
-6 2 3 8.87 2.05 1
5 -2 -3 503.07 12.81 1
-5 2 3 507.41 12.69 2
-5 2 3 500.14 11.24 4
-4 2 3 260.33 7.34 2
4 -2 -3 257.76 7.47 1
-4 2 3 265.44 6.39 4
3 -2 -3 80.79 3.18 1
-3 2 3 79.59 2.44 4
2 -2 -3 2475.74 44.06 1
1 -2 -3 134.93 3.59 1
0 -2 -3 3410.36 59.87 1
1 2 3 46.24 1.54 4
-1 -2 -3 48.49 2.31 1
2 2 3 301.84 6.69 4
2 2 3 294.11 7.6 2
-2 -2 -3 285.49 7.76 1
3 2 3 25.32 2.21 2
-3 -2 -3 23.92 2.36 1
3 2 3 25.29 1.82 4
3 2 3 28.77 2.32 1
4 2 3 2.11 1.07 2
4 2 3 0.94 0.8 4
4 2 3 0.45 0.97 1
-4 -2 -3 0.93 1.44 2
-4 -2 -3 -1.16 0.97 1
-4 -2 -3 1.23 1.37 4
-5 -2 -3 45.53 4.01 1
5 2 3 47.75 3.67 1
5 2 3 40.87 3.35 2
-5 -2 -3 43.37 3.85 4
5 2 3 40.07 2.82 4
-5 -2 -3 55.44 4.36 2
-6 -2 -3 104.96 6.41 1
-6 -2 -3 100.76 6.54 2
-6 -2 -3 105.83 6.04 4
6 2 3 102.5 5.78 2
6 2 3 103.46 4.95 4
-7 -2 -3 2.94 2.43 2
-7 -2 -3 0.41 2.06 4
7 2 3 1.69 1.28 4
7 2 3 1.86 1.68 2
-7 -2 -3 -0.41 1.82 1
-8 -2 -3 28.86 4.92 1
-8 -2 -3 34.18 4.71 4
-8 -2 -3 40.76 5.54 2
8 2 3 37.43 4.5 2
8 2 3 23.37 2.91 4
9 -3 -3 -1.72 1.32 1
-9 3 3 2.51 2.06 2
-9 3 3 -1.19 1.43 4
8 -3 -3 9.74 2.45 1
-8 3 3 12.7 2.07 4
-8 3 3 9.37 2.44 2
7 -3 -3 194.16 8.02 1
-7 3 3 189.11 6.14 4
-7 3 3 190.58 7.76 2
-6 3 3 215.94 6.03 4
6 -3 -3 227.62 8.09 1
-6 3 3 215.71 7.56 2
-5 3 3 415.89 10.59 2
5 -3 -3 413.25 11.06 1
-5 3 3 409.4 8.59 4
4 -3 -3 68.41 3.34 1
-4 3 3 71.85 3.14 2
-3 3 3 473.31 9.85 2
3 -3 -3 474.89 10.43 1
2 -3 -3 721.81 14 1
1 -3 -3 1965.73 34.96 1
0 -3 -3 93.24 2.99 1
-1 -3 -3 58 2.65 1
1 3 3 57.96 2.23 2
2 3 3 431.41 9.96 2
-2 -3 -3 433.81 10.59 1
3 3 3 4.87 0.8 4
-3 -3 -3 4.36 1.39 1
3 3 3 5.8 0.85 4
3 3 3 5.79 1.26 2
4 3 3 348.23 8.11 4
4 3 3 340.25 9.91 2
-4 -3 -3 340.22 10.61 1
5 3 3 48.14 2.72 4
-5 -3 -3 49.53 4.31 1
5 3 3 50.84 3.68 2
6 3 3 125.11 4.94 4
6 3 3 119.7 6.3 2
-6 -3 -3 124.81 7.15 1
7 3 3 64.27 5.02 2
-7 -3 -3 74.13 6.42 1
7 3 3 68.39 3.8 4
-9 4 3 12.11 2.83 2
9 -4 -3 16.5 3.37 1
8 -4 -3 77.55 5.31 1
-8 4 3 68.58 4.72 2
7 -4 -3 16.45 2.68 1
-7 4 3 17.01 2.51 2
-6 4 3 301.4 9.68 3
-6 4 3 313.8 8.87 2
6 -4 -3 294.66 9.58 1
-5 4 3 3.7 1.64 3
5 -4 -3 5.83 1.4 1
-5 4 3 5.57 1.29 2
-4 4 3 361.62 7.8 2
4 -4 -3 351.53 9.04 1
-4 4 3 352.91 10.64 3
3 -4 -3 389.17 8.84 1
-3 4 3 391.5 11.17 3
2 -4 -3 225.97 5.27 1
-2 4 3 223.46 7.7 3
-1 4 3 1040.2 23.14 3
1 -4 -3 1046.6 19.22 1
0 4 3 197.91 7 3
0 -4 -3 196.94 5.04 1
1 4 3 119.06 5.19 3
-1 -4 -3 119.23 4.14 1
-2 -4 -3 8.81 1.58 1
2 4 3 9.62 1.7 3
2 4 3 8.5 1.13 2
3 4 3 11.18 1.85 3
-3 -4 -3 10.96 1.96 1
3 4 3 9.52 1.45 2
-4 -4 -3 7.61 2.04 1
4 4 3 6.98 1.53 2
5 4 3 22.71 2.71 2
-5 -4 -3 26.65 3.59 1
6 4 3 69.65 4.7 2
-6 -4 -3 61.14 5.55 1
7 4 3 2.14 1.74 2
-7 -4 -3 1.16 2.26 1
-9 5 3 -1.01 1.48 2
9 -5 -3 0.31 1.73 1
-8 5 3 4.84 1.79 2
8 -5 -3 4.07 1.91 1
-7 5 3 215.22 8.77 3
-7 5 3 220.8 7.14 2
7 -5 -3 208.21 8.41 1
6 -5 -3 9.98 1.98 1
-6 5 3 11.79 2.58 3
-6 5 3 12 1.55 2
-5 5 3 250.78 9.26 3
5 -5 -3 241.82 7.63 1
4 -5 -3 205.07 6.25 1
-4 5 3 224.61 8.54 3
-3 5 3 9.09 2.1 3
-2 5 3 1553.21 33.38 3
2 -5 -3 1519.04 27.73 1
1 -5 -3 77.82 2.55 1
-1 5 3 83.7 4.78 3
0 -5 -3 724.58 14.34 1
0 5 3 697.95 17.88 3
1 5 3 53.39 3.73 3
-1 -5 -3 50.82 2.76 1
2 5 3 573.85 15.07 3
-2 -5 -3 551.54 13.52 1
3 5 3 98.82 5.03 3
3 5 3 91.87 3.35 2
-3 -5 -3 88.62 4.79 1
-4 -5 -3 195.56 8.14 1
4 5 3 197.33 6.39 2
5 5 3 75.94 4.18 2
-5 -5 -3 64.68 5.19 1
-6 -5 -3 39.2 4.87 1
6 5 3 39.58 3.52 2
8 -6 -3 121.66 6.69 1
-7 6 3 0.08 1.95 3
7 -6 -3 2.84 1.59 1
-6 6 3 220.94 9.47 3
6 -6 -3 216.24 7.81 1
5 -6 -3 -0.52 0.8 1
-5 6 3 0.01 1.44 3
4 -6 -3 60.27 2.96 1
-4 6 3 58.92 4.7 3
3 -6 -3 0.54 0.63 1
-3 6 3 -1.51 1.15 3
2 -6 -3 17.89 1.25 1
-2 6 3 15.14 2.76 3
-1 6 3 2.78 1.6 3
1 -6 -3 5.04 0.8 1
0 6 3 0.24 1.16 3
0 -6 -3 0.03 0.73 1
-1 -6 -3 35.52 2.53 1
1 6 3 38.92 3.79 3
-2 -6 -3 16.28 2.17 1
2 6 3 16.4 2.66 3
-3 -6 -3 79.05 4.77 1
-4 -6 -3 6.61 2.22 1
-5 -6 -3 18.14 3.54 1
8 -7 -3 107.33 6.42 1
-7 7 3 55.37 5.52 3
7 -7 -3 57.21 4.26 1
6 -7 -3 219.11 7.77 1
-6 7 3 235.15 10.54 3
5 -7 -3 1.35 1.1 1
-5 7 3 1.98 1.78 3
-4 7 3 279.94 11.32 3
4 -7 -3 277.49 7.36 1
3 -7 -3 265.16 6.41 1
-3 7 3 265.84 11 3
-2 7 3 573.09 17.53 3
-1 7 3 189.98 8.92 3
1 -7 -3 206.51 5.14 1
0 7 3 102.55 6.31 3
0 -7 -3 99.67 3.75 1
-1 -7 -3 350.45 9.38 1
1 7 3 342.85 12.32 3
-2 -7 -3 19.63 2.59 1
2 7 3 18.86 3.22 3
-3 -7 -3 163.38 7.27 1
-4 -7 -3 1.95 2.22 1
-7 8 3 49.12 5.8 3
7 -8 -3 53.52 4.23 1
6 -8 -3 2.67 1.41 1
-6 8 3 1.68 2.49 3
-5 8 3 52.43 5.64 3
5 -8 -3 54.76 3.26 1
-4 8 3 10.13 3.02 3
4 -8 -3 11.12 1.44 1
-3 8 3 1.32 1.86 3
-2 8 3 102.87 7.06 3
-1 8 3 8.45 2.64 3
0 -8 -3 6.79 1.36 1
0 8 3 4.59 2.2 3
-1 -8 -3 11.54 1.95 1
1 8 3 7.64 2.72 3
2 8 3 21.03 3.69 3
-2 -8 -3 13.12 2.46 1
-3 -8 -3 -1.9 1.76 1
5 -9 -3 48.48 3.08 1
-5 9 3 41.27 5.84 3
-4 9 3 5.19 2.95 3
-3 9 3 153.06 9.4 3
-2 9 3 5.24 2.64 3
-1 9 3 37.25 5.15 3
0 9 3 18.67 3.96 3
-1 -9 -3 23.4 2.7 1
1 9 3 22.06 4.19 3
2 9 -4 0.01 2.1 3
-2 -9 4 1.49 1.76 1
1 9 -4 17.85 4.05 3
-1 -9 4 17.51 2.46 1
0 -9 4 1.27 1.44 1
0 9 -4 1.75 2.23 3
1 -9 4 3.15 1.39 1
-1 9 -4 2.17 2.29 3
-2 9 -4 6.59 2.92 3
2 -9 4 4.25 1.37 1
3 -9 4 25.43 2.48 1
-3 9 -4 27.67 4.87 3
-4 9 -4 -1.25 2.27 3
4 -9 4 -0.01 1.32 1
-4 -8 4 10.23 3.05 1
3 8 -4 5.02 2.6 3
-3 -8 4 6.49 2.26 1
2 8 -4 95.11 6.74 3
-2 -8 4 95.08 5.05 1
1 8 -4 8.73 2.79 3
-1 -8 4 8.3 1.84 1
0 -8 4 49.83 3.16 1
0 8 -4 52.12 5.43 3
-1 8 -4 51.58 5.48 3
1 -8 4 51.76 3.12 1
2 -8 4 43.87 2.83 1
-2 8 -4 37.83 5.01 3
-3 8 -4 183.17 9.9 3
3 -8 4 172.13 6.08 1
4 -8 4 0.66 1.32 1
-4 8 -4 1.98 2.33 3
-5 8 -4 131.85 8.75 3
5 -8 4 154.23 6.73 1
6 -8 4 23.43 3.32 1
-6 8 -4 30.17 4.99 3
-4 -7 4 1.39 1.83 1
3 7 -4 10.66 2.8 3
-3 -7 4 19.82 2.83 1
-2 -7 4 107.9 5.06 1
2 7 -4 112.39 6.67 3
-1 -7 4 6.53 1.56 1
1 7 -4 7.99 2.33 3
0 -7 4 157.66 5.27 1
0 7 -4 141.97 7.76 3
1 -7 4 28.87 2.29 1
-1 7 -4 29.67 4.01 3
2 -7 4 17.01 1.84 1
-2 7 -4 17.59 3.41 3
-3 7 -4 7.67 2.69 3
3 -7 4 6.05 1.44 1
4 -7 4 14.16 2.11 1
-4 7 -4 16.39 3.43 3
5 -7 4 46.31 3.8 1
-5 7 -4 52.94 5.51 3
6 -7 4 1.4 1.48 1
-6 7 -4 -1.02 2.06 3
-7 7 -4 10.11 3.67 3
7 -7 4 10.86 2.76 1
-6 -6 4 7.77 2.87 1
6 6 -4 8 1.74 2
5 6 -4 61.75 3.03 2
-5 -6 4 61.81 4.98 1
-4 -6 4 26.21 3.3 1
-3 -6 4 264.08 8.75 1
3 6 -4 267.3 9.78 3
2 6 -4 103.06 5.88 3
-2 -6 4 109.64 4.83 1
-1 -6 4 336.21 8.81 1
1 6 -4 332.23 11.45 3
0 6 -4 -0.14 1.14 3
0 -6 4 1.82 1.02 1
-1 6 -4 509.08 15.53 3
1 -6 4 534.52 11.86 1
-2 6 -4 84.61 5.6 3
2 -6 4 77.87 3.59 1
3 -6 4 284.64 8.22 1
-3 6 -4 293.24 11.08 3
4 -6 4 217.81 7.47 1
-4 6 -4 206.67 9.35 3
-5 6 -4 27.25 3.92 3
5 -6 4 26.01 2.91 1
-6 6 -4 102.97 3.98 2
-6 6 -4 100.67 6.76 3
6 -6 4 102.75 5.85 1
-7 6 -4 48.52 3.33 2
7 -6 4 41.3 4.36 1
-7 -5 4 19.85 4.05 1
7 5 -4 21.93 3.01 2
6 5 -4 184.26 7.25 2
-5 -5 4 93.47 5.77 1
5 5 -4 103.66 4.75 2
4 5 -4 108.48 4.32 2
-4 -5 4 98.11 5.33 1
-3 -5 4 16.61 2.29 1
3 5 -4 15.73 1.49 2
3 5 -4 14.36 2.36 3
2 5 -4 138.62 6.3 3
-2 -5 4 150.45 5.41 1
-1 -5 4 73.47 3.37 1
1 5 -4 73.11 4.51 3
0 5 -4 73.84 4.65 3
0 -5 4 78.06 3.3 1
-1 5 -4 0.73 1.12 3
1 -5 4 1.47 0.87 1
2 -5 4 1.84 0.92 1
-2 5 -4 -1.27 0.98 3
-3 5 -4 24.16 3.17 3
3 -5 4 23.09 2.17 1
4 -5 4 9.4 1.76 1
-4 5 -4 6.1 2.17 3
-4 5 -4 8.05 1.28 2
-5 5 -4 95.2 5.86 3
5 -5 4 90.03 4.97 1
-5 5 -4 100.74 4.27 2
-6 5 -4 2.73 2.22 3
-6 5 -4 3.8 1.57 2
6 -5 4 5.52 1.84 1
7 -5 4 11.85 2.69 1
-7 5 -4 12 2.43 2
-8 5 -4 28.01 3.71 2
8 -5 4 28.52 4.14 1
-7 -4 4 7.95 2.96 1
7 4 -4 3.57 1.67 2
7 4 -4 8.25 1.26 4
-6 -4 4 5.85 2.35 1
6 4 -4 6.34 1.83 2
6 4 -4 7.92 1.08 4
5 4 -4 60.07 3.81 2
-5 -4 4 58.6 4.39 1
4 4 -4 0.08 0.8 2
-4 -4 4 1.16 1.34 1
3 4 -4 282.3 7.66 2
-3 -4 4 280.1 8.49 1
3 4 -4 301.28 8.9 3
2 4 -4 0.64 0.72 2
-2 -4 4 2.07 1.02 1
2 4 -4 0.1 0.96 3
1 4 -4 190.8 4.46 2
-1 -4 4 190.66 5.61 1
1 4 -4 192.48 7.01 3
0 4 -4 125.95 5.54 3
0 -4 4 126.65 4.12 1
1 -4 4 18.88 1.67 1
-1 4 -4 18.25 2.34 3
-2 4 -4 550.82 14.59 3
2 -4 4 539.1 12.32 1
-2 4 -4 555.63 11.22 2
-3 4 -4 32.59 2.16 2
-3 4 -4 37.1 3.39 3
3 -4 4 31.6 2.4 1
4 -4 4 368.81 10.59 1
-4 4 -4 396.41 10.07 2
-4 4 -4 372.9 11.57 3
-5 4 -4 73.57 4.12 2
-5 4 -4 72.22 4.78 3
5 -4 4 73.11 4.42 1
-6 4 -4 12.34 1.31 4
-6 4 -4 17.16 2.65 2
6 -4 4 16.16 2.69 1
7 -4 4 108.08 6.51 1
-7 4 -4 104.61 6.03 2
-7 4 -4 103.63 3.87 4
-8 4 -4 0.25 1.89 2
8 -4 4 -1.14 1.35 1
-8 4 -4 0.36 1.1 4
8 3 -4 62.98 5.35 2
-8 -3 4 68.98 6.61 2
-8 -3 4 59.05 5.93 1
-7 -3 4 0.59 2.06 1
7 3 -4 1.05 1.49 2
-7 -3 4 3.57 2.56 2
6 3 -4 314.22 10.61 2
-6 -3 4 327.85 11.74 2
-6 -3 4 330.76 11.52 1
5 3 -4 23.19 2.57 2
-5 -3 4 28.81 3.25 1
-5 -3 4 20.19 3.01 2
-4 -3 4 13.24 2.19 1
4 3 -4 14.05 1.87 2
3 3 -4 11.04 1.53 2
-3 -3 4 11.16 1.75 1
-2 -3 4 61.97 3.06 1
2 3 -4 70.04 2.97 2
1 3 -4 252.14 6.14 2
-1 -3 4 255.58 6.56 1
0 -3 4 37.45 2.08 1
-1 3 -4 939.84 17.93 2
1 -3 4 920.09 18.47 1
2 -3 4 3.2 0.98 1
-2 3 -4 2.42 0.86 2
-2 3 -4 3.95 1.43 3
-3 3 -4 606.59 14.8 3
-3 3 -4 581.84 11.45 4
-3 3 -4 591.57 13.33 2
3 -3 4 577.53 13.69 1
-4 3 -4 72.47 3.77 1
4 -3 4 63.79 3.87 1
-4 3 -4 64.69 3.7 2
-4 3 -4 60.89 2.86 4
-5 3 -4 368.89 10.96 2
5 -3 4 360.95 11.14 1
5 -3 4 386.58 11.44 2
-5 3 -4 364.11 9.25 4
-6 3 -4 3.17 1.84 2
-6 3 -4 1.43 1.17 4
6 -3 4 0.31 1.21 2
6 -3 4 0.72 1.26 1
-7 3 -4 6.24 1.81 4
7 -3 4 4.11 1.89 2
7 -3 4 3.37 1.89 1
-7 3 -4 4.05 2.05 2
-8 3 -4 62.89 5.62 2
8 -3 4 64.67 5.67 2
8 -3 4 65.16 5.76 1
-8 3 -4 78.95 4.66 4
-9 -2 4 75.77 7.06 1
-9 -2 4 89.32 7.76 2
9 2 -4 102.5 7 2
-8 -2 4 7.3 2.83 1
-8 -2 4 21.89 4.2 2
8 2 -4 12.6 2.76 2
-8 -2 4 15.06 3.31 4
-7 -2 4 121.08 7.01 1
-7 -2 4 118.55 6.45 4
7 2 -4 119.72 6.57 2
-7 -2 4 125.07 7.21 2
-6 -2 4 0.31 1.51 4
-6 -2 4 2.65 1.79 2
6 2 -4 0.61 1.1 2
-6 -2 4 2.13 1.8 1
6 2 -4 1.43 1.34 1
-5 -2 4 229.4 8.33 1
-5 -2 4 237.24 8.59 2
5 2 -4 216.51 7.89 2
-5 -2 4 243.83 7.89 4
5 2 -4 229.22 7.93 1
4 2 -4 159.88 5.86 1
-4 -2 4 160.4 5.77 4
-4 -2 4 162.97 6.18 1
4 2 -4 161.01 5.97 2
3 2 -4 504.34 11.63 1
-3 -2 4 485.35 11.74 1
3 2 -4 485.98 11.61 2
2 2 -4 482.5 10.89 2
-2 -2 4 490.08 11.04 1
-1 -2 4 141.74 4.36 1
0 -2 4 807.31 16.21 1
0 2 -4 831 14.86 4
1 -2 4 516.11 11.47 1
-1 2 -4 541.78 10.36 4
-2 2 -4 442.84 9.46 4
2 -2 4 442.67 10.53 1
-2 2 -4 460.6 10.5 2
3 -2 4 970.39 20.7 1
-3 2 -4 996.77 20.79 2
-3 2 -4 1021.6 20.47 1
-3 2 -4 973.02 19.15 4
4 -2 4 30.91 2.8 2
-4 2 -4 29.87 2.77 1
-4 2 -4 29.63 2.78 2
4 -2 4 37.38 2.98 1
-4 2 -4 32.01 2.41 4
-5 2 -4 246.95 8.39 1
-5 2 -4 235.91 8.5 2
5 -2 4 238.76 8.53 1
-5 2 -4 225.45 7.43 4
-6 2 -4 70.37 4.83 2
6 -2 4 69.35 4.78 1
6 -2 4 69.14 4.77 2
-6 2 -4 85.92 5.2 1
-6 2 -4 76.2 4.43 4
7 -2 4 53.73 4.86 1
-7 2 -4 46.43 4.05 4
7 -2 4 52.81 4.69 2
-7 2 -4 45.26 4.63 2
-8 2 -4 44.71 5.1 2
-8 2 -4 46.34 4.31 4
8 -2 4 50.4 5.04 2
8 -2 4 47.21 4.98 1
9 1 -4 2.36 1.91 2
-9 -1 4 4.09 2.67 2
-9 -1 4 -0.95 2.22 4
-9 -1 4 1.79 2.61 1
8 1 -4 1.68 1.59 2
-8 -1 4 0.57 2.14 2
-8 -1 4 2.36 2.03 4
-8 -1 4 1.62 2.03 1
8 1 -4 1.35 1.76 1
-7 -1 4 141.53 7.55 2
7 1 -4 155.36 7.3 1
7 1 -4 146.99 7.25 2
-7 -1 4 151.99 7.04 4
-7 -1 4 140.86 7.24 1
-6 -1 4 18.54 2.75 4
-6 -1 4 20.74 3.16 2
6 1 -4 18.04 2.57 2
6 1 -4 23.24 2.81 1
-6 -1 4 20.79 3.03 1
-5 -1 4 28.77 3.12 2
-5 -1 4 26.7 2.72 4
5 1 -4 23.87 2.61 2
5 1 -4 28.88 2.72 1
-5 -1 4 29.01 2.93 1
-4 -1 4 156.83 5.47 4
-4 -1 4 161.14 6.08 2
-4 -1 4 146.47 5.73 1
4 1 -4 156.53 5.71 1
4 1 -4 158.27 5.85 2
-3 -1 4 0.69 0.87 1
3 1 -4 -0.41 0.58 2
3 1 -4 -0.18 0.57 1
-2 -1 4 309.11 7.79 1
2 1 -4 319.07 7.74 1
-1 -1 4 4.74 1.01 1
0 -1 4 30.28 1.88 1
-1 1 -4 208.04 5.63 1
-1 1 -4 202.72 5.24 4
1 -1 4 208.14 5.73 1
2 -1 4 106.46 4.06 1
-2 1 -4 111.32 3.83 4
-2 1 -4 103.6 3.99 1
3 -1 4 191.02 6.52 1
-3 1 -4 204.95 6.68 2
-3 1 -4 199.3 6.04 4
-3 1 -4 195.96 6.43 1
-4 1 -4 225.88 7.82 2
-4 1 -4 224.26 7.16 4
4 -1 4 224.28 7.68 1
4 -1 4 229.11 7.78 2
-4 1 -4 231.19 7.65 1
-5 1 -4 20.68 2.79 1
5 -1 4 17.65 2.47 2
5 -1 4 21.07 2.68 1
-5 1 -4 20.18 2.78 2
-5 1 -4 19.43 2.57 4
-6 1 -4 3.48 2 1
-6 1 -4 5.86 2.1 2
6 -1 4 9.89 2.29 2
-6 1 -4 3.71 1.78 4
6 -1 4 7.86 2.16 1
7 -1 4 213.54 9.39 1
-7 1 -4 189.64 9.27 2
7 -1 4 214.15 9.4 2
-7 1 -4 208.4 8.67 4
-7 1 -4 213.06 9.42 1
-8 1 -4 27.32 4.31 2
8 -1 4 42.38 4.78 1
8 -1 4 34.36 4.35 2
-8 1 -4 36.74 4.24 4
-8 1 -4 33.53 4.88 1
-9 0 4 21.45 4.07 2
9 0 -4 22.27 3.78 1
9 0 -4 20.04 3.63 2
-9 0 4 19.22 3.33 4
-9 0 4 15.45 3.79 1
-8 0 4 61.42 5.59 2
-8 0 4 63.57 4.83 4
8 0 -4 62.86 5.23 1
-8 0 4 67.54 5.44 1
8 0 -4 63.61 5.33 2
-7 0 4 4.34 1.97 2
7 0 -4 0.3 1.14 1
7 0 -4 2.39 1.42 2
-7 0 4 -1.68 1.56 1
-7 0 4 0.98 1.64 4
6 0 -4 259.06 9.18 1
-6 0 4 277.95 9.73 2
-6 0 4 280.44 8.88 4
6 0 -4 282.42 9.69 2
-6 0 4 280.88 9.57 1
5 0 -4 53.76 3.57 2
-5 0 4 58.71 3.49 4
-5 0 4 58.35 3.84 2
5 0 -4 55.09 3.51 1
-5 0 4 59.58 3.71 1
-4 0 4 1001.49 19.97 4
-4 0 4 972.82 20.81 1
-4 0 4 995.13 21.21 2
4 0 -4 996.31 20.88 1
4 0 -4 1010.26 21.24 2
-3 0 4 379.54 9.37 1
-3 0 4 386.18 8.91 4
3 0 -4 382.19 9.39 1
2 0 -4 1792.84 33.11 1
-1 0 4 1213.21 22.8 1
0 0 -4 94.92 3.27 1
0 0 4 91.34 3.29 1
1 0 4 1788.86 33.19 1
-1 0 -4 1804.24 33.26 1
-2 0 -4 326.67 8.08 4
2 0 4 321.12 8.42 1
-2 0 -4 326.09 8.45 1
2 0 4 322.77 7.93 4
-3 0 -4 453.58 11.64 1
-3 0 -4 478.51 11.94 2
3 0 4 459.64 11.59 1
3 0 4 449.52 11.6 2
-3 0 -4 476.6 11.23 4
-4 0 -4 218.14 7.63 1
4 0 4 221.76 7.68 1
-4 0 -4 219.73 7.94 2
-4 0 -4 225.04 7.37 4
5 0 4 10.51 2.12 2
5 0 4 10.06 2.08 1
-5 0 -4 6.88 2.1 1
-5 0 -4 8.65 2.12 4
-5 0 -4 7.74 2.09 2
-6 0 -4 143.87 6.83 4
6 0 4 151.66 7.23 1
-6 0 -4 153.48 7.62 2
-6 0 -4 156.07 7.34 1
6 0 4 133.7 6.83 2
-7 0 -4 32.44 4.33 2
7 0 4 47.04 4.57 1
-7 0 -4 44.3 4.82 1
7 0 4 45.29 4.45 2
-7 0 -4 40.34 4.3 4
-8 0 -4 23.97 4.34 1
8 0 4 31.18 4.28 2
8 0 4 23.11 3.85 1
-8 0 -4 20 3.72 4
-8 0 -4 22.73 4.31 2
9 -1 -4 25.51 3.99 2
-9 1 4 21.18 3.98 2
9 -1 -4 18.96 3.51 1
-9 1 4 18.18 3.31 4
-8 1 4 100.13 6.39 2
-8 1 4 108.34 6.6 1
-8 1 4 100.93 5.61 4
8 -1 -4 96.39 6.17 1
8 -1 -4 106.63 6.54 2
7 -1 -4 119.85 6.22 1
-7 1 4 116.74 5.61 4
-7 1 4 116.9 6.2 1
7 -1 -4 125.94 6.52 2
-7 1 4 123.29 6.51 2
-6 1 4 109.36 5.48 1
6 -1 -4 111.25 5.61 2
6 -1 -4 105.16 5.43 1
-6 1 4 112.07 5.06 4
-6 1 4 107.65 5.52 2
5 -1 -4 13.04 1.97 1
-5 1 4 10.53 1.77 4
-5 1 4 14.66 2.23 1
-5 1 4 15.21 2.25 2
5 -1 -4 13.68 1.99 2
-4 1 4 251.62 6.83 4
-4 1 4 237.01 7.34 2
4 -1 -4 247.21 7.41 1
-4 1 4 258.02 7.42 1
3 -1 -4 143.1 4.77 1
-3 1 4 144.67 4.34 4
-3 1 4 149.28 4.76 1
-2 1 4 9.05 1.03 4
2 -1 -4 10.1 1.2 1
1 -1 -4 108.74 3.49 1
0 1 4 5.22 0.85 4
0 -1 -4 7.12 1.1 1
1 1 4 354.06 7.71 4
-1 -1 -4 341.48 8.38 1
1 1 4 338.94 8.19 1
2 1 4 68.18 2.91 4
-2 -1 -4 75.24 3.5 1
2 1 4 72.65 3.35 2
2 1 4 70.55 3.3 1
3 1 4 494.02 12.17 1
-3 -1 -4 489.22 12.51 2
-3 -1 -4 477.4 12.36 1
-3 -1 -4 499.13 11.71 4
3 1 4 478.22 11.17 4
4 1 4 194.73 7.13 2
4 1 4 206.42 7.31 1
-4 -1 -4 196.23 7.63 2
-4 -1 -4 213.63 7.18 4
-4 -1 -4 188.51 7.26 1
4 1 4 190.75 6.47 4
5 1 4 80.59 4.8 2
-5 -1 -4 88.59 5.23 1
5 1 4 85.99 4.39 4
-5 -1 -4 90.14 5.43 2
-5 -1 -4 85.22 4.85 4
5 1 4 86.97 4.96 1
6 1 4 7.6 2.13 1
6 1 4 5.25 1.66 4
-6 -1 -4 7.04 2.18 1
-6 -1 -4 7.11 2.33 2
6 1 4 10.53 2.32 2
-6 -1 -4 9.43 2.49 4
-7 -1 -4 237.78 9.96 4
7 1 4 229.55 8.8 4
7 1 4 225.68 9.92 2
-7 -1 -4 245.01 10.44 1
-8 -1 -4 1.87 2.47 2
8 1 4 1.62 1.55 4
-8 -1 -4 0.34 2.4 1
8 1 4 3.85 2.03 2
-8 -1 -4 2.21 2.28 4
-9 2 4 2.3 2.17 2
9 -2 -4 4.23 2.1 1
-9 2 4 3.19 1.71 4
9 -2 -4 0.9 1.55 2
8 -2 -4 63.57 5.05 2
-8 2 4 62.63 4.96 2
8 -2 -4 66.77 5.09 1
-8 2 4 61.76 4.19 4
7 -2 -4 10.06 2.25 1
-7 2 4 12.18 2.12 4
-7 2 4 7.55 2.13 2
7 -2 -4 11.74 2.38 2
6 -2 -4 88.48 4.9 1
6 -2 -4 96.52 5.18 2
-6 2 4 102.73 5.23 1
-6 2 4 96.03 5.01 2
-6 2 4 99.64 4.31 4
-5 2 4 204.4 5.98 4
5 -2 -4 213.04 7.17 1
-5 2 4 198.81 6.76 1
-5 2 4 188.38 6.77 2
4 -2 -4 99.34 4.17 1
-4 2 4 100.78 4.11 1
-4 2 4 96.62 3.43 4
-4 2 4 95.84 4.03 2
3 -2 -4 808.43 16.98 1
-3 2 4 848.73 16.98 2
-3 2 4 851.2 15.5 4
2 -2 -4 8.83 1.1 1
1 -2 -4 637.4 12.83 1
0 -2 -4 701.06 14.05 1
0 2 4 681.33 12.25 4
-1 -2 -4 200.9 5.86 1
1 2 4 205.28 4.75 4
1 2 4 208.17 5.68 2
2 2 4 953.87 19.24 1
2 2 4 930.64 19.2 2
2 2 4 939.52 17.76 4
-2 -2 -4 922.31 19.6 1
-3 -2 -4 27.62 2.68 1
3 2 4 29.78 2.02 4
3 2 4 30.84 2.58 1
3 2 4 28.17 2.42 2
-4 -2 -4 112.37 5.76 2
4 2 4 106.33 4.38 4
-4 -2 -4 120.02 5.46 4
4 2 4 124.57 5.44 1
4 2 4 108.12 5.17 2
-4 -2 -4 106.19 5.41 1
5 2 4 8.7 1.65 4
-5 -2 -4 15.03 2.72 1
-5 -2 -4 17.11 2.89 4
5 2 4 17.48 2.5 2
-5 -2 -4 17.6 3.01 2
6 2 4 4.02 1.74 2
-6 -2 -4 4.86 2.37 1
-6 -2 -4 4.34 2.26 2
-6 -2 -4 5.3 2.32 4
6 2 4 1.68 1.25 4
7 2 4 6.19 2.19 2
-7 -2 -4 5.72 2.67 1
7 2 4 2.97 1.45 4
-7 -2 -4 7.17 2.75 2
-7 -2 -4 2.99 2.59 4
9 -3 -4 3.48 2.07 1
-9 3 4 2.97 2.17 2
-9 3 4 5.11 1.84 4
8 -3 -4 72.41 5.23 1
-8 3 4 63.69 4.79 2
-8 3 4 68.38 3.79 4
-7 3 4 37.03 3.56 2
-7 3 4 29.89 2.38 4
7 -3 -4 26.41 3.23 1
6 -3 -4 7.77 1.85 1
-6 3 4 6.45 1.7 2
-6 3 4 11.5 1.47 4
-6 3 4 8.38 1.91 3
-5 3 4 13.12 2.1 3
-5 3 4 13.28 1.85 2
-5 3 4 14.06 1.24 4
5 -3 -4 14.53 1.99 1
-4 3 4 265.41 7.07 2
4 -3 -4 259.67 7.43 1
-4 3 4 255.13 8.14 3
3 -3 -4 418.69 9.63 1
-3 3 4 416.41 9.08 2
2 -3 -4 1294.52 24.23 1
1 -3 -4 683 13.57 1
0 -3 -4 285.65 7.01 1
-1 -3 -4 1387.15 26.75 1
1 3 4 1389.76 26.02 2
-2 -3 -4 34.01 2.5 1
2 3 4 28.65 2.12 2
3 3 4 984.19 18.38 4
-3 -3 -4 990.17 21.96 1
3 3 4 1012.82 21.07 2
4 3 4 32.97 2.09 4
4 3 4 36.44 2.99 2
-4 -3 -4 39.32 3.54 1
5 3 4 92.16 5.08 2
5 3 4 80.89 3.67 4
-5 -3 -4 79.03 5.36 1
-6 -3 -4 68.2 5.45 1
6 3 4 72.89 3.72 4
6 3 4 69.63 4.88 2
7 3 4 50.41 3.33 4
-7 -3 -4 44.36 5.42 1
7 3 4 52.68 4.76 2
9 -4 -4 47.91 4.96 1
-9 4 4 45.35 4.45 2
-8 4 4 64.59 4.53 2
8 -4 -4 43.62 4.36 1
-7 4 4 172.05 6.8 2
7 -4 -4 170.89 7.51 1
6 -4 -4 5 1.65 1
-6 4 4 7.22 1.72 2
-6 4 4 5.81 1.98 3
-5 4 4 384.36 9.32 2
-5 4 4 371.66 11.32 3
5 -4 -4 372.01 10.3 1
-4 4 4 60.18 2.42 2
-4 4 4 56.89 3.84 3
4 -4 -4 59.13 3.08 1
3 -4 -4 479.55 10.59 1
-3 4 4 470.25 12.95 3
2 -4 -4 144.06 4.17 1
-1 4 4 7.48 1.72 3
0 4 4 336.8 10.19 3
0 -4 -4 341.54 8.07 1
1 4 4 167.07 4.08 2
1 4 4 159.89 6.33 3
-1 -4 -4 154.73 5.26 1
2 4 4 205.48 5.8 2
2 4 4 214.94 7.36 3
-2 -4 -4 203.09 6.85 1
3 4 4 83.53 3.87 2
3 4 4 88.68 4.47 3
-3 -4 -4 86.61 4.68 1
4 4 4 -0.03 0.95 2
-4 -4 -4 -0.36 1.19 1
5 4 4 23.28 2.75 2
-5 -4 -4 24.62 3.58 1
-6 -4 -4 8.99 2.85 1
6 4 4 7.5 2.11 2
-9 5 4 21.22 3.15 2
9 -5 -4 26.06 3.86 1
8 -5 -4 -0.09 1.47 1
-8 5 4 0.55 1.46 2
7 -5 -4 4.05 1.74 1
-7 5 4 4.59 2.26 3
-7 5 4 1.66 1.3 2
6 -5 -4 44.84 3.46 1
-6 5 4 53.47 4.25 3
-6 5 4 39.81 2.5 2
5 -5 -4 0.6 0.93 1
-5 5 4 1.86 1.66 3
-4 5 4 25.97 3.16 3
4 -5 -4 26.02 2.11 1
-3 5 4 189.76 7.86 3
3 -5 -4 196.47 5.49 1
-2 5 4 47.91 3.82 3
2 -5 -4 51.06 2.3 1
-1 5 4 36.06 3.39 3
1 -5 -4 30.29 1.81 1
0 -5 -4 165.03 5.02 1
0 5 4 155.51 6.88 3
-1 -5 -4 24.96 2.2 1
1 5 4 26.77 2.91 3
2 5 4 398.45 11.91 3
-2 -5 -4 386.41 10.85 1
-3 -5 -4 53.53 3.9 1
3 5 4 52.18 2.63 2
-4 -5 -4 67.91 4.89 1
4 5 4 69.19 3.64 2
-5 -5 -4 31.29 4.12 1
5 5 4 37.99 3.11 2
6 5 4 128.97 6.2 2
-6 -5 -4 130.55 7.97 1
8 -6 -4 39.11 4.15 1
-7 6 4 48.63 4.85 3
7 -6 -4 50.64 4.09 1
-6 6 4 171.22 8.24 3
6 -6 -4 152.56 6.44 1
5 -6 -4 12.46 1.81 1
-5 6 4 12.37 2.81 3
4 -6 -4 387.26 9.56 1
-4 6 4 383.95 13.05 3
-3 6 4 0.42 1.42 3
3 -6 -4 0.32 0.64 1
2 -6 -4 143.77 4.25 1
-2 6 4 145.08 7.25 3
-1 6 4 96.41 5.73 3
1 -6 -4 94.35 3.37 1
0 6 4 2.2 1.5 3
0 -6 -4 0.49 0.91 1
-1 -6 -4 132.64 5.13 1
1 6 4 135.64 6.84 3
2 6 4 20.81 3.03 3
-2 -6 -4 17.05 2.41 1
-3 -6 -4 1.37 1.48 1
-4 -6 -4 38.13 4.19 1
-5 -6 -4 9.56 3.11 1
-8 7 4 29.14 4.59 3
8 -7 -4 33.19 3.86 1
7 -7 -4 2.31 1.68 1
-7 7 4 3.62 2.53 3
-6 7 4 61.44 5.67 3
6 -7 -4 60.31 4 1
5 -7 -4 8.67 1.63 1
-5 7 4 10.15 2.72 3
-4 7 4 6.39 2.45 3
4 -7 -4 6.78 1.35 1
-3 7 4 134.9 7.63 3
3 -7 -4 126.37 4.18 1
2 -7 -4 9.48 1.23 1
-2 7 4 9.93 2.68 3
-1 7 4 2.39 1.9 3
1 -7 -4 4.67 1.05 1
0 7 4 130.14 7.32 3
0 -7 -4 131.37 4.75 1
1 7 4 60.01 4.87 3
-1 -7 -4 54.2 3.44 1
2 7 4 245.17 10.17 3
-2 -7 -4 260.68 8.76 1
-3 -7 -4 7.32 2.28 1
-4 -7 -4 20.55 3.55 1
-7 8 4 1.69 2.54 3
7 -8 -4 -0.12 1.52 1
6 -8 -4 34.45 3.12 1
-6 8 4 39.75 5.27 3
5 -8 -4 39.77 2.86 1
-5 8 4 41.87 5.21 3
4 -8 -4 47.84 2.78 1
-4 8 4 55.84 5.61 3
-3 8 4 67.35 5.79 3
-2 8 4 -0.41 1.55 3
-1 8 4 65.25 5.93 3
1 -8 -4 67.93 2.99 1
0 8 4 29.67 4.22 3
0 -8 -4 32.35 2.58 1
-1 -8 -4 23.31 2.63 1
1 8 4 29.29 4.19 3
2 8 4 3.43 2.45 3
-2 -8 -4 7.11 2.19 1
5 -9 -4 1.04 1.23 1
-5 9 4 1.57 2.45 3
-4 9 4 329.9 14.53 3
-3 9 4 2.22 2.31 3
-2 9 4 170.58 9.93 3
-1 9 4 98.53 7.49 3
0 9 4 108.15 7.74 3
1 9 -5 23.87 4.43 3
-1 -9 5 17.67 2.7 1
0 9 -5 265.67 12.68 3
0 -9 5 259.05 8.28 1
1 -9 5 27.7 2.75 1
-1 9 -5 27.09 4.82 3
2 -9 5 42.54 3.16 1
-2 9 -5 52.92 6.21 3
-3 9 -5 169.67 10.37 3
3 -9 5 156.19 6.25 1
4 -9 5 69.85 4.54 1
-4 9 -5 57.05 6.67 3
-3 -8 5 7.96 2.48 1
3 8 -5 8.38 2.9 3
-2 -8 5 -0.39 1.59 1
2 8 -5 0.88 2.01 3
1 8 -5 2.56 2.27 3
-1 -8 5 2.61 1.59 1
0 -8 5 34.86 2.92 1
0 8 -5 42.04 5 3
1 -8 5 4.31 1.48 1
-1 8 -5 3.03 2.3 3
2 -8 5 62.68 3.62 1
-2 8 -5 64.23 6.14 3
3 -8 5 6.19 1.66 1
-3 8 -5 7.09 2.95 3
-4 8 -5 25.02 4.52 3
4 -8 5 26.4 3 1
5 -8 5 48.89 4.17 1
-5 8 -5 50.08 6.01 3
-5 -7 5 6.1 2.78 1
-4 -7 5 86.81 5.65 1
3 7 -5 49.27 4.72 3
-3 -7 5 53.84 4.17 1
-2 -7 5 106.88 5.2 1
2 7 -5 121.02 6.94 3
1 7 -5 109.43 6.73 3
-1 -7 5 115.48 5.02 1
0 -7 5 55.88 3.34 1
0 7 -5 50.56 4.99 3
-1 7 -5 5.2 2.18 3
1 -7 5 3.9 1.43 1
-2 7 -5 67.07 5.65 3
2 -7 5 72.44 3.79 1
-3 7 -5 80.16 6.22 3
3 -7 5 80.21 4.26 1
4 -7 5 5.71 1.71 1
-4 7 -5 4.9 2.55 3
5 -7 5 24.37 3.16 1
-5 7 -5 34.23 4.76 3
-6 7 -5 0.94 2.42 3
6 -7 5 -0.03 1.37 1
6 6 -5 9.31 1.82 2
-6 -6 5 7.25 2.81 1
5 6 -5 16.82 1.89 2
-5 -6 5 19.51 3.51 1
-4 -6 5 96.86 5.67 1
-3 -6 5 1.43 1.33 1
3 6 -5 0.37 1.54 3
2 6 -5 46.13 4.21 3
-2 -6 5 47.73 3.39 1
-1 -6 5 53.74 3.24 1
1 6 -5 48.48 4.34 3
0 -6 5 319.33 8.57 1
0 6 -5 300.47 11.21 3
1 -6 5 63.23 3.41 1
-1 6 -5 61.22 4.88 3
-2 6 -5 461.35 14.77 3
2 -6 5 444.84 11.33 1
-3 6 -5 71.58 5.41 3
3 -6 5 65.75 3.81 1
-4 6 -5 66.37 5.35 3
4 -6 5 69.16 4.17 1
-5 6 -5 318.91 7.37 2
5 -6 5 295.16 10.35 1
-5 6 -5 309.76 12.15 3
-6 6 -5 19.83 2.19 2
6 -6 5 13.85 2.87 1
-6 6 -5 23.28 4.01 3
7 -6 5 85.45 6.12 1
-7 6 -5 98.87 4.87 2
-7 -5 5 1.2 2.26 1
7 5 -5 0.22 1.34 2
6 5 -5 161 6.74 2
-6 -5 5 153.63 8.13 1
-5 -5 5 43.24 4.21 1
5 5 -5 50.9 3.39 2
-4 -5 5 30.74 3.27 1
4 5 -5 27.02 2.32 2
3 5 -5 351.52 8.5 2
-3 -5 5 344.11 10.28 1
3 5 -5 342.32 10.91 3
2 5 -5 1.56 1.27 3
2 5 -5 0.63 0.61 2
-2 -5 5 -0.31 1.02 1
-1 -5 5 377.2 9.78 1
1 5 -5 391.58 11.99 3
0 5 -5 0.78 1.32 3
0 -5 5 1.79 1 1
1 -5 5 8.71 1.48 1
-1 5 -5 10.38 2.19 3
2 -5 5 294.66 8.32 1
-2 5 -5 289.17 10.34 3
3 -5 5 49.66 3.23 1
-3 5 -5 48 2.3 2
-3 5 -5 44.29 4.1 3
-4 5 -5 96.68 3.99 2
4 -5 5 101.65 5.03 1
-4 5 -5 92.78 5.88 3
-5 5 -5 43.32 3.1 2
-5 5 -5 41.89 4.4 3
5 -5 5 42.26 3.76 1
6 -5 5 13.06 2.66 1
-6 5 -5 11.1 2.19 2
-7 5 -5 0.06 1.48 2
7 -5 5 -0.87 1.31 1
-7 -4 5 9.83 3.1 1
7 4 -5 5.21 1.96 2
6 4 -5 28.05 3.14 2
-6 -4 5 33.33 4.04 1
5 4 -5 54.33 3.68 2
-5 -4 5 60.25 4.44 1
-4 -4 5 156.47 6.55 1
4 4 -5 165.25 6.02 2
3 4 -5 1.82 0.96 2
-3 -4 5 1.87 1.2 1
2 4 -5 7.03 1.68 3
-2 -4 5 11.23 1.68 1
2 4 -5 7.23 1.2 2
1 4 -5 197.85 5.13 2
-1 -4 5 195.39 6.04 1
1 4 -5 192.59 7.24 3
0 -4 5 49.43 2.72 1
0 4 -5 53.13 3.65 3
0 4 -5 48.58 2.07 2
-1 4 -5 262.27 6.25 2
-1 4 -5 256.14 8.86 3
1 -4 5 260.02 7.28 1
-2 4 -5 8.61 2.01 3
2 -4 5 4.71 1.31 1
-2 4 -5 7.03 1.16 2
3 -4 5 64.16 3.64 1
-3 4 -5 58.76 4.17 3
-3 4 -5 60.24 3.12 2
-4 4 -5 322.56 9.19 2
-4 4 -5 317.6 10.66 3
4 -4 5 314.07 9.79 1
-5 4 -5 63 2.36 4
-5 4 -5 64.88 4.1 2
5 -4 5 64.98 4.4 1
-6 4 -5 270.24 6.8 4
6 -4 5 271.51 10.17 1
-6 4 -5 273.43 9.68 2
-7 4 -5 4.07 2.07 2
-7 4 -5 4.03 1.27 4
7 -4 5 6.75 2.41 1
8 -4 5 105.58 7.31 1
-8 4 -5 108.65 6.85 2
-8 4 -5 116.82 4.51 4
-8 -3 5 6.32 2.91 1
-8 -3 5 0.03 2.52 2
8 3 -5 1.77 1.58 2
-7 -3 5 122.43 7.55 2
7 3 -5 124.83 6.61 2
-7 -3 5 128.03 7.47 1
-6 -3 5 31.5 3.81 1
-6 -3 5 34.28 4.19 2
6 3 -5 28.34 3.15 2
-5 -3 5 103.26 5.82 2
-5 -3 5 122.97 6.03 1
5 3 -5 107.71 5.29 2
-4 -3 5 790.34 18.64 1
4 3 -5 829.7 18.35 2
3 3 -5 127.71 4.81 2
-3 -3 5 120.16 5.08 1
-2 -3 5 1849.61 35.12 1
2 3 -5 1842.2 34.75 2
1 3 -5 182.41 6.53 3
-1 -3 5 190.57 5.73 1
1 3 -5 189 5.33 2
0 3 -5 268.03 6.66 2
0 3 -5 259.94 8.26 3
0 -3 5 261.22 7.06 1
-1 3 -5 295.48 8.99 3
-1 3 -5 287.01 7.28 2
1 -3 5 279.74 7.66 1
-2 3 -5 759.97 18.03 3
-2 3 -5 771.98 14.11 4
2 -3 5 724.9 16.26 1
-2 3 -5 762.88 16.05 2
-3 3 -5 1.5 1.1 2
-3 3 -5 3.3 1.27 1
3 -3 5 3.63 1.19 1
-3 3 -5 1.02 0.73 4
-4 3 -5 240.72 6.7 4
-4 3 -5 244.58 7.97 2
4 -3 5 250.2 8.45 1
4 -3 5 243.94 8.34 2
-5 3 -5 10.84 2.22 2
5 -3 5 11.64 2.29 1
-5 3 -5 16.26 1.98 4
5 -3 5 16.09 2.54 2
-6 3 -5 6.28 2.1 2
-6 3 -5 15.51 2.2 4
6 -3 5 12.86 2.68 1
-7 3 -5 2.39 1.89 2
7 -3 5 2.5 1.85 1
-7 3 -5 0.42 1.38 4
7 -3 5 1.31 1.64 2
8 -3 5 20.94 3.86 1
-8 3 -5 20.48 2.96 4
-8 3 -5 14.6 3.41 2
8 -3 5 19.78 3.72 2
-9 -2 5 19.5 4.47 2
9 2 -5 15.33 3.48 2
-9 -2 5 19.16 4.47 1
-8 -2 5 -2.63 1.83 4
8 2 -5 1.38 1.55 2
-8 -2 5 -1.17 2 1
-8 -2 5 0.06 2.22 2
-7 -2 5 21.01 3.5 4
-7 -2 5 22.57 3.72 1
-7 -2 5 24.38 3.89 2
7 2 -5 29.14 3.58 2
-6 -2 5 2.66 1.76 1
-6 -2 5 3.65 1.98 2
6 2 -5 4.69 1.65 2
-6 -2 5 4.3 1.93 4
6 2 -5 4.96 1.8 1
-5 -2 5 127.89 5.74 4
-5 -2 5 129.43 6.24 2
5 2 -5 124.14 5.65 2
5 2 -5 136.54 5.84 1
-5 -2 5 118.15 5.84 1
-4 -2 5 21.48 2.37 4
-4 -2 5 27.38 2.85 2
-4 -2 5 24.36 2.61 1
4 2 -5 22.72 2.33 1
4 2 -5 25.85 2.42 2
3 2 -5 -0.05 0.78 1
3 2 -5 1.07 0.73 2
-3 -2 5 -0.74 0.83 1
-2 -2 5 141.31 4.88 1
2 2 -5 142.49 4.81 2
-1 -2 5 294.87 7.64 1
1 2 -5 301.33 7.63 2
0 -2 5 167.85 5.16 1
0 2 -5 165.16 4.27 4
-1 2 -5 456.14 10.44 2
1 -2 5 454.49 10.57 1
-1 2 -5 430.35 9.32 4
2 -2 5 202.11 6.42 1
-2 2 -5 206.93 5.61 4
-2 2 -5 203.92 6.31 2
-2 2 -5 210.69 6.26 1
-3 2 -5 1.53 1.11 1
-3 2 -5 2.42 1.01 4
3 -2 5 3.15 1.23 1
-3 2 -5 4.44 1.32 2
-4 2 -5 703.09 16.02 1
4 -2 5 660.35 16.29 1
-4 2 -5 639.4 16.04 2
4 -2 5 644.61 16.24 2
-4 2 -5 628.1 14.6 4
5 -2 5 46.67 3.76 2
5 -2 5 47.19 3.92 1
-5 2 -5 47.37 3.79 1
-5 2 -5 49.53 3.45 4
-5 2 -5 50.34 3.84 2
6 -2 5 208.44 8.81 1
-6 2 -5 209.57 8.62 1
6 -2 5 202.3 8.54 2
-6 2 -5 210.27 7.76 4
-6 2 -5 181.99 8.35 2
7 -2 5 77.43 5.71 1
7 -2 5 81.95 5.74 2
-7 2 -5 83.69 5.09 4
-7 2 -5 73.77 5.65 2
-8 2 -5 6.73 2.31 4
8 -2 5 10.26 2.87 2
8 -2 5 5.57 2.46 1
-8 2 -5 4.17 2.5 2
-9 -1 5 83.78 6.19 4
-9 -1 5 83.51 6.77 1
9 1 -5 84.58 6.39 2
-9 -1 5 73.35 6.85 2
8 1 -5 37.84 4.29 2
-8 -1 5 22.7 3.59 4
-8 -1 5 28.1 4.21 1
-8 -1 5 32.13 4.54 2
8 1 -5 38.19 4.3 1
-7 -1 5 141 7.53 2
7 1 -5 145.54 7.16 1
7 1 -5 135.6 7.05 2
-7 -1 5 144.25 6.89 4
-7 -1 5 137.33 7.22 1
-6 -1 5 92.47 5.03 4
6 1 -5 93.42 5.22 1
6 1 -5 96.28 5.35 2
-6 -1 5 90.3 5.49 2
-6 -1 5 97.62 5.51 1
5 1 -5 11.65 2.01 2
5 1 -5 11.43 1.96 1
-5 -1 5 12.36 2.11 4
-5 -1 5 9.77 2.15 1
-5 -1 5 10.33 2.18 2
4 1 -5 361.98 9.97 1
4 1 -5 368.81 10.16 2
-4 -1 5 371.29 9.67 4
-4 -1 5 365.06 10.22 1
-4 -1 5 365.33 10.41 2
-3 -1 5 159.03 5.52 1
3 1 -5 156.91 5.42 1
3 1 -5 159.29 5.47 2
2 1 -5 487.56 11.06 1
-2 -1 5 477.79 11.13 1
-1 -1 5 303.67 7.71 1
1 1 -5 305.62 7.07 4
1 1 -5 311.36 7.65 1
0 1 -5 538.39 11.57 1
0 -1 5 527.18 11.67 1
0 1 -5 511.34 10.78 4
-1 1 -5 188.49 5.19 4
-1 1 -5 178.61 5.45 1
1 -1 5 167.95 5.45 1
-2 1 -5 47.76 2.61 4
2 -1 5 44.16 2.58 4
-2 1 -5 39.38 2.65 2
-2 1 -5 42.17 2.66 1
2 -1 5 38.52 2.6 1
-3 1 -5 48.17 2.93 4
-3 1 -5 45.26 3.09 2
3 -1 5 46.14 3.09 1
3 -1 5 46.4 3.07 2
-3 1 -5 46.14 3.14 1
-4 1 -5 98.26 5.09 2
4 -1 5 104.01 5.09 2
-4 1 -5 112.3 5.25 1
-4 1 -5 93.5 4.56 4
4 -1 5 107.35 5.2 1
5 -1 5 2.07 1.42 1
-5 1 -5 1.28 1.42 4
-5 1 -5 1.61 1.31 2
-5 1 -5 0.61 1.4 1
6 -1 5 16.54 2.79 1
-6 1 -5 12.35 2.51 4
6 -1 5 15.3 2.7 2
-6 1 -5 10.2 2.49 2
-6 1 -5 10.51 2.65 1
-7 1 -5 19.89 3.59 2
-7 1 -5 11.31 3.08 1
7 -1 5 22.57 3.48 2
7 -1 5 11.16 2.8 1
-7 1 -5 13.25 2.81 4
-8 1 -5 9.75 2.75 4
-8 1 -5 21.36 4.23 2
8 -1 5 25.02 4.04 1
8 -1 5 18.21 3.53 2
-9 0 5 9.36 3.11 2
9 0 -5 11.39 3.02 2
9 0 -5 12.28 3.15 1
-9 0 5 7.94 2.59 4
-9 0 5 13.37 3.74 1
8 0 -5 31.78 4.02 2
-8 0 5 24.51 3.59 4
-8 0 5 24.55 3.95 1
-8 0 5 29.13 4.17 2
8 0 -5 31.21 3.92 1
7 0 -5 18.91 2.91 1
-7 0 5 26.14 3.6 2
-7 0 5 28.05 3.67 1
-7 0 5 22.08 3.03 4
7 0 -5 29.81 3.47 2
-6 0 5 248.78 9.21 2
6 0 -5 239.63 8.77 1
-6 0 5 254.22 8.49 4
-6 0 5 263.61 9.23 1
6 0 -5 243.25 9.03 2
5 0 -5 220.69 7.68 1
-5 0 5 226.55 7.27 4
5 0 -5 232.03 8.01 2
-5 0 5 220.48 7.8 1
-5 0 5 216.69 7.91 2
-4 0 5 330.89 8.71 4
4 0 -5 328.92 9.36 2
4 0 -5 315.65 9.13 1
-4 0 5 326.84 9.21 1
-4 0 5 342.24 9.55 2
-3 0 5 23.08 1.89 4
-3 0 5 26.92 2.21 1
3 0 -5 22.24 1.94 1
2 0 -5 3334.98 60.17 1
-2 0 5 3393.75 58.1 4
-1 0 5 243.91 6.52 1
1 0 -5 256.01 6.63 1
0 0 5 5577.09 98.26 1
0 0 -5 5649.01 98.38 1
-1 0 -5 63.24 3.05 1
1 0 5 59.11 2.97 1
1 0 5 55.88 2.65 4
-2 0 -5 1969.9 37.62 1
2 0 5 1948.14 35.82 4
2 0 5 1987.67 37.53 1
2 0 5 2014.99 37.76 2
-3 0 -5 390.5 10.37 4
-3 0 -5 398.29 11.02 2
3 0 5 405.05 10.17 4
3 0 5 402.63 10.91 2
3 0 5 395.26 10.78 1
-3 0 -5 403.18 11 1
-4 0 -5 546.76 13.68 4
-4 0 -5 527.54 14.21 1
4 0 5 541.54 13.26 4
4 0 5 552.5 14.22 1
4 0 5 538.97 14.24 2
-4 0 -5 556.69 14.64 2
-5 0 -5 295.54 10.32 1
5 0 5 313.15 10.32 1
-5 0 -5 299.58 9.78 4
-5 0 -5 285.22 10.41 2
5 0 5 288.87 9.94 2
-6 0 -5 24.43 3.61 2
-6 0 -5 30.67 3.69 4
6 0 5 30.21 3.58 1
-6 0 -5 24.59 3.54 1
6 0 5 32.98 3.64 2
7 0 5 57.2 4.43 4
7 0 5 60.96 5.2 2
-7 0 -5 56.02 5.12 4
-7 0 -5 57.3 5.45 1
7 0 5 49.26 4.85 1
8 0 5 9.98 3.09 1
-8 0 -5 4.45 2.88 2
-8 0 -5 5.16 2.63 4
8 0 5 10.97 2.71 4
-8 0 -5 10.39 3.66 1
8 0 5 5.89 2.49 2
9 -1 -5 22.91 3.83 2
-9 1 5 22.08 3.47 4
9 -1 -5 28.21 4.11 1
-9 1 5 22.67 3.98 2
-8 1 5 312.12 11.48 1
8 -1 -5 281.56 11.23 2
8 -1 -5 283.18 11.04 1
-8 1 5 295.46 10.11 4
-8 1 5 277.52 11.23 2
-7 1 5 19.39 3.17 1
7 -1 -5 17.93 2.81 1
-7 1 5 16.6 2.6 4
7 -1 -5 18.87 2.92 2
-7 1 5 12.15 2.78 2
-6 1 5 149.24 6.62 2
6 -1 -5 142.03 6.51 2
6 -1 -5 139.81 6.32 1
-6 1 5 147.91 6.43 1
-6 1 5 143.15 5.79 4
5 -1 -5 161.68 6.41 2
-5 1 5 156.43 6.32 2
-5 1 5 149.26 5.55 4
-5 1 5 171.8 6.38 1
5 -1 -5 159.64 6.24 1
4 -1 -5 84.16 3.98 1
-4 1 5 82.32 3.95 2
-4 1 5 81.23 3.55 4
-4 1 5 84.22 3.96 1
-3 1 5 403.42 9.02 4
-3 1 5 393.57 9.84 2
3 -1 -5 398.7 9.84 1
2 -1 -5 628.17 13.61 1
-2 1 5 657.15 12.74 4
-1 1 5 478.29 9.68 4
1 -1 -5 463.27 10.47 1
0 1 5 114.33 3.96 1
0 1 5 126.69 3.68 4
0 -1 -5 122.2 4.16 1
1 1 5 85.39 3.13 4
1 1 5 81.14 3.46 1
-1 -1 -5 78.4 3.53 1
1 1 5 77.54 3.38 2
2 1 5 1.86 0.9 1
2 1 5 -0.14 0.63 2
-2 -1 -5 -0.37 0.79 1
2 1 5 -0.26 0.54 4
-3 -1 -5 110.09 5.12 1
-3 -1 -5 119.65 5.06 4
3 1 5 111.22 4.95 2
-3 -1 -5 130.01 5.59 2
3 1 5 112.59 4.99 1
3 1 5 114.76 4.49 4
4 1 5 12.37 1.79 4
-4 -1 -5 13.65 2.35 1
4 1 5 10.95 2.02 1
-4 -1 -5 7.92 1.98 4
-4 -1 -5 11.08 2.2 2
4 1 5 10.89 1.97 2
5 1 5 29.3 2.82 4
5 1 5 32.18 3.36 1
5 1 5 27.95 3.14 2
-5 -1 -5 32.58 3.53 4
-5 -1 -5 24.85 3.51 2
-5 -1 -5 30.39 3.59 1
6 1 5 0.6 1.24 2
-6 -1 -5 0.88 1.7 1
-6 -1 -5 -0.36 1.67 4
-6 -1 -5 1.03 1.69 2
6 1 5 -0.45 1.35 1
6 1 5 -0.65 0.99 4
7 1 5 29.26 3.88 2
-7 -1 -5 34.46 4.72 1
-7 -1 -5 23.78 4.23 2
7 1 5 29.32 3.22 4
-7 -1 -5 24.65 4 4
9 -2 -5 10.02 2.87 2
-9 2 5 8.69 2.18 4
-9 2 5 5.79 2.55 2
9 -2 -5 7.65 2.55 1
8 -2 -5 104.5 6.43 2
8 -2 -5 104.4 6.35 1
-8 2 5 101.79 5.25 4
-8 2 5 93.87 6.03 2
-7 2 5 6.05 2.04 2
7 -2 -5 2.03 1.39 1
7 -2 -5 3.5 1.68 2
-7 2 5 1.05 1.34 4
6 -2 -5 367.86 11.18 1
6 -2 -5 385.41 11.57 2
-6 2 5 355.9 9.61 4
-6 2 5 369.22 11.07 2
-6 2 5 377.54 11.04 1
5 -2 -5 80.95 4.26 1
5 -2 -5 82.75 4.4 2
-5 2 5 85.47 4.29 2
-5 2 5 84.97 4.27 1
-5 2 5 86.2 3.65 4
4 -2 -5 121.71 4.86 1
-4 2 5 125.75 4.79 1
-4 2 5 127.7 4.07 4
-4 2 5 125.64 4.87 2
-3 2 5 62.91 2.98 2
3 -2 -5 62.56 3.04 1
-3 2 5 65.19 2.45 4
-2 2 5 540.95 11.57 2
2 -2 -5 527.18 11.76 1
-2 2 5 545.76 10.28 4
-1 2 5 209.01 4.55 4
1 -2 -5 215.06 5.84 1
0 2 5 337.59 8.04 2
0 2 5 339.1 6.96 4
0 -2 -5 341.45 8.37 1
-1 -2 -5 234.08 6.89 1
1 2 5 241.96 6.67 2
1 2 5 236.7 5.65 4
2 2 5 86.92 3.84 1
2 2 5 84.41 3.22 4
-2 -2 -5 77.55 3.97 1
2 2 5 83.93 3.84 2
3 2 5 378.26 10.32 2
3 2 5 381.09 10.38 1
-3 -2 -5 373.74 10.91 1
-3 -2 -5 387.85 11.15 2
3 2 5 360.9 9.08 4
4 2 5 289.99 8.35 4
-4 -2 -5 304.97 9.64 4
4 2 5 323.62 9.92 1
4 2 5 301.53 9.68 2
-4 -2 -5 325.09 10.63 2
-4 -2 -5 304.76 10.22 1
5 2 5 104.44 5.55 2
-5 -2 -5 93.52 5.57 4
5 2 5 87.04 4.37 4
-5 -2 -5 96.82 6.11 2
-5 -2 -5 91.43 5.73 1
6 2 5 190.24 7.15 4
6 2 5 180.75 8.24 2
-6 -2 -5 208.59 9.45 1
-7 -2 -5 1.76 2.27 2
7 2 5 1.21 1.55 2
7 2 5 0.3 1.23 4
-7 -2 -5 1.17 2.44 4
-7 -2 -5 -0.54 2.15 1
-9 3 5 74.19 5.5 2
9 -3 -5 83.08 6.11 1
-9 3 5 78.73 4.4 4
-8 3 5 26.86 2.59 4
8 -3 -5 16.76 3.09 1
-8 3 5 17.62 3.11 2
7 -3 -5 97.28 5.54 1
-7 3 5 84.89 5.02 2
-7 3 5 98.5 4.07 4
-6 3 5 157.71 6.28 3
6 -3 -5 157.19 6.54 1
-6 3 5 143.88 4.65 4
-6 3 5 146.06 6.08 2
-5 3 5 291.65 6.57 4
5 -3 -5 301.75 8.96 1
-5 3 5 282.39 8.38 2
-5 3 5 292.23 9.17 3
4 -3 -5 610.71 13.91 1
-4 3 5 593.31 13.34 2
-4 3 5 612.75 15.23 3
-3 3 5 580.53 12.44 2
3 -3 -5 596.42 13.09 1
-3 3 5 604.83 14.95 3
2 -3 -5 9.68 1.21 1
-2 3 5 7.81 1.6 3
-2 3 5 7.7 0.96 2
-1 3 5 19.38 2.19 3
-1 3 5 18.35 1.27 2
1 -3 -5 19.85 1.62 1
0 3 5 234.25 5.83 2
0 3 5 232.8 7.62 3
0 -3 -5 222.52 6.38 1
1 3 5 81.52 4.12 3
-1 -3 -5 76.72 3.63 1
1 3 5 71.07 3.09 2
2 3 5 31.4 2.67 3
2 3 5 27.74 1.37 4
2 3 5 32.86 2.36 2
2 3 5 26.86 1.32 4
-2 -3 -5 30.55 2.66 1
-3 -3 -5 99.53 5.14 1
3 3 5 103.78 4.66 3
3 3 5 96.29 3.34 4
3 3 5 100.87 4.63 2
-4 -3 -5 0.63 1.45 1
4 3 5 1.63 1.1 2
4 3 5 0.48 0.75 4
5 3 5 40.67 3.7 2
-5 -3 -5 39.37 4.29 1
5 3 5 37.79 2.57 4
6 3 5 1.29 1.09 4
-6 -3 -5 0.01 1.9 1
6 3 5 -0.4 1.22 2
7 3 5 19.04 2.28 4
-7 -3 -5 14.06 3.78 1
7 3 5 20.92 3.42 2
-9 4 5 6.83 2.43 2
9 -4 -5 2.58 1.88 1
-8 4 5 35.37 3.73 2
8 -4 -5 35.2 3.92 1
7 -4 -5 38.41 3.68 1
-7 4 5 38.36 3.43 2
6 -4 -5 174.72 6.94 1
-6 4 5 178.47 7.38 3
-6 4 5 172.73 6.24 2
5 -4 -5 5.42 1.43 1
-5 4 5 8.33 2.11 3
-5 4 5 7.79 1.47 2
-4 4 5 15.68 1.42 2
-4 4 5 14.09 2.31 3
4 -4 -5 16.73 1.84 1
3 -4 -5 253.65 7.03 1
-3 4 5 266.33 5.5 2
-3 4 5 259.85 8.97 3
2 -4 -5 8.74 1.19 1
-2 4 5 8.59 1.85 3
1 -4 -5 459.44 10.43 1
-1 4 5 473.56 13.05 3
0 4 5 16.51 0.91 2
0 -4 -5 13.28 1.54 1
0 4 5 16.21 2.29 3
-1 -4 -5 157.21 5.62 1
1 4 5 163.49 6.59 3
1 4 5 161.67 4.51 2
2 4 5 304.67 9.6 3
-2 -4 -5 290.66 8.99 1
2 4 5 294.49 7.81 2
3 4 5 15.17 1.88 2
-3 -4 -5 11.77 2.26 1
3 4 5 17.73 2.32 3
-4 -4 -5 271.1 9.96 1
4 4 5 274.53 8.79 2
-5 -4 -5 6.29 2.41 1
5 4 5 3.53 1.58 2
-6 -4 -5 47.95 5.35 1
6 4 5 56.69 4.41 2
9 -5 -5 84.68 6.13 1
-9 5 5 89.42 5.33 2
8 -5 -5 -1 1.23 1
-8 5 5 -0.43 1.32 2
-7 5 5 1.33 1.32 2
-7 5 5 1.71 2.02 3
7 -5 -5 2.9 1.55 1
6 -5 -5 73.27 4.41 1
-6 5 5 78.6 3.37 2
-6 5 5 86.11 5.56 3
-5 5 5 3.67 1.79 3
5 -5 -5 4.73 1.34 1
-4 5 5 125.25 6.43 3
4 -5 -5 136.86 4.96 1
-3 5 5 43.58 3.73 3
3 -5 -5 50.15 2.65 1
-2 5 5 73.2 4.66 3
2 -5 -5 67.09 3 1
1 -5 -5 19.71 1.72 1
-1 5 5 18.19 2.61 3
0 -5 -5 2.24 1 1
0 5 5 4.35 1.56 3
1 5 5 23.66 2.87 3
-1 -5 -5 16.75 1.98 1
2 5 5 23.78 1.48 2
-2 -5 -5 30.21 2.85 1
2 5 5 25.88 2.98 3
3 5 5 15.99 1.7 2
-3 -5 -5 21.61 2.94 1
-4 -5 -5 47.61 4.53 1
4 5 5 56.86 3.42 2
-5 -5 -5 9.16 2.91 1
5 5 5 14.57 2.23 2
8 -6 -5 7.75 2.42 1
-7 6 5 199.16 9.13 3
7 -6 -5 179.41 7.78 1
6 -6 -5 3.79 1.52 1
-6 6 5 2.71 2 3
5 -6 -5 184.2 6.51 1
-5 6 5 181.25 8.69 3
-4 6 5 223.6 9.59 3
4 -6 -5 231.5 6.95 1
-3 6 5 445.15 14.38 3
3 -6 -5 446.19 10.44 1
-2 6 5 497.05 15.3 3
-1 6 5 354.84 12.26 3
1 -6 -5 365.13 8.96 1
0 -6 -5 557.03 12.79 1
0 6 5 534.84 16.06 3
-1 -6 -5 37.64 2.89 1
1 6 5 35.35 3.76 3
2 6 5 348.98 11.89 3
-2 -6 -5 337.35 10.58 1
-3 -6 -5 8.89 2.46 1
-4 -6 -5 95.05 6.25 1
-8 7 5 6.89 3.16 3
8 -7 -5 6.15 2.26 1
7 -7 -5 1.24 1.45 1
-7 7 5 0.07 2.2 3
-6 7 5 16.23 3.6 3
6 -7 -5 18.08 2.47 1
5 -7 -5 17.73 2.13 1
-5 7 5 17.26 3.54 3
4 -7 -5 48.69 2.91 1
-4 7 5 46.5 4.94 3
-3 7 5 38.31 4.55 3
3 -7 -5 38.31 2.39 1
2 -7 -5 6.37 1.2 1
-2 7 5 4.69 2.03 3
-1 7 5 2.55 1.8 3
1 -7 -5 0.27 0.94 1
0 -7 -5 17.59 2.01 1
0 7 5 12.94 2.92 3
1 7 5 1.22 1.75 3
-1 -7 -5 5.08 1.64 1
-2 -7 -5 12.78 2.52 1
2 7 5 17.75 3.26 3
-3 -7 -5 1.14 1.77 1
-7 8 5 79.97 6.83 3
7 -8 -5 79.97 5.09 1
-6 8 5 22.44 4.26 3
6 -8 -5 29.63 3.03 1
-5 8 5 9.43 3.14 3
5 -8 -5 17.66 2.21 1
-4 8 5 128.09 8.34 3
4 -8 -5 142.62 5.07 1
-3 8 5 0.8 1.88 3
3 -8 -5 0.55 0.93 1
2 -8 -5 151.12 4.88 1
-2 8 5 153.4 8.83 3
1 -8 -5 23.67 2.11 1
-1 8 5 16.95 3.55 3
0 -8 -5 28.98 2.59 1
0 8 5 29.18 4.28 3
1 8 5 65.86 5.97 3
-1 -8 -5 67.47 4.22 1
-2 -8 -5 4.47 2.1 1
2 8 5 7.57 2.86 3
5 -9 -5 33.96 2.84 1
-5 9 5 24.85 4.8 3
-4 9 5 0.28 2.42 3
-3 9 5 2.07 2.38 3
-2 9 5 1.05 2.14 3
-1 9 5 0.69 2.01 3
0 9 5 21.3 4.27 3
0 -9 -5 24.2 2.66 1
-1 -9 6 30.66 3.33 1
1 9 -6 24.92 4.84 3
0 9 -6 30.96 5.13 3
0 -9 6 45.03 3.73 1
1 -9 6 81.75 4.6 1
-1 9 -6 73.22 7.27 3
-2 9 -6 68.89 7.12 3
2 -9 6 63.99 4.13 1
-3 9 -6 14.34 3.97 3
3 -9 6 9.67 2.18 1
3 8 -6 9.42 2.92 3
-3 -8 6 14.26 2.87 1
2 8 -6 15.69 3.65 3
-2 -8 6 12.09 2.65 1
-1 -8 6 12.87 2.43 1
1 8 -6 14.36 3.61 3
0 8 -6 39.31 5.06 3
0 -8 6 44.29 3.47 1
1 -8 6 2.02 1.43 1
-1 8 -6 4.91 2.41 3
-2 8 -6 12.59 3.52 3
2 -8 6 10.09 2.02 1
3 -8 6 0.96 1.44 1
-3 8 -6 0.54 2.15 3
4 -8 6 -0.24 1.27 1
-4 8 -6 -0.22 2.38 3
-5 8 -6 5.95 3.18 3
5 -8 6 6.67 2.25 1
-4 -7 6 1.26 1.9 1
3 7 -6 115.16 7 3
-3 -7 6 113.47 6 1
-2 -7 6 49.97 3.72 1
2 7 -6 51.55 4.95 3
1 7 -6 11.49 2.89 3
-1 -7 6 6.44 1.82 1
0 -7 6 272.93 8.44 1
0 7 -6 266.77 11.25 3
1 -7 6 1.78 1.31 1
-1 7 -6 2.97 1.71 3
-2 7 -6 103.97 6.97 3
2 -7 6 108.42 5.08 1
3 -7 6 41.7 3.34 1
-3 7 -6 39.72 4.97 3
-4 7 -6 1.12 2.13 3
4 -7 6 1.21 1.42 1
-5 7 -6 64.96 6.3 3
5 -7 6 62.29 4.71 1
6 -7 6 10.79 2.79 1
-6 -6 6 20.79 3.98 1
6 6 -6 22.73 2.5 2
5 6 -6 53.51 3.17 2
-5 -6 6 58.25 5.15 1
4 6 -6 4.51 1.06 2
-4 -6 6 0.78 1.69 1
-3 -6 6 105.4 5.53 1
3 6 -6 113.35 6.33 3
-2 -6 6 35.56 3.18 1
2 6 -6 31.6 3.73 3
-1 -6 6 325.99 9.55 1
1 6 -6 343.01 12.12 3
0 -6 6 5.23 1.47 1
0 6 -6 4.94 2.12 3
-1 6 -6 29.28 3.76 3
1 -6 6 35.41 2.86 1
-2 6 -6 54.53 5.02 3
2 -6 6 56.27 3.56 1
3 -6 6 31.17 2.96 1
-3 6 -6 26.11 4 3
-4 6 -6 7.95 2.81 3
-4 6 -6 7.05 1.01 2
4 -6 6 7.56 1.97 1
-5 6 -6 1.66 1.14 2
5 -6 6 2.86 1.71 1
-6 6 -6 34.17 2.9 2
6 -6 6 30.64 3.84 1
-7 6 -6 7.79 2.11 2
7 -6 6 3.03 2.16 1
7 5 -6 10.26 2.32 2
-7 -5 6 5.57 2.85 1
-6 -5 6 32.05 4.48 1
6 5 -6 41.47 3.6 2
5 5 -6 60.59 3.83 2
-5 -5 6 63.86 4.98 1
4 5 -6 123.15 4.99 2
-4 -5 6 113.61 5.96 1
3 5 -6 0.52 0.88 2
-3 -5 6 1.09 1.21 1
2 5 -6 110.51 3.67 2
-2 -5 6 118.03 5.15 1
2 5 -6 111.83 5.92 3
-1 -5 6 278.44 8.31 1
1 5 -6 284.56 10.07 3
1 5 -6 282.53 6.23 2
0 5 -6 138.72 6.95 3
0 -5 6 152.42 5.53 1
0 5 -6 148.41 3.53 2
1 -5 6 331.78 9.21 1
-1 5 -6 339.06 6.99 2
-1 5 -6 306.44 11.11 3
2 -5 6 14.84 2 1
-2 5 -6 12.92 2.66 3
-2 5 -6 15.23 1.41 2
-3 5 -6 108.62 4.11 2
-3 5 -6 99.37 6.03 3
3 -5 6 110.65 5.15 1
-4 5 -6 26.74 3.7 3
-4 5 -6 18.34 2.11 2
4 -5 6 26.05 2.91 1
5 -5 6 40.52 3.9 1
-5 5 -6 35.34 3.1 2
-6 5 -6 58.35 4.13 2
6 -5 6 57.55 4.93 1
-7 5 -6 63.78 4.79 2
7 -5 6 62.02 5.62 1
-7 -4 6 108.16 7.24 1
7 4 -6 103.53 6.07 2
6 4 -6 21.37 2.88 2
-6 -4 6 23.18 3.71 1
-5 -4 6 79.56 5.29 1
5 4 -6 86.11 4.68 2
-4 -4 6 16.91 2.57 1
4 4 -6 16.69 2.11 2
3 4 -6 25.18 2.27 2
-3 -4 6 26.2 2.78 1
2 4 -6 2.37 0.97 2
-2 -4 6 1.63 1.11 1
1 4 -6 68.74 3.03 2
1 4 -6 78.72 4.52 3
-1 -4 6 77.39 3.75 1
0 4 -6 166.26 6.95 3
0 -4 6 163.2 5.68 1
0 4 -6 171.67 5.01 2
1 -4 6 45.55 2.98 1
-1 4 -6 44.72 2.41 2
-1 4 -6 41.24 3.51 3
2 -4 6 93.54 4.45 1
-2 4 -6 101.71 5.54 3
-2 4 -6 94.86 3.92 2
-3 4 -6 13.9 1.91 2
3 -4 6 8.82 1.82 1
4 -4 6 277.33 9.29 1
-4 4 -6 268.62 8.61 2
5 -4 6 35.04 3.64 1
-5 4 -6 35.17 3.46 2
-5 4 -6 33.48 2 4
-6 4 -6 70.69 4.94 2
6 -4 6 74.41 5.36 1
-6 4 -6 79.28 3.37 4
7 -4 6 68.7 5.57 1
-7 4 -6 55.06 3.14 4
-7 4 -6 66.82 5.17 2
-8 -3 6 14.41 3.78 2
-8 -3 6 17.03 3.99 1
8 3 -6 10.39 2.71 2
7 3 -6 3.52 1.82 2
-7 -3 6 1.5 2.33 2
-7 -3 6 2.1 2.25 1
6 3 -6 253.56 9.4 2
-6 -3 6 245.68 9.96 1
-6 -3 6 264.13 10.49 2
-5 -3 6 9.71 2.41 1
-5 -3 6 7.04 2.27 2
5 3 -6 7.35 1.84 2
4 3 -6 270.23 8.48 2
-4 -3 6 269.79 9.01 1
3 3 -6 177.8 6.1 2
-3 -3 6 173.01 6.46 1
2 3 -6 3.1 1.06 2
-2 -3 6 2.54 1.08 1
1 3 -6 1037.49 20.78 2
-1 -3 6 1030.64 21.17 1
0 -3 6 138.91 5.03 1
0 3 -6 135.39 4.63 2
-1 3 -6 932.61 17.03 4
1 -3 6 934.12 19.64 1
-1 3 -6 919.58 19.06 2
-2 3 -6 101.12 3.43 4
-2 3 -6 100.28 4.32 2
2 -3 6 109.77 4.65 1
-3 3 -6 182.8 6.33 1
-3 3 -6 178.86 6.4 2
-3 3 -6 178.52 5.24 4
3 -3 6 160.51 6.37 1
-4 3 -6 137.44 4.8 4
4 -3 6 126.53 5.99 1
4 -3 6 139.33 6.23 2
-4 3 -6 122.53 5.68 2
-5 3 -6 16.96 2.15 4
5 -3 6 17.1 2.72 1
-5 3 -6 16.07 2.64 2
5 -3 6 17.26 2.7 2
-6 3 -6 219.34 7.47 4
-6 3 -6 194.31 8.66 2
6 -3 6 204.44 8.92 1
7 -3 6 61.42 5.38 1
-7 3 -6 45.74 4.87 2
7 -3 6 54.91 5.12 2
-7 3 -6 59.55 4.12 4
-8 3 -6 14.83 3.53 2
8 -3 6 16.35 3.63 1
8 -3 6 13.37 3.21 2
-8 3 -6 16.18 2.8 4
8 2 -6 3.19 1.85 2
-8 -2 6 3.55 2.73 2
-8 -2 6 2.22 2.39 4
-8 -2 6 4.21 2.74 1
-7 -2 6 191.68 9.15 2
-7 -2 6 168.62 7.92 4
-7 -2 6 175.74 8.66 1
7 2 -6 173.47 8.03 2
6 2 -6 0.44 1.03 2
-6 -2 6 1.51 1.72 1
-6 -2 6 1.4 1.63 4
6 2 -6 -0.03 1.16 1
-6 -2 6 2.31 1.86 2
-5 -2 6 175.5 6.7 4
-5 -2 6 163.32 7.2 2
5 2 -6 153.22 6.57 2
-5 -2 6 160.39 7.02 1
5 2 -6 167.19 6.77 1
-4 -2 6 1.3 1.33 2
-4 -2 6 0.64 1.14 1
-4 -2 6 0.2 1.14 4
4 2 -6 1.25 0.92 2
4 2 -6 1.73 1.08 1
3 2 -6 76.95 3.79 1
-3 -2 6 77.64 3.99 1
3 2 -6 74.65 3.75 2
-2 -2 6 18.9 2.01 1
2 2 -6 19.08 1.88 1
2 2 -6 22.16 2 2
-1 -2 6 252.67 7.23 1
1 2 -6 252.96 7.07 2
1 2 -6 256.61 7.02 1
1 2 -6 251 6.27 4
0 -2 6 168.48 5.66 1
0 2 -6 182.68 5.54 1
0 2 -6 173.73 5.5 2
0 2 -6 175.44 4.84 4
-1 2 -6 12.15 1.36 4
1 -2 6 10.49 1.56 1
-1 2 -6 13.48 1.65 1
-1 2 -6 11.47 1.58 2
-2 2 -6 8.63 1.6 2
2 -2 6 11.63 1.8 1
-2 2 -6 13.93 1.81 1
-2 2 -6 13.17 1.56 4
3 -2 6 324.17 9.74 1
3 -2 6 336.6 9.85 2
-3 2 -6 350.64 9.72 1
-3 2 -6 309.55 8.54 4
-3 2 -6 313.87 9.52 2
4 -2 6 16.87 2.49 1
-4 2 -6 15.54 2.4 1
-4 2 -6 16.61 2.09 4
4 -2 6 14.81 2.3 2
-4 2 -6 14.67 2.41 2
5 -2 6 159.14 7.22 2
5 -2 6 166.88 7.39 1
-5 2 -6 151.98 7.06 2
-5 2 -6 148.74 6.96 1
-5 2 -6 144.53 6.13 4
6 -2 6 32.16 3.8 1
-6 2 -6 23.82 3.52 2
-6 2 -6 23.34 3.06 4
6 -2 6 30.7 3.67 2
7 -2 6 18.57 3.42 2
7 -2 6 18.64 3.53 1
-7 2 -6 19.95 3.16 4
-7 2 -6 16.83 3.38 2
-8 2 -6 69.47 6.51 2
8 -2 6 81.23 6.4 2
8 -2 6 87.97 6.76 1
-8 2 -6 75.16 5.45 4
-9 -1 6 1.49 2.36 4
-9 -1 6 0.41 2.49 1
9 1 -6 2.85 2 2
-9 -1 6 0.49 2.36 2
-8 -1 6 49.34 4.8 4
-8 -1 6 52.37 5.42 1
8 1 -6 60.98 5.28 1
8 1 -6 51.92 4.92 2
-8 -1 6 56.93 5.72 2
-7 -1 6 258.08 9.65 4
-7 -1 6 263.73 10.53 1
-7 -1 6 251.89 10.54 2
7 1 -6 267.32 10.15 1
7 1 -6 263.73 10.23 2
-6 -1 6 127.21 6.02 4
6 1 -6 129.35 6.37 2
-6 -1 6 132.78 6.73 2
-6 -1 6 118.01 6.33 1
6 1 -6 123.46 6.14 1
-5 -1 6 632.41 16.3 1
5 1 -6 655.14 16.31 2
5 1 -6 652.87 16.13 1
-5 -1 6 690.08 16.93 2
-5 -1 6 634.45 15.43 4
4 1 -6 22.76 2.35 2
4 1 -6 18.28 2.12 1
-4 -1 6 20.63 2.22 4
-4 -1 6 21.82 2.56 2
-4 -1 6 22.97 2.62 1
3 1 -6 337.1 9.18 1
3 1 -6 345.39 9.37 2
-3 -1 6 343.3 9.38 1
-3 -1 6 353.69 8.82 4
2 1 -6 339.28 8.87 2
2 1 -6 334.47 8.15 4
-2 -1 6 340.8 8.94 1
1 1 -6 105.07 3.7 4
-1 -1 6 103.48 4.14 1
1 1 -6 104.85 4.08 1
0 1 -6 460.67 10.2 4
0 1 -6 469.42 10.89 1
0 -1 6 460.05 11.02 1
1 -1 6 58.03 3.19 1
-1 1 -6 57.76 3.1 1
-1 1 -6 64.31 3.21 2
-1 1 -6 60.49 2.93 4
2 -1 6 4.09 1.22 1
2 -1 6 5.13 1.2 4
-2 1 -6 4.12 1.24 4
-2 1 -6 5.35 1.44 2
-2 1 -6 4.68 1.34 1
2 -1 6 6.78 1.47 2
-3 1 -6 30.02 2.91 2
-3 1 -6 35.99 2.73 4
-3 1 -6 32.82 2.97 1
3 -1 6 33.44 2.87 2
3 -1 6 34.67 2.68 4
3 -1 6 34.09 2.91 1
4 -1 6 3.81 1.47 2
-4 1 -6 2.88 1.42 4
4 -1 6 4.03 1.42 1
-4 1 -6 2.99 1.6 1
-4 1 -6 -0.12 1.1 2
-5 1 -6 216.57 8.63 1
5 -1 6 221.29 8.68 1
-5 1 -6 215.14 8.85 2
-5 1 -6 215.09 8.08 4
6 -1 6 49.86 4.57 1
6 -1 6 47 4.39 2
-6 1 -6 46.59 4.58 1
-6 1 -6 44.71 4.2 4
-6 1 -6 40.07 4.44 2
7 -1 6 16.05 3.22 2
7 -1 6 15.48 2.9 4
-7 1 -6 17.06 3.54 2
-7 1 -6 19.82 3.39 4
-7 1 -6 24.13 4.11 1
7 -1 6 18.27 3.4 1
-8 1 -6 -1.98 2.15 2
8 -1 6 -0.35 1.61 2
8 -1 6 0.04 1.97 1
8 -1 6 -0.33 1.44 4
-8 1 -6 -1.32 1.73 4
9 0 -6 1.78 1.98 2
-9 0 6 6.99 3.26 1
-9 0 6 3.13 2.36 4
-9 0 6 1.45 2.37 2
9 0 -6 -0.17 1.71 1
-8 0 6 43.7 4.36 4
8 0 -6 43.02 4.51 2
-8 0 6 38.2 4.67 1
8 0 -6 42.77 4.45 1
-8 0 6 39.31 4.74 2
7 0 -6 2.39 1.45 2
-7 0 6 2.79 1.9 2
-7 0 6 -0.21 1.47 4
7 0 -6 0.59 1.35 1
-7 0 6 1.1 1.84 1
6 0 -6 23.1 2.87 2
-6 0 6 13.55 2.65 2
6 0 -6 17.6 2.6 1
-6 0 6 16.64 2.56 4
-6 0 6 13.3 2.62 1
5 0 -6 93.78 4.77 1
-5 0 6 83.81 4.73 1
-5 0 6 84.41 4.74 2
-5 0 6 85.86 4.27 4
5 0 -6 85.82 4.69 2
4 0 -6 13.12 1.84 1
4 0 -6 11.7 1.8 2
-4 0 6 7.94 1.69 1
-4 0 6 12.92 2.06 2
-4 0 6 13.99 1.84 4
-3 0 6 502.76 12.13 1
3 0 -6 501.73 12.14 1
-3 0 6 493.28 11.31 4
3 0 -6 513.18 11.49 4
3 0 -6 499.19 12.2 2
-3 0 6 504.95 12.31 2
2 0 -6 53.83 2.68 4
-2 0 6 47.35 2.48 4
2 0 -6 51.15 2.81 1
-2 0 6 48.6 2.85 1
1 0 -6 89 3.64 1
-1 0 6 87.85 3.72 1
-1 0 6 88.48 3.36 4
0 0 -6 81.56 3.56 1
0 0 -6 77.84 3.3 4
0 0 6 67.92 3.3 1
0 0 6 76.27 3.11 4
-1 0 -6 44.43 2.61 4
-1 0 -6 42.82 2.77 1
1 0 6 46.84 2.56 4
1 0 6 45.24 2.74 1
1 0 6 48 2.83 2
2 0 6 208.25 6.28 4
-2 0 -6 214.61 6.57 4
-2 0 -6 210 7.02 2
-2 0 -6 195.78 6.79 1
2 0 6 195.77 6.71 1
2 0 6 201.81 6.78 2
3 0 6 136.91 5.71 2
-3 0 -6 129.21 5.32 4
-3 0 -6 128.62 5.6 1
-3 0 -6 126.59 5.74 2
3 0 6 119.64 5.47 1
3 0 6 124.86 4.92 4
-4 0 -6 216.4 8.42 2
-4 0 -6 220.88 8.32 1
4 0 6 211.24 8.07 1
4 0 6 222.23 7.52 4
4 0 6 224.31 8.26 2
-4 0 -6 236.6 8.09 4
5 0 6 2.88 1.56 1
5 0 6 7.61 1.89 4
-5 0 -6 4.17 1.84 4
-5 0 -6 2.09 1.7 2
-5 0 -6 4.02 1.93 1
5 0 6 2.83 1.61 2
6 0 6 170.52 8.23 2
6 0 6 195.64 8.79 1
-6 0 -6 188.91 8.89 1
-6 0 -6 194.19 8.4 4
6 0 6 183.37 7.72 4
-6 0 -6 185.49 8.96 2
-7 0 -6 33.04 4.67 1
7 0 6 23.89 3.31 4
-7 0 -6 29.24 4.58 2
7 0 6 24.65 3.78 2
-7 0 -6 26.36 3.92 4
7 0 6 29.67 4.02 1
9 -1 -6 29.96 4.35 2
-9 1 6 24.57 4.21 2
9 -1 -6 31.77 4.36 1
-9 1 6 28.87 3.77 4
-8 1 6 0.79 2.25 1
8 -1 -6 0.81 1.37 2
-8 1 6 -0.19 1.52 4
8 -1 -6 1 1.49 1
-8 1 6 0.31 1.72 2
-7 1 6 278.51 10.12 1
-7 1 6 260.96 10.07 2
7 -1 -6 272.02 10.01 1
-7 1 6 254.73 8.81 4
7 -1 -6 264.55 10.21 2
-6 1 6 58.42 4.26 1
6 -1 -6 56.68 4.07 1
-6 1 6 56.51 3.64 4
-6 1 6 53.07 3.96 2
6 -1 -6 55.53 4.1 2
-5 1 6 298.9 8.41 4
-5 1 6 288.53 9.18 2
-5 1 6 289.95 9.07 1
5 -1 -6 294.5 9.21 1
5 -1 -6 286.82 9.27 2
-4 1 6 117.48 4.91 1
-4 1 6 109.63 4.87 2
4 -1 -6 108.04 4.82 2
-4 1 6 113.59 4.32 4
4 -1 -6 109.26 4.81 1
-3 1 6 4.29 1.07 4
-3 1 6 6.51 1.38 2
3 -1 -6 3.49 1.09 1
-3 1 6 5.82 1.36 1
-2 1 6 196.04 5.32 4
-2 1 6 201 5.98 2
-2 1 6 197.63 5.9 1
2 -1 -6 179.85 5.79 1
1 -1 -6 287.98 7.72 1
-1 1 6 297.93 7.01 4
-1 1 6 298.15 7.73 2
-1 1 6 285.66 7.62 1
0 -1 -6 378.27 9.53 1
0 1 6 379.21 8.55 4
0 1 6 382.05 9.28 1
0 1 6 377.49 9.35 2
1 1 6 4.46 1.18 1
1 1 6 3.4 0.93 4
-1 -1 -6 2.64 1.07 1
1 1 6 4.45 1.09 2
2 1 6 22.42 2.27 1
-2 -1 -6 23.22 2.39 4
2 1 6 21.1 1.93 4
2 1 6 18.44 2.04 2
-2 -1 -6 18.43 2.28 2
-2 -1 -6 16.77 2.15 1
3 1 6 14.21 2.1 1
-3 -1 -6 15.97 2.3 1
3 1 6 12.59 1.71 4
-3 -1 -6 9.03 2.05 2
-3 -1 -6 11.92 2.08 4
3 1 6 17.56 2.21 2
-4 -1 -6 25.64 3.22 2
-4 -1 -6 23.71 2.91 4
4 1 6 27.48 2.62 4
-4 -1 -6 21.48 2.9 1
4 1 6 28.69 3.07 1
-5 -1 -6 185.08 8.37 1
-5 -1 -6 203.61 8.97 2
-5 -1 -6 205.65 8.27 4
5 1 6 186.26 7.12 4
5 1 6 192.07 8.15 1
5 1 6 191.03 8.08 2
-6 -1 -6 21.09 3.62 1
-6 -1 -6 20.49 3.54 4
-6 -1 -6 25.58 3.96 2
6 1 6 24.2 3.37 2
6 1 6 17.71 3.09 1
6 1 6 25.3 2.98 4
7 1 6 16.31 2.78 4
-7 -1 -6 20.53 3.94 4
-7 -1 -6 17.5 3.76 1
7 1 6 18.59 3.33 2
-7 -1 -6 22.21 4.17 2
-9 2 6 7.71 2.2 4
9 -2 -6 9.65 2.95 2
9 -2 -6 13.56 3.18 1
-9 2 6 8.14 2.64 2
-8 2 6 50.05 3.71 4
8 -2 -6 54.13 4.94 2
8 -2 -6 60.52 4.92 1
-8 2 6 42.25 4.39 2
-7 2 6 1.05 1.27 4
7 -2 -6 0.15 1.01 1
7 -2 -6 2.86 1.59 2
-7 2 6 1.88 1.52 2
-6 2 6 24.98 3.04 1
-6 2 6 24.88 2.91 2
6 -2 -6 26.08 2.9 1
-6 2 6 30.47 2.64 4
6 -2 -6 28.83 3.09 2
5 -2 -6 2.92 1.31 2
-5 2 6 3.1 1.16 4
5 -2 -6 2.9 1.25 1
-5 2 6 3.15 1.46 3
-5 2 6 2.96 1.4 2
-5 2 6 0.52 1.29 1
-4 2 6 38.86 2.95 3
-4 2 6 41.7 2.87 1
-4 2 6 42 2.78 2
4 -2 -6 32.96 2.61 1
-4 2 6 39.61 2.31 4
-3 2 6 12.23 1.63 2
-3 2 6 13.11 1.27 4
3 -2 -6 13.12 1.6 1
-3 2 6 13.23 2 3
-2 2 6 258.13 6.89 2
2 -2 -6 259.83 7.09 1
-2 2 6 251.06 5.84 4
-1 2 6 391.43 8.05 4
-1 2 6 377.15 9.16 2
1 -2 -6 397.27 9.58 1
0 2 6 157.24 4.26 4
0 -2 -6 164.48 5.45 1
0 2 6 159.6 5.14 2
1 2 6 14.91 1.68 2
-1 -2 -6 16.36 1.92 1
1 2 6 16.59 1.82 1
1 2 6 14.49 1.33 4
2 2 6 862.45 17.36 4
2 2 6 861.74 19.02 2
2 2 6 913.31 19.05 1
-2 -2 -6 854.86 19.45 1
3 2 6 1.32 1.14 1
3 2 6 1.55 0.91 4
-3 -2 -6 1.58 1.43 2
-3 -2 -6 2.21 1.35 1
-3 -2 -6 0.65 1.45 4
3 2 6 3.62 1.35 3
-4 -2 -6 333.06 11.11 1
-4 -2 -6 330.33 11.37 2
4 2 6 328.39 10.43 2
-4 -2 -6 329.73 10.51 4
4 2 6 323.66 9.06 4
5 2 6 79.55 4.24 4
5 2 6 81.21 5.11 2
-5 -2 -6 81.02 5.45 4
-5 -2 -6 76.14 5.64 2
-5 -2 -6 74.69 5.37 1
-6 -2 -6 35.76 4.44 4
6 2 6 40.58 4.09 2
-6 -2 -6 25.36 4.04 1
-6 -2 -6 44.87 5.04 2
6 2 6 37.13 3.27 4
-7 -2 -6 140 8.2 4
-7 -2 -6 127.25 8.23 1
7 2 6 129.59 6.15 4
7 2 6 131.01 7.64 2
-9 3 6 45.26 4.8 2
-9 3 6 48.55 3.54 4
9 -3 -6 49.85 5.12 1
-8 3 6 96.75 5.84 2
8 -3 -6 121.15 6.77 1
-8 3 6 99.63 4.53 4
7 -3 -6 17.24 2.74 1
-7 3 6 20.28 2.04 4
-7 3 6 16.51 2.77 2
-6 3 6 350.87 8.4 4
-6 3 6 367.68 10.8 3
6 -3 -6 342.89 10.73 1
-6 3 6 336.68 10.34 2
5 -3 -6 26.22 2.57 1
-5 3 6 21.99 2.72 3
-5 3 6 30.28 2.65 2
-5 3 6 25.14 1.66 4
-4 3 6 218.92 7.84 3
-4 3 6 212.71 6.55 2
-4 3 6 208.73 4.52 4
4 -3 -6 224.17 7.04 1
3 -3 -6 502.02 11.84 1
-3 3 6 498.56 13.46 3
-3 3 6 503.73 11.25 2
2 -3 -6 2.73 0.93 1
-1 3 6 1423.91 26.94 2
1 -3 -6 1459.15 27.74 1
-1 3 6 1428.75 30.57 3
0 3 6 80.45 3.23 2
0 -3 -6 79.23 3.68 1
0 3 6 78.78 4.31 3
-1 -3 -6 475.51 11.83 1
1 3 6 450.33 12.49 3
1 3 6 467.21 11.02 2
-2 -3 -6 13.09 2.07 1
2 3 6 13.41 1.13 4
2 3 6 13.18 2.06 3
2 3 6 14.78 1.86 2
3 3 6 83.19 4.32 2
3 3 6 86.7 3.26 4
3 3 6 91.92 4.62 3
-3 -3 -6 79.45 4.82 1
4 3 6 53.79 2.8 4
-4 -3 -6 61.12 4.56 1
4 3 6 52.34 3.75 2
-5 -3 -6 225.09 9.74 1
5 3 6 227.7 6.86 4
5 3 6 225.86 8.81 2
6 3 6 1.21 1.08 4
-6 -3 -6 0.55 2.09 1
6 3 6 -0.07 1.25 2
9 -4 -6 37.2 4.5 1
-9 4 6 36.17 4.2 2
-8 4 6 63.74 4.53 2
8 -4 -6 67.65 5.12 1
7 -4 -6 12.48 2.46 1
-7 4 6 7.54 1.95 2
6 -4 -6 72.09 4.37 1
-6 4 6 75.84 4.83 3
-6 4 6 67.61 3.84 2
-5 4 6 22.98 2.11 2
-5 4 6 24.74 2.95 3
5 -4 -6 27.17 2.6 1
-4 4 6 151.37 6.86 3
4 -4 -6 161.81 5.8 1
-4 4 6 163.89 4.87 2
-3 4 6 50.74 2.08 2
3 -4 -6 47.83 2.82 1
-3 4 6 45.85 3.61 3
2 -4 -6 489.15 11.48 1
-2 4 6 504.39 14.14 3
-2 4 6 517.26 9.85 2
-1 4 6 -0.65 0.89 3
1 -4 -6 1.94 0.91 1
0 4 6 219.9 5.4 2
0 4 6 211.1 8.01 3
0 -4 -6 215.53 6.69 1
-1 -4 -6 322.99 9.29 1
1 4 6 324.83 7.97 2
1 4 6 319.83 10.3 3
-2 -4 -6 294.27 9.41 1
2 4 6 293.96 8.04 2
2 4 6 291 9.69 3
3 4 6 211.41 7.93 3
3 4 6 218.44 7.19 2
-3 -4 -6 204.48 8.28 1
4 4 6 10.83 2.03 2
-4 -4 -6 6.07 2.18 1
5 4 6 113.23 5.86 2
-5 -4 -6 111.54 7.08 1
-6 -4 -6 27.69 4.61 1
6 4 6 27.23 3.49 2
9 -5 -6 11.21 2.95 1
-9 5 6 11.18 2.51 2
-8 5 6 177.07 6.85 2
8 -5 -6 158.83 7.9 1
-7 5 6 130.95 7.12 3
-7 5 6 136.66 5.43 2
7 -5 -6 127.28 6.48 1
6 -5 -6 152.4 6.55 1
-6 5 6 154.59 7.58 3
-6 5 6 160.17 5.09 2
-5 5 6 240.89 9.6 3
-5 5 6 236.35 5.5 2
5 -5 -6 226.98 7.7 1
4 -5 -6 10.89 1.62 1
-4 5 6 12.18 2.54 3
-3 5 6 96.55 5.65 3
3 -5 -6 94.82 4 1
-2 5 6 128.02 6.57 3
-1 5 6 132.65 6.67 3
1 -5 -6 139.94 4.96 1
0 5 6 7.95 2.13 3
0 -5 -6 6.21 1.47 1
-1 -5 -6 1.94 1.19 1
1 5 6 5.79 1.99 3
2 5 6 6.23 1.98 3
2 5 6 6.96 1.12 2
-2 -5 -6 5.5 1.82 1
3 5 6 60 3.21 2
-3 -5 -6 56.67 4.42 1
-4 -5 -6 43.4 4.43 1
4 5 6 44.49 3.16 2
-5 -5 -6 -1.91 1.9 1
5 5 6 2.13 1.35 2
8 -6 -6 2.9 1.74 1
7 -6 -6 7.49 2.19 1
-7 6 6 11.86 3.12 3
-6 6 6 0.01 1.83 3
6 -6 -6 0.43 1.13 1
-5 6 6 6.38 2.36 3
5 -6 -6 2.34 1.25 1
4 -6 -6 3.29 1.27 1
-4 6 6 5.43 2.17 3
-3 6 6 7.93 2.35 3
3 -6 -6 13.74 1.73 1
2 -6 -6 43.84 2.71 1
-2 6 6 45.26 4.35 3
-1 6 6 18.87 3.16 3
1 -6 -6 20.45 2.02 1
0 6 6 19.87 3.14 3
0 -6 -6 21.49 2.27 1
-1 -6 -6 288.67 9.13 1
1 6 6 288.45 10.83 3
-2 -6 -6 21.56 2.96 1
2 6 6 25.23 3.4 3
-3 -6 -6 98.34 5.95 1
-4 -6 -6 80.7 5.98 1
8 -7 -6 3.61 1.85 1
-8 7 6 3.57 2.79 3
7 -7 -6 106.76 5.93 1
-7 7 6 103.14 7.32 3
6 -7 -6 0.47 1.29 1
-6 7 6 2.46 2.3 3
5 -7 -6 59.87 3.72 1
-5 7 6 68.69 5.85 3
4 -7 -6 1.52 1.07 1
-4 7 6 1.13 1.96 3
-3 7 6 9.97 2.78 3
2 -7 -6 75.14 3.63 1
-2 7 6 93.34 6.4 3
1 -7 -6 2.71 1.21 1
-1 7 6 1.25 1.57 3
0 7 6 6.84 2.36 3
0 -7 -6 6.28 1.63 1
-1 -7 -6 5.24 1.84 1
1 7 6 9.45 2.77 3
2 7 6 12.15 3.1 3
-2 -7 -6 7.85 2.32 1
-3 -7 -6 15.18 3.04 1
6 -8 -6 -0.36 1.24 1
-6 8 6 0.17 2.21 3
-5 8 6 71.54 6.69 3
5 -8 -6 69.45 4.1 1
4 -8 -6 2.64 1.25 1
-4 8 6 3.03 2.33 3
3 -8 -6 179.27 5.89 1
-3 8 6 173.05 9.6 3
2 -8 -6 4.43 1.39 1
-2 8 6 4.33 2.34 3
-1 8 6 59.18 5.85 3
1 -8 -6 64.57 3.6 1
0 -8 -6 168.53 6.48 1
0 8 6 163.11 9.17 3
-1 -8 -6 62.89 4.36 1
1 8 6 69.29 5.91 3
-4 9 6 17.02 4.21 3
-3 9 6 98 7.83 3
-2 9 6 67.13 6.78 3
-1 9 6 25.15 4.59 3
0 -9 7 1.9 1.96 1
0 9 -7 5.91 3.13 3
-1 9 -7 -0.15 2.27 3
1 -9 7 0.4 1.59 1
-2 9 -7 12.95 4.05 3
2 -9 7 11.65 2.43 1
-3 -8 7 24.85 3.7 1
-2 -8 7 209.15 8.46 1
2 8 -7 221.72 10.83 3
-1 -8 7 36.36 3.56 1
1 8 -7 32.39 4.76 3
0 -8 7 213.31 8.04 1
0 8 -7 217.03 11.03 3
1 -8 7 -0.85 1.5 1
-1 8 -7 2.87 2.5 3
2 -8 7 123.51 5.96 1
-2 8 -7 137.76 8.81 3
3 -8 7 59.4 4.33 1
-3 8 -7 52.8 6.11 3
4 -8 7 86.43 5.5 1
-4 8 -7 93.11 7.53 3
-5 -7 7 4.52 2.56 1
-4 -7 7 1.09 2 1
-3 -7 7 76.12 5.21 1
-2 -7 7 22.48 3.13 1
2 7 -7 20.89 3.65 3
1 7 -7 140.33 8.09 3
-1 -7 7 145.87 6.32 1
0 7 -7 5.79 2.48 3
0 -7 7 7.45 1.8 1
1 -7 7 130.37 5.81 1
-1 7 -7 124.19 7.72 3
-2 7 -7 175.12 9.32 3
2 -7 7 171.99 6.91 1
-3 7 -7 116.95 7.84 3
3 -7 7 103.1 5.55 1
4 -7 7 160.13 7.39 1
-4 7 -7 174.96 9.64 3
5 -7 7 27.53 3.69 1
6 6 -7 117.19 5.29 2
-5 -6 7 61.95 5.54 1
5 6 -7 73.01 3.71 2
-4 -6 7 93.98 5.78 1
4 6 -7 86.87 3.57 2
3 6 -7 5.87 0.93 2
-3 -6 7 8.17 2.21 1
-2 -6 7 310.43 9.95 1
-1 -6 7 30.04 3.02 1
1 6 -7 28.39 3.72 3
0 -6 7 157.17 6.26 1
0 6 -7 162 8.19 3
1 -6 7 153.78 6.23 1
-1 6 -7 155.11 8.12 3
2 -6 7 7.89 1.93 1
-2 6 -7 12.2 3.01 3
3 -6 7 279.96 9.37 1
-3 6 -7 265.78 11.31 3
4 -6 7 5.85 1.98 1
-4 6 -7 9.73 1.43 2
5 -6 7 18.25 3.18 1
-5 6 -7 20.94 2.26 2
-6 6 -7 20.18 2.58 2
6 -6 7 23.75 3.68 1
-7 -5 7 1.94 2.5 1
7 5 -7 0.43 1.42 2
6 5 -7 -0.08 1.31 2
-6 -5 7 -0.24 1.93 1
5 5 -7 17.86 2.39 2
-5 -5 7 17 3.23 1
-4 -5 7 50.41 4.3 1
4 5 -7 49.53 3.27 2
-3 -5 7 250.77 8.85 1
3 5 -7 264.02 7.48 2
-2 -5 7 118.19 5.49 1
2 5 -7 118.76 4.21 2
-1 -5 7 220 7.53 1
1 5 -7 221.24 5.96 2
0 5 -7 243.32 6.04 2
0 -5 7 233.23 7.69 1
0 5 -7 222.65 9.18 3
-1 5 -7 7.1 2.13 3
1 -5 7 3.97 1.56 1
-1 5 -7 6.47 1.12 2
2 -5 7 439.25 12.06 1
-2 5 -7 460.35 10.48 2
-2 5 -7 429.54 14.13 3
-3 5 -7 69.85 3.58 2
3 -5 7 80.59 4.59 1
4 -5 7 169.97 7.33 1
-4 5 -7 157.12 6.14 2
-5 5 -7 49.65 3.76 2
5 -5 7 54.04 4.65 1
-6 5 -7 -0.73 1.46 2
6 -5 7 3.32 1.9 1
-7 5 -7 64.05 5 2
7 -5 7 70.86 6.11 1
7 4 -7 51.19 4.52 2
-7 -4 7 56.46 5.72 1
-6 -4 7 308.08 11.73 1
6 4 -7 287.01 10.19 2
-5 -4 7 96.92 5.86 1
5 4 -7 95.64 5.12 2
4 4 -7 106.59 5.04 2
-4 -4 7 96.85 5.44 1
-3 -4 7 614 15.6 1
3 4 -7 634.65 14.8 2
-2 -4 7 127.65 5.55 1
2 4 -7 126.44 4.79 2
-1 -4 7 534.34 13.39 1
1 4 -7 554.94 12.49 2
0 -4 7 5.13 1.47 1
0 4 -7 5 1.22 2
-1 4 -7 309.97 8.37 2
1 -4 7 318.76 9.32 1
-2 4 -7 185.04 6.16 2
2 -4 7 170.81 6.57 1
3 -4 7 121.93 5.71 1
-3 4 -7 130.95 5.46 2
-4 4 -7 19.17 1.51 4
-4 4 -7 21.86 2.66 2
4 -4 7 24.4 2.99 1
-5 4 -7 34.41 3.53 2
5 -4 7 37.78 3.92 1
-5 4 -7 36 2.22 4
-6 4 -7 28.48 3.67 2
-6 4 -7 24.4 2.15 4
6 -4 7 25.01 3.64 1
-7 4 -7 3.69 1.35 4
-7 4 -7 5.96 2.54 2
7 -4 7 9.5 3 1
-8 -3 7 3.04 2.77 1
-8 -3 7 1.51 2.65 2
8 3 -7 4.27 2.07 2
7 3 -7 56.74 4.65 2
-7 -3 7 56.8 5.5 1
-7 -3 7 59.8 5.79 2
-6 -3 7 2.1 2.22 2
6 3 -7 4.62 1.59 2
-6 -3 7 1.5 2.08 1
5 3 -7 92.57 5.11 2
-5 -3 7 92.74 5.51 1
-5 -3 7 90.43 5.62 2
4 3 -7 78.41 4.37 2
-4 -3 7 96.59 5.17 2
-4 -3 7 79.69 4.8 1
-3 -3 7 192.96 7.19 1
3 3 -7 197.17 6.91 2
3 3 -7 221.38 7.03 1
2 3 -7 200.3 6.66 2
-2 -3 7 188.17 6.82 1
2 3 -7 213.71 6.62 1
-1 -3 7 85.87 4.09 1
1 3 -7 79.64 3.77 2
0 -3 7 1.96 1.08 1
0 3 -7 1.86 0.97 2
-1 3 -7 255.1 7.28 1
-1 3 -7 235.66 5.9 4
1 -3 7 231.51 7.52 1
-1 3 -7 221.76 7.04 2
2 -3 7 26.81 2.65 1
-2 3 -7 27.32 2.55 2
-2 3 -7 25.57 1.91 4
-2 3 -7 30.42 2.63 1
-3 3 -7 280.52 7.51 4
3 -3 7 287 9.31 2
3 -3 7 287.74 9.21 1
-3 3 -7 274.21 8.88 2
4 -3 7 39.94 3.63 2
-4 3 -7 34.68 3.4 2
4 -3 7 45.01 3.86 1
-4 3 -7 35.75 2.65 4
-5 3 -7 21.12 3 2
-5 3 -7 23.96 2.58 4
5 -3 7 34.38 3.71 2
5 -3 7 28.93 3.49 1
6 -3 7 147.25 7.7 1
6 -3 7 153.84 7.86 2
-6 3 -7 130.87 7.15 2
-6 3 -7 141.94 6.14 4
-7 3 -7 10.71 2.35 4
-7 3 -7 9.35 2.68 2
7 -3 7 12.3 3.09 2
7 -3 7 14.65 3.46 1
-8 -2 7 3.04 2.52 4
8 2 -7 3.89 1.86 2
-8 -2 7 4.63 2.7 1
-8 -2 7 1.15 2.29 2
7 2 -7 281.14 10.64 2
-7 -2 7 262.05 10.94 1
-7 -2 7 283.85 11.46 2
-7 -2 7 273.76 10.31 4
-6 -2 7 2.85 1.98 2
6 2 -7 1.99 1.38 2
-6 -2 7 4.68 2.08 1
-6 -2 7 4.19 1.89 4
6 2 -7 4.86 1.84 1
5 2 -7 235.49 8.33 1
-5 -2 7 230.03 8.8 2
5 2 -7 223.86 8.27 2
-5 -2 7 222.66 8.03 4
-5 -2 7 204.88 8.32 1
4 2 -7 205.8 7.2 1
-4 -2 7 197.35 7.4 1
-4 -2 7 197.14 7.57 2
4 2 -7 183.35 7.02 2
-4 -2 7 211.89 7.12 4
3 2 -7 641.5 14.64 1
-3 -2 7 598.17 14.94 1
-3 -2 7 635.8 14.29 4
3 2 -7 612.93 14.8 2
2 2 -7 188.49 6.39 2
-2 -2 7 185.96 6.48 1
2 2 -7 196.41 6.36 1
-1 -2 7 134.61 5.25 1
1 2 -7 137.9 4.51 4
1 2 -7 143.87 5.18 1
1 2 -7 154.38 5.32 2
0 2 -7 477.73 11.61 2
0 2 -7 469.13 10.48 4
0 -2 7 473.05 11.8 1
0 2 -7 475.85 11.47 1
-1 2 -7 2.66 1.06 2
-1 2 -7 2.41 1.11 1
-1 2 -7 1.82 0.93 4
1 -2 7 2.79 1.2 1
-2 2 -7 363.65 9.24 4
2 -2 7 367.57 9.64 4
2 -2 7 375.19 10.65 2
-2 2 -7 360.06 10.11 1
-2 2 -7 371.87 10.4 2
2 -2 7 360.61 10.35 1
3 -2 7 -0.37 0.87 4
-3 2 -7 0.7 1.08 2
-3 2 -7 -0.31 1.2 1
3 -2 7 0.02 0.8 2
-3 2 -7 -0.17 0.9 4
3 -2 7 -0.19 0.98 1
4 -2 7 1.09 1.24 2
4 -2 7 3.71 1.55 4
-4 2 -7 2.61 1.52 2
-4 2 -7 1.69 1.31 4
-4 2 -7 3.42 1.75 1
4 -2 7 0.97 1.29 1
5 -2 7 38.14 3.6 4
-5 2 -7 29.17 3.02 4
5 -2 7 30.14 3.54 1
-5 2 -7 22.33 3.23 2
-5 2 -7 30.45 3.6 1
5 -2 7 29.9 3.5 2
-6 2 -7 1.99 1.61 4
-6 2 -7 -0.19 1.45 2
6 -2 7 0.48 1.37 4
6 -2 7 -1.98 1.13 1
-7 2 -7 6.43 2.14 4
7 -2 7 11.61 2.99 2
-7 2 -7 6.91 2.66 2
7 -2 7 9.79 2.76 4
7 -2 7 15.34 3.39 1
-9 -1 7 12.31 3.26 4
9 1 -7 14.05 3.34 2
-9 -1 7 15.03 3.85 1
-9 -1 7 9.36 3.27 2
-8 -1 7 1.92 1.84 4
8 1 -7 4.8 2.15 1
8 1 -7 4.33 1.98 2
-8 -1 7 7.18 2.76 1
-8 -1 7 2.71 2.39 2
-7 -1 7 18.35 3.42 1
-7 -1 7 15.09 3 4
7 1 -7 17.75 2.98 1
7 1 -7 10.98 2.5 2
-7 -1 7 20.23 3.65 2
-6 -1 7 47.67 4.31 1
6 1 -7 42.5 3.78 1
6 1 -7 46.61 3.95 2
-6 -1 7 46.36 3.89 4
-6 -1 7 44.77 4.29 2
-5 -1 7 77.78 4.71 2
5 1 -7 68.46 4.3 1
5 1 -7 72.31 4.38 2
-5 -1 7 76.06 4.72 1
-5 -1 7 65.98 4.04 4
-4 -1 7 439.69 12 1
4 1 -7 424.32 11.8 2
-4 -1 7 435.4 11.21 4
-4 -1 7 447.05 12.18 2
4 1 -7 437.97 11.76 1
-3 -1 7 722.03 16.7 1
3 1 -7 722.92 16.63 2
-3 -1 7 726.44 15.75 4
3 1 -7 728.21 16.53 1
-3 -1 7 744.54 16.94 2
-2 -1 7 645.14 15.16 1
2 1 -7 660.4 15.2 2
-2 -1 7 690.54 14.43 4
2 1 -7 654.67 15.02 1
2 1 -7 673.51 14.15 4
1 1 -7 796.07 17.67 2
-1 -1 7 814.09 17.67 1
1 1 -7 817.93 16.59 4
-1 -1 7 824.04 16.72 4
1 1 -7 825.55 17.61 1
0 1 -7 66.58 3.19 4
0 -1 7 68.5 3.6 1
0 1 -7 68.45 3.49 1
0 1 -7 66.05 3.49 2
0 -1 7 68.31 3.27 4
1 -1 7 1204.34 24.63 1
-1 1 -7 1205.62 24.63 1
-1 1 -7 1168.49 24.62 2
1 -1 7 1214.1 23.52 4
1 -1 7 1199.19 24.79 2
-1 1 -7 1205.48 23.42 4
2 -1 7 277.8 8.02 4
-2 1 -7 269.62 7.9 4
-2 1 -7 279.28 8.69 2
-2 1 -7 287.54 8.72 1
2 -1 7 280.16 8.57 1
2 -1 7 269.78 8.63 2
-3 1 -7 575.39 13.83 4
3 -1 7 563.79 14.8 2
-3 1 -7 575.81 15.03 2
-3 1 -7 596.12 14.93 1
3 -1 7 566.83 14.76 1
3 -1 7 569.58 13.75 4
4 -1 7 80.28 4.98 2
-4 1 -7 88.21 5.21 2
-4 1 -7 95.81 5.32 1
4 -1 7 96.09 4.9 4
4 -1 7 82.63 5.06 1
-4 1 -7 84.71 4.66 4
-5 1 -7 25.79 3.45 1
-5 1 -7 21.45 2.99 4
5 -1 7 29.5 3.49 1
-5 1 -7 18.12 3.08 2
5 -1 7 25.39 3.29 2
5 -1 7 20.77 2.81 4
-6 1 -7 68.91 5.47 2
6 -1 7 85.68 5.43 4
6 -1 7 87.14 5.8 2
6 -1 7 84.21 5.87 1
-6 1 -7 83.13 6 1
-6 1 -7 70.02 5.08 4
-7 1 -7 1 2.29 1
7 -1 7 0.84 1.83 1
7 -1 7 0.1 1.37 4
-7 1 -7 2.32 2 4
-7 1 -7 -0.37 1.9 2
7 -1 7 -0.21 1.22 2
9 0 -7 95.75 6.9 1
-9 0 7 90.29 6.17 4
9 0 -7 89.98 6.77 2
-9 0 7 86.54 6.84 2
-9 0 7 87.38 6.92 1
-8 0 7 24.3 4.02 2
-8 0 7 24.44 3.57 4
8 0 -7 25.4 3.7 1
8 0 -7 27.72 3.87 2
-8 0 7 23.95 4.05 1
-7 0 7 249.27 9.21 4
7 0 -7 237.47 9.78 2
-7 0 7 246.64 9.99 2
7 0 -7 247.54 9.78 1
-7 0 7 263.41 10.19 1
-6 0 7 54.45 4.17 1
-6 0 7 47 4.14 2
-6 0 7 50.99 3.71 4
6 0 -7 47.77 3.86 2
6 0 -7 51.19 4.02 1
5 0 -7 41.02 3.26 2
-5 0 7 45.83 3.62 1
5 0 -7 39.99 3.24 1
-5 0 7 39.28 3.07 4
-5 0 7 36.94 3.44 2
-4 0 7 734.82 16.29 4
-4 0 7 734.1 17.18 1
-4 0 7 774.09 17.78 2
4 0 -7 729.91 17.39 2
4 0 -7 742.77 17.31 1
3 0 -7 95.98 4.37 1
3 0 -7 102.81 4.55 2
-3 0 7 101.32 4.15 4
-3 0 7 97.6 4.49 2
3 0 -7 102.09 4.2 4
-3 0 7 107.38 4.68 1
2 0 -7 733.79 15.63 4
-2 0 7 741.99 15.55 4
-2 0 7 747.28 16.47 1
-2 0 7 773.61 16.76 2
2 0 -7 752.99 16.7 2
-1 0 7 149.42 4.93 4
1 0 -7 152.06 5.44 1
-1 0 7 159.44 5.55 1
1 0 -7 157.11 5.11 4
-1 0 7 155.54 5.49 2
0 0 -7 697.21 15.58 1
0 0 7 704.32 15.75 2
0 0 7 685.22 15.45 1
0 0 7 687.02 14.66 4
0 0 -7 696.87 14.85 4
1 0 7 406.36 10.74 1
-1 0 -7 415.13 10.33 4
1 0 7 409.63 10.98 2
1 0 7 431.89 10.25 4
-1 0 -7 417.29 11.02 2
-1 0 -7 428.54 11.07 1
-2 0 -7 289.64 8.91 1
2 0 7 279.47 8.71 1
2 0 7 284.17 8.08 4
2 0 7 279.25 8.75 2
-2 0 -7 282.96 8.36 4
-2 0 -7 290.96 8.99 2
3 0 7 11.09 2 2
-3 0 -7 8.24 1.89 1
3 0 7 11.25 2.08 1
3 0 7 12.99 1.88 4
-3 0 -7 8.83 1.93 4
-3 0 -7 9.6 2.08 2
-4 0 -7 -1.22 1.28 4
-4 0 -7 -0.22 1.36 1
-4 0 -7 -0.02 1.14 2
4 0 7 0.34 1.01 4
4 0 7 0.9 1.3 1
4 0 7 0.74 1.07 2
-5 0 -7 2.53 1.92 2
-5 0 -7 3.68 1.9 4
5 0 7 2.98 1.34 4
-5 0 -7 4.81 2.11 1
5 0 7 3.3 1.7 1
6 0 7 27.5 3.71 1
-6 0 -7 23.08 3.82 2
-6 0 -7 30.7 4.24 1
6 0 7 35.91 4.04 2
-6 0 -7 26.1 3.84 4
6 0 7 29.25 3.28 4
-7 0 -7 20.4 4.09 2
7 0 7 19.56 3.62 2
7 0 7 22.65 3.22 4
-7 0 -7 17.58 3.78 1
7 0 7 18.2 3.61 1
-7 0 -7 21.98 3.78 4
9 -1 -7 7.46 2.82 1
9 -1 -7 2.61 1.91 2
-9 1 7 1.78 2.11 2
-9 1 7 3.07 1.92 4
-8 1 7 25.93 3.85 2
-8 1 7 26.36 4.07 1
8 -1 -7 37.09 4.27 2
-8 1 7 23.71 3.32 4
8 -1 -7 38.89 4.31 1
7 -1 -7 46.6 4.32 2
-7 1 7 44.8 3.8 4
-7 1 7 50.14 4.51 2
7 -1 -7 46.69 4.34 1
-7 1 7 57.53 4.62 1
-6 1 7 4.24 1.92 1
-6 1 7 5.29 1.71 4
-6 1 7 4.47 1.73 2
6 -1 -7 5.18 1.73 1
6 -1 -7 2.77 1.47 2
-5 1 7 641.14 14.96 4
-5 1 7 683.66 16.31 1
-5 1 7 654.02 16.47 2
5 -1 -7 664.05 16.45 2
5 -1 -7 645.82 16.21 1
4 -1 -7 44.79 3.18 2
4 -1 -7 51.26 3.16 4
4 -1 -7 46.9 3.27 1
-4 1 7 57.25 3.59 1
-4 1 7 42.09 3.09 2
-4 1 7 53.34 3.01 4
3 -1 -7 1860.48 36.06 1
-3 1 7 1845.01 35.92 1
-3 1 7 1912.21 36.38 2
3 -1 -7 1919.92 34.8 4
-3 1 7 1839.6 34.22 4
-2 1 7 135.22 4.4 4
-2 1 7 133.78 5 1
-2 1 7 135.76 5 2
-1 1 7 336.59 8.9 1
1 -1 -7 333.25 9.04 1
-1 1 7 343.43 8.17 4
-1 1 7 340.56 8.93 2
0 1 7 1026.3 21.02 1
0 1 7 1023.99 21.2 2
0 -1 -7 1023.78 21.36 1
0 1 7 1009.54 19.78 4
1 1 7 20.78 2.18 1
-1 -1 -7 18.44 2.16 4
1 1 7 18.34 1.8 4
1 1 7 18.62 2.04 2
-1 -1 -7 19.26 2.22 1
-2 -1 -7 783.74 17.09 4
2 1 7 763.94 16.23 4
2 1 7 707.1 17.27 2
-2 -1 -7 721.26 17.61 1
-2 -1 -7 786.59 18.03 2
2 1 7 774.94 17.55 1
3 1 7 3.05 1.27 2
-3 -1 -7 2.46 1.46 1
-3 -1 -7 0.94 1.36 4
-3 -1 -7 0.25 1.27 2
3 1 7 2.5 1.07 4
3 1 7 0.45 1.04 1
-4 -1 -7 86.58 5.4 1
4 1 7 89.41 4.54 4
-4 -1 -7 90.63 5.6 2
4 1 7 85.04 5.06 1
-4 -1 -7 85.05 5.09 4
5 1 7 35.63 3.28 4
-5 -1 -7 33.28 3.98 1
5 1 7 32.89 3.6 2
-5 -1 -7 31.63 4.16 2
5 1 7 32.81 3.65 1
-5 -1 -7 39.99 4.2 4
6 1 7 4.29 1.76 4
6 1 7 4.7 2.03 2
-6 -1 -7 10.29 2.87 2
-6 -1 -7 1.12 2.21 4
-6 -1 -7 2.3 2.24 1
-7 -1 -7 34.7 4.91 1
7 1 7 34.68 4.34 2
-7 -1 -7 26.7 4.63 2
7 1 7 31.78 3.62 4
9 -2 -7 8.5 2.72 1
9 -2 -7 4.63 2.26 2
-9 2 7 6.49 2.18 4
-9 2 7 6.84 2.63 2
8 -2 -7 319.83 11.95 2
-8 2 7 284.99 11.08 2
-8 2 7 295.63 9.61 4
8 -2 -7 289.48 11.34 1
7 -2 -7 10.54 2.47 2
-7 2 7 4.84 1.85 2
-7 2 7 4.14 1.57 4
7 -2 -7 6.5 2.05 1
-6 2 7 259.42 9.17 2
6 -2 -7 268.5 9.53 2
-6 2 7 250.93 7.75 4
6 -2 -7 261.85 9.33 1
-6 2 7 263.94 8.72 3
-5 2 7 122.68 5.48 2
5 -2 -7 124.58 5.73 1
-5 2 7 133 5.7 1
5 -2 -7 131.7 5.88 2
-5 2 7 133 5.86 3
-5 2 7 127.69 4.78 4
-4 2 7 648.46 15.38 2
-4 2 7 664.85 13.94 4
4 -2 -7 664.64 15.73 1
-4 2 7 691.95 16.74 3
-3 2 7 52.92 3.17 1
3 -2 -7 47.87 3 1
-3 2 7 51.25 2.49 4
-3 2 7 52.93 3.07 2
2 -2 -7 70.94 3.45 1
-2 2 7 68.27 3.36 2
-2 2 7 72.27 2.74 4
-1 2 7 206.86 5.22 4
-1 2 7 197.27 6.12 2
1 -2 -7 202.98 6.48 1
0 2 7 10.18 1.49 2
0 -2 -7 5.01 1.3 1
0 2 7 8.61 1.11 4
0 2 7 12.3 1.57 1
-1 -2 -7 44.06 3.13 1
1 2 7 41.71 2.79 2
1 2 7 44.95 2.96 1
1 2 7 41.93 2.32 4
2 2 7 3.7 1.27 2
-2 -2 -7 5.41 1.62 1
-2 -2 -7 5.67 1.85 2
-2 -2 -7 4.28 1.7 4
2 2 7 1.91 0.93 4
2 2 7 2.14 1.16 1
-3 -2 -7 95.36 5.32 1
-3 -2 -7 100.8 5.35 4
3 2 7 93.3 4.98 1
3 2 7 96.87 4.18 4
-3 -2 -7 104.99 5.69 2
-4 -2 -7 16.35 3.13 2
-4 -2 -7 16.53 2.93 4
4 2 7 12.17 2.24 2
4 2 7 13.82 1.95 4
-4 -2 -7 16.21 2.93 1
5 2 7 27.35 3.33 2
-5 -2 -7 30.05 4.3 2
-5 -2 -7 22.94 3.6 1
5 2 7 30.21 2.84 4
-5 -2 -7 24.83 3.79 4
-6 -2 -7 26.43 4.25 1
-6 -2 -7 16.61 3.81 2
6 2 7 15.27 2.96 2
6 2 7 19.05 2.58 4
-6 -2 -7 21.23 3.93 4
-9 3 7 87.76 4.49 4
9 -3 -7 78.11 6.1 1
-9 3 7 67.47 5.52 2
8 -3 -7 72.25 5.3 1
-8 3 7 71.87 5.24 2
-8 3 7 71.85 3.8 4
7 -3 -7 172.64 7.82 1
-7 3 7 179.27 5.83 4
-7 3 7 173.58 7.47 2
-6 3 7 0.59 1.51 3
-6 3 7 -0.11 1.2 2
-6 3 7 0.4 0.82 4
6 -3 -7 1.18 1.22 1
-5 3 7 344.27 10.87 3
-5 3 7 346.08 7.7 4
5 -3 -7 339.33 10.23 1
-5 3 7 325.19 9.57 2
-4 3 7 139.63 6.31 3
4 -3 -7 137.99 5.58 1
-4 3 7 136.98 5.15 2
-4 3 7 149.26 3.65 4
-4 3 7 139.45 3.6 4
-3 3 7 427.03 10.13 2
-3 3 7 420.7 12.29 3
3 -3 -7 405.46 10.59 1
-2 3 7 17.14 2.33 3
-2 3 7 16.77 1.66 2
-1 3 7 46.71 3.47 3
-1 3 7 46.47 2.58 2
1 -3 -7 48.21 2.92 1
0 -3 -7 13.09 1.79 1
0 3 7 14.51 1.64 2
0 3 7 12.91 2.09 3
1 3 7 307.55 8.53 2
1 3 7 306.62 6.4 4
-1 -3 -7 303.06 9.23 1
1 3 7 312.47 9.88 3
1 3 7 310.69 6.43 4
2 3 7 7.87 1.86 3
2 3 7 5.26 0.97 4
-2 -3 -7 4.7 1.54 1
3 3 7 116.04 3.95 4
-3 -3 -7 108.23 5.82 1
3 3 7 101.59 5.07 2
3 3 7 117.61 5.51 3
4 3 7 11.41 1.6 4
-4 -3 -7 10.49 2.65 1
4 3 7 15.29 2.41 2
5 3 7 40.11 3.85 2
-5 -3 -7 50.23 5.04 1
5 3 7 41.43 2.76 4
6 3 7 30.86 2.65 4
6 3 7 26.98 3.63 2
-6 -3 -7 38.78 5.08 1
9 -4 -7 52.05 5.18 1
-9 4 7 48.92 4.63 2
-8 4 7 50.96 4.15 2
8 -4 -7 45.39 4.51 1
-7 4 7 56.98 4.64 3
-7 4 7 53.73 3.89 2
7 -4 -7 49.04 4.23 1
-6 4 7 1.54 1.32 2
-6 4 7 3.06 1.73 3
6 -4 -7 4.54 1.65 1
-5 4 7 291.06 10.35 3
-5 4 7 296.25 8.21 2
5 -4 -7 274.66 9.04 1
-4 4 7 8.57 2.18 3
4 -4 -7 5.38 1.33 1
-4 4 7 5.62 1.19 2
-3 4 7 34.11 1.98 2
3 -4 -7 38.4 2.68 1
-3 4 7 32.01 3.38 3
-2 4 7 76.35 2.79 2
-2 4 7 72.97 4.67 3
1 -4 -7 12.71 1.73 1
-1 4 7 12.71 1.24 2
-1 4 7 10.22 2.13 3
0 -4 -7 43.34 3 1
0 4 7 44.96 3.71 3
-1 -4 -7 -0.14 0.91 1
1 4 7 -0.63 0.68 2
1 4 7 -0.24 0.92 3
2 4 7 28.24 2.42 2
-2 -4 -7 25.17 2.95 1
2 4 7 30.47 3.18 3
-3 -4 -7 23.58 3.21 1
3 4 7 29.84 3.19 3
3 4 7 26.28 2.58 2
-4 -4 -7 22.1 3.44 1
4 4 7 19.49 2.64 2
-5 -4 -7 7.43 2.83 1
5 4 7 11.11 2.32 2
9 -5 -7 66.27 5.77 1
-9 5 7 59.85 4.45 2
-8 5 7 19.76 2.75 2
8 -5 -7 29.66 3.77 1
-7 5 7 16.97 3.36 3
-7 5 7 25.21 2.53 2
7 -5 -7 22.15 3.09 1
-6 5 7 255.87 10.19 3
6 -5 -7 240.39 8.81 1
-6 5 7 244.05 6.94 2
-5 5 7 32.2 1.9 2
5 -5 -7 34.25 3 1
-5 5 7 35.74 3.96 3
4 -5 -7 687.73 16.04 1
-4 5 7 684.43 19.09 3
3 -5 -7 100.03 4.39 1
-3 5 7 98.71 5.95 3
2 -5 -7 154.97 5.56 1
-2 5 7 149.55 7.32 3
1 -5 -7 402.86 10.52 1
-1 5 7 390.79 12.88 3
0 -5 -7 9.05 1.7 1
0 5 7 11.42 2.38 3
-1 -5 -7 388.93 11.31 1
1 5 7 398.95 12.92 3
1 5 7 402.1 8.5 2
2 5 7 4.95 1.13 2
-2 -5 -7 3.19 1.65 1
2 5 7 2.7 1.61 3
3 5 7 99.89 4.36 2
-3 -5 -7 90.5 5.85 1
4 5 7 2.13 1.4 2
-4 -5 -7 1.49 2.2 1
5 5 7 4.11 1.67 2
-5 -5 -7 4.78 2.46 1
8 -6 -7 0.22 1.44 1
-8 6 7 2.25 2.5 3
7 -6 -7 11.28 2.5 1
-7 6 7 15.13 3.36 3
6 -6 -7 71.42 4.57 1
-6 6 7 65.45 5.52 3
-5 6 7 71.36 5.62 3
5 -6 -7 70.83 4.19 1
-4 6 7 9.94 2.57 3
4 -6 -7 13.73 1.94 1
3 -6 -7 2.28 1.11 1
-3 6 7 0.29 1.29 3
-2 6 7 90.92 5.95 3
2 -6 -7 94.52 4.32 1
-1 6 7 0.92 1.45 3
1 -6 -7 -0.56 0.9 1
0 -6 -7 30.51 2.85 1
0 6 7 23.77 3.42 3
-1 -6 -7 8.89 2.11 1
1 6 7 11.02 2.65 3
2 6 7 6.86 2.4 3
-2 -6 -7 5.09 2.04 1
-3 -6 -7 13.5 2.92 1
-4 -6 -7 3 2.41 1
7 -7 -7 72.85 5.07 1
-7 7 7 67.43 6.38 3
6 -7 -7 38.81 3.57 1
-6 7 7 32.98 4.71 3
-5 7 7 383.82 14.64 3
5 -7 -7 376.68 10.99 1
-4 7 7 17.61 3.65 3
4 -7 -7 27.16 2.59 1
3 -7 -7 243.17 7.6 1
-3 7 7 245.8 11.08 3
2 -7 -7 31.64 2.67 1
-2 7 7 31.53 4.28 3
1 -7 -7 124.13 5.25 1
-1 7 7 111.04 7.19 3
0 -7 -7 109.83 5.23 1
0 7 7 104.14 6.87 3
-1 -7 -7 40.17 3.69 1
1 7 7 42.46 4.7 3
2 7 7 45.51 4.82 3
-2 -7 -7 42.23 4.17 1
6 -8 -7 82.61 4.97 1
-6 8 7 90.94 7.38 3
5 -8 -7 13 2.16 1
-5 8 7 3.58 2.49 3
-4 8 7 -1.27 1.61 3
-3 8 7 4.2 2.49 3
3 -8 -7 3.74 1.5 1
-2 8 7 0.04 1.7 3
2 -8 -7 -0.48 1.19 1
1 -8 -7 5.23 1.68 1
-1 8 7 7.17 2.67 3
0 8 7 11.81 3.31 3
0 -8 -7 6.42 1.95 1
-1 -8 -7 46.71 4.17 1
1 8 7 48.74 5.36 3
-3 9 7 6.19 2.99 3
2 -9 -7 3.02 1.64 1
-2 9 7 2 2.31 3
-3 -8 8 82.48 5.79 1
-2 -8 8 1.6 1.95 1
-1 -8 8 226.2 8.84 1
0 -8 8 2.65 1.87 1
0 8 -8 2.81 2.32 3
-1 8 -8 82.54 7.42 3
1 -8 8 98.19 5.58 1
-2 8 -8 105.52 7.9 3
2 -8 8 97.97 5.59 1
3 -8 8 151.19 7.21 1
4 -8 8 100.2 6.11 1
-4 -7 8 1.6 2.03 1
-3 -7 8 11.5 2.78 1
-2 -7 8 41.89 3.99 1
-1 -7 8 14.4 2.66 1
0 7 -8 18.42 3.69 3
0 -7 8 18.17 2.79 1
-1 7 -8 16.24 3.65 3
1 -7 8 11.09 2.36 1
-2 7 -8 30.95 4.73 3
2 -7 8 37.16 3.64 1
3 -7 8 5.54 1.99 1
4 -7 8 17.39 3.1 1
5 -7 8 69.15 5.54 1
-6 -6 8 7.67 2.91 1
6 6 -8 10.7 2.17 2
-5 -6 8 47.88 5.05 1
5 6 -8 49.4 3.28 2
4 6 -8 0.94 1.09 2
-4 -6 8 3.1 2.1 1
3 6 -8 80.23 3.19 2
-3 -6 8 79.67 5.25 1
2 6 -8 40.19 1.78 2
-2 -6 8 43.13 3.78 1
-1 -6 8 128.29 5.95 1
0 -6 8 9.04 2.02 1
1 -6 8 14.55 2.46 1
2 -6 8 199.34 7.84 1
-2 6 -8 205.89 4.94 2
-3 6 -8 22.51 1.89 2
3 -6 8 20 2.91 1
4 -6 8 76.64 5.28 1
-4 6 -8 77.15 3.76 2
-5 6 -8 99.87 4.78 2
5 -6 8 98.69 6.36 1
-6 6 -8 3.91 1.85 2
6 -6 8 6.33 2.46 1
-6 -5 8 2.27 2.36 1
6 5 -8 3.54 1.66 2
-5 -5 8 -0.57 1.79 1
5 5 -8 -1.18 0.98 2
-4 -5 8 12.7 2.6 1
4 5 -8 21.42 2.47 2
-3 -5 8 47.6 4.06 1
3 5 -8 51.52 3.18 2
2 5 -8 3.42 1.25 2
-2 -5 8 4.5 1.64 1
1 5 -8 93.76 3.88 2
-1 -5 8 98.02 4.97 1
0 5 -8 6.92 1.31 2
0 -5 8 6.18 1.67 1
-1 5 -8 236.71 6.82 2
1 -5 8 230.56 8.14 1
2 -5 8 -0.23 1.01 1
-2 5 -8 -0.13 0.94 2
-3 5 -8 24.24 2.46 2
3 -5 8 27.93 3.17 1
4 -5 8 190.71 8.32 1
-4 5 -8 191.68 7.21 2
5 -5 8 15.41 3.11 1
-5 5 -8 13.6 2.57 2
6 -5 8 162.15 8.46 1
-6 5 -8 127.32 6.76 2
-7 -4 8 26.83 4.54 1
7 4 -8 25.14 3.47 2
-6 -4 8 17.79 3.62 1
6 4 -8 21.2 3.02 2
5 4 -8 1.93 1.37 2
-5 -4 8 3.12 1.94 1
-4 -4 8 216.78 8.5 1
4 4 -8 197.07 7.45 2
3 4 -8 12.85 2.03 2
-3 -4 8 16.38 2.62 1
2 4 -8 665.04 15.39 2
-2 -4 8 671.3 16.35 1
1 4 -8 7.61 1.51 2
-1 -4 8 6.98 1.72 1
0 -4 8 319.54 9.72 1
0 4 -8 327.5 9.03 2
-1 4 -8 520.89 12.83 2
1 -4 8 531.59 13.75 1
-2 4 -8 558.53 13.83 2
2 -4 8 566.29 14.66 1
-3 4 -8 367.68 7.83 4
3 -4 8 357.19 11.23 1
-3 4 -8 349.7 10.47 2
4 -4 8 101.9 5.78 1
-4 4 -8 87.37 5.09 2
-4 4 -8 98.84 3.61 4
5 -4 8 255.92 10.21 1
-5 4 -8 214.84 8.91 2
-5 4 -8 240.81 6.69 4
-6 4 -8 0.64 1.79 2
-6 4 -8 1.09 1.18 4
6 -4 8 1.57 1.7 1
-7 4 -8 85.14 4.04 4
7 -4 8 88.66 6.81 1
-7 4 -8 80.77 6.05 2
8 3 -8 81.21 5.98 2
-8 -3 8 85.83 7.42 2
-8 -3 8 84.77 6.92 1
7 3 -8 11.19 2.6 2
-7 -3 8 12.24 3.41 2
-7 -3 8 16.1 3.63 1
-6 -3 8 72.72 5.5 1
-6 -3 8 66.18 5.35 2
6 3 -8 75.66 4.98 2
-5 -3 8 80.67 5.36 2
-5 -3 8 83.26 5.29 1
5 3 -8 72.04 4.56 2
-4 -3 8 1.34 1.38 1
4 3 -8 0.7 1.01 2
-4 -3 8 2.77 1.78 2
3 3 -8 16.18 2.16 2
-3 -3 8 18.17 2.56 1
-3 -3 8 21.69 2.84 2
3 3 -8 17.35 2.18 1
2 3 -8 328.56 9.36 2
2 3 -8 328.05 9.21 1
-2 -3 8 303.91 9.51 1
1 3 -8 391.05 10.07 1
-1 -3 8 362.29 10.45 1
1 3 -8 376.14 10.25 2
0 3 -8 563.73 12.02 4
0 3 -8 571.88 13.8 2
0 3 -8 597.55 13.81 1
0 -3 8 573.97 14.34 1
-1 3 -8 285.97 7.21 4
-1 3 -8 305.92 8.71 1
-1 3 -8 285.11 8.64 2
1 -3 8 266.32 8.81 1
-2 3 -8 202.4 6.16 4
-2 3 -8 213.49 7.3 1
2 -3 8 218.9 7.94 2
-2 3 -8 205.59 7.34 2
2 -3 8 208.5 7.61 1
3 -3 8 68.9 4.44 2
-3 3 -8 56.97 3.98 2
3 -3 8 61.16 4.12 1
-3 3 -8 54.46 3.13 4
4 -3 8 213.17 8.52 2
-4 3 -8 193.45 8.06 2
4 -3 8 191.61 8.19 1
-4 3 -8 193.17 6.66 4
5 -3 8 144.26 7.46 1
5 -3 8 137.84 7.34 2
-5 3 -8 148.32 5.97 4
-5 3 -8 141.59 7.13 2
-6 3 -8 59.28 4.14 4
6 -3 8 51.48 5 2
6 -3 8 47.9 4.91 1
-6 3 -8 50.03 4.93 2
7 -3 8 52.11 5.54 1
7 -3 8 51.17 5.27 2
-7 3 -8 55.94 5.67 2
-7 3 -8 51.98 4.13 4
8 2 -8 106.24 6.88 2
-8 -2 8 102.24 7.36 1
-8 -2 8 105.49 6.84 4
-8 -2 8 113.69 7.69 2
-7 -2 8 -0.85 1.76 1
-7 -2 8 1.13 2.09 4
-7 -2 8 -1.59 1.95 2
7 2 -8 0.23 1.35 2
-6 -2 8 142.11 7.39 1
-6 -2 8 172.33 7.44 4
6 2 -8 159.89 7.35 1
-6 -2 8 162.81 7.89 2
6 2 -8 156.22 7.32 2
5 2 -8 142.07 6.59 2
-5 -2 8 165.62 6.75 4
-5 -2 8 156.18 7.24 2
5 2 -8 159.98 6.82 1
-5 -2 8 138.85 6.8 1
4 2 -8 321.85 9.69 1
-4 -2 8 307.41 9.32 4
-4 -2 8 312.03 10.07 1
4 2 -8 284.58 9.5 2
3 2 -8 692.83 16.92 2
-3 -2 8 726.44 16.25 4
-3 -2 8 695.38 17.17 1
-3 -2 8 757.9 17.55 2
3 2 -8 716.82 16.78 1
-2 -2 8 517.85 12.52 4
-2 -2 8 531.26 13.5 2
2 2 -8 530.52 13.1 1
2 2 -8 534.73 13.3 2
-2 -2 8 524.19 13.4 1
-1 -2 8 511.44 13.06 1
1 2 -8 509.39 11.64 4
1 2 -8 526.57 12.84 1
1 2 -8 535.39 12.96 2
-1 -2 8 532.99 12.47 4
0 -2 8 2.35 1.33 1
0 2 -8 3.72 1.32 1
0 -2 8 2.71 1.17 4
0 2 -8 2.45 1.11 2
0 2 -8 4.11 1.15 4
1 -2 8 1411.75 29.63 1
1 -2 8 1467.04 29.94 2
-1 2 -8 1411.97 29.68 2
-1 2 -8 1459.03 29.38 1
-1 2 -8 1450.67 27.69 4
1 -2 8 1504.63 28.44 4
-2 2 -8 11.35 1.77 4
2 -2 8 10.69 2.03 1
-2 2 -8 8.82 1.88 2
2 -2 8 9.14 1.72 4
-2 2 -8 11 2.05 1
2 -2 8 8.16 1.91 2
3 -2 8 369.54 11.41 1
3 -2 8 383.51 10.56 4
-3 2 -8 380.19 11.33 1
-3 2 -8 352.27 11.18 2
3 -2 8 349.86 11.17 2
-3 2 -8 354.46 10.02 4
4 -2 8 147.33 6.44 4
-4 2 -8 140.23 6.72 1
-4 2 -8 131.4 6.67 2
-4 2 -8 143.28 6.08 4
4 -2 8 152.52 7.1 2
4 -2 8 145.49 6.97 1
-5 2 -8 40.88 4.29 2
5 -2 8 39.94 4.16 2
5 -2 8 46.27 4.39 1
-5 2 -8 35.85 4.03 1
5 -2 8 46.62 4.12 4
-5 2 -8 45.1 3.83 4
6 -2 8 111.07 6.85 1
-6 2 -8 91.88 5.54 4
6 -2 8 95.72 5.99 4
-6 2 -8 100.15 6.59 2
-7 2 -8 1.34 1.84 4
7 -2 8 5.51 2.28 4
7 -2 8 3.33 2.26 1
-7 2 -8 4.02 2.58 2
7 -2 8 6.19 2.42 2
-9 -1 8 17.17 3.59 4
9 1 -8 14.66 3.41 2
-9 -1 8 18.81 4.07 2
-9 -1 8 16.79 4.2 1
-8 -1 8 22.57 3.73 4
-8 -1 8 16.12 3.68 2
-8 -1 8 15.74 3.65 1
8 1 -8 17.14 3.33 2
8 1 -8 23.74 3.68 1
-7 -1 8 8.96 2.41 4
-7 -1 8 17.66 3.35 2
7 1 -8 10.34 2.52 2
-7 -1 8 7.14 2.65 1
7 1 -8 10.61 2.57 1
-6 -1 8 13.46 2.79 2
6 1 -8 14.5 2.62 1
-6 -1 8 17.64 2.76 4
-6 -1 8 9.52 2.52 1
6 1 -8 17.34 2.73 2
-5 -1 8 48.16 3.89 1
5 1 -8 53.26 3.87 2
-5 -1 8 55.08 4.06 2
-5 -1 8 53.17 3.74 4
5 1 -8 51.28 3.84 1
-4 -1 8 22.07 2.8 2
4 1 -8 17.25 2.29 1
-4 -1 8 18.26 2.34 4
4 1 -8 12.75 2.03 2
-4 -1 8 15.3 2.46 1
3 1 -8 35.83 2.75 1
-3 -1 8 38.66 3.13 2
-3 -1 8 37.06 3.15 1
-3 -1 8 39.67 2.78 4
3 1 -8 34.35 2.9 2
-2 -1 8 497.94 11.7 4
-2 -1 8 479.05 12.42 1
2 1 -8 493.64 12.58 2
2 1 -8 490.53 11.49 4
2 1 -8 491.33 12.41 1
-2 -1 8 497.95 12.74 2
1 1 -8 65.72 3.38 4
-1 -1 8 64.95 3.79 1
1 1 -8 58.75 3.48 2
-1 -1 8 69.58 3.83 2
-1 -1 8 67.58 3.38 4
1 1 -8 64.83 3.61 1
0 -1 8 1042.7 22.39 1
0 1 -8 1042.62 22.28 1
0 -1 8 1075.8 21.37 4
0 -1 8 1058.24 22.54 2
0 1 -8 1065.63 21.14 4
0 1 -8 1035.67 22.43 2
-1 1 -8 53.64 3.15 4
-1 1 -8 58.19 3.54 2
-1 1 -8 57.38 3.59 1
1 -1 8 52.78 3.52 1
1 -1 8 54.97 3.24 4
1 -1 8 53.9 3.49 2
-2 1 -8 88.74 4.37 4
-2 1 -8 81.09 4.52 2
2 -1 8 89.77 4.35 4
-2 1 -8 88.26 4.71 1
2 -1 8 81.27 4.47 1
2 -1 8 75.08 4.44 2
3 -1 8 383.85 11.63 2
-3 1 -8 367.25 11.61 2
3 -1 8 374.01 11.46 1
3 -1 8 391.06 10.84 4
-3 1 -8 381.21 10.75 4
-3 1 -8 380.86 11.54 1
-4 1 -8 0.73 1.4 4
4 -1 8 0.15 1.19 2
-4 1 -8 0.66 1.39 2
4 -1 8 -1.16 0.74 4
-4 1 -8 0.37 1.43 1
4 -1 8 0.07 1.15 1
5 -1 8 299.06 10 4
-5 1 -8 285.22 10.09 4
-5 1 -8 298.27 11 1
5 -1 8 303.91 11.15 1
5 -1 8 269.49 10.67 2
-5 1 -8 276.22 11.16 2
6 -1 8 1.95 1.65 2
6 -1 8 0.98 1.74 1
-6 1 -8 3.21 1.99 4
6 -1 8 1.42 1.5 4
-6 1 -8 2.08 2 2
-6 1 -8 1.22 2.24 1
-7 1 -8 27.73 4.61 2
7 -1 8 34.4 4.65 1
7 -1 8 37.89 4.69 2
7 -1 8 39.61 4.18 4
9 0 -8 16.67 3.56 2
-9 0 8 28.78 4.75 1
-9 0 8 17.31 3.42 4
-9 0 8 23.4 4.31 2
9 0 -8 20.19 3.9 1
8 0 -8 175.66 8.74 2
-8 0 8 155.93 7.67 4
8 0 -8 167.39 8.54 1
-8 0 8 175.73 8.87 1
-8 0 8 167.31 8.8 2
-7 0 8 33.19 4.07 2
-7 0 8 28.21 3.47 4
-7 0 8 36.63 4.23 1
7 0 -8 36.07 3.92 1
7 0 -8 35.66 3.88 2
6 0 -8 82.39 5.04 2
-6 0 8 80.95 4.74 4
-6 0 8 74.62 5.03 2
6 0 -8 76.59 4.99 1
-6 0 8 77.1 5.15 1
-5 0 8 176.44 6.62 4
-5 0 8 171.85 7.36 2
5 0 -8 197.75 7.6 1
-5 0 8 184.42 7.37 1
5 0 -8 174.62 7.27 2
-4 0 8 31.37 3.06 2
-4 0 8 24.74 2.83 1
-4 0 8 30.65 2.68 4
4 0 -8 25.79 2.68 2
4 0 -8 30.85 2.86 1
3 0 -8 388.04 10.72 1
3 0 -8 403.74 11.06 2
-3 0 8 405.6 11.01 1
3 0 -8 401.93 10.25 4
-3 0 8 394.62 10.03 4
-3 0 8 398.95 10.99 2
-2 0 8 69.17 3.81 2
2 0 -8 71.23 3.59 4
2 0 -8 70.71 3.79 1
2 0 -8 73.21 3.9 2
-2 0 8 72.18 3.5 4
-2 0 8 71.94 3.92 1
1 0 -8 0.41 0.79 2
-1 0 8 2.62 1.07 2
1 0 -8 0.53 0.86 4
-1 0 8 2.09 0.98 4
-1 0 8 1.31 1.07 1
1 0 -8 2.21 1.07 1
0 0 -8 407.66 11.05 2
0 0 8 429.86 10.25 4
0 0 8 399.76 10.81 1
0 0 -8 415.13 10.25 4
0 0 8 394.62 10.86 2
0 0 -8 389.59 10.69 1
-1 0 -8 48.1 3.29 1
-1 0 -8 42.28 3.18 2
1 0 8 50.52 3.4 1
1 0 8 45.56 3.25 2
-1 0 -8 42.26 3.06 4
1 0 8 47.45 2.92 4
2 0 8 203.15 7.38 2
-2 0 -8 191.9 6.85 4
-2 0 -8 175.21 7.09 1
2 0 8 192.86 6.59 4
-2 0 -8 191.19 7.32 2
2 0 8 194.85 7.29 1
3 0 8 78.03 4.82 1
-3 0 -8 79.97 4.92 2
3 0 8 90.29 4.52 4
3 0 8 83.07 4.82 2
-3 0 -8 79.44 4.8 1
-3 0 -8 78.48 4.59 4
-4 0 -8 145.46 7.24 2
4 0 8 142.85 6.86 2
-4 0 -8 141.91 7.1 1
4 0 8 142.43 6.16 4
4 0 8 138.45 6.76 1
-4 0 -8 131.8 6.42 4
5 0 8 99.86 6.14 1
-5 0 -8 97.42 6.28 1
-5 0 -8 104.72 6.64 2
-5 0 -8 101.33 5.94 4
5 0 8 90.5 5.23 4
6 0 8 37.32 4.32 1
-6 0 -8 36.52 4.72 1
-6 0 -8 34.01 4.71 2
6 0 8 35.88 4.22 2
-6 0 -8 29.66 4.01 4
6 0 8 36.83 3.76 4
-7 0 -8 6.92 3.04 2
7 0 8 9.12 2.58 4
-7 0 -8 10.46 3.37 1
7 0 8 11.14 3.08 2
-7 0 -8 16.95 3.62 4
9 -1 -8 7.21 2.49 2
-9 1 8 1.27 2.19 2
9 -1 -8 8.32 2.86 1
-9 1 8 2.66 1.91 4
8 -1 -8 13.57 3.04 2
-8 1 8 6.88 2.24 4
-8 1 8 7.42 2.38 2
8 -1 -8 8.45 2.58 1
7 -1 -8 -0.28 1.02 1
-7 1 8 -0.41 1.34 2
-7 1 8 -0.11 1.87 1
7 -1 -8 1.09 1.33 2
-7 1 8 0.39 1.49 4
-6 1 8 144.43 6.06 4
-6 1 8 130.2 6.59 2
6 -1 -8 133.53 6.56 1
6 -1 -8 141.59 6.68 2
-6 1 8 149.17 6.86 1
5 -1 -8 116.13 5.63 1
-5 1 8 108.82 4.83 4
-5 1 8 100.56 5.33 2
5 -1 -8 111.88 5.58 2
-5 1 8 113.6 5.66 1
4 -1 -8 62.7 3.82 1
4 -1 -8 58.83 3.7 2
4 -1 -8 57 3.52 4
-4 1 8 54.96 3.64 2
-4 1 8 57.8 3.29 4
-4 1 8 57.72 3.8 1
-3 1 8 185.2 6.68 2
3 -1 -8 185.09 6.66 1
3 -1 -8 194.04 6.4 4
-3 1 8 196.95 6.76 1
3 -1 -8 190.11 6.79 2
-3 1 8 194.65 6 4
2 -1 -8 342.25 9.04 4
2 -1 -8 334.13 9.43 1
-2 1 8 328.08 9.28 2
-2 1 8 331.44 8.38 4
-2 1 8 323.64 9.22 1
1 -1 -8 1021.03 21.96 1
-1 1 8 1042.25 21.7 1
-1 1 8 1065.3 22.02 2
-1 1 8 1013.19 20.27 4
0 1 8 270.1 7.27 4
0 1 8 261.7 7.94 1
0 1 8 267.27 8.1 2
0 -1 -8 257.85 7.69 4
0 -1 -8 261.33 8.33 2
0 -1 -8 254.47 8.1 1
1 1 8 430.93 10.5 4
-1 -1 -8 430.95 11.17 4
1 1 8 395.64 11.27 2
-1 -1 -8 438.7 11.89 2
-1 -1 -8 422.33 11.72 1
1 1 8 436.02 11.38 1
-2 -1 -8 81.16 4.45 4
-2 -1 -8 93.96 5.02 2
2 1 8 77.85 3.88 4
2 1 8 81.77 4.53 1
-2 -1 -8 72.23 4.4 1
2 1 8 74.96 4.28 2
-3 -1 -8 203.69 7.83 4
3 1 8 208.27 7.93 1
-3 -1 -8 219.9 8.55 2
-3 -1 -8 189.03 8 1
3 1 8 205.22 7.92 2
3 1 8 204.94 7.04 4
4 1 8 312.85 10.56 1
4 1 8 274.87 9.08 4
4 1 8 305.17 10.57 2
-4 -1 -8 305.33 10.43 4
-4 -1 -8 307.85 11.21 1
-4 -1 -8 292.3 11.07 2
-5 -1 -8 85.58 6.24 2
-5 -1 -8 79.52 5.9 1
5 1 8 72.44 4.55 4
5 1 8 90.67 5.84 1
-5 -1 -8 93.76 5.95 4
5 1 8 88.14 5.59 2
-6 -1 -8 103.13 6.75 4
-6 -1 -8 95.33 6.94 1
6 1 8 95.7 6.41 2
6 1 8 91.32 5.37 4
9 -2 -8 74.94 6.1 2
-9 2 8 65.09 4.52 4
-9 2 8 64.06 5.96 2
9 -2 -8 59.23 5.74 1
8 -2 -8 -0.44 1.42 1
8 -2 -8 2.07 1.88 2
-8 2 8 3.72 1.75 4
-8 2 8 3.47 2.14 2
7 -2 -8 57.15 4.76 1
-7 2 8 52.99 3.6 4
-7 2 8 53.12 4.36 2
7 -2 -8 55.84 4.73 2
6 -2 -8 131.29 6.42 2
-6 2 8 139.05 5.45 4
-6 2 8 143.47 6.34 3
-6 2 8 121.44 6.08 2
6 -2 -8 133.41 6.46 1
5 -2 -8 118.76 5.74 1
-5 2 8 129.8 5.79 2
-5 2 8 134.93 6.13 3
-5 2 8 136.59 5.95 1
5 -2 -8 127.72 5.67 4
-5 2 8 124.08 4.89 4
5 -2 -8 133.29 6.05 2
4 -2 -8 640.68 15.73 2
4 -2 -8 642.99 14.88 4
-4 2 8 670.43 15.38 1
-4 2 8 609.81 15.23 2
4 -2 -8 637.33 15.58 1
-4 2 8 625.9 13.68 4
3 -2 -8 238.21 7.66 1
-3 2 8 227.96 7.32 1
-3 2 8 240.12 6.38 4
-3 2 8 233.68 7.42 2
-2 2 8 572.9 13.58 2
2 -2 -8 574.9 13.94 1
-2 2 8 606.99 13.68 1
-2 2 8 571.89 12.1 4
-1 2 8 58.72 2.64 4
1 -2 -8 52.28 3.33 1
-1 2 8 55.9 3.16 2
-1 2 8 53.4 3.19 1
0 2 8 1534.45 29.77 1
0 -2 -8 1515.68 30.48 1
0 2 8 1520.4 27.81 4
0 2 8 1475.45 30.05 2
1 2 8 30.41 2.65 2
-1 -2 -8 29.84 2.93 2
1 2 8 31.26 2.17 4
1 2 8 26.96 2.57 1
-1 -2 -8 26.1 2.78 1
-1 -2 -8 39.52 3.06 4
-2 -2 -8 402.49 11.9 2
2 2 8 374.35 9.63 4
-2 -2 -8 383.93 11.65 1
2 2 8 391.39 11.18 2
2 2 8 386.91 10.99 1
-3 -2 -8 148.47 7.07 1
3 2 8 149.99 5.57 4
-3 -2 -8 154.67 6.84 4
3 2 8 142.99 6.48 2
-3 -2 -8 170.17 7.59 2
-4 -2 -8 93.47 6.17 2
4 2 8 98.18 4.67 4
-4 -2 -8 102.09 6.29 1
4 2 8 107.6 5.76 2
-5 -2 -8 43.54 5.09 2
-5 -2 -8 52.77 5.12 4
5 2 8 45.18 3.38 4
5 2 8 39.86 4.06 2
-5 -2 -8 41.52 4.67 1
-6 -2 -8 37.82 5.13 1
6 2 8 25.57 3.69 2
-6 -2 -8 27.27 4.46 4
6 2 8 25.84 2.93 4
-6 -2 -8 31.98 4.76 2
9 -3 -8 56.59 5.6 1
-9 3 8 52.88 5.21 2
-9 3 8 57.13 3.7 4
-8 3 8 -0.2 1.19 4
8 -3 -8 0.54 1.42 1
-8 3 8 0.71 1.67 2
7 -3 -8 154.98 7.54 1
-7 3 8 158.08 5.4 4
-7 3 8 152.3 7.04 2
6 -3 -8 97.94 5.45 1
-6 3 8 100.72 5.23 2
-6 3 8 96.92 3.81 4
-6 3 8 101.81 5.66 3
-5 3 8 108.6 5.82 3
-5 3 8 109.31 3.72 4
5 -3 -8 110.52 5.46 1
-5 3 8 113.44 5.21 2
-4 3 8 5.36 1.44 2
-4 3 8 6.31 0.91 4
-4 3 8 8.61 2.06 3
4 -3 -8 6.61 1.58 1
-3 3 8 718.81 13.08 4
-3 3 8 710.15 13.14 4
3 -3 -8 728.21 16.64 1
-3 3 8 714.36 15.89 2
-3 3 8 727.34 18.54 3
-2 3 8 170.01 7.22 3
2 -3 -8 170.79 6.16 1
-2 3 8 179.21 5.75 2
-1 3 8 990.08 20.45 2
1 -3 -8 973.44 21.21 1
-1 3 8 994.26 23.5 3
0 3 8 196 7.83 3
0 -3 -8 192.95 6.97 1
0 3 8 201.33 6.44 2
0 3 8 204.43 4.56 4
0 3 8 201.51 4.57 4
1 3 8 71.76 3.77 2
-1 -3 -8 70.01 4.19 1
1 3 8 58.09 4.11 3
1 3 8 65.62 2.47 4
2 3 8 327.35 7.55 4
-2 -3 -8 304.72 10.34 1
2 3 8 314.42 10.38 3
3 3 8 50.44 3.64 2
3 3 8 50.93 3.91 3
-3 -3 -8 49.7 4.34 1
3 3 8 46.66 2.59 4
4 3 8 268.73 7.54 4
4 3 8 266.49 9.66 2
-4 -3 -8 291.66 11.22 1
-5 -3 -8 30.19 4.36 1
5 3 8 39.23 2.75 4
5 3 8 38.98 3.92 2
6 3 8 34.93 2.76 4
-6 -3 -8 29.36 4.81 1
6 3 8 35.73 4.18 2
-9 4 8 35.75 4.2 2
9 -4 -8 37.87 4.72 1
8 -4 -8 69.38 5.46 1
-8 4 8 69.08 4.79 2
7 -4 -8 3.95 1.7 1
-7 4 8 3.56 2.19 3
-7 4 8 1.08 1.47 2
6 -4 -8 359.02 11.28 1
-6 4 8 331.08 11.85 3
-6 4 8 344.79 10.09 2
5 -4 -8 62.58 4.09 1
-5 4 8 66.81 3.61 2
-5 4 8 64.08 4.79 3
-4 4 8 608.86 13.58 2
4 -4 -8 599.19 14.83 1
-4 4 8 607.15 17.12 3
3 -4 -8 90.87 4.36 1
-3 4 8 82.96 5.28 3
-3 4 8 90.06 3.57 2
-2 4 8 181.33 5.26 2
2 -4 -8 170.64 6.3 1
-2 4 8 175.01 7.74 3
-1 4 8 620.9 13.22 2
-1 4 8 604.05 16.85 3
1 -4 -8 608.01 14.74 1
0 -4 -8 210.21 7.51 1
0 4 8 220.46 6.43 2
0 4 8 224.12 8.76 3
1 4 8 203.45 8.49 3
-1 -4 -8 225.28 8.09 1
1 4 8 218.31 6.71 2
-2 -4 -8 2.6 1.54 1
2 4 8 3.31 1.25 2
2 4 8 3.54 1.72 3
-3 -4 -8 121.97 6.76 1
3 4 8 117.89 5.45 2
3 4 8 116.31 6.14 3
4 4 8 1.32 1.27 2
-4 -4 -8 0.62 1.76 1
-5 -4 -8 15.11 3.69 1
5 4 8 10.65 2.51 2
-8 5 8 10.42 2.25 2
8 -5 -8 6.76 2.32 1
7 -5 -8 81.11 5.41 1
-7 5 8 66.37 5.54 3
-7 5 8 80.81 4.17 2
6 -5 -8 0.62 1.13 1
-6 5 8 1.13 1.02 2
-6 5 8 0.28 1.63 3
-5 5 8 33.45 3.97 3
-5 5 8 34.73 2.13 2
5 -5 -8 30.45 3.01 1
-4 5 8 182.83 4.4 2
4 -5 -8 189.84 6.85 1
-4 5 8 172.69 8.41 3
-3 5 8 34.91 3.97 3
2 -5 -8 673.21 15.51 1
-2 5 8 623.5 18.24 3
-1 5 8 12.96 2.66 3
1 -5 -8 13.06 2.03 1
0 5 8 397.31 13.21 3
0 5 8 391.02 8.18 2
0 -5 -8 402.48 11.43 1
1 5 8 54.78 4.47 3
1 5 8 48.88 2.49 2
-1 -5 -8 46.99 3.74 1
2 5 8 100.34 6.05 3
2 5 8 90.49 3.96 2
-2 -5 -8 106.14 5.95 1
3 5 8 177.25 6.34 2
-4 -5 -8 52.02 5.29 1
4 5 8 51.46 3.66 2
-8 6 8 49.78 5.46 3
8 -6 -8 50.62 4.92 1
7 -6 -8 12.25 2.64 1
-7 6 8 13.06 3.42 3
6 -6 -8 88 5.18 1
-6 6 8 74.91 6.07 3
-5 6 8 40.4 4.74 3
5 -6 -8 42.25 3.5 1
4 -6 -8 65.92 3.95 1
-4 6 8 66.36 5.33 3
-3 6 8 2.41 1.95 3
3 -6 -8 2.86 1.37 1
2 -6 -8 26.46 2.61 1
-2 6 8 23.13 3.61 3
1 -6 -8 60.29 3.77 1
-1 6 8 58.77 5.06 3
0 6 8 8.37 2.5 3
0 -6 -8 3.34 1.51 1
-1 -6 -8 4.94 1.9 1
1 6 8 9.05 2.47 3
2 6 8 63.11 5.19 3
-2 -6 -8 72.76 5.09 1
-3 -6 -8 0.91 1.97 1
-7 7 8 68.19 6.61 3
7 -7 -8 73.72 5.13 1
6 -7 -8 54.34 4.23 1
-6 7 8 56.6 5.93 3
5 -7 -8 1.24 1.3 1
-5 7 8 1.59 2.18 3
-4 7 8 187.27 9.78 3
3 -7 -8 79.94 4.29 1
-3 7 8 73.72 6.01 3
2 -7 -8 280.41 8.75 1
-2 7 8 260.11 11.66 3
1 -7 -8 126.27 5.79 1
-1 7 8 132.23 8 3
0 -7 -8 35.32 3.41 1
0 7 8 46.13 4.91 3
-1 -7 -8 107.28 5.95 1
1 7 8 110.01 7.2 3
-2 -7 -8 12.2 2.83 1
2 7 8 15.33 3.37 3
6 -8 -8 12.8 2.49 1
-6 8 8 13.59 3.9 3
5 -8 -8 98.42 5.11 1
-5 8 8 84.51 7.18 3
4 -8 -8 38.38 3.23 1
-4 8 8 18.58 4.17 3
-3 8 8 23.96 4.45 3
3 -8 -8 18.42 2.39 1
2 -8 -8 176.38 6.72 1
-2 8 8 152.55 9.34 3
1 -8 -8 38.83 3.41 1
-1 8 8 38.39 5.11 3
0 8 8 36.7 5 3
0 -8 -8 37.04 3.58 1
-2 -8 9 7.69 2.64 1
-1 -8 9 -0.4 1.71 1
0 -8 9 -0.2 1.66 1
1 -8 9 1.3 1.8 1
2 -8 9 0.5 1.62 1
3 -8 9 13.82 2.97 1
-4 -7 9 15.7 3.53 1
-3 -7 9 41.29 4.35 1
-2 -7 9 63.23 4.88 1
-1 -7 9 93.87 5.63 1
0 -7 9 53.58 4.48 1
1 -7 9 11.04 2.58 1
2 -7 9 51.77 4.44 1
3 -7 9 12.07 2.7 1
4 -7 9 -0.7 1.56 1
-5 -6 9 12.78 3.38 1
5 6 -9 9.69 1.88 2
-4 -6 9 2.54 1.84 1
4 6 -9 0.45 1.1 2
3 6 -9 61.98 3.15 2
-3 -6 9 65.18 5.01 1
2 6 -9 1.01 0.9 2
-2 -6 9 0.24 1.5 1
-1 -6 9 151.22 6.8 1
1 6 -9 136.5 4.14 2
0 6 -9 0.71 0.8 2
0 -6 9 0.44 1.35 1
-1 6 -9 151.39 4.45 2
1 -6 9 133.34 6.55 1
2 -6 9 0.44 1.41 1
-2 6 -9 4.16 1.18 2
-3 6 -9 131.86 4.97 2
3 -6 9 122.68 6.54 1
-4 6 -9 10.74 1.96 2
4 -6 9 9.9 2.62 1
5 -6 9 9.94 2.81 1
-5 6 -9 10.92 2.31 2
6 5 -9 10.99 2.45 2
-6 -5 9 13.61 3.36 1
-5 -5 9 219.65 9.8 1
5 5 -9 220.84 8.3 2
4 5 -9 61.91 3.91 2
-4 -5 9 49.05 4.63 1
3 5 -9 38.4 2.96 2
-3 -5 9 27.22 3.49 1
2 5 -9 284.8 8.35 2
-2 -5 9 285.73 9.94 1
-1 -5 9 3.57 1.58 1
1 5 -9 3.01 1.22 2
0 5 -9 106.85 4.51 2
0 -5 9 113.04 5.65 1
-1 5 -9 7.37 1.61 2
1 -5 9 5.22 1.85 1
2 -5 9 26.62 3.17 1
-2 5 -9 23.68 2.51 2
-3 5 -9 15.31 2.36 2
3 -5 9 15.75 2.79 1
-4 5 -9 10.01 2.25 2
4 -5 9 9.4 2.49 1
-5 5 -9 2.55 1.86 2
5 -5 9 0.1 1.77 1
6 -5 9 -0.85 1.71 1
-6 5 -9 0.82 1.85 2
-7 -4 9 0.96 2.24 1
7 4 -9 -0.62 1.36 2
6 4 -9 14.68 2.74 2
-6 -4 9 18.83 3.66 1
5 4 -9 -0.66 1.11 2
-5 -4 9 2.4 1.94 1
-4 -4 9 3.38 1.9 1
4 4 -9 3.18 1.52 2
3 4 -9 -0.54 0.93 2
-3 -4 9 -1.43 1.33 1
2 4 -9 -0.02 1.04 2
-2 -4 9 0.14 1.25 1
1 4 -9 -0.65 0.84 2
-1 -4 9 -0.5 0.98 1
0 -4 9 11.03 2.15 1
0 4 -9 12.08 1.99 2
-1 4 -9 1.18 1.09 2
1 -4 9 0.26 1.06 1
-2 4 -9 48.98 3.53 2
2 -4 9 45.73 3.85 1
-2 4 -9 44.5 2.11 4
-3 4 -9 1.12 1.32 2
-3 4 -9 0.01 0.68 4
3 -4 9 0.57 1.28 1
-4 4 -9 28.26 2.15 4
-4 4 -9 26.74 3.32 2
4 -4 9 21.06 3.23 1
-5 4 -9 95.92 4.09 4
5 -4 9 91.07 6.28 1
-5 4 -9 86.45 5.6 2
-6 4 -9 61.64 5.48 2
6 -4 9 70.73 6.08 1
-6 4 -9 77.27 3.83 4
8 3 -9 107.12 6.95 2
-8 -3 9 99.43 7.6 2
7 3 -9 53.73 4.83 2
-7 -3 9 66.64 6.24 2
-7 -3 9 74.48 6.01 1
6 3 -9 233.89 9.34 2
-6 -3 9 239.92 10.3 2
-6 -3 9 215.56 9.76 1
-5 -3 9 45.31 4.42 1
5 3 -9 43.35 3.85 2
-5 -3 9 45.19 4.58 2
-4 -3 9 146.07 6.98 1
-4 -3 9 164.63 7.34 2
4 3 -9 147.34 6.53 2
3 3 -9 5.02 1.57 2
-3 -3 9 5.43 1.8 1
-3 -3 9 9.31 2.28 2
2 3 -9 42.22 3.14 2
2 3 -9 42.86 3.19 1
-2 -3 9 49.85 3.82 2
-2 -3 9 39.06 3.44 1
1 3 -9 -1.24 0.9 2
-1 -3 9 0.83 1.21 1
-1 -3 9 -1.88 1.1 2
1 3 -9 -0.2 1.11 1
0 -3 9 12.42 2.23 1
0 -3 9 11.65 2.2 2
0 3 -9 9.55 1.92 1
0 3 -9 10.82 1.45 4
0 3 -9 12.64 2.05 2
-1 3 -9 24.92 2.09 4
-1 3 -9 29.7 2.87 2
1 -3 9 29.26 3.03 1
-1 3 -9 31.53 2.95 1
1 -3 9 30.45 3.14 2
2 -3 9 0.08 1.25 2
-2 3 -9 -0.58 1.21 2
2 -3 9 0.35 1.14 1
-2 3 -9 2.26 1.13 4
3 -3 9 287.73 10.11 2
3 -3 9 280.3 9.89 1
-3 3 -9 270.54 8.05 4
-3 3 -9 257.68 9.41 2
4 -3 9 13.49 2.74 2
4 -3 9 11.66 2.62 1
-4 3 -9 7.43 1.71 4
-4 3 -9 8.62 2.28 2
5 -3 9 49.22 4.81 1
-5 3 -9 37.71 4.24 2
-5 3 -9 39.67 3.4 4
5 -3 9 49.63 4.85 2
6 -3 9 2.06 2.03 1
-6 3 -9 2.93 2.25 2
6 -3 9 2.31 2.06 2
-6 3 -9 0.92 1.47 4
8 2 -9 8.04 2.49 2
-8 -2 9 5.55 2.73 4
-8 -2 9 6.78 3.04 2
-8 -2 9 3.82 2.87 1
7 2 -9 35.85 4.09 2
-7 -2 9 31.29 4.46 1
-7 -2 9 37.54 4.7 2
-7 -2 9 40.07 4.39 4
-6 -2 9 33.3 4.19 2
6 2 -9 30.98 3.56 2
-6 -2 9 22.51 3.3 4
6 2 -9 26.76 3.36 1
-6 -2 9 29.51 3.97 1
5 2 -9 25.21 2.97 2
5 2 -9 28.26 3.15 1
-5 -2 9 33.39 3.89 2
-5 -2 9 30.3 3.27 4
-5 -2 9 23.23 3.34 1
4 2 -9 0.43 0.99 2
-4 -2 9 2.42 1.59 1
-4 -2 9 1.54 1.6 2
-4 -2 9 1.22 1.43 4
-3 -2 9 18.8 2.62 1
-3 -2 9 18.66 2.4 4
3 2 -9 14.3 2.18 2
-3 -2 9 21.45 2.8 2
3 2 -9 25.94 2.71 1
2 2 -9 7.88 1.73 2
-2 -2 9 5.72 1.71 1
-2 -2 9 5.98 1.56 4
2 2 -9 8.04 1.49 4
2 2 -9 8.56 1.75 1
-2 -2 9 7.26 1.89 2
1 2 -9 0.85 1.07 1
-1 -2 9 -0.29 0.84 4
-1 -2 9 0.63 1.11 2
1 2 -9 1.04 0.99 2
1 2 -9 0.5 0.8 4
-1 -2 9 -0.29 1.06 1
0 2 -9 120.85 4.82 4
0 -2 9 130.96 5.33 4
0 2 -9 125.1 5.46 1
0 -2 9 131.39 5.79 2
0 2 -9 131.57 5.6 2
0 -2 9 130.61 5.81 1
1 -2 9 7.37 1.86 1
-1 2 -9 8.6 1.91 1
-1 2 -9 6.59 1.7 2
1 -2 9 10.54 2.12 2
1 -2 9 10.11 1.83 4
-1 2 -9 5.98 1.5 4
2 -2 9 142.46 6.55 2
-2 2 -9 140.47 5.62 4
2 -2 9 148.94 6.07 4
-2 2 -9 149.78 6.47 1
2 -2 9 138.22 6.41 1
-2 2 -9 150 6.54 2
-3 2 -9 62.32 3.81 4
-3 2 -9 61.35 4.42 1
-3 2 -9 61.24 4.39 2
3 -2 9 49.67 4.28 1
3 -2 9 62.88 4.44 2
3 -2 9 67.02 4.19 4
4 -2 9 -0.14 1.06 2
4 -2 9 2.53 1.42 4
-4 2 -9 1.34 1.43 2
-4 2 -9 2.38 1.88 1
4 -2 9 1.77 1.6 1
-4 2 -9 0.65 1.34 4
-5 2 -9 246.86 10.66 2
5 -2 9 287.79 10.12 4
5 -2 9 265.1 10.8 2
5 -2 9 270.06 10.83 1
-5 2 -9 267.11 9.58 4
6 -2 9 1.98 1.63 4
6 -2 9 5.52 2.38 1
-6 2 -9 0.07 1.86 2
-6 2 -9 3.06 1.93 4
8 1 -9 103.35 6.83 2
-8 -1 9 98.28 7.11 1
8 1 -9 102.16 6.92 1
-8 -1 9 98.03 6.97 2
-8 -1 9 99.1 6.46 4
-7 -1 9 6.86 2.36 4
-7 -1 9 6.15 2.58 1
-7 -1 9 8.51 2.71 2
7 1 -9 3.72 1.88 2
7 1 -9 4.61 2.12 1
-6 -1 9 106.74 5.8 4
-6 -1 9 109.3 6.48 2
6 1 -9 113.95 6.2 1
6 1 -9 104.07 6.01 2
-6 -1 9 110.02 6.44 1
5 1 -9 64.25 4.34 1
-5 -1 9 64.28 4.62 2
-5 -1 9 60.63 4.12 4
5 1 -9 59.43 4.24 2
-5 -1 9 52.9 4.47 1
-4 -1 9 -0.44 1.23 2
-4 -1 9 0.4 1.33 1
-4 -1 9 -1.14 1.15 4
4 1 -9 1.78 1.21 1
4 1 -9 0.28 0.84 2
-3 -1 9 108.79 4.87 4
3 1 -9 103.46 4.64 4
3 1 -9 112.29 5.36 2
-3 -1 9 128.3 5.71 2
3 1 -9 109.97 5.25 1
-3 -1 9 110.48 5.44 1
2 1 -9 61.66 3.81 2
-2 -1 9 57.45 3.34 4
-2 -1 9 59.21 3.82 2
2 1 -9 57.5 3.3 4
2 1 -9 65.35 3.83 1
-2 -1 9 52.32 3.67 1
-1 -1 9 51.1 3.14 4
-1 -1 9 54.63 3.69 1
1 1 -9 49.32 3.35 2
1 1 -9 55.61 3.24 4
1 1 -9 46.7 3.33 1
-1 -1 9 54.81 3.62 2
0 -1 9 21.63 2.58 2
0 -1 9 21.61 2.27 4
0 1 -9 24.91 2.61 2
0 1 -9 24.72 2.59 1
0 1 -9 20.7 2.21 4
0 -1 9 25.75 2.72 1
-1 1 -9 91.43 4.84 1
1 -1 9 87.46 4.73 2
1 -1 9 95.51 4.51 4
1 -1 9 104.69 5.12 1
-1 1 -9 93.46 4.49 4
-1 1 -9 95.56 4.93 2
2 -1 9 157.3 6.79 2
2 -1 9 155.97 6.17 4
-2 1 -9 149.48 6.14 4
-2 1 -9 154.48 6.74 2
-2 1 -9 160.1 6.83 1
2 -1 9 153.85 6.65 1
3 -1 9 1.42 1.21 2
3 -1 9 0.03 1.12 1
3 -1 9 -0.26 0.96 4
-3 1 -9 0.81 1.27 2
-3 1 -9 0.33 1.18 4
-3 1 -9 -0.19 1.26 1
4 -1 9 24.67 2.98 4
-4 1 -9 22.6 3.41 2
-4 1 -9 23.69 3.04 4
-4 1 -9 20.72 3.26 1
4 -1 9 19.78 2.99 2
4 -1 9 17.14 2.97 1
5 -1 9 68.64 5.33 1
-5 1 -9 74.1 5.65 1
-5 1 -9 56.48 5.32 2
-5 1 -9 60.26 4.57 4
5 -1 9 73.73 4.9 4
5 -1 9 60.08 5.15 2
6 -1 9 4.9 2.12 2
6 -1 9 5 2.37 1
-6 1 -9 3.58 2.32 2
-6 1 -9 4.68 2.75 1
-6 1 -9 6.07 2.27 4
6 -1 9 5.81 2.01 4
-9 0 9 1.76 2.07 4
9 0 -9 4.98 2.43 2
-9 0 9 4.95 2.65 2
9 0 -9 2.26 2.34 1
-9 0 9 1.26 2.97 1
8 0 -9 26.34 3.89 2
8 0 -9 25.27 3.84 1
-8 0 9 28.89 3.87 4
-8 0 9 19.23 3.69 2
-8 0 9 27.62 4.33 1
-7 0 9 -0.07 1.99 1
7 0 -9 -1.21 1.13 1
7 0 -9 0.98 1.36 2
-7 0 9 0.9 1.69 4
-7 0 9 1.29 1.82 2
6 0 -9 68.79 4.87 1
-6 0 9 75.47 4.56 4
-6 0 9 67.22 4.99 2
-6 0 9 70.25 5.11 1
6 0 -9 68.93 4.87 2
-5 0 9 30.81 3 4
5 0 -9 34.66 3.36 1
-5 0 9 35.77 3.67 1
5 0 -9 37.09 3.48 2
-5 0 9 34.99 3.61 2
-4 0 9 172.95 7.05 2
-4 0 9 182.41 7.16 1
-4 0 9 170.92 6.4 4
4 0 -9 186.81 7.22 2
4 0 -9 172.2 6.51 4
4 0 -9 183.69 7.16 1
-3 0 9 93.03 4.82 1
-3 0 9 98.76 4.95 2
3 0 -9 101.1 4.53 4
-3 0 9 94.23 4.29 4
3 0 -9 88.17 4.71 2
2 0 -9 118.34 5 4
-2 0 9 120.55 4.82 4
2 0 -9 111.36 5.14 1
-2 0 9 123.26 5.38 2
2 0 -9 124.01 5.42 2
-2 0 9 137.58 5.69 1
1 0 -9 377.8 10.78 2
1 0 -9 386.4 10.15 4
-1 0 9 403 10.04 4
-1 0 9 369.82 10.66 1
-1 0 9 376.16 10.75 2
1 0 -9 385.43 10.78 1
0 0 9 147.81 5.54 4
0 0 -9 157.63 5.83 4
0 0 9 152.57 6.14 1
0 0 -9 151.7 6.21 2
0 0 9 151.8 6.16 2
0 0 -9 150.68 6.14 1
1 0 9 379.84 10.2 4
-1 0 -9 382.57 11.25 1
1 0 9 376.28 10.97 1
1 0 9 369.52 11.12 2
-1 0 -9 386.74 10.66 4
-1 0 -9 381.04 11.24 2
-2 0 -9 13.2 2.4 1
-2 0 -9 8.37 2.15 2
2 0 9 15.15 2.11 4
-2 0 -9 13.04 2.26 4
2 0 9 16.7 2.39 2
2 0 9 14.48 2.37 1
3 0 9 140.49 6.77 1
3 0 9 136.89 6.63 2
-3 0 -9 142.56 6.95 1
3 0 9 136.6 5.98 4
-3 0 -9 142.07 6.41 4
-3 0 -9 152.66 7.19 2
4 0 9 137.83 6.28 4
4 0 9 134.58 6.92 1
-4 0 -9 134.81 7.31 2
-4 0 -9 130.94 6.66 4
4 0 9 123.92 6.68 2
-4 0 -9 135.2 7.29 1
5 0 9 132.2 6.52 4
5 0 9 139.06 7.47 1
-5 0 -9 139.83 7.81 1
-5 0 -9 138.58 7.96 2
-5 0 -9 133.86 7.14 4
-6 0 -9 29.31 4.57 1
-6 0 -9 35.49 4.99 2
6 0 9 44.58 4.74 2
6 0 9 36.71 3.89 4
-6 0 -9 36.56 4.48 4
6 0 9 28.85 4.16 1
9 -1 -9 88.23 6.67 1
-9 1 9 71.5 5.2 4
-9 1 9 58.16 6.1 2
9 -1 -9 83.96 6.42 2
-8 1 9 17.75 3.52 2
8 -1 -9 17.65 3.28 2
-8 1 9 22.71 3.32 4
8 -1 -9 26.2 3.86 1
7 -1 -9 189.33 8.66 2
-7 1 9 179.86 7.59 4
-7 1 9 193.88 8.85 2
7 -1 -9 208.49 9.02 1
-7 1 9 213.28 9.12 1
-6 1 9 1.9 1.69 3
6 -1 -9 0.08 1 2
6 -1 -9 0.26 1.03 1
-6 1 9 -0.07 1.68 1
-6 1 9 -0.03 1.35 2
-6 1 9 0.52 1.27 4
5 -1 -9 170.35 7.2 2
-5 1 9 158.47 6.19 4
-5 1 9 160.27 6.96 2
5 -1 -9 163.06 7.03 1
-5 1 9 168.94 7.1 1
4 -1 -9 49.98 3.6 2
-4 1 9 42.75 3.02 4
-4 1 9 51.22 3.7 2
4 -1 -9 49.32 3.6 1
-4 1 9 48.97 3.63 1
4 -1 -9 50.77 3.43 4
-3 1 9 8.15 1.57 4
3 -1 -9 7.73 1.74 2
3 -1 -9 8.55 1.7 4
-3 1 9 8.62 1.83 2
-3 1 9 7.37 1.8 1
-2 1 9 54.87 3.01 4
2 -1 -9 55.13 3.48 4
2 -1 -9 50.97 3.47 1
2 -1 -9 58.45 3.62 2
-2 1 9 52.99 3.43 2
-2 1 9 57.87 3.65 1
1 -1 -9 -0.87 0.83 1
-1 1 9 1.17 1.01 2
1 -1 -9 0.73 0.95 2
1 -1 -9 -0.84 0.99 4
-1 1 9 -0.56 0.93 1
-1 1 9 0.77 0.86 4
0 -1 -9 6.74 1.66 1
0 -1 -9 7.49 1.79 4
0 -1 -9 4.52 1.56 2
0 1 9 5.73 1.55 1
0 1 9 8.62 1.52 4
0 1 9 4.96 1.45 2
-1 -1 -9 207.93 7.78 2
-1 -1 -9 212.22 7.34 4
1 1 9 195.92 6.54 4
1 1 9 197.99 7.4 2
1 1 9 206.42 7.38 1
-1 -1 -9 199.84 7.67 1
-2 -1 -9 183.55 7.64 1
2 1 9 187.36 6.55 4
2 1 9 180.19 7.26 2
-2 -1 -9 185.42 7.71 2
-2 -1 -9 191.93 7.36 4
2 1 9 184.1 7.37 1
-3 -1 -9 42.22 4.14 2
-3 -1 -9 39.81 3.81 4
3 1 9 49.42 4.03 1
3 1 9 41.72 3.15 4
3 1 9 42.45 3.78 2
-3 -1 -9 46.04 4.24 1
4 1 9 15.07 2.71 2
-4 -1 -9 8.47 2.57 2
-4 -1 -9 10.47 2.82 1
4 1 9 11 2.11 4
-4 -1 -9 9.13 2.51 4
4 1 9 11.38 2.6 1
-5 -1 -9 68.22 5.88 1
5 1 9 64.55 5 2
5 1 9 57.64 4.2 4
-5 -1 -9 71.15 5.54 4
6 1 9 8.3 2.6 2
-6 -1 -9 5.17 2.72 2
-6 -1 -9 7.92 3.15 4
-6 -1 -9 9.92 3.2 1
6 1 9 6.87 2.01 4
9 -2 -9 -0.71 1.51 2
-9 2 9 1.19 1.63 4
9 -2 -9 0.17 1.77 1
-9 2 9 2.5 2.14 2
8 -2 -9 23.46 3.75 1
-8 2 9 22.96 3.02 4
-8 2 9 23.3 3.67 2
8 -2 -9 31.72 4.04 2
-7 2 9 1.28 1.55 2
7 -2 -9 1.18 1.45 1
-7 2 9 -0.23 1.16 4
7 -2 -9 0.13 1.26 2
6 -2 -9 16.85 2.67 1
6 -2 -9 20.1 2.9 2
-6 2 9 15.07 2.63 3
-6 2 9 14.67 2.67 2
-6 2 9 18.61 2.33 4
-5 2 9 18.88 2.13 4
5 -2 -9 15.65 2.44 2
5 -2 -9 17.22 2.54 1
-5 2 9 14.46 2.43 1
-5 2 9 17.01 2.67 3
5 -2 -9 25.67 2.89 4
-5 2 9 15.3 2.5 2
4 -2 -9 16.6 2.28 4
-4 2 9 16.44 1.89 4
-4 2 9 14.93 2.22 2
4 -2 -9 14.07 2.2 2
-4 2 9 15.64 2.36 1
4 -2 -9 13.55 2.16 1
3 -2 -9 16.46 2.25 4
-3 2 9 17.35 1.77 4
3 -2 -9 14.82 2.18 2
-3 2 9 17.08 2.22 2
-3 2 9 14.62 2.22 1
3 -2 -9 10.22 1.86 1
-2 2 9 28.01 2.63 2
2 -2 -9 30.49 2.79 1
-2 2 9 30.09 2.06 4
-2 2 9 36.24 2.86 1
1 -2 -9 182.25 6.94 1
-1 2 9 205.24 6.89 2
-1 2 9 210.23 6.86 1
-1 2 9 193.3 5.72 4
0 -2 -9 38.49 3.14 4
0 -2 -9 39.06 3.16 1
0 2 9 34.27 2.25 4
0 -2 -9 35.82 3.19 2
0 2 9 38.74 2.97 1
0 2 9 38.96 2.95 2
-1 -2 -9 142.02 6.08 4
1 2 9 135.98 5.83 2
1 2 9 148.13 6.05 1
-1 -2 -9 162.6 6.75 2
1 2 9 132.72 4.89 4
-1 -2 -9 136.97 6.29 1
2 2 9 74.87 3.71 4
-2 -2 -9 75.24 4.86 1
-2 -2 -9 78.99 5.01 2
2 2 9 64.3 4.21 2
3 2 9 0.48 1 4
-3 -2 -9 1.14 1.64 2
-3 -2 -9 0.71 1.41 1
3 2 9 -0.37 0.86 2
-4 -2 -9 243.36 10.4 1
4 2 9 238.39 9.26 2
4 2 9 226.03 7.75 4
5 2 9 3.48 1.65 2
-5 -2 -9 2.56 2.35 2
-5 -2 -9 1.37 2.33 4
-5 -2 -9 0.89 1.94 1
5 2 9 0.69 1.28 4
-6 -2 -9 17.87 4.04 1
-6 -2 -9 13.13 3.67 2
6 2 9 25.41 2.95 4
6 2 9 17.21 3.35 2
-6 -2 -9 20.18 3.9 4
-9 3 9 99.9 6.64 2
9 -3 -9 109.53 7.36 1
-9 3 9 122.78 5.28 4
-8 3 9 11.84 2.01 4
-8 3 9 15.45 3.06 2
8 -3 -9 10.08 2.73 1
-7 3 9 126.24 4.8 4
-7 3 9 134.48 6.84 3
7 -3 -9 116.27 6.63 1
-7 3 9 119.15 6.27 2
-6 3 9 31.96 3.62 3
-6 3 9 26.14 2.16 4
6 -3 -9 31.59 3.39 1
-6 3 9 28.52 3.25 2
5 -3 -9 94.64 5.29 1
-5 3 9 104.94 5.09 2
-5 3 9 97.91 3.62 4
-5 3 9 101 5.85 3
-4 3 9 23.57 2.53 2
-4 3 9 22.57 1.61 4
-4 3 9 21.18 2.95 3
4 -3 -9 24.19 2.64 1
-3 3 9 32.44 2.63 2
-3 3 9 33.01 3.57 3
-3 3 9 30.35 1.64 4
-2 3 9 150.37 7.11 3
2 -3 -9 148.95 6.02 1
-2 3 9 149.62 5.53 2
-2 3 9 151.55 3.83 4
-2 3 9 150.93 3.82 4
-1 3 9 91.8 4.2 2
1 -3 -9 77.13 4.29 1
-1 3 9 78.79 2.58 4
0 3 9 37.43 1.83 4
0 3 9 36.82 3.62 3
0 3 9 37.72 2.79 2
0 -3 -9 38.85 3.18 1
1 3 9 634.98 12.71 4
1 3 9 639.99 15.53 2
1 3 9 622.87 17.18 3
-1 -3 -9 628.8 16.42 1
2 3 9 111.21 5.91 3
2 3 9 105.97 5.3 2
-2 -3 -9 112.07 6.1 1
2 3 9 113.93 3.94 4
3 3 9 200.67 8.24 3
3 3 9 185.33 7.57 2
3 3 9 196.32 5.9 4
-3 -3 -9 201.83 8.86 1
4 3 9 0.48 1.19 2
-4 -3 -9 1.85 2.09 1
4 3 9 0.43 0.99 4
5 3 9 29.13 3.65 2
5 3 9 33.9 2.61 4
-5 -3 -9 29.2 4.52 1
-9 4 9 4.39 2.22 2
9 -4 -9 14.44 3.36 1
8 -4 -9 57.75 5.25 1
-8 4 9 56.69 4.52 2
7 -4 -9 31.4 3.64 1
-7 4 9 28.57 3.25 2
-7 4 9 24.84 3.62 3
6 -4 -9 20.8 2.87 1
-6 4 9 19.22 2.56 2
-6 4 9 22.47 3.53 3
-5 4 9 92.09 5.94 3
5 -4 -9 92.79 5.11 1
-5 4 9 92.28 4.44 2
-4 4 9 12.02 2.72 3
4 -4 -9 8.01 1.84 1
-4 4 9 16.92 2.01 2
-3 4 9 18.12 1.85 2
-3 4 9 19.24 3.11 3
-2 4 9 79.25 5.4 3
-2 4 9 98.66 3.9 2
2 -4 -9 82.28 4.41 1
-1 4 9 50.23 4.28 3
-1 4 9 50.5 2.88 2
1 -4 -9 61.55 3.84 1
0 4 9 128.05 6.81 3
0 -4 -9 134.32 6.05 1
0 4 9 135.7 5.07 2
-1 -4 -9 3.42 1.64 1
1 4 9 1.73 1.46 3
-2 -4 -9 43.28 4.12 1
2 4 9 41.44 3.19 2
2 4 9 49.31 4.22 3
3 4 9 121.09 6.43 3
3 4 9 119.58 5.74 2
-3 -4 -9 102.51 6.43 1
-4 -4 -9 73.8 5.95 1
4 4 9 74.39 4.76 2
8 -5 -9 10.23 2.81 1
-8 5 9 10.17 2.29 2
-7 5 9 0.61 1.31 2
7 -5 -9 -0.84 1.16 1
-7 5 9 -0.71 2 3
6 -5 -9 12.99 2.52 1
-6 5 9 15.13 1.94 2
-6 5 9 8.07 2.61 3
-5 5 9 4.54 2.19 3
-5 5 9 1.2 0.96 2
5 -5 -9 1.15 1.27 1
-4 5 9 13.65 2.91 3
4 -5 -9 10.25 1.98 1
-4 5 9 11.61 1.26 2
3 -5 -9 2.64 1.36 1
-3 5 9 1.83 0.66 2
-3 5 9 3.35 1.72 3
2 -5 -9 10.53 1.97 1
-2 5 9 13.97 2.88 3
-1 5 9 -0.31 1.12 3
-1 5 9 1.11 0.67 2
1 -5 -9 0.33 1.04 1
0 5 9 162.41 8.05 3
0 5 9 163.69 4.77 2
0 -5 -9 161.18 6.95 1
1 5 9 71.3 5.24 3
-1 -5 -9 60.24 4.48 1
1 5 9 68.79 3.19 2
2 5 9 102.96 6.34 3
2 5 9 97.76 4.32 2
-2 -5 -9 85.52 5.76 1
3 5 9 -0.1 1.15 2
-3 -5 -9 0.28 2.07 1
4 5 9 71.51 4.38 2
-4 -5 -9 66.69 6.09 1
8 -6 -9 24.5 3.76 1
-8 6 9 18.8 4.08 3
7 -6 -9 9.64 2.49 1
-7 6 9 6.22 2.94 3
-6 6 9 119.82 7.79 3
6 -6 -9 113.48 6.18 1
-5 6 9 14.78 3.33 3
5 -6 -9 14.81 2.49 1
4 -6 -9 84.65 4.68 1
-4 6 9 94.06 6.66 3
3 -6 -9 26.07 2.79 1
-3 6 9 34.03 4.38 3
-2 6 9 220.82 10.34 3
2 -6 -9 232.25 8.13 1
1 -6 -9 35.37 3.25 1
-1 6 9 36.23 4.48 3
0 -6 -9 100.63 5.56 1
0 6 9 104.58 6.83 3
1 6 9 40.63 4.53 3
-1 -6 -9 37.73 3.87 1
2 6 9 2.63 1.94 3
-2 -6 -9 0.93 1.67 1
-7 7 9 24.33 4.63 3
7 -7 -9 21.48 3.32 1
-6 7 9 2.04 2.33 3
6 -7 -9 -0.39 1.39 1
-5 7 9 2.54 2.35 3
5 -7 -9 3.9 1.8 1
-4 7 9 0.62 1.91 3
4 -7 -9 0.14 1.27 1
-3 7 9 14.89 3.48 3
3 -7 -9 12.27 2.25 1
2 -7 -9 3.43 1.66 1
-2 7 9 2.98 2.13 3
-1 7 9 15.51 3.59 3
1 -7 -9 13.09 2.47 1
0 -7 -9 179.97 7.71 1
0 7 9 168.83 9.34 3
-1 -7 -9 2.59 2.04 1
1 7 9 2.55 2.03 3
-5 8 9 0.58 2.09 3
-4 8 9 -0.99 1.64 3
4 -8 -9 0.02 1.36 1
-3 8 9 68.84 6.73 3
3 -8 -9 68.09 4.4 1
-2 8 9 4.46 2.66 3
2 -8 -9 1.73 1.64 1
-1 8 9 71.31 6.73 3
1 -8 -9 55.15 4.16 1
-1 -8 10 6.67 2.47 1
0 -8 10 3.84 2.23 1
1 -8 10 15.39 3.12 1
2 -8 10 -1.37 1.45 1
-3 -7 10 62.54 5.59 1
-2 -7 10 322.72 11.69 1
-1 -7 10 57.41 4.94 1
0 -7 10 33.11 3.94 1
1 -7 10 130.06 6.94 1
2 -7 10 44.33 4.41 1
3 -7 10 188.68 8.81 1
4 -7 10 7.09 2.51 1
-5 -6 10 16.94 3.73 1
5 6 -10 15.57 2.31 2
4 6 -10 1.33 1.33 2
-4 -6 10 0.99 2.11 1
-3 -6 10 -1.77 1.42 1
3 6 -10 -1.5 0.99 2
2 6 -10 3.1 1.3 2
-2 -6 10 2.84 2.02 1
-1 -6 10 3.73 1.84 1
1 6 -10 2.37 1.15 2
0 -6 10 7.4 2.27 1
0 6 -10 13.21 1.66 2
1 -6 10 7.24 2.23 1
-1 6 -10 4.32 1.29 2
2 -6 10 8.7 2.45 1
-2 6 -10 8.43 1.69 2
3 -6 10 1.91 1.78 1
-3 6 -10 2.3 1.41 2
4 -6 10 17.27 3.41 1
-4 6 -10 28.7 2.97 2
5 -6 10 -0.19 1.68 1
-5 6 -10 -0.25 1.49 2
6 5 -10 157.68 7.29 2
-6 -5 10 133.11 8.31 1
5 5 -10 36.7 3.6 2
-5 -5 10 34.14 4.54 1
4 5 -10 32.35 3.15 2
-4 -5 10 26.59 3.86 1
-3 -5 10 576.44 16.58 1
3 5 -10 592.46 14.92 2
-2 -5 10 37.8 3.87 1
2 5 -10 38.49 3.02 2
1 5 -10 336.19 9.63 2
-1 -5 10 327.23 11.04 1
0 -5 10 93.42 5.49 1
0 5 -10 88.37 4.42 2
1 -5 10 83.88 5.33 1
-1 5 -10 85.32 4.43 2
-2 5 -10 418.12 11.87 2
2 -5 10 439.08 13.36 1
3 -5 10 84.56 5.64 1
-3 5 -10 88.29 5.04 2
-4 5 -10 66.54 4.62 2
4 -5 10 64.98 5.52 1
5 -5 10 3.17 2.19 1
-5 5 -10 1.52 1.77 2
7 4 -10 0.49 1.48 2
-7 -4 10 1.66 2.66 1
-6 -4 10 1.11 2.35 1
6 4 -10 2.52 1.66 2
-5 -4 10 3.65 2.25 1
5 4 -10 4.63 1.85 2
-4 -4 10 12.09 2.77 1
4 4 -10 14.2 2.44 2
3 4 -10 -0.54 1 2
-3 -4 10 0.2 1.4 1
2 4 -10 21.12 2.58 2
-2 -4 10 22 3 1
1 4 -10 32.27 2.96 2
-1 -4 10 26.11 3.17 1
0 4 -10 12.66 2.17 2
0 -4 10 15.33 2.68 1
1 -4 10 0.9 1.33 1
-1 4 -10 0.62 1.12 2
-2 4 -10 4.13 1.62 2
2 -4 10 2.32 1.53 1
-2 4 -10 3.12 0.94 4
3 -4 10 1.81 1.61 1
-3 4 -10 0.85 0.85 4
-3 4 -10 2.7 1.6 2
-4 4 -10 5.5 2.15 2
-4 4 -10 7.23 1.46 4
4 -4 10 3.85 1.9 1
-5 4 -10 0.32 1.61 2
5 -4 10 0.86 1.7 1
-5 4 -10 1.01 1.2 4
-6 4 -10 50.11 3.3 4
-6 4 -10 49.73 5.14 2
6 -4 10 43.85 5.17 1
-7 -3 10 177.15 9.68 2
-7 -3 10 183.04 9.64 1
7 3 -10 166.44 8.42 2
-6 -3 10 19.46 3.82 2
6 3 -10 15.31 2.8 2
-6 -3 10 17.75 3.54 1
-5 -3 10 235.87 9.8 1
5 3 -10 220.03 8.97 2
-5 -3 10 235.93 9.89 2
4 3 -10 814.91 20.31 2
-4 -3 10 844.8 21.22 2
-4 -3 10 833.7 21.06 1
-3 -3 10 805.86 19.91 2
3 3 -10 781.04 19.24 2
-3 -3 10 783.4 19.78 1
2 3 -10 984.31 22.3 2
-2 -3 10 980.76 22.88 1
-2 -3 10 1012.38 23.24 2
-1 -3 10 71.51 4.64 1
1 3 -10 76.63 4.47 2
-1 -3 10 75.38 4.68 2
0 3 -10 1118.67 22.08 4
0 -3 10 1121.34 25.12 1
0 -3 10 1157.32 25.32 2
0 3 -10 1053.75 24.27 2
-1 3 -10 100.44 5.29 2
1 -3 10 104 5.66 1
-1 3 -10 102.59 4.34 4
1 -3 10 101.62 5.62 2
2 -3 10 967.48 23.16 1
-2 3 -10 988.88 23.01 2
-2 3 -10 945.09 20.4 4
2 -3 10 992.33 23.66 2
-3 3 -10 3.91 1.74 2
-3 3 -10 11.28 1.99 4
3 -3 10 12.47 2.56 2
3 -3 10 9.26 2.37 1
-4 3 -10 90.24 5.81 2
-4 3 -10 91.11 4.78 4
4 -3 10 94.66 6.16 1
4 -3 10 106.53 6.39 2
5 -3 10 27.87 4.06 2
-5 3 -10 29.37 4.09 2
5 -3 10 18.4 3.56 1
-5 3 -10 15.42 2.56 4
6 -3 10 16.64 3.5 2
-6 3 -10 20.13 2.93 4
-6 3 -10 17.69 3.63 2
6 -3 10 18.31 3.86 1
-8 -2 10 10.72 3.36 2
8 2 -10 9.25 2.75 2
-8 -2 10 17 4.05 1
-8 -2 10 11.08 3.16 4
-7 -2 10 2.14 2.03 4
7 2 -10 2.29 1.64 2
-7 -2 10 1.14 2.33 1
-7 -2 10 4.95 2.64 2
6 2 -10 33.22 3.75 2
-6 -2 10 29.11 4.19 2
-6 -2 10 22.39 3.73 1
-6 -2 10 27.72 3.7 4
-5 -2 10 4.28 2.02 2
-5 -2 10 0.23 1.78 1
-5 -2 10 0.73 1.61 4
5 2 -10 2.43 1.5 1
5 2 -10 -0.3 0.84 2
-4 -2 10 7 1.88 4
-4 -2 10 7.33 2.08 1
-4 -2 10 6.61 2.11 2
4 2 -10 6.07 1.96 1
4 2 -10 8.91 2.07 2
-3 -2 10 5.45 1.73 4
3 2 -10 6.75 1.81 2
-3 -2 10 3.82 1.87 2
3 2 -10 3.32 1.5 1
-3 -2 10 4.16 1.72 1
-2 -2 10 8.19 2.08 2
2 2 -10 2.86 1.29 2
2 2 -10 5.95 1.51 4
-2 -2 10 2.99 1.58 1
2 2 -10 4.74 1.55 1
-2 -2 10 6.35 1.68 4
1 2 -10 44.4 3.42 1
-1 -2 10 47.6 3.77 1
-1 -2 10 57.19 3.53 4
1 2 -10 57.65 3.29 4
-1 -2 10 48.19 3.75 2
1 2 -10 42.27 3.36 2
0 2 -10 33.3 2.75 4
0 -2 10 29.49 3.11 2
0 -2 10 38.35 3.1 4
0 2 -10 29.98 3 1
0 -2 10 33.07 3.33 1
0 2 -10 29.37 2.99 2
-1 2 -10 0.57 1.05 4
-1 2 -10 -0.04 1.24 1
-1 2 -10 -1.2 0.96 2
1 -2 10 1.26 1.11 2
1 -2 10 0.07 1.19 1
1 -2 10 2.28 1.37 4
2 -2 10 23.52 3.11 1
2 -2 10 23.31 3.06 2
-2 2 -10 24.18 3.08 2
2 -2 10 26.9 2.91 4
-2 2 -10 26.91 2.73 4
-2 2 -10 25.69 3.18 1
3 -2 10 5.19 1.82 4
3 -2 10 5.46 1.89 2
-3 2 -10 4.46 1.63 4
3 -2 10 3.16 1.81 1
-3 2 -10 8.91 2.18 2
-3 2 -10 6.2 2.17 1
4 -2 10 23.41 3.43 2
-4 2 -10 19.53 3.41 1
4 -2 10 18.57 3.18 1
4 -2 10 23.93 3.21 4
-4 2 -10 23.53 3.02 4
-4 2 -10 26.28 3.75 2
-5 2 -10 7.02 2.6 2
-5 2 -10 3.4 1.82 4
5 -2 10 4.89 2.06 2
5 -2 10 2.29 1.92 1
5 -2 10 5.49 2.2 4
-6 2 -10 27.28 4.56 2
6 -2 10 30.73 4.5 1
6 -2 10 30.44 4.32 2
-6 2 -10 21.86 3.43 4
6 -2 10 29.9 3.92 4
-8 -1 10 45.73 4.9 4
8 1 -10 57 5.44 2
-8 -1 10 61.57 6.26 2
8 1 -10 56.06 5.4 1
-8 -1 10 63.24 6.21 1
-7 -1 10 218.78 9.24 4
7 1 -10 233.09 9.88 1
-7 -1 10 227.97 10.22 1
-7 -1 10 217.96 10.3 2
7 1 -10 223.35 9.84 2
6 1 -10 162.39 7.66 1
-6 -1 10 163.8 7.32 4
6 1 -10 154.18 7.56 2
-6 -1 10 157.7 7.98 2
-6 -1 10 149.31 7.79 1
-5 -1 10 -0.65 1.51 2
5 1 -10 1.34 1.36 1
-5 -1 10 2.4 1.64 4
5 1 -10 1.69 1.29 2
-5 -1 10 0.53 1.46 1
-4 -1 10 1198.97 26.78 1
-4 -1 10 1213.21 25.3 4
-4 -1 10 1188.83 26.87 2
4 1 -10 1155.42 26.49 2
3 1 -10 7.63 1.66 4
-3 -1 10 8.32 2.19 2
3 1 -10 10.58 2.08 1
-3 -1 10 11.59 2.32 1
-3 -1 10 2.69 1.47 4
3 1 -10 5.99 1.73 2
2 1 -10 409.24 11.69 1
2 1 -10 397.04 11.76 2
2 1 -10 391.03 10.64 4
-2 -1 10 400.02 11.75 2
-2 -1 10 398.12 11.71 1
-2 -1 10 423.57 10.95 4
-1 -1 10 168.65 6.88 1
1 1 -10 177.47 6.36 4
-1 -1 10 172.4 6.9 2
1 1 -10 161.74 6.67 2
1 1 -10 171.25 6.86 1
-1 -1 10 162.43 6.16 4
0 1 -10 7.76 1.9 1
0 1 -10 11.35 1.98 4
0 -1 10 12.2 2.22 2
0 -1 10 8.17 1.78 4
0 -1 10 8.27 2.03 1
0 1 -10 12.14 2.18 2
-1 1 -10 502.53 14 2
-1 1 -10 484.98 12.82 4
1 -1 10 490.63 13.74 1
1 -1 10 495.19 13.97 2
-1 1 -10 521 14.04 1
1 -1 10 503.85 12.96 4
-2 1 -10 13.85 2.6 2
-2 1 -10 13.87 2.32 4
2 -1 10 17.53 2.68 1
2 -1 10 12.3 2.16 4
-2 1 -10 15.41 2.71 1
2 -1 10 18.21 2.72 2
3 -1 10 45.89 3.74 4
3 -1 10 40.96 3.99 1
-3 1 -10 38.17 4.05 2
3 -1 10 42.38 3.97 2
-3 1 -10 41.55 3.77 4
-3 1 -10 41.9 4.12 1
-4 1 -10 6.47 2.19 4
4 -1 10 8.77 2.48 1
4 -1 10 2.23 1.48 4
-4 1 -10 9.24 2.62 1
4 -1 10 8.81 2.34 2
-4 1 -10 5.53 2.13 2
-5 1 -10 8.25 2.83 1
-5 1 -10 6.54 2.41 4
5 -1 10 9.72 2.69 2
-5 1 -10 6.32 2.48 2
5 -1 10 9.91 2.52 4
5 -1 10 10.44 2.96 1
6 -1 10 2.36 2.19 1
-6 1 -10 -1.64 2.47 1
-6 1 -10 0.88 1.93 4
-6 1 -10 -0.83 1.79 2
6 -1 10 1.01 1.5 4
9 0 -10 5.86 2.73 1
-9 0 10 6.91 2.53 4
9 0 -10 5.06 2.44 2
-9 0 10 6.59 3.16 2
8 0 -10 4.54 2.27 1
8 0 -10 3.65 2.1 2
-8 0 10 2.57 2.72 1
-8 0 10 2.33 1.97 4
-8 0 10 7.16 2.82 2
-7 0 10 13.46 2.79 4
-7 0 10 17.99 3.5 1
-7 0 10 13.8 3.13 2
7 0 -10 13.96 2.91 1
7 0 -10 11.97 2.78 2
-6 0 10 10.43 2.58 2
-6 0 10 7.13 2.1 4
6 0 -10 7.94 2.19 2
6 0 -10 9.45 2.37 1
-6 0 10 8.81 2.7 1
-5 0 10 -0.56 1.31 4
-5 0 10 -1.61 1.33 1
-5 0 10 0.24 1.49 2
5 0 -10 -0.46 1.12 1
5 0 -10 -0.49 0.99 2
4 0 -10 53.92 3.92 1
-4 0 10 56.04 3.6 4
4 0 -10 52.58 3.89 2
4 0 -10 55.9 3.7 4
-4 0 10 51.85 4.01 1
-4 0 10 54.49 4.12 2
3 0 -10 59.13 3.96 1
-3 0 10 53.01 3.44 4
3 0 -10 51.47 3.72 2
-3 0 10 60.35 4.07 2
3 0 -10 58.4 3.65 4
-3 0 10 63.75 4.1 1
-2 0 10 12.92 2.28 2
2 0 -10 13.6 2.23 1
-2 0 10 17.74 2.5 1
2 0 -10 10.6 1.9 4
2 0 -10 11.8 2.16 2
-2 0 10 12.09 1.89 4
1 0 -10 -0.52 0.97 4
1 0 -10 0.05 0.86 1
-1 0 10 1.14 1.02 4
-1 0 10 -0.33 0.87 2
1 0 -10 0.1 0.97 2
-1 0 10 0.53 1.22 1
0 0 -10 197.5 7.07 4
0 0 10 187.2 6.59 4
0 0 -10 194.62 7.56 2
0 0 10 197.17 7.45 2
0 0 -10 192.75 7.51 1
0 0 10 200.16 7.51 1
1 0 10 15.98 2.43 2
1 0 10 13.19 2.29 1
1 0 10 11.68 1.95 4
-1 0 -10 8 1.99 2
-1 0 -10 12.19 2.26 4
-1 0 -10 4.95 1.74 1
2 0 10 208.11 7.52 4
2 0 10 209.13 8.32 2
-2 0 -10 225.28 8.13 4
2 0 10 210.46 8.38 1
-2 0 -10 218.49 8.69 1
-2 0 -10 208.57 8.55 2
3 0 10 -0.55 0.97 4
3 0 10 -0.66 1.05 1
3 0 10 -0.03 1.06 2
-3 0 -10 -0.22 1.36 2
-3 0 -10 -2.14 1.22 1
-3 0 -10 1.19 1.6 4
4 0 10 82.78 5.04 4
-4 0 -10 89.56 6.21 1
4 0 10 76.88 5.46 2
4 0 10 77.9 5.54 1
-4 0 -10 87.72 5.54 4
-4 0 -10 85.64 6.08 2
5 0 10 18.95 2.93 4
-5 0 -10 15.94 3.29 4
-5 0 -10 12.41 3.17 2
5 0 10 22.43 3.63 1
-5 0 -10 11.61 3.12 1
-6 0 -10 5.06 2.75 4
-6 0 -10 6.71 3.14 1
-6 0 -10 6.87 2.8 2
6 0 10 6.86 2.59 2
6 0 10 7.07 2.2 4
-9 1 10 29.03 3.88 4
9 -1 -10 34.32 4.71 2
-9 1 10 29.46 4.76 2
9 -1 -10 32.34 4.68 1
-8 1 10 288.49 12.01 2
8 -1 -10 314.21 12.47 2
-8 1 10 299.57 10.63 4
8 -1 -10 314.72 12.44 1
7 -1 -10 13.93 2.88 1
7 -1 -10 8.62 2.53 2
-7 1 10 10.92 3.06 1
-7 1 10 16.93 3.18 2
-7 1 10 11.02 2.47 4
-6 1 10 245.72 8.56 4
-6 1 10 236.51 9.46 2
6 -1 -10 249.5 9.8 2
6 -1 -10 251.09 9.66 1
-6 1 10 251.95 9.63 1
5 -1 -10 425.4 12.62 2
5 -1 -10 404.25 11.6 4
-5 1 10 387.03 12.11 2
-5 1 10 376.29 10.79 4
5 -1 -10 370.73 11.96 1
-5 1 10 375.7 11.91 1
-4 1 10 655.42 16.95 2
4 -1 -10 690.24 17.38 2
4 -1 -10 674.68 16.98 1
-4 1 10 667.55 16.86 1
-4 1 10 650.92 15.42 4
4 -1 -10 689.8 16.27 4
3 -1 -10 306.21 9.81 1
3 -1 -10 314.96 9.99 2
-3 1 10 289.67 8.52 4
-3 1 10 284.93 9.45 2
-3 1 10 296.28 9.57 1
3 -1 -10 314.03 9.31 4
-2 1 10 35.45 3.16 2
2 -1 -10 39.26 3.14 4
-2 1 10 34.78 2.62 4
2 -1 -10 35.37 3.29 2
-2 1 10 37.64 3.3 1
2 -1 -10 35.14 3.14 1
-1 1 10 236.09 8.12 1
1 -1 -10 226.67 8.19 2
-1 1 10 228.77 8.08 2
1 -1 -10 237.08 8.32 1
1 -1 -10 244.7 7.97 4
-1 1 10 231.52 7.17 4
0 1 10 120.62 5.7 2
0 1 10 128.01 5.1 4
0 -1 -10 121.84 5.59 4
0 -1 -10 121.2 5.87 2
0 -1 -10 129.85 6.04 1
0 1 10 132.95 5.91 1
1 1 10 229.26 8.45 2
-1 -1 -10 228.9 8.75 1
-1 -1 -10 224.94 8.65 2
1 1 10 227.57 7.47 4
-1 -1 -10 256.92 8.57 4
1 1 10 250.2 8.6 1
2 1 10 26.23 3.08 1
2 1 10 27.9 2.72 4
-2 -1 -10 26.85 3.35 1
-2 -1 -10 22.98 3.03 4
-2 -1 -10 31.45 3.63 2
2 1 10 20.63 2.72 2
-3 -1 -10 23.54 3.3 4
-3 -1 -10 17.82 3.18 2
3 1 10 12.98 2.52 2
3 1 10 16.44 2.35 4
-3 -1 -10 17.51 3.16 1
3 1 10 20.55 3.01 1
-4 -1 -10 7.48 2.58 2
-4 -1 -10 8.59 2.86 1
4 1 10 10.39 2.17 4
-4 -1 -10 7.17 2.54 4
4 1 10 9.98 2.4 2
-5 -1 -10 6.56 2.77 1
5 1 10 7.72 2.3 2
5 1 10 8.17 2.19 4
-5 -1 -10 7.55 2.78 4
-5 -1 -10 8.92 3.07 2
-9 2 10 7.3 2.9 2
-9 2 10 8.82 2.28 4
9 -2 -10 15.42 3.49 2
9 -2 -10 12.99 3.34 1
-8 2 10 2.66 1.65 4
-8 2 10 0.22 1.65 2
8 -2 -10 1.31 1.56 1
8 -2 -10 -0.13 1.45 2
-7 2 10 3.28 1.61 4
7 -2 -10 7.28 2.32 2
-7 2 10 1.01 1.72 2
7 -2 -10 1.99 1.64 1
-6 2 10 22.14 3.19 3
6 -2 -10 26.32 3.35 1
-6 2 10 21.2 2.54 4
-6 2 10 24.54 3.3 2
6 -2 -10 24 3.25 2
-5 2 10 8.23 1.73 4
5 -2 -10 12.16 2.4 2
5 -2 -10 7.57 1.96 1
-5 2 10 11.86 2.34 2
-5 2 10 10.88 2.53 3
-4 2 10 83.3 4.66 2
-4 2 10 77.7 3.79 4
4 -2 -10 85.35 4.62 4
4 -2 -10 74.27 4.57 1
4 -2 -10 86.07 4.95 2
-4 2 10 81.94 4.69 1
-3 2 10 73.96 4.18 2
3 -2 -10 77.1 4.39 4
-3 2 10 79.93 4.47 1
-3 2 10 73.76 3.54 4
3 -2 -10 77.89 4.58 2
3 -2 -10 79.15 4.54 1
2 -2 -10 1.35 1.06 1
-2 2 10 0.57 1.24 1
-2 2 10 0.06 0.93 2
-2 2 10 1.45 0.96 4
2 -2 -10 1.36 1.22 2
2 -2 -10 0.01 1.23 4
1 -2 -10 1.15 1.42 4
1 -2 -10 0.87 1.15 1
-1 2 10 3.3 1.09 4
-1 2 10 1.96 1.19 2
-1 2 10 1.8 1.28 1
1 -2 -10 3.15 1.33 2
0 -2 -10 2.31 1.45 2
0 -2 -10 1.57 1.28 1
0 2 10 3.17 1.39 1
0 2 10 3.54 1.14 4
0 2 10 3.34 1.39 2
-1 -2 -10 17.46 2.82 2
-1 -2 -10 12.21 2.42 1
1 2 10 18.85 2.43 2
1 2 10 17.46 1.98 4
-2 -2 -10 -1.03 1.46 2
2 2 10 4.41 1.6 2
-2 -2 -10 1.75 1.53 1
2 2 10 3.67 1.23 4
3 2 10 53.21 4.11 2
3 2 10 42.59 3.15 4
-3 -2 -10 47.49 4.77 2
-3 -2 -10 54.46 4.92 1
-4 -2 -10 27.42 4.3 2
4 2 10 39.21 4.1 2
-4 -2 -10 40 4.78 1
4 2 10 32.2 3.03 4
-5 -2 -10 20.41 3.97 4
-5 -2 -10 14.76 3.54 2
5 2 10 18.22 3.34 2
5 2 10 16.55 2.46 4
-5 -2 -10 16.34 3.75 1
9 -3 -10 86.55 6.87 1
-9 3 10 85.5 4.4 4
-9 3 10 91.49 6.44 2
-8 3 10 39.84 4.36 2
8 -3 -10 48.36 4.97 1
-8 3 10 46.98 3.14 4
-7 3 10 227.33 9.35 2
7 -3 -10 227.89 9.84 1
-7 3 10 247.06 7.26 4
-7 3 10 252.09 10.07 3
6 -3 -10 100 5.89 1
-6 3 10 96.01 4.03 4
-6 3 10 102.54 5.52 2
-6 3 10 103.77 6.27 3
5 -3 -10 1171.75 26.9 1
-5 3 10 1225.44 29.13 3
-5 3 10 1203.49 22.89 4
-5 3 10 1230.05 26.32 2
-4 3 10 150.92 7.52 3
-4 3 10 153.83 4.61 4
4 -3 -10 152.27 6.62 1
-4 3 10 150.39 6.12 2
-3 3 10 593.11 14.68 2
-3 3 10 592.65 11.86 4
-3 3 10 587.52 17.07 3
3 -3 -10 573.84 15.16 1
2 -3 -10 490.62 13.48 1
-2 3 10 493.38 12.65 2
-2 3 10 502.04 10.16 4
-1 3 10 89.68 3.08 4
-1 3 10 97.45 4.65 2
1 -3 -10 83.94 4.82 1
0 3 10 519.63 13.48 2
0 3 10 532.59 10.9 4
0 -3 -10 529.66 14.56 1
1 3 10 49.05 4.36 3
1 3 10 50.44 2.5 4
-1 -3 -10 41.06 3.92 1
1 3 10 51.27 3.66 2
2 3 10 97.65 5.94 3
-2 -3 -10 101.23 6.11 1
2 3 10 99.45 5.33 2
2 3 10 112.65 4 4
3 3 10 10.69 2.5 3
-3 -3 -10 11.79 2.79 1
3 3 10 10.67 2.41 2
3 3 10 11.17 1.63 4
4 3 10 15.25 2.85 2
4 3 10 15.81 1.91 4
-4 -3 -10 10.97 3.22 1
5 3 10 12.73 1.83 4
5 3 10 12.83 2.85 2
-5 -3 -10 8.73 3.1 1
-8 4 10 1.12 1.74 2
8 -4 -10 1.05 1.77 1
-7 4 10 -0.3 2.03 3
-7 4 10 -0.6 1.44 2
7 -4 -10 0.16 1.37 1
6 -4 -10 3.92 1.71 1
-6 4 10 3.67 1.71 2
-6 4 10 4.72 2.27 3
-5 4 10 16.03 2.2 2
5 -4 -10 10.79 2.26 1
-5 4 10 10.12 2.73 3
-4 4 10 40.71 2.94 2
4 -4 -10 24.75 2.84 1
-4 4 10 23.49 3.53 3
-3 4 10 0.97 1.57 3
-3 4 10 -0.31 0.83 2
3 -4 -10 -0.8 0.96 1
-2 4 10 1.31 1.53 3
2 -4 -10 0.47 1.16 1
-2 4 10 1.26 0.91 2
-1 4 10 29.81 3.74 3
1 -4 -10 27.45 2.98 1
-1 4 10 25.89 2.31 2
0 4 10 3.46 1.9 3
0 4 10 3.56 1.28 2
0 -4 -10 5.36 1.82 1
1 4 10 29.72 3.68 3
-1 -4 -10 28.89 3.43 1
2 4 10 37.21 3.21 2
2 4 10 40.48 4.22 3
-2 -4 -10 30.75 3.89 1
3 4 10 20.14 2.69 2
-3 -4 -10 15.78 3.29 1
4 4 10 31.35 3.45 2
-4 -4 -10 28.17 4.49 1
-8 5 10 3.79 1.83 2
8 -5 -10 1.28 1.79 1
-8 5 10 4.5 2.83 3
-7 5 10 64.46 5.56 3
-7 5 10 68.14 4.02 2
7 -5 -10 62.71 5.25 1
-6 5 10 302.77 8.59 2
6 -5 -10 276.73 10.33 1
-6 5 10 283.01 12.01 3
-5 5 10 134.76 7.91 3
-5 5 10 140.44 4.96 2
5 -5 -10 148 6.85 1
-4 5 10 177.12 5.37 2
-4 5 10 181.06 8.96 3
3 -5 -10 -0.86 1.05 1
-3 5 10 0.75 0.78 2
-3 5 10 0.44 1.51 3
2 -5 -10 66.64 4.29 1
-2 5 10 69.04 2.85 2
-2 5 10 61.37 5.09 3
-1 5 10 46.74 4.73 3
1 -5 -10 58.11 4.09 1
0 5 10 15.49 3.09 3
0 5 10 19.57 1.84 2
0 -5 -10 17.42 2.81 1
-1 -5 -10 4.63 2.14 1
1 5 10 7.58 1.53 2
1 5 10 5.09 1.96 3
-2 -5 -10 1.36 1.82 1
2 5 10 0.94 1.75 3
2 5 10 2.74 1.24 2
3 5 10 2.75 1.42 2
-3 -5 -10 0.49 2.14 1
-7 6 10 10.29 3.38 3
7 -6 -10 10.06 2.78 1
6 -6 -10 2.17 1.55 1
-6 6 10 1.59 2.09 3
5 -6 -10 76.38 4.9 1
-5 6 10 70.7 5.99 3
4 -6 -10 -2.09 1.08 1
-4 6 10 0.57 1.82 3
3 -6 -10 42.37 3.7 1
-3 6 10 54.51 5.45 3
2 -6 -10 54.27 4.01 1
-2 6 10 36.88 4.63 3
-1 6 10 87.43 6.46 3
1 -6 -10 84.71 5.15 1
0 -6 -10 61.17 4.6 1
0 6 10 67.49 5.98 3
-1 -6 -10 24.32 3.55 1
1 6 10 33.88 4.39 3
-2 -6 -10 90.53 6.34 1
2 6 10 99.14 6.68 3
-6 7 10 243.49 12.02 3
6 -7 -10 209.73 8.94 1
-5 7 10 2.92 2.53 3
4 -7 -10 45.16 3.94 1
-4 7 10 43.4 5.44 3
-3 7 10 14.55 3.53 3
3 -7 -10 14.26 2.51 1
2 -7 -10 2.53 1.57 1
-2 7 10 3.59 2.24 3
-1 7 10 6.51 2.64 3
1 -7 -10 7.93 2.3 1
0 -7 -10 0.52 1.73 1
0 7 10 0.48 1.65 3
-4 8 10 2.67 2.59 3
4 -8 -10 1.79 1.79 1
3 -8 -10 2.18 1.76 1
-3 8 10 -0.47 2.05 3
-2 8 10 8.03 3.13 3
2 -8 -10 5.94 2.2 1
-3 -7 11 21.89 3.89 1
-2 -7 11 123.51 7.29 1
-1 -7 11 58.33 5.25 1
0 -7 11 169.45 8.39 1
1 -7 11 5.29 2.36 1
2 -7 11 267.86 10.85 1
3 -7 11 33.09 4.4 1
-5 -6 11 19.99 4.01 1
4 6 -11 8.91 1.97 2
-4 -6 11 5.89 2.74 1
3 6 -11 143.68 5.74 2
-3 -6 11 155.65 8.12 1
2 6 -11 2.04 1.32 2
-2 -6 11 1.92 1.78 1
1 6 -11 55.19 3.33 2
-1 -6 11 49.37 4.7 1
0 6 -11 13.56 1.97 2
0 -6 11 8.29 2.49 1
-1 6 -11 28.47 2.6 2
1 -6 11 27.87 3.74 1
2 -6 11 36.19 4.2 1
-2 6 -11 47.36 3.35 2
3 -6 11 50.72 5.02 1
-3 6 -11 50.05 3.61 2
4 -6 11 0.68 1.96 1
-4 6 -11 1.25 1.61 2
6 5 -11 12.12 2.61 2
-6 -5 11 9.86 3.19 1
5 5 -11 1.23 1.5 2
-5 -5 11 3.07 2.47 1
4 5 -11 54.14 4.02 2
-4 -5 11 37.22 4.51 1
-3 -5 11 24.32 3.61 1
3 5 -11 21.44 2.76 2
-2 -5 11 247.28 9.76 1
2 5 -11 238.14 8.28 2
1 5 -11 104.13 5.14 2
-1 -5 11 99.84 6.03 1
0 -5 11 94.49 5.91 1
0 5 -11 95.26 4.9 2
1 -5 11 468.81 14.42 1
-1 5 -11 468.37 12.86 2
2 -5 11 27.99 3.71 1
-2 5 -11 35.45 3.43 2
-3 5 -11 218.63 8.6 2
3 -5 11 218.68 9.6 1
-4 5 -11 59.94 4.59 2
4 -5 11 64.41 5.72 1
-5 5 -11 129.2 7.16 2
5 -5 11 135.13 8.37 1
6 4 -11 7.59 2.32 2
-6 -4 11 5.2 2.85 1
-5 -4 11 15.33 3.49 1
5 4 -11 16.01 2.77 2
4 4 -11 14.69 2.62 2
-4 -4 11 13.48 3.01 1
-3 -4 11 57.79 4.7 1
3 4 -11 59.9 4.14 2
2 4 -11 30.8 3.15 2
-2 -4 11 29.6 3.51 1
-1 -4 11 0 1.36 1
1 4 -11 0.73 1.11 2
0 4 -11 63.58 4.25 2
0 -4 11 55.28 4.44 1
1 -4 11 33.64 3.76 1
-1 4 -11 38.81 3.57 2
-2 4 -11 6.02 2.06 2
2 -4 11 7.99 2.4 1
-2 4 -11 11.37 1.52 4
3 -4 11 9.78 2.64 1
-3 4 -11 8.56 1.49 4
-3 4 -11 4.99 2.04 2
-4 4 -11 35.94 4.22 2
-4 4 -11 27.42 2.43 4
4 -4 11 30 4.1 1
5 -4 11 -0.1 1.76 1
-5 4 -11 -0.58 1.2 4
-5 4 -11 0.15 1.76 2
-7 -3 11 15.61 3.88 1
-7 -3 11 14.48 3.88 2
7 3 -11 12.93 2.97 2
-6 -3 11 61.02 5.86 1
6 3 -11 54.16 4.86 2
-6 -3 11 62.73 5.94 2
-5 -3 11 0.15 1.9 2
5 3 -11 -0.58 1.01 2
-5 -3 11 -0.49 1.63 1
-4 -3 11 87.59 5.79 1
-4 -3 11 99.04 6.12 2
4 3 -11 82.71 5.22 2
3 3 -11 204.5 8.14 2
-3 -3 11 210.14 8.69 1
-3 -3 11 212.8 8.94 2
-2 -3 11 47.57 4.33 2
2 3 -11 55.39 3.97 2
-2 -3 11 53.71 4.35 1
-1 -3 11 490.45 14.05 2
1 3 -11 470.01 11.57 4
-1 -3 11 449.27 13.72 1
1 3 -11 474.41 13.36 2
0 3 -11 100.64 5.38 2
0 -3 11 92.2 5.55 1
0 3 -11 91.9 4.28 4
0 -3 11 103.21 5.82 2
1 -3 11 766.45 19.37 1
1 -3 11 766.24 19.43 2
-1 3 -11 737.84 18.84 2
-1 3 -11 702.69 16.31 4
-2 3 -11 119.07 6.42 2
2 -3 11 131.92 6.89 1
2 -3 11 126.83 6.88 2
-2 3 -11 123.55 5.35 4
3 -3 11 71.17 5.25 2
-3 3 -11 71.03 4.14 4
-3 3 -11 64.36 4.83 2
3 -3 11 76.06 5.46 1
4 -3 11 319.84 12.29 2
4 -3 11 307.56 12.13 1
-4 3 -11 318.43 12.11 2
-4 3 -11 333.51 10.15 4
5 -3 11 14.04 3.52 1
5 -3 11 15.3 3.37 4
5 -3 11 8.06 2.83 2
-5 3 -11 12.71 2.48 4
-5 3 -11 6.79 2.56 2
8 2 -11 0.67 1.69 2
-8 -2 11 0.63 2.78 1
-8 -2 11 1.14 2.48 2
-8 -2 11 0.67 2.18 4
-7 -2 11 33.75 4.93 1
7 2 -11 42.09 4.59 2
-7 -2 11 38.47 5.12 2
-7 -2 11 31.29 4.35 4
6 2 -11 5.43 2.05 2
-6 -2 11 3.52 2.06 4
-6 -2 11 4.27 2.44 1
-6 -2 11 2.91 2.37 2
5 2 -11 -1.17 0.97 2
-5 -2 11 2.89 1.88 1
-5 -2 11 -0.19 1.6 4
-5 -2 11 1.99 1.91 2
-4 -2 11 19.73 2.8 4
-4 -2 11 13.28 2.76 1
4 2 -11 17.75 2.73 1
4 2 -11 17.97 2.79 2
-4 -2 11 14.38 2.86 2
-3 -2 11 54.86 4.26 2
3 2 -11 54.01 4.06 1
3 2 -11 48.36 3.9 2
-3 -2 11 48.68 3.72 4
-3 -2 11 52.79 4.41 1
-2 -2 11 15.83 2.74 2
2 2 -11 15.3 2.42 2
-2 -2 11 14.45 2.7 1
2 2 -11 19.8 2.67 1
2 2 -11 16.42 2.16 4
-2 -2 11 23.96 2.78 4
-1 -2 11 31.69 3.02 4
-1 -2 11 31.1 3.39 2
1 2 -11 27.82 2.63 4
1 2 -11 26.89 3.05 2
-1 -2 11 25.35 3.1 1
1 2 -11 34.09 3.22 1
0 -2 11 72.66 4.79 1
0 2 -11 72.44 4.62 2
0 -2 11 72.28 4.87 2
0 -2 11 71.97 4.32 4
0 2 -11 70.89 4.03 4
0 2 -11 66.22 4.46 1
1 -2 11 2.54 1.39 4
1 -2 11 3.3 1.67 1
-1 2 -11 2.6 1.36 4
1 -2 11 2.53 1.58 2
-1 2 -11 2.97 1.72 1
-1 2 -11 3.2 1.62 2
-2 2 -11 3.96 1.99 1
2 -2 11 8.26 2.19 2
-2 2 -11 5.86 1.8 4
2 -2 11 3.41 1.61 4
-2 2 -11 3.27 1.71 2
2 -2 11 4.28 1.97 1
3 -2 11 3.16 1.83 2
-3 2 -11 -0.42 1.3 4
3 -2 11 1.25 1.45 4
-3 2 -11 -0.74 1.64 1
-3 2 -11 0.77 1.51 2
3 -2 11 1.73 1.66 1
4 -2 11 -0.5 1.32 2
-4 2 -11 0.88 1.46 4
-4 2 -11 2.74 1.95 2
4 -2 11 0.58 1.36 4
4 -2 11 0.99 1.66 1
5 -2 11 27.55 3.72 4
-5 2 -11 25.37 3.46 4
-5 2 -11 32.81 4.65 2
5 -2 11 32.08 4.39 1
5 -2 11 31.36 4.35 2
-8 -1 11 32.88 5.02 1
8 1 -11 26.37 4.12 2
-8 -1 11 31.02 4.88 2
-8 -1 11 29.79 4.16 4
7 1 -11 105.56 6.65 2
-7 -1 11 91.38 6.65 2
7 1 -11 87.27 6.18 1
-7 -1 11 103.34 7.15 1
-7 -1 11 86.93 5.82 4
-6 -1 11 25.04 3.92 1
-6 -1 11 28.68 4.06 2
-6 -1 11 19.05 3.18 4
6 1 -11 25.75 3.44 2
6 1 -11 18.65 3.08 1
-5 -1 11 385.89 12.76 1
-5 -1 11 373.15 12.73 2
-5 -1 11 388.45 11.83 4
5 1 -11 374.51 12.45 2
4 1 -11 16.36 2.62 1
-4 -1 11 17.44 2.58 4
-4 -1 11 11.95 2.65 2
-4 -1 11 11.01 2.61 1
4 1 -11 8.45 2.07 2
3 1 -11 642.06 15.58 4
-3 -1 11 649.56 15.82 4
-3 -1 11 654.24 16.94 1
3 1 -11 618.61 16.79 2
3 1 -11 641.35 16.64 1
-3 -1 11 651.91 17.09 2
2 1 -11 247.73 8.19 4
2 1 -11 273.19 9.26 1
-2 -1 11 240.22 8.13 4
2 1 -11 249.41 9.01 2
-2 -1 11 262.54 9.29 1
-2 -1 11 254.09 9.18 2
-1 -1 11 181.13 7.57 1
-1 -1 11 187.5 6.95 4
-1 -1 11 169.41 7.31 2
1 1 -11 177.51 6.76 4
1 1 -11 178.91 7.38 1
1 1 -11 179.51 7.51 2
0 1 -11 1016.67 22.28 4
0 -1 11 1032.25 22.41 4
0 -1 11 1030.15 24 2
0 1 -11 1035.72 23.91 2
0 -1 11 1020.27 23.77 1
0 1 -11 1041.62 23.8 1
-1 1 -11 43.31 4 2
1 -1 11 50.45 4.11 2
1 -1 11 53.21 4.27 1
-1 1 -11 55.17 4.25 1
1 -1 11 55.31 3.76 4
-1 1 -11 49.17 3.68 4
2 -1 11 249.4 9.58 1
-2 1 -11 245.07 8.79 4
2 -1 11 255.03 8.92 4
-2 1 -11 263.41 9.94 1
-2 1 -11 265.65 10.06 2
2 -1 11 254.08 9.87 2
3 -1 11 185.82 7.83 4
-3 1 -11 206.13 9.01 1
-3 1 -11 208.04 8.35 4
3 -1 11 190.53 8.65 2
-3 1 -11 183.77 8.69 2
3 -1 11 201.68 8.88 1
-4 1 -11 176.9 8.93 2
4 -1 11 163.88 7.56 4
-4 1 -11 170.19 8.73 1
4 -1 11 153.5 8.12 2
4 -1 11 139.91 7.94 1
-4 1 -11 166.3 7.8 4
-5 1 -11 172.72 8.36 4
-5 1 -11 157.93 8.92 1
5 -1 11 171.81 9.04 1
5 -1 11 171 8.06 4
5 -1 11 164.14 8.87 2
-5 1 -11 158.77 9.04 2
8 0 -11 6.13 2.55 2
-8 0 11 4.08 2.63 2
-8 0 11 5.91 2.38 4
-8 0 11 6.67 3.2 1
8 0 -11 4.92 2.3 1
-7 0 11 7.72 2.34 4
-7 0 11 3.38 2.22 2
7 0 -11 8.02 2.55 1
7 0 -11 2.49 1.83 2
-7 0 11 4.66 2.63 1
-6 0 11 2.48 1.79 2
-6 0 11 1.24 1.74 1
-6 0 11 0.34 1.44 4
6 0 -11 -0.08 1.3 1
6 0 -11 1.06 1.22 2
5 0 -11 161.06 7.68 2
-5 0 11 181.14 8.08 1
-5 0 11 183.78 7.33 4
5 0 -11 184.66 7.94 1
-5 0 11 170.11 7.89 2
4 0 -11 41.99 3.49 4
4 0 -11 35.59 3.63 2
-4 0 11 34.39 3.7 2
-4 0 11 30.17 3.06 4
-4 0 11 37.98 3.8 1
3 0 -11 66.88 4.43 1
-3 0 11 65.63 4.42 2
-3 0 11 69.57 4.54 1
3 0 -11 65.05 4.44 2
3 0 -11 70.03 4.17 4
-3 0 11 65.03 3.89 4
2 0 -11 11.2 2.15 1
-2 0 11 9.57 1.88 4
2 0 -11 9.21 1.95 4
-2 0 11 14.07 2.37 2
2 0 -11 15.68 2.43 2
-2 0 11 9.75 2.19 1
1 0 -11 22.88 2.84 1
1 0 -11 19.48 2.56 4
1 0 -11 22.58 2.85 2
-1 0 11 23.49 2.94 2
-1 0 11 20.89 2.41 4
-1 0 11 21.78 2.78 1
0 0 -11 12.78 2.41 2
0 0 -11 7.37 1.96 1
0 0 11 9.28 2.05 2
0 0 -11 9.66 2.08 4
0 0 11 11.07 1.9 4
0 0 11 9.03 2.15 1
1 0 11 50.09 4.16 1
1 0 11 53.28 3.61 4
-1 0 -11 45.99 4.14 2
-1 0 -11 53.62 3.96 4
-1 0 -11 54.48 4.28 1
1 0 11 55.31 4.16 2
-2 0 -11 0.49 1.55 2
2 0 11 2.17 1.53 2
-2 0 -11 0.06 1.44 4
2 0 11 3.18 1.75 1
-2 0 -11 1.49 1.6 1
2 0 11 1.61 1.2 4
-3 0 -11 16.88 3.22 1
-3 0 -11 9.87 2.64 2
3 0 11 21.4 3.26 1
-3 0 -11 23.02 3.33 4
3 0 11 20.93 2.83 4
3 0 11 10.15 2.44 2
-4 0 -11 59.59 5.57 1
-4 0 -11 52.5 4.87 4
4 0 11 62.68 5.29 1
4 0 11 46.46 4.7 2
-4 0 -11 55.32 5.5 2
4 0 11 57.87 4.38 4
-5 0 -11 1.52 2.17 2
5 0 11 1.58 1.88 1
-5 0 -11 4.92 2.62 1
5 0 11 4.29 1.82 4
5 0 11 2.65 1.72 2
-5 0 -11 2.55 2.2 4
8 -1 -11 2.39 1.93 2
-8 1 11 -0.59 1.96 2
-8 1 11 3.25 1.9 4
8 -1 -11 2.3 1.85 1
-7 1 11 55.97 5.22 2
-7 1 11 56.52 4.34 4
7 -1 -11 74.53 5.52 2
7 -1 -11 65.5 5.41 1
6 -1 -11 110.25 6.43 2
6 -1 -11 117.88 6.6 1
-6 1 11 128.5 6.91 1
-6 1 11 127.91 6.81 2
-6 1 11 103.34 5.49 4
5 -1 -11 95.33 5.67 2
-5 1 11 86.78 5.42 1
5 -1 -11 90.12 5.17 4
-5 1 11 91.23 4.79 4
5 -1 -11 88.42 5.44 1
-5 1 11 80.05 5.25 2
4 -1 -11 470.71 13.87 2
4 -1 -11 469.86 12.89 4
-4 1 11 463.56 13.56 2
-4 1 11 474.02 13.6 1
-4 1 11 466.22 12.22 4
-3 1 11 0.42 1.41 1
-3 1 11 0.95 1.36 2
3 -1 -11 -1.18 0.97 1
3 -1 -11 1.73 1.34 2
3 -1 -11 -0.01 1.21 4
-3 1 11 -0.25 1.02 4
-2 1 11 636.94 16.05 2
2 -1 -11 638.9 15.47 4
2 -1 -11 591.95 16.01 1
2 -1 -11 605.94 16.3 2
-2 1 11 606.58 14.43 4
-2 1 11 630.45 15.96 1
1 -1 -11 393.46 12.08 1
1 -1 -11 414.68 12.35 2
-1 1 11 395.97 11.74 1
-1 1 11 400.04 10.64 4
1 -1 -11 413.21 11.56 4
-1 1 11 380.68 11.7 2
0 -1 -11 751.3 18.98 1
0 1 11 734.87 18.72 2
0 1 11 743.52 16.93 4
0 -1 -11 735.6 18.98 2
0 1 11 783.91 18.67 1
0 -1 -11 767.58 18.11 4
-1 -1 -11 210.61 8.68 2
1 1 11 199.65 7.06 4
1 1 11 212.22 8.25 1
-1 -1 -11 198.44 8.02 4
1 1 11 220.15 8.39 2
-1 -1 -11 210.66 8.61 1
-2 -1 -11 3.52 1.94 1
-2 -1 -11 4.17 1.91 2
-2 -1 -11 5.06 2.15 4
2 1 11 5.25 1.63 4
2 1 11 4.77 1.95 1
2 1 11 5.52 1.78 2
-3 -1 -11 421.86 13.16 4
-3 -1 -11 401.97 14.08 2
-3 -1 -11 397.96 13.79 1
3 1 11 412.11 11.73 4
3 1 11 370.07 12.99 2
-4 -1 -11 -0.41 1.95 4
-4 -1 -11 -0.23 1.83 2
4 1 11 1.01 1.24 4
-4 -1 -11 0.84 2.09 1
4 1 11 0.78 1.32 2
-5 -1 -11 171.51 9.02 4
5 1 11 159.93 8.51 2
5 1 11 154.33 7.21 4
-8 2 11 22.26 3.82 2
8 -2 -11 30.98 4.33 2
-8 2 11 22.52 3.03 4
8 -2 -11 29.83 4.31 1
-7 2 11 0.15 1.28 4
7 -2 -11 2.07 1.71 2
-7 2 11 0.52 2.01 3
7 -2 -11 4.01 1.87 1
-7 2 11 2.72 1.91 2
-6 2 11 0.45 1.18 4
6 -2 -11 -0.09 1.36 2
-6 2 11 1.43 1.5 2
-6 2 11 -0.96 1.59 3
6 -2 -11 0.64 1.36 1
5 -2 -11 5.58 1.94 1
5 -2 -11 5 1.86 2
-5 2 11 2.11 1.46 2
-5 2 11 2.68 1.33 4
-4 2 11 36.51 2.71 4
-4 2 11 38.29 3.54 2
4 -2 -11 41.81 3.85 2
3 -2 -11 16.85 2.55 1
-3 2 11 15.71 2.45 2
-3 2 11 18.63 2.04 4
3 -2 -11 19.1 2.68 2
-2 2 11 103.51 5.33 2
2 -2 -11 109.28 5.68 2
-2 2 11 110.57 4.45 4
2 -2 -11 107.24 5.63 1
-1 2 11 127.9 4.88 4
1 -2 -11 128.62 6.28 1
-1 2 11 127.09 5.92 2
1 -2 -11 134.97 6.47 2
0 -2 -11 25.94 3.3 2
0 2 11 31.78 2.54 4
0 2 11 31.59 3.14 2
0 -2 -11 34.84 3.53 1
-1 -2 -11 63.51 4.79 2
-1 -2 -11 57.22 4.42 1
1 2 11 53.71 3.98 2
1 2 11 54.09 3.28 4
2 2 11 36.15 2.83 4
-2 -2 -11 29.69 3.87 2
-2 -2 -11 41.11 4.29 1
2 2 11 34.49 3.58 2
-3 -2 -11 3.42 2.21 2
-3 -2 -11 0.5 1.71 1
3 2 11 1.26 1.18 2
3 2 11 0.15 1.07 4
4 2 11 113.29 5.42 4
4 2 11 114.05 6.65 2
-4 -2 -11 93.4 7 1
5 2 11 2.12 1.41 4
-5 -2 -11 1.63 2.65 2
5 2 11 -1.32 1.3 2
-5 -2 -11 2.91 2.68 1
-5 -2 -11 1.5 2.7 4
-8 3 11 43.15 3.06 4
8 -3 -11 41.93 4.88 1
-8 3 11 41.73 4.67 2
-7 3 11 4.87 1.54 4
7 -3 -11 8.31 2.55 1
-7 3 11 4.72 2.35 3
-7 3 11 5.01 2.2 2
-6 3 11 263.97 10.76 3
-6 3 11 258.46 7.3 4
-6 3 11 254.88 9.47 2
6 -3 -11 264.57 10.2 1
-5 3 11 36.39 2.4 4
-5 3 11 32.84 4.02 3
5 -3 -11 34.78 3.65 1
-5 3 11 32.92 3.41 2
-4 3 11 315.39 10.05 2
-4 3 11 334.46 12.17 3
-4 3 11 312.87 7.77 4
3 -3 -11 403.22 12.43 1
-3 3 11 415.16 9.22 4
-3 3 11 420.68 14.14 3
-3 3 11 427.03 11.9 2
2 -3 -11 43.11 3.77 1
-2 3 11 42.8 3.32 2
-2 3 11 44.7 2.29 4
1 -3 -11 1259.46 27.97 1
-1 3 11 1246.42 23.25 4
-1 3 11 1262.17 26.92 2
0 3 11 38.12 3.26 2
0 3 11 37.7 2.14 4
0 -3 -11 35.96 3.73 1
1 3 11 288.46 11.2 3
1 3 11 295.4 7.43 4
1 3 11 290.5 9.78 2
-1 -3 -11 294.19 10.8 1
2 3 11 108.81 6.61 3
-2 -3 -11 105.09 6.55 1
2 3 11 117.21 6.02 2
2 3 11 120.39 4.35 4
3 3 11 188.66 8.19 2
3 3 11 199.27 8.85 3
-3 -3 -11 192.15 9.4 1
3 3 11 179.35 5.84 4
4 3 11 67.36 5.06 2
-4 -3 -11 54.13 5.83 1
4 3 11 62.25 3.4 4
8 -4 -11 35.39 4.64 1
-8 4 11 27.83 3.69 2
-7 4 11 3.87 2.4 3
7 -4 -11 4.28 2.06 1
-7 4 11 0.87 1.5 2
-6 4 11 8.34 2.78 3
6 -4 -11 13.79 2.76 1
-6 4 11 8.36 2.14 2
-5 4 11 5.62 1.68 2
5 -4 -11 2.74 1.68 1
-5 4 11 2.27 1.99 3
-4 4 11 76.03 5.8 3
-4 4 11 84.13 4.37 2
-3 4 11 15.69 2.13 2
3 -4 -11 14.91 2.47 1
-3 4 11 17.1 3.32 3
-2 4 11 189.71 9.03 3
-2 4 11 199.43 6.8 2
2 -4 -11 190.8 7.82 1
-1 4 11 -0.73 0.74 2
-1 4 11 0.34 1.51 3
1 -4 -11 0.43 1.26 1
0 -4 -11 80.98 5.25 1
0 4 11 79.65 5.72 3
0 4 11 82.76 4.37 2
1 4 11 0.98 1.54 3
-1 -4 -11 2.6 1.9 1
1 4 11 3.3 1.36 2
2 4 11 12.76 2.31 2
2 4 11 12.47 2.84 3
-2 -4 -11 10.12 2.79 1
3 4 11 51.32 4.03 2
-3 -4 -11 51.13 5.3 1
-8 5 11 80.8 4.88 2
-8 5 11 97.26 7.13 3
8 -5 -11 83.43 6.25 1
-7 5 11 179.13 9.63 3
7 -5 -11 195.67 8.99 1
-7 5 11 177.18 6.92 2
-6 5 11 132.58 8.08 3
-6 5 11 120 5.32 2
6 -5 -11 131.44 6.97 1
-5 5 11 325.9 13.27 3
5 -5 -11 341.41 11.51 1
-5 5 11 358.67 9.36 2
-4 5 11 1.12 1.79 3
-4 5 11 0.53 0.9 2
4 -5 -11 -0.2 1.4 1
-3 5 11 340.13 8.52 2
3 -5 -11 323.53 10.94 1
2 -5 -11 230.97 8.92 1
-2 5 11 222.68 10.49 3
-2 5 11 239.19 6.7 2
1 -5 -11 356.04 11.68 1
-1 5 11 335.77 13.23 3
0 5 11 79.84 6.06 3
0 -5 -11 76.54 5.37 1
0 5 11 81.65 3.8 2
-1 -5 -11 8.1 2.4 1
1 5 11 6.95 1.56 2
1 5 11 5.8 2.44 3
2 5 11 156.62 6.18 2
-2 -5 -11 165.71 8.65 1
2 5 11 157.48 8.49 3
-7 6 11 32.01 4.98 3
7 -6 -11 29.82 4.01 1
-6 6 11 -0.14 1.8 3
6 -6 -11 -0.11 1.48 1
-5 6 11 5.55 2.72 3
4 -6 -11 3.69 1.73 1
-4 6 11 1.57 1.98 3
3 -6 -11 3 1.62 1
-3 6 11 1.6 1.93 3
2 -6 -11 0.6 1.41 1
-2 6 11 2.53 1.98 3
1 -6 -11 -1.1 1.43 1
-1 6 11 0.53 1.8 3
0 -6 -11 1.12 1.79 1
0 6 11 -0.34 1.44 3
-1 -6 -11 0.83 1.79 1
1 6 11 2.04 1.9 3
5 -7 -11 71.03 5.09 1
-5 7 11 64.32 6.68 3
4 -7 -11 163.85 7.61 1
-4 7 11 159.25 9.62 3
3 -7 -11 -0.57 1.58 1
-3 7 11 5.62 2.76 3
-2 7 11 361.18 15.06 3
2 -7 -11 385.14 12.37 1
1 -7 -11 -0.03 1.6 1
-1 7 11 2.56 2.15 3
-2 -7 12 2.71 2.48 1
-1 -7 12 3.81 2.5 1
0 -7 12 3.72 2.37 1
1 -7 12 8.34 2.83 1
4 6 -12 13.5 2.39 2
-4 -6 12 11.2 3.3 1
-3 -6 12 1.43 2.07 1
3 6 -12 0.59 1.33 2
2 6 -12 32.58 2.98 2
-2 -6 12 30.99 4.31 1
1 6 -12 2.44 1.42 2
-1 -6 12 2.73 2 1
0 -6 12 7.68 2.59 1
0 6 -12 4.6 1.64 2
-1 6 -12 16.94 2.38 2
1 -6 12 21.76 3.7 1
2 -6 12 3.07 2.07 1
-2 6 -12 4.92 1.82 2
-3 6 -12 1.17 1.7 2
3 -6 12 1.95 1.97 1
5 5 -12 21.29 3.14 2
-5 -5 12 19.07 3.96 1
4 5 -12 11.27 2.45 2
-4 -5 12 13.17 3.29 1
-3 -5 12 13.74 3.16 1
3 5 -12 8.39 2.16 2
-2 -5 12 5.58 2.26 1
2 5 -12 0.86 1.34 2
1 5 -12 5.04 1.84 2
-1 -5 12 2.85 2.03 1
0 -5 12 23.46 3.56 1
0 5 -12 20.94 2.77 2
-1 5 -12 0.26 1.49 2
1 -5 12 2.35 1.91 1
-2 5 -12 128.41 6.47 2
2 -5 12 126.77 7.31 1
-3 5 -12 1.67 1.7 2
3 -5 12 1.41 1.83 1
4 -5 12 12.8 3.34 1
-4 5 -12 10.95 2.77 2
-6 -4 12 117.6 7.93 1
6 4 -12 120.4 6.91 2
5 4 -12 44.02 4.35 2
-5 -4 12 60.48 5.72 1
-4 -4 12 44.78 4.85 1
4 4 -12 47.46 4.22 2
3 4 -12 175.77 7.7 2
-3 -4 12 195.12 8.84 1
2 4 -12 12.44 2.43 2
-2 -4 12 7.62 2.41 1
-1 -4 12 175.45 8.2 1
1 4 -12 178.86 7.56 2
0 4 -12 0.19 1.42 2
0 -4 12 0.13 1.54 1
-1 4 -12 137.9 4.9 4
1 -4 12 150.4 7.56 1
-1 4 -12 142.09 6.88 2
-2 4 -12 0.9 1.61 2
2 -4 12 -0.13 1.45 1
-2 4 -12 2.08 1.09 4
3 -4 12 0.4 1.63 1
-3 4 -12 3.29 1.32 4
-3 4 -12 0.42 1.72 2
4 -4 12 37.48 4.71 1
-4 4 -12 33.39 2.72 4
-4 4 -12 23.02 3.82 2
-7 -3 12 -0.4 2.32 1
7 3 -12 -0.31 1.68 2
-7 -3 12 0.65 2.49 2
-6 -3 12 40.21 5.19 2
6 3 -12 37.57 4.21 2
-6 -3 12 24.89 4.27 1
-5 -3 12 9.51 2.99 2
-5 -3 12 2.49 2.32 1
5 3 -12 1.22 1.44 2
4 3 -12 9.37 2.2 2
-4 -3 12 9.37 2.83 2
-4 -3 12 3.54 2.14 1
-3 -3 12 52.38 4.75 1
3 3 -12 53.06 4.18 2
-3 -3 12 64.17 5.02 2
-2 -3 12 35.55 3.95 1
2 3 -12 35.5 3.62 2
-2 -3 12 42.8 4.33 2
-1 -3 12 2.15 1.84 2
1 3 -12 2.5 1.26 4
-1 -3 12 0.67 1.55 1
1 3 -12 0.95 1.34 2
0 -3 12 17.83 3.14 2
0 3 -12 16.98 2.13 4
0 -3 12 16.62 2.99 1
0 3 -12 17.72 2.76 2
1 -3 12 94.38 5.86 1
-1 3 -12 77.59 5.15 2
1 -3 12 87 5.67 2
-1 3 -12 82.21 4.31 4
2 -3 12 -0.35 1.53 1
2 -3 12 1.59 1.65 2
-2 3 -12 0.01 1.33 2
-2 3 -12 -0.63 1.02 4
-3 3 -12 48.22 3.68 4
3 -3 12 55.55 5.14 2
-3 3 -12 40.32 4.43 2
3 -3 12 56.3 5.17 1
4 -3 12 127.85 7.68 2
-4 3 -12 117.09 6.03 4
4 -3 12 127.03 7.14 4
-4 3 -12 120.51 7.44 2
4 -3 12 108.96 7.28 1
5 -3 12 72.5 5.69 4
-5 3 -12 68.98 4.77 4
5 -3 12 60.09 5.98 2
-5 3 -12 63.44 6.14 2
5 -3 12 74.77 6.68 1
-7 -2 12 132.7 7.7 4
7 2 -12 140.87 7.96 2
-7 -2 12 126.41 8.21 2
-7 -2 12 127.86 8.28 1
-6 -2 12 0.23 2.09 1
-6 -2 12 1.3 2.1 2
-6 -2 12 -0.46 1.86 4
6 2 -12 2.39 1.61 2
-5 -2 12 131.32 7.44 2
-5 -2 12 122.61 7.31 1
-5 -2 12 136.46 6.88 4
5 2 -12 124.51 6.87 2
5 2 -12 130.7 7 1
4 2 -12 51.89 4.24 2
-4 -2 12 48.76 4.66 1
-4 -2 12 44.01 3.99 4
-4 -2 12 59.88 5.26 2
4 2 -12 47.01 4.16 1
-3 -2 12 67.46 4.97 2
-3 -2 12 71.07 4.66 4
3 2 -12 70.92 4.83 2
3 2 -12 77.84 5.02 1
-3 -2 12 65.49 4.96 1
2 2 -12 123.55 6.35 1
-2 -2 12 130.12 6.71 2
-2 -2 12 124.19 6.02 4
-2 -2 12 141.27 6.96 1
2 2 -12 128.19 5.64 4
2 2 -12 130.89 6.46 2
-1 -2 12 30.36 3.16 4
-1 -2 12 32.8 3.65 2
-1 -2 12 30.92 3.61 1
1 2 -12 29.05 3.34 2
1 2 -12 28.81 2.85 4
1 2 -12 35.3 3.53 1
0 2 -12 111.57 5.4 4
0 -2 12 126.15 6.06 4
0 -2 12 125.73 6.6 1
0 -2 12 133.3 6.78 2
0 2 -12 113.77 6.2 2
0 2 -12 113.75 6.15 1
1 -2 12 39.57 4.03 1
-1 2 -12 35.8 3.83 1
-1 2 -12 36.93 4 2
-1 2 -12 25.17 2.89 4
1 -2 12 33.22 3.72 2
1 -2 12 39.98 3.62 4
-2 2 -12 1.07 2.02 1
-2 2 -12 1.22 1.34 4
2 -2 12 5.07 1.91 2
2 -2 12 1.53 1.46 4
-2 2 -12 -0.85 1.35 2
2 -2 12 1.22 1.64 1
-3 2 -12 21.28 3.61 2
-3 2 -12 18.4 2.91 4
3 -2 12 30.21 3.56 4
3 -2 12 22.98 3.63 2
3 -2 12 25.36 3.8 1
4 -2 12 7.67 2.74 1
4 -2 12 3.91 1.99 4
-4 2 -12 6.24 2.52 2
4 -2 12 6.89 2.43 2
-4 2 -12 3.34 1.99 4
-5 2 -12 9.26 2.55 4
5 -2 12 10.47 3.14 1
5 -2 12 9.14 2.7 4
-5 2 -12 9.62 3.26 2
5 -2 12 5.9 2.43 2
-8 -1 12 19.7 3.67 4
-8 -1 12 21.12 4.47 1
8 1 -12 21.59 3.96 2
-8 -1 12 17.73 4 2
-7 -1 12 0.62 2.1 2
7 1 -12 2.58 1.7 2
-7 -1 12 2.08 1.87 4
-7 -1 12 4.14 2.69 1
7 1 -12 2.14 2.04 1
-6 -1 12 53.39 4.76 4
-6 -1 12 64.07 5.72 1
6 1 -12 60.35 4.96 2
-6 -1 12 63.07 5.66 2
6 1 -12 64.16 5.07 1
5 1 -12 23.49 3.4 2
-5 -1 12 26.32 3.9 2
5 1 -12 22.29 3.21 1
-5 -1 12 25.45 3.33 4
-5 -1 12 23.4 3.7 1
-4 -1 12 34.45 3.93 1
4 1 -12 21.54 3.12 2
-4 -1 12 30.61 3.83 2
-4 -1 12 24.68 3.16 4
4 1 -12 27.47 3.36 1
-3 -1 12 11.88 2.65 1
3 1 -12 10.55 2.41 2
3 1 -12 8.99 2.24 1
3 1 -12 8.52 1.99 4
-3 -1 12 12.01 2.67 2
-3 -1 12 10.36 2.2 4
-2 -1 12 17.28 2.47 4
2 1 -12 15.76 2.33 4
2 1 -12 13.54 2.47 2
-2 -1 12 12.72 2.63 2
2 1 -12 17.14 2.64 1
-2 -1 12 11.37 2.61 1
1 1 -12 191.59 8.15 2
1 1 -12 200.12 8.08 1
-1 -1 12 193.14 8.18 1
-1 -1 12 181.42 7.96 2
-1 -1 12 193.26 7.35 4
1 1 -12 187.91 7.3 4
0 1 -12 7.48 2.19 1
0 1 -12 7.63 2.07 2
0 -1 12 5.91 2.15 1
0 -1 12 7.01 2.12 2
0 -1 12 9.64 2.06 4
0 1 -12 8.24 1.97 4
-1 1 -12 482.35 14.99 2
-1 1 -12 494.24 13.52 4
-1 1 -12 482.86 14.65 1
1 -1 12 484.52 13.55 4
1 -1 12 481.76 14.86 2
1 -1 12 475.46 14.51 1
-2 1 -12 20.78 3.06 4
2 -1 12 24.13 3 4
2 -1 12 25.26 3.58 1
-2 1 -12 19.26 3.33 2
-2 1 -12 20.42 3.41 1
2 -1 12 18.62 3.16 2
-3 1 -12 108.2 6.73 1
3 -1 12 118.18 6.96 1
3 -1 12 101.59 5.81 4
-3 1 -12 99.17 6.53 2
-3 1 -12 97.73 5.76 4
3 -1 12 98.79 6.38 2
4 -1 12 132.12 7 4
-4 1 -12 123.87 7.89 2
-4 1 -12 143.06 7.49 4
4 -1 12 137.75 7.95 2
-4 1 -12 136.1 8.22 1
4 -1 12 141.91 8.16 1
5 -1 12 30.2 3.91 4
5 -1 12 30.84 4.61 1
-5 1 -12 26 4.03 4
5 -1 12 27.37 4.28 2
-8 0 12 3.84 2.99 1
-8 0 12 2.85 2.06 4
8 0 -12 1.3 1.69 2
8 0 -12 4.05 2.32 1
-8 0 12 -0.1 2.12 2
7 0 -12 118.99 7.31 1
-7 0 12 124.99 7.61 2
-7 0 12 124.32 6.73 4
-7 0 12 122.74 7.6 1
7 0 -12 109.07 7.04 2
-6 0 12 11.24 2.49 4
6 0 -12 8.51 2.53 1
-6 0 12 8.64 2.53 2
-6 0 12 12.54 3.14 1
6 0 -12 8.02 2.38 2
5 0 -12 64.87 4.91 2
-5 0 12 51.84 4.9 2
-5 0 12 59.33 4.28 4
-5 0 12 61.82 4.84 1
4 0 -12 16.86 2.59 4
-4 0 12 16 2.89 2
-4 0 12 14.71 2.9 1
4 0 -12 9.46 2.37 2
-4 0 12 16.4 2.56 4
4 0 -12 14.78 2.63 1
-3 0 12 0.48 1.25 2
3 0 -12 0.53 1.16 2
-3 0 12 0.08 1.41 1
-3 0 12 -0.29 0.96 4
3 0 -12 0.47 1.28 1
3 0 -12 0.24 1.09 4
-2 0 12 44.55 4.06 2
-2 0 12 45.71 3.38 4
2 0 -12 50.6 3.83 4
2 0 -12 53.02 4.06 1
-2 0 12 48.06 4.17 1
2 0 -12 43.47 3.97 2
-1 0 12 6.5 1.68 4
-1 0 12 2.05 1.66 1
-1 0 12 7.75 2.11 2
1 0 -12 3.2 1.71 2
1 0 -12 4.31 1.65 4
1 0 -12 2.89 1.59 1
0 0 -12 82.23 5.33 2
0 0 -12 87.13 5.36 1
0 0 12 82.5 4.57 4
0 0 12 81.34 5.18 1
0 0 -12 85.02 5.01 4
0 0 12 82.06 5.1 2
1 0 12 14.16 2.72 1
-1 0 -12 9.89 2.52 1
1 0 12 12.52 2.25 4
1 0 12 10.65 2.5 2
-1 0 -12 12.93 2.68 2
-1 0 -12 9.58 2.4 4
-2 0 -12 2.25 1.82 4
-2 0 -12 3.3 2.01 1
2 0 12 6.5 2.23 1
-2 0 -12 6.65 2.34 2
2 0 12 2.99 1.6 4
2 0 12 3.86 1.79 2
3 0 12 7.62 2.37 2
-3 0 -12 8.76 2.62 4
-3 0 -12 6.55 2.41 2
3 0 12 5.69 1.98 4
-3 0 -12 4.61 2.29 1
3 0 12 5.3 2.26 1
-4 0 -12 0.88 1.88 4
4 0 12 1.11 1.96 1
-4 0 -12 -0.1 2 1
4 0 12 -0.3 1.38 2
-4 0 -12 -0.4 1.8 2
4 0 12 0.8 1.38 4
-5 0 -12 1.87 2.43 2
5 0 12 0.21 1.37 4
5 0 12 1.88 1.97 2
-5 0 -12 -0.28 2.28 1
-5 0 -12 1.01 2.23 4
-8 1 12 1.01 1.64 4
8 -1 -12 1.24 1.89 1
8 -1 -12 2.66 1.96 2
-8 1 12 -0.63 2.01 2
-7 1 12 2.67 1.71 4
7 -1 -12 1.28 1.65 2
-7 1 12 1.15 1.83 2
7 -1 -12 3.82 2 1
-6 1 12 10.56 2.97 1
-6 1 12 13.03 2.89 2
6 -1 -12 18.18 3.21 2
-6 1 12 7.95 2.14 4
6 -1 -12 13.98 2.86 1
-5 1 12 109.9 6.33 1
5 -1 -12 97.35 5.57 4
-5 1 12 101.02 5.23 4
-5 1 12 109.24 6.19 2
5 -1 -12 105.78 6.26 2
-4 1 12 10.92 2.57 1
-4 1 12 11.71 2.55 2
4 -1 -12 7.95 2.22 1
4 -1 -12 15.97 2.73 2
4 -1 -12 11.49 2.33 4
-4 1 12 9.91 2.14 4
-3 1 12 118.41 6.14 1
-3 1 12 105.6 5.08 4
-3 1 12 125.76 6.17 2
3 -1 -12 118.73 6.26 2
3 -1 -12 111.42 6.03 1
3 -1 -12 122.96 5.92 4
2 -1 -12 43.42 3.96 2
2 -1 -12 50.97 3.82 4
2 -1 -12 45.14 3.95 1
-2 1 12 44.8 3.94 1
-2 1 12 45.09 3.24 4
-2 1 12 48.32 3.92 2
-1 1 12 145.69 6.62 1
-1 1 12 121.54 5.4 4
1 -1 -12 125.64 6.47 1
1 -1 -12 131.1 6.74 2
1 -1 -12 129.59 6.15 4
-1 1 12 132.58 6.35 2
0 -1 -12 332.76 10.7 4
0 1 12 321.1 11.04 2
0 1 12 328.67 10.93 1
0 -1 -12 320.4 11.29 2
0 1 12 319.31 9.61 4
0 -1 -12 333.48 11.41 1
-1 -1 -12 59.36 4.63 4
1 1 12 49.59 4.04 2
-1 -1 -12 54.43 4.78 2
-1 -1 -12 49.41 4.52 1
1 1 12 58.17 4.57 1
1 1 12 47.34 3.49 4
-2 -1 -12 187.25 8.98 2
-2 -1 -12 198.45 9.15 1
2 1 12 205.83 8.83 1
2 1 12 188.7 8.46 2
-2 -1 -12 199.01 8.59 4
2 1 12 193.38 7.46 4
-3 -1 -12 25.86 4.05 2
3 1 12 39.62 3.6 4
-3 -1 -12 28.69 4.15 1
-3 -1 -12 23.23 3.74 4
3 1 12 32.77 4 2
4 1 12 118.32 7.18 2
4 1 12 104.12 5.74 4
-4 -1 -12 109.87 7.68 1
-4 -1 -12 105.39 6.98 4
8 -2 -12 135.96 8.15 1
-8 2 12 131.25 6.25 4
8 -2 -12 133.62 8.11 2
-8 2 12 101.48 7.11 2
7 -2 -12 1.29 1.75 2
-7 2 12 4.45 2.21 2
-7 2 12 1.43 2.05 3
7 -2 -12 1.46 1.65 1
-7 2 12 0.65 1.39 4
-6 2 12 170.68 8.11 2
6 -2 -12 191.12 8.78 1
-6 2 12 185.66 6.99 4
6 -2 -12 187.79 8.82 2
-6 2 12 187.4 9.02 3
5 -2 -12 2.27 1.53 2
5 -2 -12 0.23 1.14 1
-5 2 12 1.61 1.29 4
-5 2 12 1.77 1.49 2
-4 2 12 58.84 3.51 4
-4 2 12 48.87 3.94 2
4 -2 -12 59.29 4.56 2
4 -2 -12 48.12 4.21 1
3 -2 -12 40.16 3.93 2
-3 2 12 38.1 3.61 2
-3 2 12 33.04 2.64 4
3 -2 -12 40.4 3.79 1
2 -2 -12 32.61 3.47 1
2 -2 -12 29.28 3.35 2
-2 2 12 25.74 3.04 2
-2 2 12 31.54 2.62 4
-1 2 12 50.11 3.1 4
1 -2 -12 47.62 4.16 1
-1 2 12 56.88 4.15 2
1 -2 -12 45.11 4.2 2
0 -2 -12 59.38 4.71 2
0 2 12 53.71 3.31 4
0 2 12 56.16 4.12 2
0 -2 -12 51.08 4.47 1
1 2 12 6.47 1.83 2
1 2 12 12.09 1.93 4
-1 -2 -12 7.3 2.45 2
-1 -2 -12 8.89 2.46 1
2 2 12 7.21 1.71 4
-2 -2 -12 6.14 2.39 1
-2 -2 -12 7.27 2.46 2
2 2 12 1.55 1.28 2
-3 -2 -12 3.15 2.41 1
-3 -2 -12 1.44 2.13 2
3 2 12 1.16 1.29 4
3 2 12 2.46 1.59 2
-4 -2 -12 13.39 3.6 1
4 2 12 6.54 1.88 4
-4 -2 -12 4.21 2.76 2
-8 3 12 30.72 4.24 2
8 -3 -12 31.6 4.42 1
-8 3 12 29.73 2.72 4
-7 3 12 0.23 1.14 4
7 -3 -12 0.03 1.45 1
-7 3 12 1.07 1.55 2
-7 3 12 2.94 2.34 3
-6 3 12 1.52 2.06 3
-6 3 12 0.83 1.16 4
6 -3 -12 2.29 1.62 1
-6 3 12 -0.2 1.46 2
-5 3 12 92.52 5.37 2
-5 3 12 98.26 4.02 4
-5 3 12 94.96 6.51 3
5 -3 -12 97.88 5.82 1
4 -3 -12 11.69 2.49 1
-4 3 12 21.44 3.59 3
-4 3 12 19.57 1.87 4
-4 3 12 15.9 2.57 2
3 -3 -12 9.62 2.25 1
-3 3 12 10.95 1.43 4
-3 3 12 12.58 2.29 2
-2 3 12 10.78 1.39 4
-2 3 12 11.34 2.2 2
2 -3 -12 18.33 2.81 1
-1 3 12 28.81 2.03 4
1 -3 -12 29.51 3.39 1
-1 3 12 37.28 3.38 2
0 -3 -12 46.88 4.32 1
0 3 12 39.29 2.32 4
0 3 12 44.23 3.58 2
1 3 12 129.93 4.5 4
1 3 12 132.48 6.46 2
-1 -3 -12 126.29 7.1 1
1 3 12 119.74 7.21 3
2 3 12 0.29 0.92 4
2 3 12 0.61 1.27 2
-2 -3 -12 -0.37 1.8 1
2 3 12 1.16 1.7 3
3 3 12 213.31 6.53 4
3 3 12 229.32 9.99 3
-3 -3 -12 213.05 10.4 1
8 -4 -12 15.41 3.53 1
-8 4 12 8.73 2.49 2
-7 4 12 71.84 4.98 2
7 -4 -12 66.27 5.45 1
-7 4 12 74.06 6.16 3
6 -4 -12 5.76 2.24 1
-6 4 12 4.29 1.85 2
-6 4 12 6.82 2.79 3
-5 4 12 18.75 3.57 3
-5 4 12 20.74 2.81 2
-4 4 12 17.84 3.55 3
-4 4 12 16.97 2.41 2
4 -4 -12 13.59 2.7 1
-3 4 12 17.78 2.34 2
3 -4 -12 17.41 2.84 1
-3 4 12 19.02 3.62 3
-2 4 12 25.91 2.62 2
-2 4 12 22.7 3.8 3
2 -4 -12 19.75 3.04 1
1 -4 -12 39.29 3.93 1
-1 4 12 37.19 4.54 3
-1 4 12 37.08 3.11 2
0 4 12 14.64 3.08 3
0 4 12 9.71 2 2
0 -4 -12 9.08 2.46 1
1 4 12 9.84 2.74 3
-1 -4 -12 2.46 1.77 1
1 4 12 7.47 1.98 2
-2 -4 -12 -0.41 1.83 1
2 4 12 1.75 1.89 3
2 4 12 1.05 1.41 2
3 4 12 5.74 2.01 2
-3 -4 -12 8.27 2.96 1
-7 5 12 6.21 1.94 2
7 -5 -12 3.44 2.01 1
-7 5 12 5.68 2.79 3
-6 5 12 51.59 5.83 3
6 -5 -12 49.66 4.72 1
-6 5 12 56.8 3.73 2
-5 5 12 1.05 1.83 3
-5 5 12 0.39 1.04 2
4 -5 -12 62.44 4.82 1
-4 5 12 75.55 3.79 2
-4 5 12 60.71 5.87 3
-3 5 12 88.42 3.98 2
3 -5 -12 83.51 5.44 1
-3 5 12 88.57 6.67 3
-2 5 12 104.76 4.41 2
2 -5 -12 93.69 5.87 1
-2 5 12 102.69 7.19 3
1 -5 -12 265.94 10.29 1
-1 5 12 261.25 11.69 3
-1 5 12 261.37 7.78 2
0 5 12 22.7 2.34 2
0 -5 -12 21.37 3.45 1
0 5 12 20.41 3.77 3
1 5 12 199.76 7.02 2
1 5 12 189.82 9.81 3
-1 -5 -12 209.6 9.69 1
2 5 12 15.08 3.44 3
2 5 12 11.59 2.1 2
-2 -5 -12 8.55 2.76 1
-6 6 12 9.8 3.37 3
-5 6 12 1.29 2.13 3
5 -6 -12 -1.47 1.37 1
-4 6 12 0.12 1.93 3
4 -6 -12 1.71 1.5 1
3 -6 -12 2.61 1.62 1
-3 6 12 0.45 1.77 3
-2 6 12 0.09 1.96 3
2 -6 -12 2.48 1.86 1
1 -6 -12 22.46 3.51 1
-1 6 12 23.49 4.29 3
0 6 12 14.41 3.55 3
0 -6 -12 10.23 2.79 1
-4 7 12 0.78 2.34 3
4 -7 -12 1.03 1.71 1
3 -7 -12 163.17 8.02 1
-3 7 12 187.4 10.72 3
-2 7 12 11.89 3.74 3
2 -7 -12 8.69 2.53 1
3 6 -13 183.19 7.2 2
-3 -6 13 179.35 9.49 1
2 6 -13 0.41 1.42 2
-2 -6 13 2.13 2.28 1
-1 -6 13 24.93 4.07 1
1 6 -13 21.49 2.76 2
0 6 -13 27.63 3.02 2
0 -6 13 31.19 4.4 1
-1 6 -13 5.94 1.97 2
1 -6 13 5.02 2.44 1
2 -6 13 115.77 7.5 1
-2 6 -13 121.31 6.1 2
-5 -5 13 3.51 2.85 1
5 5 -13 2.65 1.76 2
-4 -5 13 79.26 6.39 1
4 5 -13 75.53 5.2 2
3 5 -13 54.46 4.26 2
-3 -5 13 59.98 5.63 1
-2 -5 13 23.19 3.91 1
2 5 -13 23.35 3.13 2
1 5 -13 113.74 6.1 2
-1 -5 13 107.94 6.84 1
0 5 -13 1.09 1.49 2
0 -5 13 1.28 1.81 1
-1 5 -13 32.71 3.64 2
1 -5 13 27.11 4.08 1
-2 5 -13 6.91 2.32 2
2 -5 13 7.82 2.81 1
3 -5 13 10.21 3.16 1
-3 5 -13 11.94 2.75 2
-6 -4 13 0.81 2.5 1
6 4 -13 0.81 1.58 2
-5 -4 13 1.68 2.41 1
5 4 -13 2.79 1.79 2
-4 -4 13 264.89 11.38 1
4 4 -13 285.69 10.56 2
-3 -4 13 31.92 4.31 1
3 4 -13 28.28 3.52 2
2 4 -13 157.25 7.36 2
-2 -4 13 145.64 7.86 1
1 4 -13 16.29 2.85 2
-1 -4 13 18.01 3.44 1
0 4 -13 125.11 6.76 2
0 -4 13 134.81 7.46 1
1 -4 13 156.65 8.21 1
-1 4 -13 163.48 7.85 2
-1 4 -13 171.74 5.82 4
-2 4 -13 258.01 7.67 4
2 -4 13 269.62 11.19 1
-2 4 -13 247.38 10.22 2
3 -4 13 41.5 4.96 1
-3 4 -13 35.71 4.36 2
-3 4 -13 44.02 3.03 4
4 -4 13 71.11 6.52 1
-4 4 -13 59.98 5.7 2
-4 4 -13 68.36 3.85 4
-6 -3 13 118.33 8 1
-6 -3 13 143.3 8.61 2
6 3 -13 115.95 7.14 2
-5 -3 13 13.13 3.41 1
5 3 -13 16.34 3.15 2
-5 -3 13 25.2 4.41 2
-4 -3 13 72.42 5.89 2
4 3 -13 75.91 5.29 2
-4 -3 13 68.17 5.55 1
-3 -3 13 13.83 3.2 1
3 3 -13 17.85 2.93 2
-3 -3 13 19.32 3.51 2
-2 -3 13 0.68 1.76 1
-2 -3 13 2.4 2.11 2
2 3 -13 2.53 1.48 2
-1 -3 13 7.46 2.5 1
1 3 -13 2.76 1.53 2
1 3 -13 3.26 1.38 4
-1 -3 13 4.91 2.38 2
0 -3 13 6.45 2.27 2
0 3 -13 5.19 1.61 4
0 3 -13 1.24 1.34 2
0 -3 13 5.98 2.3 1
1 -3 13 17.55 3.26 1
1 -3 13 28.76 3.84 2
-1 3 -13 16.24 2.29 4
-1 3 -13 16.99 3.02 2
-2 3 -13 0.13 1.21 4
2 -3 13 -0.92 1.49 1
2 -3 13 2.04 2.08 2
-2 3 -13 -0.94 1.39 2
2 -3 13 0.58 1.65 4
3 -3 13 0.13 1.73 1
-3 3 -13 1.29 1.63 4
3 -3 13 1.33 1.79 4
-3 3 -13 -0.06 1.69 2
3 -3 13 1.78 1.79 2
-4 3 -13 4.14 1.84 4
4 -3 13 7.56 2.64 4
4 -3 13 5.99 2.64 2
-4 3 -13 5.72 2.61 2
4 -3 13 10.96 3.38 1
7 2 -13 10.53 3.02 2
-7 -2 13 11.66 3.67 2
-7 -2 13 10.45 3.12 4
-7 -2 13 16.97 4.23 1
6 2 -13 67.41 5.45 2
-6 -2 13 77.27 5.76 4
-6 -2 13 74.16 6.53 1
-6 -2 13 78.53 6.65 2
-5 -2 13 144.08 7.25 4
5 2 -13 140.85 7.57 2
-5 -2 13 147.72 8.06 1
-5 -2 13 130.82 7.87 2
4 2 -13 522.19 16.08 2
4 2 -13 523.6 15.7 1
-4 -2 13 536.06 16.46 2
-4 -2 13 516.16 16.18 1
-4 -2 13 523.89 14.94 4
-3 -2 13 76.14 5.51 2
3 2 -13 71.51 5.02 2
-3 -2 13 65.89 5.2 1
3 2 -13 72.68 5.11 1
-3 -2 13 74.76 4.95 4
2 2 -13 144.41 7.24 2
2 2 -13 150.14 7.26 1
2 2 -13 149.98 6.39 4
-2 -2 13 145.12 6.68 4
-2 -2 13 151.61 7.54 1
-2 -2 13 135.74 7.2 2
-1 -2 13 183.49 8.4 2
1 2 -13 170.86 7.94 2
1 2 -13 192.41 8.26 1
-1 -2 13 182.67 8.37 1
-1 -2 13 176.26 7.53 4
1 2 -13 170.6 6.93 4
0 -2 13 3.1 1.65 4
0 -2 13 1.36 1.67 1
0 2 -13 0.35 1.25 4
0 -2 13 2.48 1.74 2
0 2 -13 1.05 1.48 2
0 2 -13 2.2 1.81 1
-1 2 -13 399.13 12.14 4
-1 2 -13 429.67 13.67 1
-1 2 -13 379.38 13.48 2
1 -2 13 414.96 13.74 1
1 -2 13 405.69 13.86 2
1 -2 13 401.5 12.64 4
2 -2 13 8.88 2.71 1
-2 2 -13 6.94 2.42 2
2 -2 13 9.97 2.46 4
2 -2 13 10.31 2.7 2
-2 2 -13 6.83 2.06 4
3 -2 13 133 7.81 2
3 -2 13 132.61 7.87 1
-3 2 -13 134.59 7.92 2
3 -2 13 137.53 7.2 4
-3 2 -13 137.21 6.83 4
4 -2 13 12.48 2.83 4
-4 2 -13 4.9 2.67 2
4 -2 13 8.05 3 1
4 -2 13 11.45 3.13 2
-4 2 -13 10.93 2.64 4
7 1 -13 72.72 5.91 2
-7 -1 13 64.18 5.63 4
-7 -1 13 87.14 6.71 2
-7 -1 13 80.14 6.92 1
-6 -1 13 4.42 2.52 1
6 1 -13 5.58 2.29 2
-6 -1 13 3.71 2.5 2
-6 -1 13 2.82 2.08 4
6 1 -13 5.28 2.29 1
5 1 -13 96.64 6.23 2
-5 -1 13 95.35 6.44 1
-5 -1 13 97.9 5.75 4
-5 -1 13 86.37 6.17 2
5 1 -13 95.99 6.16 1
-4 -1 13 68.54 4.66 4
4 1 -13 70.03 5.08 1
-4 -1 13 70.61 5.34 2
4 1 -13 67.54 5.09 2
-4 -1 13 79.25 5.67 1
-3 -1 13 30.03 3.31 4
-3 -1 13 26.42 3.69 2
3 1 -13 28.73 3.48 1
-3 -1 13 21.3 3.35 1
3 1 -13 26.08 3.05 4
3 1 -13 26.76 3.45 2
2 1 -13 129.22 6.72 2
-2 -1 13 118.02 5.91 4
2 1 -13 124.2 6.65 1
-2 -1 13 127.72 6.8 2
2 1 -13 126.47 6.04 4
-2 -1 13 123.06 6.77 1
1 1 -13 10.86 2.42 2
1 1 -13 11.02 2.5 1
-1 -1 13 10.67 2.59 1
-1 -1 13 13.58 2.48 4
-1 -1 13 13.27 2.86 2
1 1 -13 13.57 2.49 4
0 -1 13 5.7 1.82 4
0 1 -13 2.17 1.62 1
0 1 -13 9.88 2.44 2
0 -1 13 5.12 2.19 1
0 -1 13 9.83 2.38 2
0 1 -13 5.75 1.89 4
1 -1 13 4.7 1.94 2
1 -1 13 4.61 1.99 1
1 -1 13 2.38 1.59 4
-1 1 -13 3.99 2.12 1
-1 1 -13 1.35 1.58 4
-1 1 -13 2.8 1.81 2
-2 1 -13 29.24 4.02 2
-2 1 -13 30.84 4.08 1
2 -1 13 29.55 3.42 4
2 -1 13 21.79 3.47 2
-2 1 -13 29.81 3.64 4
2 -1 13 21.46 3.53 1
-3 1 -13 33.36 4.45 1
3 -1 13 29.13 3.62 4
3 -1 13 30.82 4.17 2
-3 1 -13 33.81 4.52 2
3 -1 13 33.25 4.37 1
-3 1 -13 31.39 3.9 4
-4 1 -13 11.45 3.42 1
-4 1 -13 8.84 2.63 4
4 -1 13 12.61 3.23 2
4 -1 13 8.97 2.42 4
4 -1 13 11.84 3.37 1
-4 1 -13 13.8 3.44 2
-8 0 13 92.67 6.23 4
-8 0 13 86.62 7.04 2
8 0 -13 93.16 7.08 2
8 0 -13 99.19 7.19 1
-7 0 13 27.55 4.56 1
7 0 -13 23.86 3.79 1
-7 0 13 18.53 3.33 4
-7 0 13 19.34 3.9 2
7 0 -13 16.87 3.55 2
-6 0 13 6.54 2.8 1
-6 0 13 4.73 2.45 2
6 0 -13 4.92 2.14 2
-6 0 13 2.3 1.73 4
-5 0 13 426.68 12.71 4
-5 0 13 419.24 13.93 1
-5 0 13 406.03 13.89 2
5 0 -13 422.4 13.98 1
5 0 -13 423.77 14.17 2
4 0 -13 75.43 5.36 2
4 0 -13 88.01 5.29 4
-4 0 13 78.1 4.86 4
4 0 -13 87 5.56 1
-4 0 13 83.17 5.68 1
-4 0 13 88.41 5.78 2
-3 0 13 121.28 6.66 1
3 0 -13 123.52 6.72 2
3 0 -13 120.8 6.11 4
3 0 -13 127.16 6.74 1
-3 0 13 116.99 6.52 2
-3 0 13 119.22 5.8 4
2 0 -13 0.56 1.34 4
-2 0 13 0.37 1.53 1
-2 0 13 1.82 1.35 4
2 0 -13 1.92 1.54 1
-2 0 13 2.53 1.69 2
2 0 -13 0.58 1 2
1 0 -13 15.96 2.83 2
-1 0 13 22.55 3.26 2
1 0 -13 15.89 2.61 4
-1 0 13 16.75 2.5 4
-1 0 13 24.52 3.34 1
1 0 -13 16.07 2.83 1
0 0 -13 134.47 7.15 1
0 0 -13 132.77 7.19 2
0 0 13 129.54 6.96 2
0 0 13 147.25 7.31 1
0 0 -13 148.17 6.84 4
0 0 13 139.75 6.3 4
1 0 13 30.68 3.23 4
-1 0 -13 30.89 4.08 2
-1 0 -13 30.25 3.64 4
1 0 13 29.6 3.79 1
1 0 13 29.27 3.71 2
-1 0 -13 28.48 3.84 1
-2 0 -13 83.15 5.53 4
2 0 13 68.45 4.74 4
-2 0 -13 74.14 5.79 2
-2 0 -13 71.82 5.76 1
2 0 13 79.93 5.67 2
2 0 13 86.55 6.02 1
3 0 13 -1.52 1.59 1
-3 0 -13 0.33 2.07 1
3 0 13 -0.38 1.23 2
3 0 13 0.4 1.35 4
-3 0 -13 -0.69 1.81 4
-3 0 -13 0.38 1.85 2
-4 0 -13 41.72 4.95 4
-4 0 -13 39.89 5.24 1
4 0 13 50.78 4.5 4
4 0 13 57.04 5.55 2
8 -1 -13 16.67 3.7 2
-8 1 13 21.86 4.22 2
-8 1 13 16.45 3.14 4
8 -1 -13 22.57 4.12 1
-7 1 13 7.89 2.22 4
-7 1 13 11.17 2.93 2
-7 1 13 10.21 3.2 3
7 -1 -13 8.68 2.71 2
7 -1 -13 4.39 2.19 1
6 -1 -13 63.79 5.12 1
6 -1 -13 59.53 5.29 2
-6 1 13 54.01 4.12 4
-6 1 13 54.99 5.15 2
-5 1 13 6.97 1.97 4
5 -1 -13 6.17 2.28 1
5 -1 -13 10.08 2.66 2
-5 1 13 7.16 2.25 2
-5 1 13 8.18 2.63 1
5 -1 -13 6.29 2.18 4
-4 1 13 53.13 3.78 4
-4 1 13 49.29 4.6 1
4 -1 -13 54.42 4.76 2
4 -1 -13 57.23 4.3 4
4 -1 -13 59.22 4.69 1
-4 1 13 54.05 4.68 2
3 -1 -13 53.61 4.55 1
3 -1 -13 46.72 4.07 4
-3 1 13 47.87 4.33 2
-3 1 13 49.78 3.6 4
-3 1 13 50.27 4.48 1
3 -1 -13 53.67 4.61 2
-2 1 13 25.9 3.37 1
2 -1 -13 16.71 2.91 1
-2 1 13 22.66 3.2 2
-2 1 13 23.95 2.72 4
2 -1 -13 18.61 2.84 4
2 -1 -13 18.1 2.89 2
1 -1 -13 -0.3 1.27 4
1 -1 -13 1.27 1.45 2
-1 1 13 0.25 1.15 2
-1 1 13 -1.48 1.33 1
1 -1 -13 0.22 1.29 1
-1 1 13 1.28 1.16 4
0 1 13 11.36 2.13 4
0 -1 -13 13.89 2.84 2
0 1 13 13.65 2.64 2
0 -1 -13 10.79 2.64 1
0 1 13 11.44 2.61 1
0 -1 -13 13.36 2.77 4
-1 -1 -13 3.73 2.09 4
1 1 13 3.39 1.62 2
1 1 13 4.24 1.58 4
-1 -1 -13 2.41 1.83 1
-1 -1 -13 2.31 1.8 2
-2 -1 -13 31.78 4.33 1
2 1 13 34.94 3.97 2
-2 -1 -13 20.61 3.63 2
2 1 13 32.12 3.22 4
-2 -1 -13 25.76 3.89 4
3 1 13 15.41 2.62 4
-3 -1 -13 11.52 3.21 4
3 1 13 14.87 3.12 2
-3 -1 -13 12.28 3.37 1
-3 -1 -13 14.3 3.39 2
-4 -1 -13 36.05 4.88 4
-4 -1 -13 45.01 5.69 1
-4 -1 -13 36.18 5.27 2
4 1 13 45.84 4.16 4
4 1 13 41.71 4.78 2
8 -2 -13 3.32 2.19 1
8 -2 -13 2.28 2.06 2
-8 2 13 3.87 2.4 2
-8 2 13 3.71 1.97 4
7 -2 -13 13.66 3.25 2
-7 2 13 18.51 3.69 3
-7 2 13 9.53 2.79 2
-7 2 13 15.42 2.69 4
7 -2 -13 17.27 3.52 1
-6 2 13 211.14 7.58 4
6 -2 -13 183.49 8.89 1
6 -2 -13 213.41 9.67 2
-6 2 13 193.08 9.6 3
-6 2 13 183.79 8.66 2
-5 2 13 215.23 9.13 2
5 -2 -13 223.05 9.72 2
5 -2 -13 225.46 9.58 1
-5 2 13 216.46 7.6 4
4 -2 -13 148.44 7.59 2
4 -2 -13 160.58 7.78 1
-4 2 13 147.77 7.15 2
-4 2 13 155.37 6.04 4
3 -2 -13 54.6 4.63 1
-3 2 13 55.97 3.45 4
-3 2 13 44.05 4.15 2
3 -2 -13 52.48 4.64 2
-2 2 13 257.1 7.92 4
2 -2 -13 236.63 9.66 1
2 -2 -13 258.6 10.01 2
-2 2 13 253.75 9.38 2
1 -2 -13 -0.01 1.34 1
-1 2 13 1.01 1.03 4
1 -2 -13 1.76 1.62 2
-1 2 13 0.25 1.15 2
0 2 13 399.18 12.83 2
0 2 13 406.3 11 4
0 -2 -13 455.83 14.37 2
0 -2 -13 402.1 13.76 1
-1 -2 -13 2.65 1.92 2
1 2 13 -0.71 0.91 2
1 2 13 0.89 1.06 4
-1 -2 -13 -0.51 1.49 1
2 2 13 227.05 9.72 2
-2 -2 -13 245.91 11.03 2
2 2 13 236.49 8 4
-2 -2 -13 222.88 10.5 1
3 2 13 0.7 1.28 4
-3 -2 -13 3.5 2.54 1
3 2 13 0.21 1.56 2
-3 -2 -13 1.14 2.19 2
-7 3 13 11.96 2.97 2
7 -3 -13 21.59 3.76 1
-7 3 13 18.13 3.83 3
-7 3 13 17.56 2.18 4
-6 3 13 35.51 2.64 4
6 -3 -13 38.16 4.3 1
-6 3 13 26.77 3.62 2
-6 3 13 29.47 4.47 3
-5 3 13 1.92 1.19 4
-5 3 13 2.32 2.11 3
-5 3 13 2.02 1.75 2
5 -3 -13 1.87 1.64 1
-4 3 13 6.19 1.38 4
-4 3 13 3.92 2.18 3
-4 3 13 3.66 1.74 2
4 -3 -13 3.09 1.77 1
-3 3 13 1.93 0.99 4
3 -3 -13 5.4 1.93 1
-3 3 13 4.89 1.78 2
2 -3 -13 10.58 2.49 1
-2 3 13 16.44 1.73 4
-2 3 13 12.83 2.42 2
1 -3 -13 86.11 5.71 1
-1 3 13 76.42 4.83 2
-1 3 13 91.23 3.63 4
0 3 13 0.29 1.1 2
0 -3 -13 -0.48 1.34 1
0 3 13 0.01 0.83 4
-1 -3 -13 1.55 2.05 1
1 3 13 -0.46 1.12 2
1 3 13 -0.54 0.86 4
1 3 13 1 1.74 3
-2 -3 -13 68.96 6.12 1
2 3 13 63.46 3.22 4
2 3 13 53.38 4.64 2
2 3 13 64.07 5.67 3
3 3 13 1.43 1.21 4
3 3 13 2.29 2.2 3
-3 -3 -13 5.72 2.87 1
-7 4 13 -1.07 1.48 2
-7 4 13 2.5 2.52 3
7 -4 -13 0.33 1.64 1
-6 4 13 399.76 12.38 2
-6 4 13 394.61 15.31 3
-5 4 13 1.07 1.88 3
-5 4 13 1.14 1.46 2
5 -4 -13 2.64 1.78 1
-4 4 13 242.91 8.67 2
-4 4 13 241.73 11.33 3
4 -4 -13 263.88 10.21 1
3 -4 -13 23.91 3.44 1
-3 4 13 19.61 2.64 2
-3 4 13 41.71 4.97 3
-2 4 13 117.62 5.62 2
2 -4 -13 118.2 6.79 1
-2 4 13 117.93 7.62 3
1 -4 -13 91.03 6.08 1
-1 4 13 108.56 5.42 2
-1 4 13 111.3 7.32 3
0 -4 -13 76.17 5.75 1
0 4 13 73.81 4.64 2
0 4 13 72.62 6.01 3
1 4 13 100.45 7.07 3
1 4 13 101.25 5.61 2
-1 -4 -13 108.88 7.06 1
2 4 13 20.53 3.02 2
-2 -4 -13 25 4.3 1
2 4 13 18.1 3.56 3
-6 5 13 0.52 1.23 2
-6 5 13 2.84 2.31 3
-5 5 13 23.64 4.46 3
5 -5 -13 16.25 3.22 1
-5 5 13 22.33 2.54 2
-4 5 13 2.99 1.32 2
-4 5 13 3.59 2.47 3
4 -5 -13 5 2.14 1
-3 5 13 12 3.41 3
-3 5 13 14.71 1.96 2
3 -5 -13 11.73 2.73 1
2 -5 -13 17.82 3.22 1
-2 5 13 16.39 3.78 3
-2 5 13 20.14 2.27 2
1 -5 -13 3.96 2.17 1
-1 5 13 6.45 1.61 2
-1 5 13 5.14 2.64 3
0 -5 -13 0.07 1.74 1
0 5 13 3.97 2.3 3
0 5 13 1.97 1.34 2
-1 -5 -13 30.78 4.43 1
1 5 13 44.12 5.17 3
1 5 13 36.27 3.17 2
-5 6 13 9.59 3.35 3
5 -6 -13 19.54 3.5 1
4 -6 -13 18.46 3.27 1
-4 6 13 17.53 4.07 3
3 -6 -13 15.28 3.09 1
-3 6 13 6.67 2.75 3
2 -6 -13 0.45 1.61 1
-2 6 13 0.93 1.91 3
-1 6 13 2.15 2.31 3
1 -6 -13 6.92 2.56 1
-1 -6 14 73.77 6.47 1
1 6 -14 68.72 4.6 2
0 -6 14 2.79 2.27 1
0 6 -14 4.35 1.99 2
4 5 -14 34.27 3.93 2
-4 -5 14 34.83 5.08 1
-3 -5 14 84.67 6.69 1
3 5 -14 91.13 5.69 2
2 5 -14 101.4 5.9 2
-2 -5 14 98.36 6.97 1
-1 -5 14 11.62 3.22 1
1 5 -14 6.05 2.27 2
0 -5 14 123.46 7.63 1
0 5 -14 120.04 6.6 2
1 -5 14 17.89 3.86 1
-1 5 -14 6.65 2.35 2
-2 5 -14 28.39 3.84 2
2 -5 14 22.71 4.28 1
5 4 -14 1.7 1.78 2
-5 -4 14 2.88 2.6 1
4 4 -14 13.56 2.91 2
-4 -4 14 11.6 3.25 1
3 4 -14 6.02 2.19 2
-3 -4 14 5.93 2.69 1
-2 -4 14 -2.01 1.66 1
2 4 -14 0.63 1.46 2
-1 -4 14 3.28 2.3 1
1 4 -14 4.78 2 2
0 -4 14 24.24 3.97 1
0 4 -14 32.88 3.94 2
1 -4 14 31.06 4.34 1
-1 4 -14 28.73 3.95 2
-1 4 -14 23.78 2.42 4
2 -4 14 2.06 2.26 1
-2 4 -14 0.66 1.6 2
-2 4 -14 1.33 1.27 4
-3 4 -14 24.9 4.02 2
-3 4 -14 22.24 2.47 4
3 -4 14 32.15 4.89 1
-6 -3 14 72.72 7.04 2
-6 -3 14 81.39 6.18 4
6 3 -14 64.68 5.77 2
-6 -3 14 79.41 7.07 1
5 3 -14 1.97 1.82 2
-5 -3 14 4.31 2.74 2
-5 -3 14 2.77 2.48 4
-5 -3 14 5 2.66 1
-4 -3 14 182.92 8.53 4
-4 -3 14 178.71 9.19 1
4 3 -14 172.95 8.47 2
-4 -3 14 186.63 9.41 2
-3 -3 14 9.15 2.92 1
3 3 -14 7.01 2.2 2
-3 -3 14 7.34 2.89 2
2 3 -14 105.56 6.3 2
-2 -3 14 96.7 6.55 1
-2 -3 14 109.28 6.83 2
-2 -3 14 93.84 5.79 4
-1 -3 14 74.57 5.71 2
1 3 -14 69.29 5.13 2
1 3 -14 68.16 4.17 4
-1 -3 14 69.85 5.02 4
-1 -3 14 65.49 5.62 1
0 -3 14 -0.53 1.45 1
0 3 -14 1.43 1.58 2
0 -3 14 0.4 1.86 2
0 3 -14 5.09 1.68 4
0 -3 14 1.17 1.8 4
1 -3 14 45.49 4.54 4
-1 3 -14 39.24 4.38 2
1 -3 14 49.95 5.15 1
1 -3 14 55.81 5.29 2
-1 3 -14 45.04 3.57 4
2 -3 14 48.67 5.33 1
-2 3 -14 37.4 3.51 4
2 -3 14 39.96 4.78 2
2 -3 14 36.66 4.18 4
-2 3 -14 34.3 4.49 2
-3 3 -14 6.51 2.56 2
3 -3 14 5.33 2.7 1
3 -3 14 9.83 2.79 4
-3 3 -14 9.66 2.39 4
3 -3 14 14.04 3.56 2
-6 -2 14 37.44 5.27 2
6 2 -14 35.21 4.48 2
-6 -2 14 42.72 5.34 1
-6 -2 14 43.41 4.85 4
-5 -2 14 17.7 3.76 2
5 2 -14 20.6 3.53 2
-5 -2 14 18.39 3.79 1
-5 -2 14 14.56 3.14 4
-4 -2 14 2.04 2.27 1
-4 -2 14 5.04 2.1 4
-4 -2 14 2.9 2.32 2
4 2 -14 2.06 1.66 2
-3 -2 14 13.75 3.35 1
-3 -2 14 20.76 3.6 2
-3 -2 14 20.33 3.18 4
3 2 -14 10.88 2.59 2
3 2 -14 16.24 3.06 1
-2 -2 14 22.23 3.73 1
2 2 -14 27.76 3.63 1
-2 -2 14 30.24 3.49 4
-2 -2 14 22.78 3.69 2
2 2 -14 24.78 3.59 2
2 2 -14 25.48 3.04 4
1 2 -14 0.22 1.29 4
1 2 -14 2.75 1.72 2
1 2 -14 1.06 1.81 1
-1 -2 14 3.16 1.76 4
-1 -2 14 2.15 1.96 1
-1 -2 14 0.79 1.8 2
0 -2 14 189.7 8.06 4
0 -2 14 178.42 8.7 2
0 2 -14 184.19 8.7 1
0 2 -14 180.23 7.5 4
0 2 -14 183.61 8.64 2
0 -2 14 178.18 8.78 1
-1 2 -14 9.38 2.63 2
1 -2 14 10.79 2.59 4
1 -2 14 12.02 3.15 1
1 -2 14 13.27 3.14 2
-1 2 -14 13.74 2.61 4
2 -2 14 9.84 2.92 1
-2 2 -14 8.71 2.74 2
2 -2 14 8.14 2.49 4
2 -2 14 7.01 2.52 2
-2 2 -14 8.16 2.24 4
-3 2 -14 79.31 6.48 2
3 -2 14 83.05 5.8 4
-3 2 -14 78.36 5.45 4
3 -2 14 80.64 6.43 1
3 -2 14 88.19 6.56 2
-7 -1 14 3.68 2.88 1
7 1 -14 0.84 1.91 2
-7 -1 14 2.64 2.61 2
-7 -1 14 3.4 2.35 4
6 1 -14 48.27 5.07 2
-6 -1 14 53.97 5.74 2
-6 -1 14 50.34 5.51 1
6 1 -14 42.33 4.75 1
-6 -1 14 40.74 4.53 4
-5 -1 14 53.02 5.36 1
5 1 -14 34.08 4.16 1
-5 -1 14 43.22 4.43 4
-5 -1 14 40.48 4.9 2
5 1 -14 41.55 4.57 2
-4 -1 14 24.12 3.87 1
4 1 -14 23.54 3.44 1
-4 -1 14 32.86 3.78 4
4 1 -14 27.97 3.81 2
-4 -1 14 25.53 3.92 2
-3 -1 14 137.24 7.57 1
3 1 -14 121.05 6.33 4
3 1 -14 134.95 7.24 2
-3 -1 14 136.05 6.62 4
-3 -1 14 138.55 7.48 2
3 1 -14 137.86 7.32 1
-2 -1 14 9 2.28 4
-2 -1 14 4.07 2.07 1
2 1 -14 6.97 2.42 1
-2 -1 14 4.7 2.04 2
2 1 -14 2.14 1.6 4
2 1 -14 3.54 1.8 2
1 1 -14 119.05 6.88 1
1 1 -14 119.11 6.28 4
-1 -1 14 129.58 6.35 4
-1 -1 14 135.47 7.29 1
-1 -1 14 129.81 7.21 2
1 1 -14 122.06 6.95 2
0 -1 14 60.31 5.2 1
0 -1 14 58.6 5.11 2
0 1 -14 59.97 5.21 1
0 -1 14 55.8 4.31 4
0 1 -14 53.37 4.49 4
0 1 -14 54.09 5.03 2
1 -1 14 23.03 3.24 4
-1 1 -14 16.29 3.06 4
-1 1 -14 29.97 4.05 1
-1 1 -14 24.85 3.96 2
1 -1 14 31.44 4.04 2
1 -1 14 27.49 4.03 1
-2 1 -14 42.48 4.93 2
2 -1 14 48.4 4.49 4
-2 1 -14 51.85 5.31 1
2 -1 14 48.07 4.97 2
2 -1 14 65.48 5.83 1
-2 1 -14 40.1 4.26 4
-3 1 -14 13.61 3.43 1
-3 1 -14 4.35 2.58 2
3 -1 14 11.1 2.93 2
3 -1 14 1.95 2.2 1
3 -1 14 6.17 2.3 4
-3 1 -14 1.99 2 4
-7 0 14 5.06 2.2 4
-7 0 14 2.91 2.42 2
7 0 -14 1.86 1.73 2
-6 0 14 55.85 5.55 2
6 0 -14 62.91 5.69 2
-6 0 14 52.23 5.51 1
6 0 -14 62.47 5.59 1
-6 0 14 52.88 4.74 4
-5 0 14 2.77 2.04 2
-5 0 14 1.61 2.11 1
5 0 -14 0.99 1.57 2
-5 0 14 1.09 1.7 4
5 0 -14 1.32 1.76 1
-4 0 14 151.7 7.98 1
4 0 -14 146.08 7.84 2
4 0 -14 147.65 7.78 1
-4 0 14 143.02 6.81 4
-4 0 14 137.27 7.59 2
4 0 -14 158.1 7.35 4
3 0 -14 90.2 5.5 4
3 0 -14 89.33 5.91 2
3 0 -14 92.74 5.95 1
-3 0 14 89.75 5.9 2
-3 0 14 99.27 5.43 4
-3 0 14 101.45 6.35 1
2 0 -14 188.21 8 4
2 0 -14 188.02 8.66 1
-2 0 14 166.07 8.32 2
2 0 -14 185.11 8.66 2
-2 0 14 176.58 7.42 4
-2 0 14 196.46 8.74 1
-1 0 14 366.48 11.25 4
-1 0 14 364.43 12.63 2
1 0 -14 357.87 11.91 4
-1 0 14 381.2 12.8 1
1 0 -14 342.72 12.55 1
1 0 -14 378.87 13.02 2
0 0 14 333.73 10.95 4
0 0 -14 360.2 12.97 2
0 0 -14 356.56 11.82 4
0 0 14 333.76 12.24 1
0 0 -14 353.22 12.75 1
0 0 14 331.49 12.39 2
-1 0 -14 63.48 5.58 1
1 0 14 76.03 5.68 1
1 0 14 74.96 4.84 4
-1 0 -14 65.4 5.84 2
-1 0 -14 74.83 5.28 4
1 0 14 65.07 5.27 2
2 0 14 3.05 1.72 4
-2 0 -14 0.72 2.08 1
2 0 14 1.76 1.7 2
2 0 14 2.44 2.16 1
-2 0 -14 1.91 2.08 2
-2 0 -14 3.21 2.09 4
-3 0 -14 188.82 10.11 2
3 0 14 174.14 9.25 2
3 0 14 175.6 8.13 4
-3 0 -14 207.67 10.32 1
7 -1 -14 110.9 7.37 2
-7 1 14 97.38 7.03 3
-7 1 14 89.05 6.7 2
-7 1 14 91.36 5.67 4
-6 1 14 7.12 2.51 2
-6 1 14 7.57 2.26 4
6 -1 -14 10.72 2.87 1
6 -1 -14 8.97 2.75 2
5 -1 -14 210.9 9.61 1
-5 1 14 204.86 8.12 4
-5 1 14 194.37 9.15 2
5 -1 -14 217.61 9.89 2
5 -1 -14 214.45 9.03 4
-4 1 14 15.84 2.98 2
-4 1 14 13.02 2.42 4
4 -1 -14 24.01 3.58 2
4 -1 -14 15.81 2.91 4
4 -1 -14 22.64 3.43 1
3 -1 -14 139.79 7.36 2
-3 1 14 128.1 5.98 4
3 -1 -14 137.35 7.3 1
-3 1 14 124.14 6.84 2
3 -1 -14 146.91 7.1 4
2 -1 -14 80.01 5.62 2
2 -1 -14 94.56 5.74 4
-2 1 14 71.14 4.39 4
2 -1 -14 83.64 5.75 1
-2 1 14 78.99 5.38 2
-1 1 14 12.55 2.38 4
1 -1 -14 18.03 3.18 2
1 -1 -14 12.26 2.82 4
1 -1 -14 11.04 2.66 1
-1 1 14 11.36 2.6 2
0 -1 -14 45.47 4.76 2
0 1 14 44.56 3.66 4
0 -1 -14 42.38 4.48 1
0 1 14 49.51 4.58 2
0 -1 -14 49.86 4.58 4
-1 -1 -14 4.91 2.42 2
1 1 14 6.42 2.26 2
1 1 14 6.72 1.84 4
-1 -1 -14 6.61 2.46 4
-1 -1 -14 10.92 3.02 1
2 1 14 10.09 2.66 2
-2 -1 -14 8.31 2.84 2
2 1 14 9.49 2.22 4
-2 -1 -14 3.31 2.4 1
-2 -1 -14 6.32 2.71 4
-3 -1 -14 -0.26 2.08 4
-3 -1 -14 1.75 2.24 2
-3 -1 -14 0.24 2.08 1
3 1 14 -0.61 1.21 4
3 1 14 0.18 1.6 2
-7 2 14 -0.95 1.32 4
7 -2 -14 0.03 1.62 1
-7 2 14 -0.26 1.83 2
-7 2 14 -0.24 2.1 3
7 -2 -14 -1.05 1.56 2
-6 2 14 80.41 5.8 2
6 -2 -14 78.6 6.18 2
-6 2 14 87.53 6.69 3
-6 2 14 80.59 4.74 4
5 -2 -14 1.57 1.72 1
-5 2 14 2.42 1.77 2
-5 2 14 1.95 1.53 4
5 -2 -14 3.09 1.9 2
4 -2 -14 15.14 3.19 2
4 -2 -14 12.34 2.86 1
-4 2 14 10.88 2.54 2
-4 2 14 9.33 2.05 4
-3 2 14 55.11 4.49 2
3 -2 -14 62.19 5.02 1
-3 2 14 61.46 3.82 4
3 -2 -14 61.05 4.95 2
2 -2 -14 24.84 3.52 2
2 -2 -14 24.28 3.63 1
-2 2 14 26.17 3.42 2
-2 2 14 26.06 2.73 4
-1 2 14 241.09 7.92 4
-1 2 14 245.01 9.77 2
1 -2 -14 239.29 10.24 1
1 -2 -14 269.07 10.77 2
0 2 14 -0.46 1.08 2
0 -2 -14 0.94 1.85 2
0 -2 -14 0.42 1.76 1
0 2 14 1.25 1.19 4
-1 -2 -14 2.36 2.1 2
-1 -2 -14 1.62 2.08 1
1 2 14 2.69 1.65 2
1 2 14 4.76 1.57 4
2 2 14 110 6.84 2
-2 -2 -14 107.15 7.51 1
-2 -2 -14 122.37 8.04 2
2 2 14 106.15 5.24 4
7 -3 -14 79.7 6.28 1
-7 3 14 83.77 5.99 2
-7 3 14 81.62 6.68 3
-7 3 14 87.86 4.11 4
-6 3 14 54.56 3.2 4
-6 3 14 47.23 5.55 3
-6 3 14 47.14 4.58 2
-5 3 14 35.54 4.86 3
5 -3 -14 42.91 4.62 1
-5 3 14 40.52 2.79 4
-5 3 14 45.11 4.36 2
-4 3 14 72.13 3.45 4
4 -3 -14 69.45 5.37 1
-4 3 14 72.98 6.25 3
-4 3 14 67.58 4.87 2
-3 3 14 -0.48 1.19 2
-3 3 14 0.88 1.01 4
3 -3 -14 2.95 1.82 1
-2 3 14 14.56 2.69 2
-2 3 14 7.83 1.44 4
2 -3 -14 9.46 2.54 1
-1 3 14 10.42 1.56 4
1 -3 -14 5.47 2.18 1
-1 3 14 8.55 2.13 2
0 3 14 15.61 2.8 2
0 3 14 15.3 1.81 4
0 -3 -14 15.2 3.34 1
1 3 14 1.55 1.59 2
1 3 14 2.53 1.2 4
-1 -3 -14 5.47 2.54 1
1 3 14 3.03 2.25 3
-2 -3 -14 30.12 4.67 1
2 3 14 21.46 3.92 3
2 3 14 21.43 3.32 2
2 3 14 19.85 2.01 4
6 -4 -14 50.08 5.08 1
-6 4 14 43.73 4.27 2
-6 4 14 46.08 5.67 3
-5 4 14 48.33 5.71 3
5 -4 -14 40.56 4.56 1
-5 4 14 44.09 4.01 2
4 -4 -14 2.95 2.09 1
-4 4 14 6.9 2.82 3
-4 4 14 4.4 1.79 2
-3 4 14 24.47 4.29 3
-3 4 14 30.01 3.22 2
3 -4 -14 21.35 3.46 1
-2 4 14 140.44 8.7 3
-2 4 14 154.93 6.79 2
2 -4 -14 147.3 7.89 1
-1 4 14 111.94 5.81 2
-1 4 14 110.7 7.66 3
1 -4 -14 105.2 6.82 1
0 4 14 20.17 2.84 2
0 -4 -14 10.76 3.05 1
0 4 14 16.48 3.72 3
1 4 14 8.09 2.11 2
1 4 14 4.55 2.61 3
-1 -4 -14 9.84 3.07 1
5 -5 -14 20.72 3.56 1
-5 5 14 16.39 3.81 3
-5 5 14 23.48 2.66 2
4 -5 -14 7.88 2.51 1
-4 5 14 8.72 1.87 2
-4 5 14 7.78 2.99 3
-3 5 14 36.85 2.96 2
3 -5 -14 37.63 4.4 1
-3 5 14 37.11 5.23 3
-2 5 14 1.28 2.08 3
-2 5 14 3.56 1.49 2
2 -5 -14 1.54 1.79 1
1 -5 -14 16.09 3.43 1
-1 5 14 22.1 2.53 2
-1 5 14 18.97 4.09 3
-2 -5 15 0.09 2.11 1
2 5 -15 0.66 1.49 2
1 5 -15 63.85 5.03 2
-1 -5 15 63.64 6.15 1
0 -5 15 52.75 5.82 1
0 5 -15 44.4 4.56 2
4 4 -15 5.08 2.25 2
-4 -4 15 2.29 2.55 1
3 4 -15 47.03 4.64 2
-3 -4 15 35.11 4.92 1
-2 -4 15 -0.07 1.99 1
2 4 -15 -0.06 1.45 2
1 4 -15 7.11 2.42 2
-1 -4 15 10.02 3.14 1
0 4 -15 4.8 2.15 2
0 -4 15 8.1 2.99 1
1 -4 15 23.18 4.28 1
-1 4 -15 16.83 3.38 2
-5 -3 15 74.32 6.83 2
-5 -3 15 67.68 6 4
5 3 -15 79.6 6.02 2
-5 -3 15 74.1 6.74 1
-4 -3 15 132.89 8.3 1
-4 -3 15 132.38 8.2 2
4 3 -15 122.95 7.3 2
-4 -3 15 137.45 7.57 4
-3 -3 15 119.72 7 4
3 3 -15 121.17 7.24 2
-3 -3 15 115.97 7.56 2
-3 -3 15 122.96 7.76 1
-2 -3 15 296.12 11.02 4
-2 -3 15 290.31 12.14 1
2 3 -15 292.15 11.51 2
-2 -3 15 310.04 12.45 2
1 3 -15 34.94 4.32 2
1 3 -15 40.19 3.55 4
-1 -3 15 36.52 4.18 4
-1 -3 15 34.9 4.76 2
-1 -3 15 30.34 4.48 1
0 -3 15 467.24 14.78 4
0 3 -15 481.79 13.35 4
0 -3 15 501.15 16.48 2
0 3 -15 466.47 15.94 2
0 -3 15 488.39 16.34 1
1 -3 15 0.26 1.62 4
1 -3 15 6.24 2.69 2
-1 3 -15 0.22 1.82 2
1 -3 15 0.25 2.39 1
-1 3 -15 0.44 1.46 4
2 -3 15 202.85 9.46 4
2 -3 15 194.14 9.98 1
-2 3 -15 201.03 9.95 2
2 -3 15 178.3 9.82 2
-2 3 -15 193.23 7.93 4
-6 -2 15 81.24 6.07 4
6 2 -15 81.18 6.41 2
-6 -2 15 70.5 6.75 2
-6 -2 15 76.22 7.04 1
-5 -2 15 0.05 1.68 4
5 2 -15 0.92 1.53 2
-5 -2 15 3.82 2.57 1
-5 -2 15 3.74 2.52 2
-4 -2 15 3.06 2.36 1
-4 -2 15 8.13 2.95 2
4 2 -15 9.22 2.67 2
-4 -2 15 5.77 2.22 4
-3 -2 15 19.56 3.88 1
-3 -2 15 18.05 3.16 4
3 2 -15 25.51 3.78 2
-3 -2 15 24.15 4.02 2
-2 -2 15 1.99 1.9 2
2 2 -15 2.34 1.63 2
-2 -2 15 -0.08 1.72 1
2 2 -15 -0.85 1.04 4
-2 -2 15 5.61 2.16 4
-1 -2 15 12.88 3.02 2
1 2 -15 7.78 2.16 4
-1 -2 15 11.74 2.7 4
1 2 -15 7.77 2.38 2
-1 -2 15 8.02 2.75 1
0 2 -15 45.95 4.09 4
0 2 -15 59.51 5.41 2
0 -2 15 55.91 4.76 4
0 -2 15 46.03 4.96 2
0 -2 15 49.41 5.2 1
1 -2 15 7.23 2.72 1
-1 2 -15 7.59 2.61 2
-1 2 -15 4.19 1.87 4
1 -2 15 4.83 2.14 4
1 -2 15 5.82 2.38 2
2 -2 15 4.89 2.14 4
-2 2 -15 10.85 2.48 4
-2 2 -15 5.88 2.71 2
2 -2 15 7.35 3.01 1
2 -2 15 6.21 2.51 2
6 1 -15 90.35 6.69 2
-6 -1 15 85.81 6.02 4
-6 -1 15 94.72 7.16 1
-6 -1 15 89.2 6.91 2
6 1 -15 90.59 6.68 1
-5 -1 15 21.96 3.55 4
5 1 -15 31.78 4.28 1
-5 -1 15 18.54 3.86 2
5 1 -15 24.59 3.95 2
-5 -1 15 27.71 4.48 1
4 1 -15 141.22 7.91 1
-4 -1 15 151.89 7.49 4
-4 -1 15 155.98 8.57 1
4 1 -15 154.42 8.23 2
-4 -1 15 163.55 8.72 2
3 1 -15 0.64 1.36 2
-3 -1 15 -1.09 1.3 4
-3 -1 15 0.3 2 1
3 1 -15 0.1 1.6 1
-3 -1 15 -0.6 1.71 2
3 1 -15 -1.06 1.22 4
2 1 -15 116.54 6.27 4
-2 -1 15 112.8 6.21 4
2 1 -15 124.12 7.13 1
2 1 -15 116.72 7.12 2
-2 -1 15 118.37 7.23 1
-2 -1 15 107.36 6.92 2
-1 -1 15 80.46 6.02 1
1 1 -15 85.07 6.02 2
1 1 -15 83.08 5.33 4
-1 -1 15 75.28 5.08 4
1 1 -15 66.53 5.5 1
-1 -1 15 84.53 6.07 2
0 -1 15 43.7 4.92 1
0 -1 15 34.11 4.34 2
0 1 -15 28.57 4.09 1
0 1 -15 34.05 4.37 2
0 1 -15 42.22 4.3 4
0 -1 15 43.35 4.13 4
1 -1 15 100.2 6.89 1
-1 1 -15 95.5 6.86 2
-1 1 -15 91.63 5.93 4
1 -1 15 95.46 6.71 2
-1 1 -15 100.83 6.88 1
1 -1 15 101.1 5.99 4
-2 1 -15 16.65 3.73 1
2 -1 15 17.67 3.61 2
2 -1 15 23.3 3.52 4
-2 1 -15 12.8 3.42 2
2 -1 15 19.98 3.99 1
-2 1 -15 17.44 3.27 4
-6 0 15 2.23 2.09 2
-6 0 15 2.31 2.63 1
6 0 -15 0.13 1.66 1
-6 0 15 1.15 1.87 4
6 0 -15 1.85 1.87 2
5 0 -15 2.03 1.94 2
-5 0 15 2.08 2.4 1
-5 0 15 1.96 1.79 4
-5 0 15 5.72 2.58 2
5 0 -15 1.67 1.82 1
-4 0 15 57.59 5.42 2
4 0 -15 64.6 5.52 1
4 0 -15 62.15 4.88 4
-4 0 15 57.37 5.52 1
4 0 -15 64.15 5.6 2
-4 0 15 62.2 4.59 4
3 0 -15 0.46 1.54 4
-3 0 15 0.36 1.92 1
3 0 -15 0.94 1.62 1
-3 0 15 0.98 1.48 4
-3 0 15 1.39 1.59 2
3 0 -15 0.71 1.45 2
2 0 -15 4.78 2.04 4
2 0 -15 7.75 2.43 2
-2 0 15 2.83 1.91 2
-2 0 15 1.8 1.53 4
-2 0 15 6.86 2.64 1
2 0 -15 2.81 1.95 1
-1 0 15 6.84 2.09 4
1 0 -15 4.94 2.09 2
1 0 -15 8.9 2.49 4
-1 0 15 3.84 1.93 2
-1 0 15 8.55 2.72 1
1 0 -15 10.06 2.75 1
0 0 -15 29.6 3.94 4
0 0 -15 33.63 4.37 2
0 0 15 39.83 3.8 4
0 0 -15 33.21 4.31 1
0 0 15 35.31 4.35 2
0 0 15 32.16 4.3 1
-1 0 -15 -0.25 1.96 1
1 0 15 -0.72 1.7 1
-1 0 -15 -0.04 1.75 2
1 0 15 0.25 1.5 2
1 0 15 0.71 1.43 4
-1 0 -15 -1.43 1.55 4
-2 0 -15 7.79 2.83 2
-2 0 -15 8.91 2.84 4
-2 0 -15 8.16 2.94 1
2 0 15 11.22 2.61 4
2 0 15 6.86 2.47 2
-7 1 15 0.49 2.26 2
7 -1 -15 -0.83 1.74 1
-7 1 15 1.01 1.75 4
-7 1 15 -0.32 2.28 3
7 -1 -15 -0.5 1.56 2
6 -1 -15 97.36 6.88 1
-6 1 15 95.49 6.72 2
-6 1 15 100.17 5.89 4
6 -1 -15 101.34 7.08 2
-5 1 15 21.5 3.75 2
-5 1 15 15.75 2.78 4
5 -1 -15 25.75 3.72 4
5 -1 -15 15.12 3.33 2
5 -1 -15 24.15 3.76 1
-4 1 15 69.19 5.55 2
4 -1 -15 72.13 5.56 1
4 -1 -15 64.11 5.61 2
-4 1 15 71.77 4.69 4
4 -1 -15 70.36 5.18 4
3 -1 -15 110.09 6.38 4
-3 1 15 95.31 6.38 2
3 -1 -15 103.41 6.6 2
-3 1 15 99.31 5.41 4
3 -1 -15 101.32 6.58 1
2 -1 -15 -0.94 1.33 1
-2 1 15 1.46 1.59 2
2 -1 -15 1.13 1.59 2
-2 1 15 1.95 1.33 4
2 -1 -15 0.8 1.84 4
1 -1 -15 168.54 8.72 1
-1 1 15 176.4 8.69 2
1 -1 -15 190.87 9.25 2
-1 1 15 173.8 7.18 4
1 -1 -15 180.13 8.52 4
0 1 15 19.03 2.79 4
0 1 15 20.88 3.49 2
0 -1 -15 12.71 3.15 4
0 -1 -15 15.35 3.36 1
0 -1 -15 24.53 3.92 2
1 1 15 46.1 3.93 4
1 1 15 41.15 4.62 2
-1 -1 -15 45.68 5.36 2
-1 -1 -15 42.09 4.7 4
-1 -1 -15 34 4.74 1
-2 -1 -15 62.11 6.21 1
2 1 15 69.51 5.97 2
2 1 15 77.24 4.92 4
-2 -1 -15 69.88 6.58 2
-2 -1 -15 61.82 5.72 4
-6 2 15 10.05 2.33 4
-6 2 15 8.66 2.78 2
6 -2 -15 13.58 3.43 2
6 -2 -15 3.56 2.16 1
-6 2 15 13.69 3.72 3
5 -2 -15 77.75 5.88 1
-5 2 15 68.32 5.44 2
-5 2 15 72.69 4.47 4
5 -2 -15 72.54 5.87 2
4 -2 -15 0.47 1.58 1
-4 2 15 2.24 1.67 2
-4 2 15 -0.72 1.09 4
4 -2 -15 1.06 1.65 2
-3 2 15 12.38 2.18 4
-3 2 15 11.22 2.69 2
3 -2 -15 11.68 2.88 2
3 -2 -15 15.75 3.22 1
2 -2 -15 1.9 1.83 1
-2 2 15 1.55 1.27 4
2 -2 -15 1.7 1.84 2
-2 2 15 3.34 1.79 2
1 -2 -15 10.51 2.81 1
-1 2 15 12.23 2.69 2
-1 2 15 10.12 2.02 4
1 -2 -15 16.08 3.42 2
0 2 15 1.45 1.45 2
0 -2 -15 8.68 2.9 1
0 -2 -15 2.07 2.03 2
0 2 15 1.95 1.37 4
1 2 15 13.29 2.3 4
-1 -2 -15 12.11 3.35 1
-1 -2 -15 12.23 3.4 2
1 2 15 13.22 2.98 2
6 -3 -15 2.58 2.16 1
-6 3 15 2.85 2.59 3
-6 3 15 4.01 2.23 2
-6 3 15 1.68 1.27 4
-5 3 15 252.04 12.1 3
-5 3 15 244.93 7.2 4
5 -3 -15 250 10.87 1
-5 3 15 238.47 10.14 2
4 -3 -15 64.79 5.72 1
-4 3 15 68.48 3.43 4
-4 3 15 72.99 5.22 2
-4 3 15 62.44 6.4 3
-3 3 15 253.03 7.05 4
-3 3 15 232.53 9.63 2
3 -3 -15 238.26 10.62 1
-2 3 15 231.69 6.66 4
-2 3 15 225.62 9.37 2
2 -3 -15 227.02 10.3 1
-1 3 15 115.46 6.58 2
1 -3 -15 120.81 7.53 1
-1 3 15 124.06 4.55 4
0 3 15 184.47 5.72 4
0 -3 -15 186.13 9.68 1
0 3 15 177.63 8.37 2
1 3 15 4.5 1.95 2
1 3 15 6.86 2.82 3
1 3 15 4.06 1.32 4
-1 -3 -15 2.92 2.44 1
-5 4 15 1.13 1.59 2
-5 4 15 2.18 2.31 3
5 -4 -15 1.74 1.91 1
-4 4 15 -0.76 2.1 3
-4 4 15 0.79 1.36 2
4 -4 -15 0.1 1.56 1
-3 4 15 5.51 2.62 3
3 -4 -15 8.84 2.69 1
-3 4 15 7.1 2.14 2
2 -4 -15 2.52 2.12 1
-2 4 15 6.64 2.94 3
-2 4 15 5.81 1.93 2
-1 4 15 29.54 3.36 2
1 -4 -15 24.78 4.11 1
-1 4 15 31.07 4.85 3
0 4 15 10.88 3.45 3
-3 5 15 2.35 2.22 3
3 -5 -15 -1.05 1.71 1
-3 5 15 -0.13 1.13 2
-2 -4 16 1.25 2.49 1
2 4 -16 1.62 1.96 2
-1 -4 16 1.23 2.36 1
1 4 -16 4.15 2.28 2
-4 -3 16 23.67 4.51 2
4 3 -16 23.45 3.98 2
-4 -3 16 25.07 3.95 4
-4 -3 16 22.65 4.4 1
-3 -3 16 -0.73 2.12 1
3 3 -16 0.67 1.77 2
-3 -3 16 1.07 2.42 2
-3 -3 16 0.66 1.87 4
-2 -3 16 -1.41 1.79 4
-2 -3 16 -0.97 2.36 1
2 3 -16 -0.66 1.54 2
-2 -3 16 -0.42 2.06 2
1 3 -16 22.47 3 4
-1 -3 16 26.06 4.55 1
-1 -3 16 23.51 3.71 4
-1 -3 16 19.83 3.97 2
1 3 -16 23.28 3.94 2
0 -3 16 9.46 3.1 1
0 -3 16 8.65 3.03 2
0 3 -16 6.85 2.7 2
0 3 -16 7.77 2.1 4
0 -3 16 7.45 2.59 4
1 -3 16 88.69 7 2
-1 3 -16 78.42 6.36 2
1 -3 16 91.52 7.05 1
1 -3 16 89.43 6.19 4
-1 3 -16 85.37 5.19 4
-5 -2 16 7.19 3.02 2
5 2 -16 5.25 2.43 2
-5 -2 16 4.35 2.37 4
-5 -2 16 3.83 3.01 1
-4 -2 16 18.82 4.22 1
-4 -2 16 29.32 3.99 4
4 2 -16 24.14 3.93 2
-4 -2 16 24.75 4.36 2
-3 -2 16 2.88 2.3 2
-3 -2 16 0.89 1.9 4
3 2 -16 3.56 2.02 2
-3 -2 16 0.85 2.17 1
-2 -2 16 5.4 2.37 4
2 2 -16 7.27 2.15 4
-2 -2 16 4.99 2.8 1
-2 -2 16 8.6 2.81 2
2 2 -16 1.97 1.78 2
1 2 -16 2.35 1.53 4
-1 -2 16 1.07 1.79 2
-1 -2 16 0.57 1.8 4
-1 -2 16 0.46 2.04 1
1 2 -16 2.45 1.94 2
0 -2 16 12.1 2.85 4
0 -2 16 7.46 2.94 1
0 2 -16 8.72 2.84 2
0 -2 16 5.76 2.42 2
0 2 -16 8.27 2.26 4
1 -2 16 39.25 4.32 4
-1 2 -16 29.06 3.66 4
1 -2 16 41.68 5.32 1
1 -2 16 35.55 4.82 2
-1 2 -16 32.33 4.72 2
-5 -1 16 136.19 8.53 1
5 1 -16 122.83 7.95 2
-5 -1 16 130.69 7.29 4
-5 -1 16 143.22 8.64 2
5 1 -16 127.57 8.01 1
-4 -1 16 2.58 2.24 2
-4 -1 16 1.6 2.43 1
-4 -1 16 1.77 1.92 4
4 1 -16 4.56 2.42 1
4 1 -16 1.59 1.67 2
-3 -1 16 85.67 6.43 2
3 1 -16 81.96 5.59 4
-3 -1 16 86.64 6.57 1
3 1 -16 86.15 6.34 2
3 1 -16 83.77 6.25 1
-3 -1 16 89.72 5.72 4
2 1 -16 63.89 5.64 1
-2 -1 16 60.96 5.74 1
2 1 -16 57.33 5.47 2
-2 -1 16 61.44 4.81 4
2 1 -16 52.45 4.66 4
-2 -1 16 60.41 5.76 2
1 1 -16 58.63 5.67 2
-1 -1 16 72.61 5.09 4
-1 -1 16 74.74 6.07 1
-1 -1 16 64.88 5.82 2
1 1 -16 78.83 5.44 4
1 1 -16 74.56 6.03 1
0 -1 16 183.2 9.54 1
0 -1 16 181.78 8.36 4
0 -1 16 179.09 9.54 2
0 1 -16 180.56 9.47 1
0 1 -16 179.36 8.53 4
0 1 -16 175.73 9.44 2
-1 1 -16 23.97 3.71 4
1 -1 16 21.89 3.38 4
1 -1 16 19.25 3.84 2
-1 1 -16 31.23 4.77 2
-1 1 -16 20.67 4.02 1
1 -1 16 22.14 4.28 1
-6 0 16 29.15 3.94 4
-6 0 16 17.58 3.86 2
6 0 -16 26.86 4.28 1
6 0 -16 26.32 4.43 2
5 0 -16 49.71 5.26 1
5 0 -16 60.66 5.86 2
-5 0 16 55.77 5.69 2
-5 0 16 62.37 4.85 4
4 0 -16 38.51 4.63 1
-4 0 16 33.27 3.9 4
4 0 -16 48.54 4.65 4
4 0 -16 48.42 5.08 2
-4 0 16 35.67 4.73 2
-4 0 16 46.42 5.34 1
3 0 -16 63.34 5.72 1
3 0 -16 68.82 5.23 4
-3 0 16 58.82 5.7 2
-3 0 16 73.72 5.98 1
3 0 -16 68.92 5.93 2
-3 0 16 79.34 5.09 4
2 0 -16 28.97 4.12 1
2 0 -16 32.14 3.96 4
-2 0 16 30.34 4.27 2
-2 0 16 25.82 3.38 4
2 0 -16 29.21 4.2 2
-2 0 16 29.97 4.36 1
1 0 -16 3.73 2.27 2
-1 0 16 17.61 3.7 1
1 0 -16 6.02 2.33 4
1 0 -16 18.08 3.57 1
-1 0 16 17.55 2.97 4
-1 0 16 13.84 3.26 2
0 0 -16 4.23 2.18 4
0 0 -16 1.52 1.79 2
0 0 -16 3.29 2.22 1
0 0 16 1.6 1.62 4
0 0 16 6.07 2.37 2
-1 0 -16 137.41 8.62 2
-1 0 -16 130.56 8.29 1
1 0 16 133.84 8.11 2
1 0 16 127.44 6.83 4
-1 0 -16 139.85 7.89 4
-6 1 16 129.23 8.14 2
6 -1 -16 132.55 8.22 1
6 -1 -16 141.71 8.52 2
-6 1 16 116.15 6.57 4
5 -1 -16 7.23 2.61 1
5 -1 -16 9.66 2.85 4
5 -1 -16 10.35 3.11 2
-5 1 16 9.38 2.91 2
-5 1 16 9.01 2.37 4
4 -1 -16 88.97 6.15 4
4 -1 -16 85.21 6.38 1
4 -1 -16 92.62 6.58 2
-4 1 16 86.13 6.31 2
-4 1 16 85.98 5.24 4
-3 1 16 4.35 2.23 2
-3 1 16 1.23 1.53 4
3 -1 -16 4.69 2.37 1
3 -1 -16 1.97 1.99 4
3 -1 -16 2.81 1.94 2
-2 1 16 172 7.27 4
2 -1 -16 193.37 9.55 2
2 -1 -16 160.77 8.75 1
2 -1 -16 169.09 8.51 4
-2 1 16 166.28 8.57 2
1 -1 -16 46.11 5.19 2
1 -1 -16 43.87 4.99 1
1 -1 -16 37.37 4.45 4
-1 1 16 59.3 5.41 2
-1 1 16 43.09 3.92 4
0 -1 -16 177.95 8.85 4
0 1 16 145.82 8.4 2
0 -1 -16 166.39 9.24 2
0 1 16 180.91 7.53 4
0 -1 -16 154.15 8.95 1
-1 -1 -16 124.63 8.11 1
1 1 16 107.44 5.85 4
1 1 16 111.36 7.26 2
-1 -1 -16 112.62 7.96 2
-1 -1 -16 105.92 7.06 4
5 -2 -16 39.88 4.99 2
-5 2 16 42.12 4.82 2
5 -2 -16 40.32 4.96 1
-5 2 16 41.2 3.67 4
-4 2 16 8.26 2.7 2
4 -2 -16 8.8 2.74 2
4 -2 -16 10.67 2.99 1
-4 2 16 7.82 2.04 4
-3 2 16 7.55 2.36 2
3 -2 -16 5.53 2.44 2
3 -2 -16 9.13 2.89 1
-3 2 16 4.52 1.74 4
2 -2 -16 31.66 4.43 2
-2 2 16 31.02 3.14 4
-2 2 16 36.57 4.3 2
2 -2 -16 28.66 4.25 1
1 -2 -16 35.75 4.71 2
-1 2 16 38.41 4.41 2
1 -2 -16 37.4 4.75 1
-1 2 16 38.7 3.34 4
0 2 16 9.23 2.66 2
0 -2 -16 8.79 2.93 1
0 2 16 4.1 1.7 4
0 -2 -16 4.86 2.54 2
5 -3 -16 0.11 1.83 1
-5 3 16 -0.24 1.21 4
-5 3 16 1.23 1.66 2
-5 3 16 -1.56 1.9 3
-4 3 16 32.63 4 2
-4 3 16 35.13 2.58 4
-4 3 16 39.85 5.57 3
4 -3 -16 29.37 4.38 1
-3 3 16 49.1 2.88 4
-3 3 16 51.57 6.16 3
3 -3 -16 44.9 5.16 1
-3 3 16 45.54 4.61 2
-2 3 16 21.94 3.46 2
2 -3 -16 22.47 4.03 1
-2 3 16 26.05 2.21 4
1 -3 -16 139.01 8.49 1
-1 3 16 131.17 7.23 2
-1 3 16 144.12 4.89 4
3 2 -17 77.28 6.29 2
-3 -2 17 84.32 6.03 4
-3 -2 17 72.88 6.65 2
-3 -2 17 87.19 7.03 1
-2 -2 17 54.94 5.16 4
-2 -2 17 45.59 5.52 2
-2 -2 17 59.88 6.2 1
2 2 -17 45.73 4.38 4
2 2 -17 45.88 5.27 2
-1 -2 17 55.82 5.09 4
-1 -2 17 54.6 5.98 1
-1 -2 17 49.54 5.54 2
1 2 -17 49.8 4.54 4
1 2 -17 42.23 5.13 2
-4 -1 17 43.77 4.74 4
-4 -1 17 48.69 5.83 1
4 1 -17 44.61 5.17 1
-4 -1 17 45.88 5.62 2
4 1 -17 38.61 4.97 2
-3 -1 17 -2.01 1.68 2
3 1 -17 3.11 2.19 2
-3 -1 17 3.33 2.83 1
3 1 -17 0.88 1.6 4
3 1 -17 4.29 2.4 1
-3 -1 17 2.92 2.03 4
-2 -1 17 10.32 3.12 2
-2 -1 17 23.72 3.67 4
2 1 -17 18.01 3.7 1
2 1 -17 17.41 3.17 4
2 1 -17 17.01 3.72 2
-2 -1 17 18.04 4.09 1
-1 -1 17 24.38 4.19 2
1 1 -17 23.97 4.27 2
-1 -1 17 24.95 4.41 1
-1 -1 17 31.11 4 4
1 1 -17 19.6 3.33 4
1 1 -17 17.34 3.87 1
0 -1 17 25.74 4.73 1
0 1 -17 36.03 4.98 1
0 1 -17 27.33 4.67 2
0 -1 17 29.19 4.63 2
-4 0 17 1.33 2.2 2
4 0 -17 -0.75 1.67 1
4 0 -17 2.34 1.95 4
4 0 -17 5.95 2.5 2
-4 0 17 1.77 1.88 4
3 0 -17 3.37 2.05 4
3 0 -17 3.27 2.16 1
-3 0 17 6.31 2.6 2
-3 0 17 1.38 1.63 4
3 0 -17 1.76 2.02 2
2 0 -17 15.59 3.46 2
2 0 -17 15.98 3.25 4
-2 0 17 12.32 2.61 4
-2 0 17 18.18 3.76 2
2 0 -17 11.74 3.3 1
-1 0 17 3.25 1.79 4
1 0 -17 1.07 1.78 2
1 0 -17 1.05 2.13 1
-1 0 17 5.41 2.3 2
1 0 -17 1.21 1.85 4
-4 1 17 -1.24 1.45 4
-4 1 17 -0.62 1.77 2
4 -1 -17 0.72 1.86 4
4 -1 -17 -1.23 1.41 2
4 -1 -17 -0.5 1.69 1
-3 1 17 1.76 1.54 4
3 -1 -17 -0.64 1.68 2
-3 1 17 -0.78 1.71 2
3 -1 -17 1.24 1.78 1
3 -1 -17 0.64 1.88 4
-2 1 17 10.04 2.96 2
2 -1 -17 6.21 2.6 1
2 -1 -17 2.91 2.19 2
2 -1 -17 4.11 2.29 4
-2 1 17 9.06 2.28 4
1 -1 -17 60.42 6.07 2
-1 1 17 64.87 5.9 2
-1 1 17 65.6 4.59 4
1 -1 -17 56.24 5.87 1
1 -1 -17 61.7 5.72 4
4 -2 -17 77.76 6.67 1
3 -2 -17 37.32 4.92 2
-3 2 17 32.25 3.29 4
3 -2 -17 29.21 4.54 1
-3 2 17 32.78 4.39 2
2 -2 -17 53.84 5.67 1
2 -2 -17 42.36 5.14 2
-2 2 17 44.94 4.99 2
-2 2 17 45.79 3.73 4

_cod_database_fobs_code 2108434
