#------------------------------------------------------------------------------
#$Date: 2022-03-16 04:56:31 +0200 (Wed, 16 Mar 2022) $
#$Revision: 273718 $
#$URL: file:///home/coder/svn-repositories/cod/cif/2/10/89/2108943.cif $
#------------------------------------------------------------------------------
#
# This file is available in the Crystallography Open Database (COD),
# http://www.crystallography.net/. The original data for this entry
# were provided by IUCr Journals, http://journals.iucr.org/.
#
# The file may be used within the scientific community so long as
# proper attribution is given to the journal article from which the
# data were obtained.
#
data_2108943
loop_
_publ_author_name
'Hasija, Avantika'
'Som, Shubham'
'Chopra, Deepak'
_publ_section_title
;
 Investigation of crystal structures, energetics and isostructurality in
 halogen-substituted phosphoramidates
;
_journal_issue                   2
_journal_name_full               'Acta Crystallographica Section B'
_journal_page_first
;
;
_journal_paper_doi               10.1107/S2052520622000889
_journal_volume                  78
_journal_year                    2022
_chemical_formula_moiety         'C18 H14 F2 N O3 P'
_chemical_formula_sum            'C18 H14 F2 N O3 P'
_chemical_formula_weight         361.27
_space_group_crystal_system      triclinic
_space_group_IT_number           2
_space_group_name_Hall           '-P 1'
_space_group_name_H-M_alt        'P -1'
_atom_sites_solution_hydrogens   mixed
_atom_sites_solution_primary     dual
_audit_creation_date             2021-05-28
_audit_creation_method
;
Olex2 1.3
(compiled 2020.11.12 svn.r5f609507 for OlexSys, GUI svn.r6272)
;
_cell_angle_alpha                68.276(3)
_cell_angle_beta                 84.831(3)
_cell_angle_gamma                69.889(3)
_cell_formula_units_Z            2
_cell_length_a                   9.2189(6)
_cell_length_b                   10.0245(7)
_cell_length_c                   10.0445(7)
_cell_measurement_reflns_used    6562
_cell_measurement_temperature    100(2)
_cell_measurement_theta_max      29.37
_cell_measurement_theta_min      2.35
_cell_volume                     809.02(10)
_computing_cell_refinement       'Bruker SAINT'
_computing_data_collection       'Bruker APEX2'
_computing_data_reduction        'Bruker SAINT'
_computing_molecular_graphics    'Olex2 1.3 (Dolomanov et al., 2009)'
_computing_publication_material  'Olex2 1.3 (Dolomanov et al., 2009)'
_computing_structure_refinement  'SHELXL 2018/3 (Sheldrick, 2015)'
_computing_structure_solution    'SHELXS-97 (Sheldrick 2008)'
_diffrn_ambient_temperature      100.25
_diffrn_measured_fraction_theta_full 1.000
_diffrn_measured_fraction_theta_max 1.000
_diffrn_measurement_device_type  'Bruker APEX-II CCD'
_diffrn_measurement_method       '\f and \w scans'
_diffrn_radiation_type           MoK\a
_diffrn_radiation_wavelength     0.71073
_diffrn_reflns_av_R_equivalents  0.0939
_diffrn_reflns_av_unetI/netI     0.0626
_diffrn_reflns_Laue_measured_fraction_full 1.000
_diffrn_reflns_Laue_measured_fraction_max 1.000
_diffrn_reflns_limit_h_max       12
_diffrn_reflns_limit_h_min       -12
_diffrn_reflns_limit_k_max       13
_diffrn_reflns_limit_k_min       -13
_diffrn_reflns_limit_l_max       13
_diffrn_reflns_limit_l_min       -13
_diffrn_reflns_number            22878
_diffrn_reflns_point_group_measured_fraction_full 1.000
_diffrn_reflns_point_group_measured_fraction_max 1.000
_diffrn_reflns_theta_full        25.242
_diffrn_reflns_theta_max         28.282
_diffrn_reflns_theta_min         2.322
_exptl_absorpt_coefficient_mu    0.209
_exptl_absorpt_correction_T_max  0.7460
_exptl_absorpt_correction_T_min  0.6775
_exptl_absorpt_correction_type   multi-scan
_exptl_absorpt_process_details   SADABS-2014/5
_exptl_crystal_colour            colourless
_exptl_crystal_density_diffrn    1.483
_exptl_crystal_description       needle
_exptl_crystal_F_000             372
_exptl_crystal_size_max          0.36
_exptl_crystal_size_mid          0.048
_exptl_crystal_size_min          0.018
_refine_diff_density_max         0.333
_refine_diff_density_min         -0.543
_refine_diff_density_rms         0.069
_refine_ls_extinction_method     none
_refine_ls_goodness_of_fit_ref   1.056
_refine_ls_hydrogen_treatment    mixed
_refine_ls_matrix_type           full
_refine_ls_number_parameters     230
_refine_ls_number_reflns         4012
_refine_ls_number_restraints     0
_refine_ls_restrained_S_all      1.056
_refine_ls_R_factor_all          0.0767
_refine_ls_R_factor_gt           0.0461
_refine_ls_shift/su_max          0.000
_refine_ls_shift/su_mean         0.000
_refine_ls_structure_factor_coef Fsqd
_refine_ls_weighting_details
'w=1/[\s^2^(Fo^2^)+(0.0304P)^2^+0.5222P] where P=(Fo^2^+2Fc^2^)/3'
_refine_ls_weighting_scheme      calc
_refine_ls_wR_factor_gt          0.0901
_refine_ls_wR_factor_ref         0.1003
_reflns_Friedel_coverage         0.000
_reflns_number_gt                2972
_reflns_number_total             4012
_reflns_threshold_expression     'I > 2\s(I)'
_cod_data_source_file            aw5064sup1.cif
_cod_data_source_block           25F
_cod_database_code               2108943
_shelx_shelxl_version_number     2018/3
_shelx_space_group_comment
;
The symmetry employed for this shelxl refinement is uniquely defined
by the following loop, which should always be used as a source of
symmetry information in preference to the above space-group names.
They are only intended as comments.
;
_shelx_estimated_absorpt_t_max   0.996
_shelx_estimated_absorpt_t_min   0.929
_olex2_refinement_description
;
1. Fixed Uiso
 At 1.2 times of:
  All C(H) groups
2.a Aromatic/amide H refined with riding coordinates:
 C2(H2), C3(H3), C4(H4), C5(H5), C6(H6), C9(H9), C10(H10), C12(H12), C14(H14),
 C15(H15), C16(H16), C17(H17), C18(H18)
;
_shelx_res_file
;
TITL SIR2014 run in space group P -1
    ahp25f_dh.res
    created by SHELXL-2018/3 at 19:19:20 on 28-May-2021
CELL 0.71073 9.2189 10.0245 10.0445 68.276 84.831 69.889
ZERR 2 0.0006 0.0007 0.0007 0.003 0.003 0.003
LATT 1
SFAC C H N O F P
UNIT 36 28 2 6 4 2

L.S. 10
PLAN  10
SIZE 0.36 0.048 0.018
TEMP -172.9
CONF
BOND $H
MORE -1
fmap 2
acta
SHEL 999 0.75
REM <olex2.extras>
REM <HklSrc "%.\\AHP25F_DH.hkl">
REM </olex2.extras>

WGHT    0.030400    0.522200
FVAR       0.27472
P1    6    0.055646    0.187604    0.025163    11.00000    0.01601    0.01333 =
         0.01145   -0.00519    0.00137   -0.00751
F1    5   -0.088861    0.238887   -0.389455    11.00000    0.02943    0.03379 =
         0.01887   -0.01641    0.00366   -0.01619
F2    5   -0.210784    0.775830   -0.318232    11.00000    0.02797    0.01630 =
         0.02707   -0.00118   -0.00324   -0.00715
O1    4    0.172576    0.278119   -0.004778    11.00000    0.01794    0.01845 =
         0.01636   -0.00926    0.00359   -0.01077
O2    4   -0.060922    0.284561    0.108000    11.00000    0.01840    0.01617 =
         0.01436   -0.00681    0.00446   -0.00947
O3    4    0.114820    0.023594    0.105453    11.00000    0.01923    0.01560 =
         0.01767   -0.00502   -0.00035   -0.00771
N1    3   -0.023502    0.225972   -0.129166    11.00000    0.02199    0.01485 =
         0.01328   -0.00584    0.00003   -0.00951
C1    1    0.297249    0.264451   -0.095607    11.00000    0.01458    0.01863 =
         0.00922   -0.00331   -0.00203   -0.00569
C2    1    0.351898    0.385533   -0.141908    11.00000    0.01907    0.01457 =
         0.01874   -0.00540   -0.00215   -0.00610
AFIX  43
H2    2    0.303849    0.471283   -0.114480    11.00000   -1.20000
AFIX   0
C3    1    0.477724    0.380609   -0.228910    11.00000    0.02039    0.02510 =
         0.02245   -0.00611    0.00091   -0.01463
AFIX  43
H3    2    0.515880    0.463640   -0.261962    11.00000   -1.20000
AFIX   0
C4    1    0.547760    0.255040   -0.267646    11.00000    0.01708    0.03197 =
         0.02257   -0.01113    0.00432   -0.01264
AFIX  43
H4    2    0.633974    0.251582   -0.327294    11.00000   -1.20000
AFIX   0
C5    1    0.491756    0.134504   -0.219180    11.00000    0.02090    0.02357 =
         0.02494   -0.01436    0.00364   -0.00731
AFIX  43
H5    2    0.540694    0.048125   -0.245493    11.00000   -1.20000
AFIX   0
C6    1    0.365464    0.137488   -0.132875    11.00000    0.02069    0.01666 =
         0.02026   -0.00703    0.00166   -0.01020
AFIX  43
H6    2    0.326848    0.054771   -0.100249    11.00000   -1.20000
AFIX   0
C7    1   -0.087466    0.369166   -0.238413    11.00000    0.01293    0.02096 =
         0.01193   -0.00492    0.00207   -0.00968
C8    1   -0.123142    0.374480   -0.372197    11.00000    0.01558    0.02563 =
         0.01726   -0.01072    0.00451   -0.01200
C9    1   -0.187834    0.507586   -0.485025    11.00000    0.01638    0.03864 =
         0.01331   -0.00776   -0.00037   -0.01141
AFIX  43
H9    2   -0.211927    0.505342   -0.573992    11.00000   -1.20000
AFIX   0
C10   1   -0.217811    0.645552   -0.468186    11.00000    0.01551    0.02748 =
         0.01681    0.00134   -0.00180   -0.00629
AFIX  43
H10   2   -0.262092    0.739731   -0.544645    11.00000   -1.20000
AFIX   0
C11   1   -0.181116    0.640882   -0.336996    11.00000    0.01504    0.01838 =
         0.01965   -0.00386    0.00079   -0.00659
C12   1   -0.117449    0.508080   -0.221298    11.00000    0.01713    0.02057 =
         0.01338   -0.00505    0.00015   -0.00914
AFIX  43
H12   2   -0.094642    0.511183   -0.132341    11.00000   -1.20000
AFIX   0
C13   1   -0.173693    0.228877    0.190903    11.00000    0.01770    0.01130 =
         0.01447   -0.00600    0.00452   -0.00685
C14   1   -0.147328    0.162306    0.337788    11.00000    0.01883    0.01735 =
         0.01750   -0.00627   -0.00084   -0.00520
AFIX  43
H14   2   -0.052062    0.146304    0.380647    11.00000   -1.20000
AFIX   0
C15   1   -0.263662    0.119370    0.421203    11.00000    0.02706    0.01733 =
         0.01504   -0.00368    0.00435   -0.00717
AFIX  43
H15   2   -0.248018    0.072731    0.522496    11.00000   -1.20000
AFIX   0
C16   1   -0.402556    0.144162    0.357531    11.00000    0.02149    0.01852 =
         0.02762   -0.00842    0.00955   -0.00992
AFIX  43
H16   2   -0.482129    0.115646    0.415449    11.00000   -1.20000
AFIX   0
C17   1   -0.425784    0.210285    0.209933    11.00000    0.01915    0.02209 =
         0.02810   -0.00994   -0.00041   -0.00948
AFIX  43
H17   2   -0.520910    0.226223    0.166872    11.00000   -1.20000
AFIX   0
C18   1   -0.310753    0.253344    0.124701    11.00000    0.02374    0.02058 =
         0.01527   -0.00592   -0.00003   -0.00967
AFIX  43
H18   2   -0.325618    0.298562    0.023288    11.00000   -1.20000
AFIX   0
H1    2   -0.041041    0.154243   -0.137878    11.00000    0.04057
HKLF 4




REM  SIR2014 run in space group P -1
REM wR2 = 0.1003, GooF = S = 1.056, Restrained GooF = 1.056 for all data
REM R1 = 0.0461 for 2972 Fo > 4sig(Fo) and 0.0767 for all 4012 data
REM 230 parameters refined using 0 restraints

END

WGHT      0.0304      0.5215

REM Highest difference peak  0.333,  deepest hole -0.543,  1-sigma level  0.069
Q1    1  -0.3208  0.1006  0.3837  11.00000  0.05    0.33
Q2    1  -0.1485  0.1608  0.2625  11.00000  0.05    0.31
Q3    1  -0.4094  0.1979  0.2819  11.00000  0.05    0.30
Q4    1  -0.1591  0.6349 -0.4183  11.00000  0.05    0.29
Q5    1  -0.2147  0.1838  0.1616  11.00000  0.05    0.29
Q6    1  -0.0699  0.3005 -0.1808  11.00000  0.05    0.26
Q7    1   0.3048  0.3433 -0.1535  11.00000  0.05    0.24
Q8    1   0.4808  0.1243 -0.1356  11.00000  0.05    0.23
Q9    1   0.1932  0.0627 -0.1555  11.00000  0.05    0.23
Q10   1  -0.1430  0.3839 -0.3009  11.00000  0.05    0.23
;
_shelx_res_checksum              84807
_shelx_hkl_file
;
  -1   0   0  259.74   11.94
  -1   0   0  246.04   11.90
  -1   0   0  243.78   11.93
   1   0   0  215.27   12.07
   1   0   0  234.54   11.94
  -2   0   0    9.75    0.59
  -2   0   0    8.96    0.62
  -2   0   0    9.70    0.58
  -2   0   0    9.05    0.63
   2   0   0    9.68    0.58
   2   0   0    8.81    0.51
  -3   0   0  110.11    5.67
  -3   0   0  116.09    5.77
  -3   0   0  109.17    5.74
  -3   0   0   92.68    5.64
   3   0   0  115.35    5.74
   3   0   0  118.39    5.66
   3   0   0  119.32    6.08
  -4   0   0   16.62    1.26
  -4   0   0   17.93    1.21
  -4   0   0   17.24    1.11
  -4   0   0   17.40    1.12
   4   0   0   18.75    1.58
   4   0   0   18.13    1.20
  -5   0   0    9.00    0.91
  -5   0   0    9.90    0.80
  -5   0   0   10.81    0.84
  -5   0   0    7.85    1.04
   5   0   0    9.56    1.26
   5   0   0   10.60    0.93
  -6   0   0    0.29    0.35
  -6   0   0    0.47    0.35
  -6   0   0    0.17    0.61
  -6   0   0   -0.01    0.40
   6   0   0    0.53    0.71
   6   0   0    0.35    0.40
  -7   0   0   28.35    2.23
  -7   0   0   25.38    1.73
  -7   0   0   24.58    2.03
  -7   0   0   23.36    1.59
  -7   0   0   23.89    1.83
   7   0   0   25.30    1.93
  -8   0   0   20.03    1.66
  -8   0   0   21.09    2.35
  -8   0   0   21.29    1.90
  -8   0   0   19.27    1.44
  -8   0   0   25.02    2.15
   8   0   0   21.21    2.71
   8   0   0   23.61    1.95
  -9   0   0    7.97    1.15
  -9   0   0    6.65    1.65
  -9   0   0    6.36    1.44
  -9   0   0    6.89    1.28
   9   0   0    6.43    2.25
 -10   0   0   -2.74    1.71
 -10   0   0    2.69    1.53
 -10   0   0   -0.15    1.16
 -10   0   0   -2.00    1.15
  10   0   0   -2.27    1.62
 -11   0   0    1.20    1.58
 -11   0   0    0.19    2.56
 -11   0   0   -2.94    1.45
  11   0   0    1.40    2.21
 -12   0   0   -0.88    1.92
  12   0   0    4.01    2.64
  11  -1   0   -2.62    2.22
 -11   1   0   -3.25    2.58
 -11   1   0   -1.36    1.62
 -11   1   0   -1.27    1.73
  10  -1   0    9.76    2.67
 -10   1   0    6.74    2.50
 -10   1   0    7.17    1.55
   9  -1   0    1.75    1.50
  -9   1   0    0.31    1.19
  -9   1   0    1.37    0.96
  -9   1   0    3.39    1.17
  -9   1   0    2.32    1.00
  -9   1   0    3.50    1.48
   8  -1   0    1.88    1.67
  -8   1   0   -1.71    0.90
  -8   1   0   -0.97    0.74
  -8   1   0   -0.85    0.62
  -8   1   0   -0.62    0.67
  -8   1   0   -0.18    0.49
  -8   1   0   -0.08    0.90
   7  -1   0   16.22    2.29
  -7   1   0   21.38    1.47
  -7   1   0   21.19    1.72
  -7   1   0   22.62    1.71
  -7   1   0   21.27    1.93
  -7   1   0   19.45    1.89
  -7   1   0   19.84    1.64
   6  -1   0   16.17    1.32
   6  -1   0   13.30    1.92
  -6   1   0   16.11    1.28
  -6   1   0   16.13    1.32
  -6   1   0   14.76    1.40
  -6   1   0   14.77    1.28
  -6   1   0   16.21    1.50
  -6   1   0   15.85    1.17
   5  -1   0    3.82    1.00
   5  -1   0    4.60    0.71
  -5   1   0    5.05    0.66
  -5   1   0    4.36    0.75
  -5   1   0    4.65    0.64
  -5   1   0    4.58    0.72
  -5   1   0    3.98    0.56
   4  -1   0    8.69    0.74
   4  -1   0    9.65    1.19
   4  -1   0    8.19    0.72
  -4   1   0    7.95    0.73
  -4   1   0    8.28    0.67
  -4   1   0    7.41    0.76
  -4   1   0    6.46    0.67
  -4   1   0    8.15    0.69
   3  -1   0   55.31    3.32
   3  -1   0   56.89    2.92
   3  -1   0   55.63    2.97
  -3   1   0   46.22    3.28
  -3   1   0   54.85    2.79
  -3   1   0   54.06    2.90
  -3   1   0   57.26    2.98
  -3   1   0   51.60    2.91
  -3   1   0   55.79    2.89
   2  -1   0   13.41    0.91
   2  -1   0   15.22    0.85
   2  -1   0   16.16    1.17
  -2   1   0   12.12    0.84
  -2   1   0   13.43    0.84
  -2   1   0   14.15    0.91
   1  -1   0    1.23    0.33
   1  -1   0    1.88    0.26
   1  -1   0    1.85    0.27
  -1   1   0    2.00    0.17
  -1   1   0    2.02    0.37
  -1   1   0    1.50    0.20
  -1   1   0    1.98    0.26
  -1   1   0    2.89    0.46
   0  -1   0   -0.72    0.13
   0  -1   0   -0.74    0.20
   0   1   0   -0.67    0.07
   0   1   0   -0.79    0.16
   0   1   0   -0.68    0.15
  -1  -1   0   23.49    1.35
  -1  -1   0   22.28    1.17
  -1  -1   0   21.94    1.34
   1   1   0   18.56    1.41
   1   1   0   22.00    1.21
   1   1   0   25.16    1.24
  -2  -1   0   37.20    2.20
  -2  -1   0   37.59    2.07
  -2  -1   0   36.62    2.04
   2   1   0   38.77    2.07
   2   1   0   39.47    2.20
   2   1   0   38.26    2.05
  -3  -1   0  375.98   17.59
  -3  -1   0  347.90   17.65
  -3  -1   0  355.63   17.80
  -3  -1   0  334.32   17.47
   3   1   0  337.75   17.58
   3   1   0  358.08   17.65
   3   1   0  357.98   17.73
  -4  -1   0   30.18    1.81
  -4  -1   0   31.19    1.92
  -4  -1   0   30.79    2.08
  -4  -1   0   31.05    1.71
   4   1   0   33.06    1.92
   4   1   0   32.29    1.82
   4   1   0   32.48    2.23
   4   1   0   32.76    1.93
  -5  -1   0    3.02    0.40
  -5  -1   0    2.59    0.69
  -5  -1   0    1.95    0.45
  -5  -1   0    3.21    0.56
   5   1   0    3.20    0.50
   5   1   0    3.92    0.99
   5   1   0    3.51    0.58
   5   1   0    4.10    0.51
  -6  -1   0   94.13    5.37
  -6  -1   0   91.88    4.90
  -6  -1   0   89.20    4.83
  -6  -1   0   87.87    5.08
   6   1   0   94.78    5.14
   6   1   0  108.84    5.83
   6   1   0   88.75    4.89
  -7  -1   0    9.23    1.14
  -7  -1   0    8.33    0.91
  -7  -1   0   10.49    0.86
  -7  -1   0    8.14    1.28
  -7  -1   0    7.36    1.33
   7   1   0    8.40    1.14
   7   1   0    9.20    0.86
   7   1   0    8.97    1.72
  -8  -1   0    7.08    1.10
  -8  -1   0    7.99    1.28
  -8  -1   0    6.58    0.90
  -8  -1   0    8.57    1.55
   8   1   0    8.94    1.34
  -9  -1   0    6.82    1.84
  -9  -1   0    6.40    1.34
  -9  -1   0    7.13    1.43
   9   1   0    8.80    1.38
   9   1   0    8.51    2.22
 -10  -1   0   -1.34    1.05
 -10  -1   0    1.12    1.42
 -10  -1   0   -1.82    1.77
  10   1   0    0.46    1.31
  10   1   0   -0.68    1.60
 -11  -1   0    3.58    2.95
 -11  -1   0    7.78    1.79
  11   1   0    7.68    2.63
 -12  -1   0    2.70    2.00
 -12  -1   0    7.93    3.75
  12   1   0    2.63    2.67
  11  -2   0   -0.04    2.42
 -11   2   0    0.20    2.04
 -11   2   0    0.34    1.71
 -11   2   0   -3.51    3.86
  10  -2   0    1.79    2.13
 -10   2   0    1.94    2.10
 -10   2   0    5.76    1.62
 -10   2   0    2.76    3.26
 -10   2   0    1.27    1.33
   9  -2   0    5.17    2.06
  -9   2   0    4.74    1.82
  -9   2   0    9.63    1.40
  -9   2   0    9.68    3.02
  -9   2   0    9.67    1.49
  -9   2   0    9.07    1.74
  -9   2   0    9.30    1.78
   8  -2   0   17.79    3.09
  -8   2   0   28.65    2.04
  -8   2   0   22.81    1.71
  -8   2   0   27.08    2.46
  -8   2   0   23.14    2.28
  -8   2   0   23.11    2.06
   7  -2   0    0.43    1.48
  -7   2   0    0.81    0.80
  -7   2   0    1.33    0.65
  -7   2   0    2.94    0.82
  -7   2   0    0.11    0.84
  -7   2   0    1.08    0.54
  -7   2   0    1.65    0.58
   6  -2   0    3.25    1.15
  -6   2   0    3.44    0.68
  -6   2   0    3.88    0.65
  -6   2   0    3.94    0.78
  -6   2   0    3.87    0.63
  -6   2   0    4.48    0.81
   5  -2   0    0.03    0.38
   5  -2   0    0.32    0.74
  -5   2   0    0.13    0.34
  -5   2   0   -0.12    0.29
  -5   2   0    0.04    0.42
  -5   2   0    0.20    0.43
  -5   2   0    0.38    0.36
   4  -2   0   26.17    1.63
   4  -2   0   23.90    2.06
  -4   2   0   22.60    1.44
  -4   2   0   20.80    1.46
  -4   2   0   24.61    1.61
  -4   2   0   21.71    1.49
   3  -2   0   14.90    1.39
   3  -2   0   14.02    1.06
  -3   2   0   11.63    0.91
  -3   2   0   13.51    0.88
  -3   2   0   13.09    1.44
  -3   2   0   13.27    1.05
   2  -2   0    3.32    0.51
   2  -2   0    3.85    0.44
   2  -2   0    4.41    0.70
  -2   2   0    4.12    0.35
  -2   2   0    4.59    0.86
  -2   2   0    3.20    0.50
  -2   2   0    3.23    0.64
  -2   2   0    3.65    0.42
   1  -2   0  171.65    8.58
   1  -2   0  160.60    8.29
   1  -2   0  166.11    8.60
   1  -2   0  161.46    8.39
  -1   2   0  153.23    8.56
  -1   2   0  172.22    8.31
  -1   2   0  166.32    8.39
   0  -2   0  724.95   37.71
   0  -2   0  832.28   37.93
   0   2   0  722.53   37.88
  -1  -2   0    0.79    0.20
  -1  -2   0    0.96    0.36
  -1  -2   0    0.64    0.33
  -1  -2   0    0.86    0.17
   1   2   0    0.61    0.17
   1   2   0    1.04    0.36
   1   2   0    0.57    0.18
   1   2   0    0.82    0.36
  -2  -2   0  102.79    5.31
  -2  -2   0   99.89    5.29
  -2  -2   0   95.55    5.03
   2   2   0  102.59    5.04
   2   2   0   98.61    5.30
   2   2   0   96.98    5.07
   2   2   0   87.78    5.27
  -3  -2   0  142.71    7.73
  -3  -2   0  140.90    7.45
   3   2   0  138.73    7.68
   3   2   0  152.03    7.48
   3   2   0  152.56    7.48
  -4  -2   0  233.87   12.27
  -4  -2   0  236.62   12.64
  -4  -2   0  239.67   12.35
   4   2   0  261.40   12.32
   4   2   0  245.72   12.56
   4   2   0  239.28   12.34
  -5  -2   0   34.44    2.00
  -5  -2   0   32.88    2.09
  -5  -2   0   33.08    1.75
  -5  -2   0   32.06    2.45
   5   2   0   33.09    2.10
   5   2   0   34.14    2.03
   5   2   0   33.55    2.22
  -6  -2   0   -0.15    0.68
  -6  -2   0    0.60    0.17
  -6  -2   0   -0.09    0.40
  -6  -2   0    0.33    0.38
   6   2   0   -0.10    0.50
   6   2   0    0.48    0.43
   6   2   0    0.08    0.47
   6   2   0    0.36    0.33
  -7  -2   0   14.45    1.77
  -7  -2   0   14.59    0.93
  -7  -2   0   12.88    1.36
  -7  -2   0   15.00    1.93
   7   2   0   14.63    1.15
   7   2   0   14.42    1.36
   7   2   0   13.26    1.28
   7   2   0   10.28    1.93
  -8  -2   0  101.81    5.77
  -8  -2   0  106.61    6.38
  -8  -2   0  107.92    5.92
   8   2   0  102.23    5.76
   8   2   0   89.51    6.80
   8   2   0   98.04    5.43
  -9  -2   0   21.56    2.27
  -9  -2   0   18.14    2.90
  -9  -2   0   18.87    1.96
   9   2   0   16.61    2.80
   9   2   0   13.36    1.32
   9   2   0   18.54    1.97
 -10  -2   0    4.11    1.27
 -10  -2   0    3.34    1.45
 -10  -2   0    2.71    2.13
  10   2   0    3.25    1.58
  10   2   0    5.53    1.40
 -11  -2   0    1.56    2.70
 -11  -2   0    3.27    1.57
  11   2   0    1.26    1.69
  11   2   0    2.38    1.98
 -12  -2   0   -4.95    3.46
 -12  -2   0   -2.17    1.92
  12   2   0   -0.46    2.12
  10  -3   0    3.87    2.29
 -10   3   0    4.09    1.69
 -10   3   0    4.89    3.42
 -10   3   0    1.85    1.45
 -10   3   0    2.72    3.51
   9  -3   0   13.17    2.84
  -9   3   0   13.41    2.20
  -9   3   0   14.07    2.07
  -9   3   0   15.01    1.38
  -9   3   0   12.95    2.30
  -9   3   0   13.91    2.01
  -9   3   0   18.10    2.83
  -9   3   0   11.20    3.30
   8  -3   0    1.02    1.68
  -8   3   0    0.73    1.13
  -8   3   0    0.97    1.26
  -8   3   0   -0.23    0.75
  -8   3   0    1.05    0.93
  -8   3   0    1.67    0.76
  -8   3   0   -2.20    1.08
   7  -3   0    5.27    1.85
  -7   3   0    5.43    0.91
  -7   3   0    5.42    0.92
  -7   3   0    4.84    1.20
  -7   3   0    5.30    0.87
  -7   3   0    4.85    1.09
  -7   3   0    7.31    2.11
  -7   3   0    4.91    0.99
   6  -3   0   -0.01    0.68
   6  -3   0   -0.47    0.91
  -6   3   0    0.37    0.55
  -6   3   0    1.27    1.26
  -6   3   0   -0.52    0.74
  -6   3   0   -0.53    0.46
  -6   3   0    0.23    0.48
  -6   3   0   -0.15    0.47
  -6   3   0    0.21    0.69
   5  -3   0    8.71    1.14
   5  -3   0    7.44    1.53
  -5   3   0    6.90    1.15
  -5   3   0    7.91    1.01
  -5   3   0    8.10    0.78
  -5   3   0    8.18    0.84
  -5   3   0    6.41    0.93
  -5   3   0    8.85    1.61
  -5   3   0    6.10    0.85
   4  -3   0   -0.23    0.47
   4  -3   0    0.61    0.73
  -4   3   0    0.19    0.47
  -4   3   0    0.36    0.35
  -4   3   0    0.51    0.43
  -4   3   0   -0.17    0.26
  -4   3   0    0.18    0.74
   3  -3   0   32.82    1.90
   3  -3   0   28.89    2.01
   3  -3   0   35.53    2.51
  -3   3   0   31.32    2.05
  -3   3   0   31.18    1.91
  -3   3   0   28.21    2.38
  -3   3   0   30.40    1.87
  -3   3   0   30.24    1.73
   2  -3   0   46.63    2.57
   2  -3   0   47.05    2.41
   2  -3   0   40.45    2.77
  -2   3   0   41.30    2.36
  -2   3   0   40.40    2.52
  -2   3   0   41.59    2.38
  -2   3   0   41.98    2.22
  -2   3   0   39.32    2.84
   1  -3   0    2.52    0.60
   1  -3   0    1.50    0.51
   1  -3   0    1.60    0.39
   1  -3   0    1.65    0.33
  -1   3   0    1.50    0.39
  -1   3   0    1.15    0.56
  -1   3   0    3.10    0.76
  -1   3   0    1.37    0.27
  -1   3   0    1.50    0.25
   0  -3   0   71.10    4.36
   0  -3   0   74.28    4.13
   0  -3   0   79.76    4.06
   0   3   0   77.58    3.86
   0   3   0   75.22    4.41
   0   3   0   71.81    3.90
   0   3   0   89.92    4.19
  -1  -3   0    2.21    0.30
  -1  -3   0    1.94    0.51
  -1  -3   0    1.75    0.34
   1   3   0    1.91    0.29
   1   3   0    2.48    0.41
   1   3   0    1.82    0.52
   1   3   0    2.62    0.64
  -2  -3   0    2.41    0.57
  -2  -3   0    2.15    0.57
  -2  -3   0    2.94    0.40
  -2  -3   0    2.92    0.40
   2   3   0    1.83    0.55
   2   3   0    2.83    0.67
   2   3   0    2.71    0.40
  -3  -3   0  196.47    9.24
  -3  -3   0  186.78    9.77
  -3  -3   0  186.54    9.75
  -3  -3   0  162.66    9.33
   3   3   0  184.99    9.42
   3   3   0  178.08    9.75
   3   3   0  187.43    9.37
  -4  -3   0   27.26    2.12
  -4  -3   0   29.87    2.22
  -4  -3   0   26.35    1.73
  -4  -3   0   25.23    1.57
   4   3   0   28.94    1.75
   4   3   0   27.24    2.09
   4   3   0   26.34    1.76
  -5  -3   0   14.33    1.23
  -5  -3   0   14.93    0.84
  -5  -3   0   14.41    1.66
  -5  -3   0   18.03    1.82
   5   3   0   15.72    1.25
   5   3   0   13.95    1.56
   5   3   0   16.09    1.21
  -6  -3   0    4.48    1.17
  -6  -3   0    5.97    0.90
   6   3   0    4.88    0.78
   6   3   0    4.16    0.94
   6   3   0    5.42    0.84
  -7  -3   0    1.62    0.99
  -7  -3   0    1.81    0.61
  -7  -3   0    1.11    0.67
   7   3   0    2.67    0.94
   7   3   0    0.58    0.49
   7   3   0    1.60    0.80
  -8  -3   0   15.91    1.79
  -8  -3   0   20.34    2.95
  -8  -3   0   19.46    1.77
   8   3   0   17.28    1.84
   8   3   0   16.99    1.80
   8   3   0   19.44    2.30
   8   3   0   18.23    1.56
  -9  -3   0   10.76    1.60
  -9  -3   0    9.26    1.56
  -9  -3   0   18.04    3.00
   9   3   0    9.58    1.28
   9   3   0   10.12    1.27
   9   3   0    9.94    2.29
   9   3   0    9.43    1.44
 -10  -3   0    4.74    1.48
 -10  -3   0    5.01    1.38
 -10  -3   0    3.55    2.00
  10   3   0    4.19    1.24
  10   3   0    3.02    2.23
  10   3   0    3.75    0.89
 -11  -3   0    5.12    2.81
 -11  -3   0    7.53    1.76
  11   3   0    5.84    2.31
  11   3   0    7.18    1.76
 -12  -3   0   -0.17    1.95
 -12  -3   0   10.63    3.86
  12   3   0    1.47    2.34
  10  -4   0    4.30    2.81
 -10   4   0    0.84    1.38
 -10   4   0   -1.02    4.29
   9  -4   0    2.59    2.02
  -9   4   0   -3.58    1.74
  -9   4   0    0.64    3.29
  -9   4   0    0.53    0.95
  -9   4   0    1.20    1.07
  -9   4   0   -0.80    1.45
   8  -4   0    8.03    2.28
  -8   4   0    6.88    1.09
  -8   4   0    6.33    2.01
  -8   4   0    4.68    1.14
  -8   4   0    6.43    1.31
  -8   4   0    6.15    1.51
  -8   4   0    6.03    2.82
  -8   4   0    6.23    1.76
   7  -4   0    0.18    1.58
  -7   4   0    0.15    0.76
  -7   4   0   -0.67    1.17
  -7   4   0   -0.71    0.99
  -7   4   0    0.55    0.56
  -7   4   0    1.98    0.85
  -7   4   0   -0.33    0.81
  -7   4   0    2.98    2.07
   6  -4   0   11.86    2.33
   6  -4   0   16.79    1.77
  -6   4   0   16.18    1.77
  -6   4   0   17.83    1.66
  -6   4   0   20.55    1.87
  -6   4   0   15.27    1.28
  -6   4   0   13.35    2.44
  -6   4   0   12.63    1.43
  -6   4   0   16.98    1.55
   5  -4   0   24.60    2.12
   5  -4   0   20.62    2.52
  -5   4   0   28.64    2.00
  -5   4   0   24.95    2.84
  -5   4   0   29.49    1.89
  -5   4   0   28.10    2.27
  -5   4   0   24.32    1.61
   4  -4   0   36.29    2.56
   4  -4   0   45.84    3.29
  -4   4   0   36.05    2.37
  -4   4   0   38.15    2.63
  -4   4   0   35.81    3.10
  -4   4   0   36.81    2.34
  -4   4   0   37.05    2.10
   3  -4   0    7.03    0.83
   3  -4   0    6.59    0.98
   3  -4   0    7.65    1.27
  -3   4   0    7.37    1.01
  -3   4   0    6.59    0.82
  -3   4   0    7.97    0.85
  -3   4   0    8.10    0.60
  -3   4   0    8.35    1.50
   2  -4   0    3.15    0.51
   2  -4   0    3.32    0.94
   2  -4   0    1.20    0.86
   2  -4   0    2.80    0.67
  -2   4   0    2.41    0.32
  -2   4   0    2.01    0.60
  -2   4   0    1.93    0.83
  -2   4   0    2.41    0.41
  -2   4   0    2.00    0.43
   1  -4   0  106.09    5.61
   1  -4   0  105.74    5.78
   1  -4   0  116.17    6.21
  -1   4   0   97.27    5.74
  -1   4   0  108.52    5.46
  -1   4   0  114.72    6.23
  -1   4   0  101.84    5.36
   0  -4   0   63.00    3.85
   0  -4   0   60.44    3.38
   0  -4   0   60.45    3.49
   0   4   0   59.97    3.19
   0   4   0   60.29    3.68
   0   4   0   62.15    3.13
   0   4   0   64.22    3.54
   0   4   0   65.86    3.91
  -1  -4   0   78.32    4.70
  -1  -4   0   93.54    4.54
  -1  -4   0   90.54    5.13
   1   4   0   88.44    5.06
   1   4   0   91.07    4.54
   1   4   0   87.30    5.11
   1   4   0   85.93    4.74
  -2  -4   0    2.28    0.72
  -2  -4   0    2.55    0.39
  -2  -4   0    2.24    0.24
  -2  -4   0    1.97    0.38
  -2  -4   0    2.11    0.68
   2   4   0    2.75    0.45
   2   4   0    2.31    0.69
   2   4   0    1.91    0.35
   2   4   0    1.76    0.69
  -3  -4   0    0.12    0.25
  -3  -4   0   -0.07    0.52
  -3  -4   0    0.17    0.25
  -3  -4   0    1.01    0.64
  -3  -4   0    0.39    0.18
   3   4   0   -0.07    0.30
   3   4   0   -0.79    0.56
   3   4   0    0.55    0.62
   3   4   0   -0.27    0.26
  -4  -4   0   61.30    3.54
  -4  -4   0   64.45    4.07
  -4  -4   0   63.19    3.44
  -4  -4   0   61.51    3.35
  -4  -4   0   67.78    4.13
   4   4   0   67.46    3.65
   4   4   0   58.40    4.04
   4   4   0   63.71    3.56
  -5  -4   0   46.53    3.36
  -5  -4   0   47.86    3.36
  -5  -4   0   43.42    2.43
  -5  -4   0   43.34    2.76
  -5  -4   0   46.05    2.69
   5   4   0   48.35    2.79
   5   4   0   45.64    3.28
   5   4   0   46.83    2.84
  -6  -4   0   21.69    1.71
  -6  -4   0   23.70    2.41
  -6  -4   0   21.82    2.40
  -6  -4   0   22.24    1.69
   6   4   0   22.27    1.71
   6   4   0   23.57    1.73
   6   4   0   24.80    2.22
  -7  -4   0   24.71    2.71
  -7  -4   0   26.57    1.93
  -7  -4   0   24.23    1.97
   7   4   0   22.95    1.84
   7   4   0   23.50    1.94
   7   4   0   22.30    2.31
  -8  -4   0   63.53    4.10
  -8  -4   0   72.77    4.20
  -8  -4   0   69.17    5.19
  -8  -4   0   71.80    5.09
   8   4   0   69.36    4.19
   8   4   0   63.71    4.46
   8   4   0   61.38    3.97
  -9  -4   0   10.33    2.55
  -9  -4   0    6.11    1.88
  -9  -4   0    8.09    1.42
  -9  -4   0    6.65    1.62
   9   4   0    8.45    1.43
   9   4   0    6.41    1.08
   9   4   0    5.67    1.69
   9   4   0    7.15    1.33
 -10  -4   0    0.88    2.28
 -10  -4   0    0.24    1.09
 -10  -4   0   -1.09    2.34
  10   4   0    1.05    1.78
  10   4   0   -0.36    0.97
  10   4   0   -1.24    0.80
  10   4   0    1.92    1.20
 -11  -4   0    7.77    3.06
 -11  -4   0   -2.23    3.42
 -11  -4   0    1.92    1.45
  11   4   0    0.33    0.98
  11   4   0   -1.51    2.00
 -12  -4   0   20.19    7.22
 -12  -4   0   12.53    2.51
  12   4   0   17.56    3.62
   9  -5   0   -0.25    2.21
  -9   5   0   -0.02    1.75
  -9   5   0    0.32    3.75
   8  -5   0   -1.73    1.70
  -8   5   0    3.10    2.18
  -8   5   0   -0.14    1.07
  -8   5   0    1.29    1.75
  -8   5   0    0.42    0.79
  -8   5   0   -0.81    1.48
  -8   5   0   -1.15    1.29
  -8   5   0    4.14    3.11
   7  -5   0   18.52    3.34
  -7   5   0   27.26    2.37
  -7   5   0   24.78    1.76
  -7   5   0   25.23    2.41
  -7   5   0   22.43    2.69
  -7   5   0   23.84    2.29
  -7   5   0   20.35    3.05
  -7   5   0   27.59    4.46
   6  -5   0   18.93    2.00
   6  -5   0   11.40    2.56
  -6   5   0   12.81    1.85
  -6   5   0   16.75    1.60
  -6   5   0   17.57    2.28
  -6   5   0   14.44    2.71
  -6   5   0   13.06    1.95
  -6   5   0   15.51    1.25
   5  -5   0    5.67    1.18
   5  -5   0    7.53    1.86
  -5   5   0    6.45    1.27
  -5   5   0    5.13    1.68
  -5   5   0    5.45    0.73
  -5   5   0    5.90    0.95
   4  -5   0    6.15    1.10
   4  -5   0    6.62    1.60
  -4   5   0    5.41    1.61
  -4   5   0    5.63    0.87
  -4   5   0    9.19    1.44
  -4   5   0    4.90    0.83
  -4   5   0    4.83    0.58
   3  -5   0    2.85    1.07
   3  -5   0    5.79    0.90
   3  -5   0    5.01    0.87
  -3   5   0    4.40    0.44
  -3   5   0    4.54    0.74
  -3   5   0    3.62    1.16
  -3   5   0    4.08    0.65
  -3   5   0    5.40    1.31
   2  -5   0   38.84    2.71
   2  -5   0   41.59    3.28
   2  -5   0   35.12    2.45
  -2   5   0   41.28    2.14
  -2   5   0   41.77    3.27
  -2   5   0   50.22    2.87
  -2   5   0   43.20    2.36
   1  -5   0   25.39    2.18
   1  -5   0   23.33    1.75
   1  -5   0   20.49    1.53
  -1   5   0   22.47    1.32
  -1   5   0   23.36    1.24
  -1   5   0   21.93    2.26
  -1   5   0   22.11    1.77
   0  -5   0   43.75    2.59
   0  -5   0   40.55    2.67
   0  -5   0   44.93    3.19
   0   5   0   46.37    3.24
   0   5   0   45.22    2.77
   0   5   0   44.76    2.22
   0   5   0   42.36    2.32
   0   5   0   42.42    2.97
  -1  -5   0   16.58    1.35
  -1  -5   0   17.01    1.73
  -1  -5   0   16.22    1.05
   1   5   0   17.67    1.71
   1   5   0   15.42    1.33
   1   5   0   15.49    1.78
   1   5   0   17.73    1.08
  -2  -5   0    9.22    1.44
  -2  -5   0    7.13    0.82
  -2  -5   0    7.94    0.70
   2   5   0    6.59    0.70
   2   5   0    7.91    1.36
   2   5   0    7.24    1.34
   2   5   0    8.73    0.92
  -3  -5   0   23.12    2.07
  -3  -5   0   21.26    1.49
  -3  -5   0   23.09    2.17
  -3  -5   0   24.00    1.30
  -3  -5   0   23.20    1.53
   3   5   0   22.09    1.51
   3   5   0   20.67    1.67
   3   5   0   21.97    2.09
   3   5   0   21.97    2.15
  -4  -5   0    2.94    0.57
  -4  -5   0    2.68    0.48
  -4  -5   0    2.27    0.40
  -4  -5   0    2.12    0.94
  -4  -5   0    2.60    0.87
   4   5   0    1.71    0.96
   4   5   0    2.03    0.52
   4   5   0    3.12    0.68
   4   5   0    2.08    1.00
  -5  -5   0   30.33    2.73
  -5  -5   0   29.34    1.97
  -5  -5   0   27.95    2.59
  -5  -5   0   28.65    1.84
  -5  -5   0   29.14    1.72
   5   5   0   30.58    2.09
   5   5   0   26.62    2.59
   5   5   0   26.38    1.94
  -6  -5   0    3.32    1.21
  -6  -5   0    2.92    1.17
  -6  -5   0    4.30    0.51
  -6  -5   0    4.18    0.83
  -6  -5   0    3.49    0.67
   6   5   0    4.99    1.38
   6   5   0    5.13    0.89
   6   5   0    4.09    0.78
  -7  -5   0    8.92    1.89
  -7  -5   0    8.50    1.18
  -7  -5   0    8.75    1.87
  -7  -5   0    8.99    1.28
   7   5   0    8.01    1.49
   7   5   0    5.09    1.01
   7   5   0    8.09    1.21
  -8  -5   0   11.56    1.62
  -8  -5   0   16.70    2.79
  -8  -5   0   13.66    1.65
  -8  -5   0   16.78    2.66
   8   5   0   12.37    1.67
   8   5   0   13.45    2.08
   8   5   0   14.96    1.74
  -9  -5   0    4.49    1.20
  -9  -5   0    4.21    1.10
  -9  -5   0    2.63    2.11
  -9  -5   0    5.60    2.13
   9   5   0    0.93    1.04
   9   5   0    2.98    1.01
   9   5   0    4.90    1.60
 -10  -5   0   13.65    3.01
 -10  -5   0   13.04    3.45
 -10  -5   0   16.73    2.18
 -10  -5   0   12.90    1.86
  10   5   0   11.00    1.87
  10   5   0   10.85    2.01
  10   5   0   15.53    2.05
  10   5   0   11.66    2.41
 -11  -5   0   12.77    3.59
 -11  -5   0    8.26    1.88
 -11  -5   0   11.92    3.87
 -11  -5   0    8.67    1.88
  11   5   0    8.64    1.53
  11   5   0    9.74    2.74
  11   5   0   10.58    1.81
 -12  -5   0   -2.51    1.73
  12   5   0    2.29    2.52
   8  -6   0    3.17    2.60
  -8   6   0   -2.24    1.50
  -8   6   0   -1.48    2.04
  -8   6   0    1.18    3.51
  -8   6   0   -0.26    1.50
   7  -6   0    2.44    2.10
  -7   6   0    0.24    1.35
  -7   6   0    0.64    0.55
  -7   6   0   -5.38    2.60
  -7   6   0    0.52    1.18
  -7   6   0    1.35    1.38
  -7   6   0    1.01    1.42
   6  -6   0    1.79    1.25
   6  -6   0    0.71    1.74
  -6   6   0    2.26    2.38
  -6   6   0    3.02    1.00
  -6   6   0    2.31    0.49
  -6   6   0    2.36    1.02
  -6   6   0    1.10    1.12
  -6   6   0    3.99    1.16
  -6   6   0    4.13    1.76
   5  -6   0   14.01    2.74
  -5   6   0   12.89    1.96
  -5   6   0   16.99    1.72
  -5   6   0   15.62    2.73
  -5   6   0    8.75    2.10
   4  -6   0    0.33    0.85
   4  -6   0   -0.87    1.31
   4  -6   0    0.14    0.64
  -4   6   0    1.04    0.62
  -4   6   0    0.01    1.44
  -4   6   0   -2.06    0.96
   3  -6   0    1.63    0.84
   3  -6   0    3.72    0.76
  -3   6   0    3.27    1.54
  -3   6   0    1.64    0.92
  -3   6   0    2.70    0.56
   2  -6   0    7.89    1.29
   2  -6   0    8.10    1.01
  -2   6   0    9.85    1.84
  -2   6   0    7.48    0.80
  -2   6   0    7.88    1.25
   1  -6   0   27.63    2.62
   1  -6   0   29.14    1.87
   1  -6   0   25.51    2.03
  -1   6   0   24.75    2.31
  -1   6   0   23.91    2.07
  -1   6   0   27.41    1.50
  -1   6   0   24.70    2.70
  -1   6   0   25.95    1.42
   0  -6   0    1.60    0.60
   0  -6   0    2.19    0.57
   0  -6   0    2.15    0.94
   0   6   0    3.57    0.94
   0   6   0    2.02    0.31
   0   6   0    2.05    1.13
   0   6   0    1.08    0.66
  -1  -6   0    0.44    0.40
  -1  -6   0    0.86    0.77
   1   6   0   -0.01    0.73
   1   6   0    0.05    0.55
   1   6   0    0.16    0.27
   1   6   0   -1.15    0.69
  -2  -6   0    2.83    0.47
  -2  -6   0    2.67    0.66
  -2  -6   0    1.74    1.02
   2   6   0    2.43    0.44
   2   6   0    2.78    0.96
   2   6   0    3.07    1.07
   2   6   0    2.03    0.62
  -3  -6   0    2.91    0.98
  -3  -6   0    2.41    0.59
  -3  -6   0    2.75    0.31
  -3  -6   0    3.11    0.55
  -3  -6   0    4.19    1.20
   3   6   0    2.84    1.02
   3   6   0    1.20    0.93
   3   6   0    2.66    0.55
  -4  -6   0   35.49    2.32
  -4  -6   0   36.12    2.34
  -4  -6   0   39.70    2.11
  -4  -6   0   37.81    3.12
  -4  -6   0   33.04    2.98
   4   6   0   39.60    3.28
   4   6   0   37.17    2.36
   4   6   0   38.04    3.28
   4   6   0   42.04    2.66
  -5  -6   0   19.33    1.60
  -5  -6   0   21.35    2.48
  -5  -6   0   20.25    1.39
  -5  -6   0   21.25    1.44
  -5  -6   0   18.17    2.25
   5   6   0   20.40    1.65
   5   6   0   21.12    2.56
  -6  -6   0   36.71    2.13
  -6  -6   0   36.20    2.48
  -6  -6   0   35.97    2.28
  -6  -6   0   32.73    3.29
  -6  -6   0   41.33    3.49
   6   6   0   32.56    2.62
   6   6   0   38.74    3.37
   6   6   0   36.42    2.55
  -7  -6   0    8.92    0.76
  -7  -6   0   10.93    2.01
  -7  -6   0   10.64    1.34
  -7  -6   0    8.45    1.18
  -7  -6   0   10.95    2.26
   7   6   0    9.20    1.89
   7   6   0   10.08    1.44
   7   6   0   11.42    1.53
  -8  -6   0   10.69    1.56
  -8  -6   0    8.59    2.34
  -8  -6   0    6.61    2.10
  -8  -6   0    9.66    1.30
   8   6   0    7.34    1.94
   8   6   0    6.29    1.97
   8   6   0    8.42    1.38
  -9  -6   0    8.75    2.45
  -9  -6   0    8.85    1.39
  -9  -6   0    9.22    1.57
  -9  -6   0    4.07    2.43
   9   6   0    6.74    2.01
   9   6   0    7.72    1.49
   9   6   0   11.23    1.72
 -10  -6   0    1.33    2.50
 -10  -6   0    0.81    1.26
 -10  -6   0   -3.04    2.57
 -10  -6   0    0.49    1.26
  10   6   0    0.15    1.67
  10   6   0    0.42    1.23
  10   6   0   -1.69    1.31
 -11  -6   0    3.71    1.73
 -11  -6   0    0.34    3.89
 -11  -6   0    3.36    1.47
  11   6   0    2.92    1.87
  11   6   0    3.06    1.54
  11   6   0    0.04    1.96
 -12  -6   0    2.03    2.06
  12   6   0    4.80    2.06
  12   6   0    5.06    2.59
   8  -7   0    0.82    2.59
  -8   7   0    7.32    4.71
   7  -7   0    0.56    2.58
  -7   7   0    2.37    1.95
  -7   7   0   -0.22    3.35
  -7   7   0    5.45    1.76
   6  -7   0    1.18    1.63
  -6   7   0   -0.44    2.39
  -6   7   0    0.52    1.23
  -6   7   0    1.18    1.27
   5  -7   0    1.19    1.36
  -5   7   0    3.43    0.99
  -5   7   0    6.67    2.55
  -5   7   0    0.26    1.77
   4  -7   0    8.38    1.79
   4  -7   0    6.34    1.21
  -4   7   0   10.18    1.35
  -4   7   0    7.36    3.80
  -4   7   0    7.57    1.91
   3  -7   0   34.75    2.52
   3  -7   0   36.54    2.83
  -3   7   0   32.16    2.20
  -3   7   0   36.04    3.13
  -3   7   0   34.81    4.09
   2  -7   0   18.51    2.99
   2  -7   0   24.79    1.90
   2  -7   0   23.40    2.19
  -2   7   0   24.64    2.34
  -2   7   0   24.14    2.52
  -2   7   0   21.30    3.22
  -2   7   0   23.64    1.51
   1  -7   0    2.42    0.66
   1  -7   0    2.63    0.90
   1  -7   0    2.81    1.42
  -1   7   0    1.36    1.28
  -1   7   0    1.83    0.99
  -1   7   0    1.92    1.18
  -1   7   0    2.68    0.41
   0  -7   0   13.15    1.54
   0  -7   0   13.85    1.33
   0  -7   0   11.79    2.13
   0   7   0   14.13    0.94
   0   7   0   11.82    1.92
   0   7   0   14.66    2.34
   0   7   0   16.16    1.73
  -1  -7   0   51.32    3.26
  -1  -7   0   45.89    3.05
   1   7   0   51.31    2.78
   1   7   0   49.71    3.33
   1   7   0   53.56    4.11
   1   7   0   50.09    3.84
  -2  -7   0   30.28    2.25
  -2  -7   0   30.77    1.93
   2   7   0   29.79    2.91
   2   7   0   36.26    3.21
   2   7   0   31.39    1.94
  -3  -7   0   11.96    1.23
  -3  -7   0   10.15    1.02
  -3  -7   0   11.39    3.03
   3   7   0    9.06    1.01
   3   7   0    7.41    1.63
   3   7   0   10.81    1.88
  -4  -7   0   68.28    3.72
  -4  -7   0   63.17    3.63
  -4  -7   0   63.40    4.67
  -4  -7   0   57.60    5.02
  -4  -7   0   61.51    3.26
   4   7   0   59.14    3.62
   4   7   0   62.75    4.69
   4   7   0   64.26    4.00
   4   7   0   62.81    4.77
  -5  -7   0   48.71    3.05
  -5  -7   0   48.94    3.15
  -5  -7   0   53.81    4.15
  -5  -7   0   51.99    2.86
  -5  -7   0   52.10    4.09
   5   7   0   57.75    3.58
   5   7   0   49.58    4.25
   5   7   0   48.98    4.23
   5   7   0   49.78    3.16
  -6  -7   0    0.97    1.35
  -6  -7   0    1.35    0.65
  -6  -7   0   -0.18    0.41
  -6  -7   0    1.82    1.43
  -6  -7   0   -0.25    0.44
   6   7   0    0.49    0.64
   6   7   0   -0.05    1.17
   6   7   0    0.59    0.84
  -7  -7   0    5.91    0.83
  -7  -7   0    5.29    1.07
  -7  -7   0    6.33    0.97
  -7  -7   0    5.36    1.98
  -7  -7   0    8.42    2.18
   7   7   0    5.86    2.02
   7   7   0    6.25    1.15
   7   7   0    7.69    1.41
  -8  -7   0    3.28    1.41
  -8  -7   0    2.59    2.08
  -8  -7   0    2.64    2.13
  -8  -7   0    4.58    0.92
   8   7   0    4.06    1.12
   8   7   0    0.90    1.68
   8   7   0    2.73    1.14
  -9  -7   0    5.37    2.67
  -9  -7   0    2.95    1.15
  -9  -7   0    3.38    1.16
  -9  -7   0   -0.33    2.26
   9   7   0    2.28    1.97
   9   7   0    6.70    1.48
   9   7   0    5.02    1.34
 -10  -7   0    6.06    3.21
 -10  -7   0    6.85    3.07
 -10  -7   0    4.36    1.43
 -10  -7   0    1.78    1.40
  10   7   0    0.44    1.57
  10   7   0    9.39    4.30
  10   7   0    4.15    1.63
 -11  -7   0    1.40    1.73
 -11  -7   0    0.58    1.74
  11   7   0    0.57    1.79
 -12  -7   0    0.89    2.11
  12   7   0    3.26    2.09
  12   7   0    1.64    2.72
  -7   8   0    0.17    4.55
  -6   8   0    3.51    1.84
  -6   8   0    2.55    3.83
   5  -8   0    4.07    1.67
  -5   8   0    2.91    3.34
  -5   8   0    3.84    1.20
   4  -8   0   -2.55    1.28
   4  -8   0   -0.60    1.01
  -4   8   0   -1.68    1.70
  -4   8   0    0.88    0.79
  -4   8   0    1.12    2.58
  -4   8   0    1.26    2.07
   3  -8   0    1.17    1.36
   3  -8   0    3.45    1.02
  -3   8   0    1.74    1.62
  -3   8   0    2.46    1.59
  -3   8   0    5.00    2.35
  -3   8   0    1.97    0.64
   2  -8   0   11.69    1.85
   2  -8   0   10.39    2.64
   2  -8   0   11.19    1.60
  -2   8   0   14.73    1.06
  -2   8   0   13.83    2.21
  -2   8   0   14.29    2.21
  -2   8   0   13.74    2.76
   1  -8   0    6.96    1.09
   1  -8   0    4.99    1.75
   1  -8   0    3.82    1.08
  -1   8   0    3.18    1.35
  -1   8   0    5.17    1.60
  -1   8   0    4.52    1.80
   0  -8   0   63.19    3.63
   0  -8   0   58.89    4.74
   0  -8   0   57.90    3.84
   0   8   0   51.63    3.01
   0   8   0   60.71    4.83
   0   8   0   54.87    3.93
   0   8   0   54.66    4.40
  -1  -8   0    9.82    1.98
  -1  -8   0    5.73    1.11
  -1  -8   0    7.51    1.23
   1   8   0   11.73    1.65
   1   8   0    7.02    1.93
   1   8   0    8.35    1.93
   1   8   0    7.91    0.82
  -2  -8   0    5.82    1.10
  -2  -8   0    7.74    1.79
   2   8   0    6.19    0.87
   2   8   0    6.76    1.76
   2   8   0    6.33    1.84
  -3  -8   0   30.96    2.36
  -3  -8   0   30.55    2.04
  -3  -8   0   30.37    3.32
   3   8   0   28.37    2.59
   3   8   0   33.97    3.58
   3   8   0   33.40    2.11
   3   8   0   30.49    3.29
  -4  -8   0   10.91    1.21
  -4  -8   0    8.14    1.34
  -4  -8   0   11.72    2.30
   4   8   0   12.64    2.39
   4   8   0   12.85    1.30
   4   8   0   12.74    2.39
   4   8   0   11.56    1.78
  -5  -8   0    0.43    0.58
  -5  -8   0    0.18    0.60
  -5  -8   0    0.58    1.44
  -5  -8   0    0.86    0.33
  -5  -8   0   -0.06    1.47
   5   8   0    1.49    1.65
   5   8   0    1.44    1.71
   5   8   0    0.43    0.76
   5   8   0    0.17    0.86
  -6  -8   0   22.68    1.97
  -6  -8   0   24.89    3.22
  -6  -8   0   26.54    3.51
  -6  -8   0   21.05    1.77
  -6  -8   0   22.62    1.56
   6   8   0   25.00    2.07
   6   8   0   18.03    2.98
   6   8   0   19.56    2.34
  -7  -8   0    1.25    0.95
  -7  -8   0   -1.14    1.81
  -7  -8   0   -0.98    1.69
  -7  -8   0    0.98    0.59
  -7  -8   0   -0.19    0.54
   7   8   0    1.58    1.80
   7   8   0   -1.60    0.85
   7   8   0   -1.60    1.07
  -8  -8   0    6.30    0.94
  -8  -8   0    3.20    2.49
  -8  -8   0    7.45    1.38
  -8  -8   0    5.14    2.47
  -8  -8   0    7.88    1.35
   8   8   0    8.75    2.26
   8   8   0    8.37    1.64
   8   8   0    5.97    1.60
  -9  -8   0    4.85    1.54
  -9  -8   0    9.24    3.15
  -9  -8   0    4.09    2.76
  -9  -8   0    3.82    1.21
   9   8   0    7.03    2.39
   9   8   0    6.70    1.77
   9   8   0    6.98    1.63
 -10  -8   0   32.90    3.20
 -10  -8   0   24.03    3.04
  10   8   0   26.78    4.06
 -11  -8   0   13.17    2.28
 -11  -8   0    9.68    2.08
  11   8   0   10.82    2.53
  11   8   0   12.15    3.65
  12   8   0   -1.15    3.40
   5  -9   0   -0.82    3.28
  -5   9   0   -7.00    3.64
  -5   9   0    5.17    2.86
   4  -9   0   -0.48    1.68
   4  -9   0    0.11    1.48
  -4   9   0    2.98    2.37
  -4   9   0   -3.41    3.19
  -4   9   0   -1.79    0.92
   3  -9   0    9.44    1.97
   3  -9   0    9.38    1.61
  -3   9   0    7.10    3.02
  -3   9   0    5.05    0.81
  -3   9   0    8.87    2.46
   2  -9   0    7.94    2.98
   2  -9   0    4.89    1.58
   2  -9   0    4.11    1.13
  -2   9   0    0.57    1.86
  -2   9   0    2.83    1.83
  -2   9   0    6.44    2.62
   1  -9   0    2.12    1.18
   1  -9   0    5.26    2.32
   1  -9   0    0.97    0.92
  -1   9   0    0.50    1.33
  -1   9   0    0.75    2.25
  -1   9   0   -0.28    1.68
   0  -9   0    6.03    1.17
   0  -9   0    7.13    1.42
   0  -9   0    3.06    2.09
   0   9   0    5.92    1.98
   0   9   0    4.90    0.60
   0   9   0    3.94    2.37
  -1  -9   0    0.90    0.86
  -1  -9   0    4.36    2.01
  -1  -9   0    1.52    0.82
   1   9   0    3.13    2.34
   1   9   0    0.50    0.46
   1   9   0   -0.39    1.67
  -2  -9   0   -0.19    0.68
  -2  -9   0    0.21    1.63
  -2  -9   0   -0.74    0.84
   2   9   0    0.21    0.54
   2   9   0   -0.89    1.53
   2   9   0    0.22    1.72
  -3  -9   0   11.83    1.65
  -3  -9   0   11.26    2.38
  -3  -9   0    9.08    1.19
   3   9   0    7.15    2.22
   3   9   0   10.83    2.37
   3   9   0   10.45    1.22
   3   9   0   10.32    1.67
  -4  -9   0   53.89    3.20
  -4  -9   0   54.60    3.46
  -4  -9   0   48.55    4.63
   4   9   0   47.52    3.73
   4   9   0   50.20    4.89
   4   9   0   48.03    3.15
   4   9   0   51.70    5.00
  -5  -9   0   45.29    3.06
  -5  -9   0   44.17    4.59
  -5  -9   0   44.71    2.99
   5   9   0   39.45    6.76
   5   9   0   45.46    3.02
   5   9   0   46.70    3.62
   5   9   0   37.25    5.17
  -6  -9   0   -0.11    0.41
  -6  -9   0   -1.53    1.98
  -6  -9   0   -0.20    0.73
  -6  -9   0   -0.51    0.80
   6   9   0    1.41    2.14
   6   9   0    1.41    1.83
   6   9   0   -2.69    1.27
   6   9   0    0.88    0.86
  -7  -9   0   -1.51    2.16
  -7  -9   0    2.14    0.77
  -7  -9   0    4.25    0.93
  -7  -9   0    6.00    2.33
   7   9   0    0.95    1.13
   7   9   0    0.02    1.30
   7   9   0    1.11    2.19
  -8  -9   0    9.60    1.51
  -8  -9   0   12.87    3.09
  -8  -9   0    9.37    1.28
  -8  -9   0    9.35    1.47
   8   9   0    6.60    1.85
   8   9   0    6.46    1.50
   8   9   0    9.27    2.70
  -9  -9   0    3.83    1.18
   9   9   0    5.15    1.75
   9   9   0    3.58    2.67
 -10  -9   0    2.11    1.48
 -10  -9   0    1.60    1.54
  10   9   0   -1.68    3.13
  10   9   0    5.73    2.33
 -11  -9   0    2.09    2.09
 -11  -9   0    4.26    1.86
  11   9   0   -1.58    3.55
  11   9   0    6.54    2.67
   4 -10   0    0.17    2.13
  -4  10   0    5.05    4.15
   3 -10   0    0.89    1.54
   3 -10   0    3.95    1.92
  -3  10   0   -1.56    2.99
  -3  10   0    2.91    3.55
   2 -10   0    5.91    1.56
   2 -10   0    3.45    1.80
  -2  10   0   -1.39    3.15
  -2  10   0    3.59    2.70
   1 -10   0   -0.09    1.53
   1 -10   0    4.14    3.02
  -1  10   0    1.64    2.25
  -1  10   0   -1.07    2.89
   0 -10   0    0.36    1.27
   0 -10   0   -0.12    2.61
   0  10   0   -1.76    2.19
   0  10   0   -0.17    2.44
  -1 -10   0   17.52    2.54
  -1 -10   0   17.96    3.39
  -1 -10   0   16.62    2.31
   1  10   0   15.11    4.88
   1  10   0   15.23    3.24
   1  10   0   15.26    1.24
   1  10   0   15.66    2.28
  -2 -10   0    5.22    2.54
  -2 -10   0    3.28    1.28
   2  10   0    3.47    1.85
   2  10   0    4.61    2.29
   2  10   0    4.81    0.79
   2  10   0    2.76    2.42
  -3 -10   0   -1.08    1.17
  -3 -10   0   -1.91    2.23
   3  10   0   -0.55    2.10
   3  10   0    1.68    0.73
   3  10   0   -3.09    1.44
   3  10   0    3.13    2.10
  -4 -10   0   -0.20    0.68
  -4 -10   0    1.25    1.02
  -4 -10   0    3.38    2.42
   4  10   0    1.37    2.21
   4  10   0    1.60    1.48
   4  10   0    0.94    0.97
   4  10   0    2.06    2.15
  -5 -10   0    1.56    1.10
  -5 -10   0    4.43    2.65
  -5 -10   0    2.81    0.93
   5  10   0    2.33    1.54
   5  10   0    4.28    1.10
   5  10   0   -0.21    2.18
   5  10   0    0.28    2.51
  -6 -10   0    0.88    0.98
  -6 -10   0   -1.40    0.85
  -6 -10   0    4.24    2.43
   6  10   0    2.05    1.07
   6  10   0   -2.77    1.52
   6  10   0    3.72    2.73
   6  10   0    0.18    2.58
  -7 -10   0   -0.73    2.90
  -7 -10   0    8.63    1.53
  -7 -10   0    7.13    1.01
   7  10   0   13.91    3.22
   7  10   0    8.35    2.20
  -8 -10   0    5.50    0.99
  -8 -10   0    4.16    1.57
  -8 -10   0    6.04    1.15
   8  10   0    1.62    3.09
   8  10   0    2.61    1.74
   8  10   0    0.57    1.84
  -9 -10   0    5.42    1.14
  -9 -10   0    3.48    1.49
   9  10   0    0.78    3.19
   9  10   0    1.17    2.58
 -10 -10   0   24.31    3.10
 -10 -10   0   22.93    2.89
  10  10   0   18.37    4.72
 -11 -10   0    4.65    2.47
  11  10   0   10.68    4.51
   3 -11   0    5.92    2.21
  -3  11   0    6.87    4.88
  -3  11   0    9.15    4.01
   2 -11   0    4.18    1.94
   2 -11   0   -0.09    2.34
  -2  11   0    3.24    3.24
  -2  11   0   -1.11    4.31
   1 -11   0   10.50    2.00
   1 -11   0   12.63    2.63
  -1  11   0   12.83    3.78
  -1  11   0   12.51    4.15
   0 -11   0    0.11    1.42
   0 -11   0    2.18    1.61
   0  11   0    1.46    3.11
   0  11   0   -1.27    2.79
  -1 -11   0    0.88    1.31
  -1 -11   0    0.02    1.49
   1  11   0    7.80    3.36
   1  11   0    0.30    2.43
  -2 -11   0   -0.43    1.22
  -2 -11   0    0.03    1.29
   2  11   0    1.14    2.69
   2  11   0   -4.20    2.42
   2  11   0    0.19    0.71
  -3 -11   0    2.05    1.28
  -3 -11   0    1.74    1.32
   3  11   0    2.56    2.69
   3  11   0    2.29    0.94
   3  11   0    3.56    2.75
  -4 -11   0    1.78    1.25
  -4 -11   0    0.64    1.21
   4  11   0   -1.31    2.94
   4  11   0   -0.40    0.94
   4  11   0    1.42    2.67
  -5 -11   0    0.75    1.30
  -5 -11   0    2.60    1.16
   5  11   0    0.89    1.15
   5  11   0   -0.78    2.60
   5  11   0    3.43    3.24
  -6 -11   0    0.57    1.35
  -6 -11   0   -1.21    1.22
   6  11   0   -1.22    1.24
   6  11   0   -0.71    2.79
   6  11   0    2.13    3.01
  -7 -11   0    5.80    1.48
  -7 -11   0    5.15    1.46
   7  11   0    2.74    1.51
   7  11   0    2.46    3.20
  -8 -11   0    8.43    1.78
  -8 -11   0    4.07    1.43
   8  11   0    8.99    2.40
   8  11   0    5.42    3.63
  -9 -11   0   13.20    2.43
   9  11   0   17.21    4.41
 -10 -11   0    7.97    2.28
  10  11   0   -0.63    4.03
  -1  12   0    3.36    4.05
  -1  12   0   -1.44    4.64
   0 -12   0    2.70    2.43
   0 -12   0    1.35    1.91
   0  12   0   -4.40    4.44
   0  12   0    0.54    3.81
  -1 -12   0   -0.51    2.08
  -1 -12   0   -0.04    1.79
   1  12   0    1.48    3.74
   1  12   0    4.43    4.11
  -2 -12   0   20.20    3.25
  -2 -12   0   15.50    2.45
   2  12   0   15.42    4.24
   2  12   0   16.31    4.83
  -3 -12   0    5.46    1.99
  -3 -12   0    3.68    1.69
   3  12   0    5.56    1.21
   3  12   0   -1.33    3.81
   3  12   0    7.99    3.90
  -4 -12   0    3.01    1.69
  -4 -12   0    1.76    1.68
   4  12   0    6.92    3.92
   4  12   0    1.30    1.26
   4  12   0   -5.08    3.09
  -5 -12   0    6.26    1.67
  -5 -12   0    5.18    1.88
   5  12   0   -2.31    3.90
   5  12   0    1.25    1.45
   5  12   0   -1.56    3.64
  -6 -12   0    0.06    1.49
  -6 -12   0    1.50    1.69
   6  12   0   -2.33    3.75
   6  12   0    9.67    4.23
   6  12   0    2.70    1.56
  -7 -12   0    3.21    1.73
  -7 -12   0   -0.07    1.60
   7  12   0    6.19    4.01
   7  12   0    1.24    1.90
  -8 -12   0   20.24    2.55
  -8 -12   0   23.22    3.47
   8  12   0   16.97    5.54
  -3 -13   0   14.47    2.76
  -3 -13   0    7.54    2.53
   3  13   0   11.42    6.05
   3  13   0   10.47    5.07
  -4 -13   0    8.39    2.38
  -4 -13   0   10.95    2.57
   4  13   0   17.43    5.75
   4  13   0   10.85    5.53
  -5 -13   0    0.83    2.24
  -5 -13   0   -2.24    2.20
   5  13   0    6.20    5.27
  -6 -13   0   11.36    2.39
  -6 -13   0    0.58    2.34
  -8 -12   1    1.51    2.34
   7  12  -1    1.79    4.82
  -7 -12   1    2.91    1.92
   6  12  -1    1.62    1.96
   6  12  -1   -4.65    4.09
  -6 -12   1    1.12    2.00
   5  12  -1    7.88    1.84
   5  12  -1    1.83    4.36
   5  12  -1    0.52    4.04
  -5 -12   1    4.00    2.04
  -5 -12   1    7.11    2.15
   4  12  -1    3.18    1.51
   4  12  -1   -4.59    4.41
   4  12  -1    3.55    4.32
  -4 -12   1   -0.59    1.87
  -4 -12   1    1.78    1.80
   3  12  -1   -3.40    3.91
   3  12  -1    2.09    4.36
  -3 -12   1    6.17    2.14
  -3 -12   1    3.01    2.13
   2  12  -1    5.90    4.59
   2  12  -1   12.20    4.60
  -2 -12   1    7.84    2.15
  -2 -12   1    8.23    2.32
   1  12  -1    1.86    4.25
   1  12  -1   -0.82    4.37
  -1 -12   1    1.41    2.40
  -1 -12   1    4.92    2.14
   0  12  -1    2.43    4.81
   0 -12   1   -2.77    2.65
   0 -12   1    2.44    2.19
   9  11  -1   13.75    4.97
  -9 -11   1   16.16    2.62
   8  11  -1   17.71    4.46
  -8 -11   1   16.30    2.41
   7  11  -1    0.99    1.77
   7  11  -1    5.86    3.94
  -7 -11   1    3.64    1.52
   6  11  -1   21.59    2.75
   6  11  -1   18.59    4.16
  -6 -11   1   15.99    2.50
  -6 -11   1   14.89    2.07
   5  11  -1    2.35    1.29
   5  11  -1   -0.04    3.22
   5  11  -1    5.25    3.38
  -5 -11   1    2.59    1.44
   4  11  -1    3.66    1.17
   4  11  -1    1.77    3.24
   4  11  -1    0.99    3.06
  -4 -11   1    4.27    1.52
  -4 -11   1    1.43    1.28
   3  11  -1    6.62    3.53
   3  11  -1    0.70    2.95
   3  11  -1    5.14    1.14
  -3 -11   1    4.09    1.62
  -3 -11   1    1.88    1.48
   2  11  -1    2.22    3.11
   2  11  -1   -3.28    3.02
   2  11  -1   -1.30    0.91
  -2 -11   1    0.16    1.63
  -2 -11   1    0.35    1.44
   1  11  -1    4.24    0.87
   1  11  -1    6.90    3.74
   1  11  -1    2.63    3.16
  -1 -11   1    2.28    1.63
  -1 -11   1    6.90    1.99
   0  11  -1   15.25    4.32
   0  11  -1    8.87    3.27
   0 -11   1    6.39    2.15
   0 -11   1    7.05    1.91
  -1  11  -1    6.51    3.52
  -1  11  -1    9.30    3.90
   1 -11   1    8.69    2.24
   1 -11   1   10.05    2.53
  -2  11  -1    3.70    3.87
  -2  11  -1   -6.68    4.57
   2 -11   1    7.09    2.33
 -10 -10   1    3.37    2.03
   9  10  -1    1.41    3.32
  -9 -10   1   -0.96    1.34
  -9 -10   1    2.71    1.73
   8  10  -1    4.02    1.70
   8  10  -1    3.07    3.27
  -8 -10   1    2.60    1.46
  -8 -10   1    2.82    0.92
   7  10  -1   -1.75    1.94
   7  10  -1   -0.93    1.30
   7  10  -1   -1.34    2.85
  -7 -10   1   -0.35    0.55
  -7 -10   1    0.57    1.27
   6  10  -1    0.17    1.16
   6  10  -1    2.38    1.74
   6  10  -1    7.09    2.69
  -6 -10   1    2.62    1.56
  -6 -10   1    1.65    1.05
  -6 -10   1   -0.77    2.67
   5  10  -1    1.60    1.02
   5  10  -1    4.02    2.88
   5  10  -1    2.45    1.63
   5  10  -1    0.93    2.61
  -5 -10   1    0.34    2.67
  -5 -10   1    0.39    1.07
  -5 -10   1    1.78    0.97
   4  10  -1   -1.88    2.29
   4  10  -1    0.61    2.51
   4  10  -1   -0.92    1.56
   4  10  -1   -1.06    0.94
  -4 -10   1   -0.21    0.97
  -4 -10   1   -4.53    2.23
  -4 -10   1   -0.44    1.06
   3  10  -1    2.98    0.93
   3  10  -1   -0.16    2.29
   3  10  -1    2.60    2.32
  -3 -10   1    1.60    1.20
  -3 -10   1    2.42    1.22
  -3 -10   1   -4.52    2.36
   2  10  -1    1.38    2.49
   2  10  -1    1.33    2.27
   2  10  -1    4.25    0.92
  -2 -10   1    3.53    1.38
  -2 -10   1    2.82    1.42
  -2 -10   1    6.01    2.80
   1  10  -1    6.08    3.24
   1  10  -1    7.72    1.20
   1  10  -1    7.93    2.66
  -1 -10   1    7.70    1.78
  -1 -10   1   10.60    3.41
  -1 -10   1   10.29    1.71
   0  10  -1   14.04    2.65
   0  10  -1   17.75    3.69
   0  10  -1   16.50    1.25
   0  10  -1   16.88    3.06
   0 -10   1   15.46    2.37
   0 -10   1   21.52    4.06
   0 -10   1   16.62    2.60
  -1  10  -1   -0.50    2.99
  -1  10  -1    1.92    2.94
   1 -10   1   -0.94    1.27
   1 -10   1    6.98    4.57
   1 -10   1    1.49    1.71
  -2  10  -1   -4.32    2.82
  -2  10  -1   -0.42    4.03
   2 -10   1   -0.69    1.49
   2 -10   1    3.92    1.98
  -3  10  -1    3.97    4.04
  -3  10  -1    1.38    4.09
   3 -10   1    4.53    1.95
  -4  10  -1    4.51    4.82
  -4  10  -1   -4.11    3.53
   4 -10   1    0.45    2.11
  11   9  -1   -3.42    2.81
  11   9  -1    7.22    4.18
 -11  -9   1    2.17    2.04
 -11  -9   1    1.88    2.26
  10   9  -1   -2.11    3.53
  10   9  -1    1.23    2.18
 -10  -9   1    0.80    1.89
 -10  -9   1   -0.54    1.51
   9   9  -1    3.08    2.03
   9   9  -1    3.99    2.98
  -9  -9   1    3.03    1.49
  -9  -9   1    2.43    1.32
   8   9  -1    0.67    2.59
   8   9  -1    1.27    1.81
   8   9  -1    5.67    1.61
  -8  -9   1   -1.60    2.81
  -8  -9   1    7.67    1.59
  -8  -9   1    6.54    1.16
  -8  -9   1    7.32    3.29
   7   9  -1   90.16    7.30
   7   9  -1   92.66    5.67
   7   9  -1   78.21    6.02
  -7  -9   1   93.93    5.62
  -7  -9   1   98.84    7.40
  -7  -9   1   97.00    7.34
  -7  -9   1   99.66    5.09
   6   9  -1   63.45    5.79
   6   9  -1   68.05    4.21
   6   9  -1   57.39    4.62
  -6  -9   1   58.15    5.65
  -6  -9   1   65.27    3.46
  -6  -9   1   65.87    4.15
  -6  -9   1   70.02    5.89
  -6  -9   1   63.73    3.96
   5   9  -1   38.41    3.40
   5   9  -1   36.21    4.54
   5   9  -1   39.01    2.88
   5   9  -1   39.61    4.83
  -5  -9   1   37.03    4.38
  -5  -9   1   41.35    2.83
  -5  -9   1   37.31    2.80
   4   9  -1    1.32    0.78
   4   9  -1    1.48    1.97
   4   9  -1   -0.79    1.86
   4   9  -1    0.56    1.07
  -4  -9   1   -0.61    0.73
  -4  -9   1   -0.93    1.74
  -4  -9   1    0.35    0.76
   3   9  -1    6.21    2.58
   3   9  -1    4.53    2.29
   3   9  -1    6.73    1.03
  -3  -9   1    8.16    1.37
  -3  -9   1    7.95    2.28
  -3  -9   1    5.65    1.31
   2   9  -1   -1.20    1.66
   2   9  -1    0.22    2.08
   2   9  -1    1.81    1.23
   2   9  -1    0.27    0.60
  -2  -9   1   -2.23    1.99
  -2  -9   1   -0.80    1.03
  -2  -9   1    0.07    0.79
   1   9  -1    2.17    1.92
   1   9  -1    1.83    1.58
   1   9  -1    0.80    0.54
   1   9  -1   -0.91    1.82
  -1  -9   1    2.27    1.94
  -1  -9   1    1.49    1.06
  -1  -9   1    1.19    0.89
   0   9  -1   12.76    1.19
   0   9  -1   13.93    2.72
   0   9  -1   16.09    2.63
   0   9  -1   15.71    3.17
   0  -9   1   14.96    2.12
   0  -9   1   17.32    3.25
   0  -9   1   18.85    1.98
  -1   9  -1    0.64    0.35
  -1   9  -1   -2.34    1.55
  -1   9  -1   -1.25    2.07
  -1   9  -1    0.90    1.87
   1  -9   1    1.73    1.16
   1  -9   1    0.50    1.24
   1  -9   1   -3.13    2.40
  -2   9  -1    7.08    2.85
  -2   9  -1    7.28    2.50
  -2   9  -1   12.32    2.41
   2  -9   1    5.96    1.83
   2  -9   1    4.84    3.37
   2  -9   1    7.10    1.64
  -3   9  -1    3.11    2.14
  -3   9  -1   -3.32    2.66
   3  -9   1    2.98    1.44
   3  -9   1    5.77    1.87
  -4   9  -1    9.15    2.87
  -4   9  -1    4.72    3.87
  -4   9  -1    5.19    1.12
   4  -9   1    3.92    1.75
  -5   9  -1    0.13    2.91
  -5   9  -1    0.98    4.05
  12   8  -1   -0.29    3.84
  11   8  -1    4.74    3.45
 -11  -8   1    4.08    2.19
 -11  -8   1    0.06    1.92
  10   8  -1   10.73    3.22
  10   8  -1    5.26    1.99
 -10  -8   1    8.61    1.90
 -10  -8   1   13.44    1.88
   9   8  -1    3.22    1.44
   9   8  -1    0.91    2.65
   9   8  -1    0.56    1.57
  -9  -8   1    1.82    1.03
  -9  -8   1    3.76    3.04
  -9  -8   1   -0.15    1.27
   8   8  -1    0.29    2.16
   8   8  -1    4.63    1.67
   8   8  -1    5.23    1.38
  -8  -8   1    3.32    2.65
  -8  -8   1    0.40    1.39
  -8  -8   1    3.35    1.17
  -8  -8   1    2.93    2.43
   7   8  -1    0.55    0.95
   7   8  -1    3.13    1.84
   7   8  -1   -0.65    1.20
  -7  -8   1    1.96    2.07
  -7  -8   1   -1.15    2.17
  -7  -8   1    0.55    0.62
  -7  -8   1   -1.26    0.83
   6   8  -1    0.53    0.78
   6   8  -1    0.01    1.09
  -6  -8   1    2.25    1.93
  -6  -8   1    1.68    1.77
  -6  -8   1    0.63    0.59
  -6  -8   1   -0.33    0.46
  -6  -8   1    1.07    0.80
   5   8  -1   -0.42    0.73
   5   8  -1   -0.02    0.92
   5   8  -1   -1.10    1.68
   5   8  -1   -2.59    1.63
  -5  -8   1   -0.47    0.59
  -5  -8   1    0.21    0.63
  -5  -8   1    0.71    0.33
  -5  -8   1    0.03    1.43
   4   8  -1    0.68    1.58
   4   8  -1   -0.15    1.53
   4   8  -1   -0.74    0.59
  -4  -8   1    1.12    0.72
  -4  -8   1    0.53    0.55
  -4  -8   1    0.00    1.46
   3   8  -1   26.43    3.46
   3   8  -1   22.60    3.43
   3   8  -1   31.79    2.13
  -3  -8   1   31.80    2.38
  -3  -8   1   33.54    3.33
   2   8  -1   14.13    1.87
   2   8  -1   18.54    2.78
   2   8  -1   16.41    1.33
   2   8  -1   12.85    2.52
  -2  -8   1   12.01    1.56
  -2  -8   1   17.66    2.65
  -2  -8   1   15.63    1.72
   1   8  -1   21.53    2.92
   1   8  -1   20.24    1.52
   1   8  -1   22.73    3.12
   1   8  -1   20.44    2.19
  -1  -8   1   22.75    2.11
  -1  -8   1   25.09    2.06
  -1  -8   1   23.16    3.22
   0   8  -1   18.67    2.93
   0   8  -1   18.98    2.21
   0   8  -1   18.91    2.95
   0   8  -1   21.51    1.38
   0  -8   1   17.91    2.12
   0  -8   1   20.86    1.92
  -1   8  -1    0.48    1.25
  -1   8  -1    2.56    0.43
  -1   8  -1    2.66    1.86
  -1   8  -1    2.47    1.42
   1  -8   1    2.00    1.80
   1  -8   1    5.32    1.03
   1  -8   1    1.22    1.15
  -2   8  -1    0.96    1.39
  -2   8  -1    4.18    1.76
   2  -8   1    3.59    1.29
   2  -8   1    5.45    1.18
   2  -8   1    4.15    2.37
  -3   8  -1    0.56    0.56
  -3   8  -1    0.16    2.27
  -3   8  -1   -0.72    1.65
  -3   8  -1    1.30    1.74
   3  -8   1    0.78    1.20
   3  -8   1   -1.10    1.18
  -4   8  -1    7.75    2.24
  -4   8  -1    9.72    1.25
  -4   8  -1    9.65    2.91
   4  -8   1    7.78    1.94
   4  -8   1    9.28    1.89
  -5   8  -1   10.72    2.41
  -5   8  -1    8.01    1.43
  -5   8  -1    0.83    3.28
  -6   8  -1    9.14    4.31
  -6   8  -1    7.57    2.42
  -6   8  -1    4.55    2.68
  12   7  -1    0.07    2.32
  12   7  -1    2.09    3.05
 -12  -7   1    6.32    2.43
  11   7  -1    1.90    2.77
  11   7  -1    0.29    1.74
 -11  -7   1    1.50    1.78
 -11  -7   1    1.47    1.65
  10   7  -1    0.59    1.52
  10   7  -1   -2.70    2.32
 -10  -7   1   -1.12    1.27
 -10  -7   1    0.09    1.33
   9   7  -1    4.64    1.44
   9   7  -1    4.76    2.31
   9   7  -1    5.00    1.47
  -9  -7   1    5.23    1.26
  -9  -7   1    2.13    1.27
  -9  -7   1    3.77    2.65
  -9  -7   1    6.03    2.89
   8   7  -1   -0.96    0.94
   8   7  -1    2.38    2.22
   8   7  -1    0.64    1.06
  -8  -7   1   -0.30    0.94
  -8  -7   1   -2.40    1.84
  -8  -7   1   -0.32    0.77
  -8  -7   1   -0.60    2.12
   7   7  -1   13.01    1.93
   7   7  -1   12.65    2.54
   7   7  -1   16.68    1.82
  -7  -7   1   15.46    2.89
  -7  -7   1   12.60    1.52
  -7  -7   1   12.37    2.46
  -7  -7   1   14.34    1.77
   6   7  -1   16.95    2.88
   6   7  -1   13.31    1.64
   6   7  -1   14.03    1.91
  -6  -7   1   15.23    1.60
  -6  -7   1   19.83    2.96
  -6  -7   1   15.67    1.31
  -6  -7   1   14.20    2.39
  -6  -7   1   16.92    1.39
   5   7  -1   31.60    2.59
   5   7  -1   32.57    2.43
   5   7  -1   34.39    3.55
  -5  -7   1   31.44    1.97
  -5  -7   1   33.53    2.34
  -5  -7   1   36.80    3.62
  -5  -7   1   33.74    3.43
  -5  -7   1   32.49    2.19
   4   7  -1   68.62    3.95
   4   7  -1   70.01    5.12
   4   7  -1   63.38    5.06
  -4  -7   1   69.77    3.98
  -4  -7   1   67.98    3.93
  -4  -7   1   68.12    3.54
  -4  -7   1   68.99    4.81
  -4  -7   1   64.91    5.00
   3   7  -1   79.23    5.44
   3   7  -1   76.34    5.45
   3   7  -1   79.55    4.64
   3   7  -1   78.81    4.37
  -3  -7   1   78.52    4.57
  -3  -7   1   78.95    4.37
  -3  -7   1   78.26    5.38
   2   7  -1   38.01    3.40
   2   7  -1   39.48    2.39
   2   7  -1   44.71    2.81
   2   7  -1   33.56    3.50
  -2  -7   1   38.88    2.64
  -2  -7   1   42.65    3.54
  -2  -7   1   35.71    2.64
   1   7  -1    6.53    1.21
   1   7  -1    6.32    1.52
   1   7  -1    7.97    0.85
   1   7  -1    7.28    1.71
  -1  -7   1    5.23    1.59
  -1  -7   1    6.18    1.07
  -1  -7   1    7.74    1.20
   0   7  -1   53.48    4.28
   0   7  -1   49.01    2.88
   0   7  -1   54.68    3.58
   0   7  -1   50.86    3.92
   0  -7   1   51.54    3.31
   0  -7   1   53.01    4.18
   0  -7   1   54.51    3.50
  -1   7  -1   29.97    2.87
  -1   7  -1   27.64    3.37
  -1   7  -1   27.17    2.45
  -1   7  -1   26.79    1.63
   1  -7   1   27.12    2.37
   1  -7   1   25.70    2.12
   1  -7   1   33.27    3.30
  -2   7  -1   26.63    3.35
  -2   7  -1   24.08    2.47
  -2   7  -1   28.82    1.67
  -2   7  -1   25.03    1.50
  -2   7  -1   26.72    2.79
   2  -7   1   35.11    3.61
   2  -7   1   21.07    2.27
  -3   7  -1    0.30    0.31
  -3   7  -1    0.30    0.28
  -3   7  -1    0.71    1.22
  -3   7  -1   -2.09    1.75
  -3   7  -1   -0.03    0.51
  -3   7  -1    3.16    1.24
   3  -7   1    1.68    0.99
   3  -7   1    0.95    0.93
  -4   7  -1    1.73    0.73
  -4   7  -1    1.20    1.41
  -4   7  -1    0.11    1.35
   4  -7   1    1.96    1.01
   4  -7   1   -0.02    1.29
  -5   7  -1    0.59    0.95
  -5   7  -1   -2.48    2.39
  -5   7  -1   -0.63    1.75
  -5   7  -1    0.56    1.52
  -6   7  -1    9.12    1.59
  -6   7  -1    4.98    3.23
  -6   7  -1   10.05    1.98
  -6   7  -1   11.82    2.16
  -7   7  -1    8.89    3.75
  -7   7  -1    2.34    1.75
  -7   7  -1    1.17    2.35
  12   6  -1    2.74    2.30
  12   6  -1   -0.73    2.09
 -12  -6   1   -1.07    2.14
  11   6  -1   -1.12    2.07
  11   6  -1    1.66    1.58
  11   6  -1    0.64    2.11
 -11  -6   1    1.68    1.55
 -11  -6   1   -1.17    1.70
  10   6  -1    8.21    1.76
  10   6  -1    5.18    2.17
  10   6  -1    5.09    1.38
 -10  -6   1    3.85    1.35
 -10  -6   1   10.63    3.58
 -10  -6   1    9.29    3.09
 -10  -6   1    4.69    1.51
   9   6  -1    2.86    1.24
   9   6  -1    6.54    2.08
   9   6  -1    5.70    1.33
  -9  -6   1    4.74    1.24
  -9  -6   1    4.22    2.44
  -9  -6   1    3.29    1.18
  -9  -6   1    1.58    2.38
   8   6  -1    0.50    1.06
   8   6  -1   -0.53    1.56
   8   6  -1    1.30    0.97
  -8  -6   1   -0.77    1.85
  -8  -6   1   -0.03    1.92
  -8  -6   1    0.97    0.84
  -8  -6   1    0.15    0.89
   7   6  -1    5.15    1.26
   7   6  -1    5.27    1.62
   7   6  -1    4.91    1.08
  -7  -6   1    6.73    1.13
  -7  -6   1    5.39    0.91
  -7  -6   1    7.68    1.97
  -7  -6   1    4.27    1.81
   6   6  -1   18.77    1.82
   6   6  -1   20.88    2.62
   6   6  -1   22.44    1.80
  -6  -6   1   18.03    1.26
  -6  -6   1   18.34    1.51
  -6  -6   1   17.38    1.70
  -6  -6   1   16.47    2.71
  -6  -6   1   18.83    2.57
   5   6  -1   17.61    2.46
   5   6  -1   15.05    1.51
   5   6  -1   16.48    1.65
  -5  -6   1   18.56    2.50
  -5  -6   1   16.25    1.26
  -5  -6   1   14.66    1.47
  -5  -6   1   17.79    2.46
   4   6  -1   19.66    1.55
   4   6  -1   17.51    2.46
   4   6  -1   20.72    2.58
  -4  -6   1   19.56    2.33
  -4  -6   1   20.04    1.24
  -4  -6   1   15.53    2.26
  -4  -6   1   17.86    1.42
  -4  -6   1   20.51    1.52
   3   6  -1   80.96    4.95
   3   6  -1   85.23    5.70
   3   6  -1   88.42    5.78
   3   6  -1   86.79    4.86
  -3  -6   1   89.74    4.95
  -3  -6   1   91.63    4.87
  -3  -6   1   95.28    5.64
  -3  -6   1   92.77    4.54
  -3  -6   1   93.88    5.79
   2   6  -1    0.90    0.53
   2   6  -1   -0.13    0.88
   2   6  -1    0.86    0.41
   2   6  -1    0.59    0.82
  -2  -6   1    0.62    0.38
  -2  -6   1    0.84    0.46
  -2  -6   1    0.15    0.91
   1   6  -1   12.56    1.83
   1   6  -1   12.15    0.98
   1   6  -1   16.35    2.11
   1   6  -1   12.25    1.31
  -1  -6   1   11.75    1.25
  -1  -6   1   12.43    1.22
  -1  -6   1   11.18    1.83
   0   6  -1    0.49    0.28
   0   6  -1    1.17    1.01
   0   6  -1   -0.05    0.75
   0   6  -1   -0.06    0.55
   0  -6   1    0.36    0.55
   0  -6   1   -0.53    0.38
   0  -6   1   -1.16    0.95
  -1   6  -1    3.25    0.48
  -1   6  -1    2.23    1.01
  -1   6  -1    3.98    0.53
  -1   6  -1    3.96    0.94
  -1   6  -1    3.70    1.32
   1  -6   1    3.09    0.86
   1  -6   1    3.81    1.31
   1  -6   1    2.47    0.64
  -2   6  -1    7.91    1.81
  -2   6  -1    7.40    1.18
  -2   6  -1    7.14    0.80
  -2   6  -1    7.66    1.31
  -2   6  -1    8.14    0.68
   2  -6   1    6.57    1.07
   2  -6   1    8.07    1.28
  -3   6  -1   11.19    2.05
  -3   6  -1   14.43    1.18
  -3   6  -1   13.23    1.89
  -3   6  -1   12.81    0.94
  -3   6  -1   12.61    0.98
  -3   6  -1   16.23    1.89
   3  -6   1   14.71    1.71
   3  -6   1   16.07    1.59
  -4   6  -1    8.68    0.86
  -4   6  -1    8.33    1.25
  -4   6  -1   11.49    2.21
  -4   6  -1   12.38    2.00
   4  -6   1   11.54    1.55
   4  -6   1   10.73    1.57
  -5   6  -1    6.04    0.84
  -5   6  -1    6.27    1.08
  -5   6  -1    8.50    2.42
  -5   6  -1    6.64    1.25
  -5   6  -1    9.09    1.81
   5  -6   1    3.69    1.83
  -6   6  -1   -0.53    0.52
  -6   6  -1   -0.70    1.00
  -6   6  -1    0.32    0.99
  -6   6  -1    1.96    1.61
  -6   6  -1   -0.05    1.35
  -6   6  -1   -1.22    2.13
   6  -6   1    2.24    2.18
  -7   6  -1    2.68    1.71
  -7   6  -1    4.02    0.79
  -7   6  -1    5.40    1.38
  -7   6  -1    2.98    1.52
  -7   6  -1    2.30    1.55
  -7   6  -1    7.81    3.20
   7  -6   1    2.93    2.33
  -8   6  -1   -1.20    1.92
  -8   6  -1    5.78    2.15
  -8   6  -1   -1.13    3.83
  -8   6  -1    1.25    1.84
   8  -6   1    0.78    2.42
  12   5  -1    4.39    2.88
 -12  -5   1   -1.01    1.89
  11   5  -1    0.41    1.16
  11   5  -1   -0.26    1.62
  11   5  -1    1.98    1.80
 -11  -5   1   -2.06    2.05
 -11  -5   1    3.65    1.61
 -11  -5   1    3.17    3.48
  10   5  -1   -0.05    0.99
  10   5  -1   -0.79    1.49
  10   5  -1    3.44    1.50
 -10  -5   1    0.30    1.40
 -10  -5   1   -0.46    2.44
 -10  -5   1    2.33    1.23
 -10  -5   1   -0.57    2.95
   9   5  -1   -1.61    0.81
   9   5  -1    0.71    1.48
   9   5  -1    0.11    0.92
  -9  -5   1    2.11    1.05
  -9  -5   1   -1.97    0.90
  -9  -5   1   -1.64    2.12
  -9  -5   1    3.18    2.03
   8   5  -1    4.75    1.57
   8   5  -1    5.41    1.02
   8   5  -1    4.63    1.09
  -8  -5   1    5.73    1.97
  -8  -5   1    5.30    2.16
  -8  -5   1    3.33    1.01
  -8  -5   1    5.06    1.01
   7   5  -1   15.31    1.63
   7   5  -1   18.74    2.56
   7   5  -1   17.89    1.75
  -7  -5   1   14.21    2.44
  -7  -5   1   17.13    1.71
  -7  -5   1   18.79    2.79
   6   5  -1   22.14    2.56
   6   5  -1   21.39    1.85
   6   5  -1   24.85    2.12
  -6  -5   1   25.96    2.78
  -6  -5   1   21.12    1.80
  -6  -5   1   23.03    2.75
   5   5  -1    6.36    0.97
   5   5  -1    7.07    1.08
   5   5  -1    9.01    1.55
  -5  -5   1    7.88    0.99
  -5  -5   1    7.43    0.70
  -5  -5   1    8.56    1.62
  -5  -5   1    8.45    1.55
   4   5  -1   55.12    3.14
   4   5  -1   50.35    3.87
  -4  -5   1   51.77    3.80
  -4  -5   1   52.27    2.99
  -4  -5   1   56.27    3.86
  -4  -5   1   54.77    3.15
   3   5  -1   11.19    0.99
   3   5  -1   11.88    1.02
   3   5  -1    8.36    1.54
   3   5  -1   10.05    1.65
  -3  -5   1    9.37    0.94
  -3  -5   1    9.23    1.51
  -3  -5   1   10.22    1.63
  -3  -5   1   11.97    0.98
   2   5  -1   14.84    1.27
   2   5  -1   15.52    1.75
   2   5  -1   15.34    1.14
   2   5  -1   12.82    1.81
  -2  -5   1   15.27    1.11
  -2  -5   1   17.33    1.79
  -2  -5   1   15.95    1.26
  -2  -5   1   17.41    1.75
   1   5  -1   17.34    1.79
   1   5  -1   17.16    1.36
   1   5  -1   15.31    1.09
   1   5  -1   17.69    1.96
  -1  -5   1   16.97    1.37
  -1  -5   1   13.78    1.22
  -1  -5   1   17.37    1.85
   0   5  -1   21.08    1.97
   0   5  -1   20.88    1.34
   0   5  -1   18.77    2.14
   0   5  -1   25.04    1.74
   0  -5   1   19.98    1.56
   0  -5   1   25.15    2.21
   0  -5   1   24.77    1.73
  -1   5  -1    1.52    0.32
  -1   5  -1    1.02    0.91
  -1   5  -1    1.60    0.64
  -1   5  -1    1.52    0.74
  -1   5  -1    1.13    0.27
   1  -5   1    1.65    0.49
   1  -5   1    1.39    0.58
   1  -5   1    2.67    0.97
  -2   5  -1    2.45    0.84
  -2   5  -1    2.04    0.34
  -2   5  -1    2.32    0.81
  -2   5  -1    1.68    0.38
  -2   5  -1    3.95    1.27
   2  -5   1    1.11    0.93
   2  -5   1    1.71    0.53
   2  -5   1    1.97    0.70
  -3   5  -1    1.16    0.48
  -3   5  -1    0.40    0.37
  -3   5  -1    0.14    0.29
  -3   5  -1   -0.47    1.04
  -3   5  -1   -0.05    0.67
   3  -5   1   -0.05    0.57
   3  -5   1    0.41    0.48
   3  -5   1    1.04    0.94
  -4   5  -1   11.26    1.24
  -4   5  -1   12.50    1.68
  -4   5  -1   14.38    2.30
  -4   5  -1   10.21    0.94
  -4   5  -1    9.86    1.26
   4  -5   1    9.81    1.47
   4  -5   1    7.69    1.29
  -5   5  -1   15.75    1.73
  -5   5  -1   19.33    3.16
  -5   5  -1   15.02    1.88
  -5   5  -1   16.01    1.27
  -5   5  -1   17.74    2.09
   5  -5   1   17.77    2.62
  -6   5  -1   15.95    1.88
  -6   5  -1   14.69    2.14
  -6   5  -1   14.19    2.09
  -6   5  -1   10.80    2.58
  -6   5  -1   13.19    1.82
  -6   5  -1   11.08    1.20
   6  -5   1   11.51    2.40
  -7   5  -1   16.86    2.67
  -7   5  -1   11.38    1.36
  -7   5  -1    9.63    1.38
  -7   5  -1   11.93    1.78
  -7   5  -1    8.57    1.63
  -7   5  -1   11.55    2.96
   7  -5   1    8.55    2.55
  -8   5  -1    4.67    1.77
  -8   5  -1    0.84    1.49
  -8   5  -1   -1.10    2.97
  -8   5  -1    3.25    2.32
  -8   5  -1    2.27    0.96
  -8   5  -1    0.66    1.35
  -8   5  -1    2.04    1.57
   8  -5   1    2.17    2.38
  -9   5  -1   -1.48    1.76
  -9   5  -1    3.46    2.17
  -9   5  -1   -0.95    3.91
   9  -5   1   -0.42    2.63
  12   4  -1    4.87    2.57
 -12  -4   1   10.75    2.25
  11   4  -1    1.65    0.90
  11   4  -1    0.02    1.90
  11   4  -1    2.44    1.20
 -11  -4   1   -1.82    4.93
 -11  -4   1    3.18    1.56
 -11  -4   1    7.78    3.16
  10   4  -1    0.22    1.48
  10   4  -1    0.51    1.29
  10   4  -1   -0.43    0.80
  10   4  -1    1.96    1.37
 -10  -4   1    0.78    1.34
 -10  -4   1   -3.49    2.09
 -10  -4   1   -2.13    0.90
 -10  -4   1    1.87    2.66
   9   4  -1   13.59    2.18
   9   4  -1    9.16    1.27
   9   4  -1   11.34    2.31
   9   4  -1   11.96    1.78
  -9  -4   1   15.10    2.60
  -9  -4   1   13.70    1.85
  -9  -4   1   12.67    2.65
  -9  -4   1   11.62    1.80
   8   4  -1    3.39    0.97
   8   4  -1    2.19    0.76
   8   4  -1    5.69    1.50
  -8  -4   1    1.95    1.90
  -8  -4   1    1.85    0.84
  -8  -4   1    5.76    1.82
   7   4  -1    7.72    1.53
   7   4  -1    7.68    1.14
   7   4  -1    9.33    1.31
  -7  -4   1    8.88    1.73
  -7  -4   1   11.80    2.18
  -7  -4   1    7.16    1.13
   6   4  -1   27.95    2.06
   6   4  -1   29.65    2.67
   6   4  -1   29.63    2.03
  -6  -4   1   27.30    2.72
  -6  -4   1   32.94    2.94
  -6  -4   1   27.62    2.05
   5   4  -1    9.47    1.06
   5   4  -1    7.92    1.01
   5   4  -1    9.46    1.58
  -5  -4   1   10.52    1.68
  -5  -4   1   11.89    1.71
  -5  -4   1   10.61    1.05
   4   4  -1   34.55    2.79
   4   4  -1   35.80    2.18
  -4  -4   1   35.06    2.78
  -4  -4   1   36.06    2.73
  -4  -4   1   34.06    1.93
  -4  -4   1   32.15    2.13
   3   4  -1  172.01    9.19
   3   4  -1  152.27    8.46
   3   4  -1  178.53    8.56
   3   4  -1  168.36    9.15
  -3  -4   1  162.22    8.45
  -3  -4   1  164.71    9.11
  -3  -4   1  167.10    9.08
  -3  -4   1  159.60    8.53
   2   4  -1   -0.08    0.57
   2   4  -1   -0.25    0.22
   2   4  -1    0.40    0.32
   2   4  -1   -0.41    0.54
  -2  -4   1   -0.45    0.44
  -2  -4   1   -0.08    0.22
  -2  -4   1    0.14    0.54
  -2  -4   1   -0.45    0.22
   1   4  -1   90.76    4.45
   1   4  -1   81.16    4.58
   1   4  -1   85.60    4.95
   1   4  -1   85.31    5.04
  -1  -4   1   85.86    4.86
  -1  -4   1   87.12    4.25
  -1  -4   1   77.97    4.58
  -1  -4   1   83.96    5.02
   0   4  -1   41.12    2.66
   0   4  -1   43.43    2.45
   0   4  -1   34.43    2.14
   0   4  -1   36.55    2.80
   0  -4   1   41.49    2.44
   0  -4   1   40.04    2.36
   0  -4   1   39.84    2.73
  -1   4  -1    3.06    0.97
  -1   4  -1    2.28    0.62
  -1   4  -1    2.73    0.39
  -1   4  -1    3.74    0.71
  -1   4  -1    2.58    0.39
   1  -4   1    1.79    0.48
   1  -4   1    3.45    0.80
   1  -4   1    2.55    0.51
  -2   4  -1    0.79    0.51
  -2   4  -1   -0.04    0.33
  -2   4  -1    0.02    0.25
  -2   4  -1    0.25    0.69
   2  -4   1    0.15    0.46
   2  -4   1    0.76    0.73
   2  -4   1   -0.77    0.61
   2  -4   1    0.10    0.34
  -3   4  -1   41.55    3.12
  -3   4  -1   38.90    2.30
  -3   4  -1   36.69    2.56
  -3   4  -1   33.91    2.38
  -3   4  -1   38.20    2.17
   3  -4   1   37.90    2.56
   3  -4   1   39.91    2.44
   3  -4   1   43.43    3.12
  -4   4  -1    6.40    1.41
  -4   4  -1    6.21    0.87
  -4   4  -1    4.18    0.76
  -4   4  -1    5.97    0.71
   4  -4   1    3.97    1.15
   4  -4   1    6.72    1.10
  -5   4  -1   40.47    3.61
  -5   4  -1   44.30    3.05
  -5   4  -1   39.20    2.74
  -5   4  -1   39.54    2.49
  -5   4  -1   49.17    2.81
  -6   4  -1    3.43    1.83
  -6   4  -1    6.47    1.13
  -6   4  -1    7.19    1.13
  -6   4  -1    6.97    1.19
  -6   4  -1    3.71    1.17
  -6   4  -1    4.48    0.79
   6  -4   1    3.80    1.62
  -7   4  -1    2.51    0.79
  -7   4  -1    3.42    0.82
  -7   4  -1    2.22    1.07
  -7   4  -1   -0.46    1.91
  -7   4  -1    4.68    1.12
  -7   4  -1    1.46    1.50
  -7   4  -1    5.98    1.27
   7  -4   1    4.44    2.08
  -8   4  -1    6.30    1.55
  -8   4  -1    0.99    2.49
  -8   4  -1    5.03    1.06
  -8   4  -1    5.23    1.18
  -8   4  -1    8.72    1.83
  -8   4  -1    5.31    1.37
  -8   4  -1    4.26    1.37
   8  -4   1    3.73    2.13
  -9   4  -1   12.53    2.55
  -9   4  -1   13.54    2.04
  -9   4  -1   11.96    2.07
  -9   4  -1   10.21    1.81
  -9   4  -1    9.47    3.66
  -9   4  -1   11.67    2.01
   9  -4   1    8.60    2.80
 -10   4  -1   -4.18    4.36
 -10   4  -1   -2.91    1.54
  10  -4   1   -2.40    2.66
  12   3  -1    2.10    2.43
 -12  -3   1   -0.55    1.88
  11   3  -1    2.67    2.01
  11   3  -1    5.32    2.39
 -11  -3   1    4.77    2.95
 -11  -3   1    3.54    1.61
  10   3  -1    1.22    0.85
  10   3  -1    0.37    1.68
  10   3  -1    2.10    1.27
  10   3  -1    1.51    0.62
 -10  -3   1   -0.68    2.29
 -10  -3   1   -0.23    1.01
 -10  -3   1   -0.04    1.35
   9   3  -1    1.21    0.90
   9   3  -1    1.46    1.01
   9   3  -1    2.01    0.64
   9   3  -1    0.29    1.47
  -9  -3   1   -1.26    1.67
  -9  -3   1    1.03    0.93
  -9  -3   1   -0.49    1.04
   8   3  -1   11.83    1.55
   8   3  -1   12.82    1.29
   8   3  -1    8.60    2.65
   8   3  -1   17.50    1.95
  -8  -3   1   13.92    1.57
  -8  -3   1   17.74    2.64
   7   3  -1   37.81    2.94
   7   3  -1   38.17    2.65
   7   3  -1   39.99    2.47
  -7  -3   1   40.05    3.33
  -7  -3   1   39.29    2.63
   6   3  -1    4.06    0.68
   6   3  -1    5.22    0.85
   6   3  -1    3.87    1.00
  -6  -3   1    4.59    0.79
  -6  -3   1    6.42    1.23
   5   3  -1   16.50    1.85
   5   3  -1   19.37    1.43
   5   3  -1   16.41    1.33
  -5  -3   1   17.16    1.35
  -5  -3   1   18.80    1.99
  -5  -3   1   20.43    1.99
   4   3  -1   83.35    4.94
   4   3  -1   86.24    4.51
   4   3  -1   83.13    4.49
  -4  -3   1   76.34    4.47
  -4  -3   1   81.30    5.02
  -4  -3   1   86.42    5.03
   3   3  -1    2.15    0.35
   3   3  -1    2.07    0.44
   3   3  -1    1.95    0.77
  -3  -3   1    1.79    0.37
  -3  -3   1    1.81    0.29
  -3  -3   1    1.63    0.71
  -3  -3   1    2.15    0.69
   2   3  -1    0.71    0.26
   2   3  -1    0.21    0.50
   2   3  -1    0.33    0.53
   2   3  -1    0.47    0.23
  -2  -3   1    0.35    0.25
  -2  -3   1    0.53    0.52
  -2  -3   1    0.81    0.24
  -2  -3   1    0.58    0.51
   1   3  -1    8.95    0.68
   1   3  -1    9.02    1.04
   1   3  -1    9.38    1.10
   1   3  -1   10.07    0.77
  -1  -3   1    9.31    1.05
  -1  -3   1    8.44    0.75
  -1  -3   1    9.46    0.70
  -1  -3   1    9.08    1.00
   0   3  -1   18.24    1.46
   0   3  -1   19.76    1.62
   0   3  -1   23.60    1.75
   0   3  -1   21.36    1.17
   0   3  -1   18.62    1.32
   0  -3   1   17.62    1.31
   0  -3   1   19.74    1.30
   0  -3   1   19.29    1.59
  -1   3  -1    0.63    0.55
  -1   3  -1    0.85    0.29
  -1   3  -1    0.96    0.22
  -1   3  -1    0.73    0.39
  -1   3  -1    1.12    0.38
   1  -3   1    1.23    0.33
   1  -3   1    1.67    0.55
   1  -3   1    0.86    0.37
  -2   3  -1   45.26    2.60
  -2   3  -1   41.98    2.68
  -2   3  -1   46.73    3.04
  -2   3  -1   45.27    2.50
   2  -3   1   47.70    3.02
   2  -3   1   39.59    2.56
   2  -3   1   49.90    2.74
  -3   3  -1   11.43    1.13
  -3   3  -1   10.22    0.98
  -3   3  -1   11.76    1.51
  -3   3  -1   12.44    1.01
  -3   3  -1   12.14    0.89
   3  -3   1   14.36    1.55
   3  -3   1   11.59    1.13
   3  -3   1   12.19    1.03
  -4   3  -1    1.37    0.48
  -4   3  -1    2.75    0.60
  -4   3  -1    1.36    0.78
  -4   3  -1    0.75    0.58
  -4   3  -1    1.56    0.43
   4  -3   1    2.71    0.72
   4  -3   1    1.30    0.78
  -5   3  -1    0.04    0.61
  -5   3  -1    1.49    0.55
  -5   3  -1    0.50    0.40
  -5   3  -1    1.01    0.60
  -5   3  -1   -0.19    0.52
  -5   3  -1    0.40    0.92
   5  -3   1    0.25    0.82
  -6   3  -1    0.58    0.51
  -6   3  -1    1.29    0.81
  -6   3  -1    0.79    0.40
  -6   3  -1    0.67    0.72
  -6   3  -1    1.82    1.31
  -6   3  -1    0.95    0.66
  -6   3  -1   -0.24    0.67
   6  -3   1    1.80    1.39
  -7   3  -1   26.60    1.99
  -7   3  -1   31.18    2.30
  -7   3  -1   25.79    3.42
  -7   3  -1   24.67    2.35
  -7   3  -1   26.97    1.85
  -7   3  -1   28.25    2.49
  -7   3  -1   24.91    2.18
   7  -3   1   26.07    2.99
  -8   3  -1    0.70    0.76
  -8   3  -1    0.78    0.88
  -8   3  -1   -2.03    1.24
  -8   3  -1   -1.46    2.09
  -8   3  -1    0.68    0.96
  -8   3  -1   -0.01    1.03
  -8   3  -1    0.30    1.19
   8  -3   1   -1.55    1.29
  -9   3  -1   11.05    1.51
  -9   3  -1   11.96    3.31
  -9   3  -1   10.27    1.83
  -9   3  -1   12.82    1.98
  -9   3  -1   12.27    2.15
  -9   3  -1   11.44    1.78
   9  -3   1    8.22    2.53
 -10   3  -1   11.28    2.75
 -10   3  -1    7.61    3.94
 -10   3  -1   10.16    1.98
 -10   3  -1   11.85    2.04
  10  -3   1    6.14    2.79
  12   2  -1    2.08    2.63
 -12  -2   1    1.80    4.15
 -12  -2   1    0.67    1.98
  11   2  -1    1.59    2.16
  11   2  -1    3.62    1.87
 -11  -2   1    1.72    1.45
 -11  -2   1    4.65    2.97
  10   2  -1   11.67    2.54
  10   2  -1    6.21    1.63
 -10  -2   1   11.00    1.73
 -10  -2   1    8.91    2.66
 -10  -2   1   12.88    2.00
   9   2  -1   33.82    3.66
   9   2  -1   29.47    1.86
   9   2  -1   31.18    2.61
  -9  -2   1   34.26    2.62
  -9  -2   1   30.58    3.73
  -9  -2   1   32.10    2.81
   8   2  -1   66.25    4.04
   8   2  -1   69.04    3.58
   8   2  -1   62.08    3.84
   8   2  -1   55.28    5.06
  -8  -2   1   70.18    5.21
  -8  -2   1   67.03    4.02
   7   2  -1    0.83    0.72
   7   2  -1    1.07    0.94
   7   2  -1    1.30    0.39
  -7  -2   1    0.98    0.61
  -7  -2   1    1.58    1.01
   6   2  -1  207.05   10.75
   6   2  -1  210.35   10.55
   6   2  -1  197.58   10.91
  -6  -2   1  216.09   11.26
  -6  -2   1  201.97   10.73
   5   2  -1  221.62   10.88
   5   2  -1  199.17   11.24
   5   2  -1  214.08   11.01
  -5  -2   1  219.86   11.45
  -5  -2   1  212.61   10.99
   4   2  -1   96.21    5.07
   4   2  -1   89.48    4.96
   4   2  -1   96.53    5.38
  -4  -2   1   98.64    5.07
  -4  -2   1   92.92    5.43
   3   2  -1   37.24    2.47
   3   2  -1   38.57    2.15
  -3  -2   1   33.59    2.12
  -3  -2   1   40.21    2.54
   2   2  -1    5.64    0.51
   2   2  -1    5.32    0.83
   2   2  -1    5.70    0.42
  -2  -2   1    6.65    0.89
  -2  -2   1    5.30    0.54
  -2  -2   1    4.90    0.41
  -2  -2   1    4.88    0.80
   1   2  -1   53.47    2.91
   1   2  -1   53.12    3.18
   1   2  -1   58.01    2.94
   1   2  -1   54.70    3.21
  -1  -2   1   54.32    3.19
  -1  -2   1   56.12    2.93
  -1  -2   1   57.53    3.19
  -1  -2   1   55.06    2.92
   0   2  -1    0.38    0.32
   0   2  -1    0.02    0.33
   0   2  -1    0.16    0.13
   0   2  -1    0.69    0.26
   0  -2   1    0.33    0.12
   0  -2   1    0.35    0.20
   0  -2   1    0.15    0.22
   0  -2   1    0.57    0.35
   0  -2   1    0.16    0.20
  -1   2  -1    0.03    0.35
  -1   2  -1   -0.05    0.13
  -1   2  -1    0.08    0.20
  -1   2  -1    0.08    0.16
  -1   2  -1   -0.19    0.51
   1  -2   1    0.11    0.14
   1  -2   1    0.34    0.29
   1  -2   1    0.15    0.40
   1  -2   1    0.17    0.19
   1  -2   1    0.13    0.22
  -2   2  -1    0.50    0.25
  -2   2  -1    0.67    0.29
  -2   2  -1    0.61    0.49
  -2   2  -1    0.30    0.23
  -2   2  -1    0.22    0.73
   2  -2   1    1.06    0.47
   2  -2   1    1.15    0.37
   2  -2   1    0.68    0.27
  -3   2  -1   28.09    1.73
  -3   2  -1   28.48    1.64
  -3   2  -1   27.06    1.79
  -3   2  -1   26.52    2.07
   3  -2   1   27.96    1.81
  -4   2  -1   22.60    1.68
  -4   2  -1   22.90    1.58
  -4   2  -1   25.64    1.67
  -4   2  -1   22.83    1.50
  -4   2  -1   24.60    2.10
  -4   2  -1   24.82    1.66
   4  -2   1   20.84    2.03
  -5   2  -1   16.94    1.47
  -5   2  -1   18.71    1.51
  -5   2  -1   18.40    1.48
  -5   2  -1   16.17    1.34
  -5   2  -1   18.57    1.99
  -5   2  -1   19.54    1.36
   5  -2   1   15.36    1.95
  -6   2  -1    5.66    0.82
  -6   2  -1    5.96    1.01
  -6   2  -1    5.33    1.01
  -6   2  -1    4.48    0.86
  -6   2  -1    4.49    0.67
  -6   2  -1    5.86    1.53
   6  -2   1    4.17    1.42
  -7   2  -1    8.27    1.11
  -7   2  -1    7.01    1.07
  -7   2  -1    6.27    1.05
  -7   2  -1   10.69    2.15
  -7   2  -1    7.22    1.41
  -7   2  -1    6.31    1.23
  -7   2  -1    8.79    1.17
   7  -2   1    8.68    2.12
  -8   2  -1   10.00    1.59
  -8   2  -1   14.48    2.60
  -8   2  -1   14.61    1.88
  -8   2  -1    9.57    1.57
  -8   2  -1   10.78    1.50
  -8   2  -1   13.73    1.64
  -8   2  -1   12.34    1.55
   8  -2   1    9.70    2.35
  -9   2  -1   16.60    2.39
  -9   2  -1   24.17    2.58
  -9   2  -1   23.25    2.13
  -9   2  -1   27.44    4.02
  -9   2  -1   23.24    2.32
  -9   2  -1   22.90    3.01
  -9   2  -1   28.45    2.72
 -10   2  -1   -0.85    1.74
 -10   2  -1    1.29    3.11
 -10   2  -1    0.96    1.04
 -10   2  -1   -2.51    1.46
 -10   2  -1    0.53    1.57
  10  -2   1   -1.18    2.10
 -11   2  -1    0.98    1.83
 -11   2  -1    7.16    4.40
  11  -2   1   -0.25    2.70
  12   1  -1    0.38    2.55
 -12  -1   1   -0.34    4.00
 -12  -1   1    2.44    2.02
  11   1  -1    4.70    1.87
  11   1  -1    1.14    2.32
 -11  -1   1   -0.72    2.78
 -11  -1   1   -0.13    1.50
  10   1  -1    8.53    1.58
  10   1  -1    6.41    2.13
 -10  -1   1    5.54    1.56
 -10  -1   1    7.25    1.83
 -10  -1   1    6.28    2.27
   9   1  -1    1.79    1.60
   9   1  -1   -0.64    0.85
  -9  -1   1    0.12    1.46
  -9  -1   1    1.82    1.11
  -9  -1   1    3.70    0.99
   8   1  -1   48.47    3.23
  -8  -1   1   47.27    3.82
  -8  -1   1   53.22    3.28
   7   1  -1    1.65    0.34
   7   1  -1    2.00    0.52
   7   1  -1    1.77    1.04
   7   1  -1    1.05    0.56
  -7  -1   1    1.54    0.65
  -7  -1   1    0.58    1.01
   6   1  -1    2.64    0.62
   6   1  -1    2.14    0.59
   6   1  -1    2.76    1.00
   6   1  -1    2.96    0.44
  -6  -1   1    2.98    0.57
  -6  -1   1    4.33    1.04
   5   1  -1  121.17    6.69
   5   1  -1  127.21    6.39
   5   1  -1  124.20    6.60
  -5  -1   1  120.37    6.59
  -5  -1   1  132.20    6.99
   4   1  -1   20.56    1.17
   4   1  -1   20.21    1.34
   4   1  -1   20.23    1.53
  -4  -1   1   19.24    1.32
  -4  -1   1   15.90    1.57
   3   1  -1  370.21   17.79
   3   1  -1  346.76   18.09
   3   1  -1  365.45   17.90
  -3  -1   1  356.21   18.16
  -3  -1   1  346.16   17.88
   2   1  -1  296.90   15.93
   2   1  -1  317.19   15.73
  -2  -1   1  332.49   15.98
  -2  -1   1  311.69   15.72
   1   1  -1    0.80    0.14
   1   1  -1    0.91    0.32
   1   1  -1    0.79    0.16
  -1  -1   1    0.48    0.25
  -1  -1   1    0.77    0.30
  -1  -1   1    0.68    0.16
   0   1  -1   56.51    3.03
   0   1  -1   53.17    3.03
   0   1  -1   55.15    3.12
   0  -1   1   59.95    3.10
   0  -1   1   63.95    3.06
   0  -1   1   57.24    3.13
   0  -1   1   63.03    2.98
  -1   1  -1  454.39   21.99
  -1   1  -1  427.04   22.12
  -1   1  -1  416.67   22.04
  -1   1  -1  439.75   22.18
  -1   1  -1  476.11   22.05
   1  -1   1  421.37   22.02
   1  -1   1  482.23   22.24
   1  -1   1  427.44   21.99
   1  -1   1  438.21   22.13
  -2   1  -1   10.99    1.14
  -2   1  -1   11.16    0.83
  -2   1  -1   13.57    0.87
  -2   1  -1   12.66    1.05
  -2   1  -1   12.66    0.88
   2  -1   1   11.87    0.86
   2  -1   1   14.59    1.17
  -3   1  -1    5.93    0.61
  -3   1  -1    5.42    0.56
  -3   1  -1    5.09    0.60
  -3   1  -1    4.64    0.53
  -3   1  -1    4.72    0.63
   3  -1   1    5.77    0.93
  -4   1  -1    0.38    0.26
  -4   1  -1    0.50    0.36
  -4   1  -1    0.64    0.30
  -4   1  -1   -0.11    0.30
  -4   1  -1    0.12    0.34
   4  -1   1    0.35    0.61
  -5   1  -1   31.87    2.02
  -5   1  -1   27.50    1.86
  -5   1  -1   29.12    1.89
  -5   1  -1   31.19    1.93
  -5   1  -1   29.26    1.86
  -5   1  -1   28.70    1.61
   5  -1   1   23.24    2.35
  -6   1  -1    3.95    0.59
  -6   1  -1    3.55    0.73
  -6   1  -1    3.31    0.74
  -6   1  -1    2.74    0.66
  -6   1  -1    3.18    0.67
  -6   1  -1    3.93    0.71
   6  -1   1    2.86    0.99
  -7   1  -1    4.76    1.02
  -7   1  -1    3.08    0.73
  -7   1  -1    4.36    0.81
  -7   1  -1    3.19    0.75
  -7   1  -1    5.58    0.92
  -7   1  -1    5.61    0.89
   7  -1   1    3.78    1.40
  -8   1  -1    5.78    1.09
  -8   1  -1    3.60    0.93
  -8   1  -1    3.29    0.82
  -8   1  -1    4.41    0.96
  -8   1  -1    1.62    0.89
  -8   1  -1    3.78    0.92
   8  -1   1    4.50    1.70
  -9   1  -1   -0.84    0.99
  -9   1  -1    1.23    1.24
  -9   1  -1    3.54    1.38
  -9   1  -1    1.44    0.87
  -9   1  -1    2.11    0.97
  -9   1  -1    1.96    1.08
   9  -1   1    3.17    1.88
 -10   1  -1    4.27    1.42
 -10   1  -1    2.76    1.54
 -10   1  -1    4.20    1.43
 -10   1  -1    7.10    1.83
 -10   1  -1    4.36    1.00
  10  -1   1    4.85    2.56
 -11   1  -1    5.61    2.18
 -11   1  -1   11.15    2.09
 -11   1  -1   19.19    4.38
  11  -1   1    4.57    2.83
  12   0  -1    1.62    2.77
 -12   0   1    1.21    1.96
 -12   0   1    0.91    2.20
  11   0  -1   -1.37    2.34
 -11   0   1    1.67    1.55
 -11   0   1   -0.50    1.43
 -11   0   1    2.09    2.82
  10   0  -1    3.56    1.39
  10   0  -1    1.43    2.12
 -10   0   1    1.23    1.56
 -10   0   1    1.65    1.23
 -10   0   1   -1.31    1.97
   9   0  -1   26.68    2.39
  -9   0   1   22.02    2.61
  -9   0   1   27.05    2.29
   8   0  -1   51.98    4.30
   8   0  -1   54.17    3.45
  -8   0   1   54.39    3.42
  -8   0   1   54.46    3.99
   7   0  -1   14.44    1.95
   7   0  -1   14.91    1.42
  -7   0   1   14.03    1.38
  -7   0   1   16.14    1.94
   6   0  -1    6.34    0.88
   6   0  -1    6.36    1.35
  -6   0   1    7.12    0.95
  -6   0   1    6.99    1.12
   5   0  -1    3.18    0.49
   5   0  -1    2.23    0.48
   5   0  -1    3.63    1.03
  -5   0   1    3.11    0.78
  -5   0   1    3.20    0.57
   4   0  -1    5.40    1.02
   4   0  -1    4.90    0.58
   4   0  -1    3.87    0.43
   4   0  -1    3.87    0.56
   4   0  -1    4.39    0.32
  -4   0   1    4.11    0.74
  -4   0   1    5.25    0.61
   3   0  -1  233.32   11.62
   3   0  -1  225.16   11.42
   3   0  -1  230.73   11.86
   3   0  -1  230.86   11.35
   3   0  -1  238.21   11.55
  -3   0   1  220.36   11.72
  -3   0   1  223.28   11.53
   2   0  -1 1000.00   46.22
  -2   0   1  858.73   46.01
   1   0  -1   34.26    1.94
   1   0  -1   35.36    1.82
  -1   0   1   36.44    1.96
  -1   0   1   31.80    1.81
  -1   0  -1   36.45    1.97
  -1   0  -1   33.45    1.91
   1   0   1   41.01    2.04
   1   0   1   33.29    1.94
   1   0   1   36.83    1.93
  -2   0  -1   65.94    3.56
  -2   0  -1   73.56    3.78
  -2   0  -1   66.01    3.57
  -2   0  -1   66.21    3.58
   2   0   1   71.65    3.59
   2   0   1   66.16    3.58
  -3   0  -1   63.91    3.78
  -3   0  -1   60.37    3.43
  -3   0  -1   60.92    3.39
  -3   0  -1   63.36    3.44
  -3   0  -1   62.61    3.46
   3   0   1   68.90    3.76
   3   0   1   70.06    3.45
  -4   0  -1    4.42    0.62
  -4   0  -1    4.35    0.66
  -4   0  -1    4.93    0.53
  -4   0  -1    4.30    0.61
  -4   0  -1    5.57    0.57
   4   0   1    3.24    0.88
  -5   0  -1   42.97    2.66
  -5   0  -1   44.54    2.65
  -5   0  -1   42.76    2.60
  -5   0  -1   47.27    2.77
  -5   0  -1   49.76    2.65
  -6   0  -1    6.00    0.92
  -6   0  -1    5.14    0.75
  -6   0  -1    5.06    0.74
  -6   0  -1    4.60    0.83
  -6   0  -1    4.88    0.76
   6   0   1    3.20    1.20
  -7   0  -1    1.06    0.55
  -7   0  -1    2.02    0.66
  -7   0  -1    0.60    0.75
  -7   0  -1    0.82    0.56
  -7   0  -1    1.33    0.72
   7   0   1    0.04    0.97
  -8   0  -1   -0.52    0.69
  -8   0  -1    1.27    0.70
  -8   0  -1   -0.19    0.63
  -8   0  -1    0.40    0.62
  -8   0  -1    0.23    0.91
  -8   0  -1   -0.08    0.81
   8   0   1   -0.25    1.27
  -9   0  -1    7.12    1.19
  -9   0  -1    4.71    1.45
  -9   0  -1    6.35    1.16
  -9   0  -1    7.11    1.07
  -9   0  -1    4.80    1.21
  -9   0  -1    6.39    1.56
   9   0   1    6.49    2.05
 -10   0  -1   25.92    3.13
 -10   0  -1   26.31    3.42
 -10   0  -1   21.30    2.55
 -10   0  -1   19.90    1.79
 -10   0  -1   18.50    2.29
  10   0   1   21.18    3.52
 -11   0  -1   10.28    2.08
 -11   0  -1    6.49    1.95
 -11   0  -1   11.86    2.94
  11   0   1   12.78    3.18
 -12   0  -1    6.78    2.29
  12   0   1    7.24    3.28
  11  -1  -1    0.88    2.25
 -11   1   1   -0.73    2.79
 -11   1   1   -1.48    1.58
 -11   1   1   -2.96    1.49
  10  -1  -1    2.46    2.10
 -10   1   1   -0.15    2.14
 -10   1   1   -1.25    1.06
   9  -1  -1   10.39    2.46
  -9   1   1   11.56    2.04
  -9   1   1    7.81    1.26
  -9   1   1    7.86    1.36
   8  -1  -1    7.79    1.21
   8  -1  -1    9.70    2.35
  -8   1   1    8.32    1.13
  -8   1   1    6.75    1.43
  -8   1   1    7.80    1.12
  -8   1   1    7.71    1.52
   7  -1  -1    3.02    1.20
   7  -1  -1    1.17    0.61
  -7   1   1    0.88    0.87
  -7   1   1    1.78    0.64
   6  -1  -1   -0.04    0.40
   6  -1  -1    0.20    0.37
   6  -1  -1    1.23    0.92
  -6   1   1    0.57    0.44
  -6   1   1    0.81    0.61
  -6   1   1    0.38    0.44
   5  -1  -1   22.81    1.56
   5  -1  -1   26.12    1.64
   5  -1  -1   24.24    2.15
  -5   1   1   26.30    1.87
  -5   1   1   24.13    1.63
  -5   1   1   25.05    1.62
  -5   1   1   24.83    1.32
   4  -1  -1   23.89    1.48
   4  -1  -1   22.15    1.47
   4  -1  -1   25.19    1.94
  -4   1   1   23.50    1.64
  -4   1   1   24.27    1.49
  -4   1   1   23.64    1.26
  -4   1   1   24.26    1.51
   3  -1  -1   40.15    2.27
   3  -1  -1   45.90    2.65
   3  -1  -1   40.13    2.23
  -3   1   1   41.49    2.24
  -3   1   1   38.82    2.27
  -3   1   1   40.34    2.08
  -3   1   1   39.78    2.35
   2  -1  -1  131.96    6.74
   2  -1  -1  127.44    6.52
   2  -1  -1  133.44    6.47
  -2   1   1  120.79    6.55
  -2   1   1  126.38    6.46
   1  -1  -1   11.66    0.81
   1  -1  -1   10.32    0.72
   1  -1  -1   11.83    0.65
  -1   1   1   12.09    0.65
  -1   1   1   10.73    0.75
  -1   1   1   11.58    0.65
   0  -1  -1   24.44    1.30
   0  -1  -1   23.20    1.36
   0   1   1   23.53    1.34
   0   1   1   22.60    1.38
   0   1   1   25.02    1.28
   0   1   1   23.53    1.30
  -1  -1  -1    1.13    0.19
  -1  -1  -1    1.19    0.24
  -1  -1  -1    1.17    0.21
   1   1   1    1.00    0.21
   1   1   1    0.96    0.18
   1   1   1    0.98    0.20
  -2  -1  -1  175.43    8.70
  -2  -1  -1  178.66    8.68
  -2  -1  -1  170.17    8.72
  -2  -1  -1  175.08    8.68
   2   1   1  176.94    8.70
   2   1   1  172.12    8.68
   2   1   1  152.05    8.85
   2   1   1  173.23    8.68
  -3  -1  -1   33.63    1.93
  -3  -1  -1   29.82    1.90
  -3  -1  -1   35.19    1.99
   3   1   1   35.88    2.20
   3   1   1   32.62    1.77
   3   1   1   33.15    1.91
   3   1   1   32.64    1.91
  -4  -1  -1   52.77    3.09
  -4  -1  -1   53.35    3.04
  -4  -1  -1   53.18    3.06
  -4  -1  -1   52.04    3.01
   4   1   1   57.40    3.02
   4   1   1   54.56    3.05
   4   1   1   58.53    3.46
  -5  -1  -1   66.21    3.57
  -5  -1  -1   61.33    3.43
  -5  -1  -1   60.21    3.55
  -5  -1  -1   59.24    3.47
  -5  -1  -1   61.82    3.32
   5   1   1   61.34    3.92
   5   1   1   58.48    3.40
   5   1   1   64.87    3.51
  -6  -1  -1    3.17    0.72
  -6  -1  -1    1.82    0.54
  -6  -1  -1    2.55    0.46
  -6  -1  -1    2.33    0.63
  -6  -1  -1    1.63    0.54
   6   1   1    1.94    0.81
   6   1   1    2.78    0.49
   6   1   1    2.56    0.66
  -7  -1  -1   17.96    1.79
  -7  -1  -1   16.71    1.56
  -7  -1  -1   17.21    1.40
  -7  -1  -1   15.70    1.48
  -7  -1  -1   16.56    1.26
   7   1   1   12.21    1.82
   7   1   1   15.94    1.27
   7   1   1   15.68    1.47
  -8  -1  -1    3.88    0.74
  -8  -1  -1    3.14    0.90
  -8  -1  -1    2.95    0.72
  -8  -1  -1    4.01    0.88
  -8  -1  -1    4.85    1.24
   8   1   1    5.71    1.77
  -9  -1  -1    1.88    0.89
  -9  -1  -1    0.65    0.74
  -9  -1  -1    1.40    0.99
  -9  -1  -1    0.49    1.27
  -9  -1  -1    0.05    0.68
   9   1   1   -0.96    1.39
 -10  -1  -1    9.20    1.62
 -10  -1  -1    9.58    1.33
 -10  -1  -1   12.62    2.63
 -10  -1  -1   12.71    1.99
 -10  -1  -1    9.96    1.50
  10   1   1    7.71    2.34
 -11  -1  -1   10.60    1.98
 -11  -1  -1   10.86    2.78
  11   1   1    5.08    2.44
 -12  -1  -1    3.27    2.03
  12   1   1    3.23    2.70
  11  -2  -1    0.26    2.16
 -11   2   1    2.03    1.62
 -11   2   1   -0.07    1.83
 -11   2   1    2.35    4.60
  10  -2  -1    3.25    2.47
 -10   2   1    0.81    2.09
 -10   2   1    1.72    1.27
 -10   2   1   -1.86    1.22
   9  -2  -1    5.61    2.27
  -9   2   1    5.46    1.82
  -9   2   1    4.65    1.15
  -9   2   1    7.17    1.80
  -9   2   1    7.92    1.27
   8  -2  -1   43.19    4.44
  -8   2   1   50.46    3.23
  -8   2   1   47.21    3.67
  -8   2   1   56.65    3.75
  -8   2   1   52.93    3.22
  -7   2   1    1.51    0.59
  -7   2   1    2.92    0.87
  -7   2   1    1.07    0.56
   6  -2  -1   -0.18    0.97
   6  -2  -1    1.17    0.48
   6  -2  -1    0.06    0.48
  -6   2   1    0.07    0.38
  -6   2   1    0.92    0.65
  -6   2   1    0.18    0.67
  -6   2   1    0.55    0.45
  -6   2   1    0.41    0.28
   5  -2  -1    0.23    0.36
   5  -2  -1    1.17    0.88
   5  -2  -1    0.10    0.33
  -5   2   1    0.55    0.46
  -5   2   1   -0.35    0.26
  -5   2   1   -0.14    0.30
  -5   2   1   -0.06    0.43
  -5   2   1   -0.27    0.23
   4  -2  -1    9.50    0.77
   4  -2  -1    9.41    0.87
   4  -2  -1    8.41    1.26
  -4   2   1   10.27    0.76
  -4   2   1    8.12    0.92
  -4   2   1    9.50    0.91
  -4   2   1   10.37    0.73
  -4   2   1    8.88    0.77
   3  -2  -1    6.67    0.56
   3  -2  -1    7.74    1.05
   3  -2  -1    7.44    0.74
  -3   2   1    7.11    0.76
  -3   2   1    7.93    0.59
  -3   2   1    7.15    0.69
  -3   2   1    7.20    0.58
   2  -2  -1    7.75    0.70
   2  -2  -1    7.32    0.88
   2  -2  -1    7.67    0.52
  -2   2   1   10.29    1.04
  -2   2   1    8.17    0.72
  -2   2   1    8.06    0.51
  -2   2   1    6.67    0.52
   1  -2  -1   41.73    2.65
   1  -2  -1   44.94    2.56
   1  -2  -1   47.19    2.34
   1  -2  -1   46.48    2.44
  -1   2   1   45.07    2.78
  -1   2   1   52.47    2.40
   0  -2  -1  387.42   20.14
   0   2   1  396.68   20.15
   0   2   1  417.85   19.98
  -1  -2  -1  266.53   13.10
  -1  -2  -1  284.24   13.33
  -1  -2  -1  267.40   13.20
  -1  -2  -1  255.03   13.06
   1   2   1  223.29   13.09
   1   2   1  283.27   13.33
   1   2   1  271.26   13.10
   1   2   1  252.54   13.20
  -2  -2  -1   27.20    1.51
  -2  -2  -1   27.46    1.61
  -2  -2  -1   27.94    1.76
  -2  -2  -1   30.04    1.76
  -2  -2  -1   26.27    1.54
   2   2   1   27.44    1.55
   2   2   1   24.85    1.59
   2   2   1   25.58    1.73
   2   2   1   25.74    1.74
   2   2   1   27.17    1.52
  -3  -2  -1   73.57    4.11
  -3  -2  -1   71.77    3.86
  -3  -2  -1   74.76    3.86
  -3  -2  -1   70.64    3.89
  -3  -2  -1   73.98    4.07
   3   2   1   70.75    3.89
   3   2   1   70.14    3.86
   3   2   1   74.52    4.04
  -4  -2  -1   34.61    2.11
  -4  -2  -1   34.31    2.12
  -4  -2  -1   37.09    2.15
  -4  -2  -1   37.45    2.36
   4   2   1   36.75    2.14
   4   2   1   34.74    2.14
   4   2   1   35.42    2.22
  -5  -2  -1    5.02    0.94
  -5  -2  -1    4.42    0.69
  -5  -2  -1    4.25    0.67
  -5  -2  -1    4.99    0.77
   5   2   1    6.40    0.71
   5   2   1    4.62    0.74
   5   2   1    4.60    0.93
   5   2   1    4.36    0.67
  -6  -2  -1    1.21    0.58
  -6  -2  -1    0.46    0.71
  -6  -2  -1    0.85    0.50
  -6  -2  -1    0.93    0.31
  -6  -2  -1    1.09    0.48
   6   2   1    1.25    0.41
   6   2   1    1.43    0.50
   6   2   1    1.54    0.43
   6   2   1    0.69    0.95
  -7  -2  -1   -0.74    0.47
  -7  -2  -1    1.23    0.61
  -7  -2  -1    0.38    0.51
  -7  -2  -1   -0.22    0.35
   7   2   1   -0.22    0.48
   7   2   1   -0.81    0.92
   7   2   1    0.11    0.42
  -8  -2  -1    5.29    0.87
  -8  -2  -1    4.76    1.10
  -8  -2  -1    4.56    1.36
  -8  -2  -1    5.62    0.76
  -8  -2  -1    3.37    0.88
   8   2   1    4.93    0.95
   8   2   1    4.89    1.75
   8   2   1    4.48    0.80
  -9  -2  -1   30.45    2.48
  -9  -2  -1   31.65    3.19
  -9  -2  -1   28.66    1.90
  -9  -2  -1   27.76    2.60
  -9  -2  -1   27.44    2.13
   9   2   1   26.32    3.08
   9   2   1   27.00    2.01
   9   2   1   31.27    2.54
 -10  -2  -1    8.43    1.09
 -10  -2  -1    9.17    1.65
 -10  -2  -1    9.15    2.33
 -10  -2  -1   10.72    1.92
  10   2   1    7.54    2.11
 -11  -2  -1    4.20    1.60
 -11  -2  -1   10.36    2.68
  11   2   1    5.45    2.38
 -12  -2  -1    5.98    3.68
 -12  -2  -1    4.94    2.09
  12   2   1    4.40    2.56
  10  -3  -1    6.68    2.49
 -10   3   1    3.03    3.78
 -10   3   1    4.62    2.48
 -10   3   1    7.40    1.68
 -10   3   1    7.62    1.50
   9  -3  -1   -0.30    1.81
  -9   3   1    1.74    1.07
  -9   3   1    1.48    1.73
  -9   3   1    0.73    1.61
  -9   3   1    2.64    1.09
  -9   3   1    0.11    2.86
   8  -3  -1    1.31    1.66
  -8   3   1    1.61    1.98
  -8   3   1    2.52    0.85
  -8   3   1    1.54    1.26
  -8   3   1    3.73    1.31
   7  -3  -1    8.45    1.33
   7  -3  -1    3.89    1.79
  -7   3   1    7.88    1.09
  -7   3   1    9.24    1.36
  -7   3   1    6.75    2.07
  -7   3   1    7.47    1.08
  -7   3   1    7.55    0.85
  -7   3   1    7.93    1.33
   6  -3  -1    0.94    1.14
   6  -3  -1    1.02    0.64
  -6   3   1    1.08    0.68
  -6   3   1    1.51    0.79
  -6   3   1    1.31    0.49
  -6   3   1    1.77    1.35
  -6   3   1    0.30    0.42
  -6   3   1    1.06    0.48
   5  -3  -1    5.34    0.90
   5  -3  -1    5.59    1.38
  -5   3   1    7.62    1.53
  -5   3   1    5.78    0.74
  -5   3   1    6.63    0.96
  -5   3   1    5.52    0.72
  -5   3   1    6.89    0.77
  -5   3   1    6.42    0.98
   4  -3  -1   26.02    1.81
   4  -3  -1   30.17    2.37
  -4   3   1   25.67    2.49
  -4   3   1   25.33    1.72
  -4   3   1   25.70    1.56
  -4   3   1   25.58    1.62
  -4   3   1   27.76    1.92
   3  -3  -1   16.44    1.28
   3  -3  -1   16.74    1.60
  -3   3   1   16.04    1.80
  -3   3   1   17.51    0.99
  -3   3   1   17.14    1.34
  -3   3   1   14.56    1.06
   2  -3  -1   99.13    5.22
   2  -3  -1   97.80    5.43
  -2   3   1   95.78    5.78
  -2   3   1  101.43    5.10
  -2   3   1  101.55    5.47
  -2   3   1  113.16    5.25
   1  -3  -1    1.53    0.53
   1  -3  -1    1.08    0.36
   1  -3  -1    1.07    0.50
   1  -3  -1    1.10    0.24
  -1   3   1    2.07    0.62
  -1   3   1    1.01    0.37
  -1   3   1    2.62    0.65
   0  -3  -1   73.39    3.75
   0  -3  -1   73.65    4.26
   0  -3  -1   72.71    4.02
   0   3   1   80.50    4.19
   0   3   1   74.64    4.28
  -1  -3  -1  183.43    9.54
  -1  -3  -1  194.33    9.39
  -1  -3  -1  179.15    9.76
   1   3   1  180.43    9.33
   1   3   1  188.86    9.79
   1   3   1  193.41    9.39
   1   3   1  191.82    9.57
  -2  -3  -1    5.80    0.82
  -2  -3  -1    5.43    0.42
  -2  -3  -1    5.32    0.63
  -2  -3  -1    4.43    0.78
  -2  -3  -1    5.14    0.50
   2   3   1    5.25    0.44
   2   3   1    5.64    0.63
   2   3   1    5.50    0.83
   2   3   1    5.10    0.49
   2   3   1    4.70    0.80
  -3  -3  -1  113.43    5.75
  -3  -3  -1  106.27    6.13
  -3  -3  -1  115.54    5.90
  -3  -3  -1  104.14    5.80
  -3  -3  -1  106.42    6.10
   3   3   1  124.89    6.22
   3   3   1  119.06    5.93
   3   3   1  112.78    5.82
   3   3   1  102.05    6.09
  -4  -3  -1    0.23    0.32
  -4  -3  -1   -0.42    0.22
  -4  -3  -1    0.04    0.27
  -4  -3  -1    0.22    0.57
  -4  -3  -1    0.29    0.46
   4   3   1   -0.16    0.29
   4   3   1    0.19    0.25
   4   3   1   -0.27    0.43
  -5  -3  -1   10.71    1.06
  -5  -3  -1    9.00    1.36
  -5  -3  -1   11.01    1.47
  -5  -3  -1   11.29    1.03
  -5  -3  -1   11.54    0.99
   5   3   1   11.39    1.02
   5   3   1   10.89    1.25
   5   3   1   10.72    1.03
  -6  -3  -1   33.99    2.35
  -6  -3  -1   33.47    2.30
  -6  -3  -1   36.86    2.77
  -6  -3  -1   36.57    2.34
   6   3   1   36.04    2.33
   6   3   1   38.74    2.50
   6   3   1   36.78    2.37
  -7  -3  -1    4.56    0.56
  -7  -3  -1    4.89    1.21
  -7  -3  -1    4.05    0.84
  -7  -3  -1    4.77    0.86
  -7  -3  -1    5.11    0.92
   7   3   1    6.67    1.10
   7   3   1    5.97    0.97
   7   3   1    5.18    1.36
  -8  -3  -1   -0.13    0.64
  -8  -3  -1    0.76    0.68
  -8  -3  -1    0.16    0.32
  -8  -3  -1    0.14    0.71
  -8  -3  -1    0.12    1.04
   8   3   1   -0.12    0.52
   8   3   1    0.12    0.39
   8   3   1    0.02    1.00
   8   3   1   -0.31    0.67
   8   3   1    0.60    0.52
  -9  -3  -1    1.51    0.45
  -9  -3  -1    1.46    0.93
  -9  -3  -1    0.56    0.90
  -9  -3  -1    3.31    1.69
   9   3   1    1.72    1.02
   9   3   1    2.35    1.78
   9   3   1    2.46    0.73
 -10  -3  -1    0.35    1.10
 -10  -3  -1    3.48    1.49
 -10  -3  -1   -0.85    1.74
  10   3   1    0.29    0.82
  10   3   1    1.12    1.17
  10   3   1    1.85    1.55
 -11  -3  -1    0.89    1.36
 -11  -3  -1   -3.66    2.40
  11   3   1    1.14    1.92
 -12  -3  -1    0.23    1.87
 -12  -3  -1    0.24    3.61
  12   3   1    3.71    2.32
  10  -4  -1    2.28    2.28
 -10   4   1    6.25    4.60
 -10   4   1    3.59    1.46
   9  -4  -1    3.46    2.17
  -9   4   1    3.59    1.16
  -9   4   1    5.77    3.23
  -9   4   1   -1.29    3.33
  -9   4   1    3.66    1.33
   8  -4  -1    7.92    2.53
  -8   4   1   10.72    1.77
  -8   4   1    5.00    2.98
  -8   4   1   10.93    1.46
  -8   4   1    9.85    1.23
  -8   4   1   11.32    1.88
   7  -4  -1    0.80    1.69
   7  -4  -1    3.34    1.01
  -7   4   1    3.55    0.75
  -7   4   1    4.31    1.17
  -7   4   1    2.92    0.79
  -7   4   1    3.56    0.73
  -7   4   1    3.57    1.07
  -7   4   1    4.57    2.28
   6  -4  -1   11.33    1.57
   6  -4  -1    9.79    2.20
  -6   4   1   17.20    1.99
  -6   4   1   13.90    1.36
  -6   4   1   12.38    2.33
  -6   4   1   12.61    1.69
  -6   4   1   13.27    1.16
  -6   4   1   14.42    1.62
  -6   4   1   16.43    1.36
   5  -4  -1    5.58    1.51
   5  -4  -1    3.19    0.77
  -5   4   1    3.68    0.64
  -5   4   1    5.49    0.64
  -5   4   1    4.42    0.84
  -5   4   1    4.36    1.40
  -5   4   1    3.16    0.94
   4  -4  -1   43.90    3.44
   4  -4  -1   47.73    2.99
  -4   4   1   49.15    3.68
  -4   4   1   47.74    2.71
  -4   4   1   48.72    3.07
  -4   4   1   45.09    2.51
   3  -4  -1   19.38    1.36
   3  -4  -1   20.31    1.64
   3  -4  -1   25.75    2.11
  -3   4   1   21.77    1.18
  -3   4   1   19.63    1.36
  -3   4   1   21.32    2.27
  -3   4   1   23.07    1.73
   2  -4  -1   55.25    3.46
   2  -4  -1   64.98    3.26
  -2   4   1   56.43    3.89
  -2   4   1   60.81    3.53
   1  -4  -1   21.22    1.59
   1  -4  -1   23.36    2.01
   1  -4  -1   22.31    1.38
  -1   4   1   24.14    1.67
  -1   4   1   24.88    2.06
   0  -4  -1  116.30    6.03
   0  -4  -1  124.80    6.77
   0  -4  -1  134.55    6.44
   0   4   1  119.10    6.77
   0   4   1  124.69    6.05
   0   4   1  105.83    6.56
  -1  -4  -1    0.12    0.26
  -1  -4  -1   -0.20    0.45
  -1  -4  -1    0.24    0.16
   1   4   1    0.17    0.09
   1   4   1    0.11    0.15
   1   4   1    0.06    0.42
   1   4   1   -0.20    0.41
   1   4   1    0.13    0.25
  -2  -4  -1    2.20    0.68
  -2  -4  -1    2.52    0.38
  -2  -4  -1    1.42    0.37
  -2  -4  -1    2.30    0.25
   2   4   1    1.64    0.42
   2   4   1    1.28    0.67
   2   4   1    2.72    0.41
   2   4   1    1.86    0.60
  -3  -4  -1   11.17    0.75
  -3  -4  -1   11.27    1.28
  -3  -4  -1    9.96    0.82
  -3  -4  -1    9.30    1.28
   3   4   1   10.28    1.00
   3   4   1   10.61    0.85
   3   4   1    9.23    1.30
   3   4   1    8.85    1.22
  -4  -4  -1   99.64    5.25
  -4  -4  -1  101.18    5.84
  -4  -4  -1   99.08    5.80
  -4  -4  -1   91.40    5.30
   4   4   1   92.84    5.75
   4   4   1  105.86    5.37
   4   4   1  109.24    5.50
  -5  -4  -1   31.78    1.95
  -5  -4  -1   30.63    2.52
  -5  -4  -1   32.10    2.50
  -5  -4  -1   30.66    1.99
   5   4   1   26.83    2.01
   5   4   1   30.51    2.42
   5   4   1   30.97    2.01
  -6  -4  -1   20.18    1.66
  -6  -4  -1   22.78    2.36
  -6  -4  -1   21.53    1.63
  -6  -4  -1   22.34    2.31
   6   4   1   22.52    1.67
   6   4   1   20.53    2.06
   6   4   1   24.26    1.77
  -7  -4  -1   91.65    6.00
  -7  -4  -1   96.24    5.96
  -7  -4  -1   93.12    5.29
  -7  -4  -1   92.58    5.34
   7   4   1   92.06    5.34
   7   4   1   98.95    5.34
   7   4   1   93.30    5.61
  -8  -4  -1    2.72    0.80
  -8  -4  -1    4.05    1.66
  -8  -4  -1    3.32    0.45
  -8  -4  -1    4.03    1.56
  -8  -4  -1    3.06    0.88
   8   4   1    2.93    0.87
   8   4   1    3.99    1.11
   8   4   1    1.07    0.80
  -9  -4  -1   30.14    2.43
  -9  -4  -1   23.81    3.58
  -9  -4  -1   29.92    3.50
   9   4   1   21.97    2.25
   9   4   1   24.21    2.14
   9   4   1   22.44    2.08
   9   4   1   24.16    2.97
 -10  -4  -1   -1.19    2.16
 -10  -4  -1    0.81    1.09
 -10  -4  -1    3.09    1.30
 -10  -4  -1    1.33    2.04
  10   4   1    2.02    1.93
  10   4   1    2.74    1.36
  10   4   1    1.76    0.94
 -11  -4  -1   49.16    6.04
 -11  -4  -1   44.46    3.75
 -11  -4  -1   39.47    5.60
  11   4   1   46.58    4.83
  11   4   1   45.48    3.21
  11   4   1   38.13    4.42
 -12  -4  -1   13.63    2.33
 -12  -4  -1   12.62    4.01
  12   4   1    9.19    2.97
  13   4   1    6.35    2.70
   9  -5  -1    8.07    2.91
  -9   5   1    6.62    1.72
  -9   5   1    6.09    4.08
  -9   5   1    9.45    1.29
   8  -5  -1    9.33    2.94
  -8   5   1    8.95    1.83
  -8   5   1   11.93    2.16
  -8   5   1    6.53    3.30
  -8   5   1    9.36    1.13
  -8   5   1    8.84    1.55
  -8   5   1    7.64    1.07
  -8   5   1    7.79    1.04
   7  -5  -1   -0.79    1.20
   7  -5  -1    1.14    1.69
  -7   5   1   -0.02    0.54
  -7   5   1   -1.02    0.75
  -7   5   1    0.80    1.15
  -7   5   1   -0.48    0.72
  -7   5   1    1.02    2.06
  -7   5   1   -1.65    1.11
   6  -5  -1    2.74    1.70
   6  -5  -1    2.76    1.06
  -6   5   1    4.31    0.91
  -6   5   1    4.30    0.61
  -6   5   1    4.53    1.21
  -6   5   1    4.40    1.12
  -6   5   1    3.42    1.42
  -6   5   1    7.66    1.99
  -6   5   1    5.50    0.94
   5  -5  -1    5.10    1.77
   5  -5  -1    6.88    1.18
  -5   5   1    5.73    0.85
  -5   5   1    6.08    1.29
  -5   5   1    5.61    0.65
  -5   5   1    6.25    1.04
  -5   5   1    4.78    0.90
  -5   5   1    4.93    1.80
   4  -5  -1    9.93    1.36
   4  -5  -1    5.09    1.37
  -4   5   1    9.12    1.36
  -4   5   1    7.53    0.58
  -4   5   1    9.28    1.98
  -4   5   1    8.26    1.10
  -4   5   1    9.02    0.94
   3  -5  -1    1.88    0.72
   3  -5  -1    4.24    1.24
   3  -5  -1    2.96    0.55
  -3   5   1    3.20    0.94
  -3   5   1    2.19    1.06
   2  -5  -1   83.38    4.72
   2  -5  -1   72.41    4.36
  -2   5   1   88.81    5.35
  -2   5   1   85.76    4.78
   1  -5  -1   22.09    1.37
   1  -5  -1   18.79    1.97
   1  -5  -1   19.74    1.59
  -1   5   1   20.58    2.07
  -1   5   1   18.62    1.64
   0  -5  -1    0.80    0.45
   0  -5  -1    0.89    0.27
   0  -5  -1    1.20    0.84
   0   5   1    1.48    0.83
   0   5   1    0.88    0.16
  -1  -5  -1    0.75    0.58
  -1  -5  -1   -0.29    0.31
  -1  -5  -1    0.18    0.21
   1   5   1    0.66    0.60
   1   5   1    0.38    0.18
   1   5   1    0.63    0.61
   1   5   1    0.60    0.42
  -2  -5  -1   14.29    1.64
  -2  -5  -1   13.58    1.17
  -2  -5  -1   15.00    1.00
   2   5   1   14.24    1.60
   2   5   1   14.61    1.02
   2   5   1   14.26    1.30
   2   5   1   17.28    1.74
  -3  -5  -1   60.94    3.52
  -3  -5  -1   61.97    4.03
  -3  -5  -1   64.38    4.07
  -3  -5  -1   64.48    3.47
  -3  -5  -1   62.92    3.30
   3   5   1   61.10    3.46
   3   5   1   58.31    4.02
   3   5   1   69.26    3.73
  -4  -5  -1    1.33    0.76
  -4  -5  -1    0.92    0.30
  -4  -5  -1    1.31    0.38
  -4  -5  -1    1.04    0.37
  -4  -5  -1    0.38    0.71
   4   5   1    1.41    0.81
   4   5   1    2.17    0.55
   4   5   1    0.87    0.40
   4   5   1    0.98    0.79
  -5  -5  -1    2.94    0.93
  -5  -5  -1    2.72    0.56
  -5  -5  -1    2.49    0.48
  -5  -5  -1    1.78    0.44
  -5  -5  -1    3.21    1.13
   5   5   1    1.51    0.93
   5   5   1    1.72    0.64
   5   5   1    2.10    0.53
  -6  -5  -1    8.27    1.08
  -6  -5  -1   11.97    1.97
  -6  -5  -1    7.33    0.77
  -6  -5  -1    9.74    1.64
  -6  -5  -1    8.67    0.99
   6   5   1    6.06    1.01
   6   5   1   10.88    1.14
   6   5   1    6.74    1.38
  -7  -5  -1   14.11    2.86
  -7  -5  -1   15.61    1.55
  -7  -5  -1   15.49    1.39
  -7  -5  -1   15.61    1.05
  -7  -5  -1   16.56    2.85
   7   5   1   14.43    1.60
   7   5   1   14.02    1.52
   7   5   1   13.26    1.91
  -8  -5  -1   -2.57    1.29
  -8  -5  -1   -0.30    0.69
  -8  -5  -1    1.32    0.66
  -8  -5  -1   -0.12    0.20
  -8  -5  -1    1.45    1.33
   8   5   1   -0.71    0.95
   8   5   1    0.34    0.81
   8   5   1   -0.05    0.71
  -9  -5  -1    0.41    1.02
  -9  -5  -1    0.07    0.98
  -9  -5  -1   -0.58    1.65
  -9  -5  -1    0.56    1.98
   9   5   1   -0.01    1.08
   9   5   1    2.31    1.18
   9   5   1    1.31    0.93
 -10  -5  -1    5.11    2.52
 -10  -5  -1    4.16    1.39
 -10  -5  -1    5.95    2.62
  10   5   1    4.60    1.75
  10   5   1    8.09    1.43
  10   5   1    4.27    1.37
  10   5   1    7.93    1.42
 -11  -5  -1    2.96    1.74
 -11  -5  -1    4.59    1.66
 -11  -5  -1    1.41    3.05
 -11  -5  -1    4.24    3.26
  11   5   1    3.39    0.85
  11   5   1    3.65    0.92
  11   5   1    4.24    2.42
 -12  -5  -1    5.18    1.99
  12   5   1    0.66    2.32
 -13  -5  -1    1.57    2.44
  13   5   1   -3.63    2.19
   9  -6  -1    0.99    2.32
  -9   6   1    2.33    4.45
   8  -6  -1    0.27    2.05
  -8   6   1   -0.75    2.08
  -8   6   1    0.65    1.30
  -8   6   1    2.06    1.13
  -8   6   1    0.10    3.61
  -8   6   1    3.36    2.13
  -8   6   1   -0.11    0.65
   7  -6  -1    2.00    1.74
   7  -6  -1    1.55    1.36
  -7   6   1    1.58    1.58
  -7   6   1    3.62    1.36
  -7   6   1    0.85    1.09
  -7   6   1    0.29    2.80
  -7   6   1    1.66    1.02
  -7   6   1    3.42    1.06
  -7   6   1    1.57    0.52
   6  -6  -1   19.37    3.07
   6  -6  -1   21.18    2.35
  -6   6   1   21.24    2.32
  -6   6   1   20.13    3.49
  -6   6   1   15.50    2.24
  -6   6   1   17.70    1.74
   5  -6  -1    9.86    2.37
   5  -6  -1   15.62    1.92
  -5   6   1   12.56    1.58
  -5   6   1    9.76    2.35
  -5   6   1   13.92    2.04
   4  -6  -1   24.23    3.20
   4  -6  -1   32.18    2.58
  -4   6   1   34.80    2.80
  -4   6   1   29.39    2.22
  -4   6   1   32.01    3.46
   3  -6  -1   70.84    4.30
   3  -6  -1   73.00    3.94
  -3   6   1   66.39    3.88
  -3   6   1   67.44    5.04
  -3   6   1   68.86    4.42
   2  -6  -1  105.58    5.94
   2  -6  -1  101.44    5.57
   2  -6  -1   91.41    7.41
  -2   6   1  106.79    5.47
  -2   6   1  105.85    6.61
  -2   6   1  109.73    6.30
   1  -6  -1   18.20    1.30
   1  -6  -1   16.71    1.54
   1  -6  -1   13.51    1.99
  -1   6   1   13.97    2.18
  -1   6   1   16.19    1.06
  -1   6   1   17.16    1.64
   0  -6  -1   -0.02    0.31
   0  -6  -1    0.85    0.89
   0  -6  -1   -0.01    0.45
   0   6   1    0.06    0.15
   0   6   1   -0.60    0.85
   0   6   1    0.06    0.13
  -1  -6  -1   50.03    2.61
  -1  -6  -1   46.04    3.54
  -1  -6  -1   48.28    3.03
   1   6   1   46.54    3.42
   1   6   1   50.81    3.63
   1   6   1   48.65    2.62
  -2  -6  -1   11.63    1.19
  -2  -6  -1   15.43    1.02
  -2  -6  -1   14.80    1.78
   2   6   1   13.98    1.95
   2   6   1   14.31    1.02
   2   6   1   13.52    1.87
   2   6   1   13.05    1.33
  -3  -6  -1   -0.08    0.27
  -3  -6  -1   -0.09    0.16
  -3  -6  -1    0.15    0.37
  -3  -6  -1    0.10    0.77
   3   6   1   -0.62    0.47
   3   6   1    0.84    0.36
   3   6   1    0.24    0.75
   3   6   1   -0.78    0.72
  -4  -6  -1  183.25    9.73
  -4  -6  -1  145.12    8.87
  -4  -6  -1  178.57    8.73
  -4  -6  -1  176.62    8.94
  -4  -6  -1  169.59    9.65
   4   6   1  162.87    9.66
   4   6   1  171.38    9.69
   4   6   1  182.43    9.26
   4   6   1  176.18    8.96
  -5  -6  -1   76.75    4.34
  -5  -6  -1   73.15    5.04
  -5  -6  -1   81.13    4.23
  -5  -6  -1   75.82    4.14
  -5  -6  -1   79.08    5.12
   5   6   1   74.17    5.08
   5   6   1   71.93    4.54
   5   6   1   79.27    4.37
   5   6   1   75.43    5.12
  -6  -6  -1   34.62    2.36
  -6  -6  -1   35.43    2.18
  -6  -6  -1   35.08    3.14
  -6  -6  -1   34.54    2.08
  -6  -6  -1   35.00    3.31
   6   6   1   31.64    2.50
   6   6   1   31.75    3.12
   6   6   1   33.39    2.61
  -7  -6  -1   11.34    1.32
  -7  -6  -1   13.13    2.28
  -7  -6  -1   10.91    0.99
  -7  -6  -1   13.98    1.44
  -7  -6  -1   10.84    2.03
   7   6   1   10.76    1.46
   7   6   1   12.29    1.58
   7   6   1   10.74    1.91
  -8  -6  -1   11.80    1.53
  -8  -6  -1   13.86    2.43
  -8  -6  -1   11.77    1.60
  -8  -6  -1   12.07    0.86
  -8  -6  -1    8.22    2.15
   8   6   1   10.74    1.65
   8   6   1    9.20    1.92
  -9  -6  -1    0.21    0.96
  -9  -6  -1    2.27    2.06
  -9  -6  -1    2.17    0.94
  -9  -6  -1   -1.68    1.83
   9   6   1    1.10    1.01
   9   6   1    3.03    1.58
   9   6   1   -0.15    0.99
 -10  -6  -1    5.84    1.57
 -10  -6  -1    6.24    2.55
 -10  -6  -1    7.01    1.57
 -10  -6  -1    6.53    2.72
  10   6   1    7.62    1.91
  10   6   1    8.84    1.65
  10   6   1    5.53    1.53
 -11  -6  -1   -1.13    1.68
 -11  -6  -1    6.07    3.07
 -11  -6  -1    5.06    3.56
 -11  -6  -1    1.85    1.43
  11   6   1    2.32    1.67
  11   6   1   -1.00    1.82
  11   6   1   -1.56    1.44
 -12  -6  -1    5.03    2.16
  12   6   1   -0.58    2.26
  -8   7   1    8.17    4.87
   7  -7  -1    1.63    2.49
   7  -7  -1   -0.14    1.94
  -7   7   1    0.72    1.48
  -7   7   1    3.15    1.84
  -7   7   1    0.63    3.06
  -7   7   1    4.50    2.00
  -7   7   1    3.53    1.49
   6  -7  -1    2.73    1.50
   6  -7  -1    1.96    1.85
  -6   7   1    3.10    1.43
  -6   7   1    2.23    1.57
  -6   7   1    5.19    2.94
   5  -7  -1   10.73    1.72
  -5   7   1   17.39    3.16
  -5   7   1   11.56    1.75
   4  -7  -1    2.24    1.17
  -4   7   1    2.46    0.74
  -4   7   1    5.30    2.52
   3  -7  -1    0.87    0.64
   3  -7  -1    0.91    1.00
  -3   7   1    0.23    0.52
  -3   7   1   -1.22    1.00
  -3   7   1    2.00    1.52
   2  -7  -1   45.91    3.36
   2  -7  -1   46.51    4.26
   2  -7  -1   50.57    2.98
  -2   7   1   48.23    4.34
  -2   7   1   49.80    3.44
   1  -7  -1   15.68    2.35
   1  -7  -1   15.00    1.64
   1  -7  -1   17.16    1.39
  -1   7   1   15.88    1.04
  -1   7   1   13.39    2.27
   0  -7  -1    3.02    0.61
   0  -7  -1    2.86    0.84
   0  -7  -1    3.72    1.39
   0   7   1    2.43    0.34
   0   7   1    3.57    1.41
   0   7   1    1.98    1.03
  -1  -7  -1   23.98    2.09
  -1  -7  -1   28.94    2.87
   1   7   1   32.79    2.28
   1   7   1   27.10    1.59
   1   7   1   28.43    2.67
   1   7   1   24.48    2.86
  -2  -7  -1   61.38    3.56
  -2  -7  -1   58.74    4.25
  -2  -7  -1   53.78    3.15
   2   7   1   57.35    3.18
   2   7   1   54.86    4.26
   2   7   1   54.69    4.14
   2   7   1   63.72    3.73
  -3  -7  -1   20.44    2.44
  -3  -7  -1   21.19    1.43
  -3  -7  -1   17.50    1.62
   3   7   1   20.22    1.89
   3   7   1   18.22    2.36
   3   7   1   20.91    1.44
   3   7   1   17.38    2.37
  -4  -7  -1   -0.15    0.99
  -4  -7  -1   -0.29    0.23
  -4  -7  -1    0.37    0.49
  -4  -7  -1    0.77    0.42
   4   7   1    1.11    1.08
   4   7   1    0.29    0.42
   4   7   1    0.56    0.96
   4   7   1    0.15    0.70
  -5  -7  -1    2.85    0.64
  -5  -7  -1    1.61    1.13
  -5  -7  -1    3.66    0.72
  -5  -7  -1    3.85    0.59
  -5  -7  -1    2.50    1.35
   5   7   1    3.02    1.02
   5   7   1    2.92    1.36
   5   7   1    4.02    1.50
   5   7   1    2.37    0.66
  -6  -7  -1    5.18    0.83
  -6  -7  -1    4.19    1.64
  -6  -7  -1    5.61    1.66
  -6  -7  -1    5.19    0.80
  -6  -7  -1    3.85    0.81
   6   7   1    3.52    1.42
   6   7   1    4.05    0.99
   6   7   1    4.32    0.86
  -7  -7  -1   25.27    1.88
  -7  -7  -1   25.64    2.12
  -7  -7  -1   20.99    3.15
  -7  -7  -1   25.35    3.26
  -7  -7  -1   23.37    1.66
   7   7   1   28.21    2.41
   7   7   1   23.32    2.11
   7   7   1   25.58    3.03
  -8  -7  -1   27.40    3.65
  -8  -7  -1   29.05    2.19
  -8  -7  -1   23.79    1.62
  -8  -7  -1   24.39    3.48
  -8  -7  -1   25.97    2.32
   8   7   1   24.64    3.29
   8   7   1   26.68    2.53
   8   7   1   24.49    2.38
  -9  -7  -1   -2.84    2.01
  -9  -7  -1    1.20    2.06
  -9  -7  -1    1.10    1.00
  -9  -7  -1    0.42    0.97
   9   7   1   -1.75    1.06
   9   7   1    1.40    1.78
   9   7   1    1.92    1.25
 -10  -7  -1    1.19    1.24
 -10  -7  -1    5.42    2.89
 -10  -7  -1    3.99    2.75
 -10  -7  -1    0.35    1.28
  10   7   1   -0.25    1.38
  10   7   1    2.94    2.05
  10   7   1    2.45    1.42
 -11  -7  -1   10.13    1.95
  11   7   1    8.90    2.05
  11   7   1   10.16    2.75
 -12  -7  -1    5.27    2.30
  12   7   1    4.77    2.20
  12   7   1    1.39    2.29
  -7   8   1   -0.55    4.82
  -7   8   1   -1.46    2.26
   6  -8  -1    5.33    1.94
  -6   8   1    6.16    1.74
  -6   8   1   10.10    3.86
  -6   8   1   12.29    2.00
  -6   8   1   10.79    2.28
   5  -8  -1   -0.52    1.53
  -5   8   1    0.29    1.08
  -5   8   1    3.50    2.78
  -5   8   1   -1.12    1.41
   4  -8  -1    9.69    1.82
  -4   8   1   12.61    2.76
  -4   8   1    8.73    1.16
  -4   8   1    7.31    1.52
   3  -8  -1   -0.27    0.73
   3  -8  -1    0.46    1.01
  -3   8   1    1.01    0.63
  -3   8   1   -2.78    1.81
   2  -8  -1    1.49    0.69
  -2   8   1    0.88    0.44
  -2   8   1   -1.27    1.76
   1  -8  -1    8.33    1.46
   1  -8  -1    7.11    1.19
   1  -8  -1    7.65    1.90
  -1   8   1    7.66    1.73
  -1   8   1   10.29    2.37
  -1   8   1    7.95    0.62
   0  -8  -1    6.47    1.26
   0  -8  -1    4.52    0.88
   0  -8  -1    6.80    1.88
   0   8   1    5.91    1.93
   0   8   1    5.68    1.73
  -1  -8  -1  132.73    7.73
  -1  -8  -1  148.52    8.86
  -1  -8  -1  150.93    8.05
   1   8   1  149.02    8.10
   1   8   1  144.00    8.86
   1   8   1  141.07    7.37
   1   8   1  148.56    8.69
  -2  -8  -1  119.46    7.77
  -2  -8  -1  125.38    6.94
  -2  -8  -1  112.56    6.41
   2   8   1  123.44    7.09
   2   8   1  125.59    6.46
   2   8   1  133.33    7.86
   2   8   1  129.28    7.76
  -3  -8  -1   13.00    2.18
  -3  -8  -1   14.21    1.56
  -3  -8  -1   12.50    1.20
   3   8   1   14.14    1.25
   3   8   1   17.11    1.84
   3   8   1   14.18    2.32
   3   8   1   21.03    2.74
  -4  -8  -1   31.92    2.29
  -4  -8  -1   32.49    3.32
  -4  -8  -1   27.79    2.02
   4   8   1   30.53    2.11
   4   8   1   27.82    3.26
   4   8   1   29.75    3.24
   4   8   1   31.37    2.46
  -5  -8  -1   20.88    2.84
  -5  -8  -1   20.09    1.32
  -5  -8  -1   21.26    1.76
  -5  -8  -1   21.26    1.73
   5   8   1   21.01    3.01
   5   8   1   17.50    2.05
   5   8   1   23.22    3.01
   5   8   1   19.19    1.71
  -6  -8  -1   40.03    2.76
  -6  -8  -1   35.30    3.97
  -6  -8  -1   39.08    2.65
  -6  -8  -1   47.21    2.49
  -6  -8  -1   39.00    4.06
   6   8   1   38.90    4.14
   6   8   1   40.86    3.17
   6   8   1   34.56    3.91
   6   8   1   41.73    2.82
  -7  -8  -1    7.45    1.27
  -7  -8  -1    8.27    1.20
  -7  -8  -1    6.84    2.10
  -7  -8  -1   10.09    2.25
  -7  -8  -1    7.62    1.13
   7   8   1   10.65    1.79
   7   8   1    9.73    1.50
   7   8   1    9.35    2.37
  -8  -8  -1    7.56    2.20
  -8  -8  -1    8.43    1.82
  -8  -8  -1    6.67    0.91
  -8  -8  -1    6.03    1.21
  -8  -8  -1   10.11    2.52
   8   8   1    4.50    1.32
   8   8   1    7.66    2.33
   8   8   1    5.52    1.50
  -9  -8  -1   14.81    3.28
  -9  -8  -1   21.29    2.13
  -9  -8  -1   19.21    2.40
  -9  -8  -1   16.19    3.68
  -9  -8  -1   19.66    1.33
   9   8   1   19.39    2.46
   9   8   1   20.65    3.37
   9   8   1   19.46    2.40
 -10  -8  -1    0.20    1.23
 -10  -8  -1   -0.58    1.30
 -10  -8  -1    0.45    2.78
  10   8   1   -2.19    2.27
  10   8   1   -0.90    1.56
 -11  -8  -1    2.24    1.78
 -11  -8  -1    1.32    1.68
  11   8   1    2.94    2.84
  11   8   1   -1.18    2.08
 -12  -8  -1    6.92    2.59
  12   8   1    6.52    3.11
  12   8   1    8.85    2.93
   6  -9  -1    2.90    2.46
   5  -9  -1    7.21    2.29
  -5   9   1    4.59    1.43
  -5   9   1    0.78    3.71
  -5   9   1    5.01    2.06
   4  -9  -1    0.66    1.78
  -4   9   1   -2.75    1.66
  -4   9   1   -0.57    3.05
  -4   9   1    0.85    0.91
   3  -9  -1    0.44    1.22
   3  -9  -1    0.04    1.00
  -3   9   1    1.21    2.03
  -3   9   1    1.17    0.66
  -3   9   1    2.78    2.88
  -3   9   1   -2.61    1.33
   2  -9  -1    1.95    0.89
   2  -9  -1    2.50    1.31
  -2   9   1    2.88    1.28
  -2   9   1    2.79    0.54
  -2   9   1    4.05    1.96
  -2   9   1    2.26    2.41
   1  -9  -1    0.89    0.80
   1  -9  -1    1.34    1.95
   1  -9  -1    0.01    1.12
  -1   9   1    0.45    1.69
  -1   9   1    1.00    2.00
  -1   9   1    0.20    1.12
   0  -9  -1    2.71    0.82
   0  -9  -1    2.67    2.00
   0   9   1   -0.07    1.61
   0   9   1    2.33    1.20
  -1  -9  -1   12.38    2.44
  -1  -9  -1   10.10    1.64
  -1  -9  -1    9.86    1.47
   1   9   1    9.46    2.10
   1   9   1   11.59    1.70
   1   9   1    9.81    2.33
   1   9   1   12.35    0.91
  -2  -9  -1   35.24    2.81
  -2  -9  -1   40.52    4.25
   2   9   1   36.15    3.09
   2   9   1   34.26    3.80
   2   9   1   36.20    2.20
   2   9   1   36.37    4.13
  -3  -9  -1    0.83    0.55
  -3  -9  -1   -0.88    0.77
  -3  -9  -1    1.76    1.54
   3   9   1    0.06    1.36
   3   9   1    1.37    1.10
   3   9   1   -0.63    0.48
   3   9   1    0.01    1.37
  -4  -9  -1    0.04    0.76
  -4  -9  -1    0.27    0.59
  -4  -9  -1   -0.57    1.56
   4   9   1    1.35    1.73
   4   9   1    0.34    0.91
   4   9   1   -1.13    1.44
   4   9   1   -0.49    0.62
  -5  -9  -1    2.52    0.88
  -5  -9  -1    4.38    1.86
  -5  -9  -1    3.06    0.74
   5   9   1    1.33    1.71
   5   9   1    2.00    1.20
   5   9   1    1.40    0.77
   5   9   1    4.69    1.93
  -6  -9  -1    2.28    2.00
  -6  -9  -1    4.59    1.02
  -6  -9  -1    3.54    0.97
  -6  -9  -1    5.62    0.80
   6   9   1    4.67    1.57
   6   9   1    5.61    2.45
   6   9   1    7.31    1.21
  -7  -9  -1   13.57    1.78
  -7  -9  -1   10.73    1.26
  -7  -9  -1   10.69    1.45
  -7  -9  -1    9.59    2.62
   7   9   1   10.58    2.88
   7   9   1   14.16    2.28
   7   9   1   10.69    1.49
  -8  -9  -1   24.03    3.90
  -8  -9  -1   15.67    3.38
  -8  -9  -1   20.17    1.83
  -8  -9  -1   16.49    1.72
  -8  -9  -1   16.11    2.14
   8   9   1   16.78    2.41
   8   9   1   26.07    4.13
   8   9   1   20.20    2.60
  -9  -9  -1   -0.27    0.62
  -9  -9  -1   -5.88    2.72
  -9  -9  -1    2.97    2.99
  -9  -9  -1   -1.16    1.00
   9   9   1    0.86    2.46
   9   9   1    1.81    1.70
   9   9   1    1.76    1.42
 -10  -9  -1    1.97    1.35
 -10  -9  -1   -2.18    1.23
  10   9   1   -3.72    2.73
  10   9   1   -3.24    1.99
 -11  -9  -1    5.20    2.10
 -11  -9  -1   -0.10    1.80
  11   9   1    9.22    2.68
  11   9   1    5.30    3.50
 -12  -9  -1    7.15    3.29
  12   9   1   -4.25    3.77
   5 -10  -1   -1.25    2.71
   4 -10  -1   -0.46    2.03
  -4  10   1    4.29    2.36
  -4  10   1    0.61    3.68
   3 -10  -1   -3.05    1.59
   3 -10  -1    1.86    1.30
  -3  10   1   -0.81    1.89
  -3  10   1    0.80    3.13
  -3  10   1   -0.29    0.63
  -3  10   1    3.14    2.60
   2 -10  -1    6.15    1.38
   2 -10  -1    7.44    1.95
  -2  10   1    6.93    2.79
  -2  10   1    6.79    2.03
  -2  10   1    9.04    3.54
   1 -10  -1    9.98    1.93
   1 -10  -1    5.24    1.27
   1 -10  -1    9.40    3.30
  -1  10   1    6.67    2.02
  -1  10   1   10.07    2.65
  -1  10   1    7.98    2.99
   0 -10  -1    2.10    2.39
   0 -10  -1    1.51    1.27
   0 -10  -1    2.37    1.06
   0  10   1    2.62    2.21
   0  10   1    2.93    2.18
   0  10   1    0.78    1.41
  -1 -10  -1   20.17    2.10
  -1 -10  -1   18.30    2.28
   1  10   1   16.18    3.30
   1  10   1   17.96    2.47
   1  10   1   21.20    3.35
  -2 -10  -1   34.50    4.57
  -2 -10  -1   33.26    2.60
  -2 -10  -1   32.17    2.96
   2  10   1   30.24    2.02
   2  10   1   31.73    4.20
   2  10   1   31.41    3.18
  -3 -10  -1   10.40    1.73
  -3 -10  -1    8.16    1.15
  -3 -10  -1    6.10    2.77
   3  10   1   11.97    2.56
   3  10   1    9.38    2.57
   3  10   1    9.01    1.88
   3  10   1    7.79    1.00
  -4 -10  -1    1.72    0.70
  -4 -10  -1    1.00    2.14
  -4 -10  -1    1.41    1.08
   4  10   1   -0.36    2.08
   4  10   1   -0.03    0.70
   4  10   1    1.48    1.29
   4  10   1   -1.27    2.07
  -5 -10  -1    7.56    1.42
  -5 -10  -1    3.71    2.31
  -5 -10  -1    8.28    1.17
   5  10   1    9.70    2.75
   5  10   1    5.16    1.07
   5  10   1    1.49    2.48
   5  10   1    4.47    1.71
  -6 -10  -1    5.07    2.51
  -6 -10  -1    0.09    0.93
  -6 -10  -1    0.06    0.89
   6  10   1    1.24    2.22
   6  10   1   -0.63    1.58
   6  10   1    0.42    0.94
   6  10   1    0.48    2.45
  -7 -10  -1    3.56    1.06
  -7 -10  -1    1.26    2.50
  -7 -10  -1    1.36    1.20
  -7 -10  -1    2.98    0.68
   7  10   1    2.06    2.60
   7  10   1    0.95    1.61
   7  10   1    2.08    1.22
  -8 -10  -1    1.21    1.18
  -8 -10  -1    1.51    3.02
  -8 -10  -1    2.46    1.01
  -8 -10  -1   -0.07    0.81
   8  10   1    2.21    1.42
   8  10   1    0.25    2.52
   8  10   1   -2.52    1.72
  -9 -10  -1    8.95    1.22
  -9 -10  -1    7.87    1.43
  -9 -10  -1    7.56    1.80
   9  10   1   10.55    3.36
   9  10   1    7.80    3.09
   9  10   1    3.67    2.26
 -10 -10  -1   10.80    2.15
 -10 -10  -1   13.60    1.82
  10  10   1    9.95    3.91
 -11 -10  -1   12.45    2.62
  11  10   1   22.67    4.99
   3 -11  -1    1.88    2.39
   3 -11  -1    1.28    1.59
  -3  11   1    2.63    4.51
  -3  11   1    4.32    3.89
   2 -11  -1   -0.11    1.60
   2 -11  -1   -0.64    1.95
  -2  11   1    0.85    3.09
  -2  11   1   -3.06    3.82
   1 -11  -1    7.73    1.88
   1 -11  -1    6.49    1.56
  -1  11   1    5.38    3.07
  -1  11   1    9.82    3.28
  -1  11   1    7.98    3.95
   0 -11  -1    8.96    1.64
   0 -11  -1    5.29    1.69
   0  11   1    4.74    2.93
   0  11   1    9.96    2.36
   0  11   1    4.83    3.07
   1  11   1    4.78    2.51
   1  11   1    3.77    1.95
   1  11   1    4.17    2.64
  -2 -11  -1   -1.11    1.35
  -2 -11  -1   -3.94    2.79
   2  11   1    4.41    2.76
   2  11   1    1.71    2.46
  -3 -11  -1   -0.74    1.20
  -3 -11  -1    0.64    1.07
   3  11   1    0.92    2.44
   3  11   1    0.87    1.75
   3  11   1   -1.42    2.34
   3  11   1    0.50    0.74
  -4 -11  -1    0.11    1.19
  -4 -11  -1   -0.40    0.76
  -4 -11  -1    0.19    2.70
   4  11   1   -1.90    1.67
   4  11   1   -2.87    2.66
   4  11   1    2.90    2.40
   4  11   1   -1.60    0.96
  -5 -11  -1    0.64    0.92
  -5 -11  -1   -2.04    2.50
   5  11   1   -4.08    2.64
   5  11   1   -0.13    2.51
   5  11   1    0.29    1.84
   5  11   1   -0.12    0.98
  -6 -11  -1   -0.66    1.23
  -6 -11  -1    0.07    0.97
   6  11   1    0.21    1.17
   6  11   1   -1.37    2.03
   6  11   1    3.63    2.91
   6  11   1   -1.00    2.87
  -7 -11  -1    6.66    1.54
  -7 -11  -1    8.66    1.60
   7  11   1    9.36    3.74
   7  11   1    3.32    1.48
  -8 -11  -1    9.70    1.38
  -8 -11  -1    9.89    1.86
  -8 -11  -1   10.35    1.71
   8  11   1    9.51    3.76
   8  11   1   10.77    2.05
  -9 -11  -1   24.68    2.56
  -9 -11  -1   24.20    3.42
   9  11   1   28.38    4.92
 -10 -11  -1    1.95    1.89
  10  11   1   -2.29    3.96
   1 -12  -1   -2.21    2.19
   1 -12  -1    0.27    1.79
  -1  12   1    1.04    4.28
  -1  12   1    2.66    3.77
   0 -12  -1   -0.28    1.90
   0 -12  -1    2.53    1.78
   0  12   1    6.85    4.24
   0  12   1    0.78    3.42
  -1 -12  -1    2.43    1.89
  -1 -12  -1    6.57    1.92
   1  12   1    6.38    3.89
   1  12   1    2.47    3.40
  -2 -12  -1   12.68    2.11
  -2 -12  -1   12.70    2.36
   2  12   1   11.94    3.59
   2  12   1   15.72    4.26
  -3 -12  -1   12.28    2.14
  -3 -12  -1   12.65    2.13
   3  12   1   13.60    3.78
   3  12   1   13.04    3.68
  -4 -12  -1    0.21    1.61
  -4 -12  -1    1.10    1.35
   4  12   1    1.39    1.52
   4  12   1   -0.97    3.24
   4  12   1    1.64    3.37
  -5 -12  -1    8.02    1.52
  -5 -12  -1   10.28    2.05
   5  12   1    4.24    3.62
   5  12   1    8.77    4.00
   5  12   1   10.55    1.56
  -6 -12  -1    4.78    1.66
  -6 -12  -1    3.76    1.63
   6  12   1    2.20    3.72
   6  12   1   -0.33    3.67
   6  12   1    8.33    1.71
  -7 -12  -1   -1.04    1.57
  -7 -12  -1   -0.37    1.40
   7  12   1    0.95    1.79
   7  12   1   -1.69    3.74
  -8 -12  -1    3.01    1.78
  -8 -12  -1    0.44    1.64
   8  12   1   -3.09    3.75
  -9 -12  -1   -1.14    1.52
  -9 -12  -1   -1.32    1.88
   9  12   1    3.44    4.64
  -1 -13  -1    1.90    2.65
   1  13   1   -5.57    4.26
  -2 -13  -1   13.65    2.52
  -2 -13  -1   20.11    3.13
   2  13   1    9.37    4.84
   2  13   1    1.44    4.36
  -3 -13  -1    1.11    2.00
  -3 -13  -1    0.10    1.94
   3  13   1   12.37    4.74
   3  13   1   -2.36    4.33
  -4 -13  -1    3.76    2.04
  -4 -13  -1    1.93    1.88
   4  13   1   -4.94    4.02
   4  13   1   -3.73    4.79
  -5 -13  -1    0.13    1.99
  -5 -13  -1    2.70    2.01
   5  13   1    5.19    4.73
   5  13   1    8.26    4.56
  -6 -13  -1    3.89    1.96
  -6 -13  -1   -2.66    1.45
   6  13   1   -1.22    4.57
   6  13   1   -2.06    4.85
  -7 -13  -1    0.30    1.80
  -7 -13  -1    1.72    2.09
   7  13   1   -9.66    5.37
   7  13   1   -4.42    2.87
   6  12  -2    3.15    5.08
  -6 -12   2    3.05    2.20
   5  12  -2   15.19    5.32
   5  12  -2   13.30    5.44
   4  12  -2    1.44    5.01
   4  12  -2    2.36    4.45
  -4 -12   2    4.05    2.18
   3  12  -2    0.24    5.28
  -3 -12   2    1.32    2.21
   2  12  -2   14.31    5.09
   2  12  -2   -0.64    4.70
  -2 -12   2    4.92    2.27
   8  11  -2   14.06    4.94
  -8 -11   2   20.64    2.85
   7  11  -2    4.76    3.99
   6  11  -2    7.08    4.17
   6  11  -2   -0.78    1.71
  -6 -11   2    0.20    1.81
   5  11  -2   -0.07    3.30
   5  11  -2   -0.87    1.47
   5  11  -2    1.45    3.27
  -5 -11   2   -0.57    1.37
   4  11  -2    3.41    3.51
   4  11  -2    7.06    1.51
   4  11  -2    6.22    3.75
  -4 -11   2    5.07    1.79
   3  11  -2    8.45    1.49
   3  11  -2    5.09    3.66
   3  11  -2   11.89    3.98
  -3 -11   2    6.62    2.08
   2  11  -2   -2.95    3.56
   2  11  -2   -0.38    3.34
   2  11  -2    0.59    1.87
  -2 -11   2    1.45    1.47
   1  11  -2   16.53    4.36
   1  11  -2   17.05    4.58
  -1 -11   2   10.22    2.35
   0  11  -2    6.77    4.30
   0  11  -2   13.29    4.39
   0 -11   2   17.73    2.71
  -1  11  -2   11.14    4.93
  -1  11  -2    0.18    4.41
   1 -11   2    9.36    2.36
  10  10  -2   10.71    4.65
 -10 -10   2    3.35    2.15
   9  10  -2    7.83    6.60
  -9 -10   2   11.54    2.45
   8  10  -2    6.71    3.59
  -8 -10   2    9.29    1.96
   7  10  -2    5.18    1.70
   7  10  -2    3.61    3.27
  -7 -10   2    3.11    0.62
  -7 -10   2    1.35    1.53
   6  10  -2    8.39    1.65
   6  10  -2    6.58    3.18
  -6 -10   2    4.34    1.38
   5  10  -2    2.16    2.90
   5  10  -2    4.09    1.28
   5  10  -2   -0.32    2.77
  -5 -10   2    6.37    4.88
  -5 -10   2   -0.26    1.22
   4  10  -2    0.19    1.10
   4  10  -2   -3.29    2.60
   4  10  -2    1.38    3.11
  -4 -10   2   -4.20    2.63
  -4 -10   2    1.63    1.31
   3  10  -2    4.29    1.12
   3  10  -2    0.09    2.72
   3  10  -2    4.15    2.87
  -3 -10   2   -3.47    2.66
  -3 -10   2    2.00    1.37
  -3 -10   2    5.36    1.40
   2  10  -2   12.92    2.47
   2  10  -2   11.08    3.42
   2  10  -2    8.94    1.53
   2  10  -2    7.67    3.03
  -2 -10   2    6.47    3.42
  -2 -10   2    4.84    1.56
  -2 -10   2    9.78    1.82
   1  10  -2   14.23    2.47
   1  10  -2   17.22    3.77
   1  10  -2   15.45    3.51
   1  10  -2   13.25    1.67
  -1 -10   2   19.61    4.18
  -1 -10   2   16.78    2.44
  -1 -10   2   14.30    2.15
   0  10  -2   -0.11    0.77
   0  10  -2   -0.90    2.73
   0  10  -2    0.57    3.16
   0 -10   2    8.84    4.61
   0 -10   2    1.68    1.49
  -1  10  -2    3.21    0.66
  -1  10  -2    2.67    3.31
   1 -10   2    0.59    1.58
  -2  10  -2    4.39    3.85
  -2  10  -2   -1.50    3.18
   2 -10   2    6.58    1.88
  -3  10  -2    0.29    3.57
  -3  10  -2   -2.45    4.10
   3 -10   2    2.67    2.15
  11   9  -2   -3.41    4.37
 -11  -9   2    1.83    2.35
  10   9  -2   -1.51    3.69
  10   9  -2    2.56    2.66
 -10  -9   2   -0.40    1.74
 -10  -9   2    2.66    1.89
   9   9  -2   55.93    5.28
   9   9  -2   39.97    6.51
  -9  -9   2   60.25    4.38
  -9  -9   2   55.99    3.93
   8   9  -2   47.24    3.84
   8   9  -2   33.02    4.33
   8   9  -2   48.14    5.94
  -8  -9   2   43.09    3.09
  -8  -9   2   41.98    3.62
   7   9  -2   18.30    2.76
   7   9  -2   27.57    2.81
   7   9  -2   20.41    3.73
  -7  -9   2   19.10    3.80
  -7  -9   2   17.20    1.79
  -7  -9   2   22.30    2.43
  -7  -9   2   20.55    3.87
   6   9  -2    2.54    2.38
   6   9  -2   -0.64    1.51
   6   9  -2    2.98    1.24
  -6  -9   2   -4.90    2.23
  -6  -9   2    0.08    0.97
  -6  -9   2    0.03    0.47
  -6  -9   2   -1.51    2.56
   5   9  -2    8.74    3.08
   5   9  -2    9.70    2.78
   5   9  -2    7.06    1.68
   5   9  -2    8.07    1.35
  -5  -9   2   10.25    2.63
  -5  -9   2    6.86    1.29
   4   9  -2    9.46    2.71
   4   9  -2   12.68    2.93
   4   9  -2   12.08    1.55
  -4  -9   2   14.33    1.84
  -4  -9   2   18.79    3.04
  -4  -9   2   10.57    1.75
   3   9  -2    2.26    0.91
   3   9  -2    0.47    2.06
   3   9  -2    3.02    2.26
   3   9  -2    1.15    1.40
  -3  -9   2    2.21    1.00
  -3  -9   2    0.23    2.02
  -3  -9   2    1.56    1.09
   2   9  -2    0.08    2.17
   2   9  -2   -0.86    1.38
   2   9  -2    0.54    0.71
  -2  -9   2    0.34    1.91
  -2  -9   2    0.78    1.69
  -2  -9   2   -0.06    1.01
   1   9  -2   -1.23    0.66
   1   9  -2   -2.77    1.89
   1   9  -2   -0.61    1.29
   1   9  -2   -0.99    2.08
  -1  -9   2    0.78    1.05
  -1  -9   2    1.78    1.03
  -1  -9   2   -1.21    2.34
   0   9  -2   10.39    2.57
   0   9  -2   13.76    2.19
   0   9  -2   13.74    3.01
   0   9  -2   10.34    1.25
   0  -9   2   18.15    3.15
   0  -9   2   13.12    1.88
   0  -9   2   14.89    2.16
  -1   9  -2    1.40    2.48
  -1   9  -2   -1.08    0.56
  -1   9  -2    0.78    2.18
  -1   9  -2   -3.55    1.70
   1  -9   2   -0.11    1.07
   1  -9   2    1.23    2.74
  -2   9  -2   -2.14    2.66
  -2   9  -2   -1.33    2.15
  -2   9  -2    0.72    0.49
  -2   9  -2    1.68    0.57
   2  -9   2    0.47    1.36
   2  -9   2   -2.77    3.35
  -3   9  -2    2.41    2.49
  -3   9  -2    5.73    3.40
   3  -9   2    6.93    1.86
  -4   9  -2   18.30    3.66
  -4   9  -2   20.56    4.82
   4  -9   2   28.58    3.58
  11   8  -2   -0.24    3.71
  11   8  -2   -2.52    2.76
 -11  -8   2   -0.92    2.12
  10   8  -2   14.09    3.82
 -10  -8   2   10.84    2.10
 -10  -8   2   13.31    2.07
   9   8  -2    7.96    2.05
   9   8  -2    5.09    2.99
  -9  -8   2   11.27    1.63
  -9  -8   2   10.42    1.85
   8   8  -2    2.60    2.36
   8   8  -2    1.36    1.69
   8   8  -2    3.27    1.42
  -8  -8   2    5.45    2.65
  -8  -8   2    3.90    1.36
  -8  -8   2    1.04    1.05
  -8  -8   2    5.88    2.98
   7   8  -2    0.76    1.14
   7   8  -2    1.32    1.37
   7   8  -2    0.49    2.17
  -7  -8   2    0.50    0.70
  -7  -8   2    0.58    2.12
  -7  -8   2    0.54    2.14
  -7  -8   2   -0.84    0.98
   6   8  -2    1.64    1.19
   6   8  -2    1.05    0.98
   6   8  -2    1.31    2.02
  -6  -8   2    3.23    2.03
  -6  -8   2   -1.18    0.71
  -6  -8   2    0.44    0.53
  -6  -8   2   -1.50    1.94
   5   8  -2   24.92    5.46
   5   8  -2   30.62    2.42
  -5  -8   2   29.48    1.75
  -5  -8   2   29.14    2.32
  -5  -8   2   24.88    3.44
  -5  -8   2   28.35    3.73
   4   8  -2    2.63    2.00
   4   8  -2    2.82    0.87
   4   8  -2    3.23    2.21
   4   8  -2    3.29    1.33
  -4  -8   2    3.16    0.88
  -4  -8   2    4.23    0.88
  -4  -8   2    3.89    1.66
  -4  -8   2    1.69    1.57
   3   8  -2   -0.81    0.90
   3   8  -2    0.03    0.67
   3   8  -2    0.37    1.62
   3   8  -2    1.14    1.78
  -3  -8   2    1.62    1.51
  -3  -8   2    0.27    0.78
  -3  -8   2    1.06    0.76
   2   8  -2   40.24    4.05
   2   8  -2   43.79    4.26
   2   8  -2   34.35    2.96
   2   8  -2   39.31    2.52
  -2  -8   2   38.16    3.92
  -2  -8   2   40.11    2.95
  -2  -8   2   36.05    2.84
   1   8  -2   11.92    1.91
   1   8  -2    9.83    2.33
   1   8  -2    6.77    2.09
   1   8  -2    9.75    1.18
  -1  -8   2    9.30    2.50
  -1  -8   2    8.91    1.47
  -1  -8   2   10.29    1.65
   0   8  -2   11.96    1.25
   0   8  -2   11.79    1.84
   0   8  -2   17.94    3.09
   0   8  -2   16.13    2.67
   0  -8   2   17.78    1.88
   0  -8   2   15.70    2.83
  -1   8  -2   15.84    1.30
  -1   8  -2   13.26    2.40
  -1   8  -2   18.20    2.39
  -1   8  -2   17.46    3.02
   1  -8   2   19.92    2.32
   1  -8   2   13.55    1.94
   1  -8   2   18.10    2.92
  -2   8  -2    4.31    0.63
  -2   8  -2    3.31    2.37
  -2   8  -2    3.22    1.79
  -2   8  -2    1.93    1.49
   2  -8   2    1.62    2.58
  -3   8  -2   -1.06    0.44
  -3   8  -2   -0.21    0.49
  -3   8  -2    0.21    1.86
  -3   8  -2    3.35    2.10
  -3   8  -2   -0.12    2.46
   3  -8   2    2.77    1.36
  -4   8  -2    4.76    1.03
  -4   8  -2    1.34    1.94
  -4   8  -2    6.40    2.91
   4  -8   2    4.00    1.52
  -5   8  -2    3.58    3.59
  -5   8  -2   -3.35    2.20
  -5   8  -2    1.51    1.27
  -6   8  -2    1.52    4.35
  -6   8  -2    0.27    2.94
  12   7  -2    9.58    3.19
  12   7  -2    6.84    3.78
 -12  -7   2    7.58    4.24
  11   7  -2    7.06    3.54
  11   7  -2    6.98    2.12
 -11  -7   2   15.31    3.40
 -11  -7   2    4.29    2.10
  10   7  -2    2.34    1.71
  10   7  -2    4.31    2.81
 -10  -7   2    0.43    1.42
 -10  -7   2    0.26    1.53
   9   7  -2    2.95    1.51
   9   7  -2    5.82    2.46
   9   7  -2    9.28    1.59
  -9  -7   2    4.54    1.55
  -9  -7   2    3.94    2.91
  -9  -7   2    6.79    1.41
  -9  -7   2    9.27    3.06
   8   7  -2    3.80    1.46
   8   7  -2    0.43    2.01
   8   7  -2    1.86    1.19
  -8  -7   2    2.34    1.21
  -8  -7   2   -0.09    0.86
  -8  -7   2   -1.68    2.33
  -8  -7   2    1.51    2.24
   7   7  -2    7.11    1.34
   7   7  -2    1.31    2.96
   7   7  -2    8.19    1.44
  -7  -7   2   10.21    2.69
  -7  -7   2    5.95    1.38
  -7  -7   2    6.67    2.38
   6   7  -2   14.38    1.81
   6   7  -2   16.39    1.96
   6   7  -2   16.77    2.85
  -6  -7   2   13.71    2.70
  -6  -7   2   15.78    1.72
  -6  -7   2   17.17    2.91
   5   7  -2   20.30    3.16
   5   7  -2   22.26    1.95
  -5  -7   2   21.25    1.89
  -5  -7   2   24.05    3.10
  -5  -7   2   18.96    3.09
   4   7  -2   60.60    5.03
   4   7  -2   70.20    3.98
   4   7  -2   63.90    5.06
  -4  -7   2   67.76    4.94
  -4  -7   2   61.38    4.83
  -4  -7   2   68.05    3.87
  -4  -7   2   60.03    3.81
   3   7  -2   11.38    1.46
   3   7  -2   11.91    1.33
   3   7  -2   13.31    2.40
   3   7  -2   16.78    2.63
  -3  -7   2   12.05    1.49
  -3  -7   2   15.43    2.28
  -3  -7   2   13.76    2.31
   2   7  -2    1.74    0.60
   2   7  -2    2.15    1.39
   2   7  -2    3.60    0.94
   2   7  -2    2.04    1.51
  -2  -7   2    2.20    0.79
  -2  -7   2    0.27    1.23
  -2  -7   2    3.12    0.82
   1   7  -2    5.97    1.68
   1   7  -2    4.24    1.05
   1   7  -2    4.17    0.69
   1   7  -2    4.20    1.74
  -1  -7   2    3.04    0.87
  -1  -7   2    5.10    1.47
  -1  -7   2    4.90    1.10
   0   7  -2   15.58    1.23
   0   7  -2   18.06    2.43
   0   7  -2   16.71    2.69
   0   7  -2   14.37    1.77
   0  -7   2   14.03    1.62
   0  -7   2   16.20    2.81
   0  -7   2   17.39    1.81
  -1   7  -2    0.07    1.59
  -1   7  -2    0.23    0.93
  -1   7  -2    0.49    0.46
  -1   7  -2    0.35    1.27
   1  -7   2    0.39    0.80
   1  -7   2   -0.57    1.57
   1  -7   2    1.06    0.69
  -2   7  -2   -0.05    1.18
  -2   7  -2    1.33    0.49
  -2   7  -2    2.85    1.87
  -2   7  -2   -1.44    1.08
   2  -7   2    2.83    1.69
   2  -7   2    2.27    1.40
   2  -7   2    1.62    0.91
  -3   7  -2    6.62    2.36
  -3   7  -2    4.37    0.76
  -3   7  -2    6.12    1.55
  -3   7  -2    3.68    0.67
  -3   7  -2    3.00    0.63
  -3   7  -2    4.34    1.47
   3  -7   2    4.96    1.22
  -4   7  -2   23.18    3.22
  -4   7  -2   23.09    1.61
  -4   7  -2   23.60    1.58
  -4   7  -2   22.61    1.94
  -4   7  -2   24.00    3.04
   4  -7   2   21.20    3.16
  -5   7  -2    7.82    1.12
  -5   7  -2    9.25    1.46
  -5   7  -2    9.64    1.99
  -5   7  -2   10.22    1.09
  -5   7  -2    6.89    3.17
  -6   7  -2    2.70    2.00
  -6   7  -2    2.68    0.69
  -6   7  -2    5.67    2.36
  -6   7  -2    0.96    1.51
  -6   7  -2    6.75    3.41
  -7   7  -2    5.52    2.84
  -7   7  -2   14.41    4.58
  12   6  -2    5.90    3.00
  12   6  -2    1.55    2.53
 -12  -6   2    4.50    2.52
  11   6  -2   -0.34    2.50
  11   6  -2   -2.83    1.47
 -11  -6   2   -2.66    1.68
  10   6  -2    6.88    2.38
  10   6  -2    2.95    1.43
 -10  -6   2    2.15    1.40
 -10  -6   2    2.17    3.70
 -10  -6   2    5.05    1.67
   9   6  -2    4.62    4.21
   9   6  -2    5.97    1.56
   9   6  -2    6.74    1.46
  -9  -6   2   11.62    3.12
  -9  -6   2    8.92    1.67
  -9  -6   2   10.20    3.06
  -9  -6   2    8.86    1.54
   8   6  -2    5.52    2.08
   8   6  -2    4.20    1.20
   8   6  -2    6.65    1.40
  -8  -6   2    7.56    2.28
  -8  -6   2    4.43    1.24
  -8  -6   2    5.23    2.28
   7   6  -2    0.57    0.85
   7   6  -2   -1.01    1.56
   7   6  -2    0.52    0.98
  -7  -6   2    0.18    0.72
  -7  -6   2    2.02    1.65
  -7  -6   2   -0.35    1.75
   6   6  -2   37.85    2.64
   6   6  -2   35.18    2.86
   6   6  -2   31.26    3.51
  -6  -6   2   37.86    3.76
  -6  -6   2   35.75    2.58
  -6  -6   2   33.68    3.79
   5   6  -2   24.37    1.92
   5   6  -2   22.48    2.82
  -5  -6   2   23.26    1.90
  -5  -6   2   23.81    2.96
  -5  -6   2   24.47    2.88
   4   6  -2   10.94    1.24
   4   6  -2   14.06    1.25
   4   6  -2   12.82    2.17
   4   6  -2    7.38    1.64
  -4  -6   2   11.34    1.97
  -4  -6   2   12.43    1.24
  -4  -6   2    8.61    2.16
   3   6  -2    3.13    0.63
   3   6  -2    3.06    0.70
   3   6  -2    3.35    1.33
   3   6  -2    3.12    1.31
  -3  -6   2    2.46    0.63
  -3  -6   2    2.43    0.71
  -3  -6   2    2.89    1.19
  -3  -6   2    3.00    1.14
   2   6  -2    6.01    0.87
   2   6  -2    6.56    1.07
   2   6  -2    6.83    1.54
   2   6  -2    4.72    1.55
  -2  -6   2    7.02    1.46
  -2  -6   2    7.63    1.06
  -2  -6   2    7.50    1.04
  -2  -6   2    8.27    1.64
   1   6  -2   15.79    1.58
   1   6  -2   14.98    2.15
   1   6  -2   20.10    2.35
   1   6  -2   17.29    1.26
  -1  -6   2   17.30    2.21
  -1  -6   2   16.76    1.56
  -1  -6   2   16.47    1.53
   0   6  -2   19.83    1.40
   0   6  -2   19.23    2.53
   0   6  -2   18.63    2.25
   0   6  -2   21.32    1.88
   0  -6   2   20.08    1.82
   0  -6   2   21.76    1.74
   0  -6   2   20.27    2.45
  -1   6  -2   11.73    2.00
  -1   6  -2   12.16    1.05
  -1   6  -2   11.32    1.52
  -1   6  -2   15.35    2.21
   1  -6   2   11.75    1.40
   1  -6   2   13.86    1.48
  -2   6  -2   -0.29    0.78
  -2   6  -2    2.11    1.01
  -2   6  -2    1.37    0.45
  -2   6  -2   -1.08    1.17
  -2   6  -2    0.82    0.43
   2  -6   2    0.16    1.24
   2  -6   2    0.66    0.69
   2  -6   2    1.02    0.66
  -3   6  -2    1.36    1.40
  -3   6  -2    1.84    0.94
  -3   6  -2    2.33    1.11
  -3   6  -2    0.21    0.42
  -3   6  -2    0.27    0.47
   3  -6   2    1.15    0.77
  -4   6  -2    2.25    1.77
  -4   6  -2    1.97    1.08
  -4   6  -2    1.08    0.72
  -4   6  -2    1.47    1.22
  -4   6  -2    2.40    0.60
   4  -6   2    1.63    0.86
  -5   6  -2    3.15    1.64
  -5   6  -2    4.04    2.34
  -5   6  -2    8.49    1.13
  -5   6  -2    6.28    1.16
  -5   6  -2    4.71    1.39
  -5   6  -2    7.80    1.38
  -6   6  -2    0.40    2.46
  -6   6  -2    1.71    1.40
  -6   6  -2    4.07    1.62
  -6   6  -2    0.44    1.16
  -6   6  -2    0.36    0.70
  -6   6  -2   -2.30    1.75
   6  -6   2   -0.18    1.96
  -7   6  -2   -0.96    1.52
  -7   6  -2    0.19    0.84
  -7   6  -2    7.23    3.23
  -7   6  -2   -2.18    1.58
  -7   6  -2   -1.31    1.92
  -7   6  -2   -0.97    1.46
   7  -6   2   -0.50    2.18
  -8   6  -2   -1.19    2.70
  -8   6  -2    3.49    3.93
   8  -6   2    3.02    2.89
  12   5  -2    6.89    2.75
  12   5  -2   13.10    2.54
 -12  -5   2   12.92    2.62
  11   5  -2    2.86    2.15
  11   5  -2    2.94    1.23
  11   5  -2    0.83    1.96
 -11  -5   2    4.20    1.85
  10   5  -2   -2.22    1.09
  10   5  -2    0.51    1.73
  10   5  -2    1.11    1.42
 -10  -5   2    1.37    1.44
 -10  -5   2    2.69    1.29
 -10  -5   2    1.47    3.13
 -10  -5   2    3.21    2.66
   9   5  -2    6.63    1.20
   9   5  -2    4.06    1.30
   9   5  -2    4.93    1.92
  -9  -5   2    4.37    2.61
  -9  -5   2    6.97    1.40
  -9  -5   2    7.96    2.48
   8   5  -2    2.36    0.93
   8   5  -2    1.04    0.89
   8   5  -2    0.15    1.51
  -8  -5   2    5.47    1.98
  -8  -5   2    1.47    1.78
  -8  -5   2    1.27    0.97
   7   5  -2   17.56    2.68
   7   5  -2   18.42    1.80
   7   5  -2   19.15    1.89
  -7  -5   2   24.10    3.08
  -7  -5   2   16.41    2.67
  -7  -5   2   17.64    1.84
   6   5  -2    0.16    1.07
   6   5  -2    0.64    0.68
   6   5  -2    0.23    0.62
  -6  -5   2    0.05    0.62
  -6  -5   2    2.06    1.41
  -6  -5   2    2.24    1.34
   5   5  -2    1.34    0.58
   5   5  -2    2.21    1.27
  -5  -5   2    2.05    0.62
   4   5  -2   10.80    0.99
   4   5  -2   12.01    1.18
   4   5  -2   13.93    2.13
  -4  -5   2   11.61    1.84
  -4  -5   2   13.26    2.02
  -4  -5   2   10.66    1.15
   3   5  -2   54.24    2.87
   3   5  -2   48.27    2.83
   3   5  -2   45.06    3.59
   3   5  -2   39.20    3.49
  -3  -5   2   45.58    3.49
  -3  -5   2   50.66    2.84
  -3  -5   2   45.01    2.76
  -3  -5   2   47.86    3.53
   2   5  -2  117.22    6.96
   2   5  -2  109.80    6.89
   2   5  -2  122.86    6.22
   2   5  -2  123.88    6.33
  -2  -5   2  112.19    6.90
  -2  -5   2  122.04    6.82
  -2  -5   2  112.52    6.28
   1   5  -2    0.68    0.56
   1   5  -2    1.21    0.42
   1   5  -2    0.89    0.86
   1   5  -2   -0.44    0.77
  -1  -5   2    0.90    0.49
  -1  -5   2    1.13    0.24
  -1  -5   2    0.93    0.46
  -1  -5   2    0.22    0.79
   0   5  -2   26.27    2.35
   0   5  -2   27.44    2.58
   0   5  -2   32.20    1.81
   0   5  -2   27.90    2.06
   0  -5   2   32.03    2.13
   0  -5   2   32.42    2.60
   0  -5   2   24.61    1.97
  -1   5  -2   16.64    1.81
  -1   5  -2   15.69    2.18
  -1   5  -2   17.30    1.57
  -1   5  -2   17.79    1.17
   1  -5   2   18.49    2.07
   1  -5   2   17.61    1.54
   1  -5   2   12.71    1.38
  -2   5  -2    0.52    0.61
  -2   5  -2    0.17    0.70
  -2   5  -2    0.90    1.04
  -2   5  -2    0.02    0.32
   2  -5   2    0.91    0.69
   2  -5   2   -0.55    0.85
   2  -5   2    0.23    0.48
  -3   5  -2    0.16    0.50
  -3   5  -2    0.87    0.81
  -3   5  -2    0.43    0.76
  -3   5  -2    2.09    1.29
   3  -5   2    2.18    0.66
  -4   5  -2   71.12    5.44
  -4   5  -2   79.56    4.61
  -4   5  -2   79.96    4.65
  -4   5  -2   87.01    4.52
  -4   5  -2   90.48    4.98
  -4   5  -2   76.45    4.29
   4  -5   2   75.90    4.66
   4  -5   2   66.34    5.47
  -5   5  -2   28.11    2.21
  -5   5  -2   34.36    3.53
  -5   5  -2   25.24    1.97
  -5   5  -2   35.51    2.54
  -5   5  -2   27.65    2.73
   5  -5   2   29.78    3.44
  -6   5  -2   21.05    2.22
  -6   5  -2   22.70    3.71
  -6   5  -2   15.05    1.62
  -6   5  -2   18.11    2.16
  -6   5  -2   22.41    2.69
  -6   5  -2   16.30    2.52
   6  -5   2   15.35    2.99
  -7   5  -2    3.42    2.04
  -7   5  -2    1.66    0.86
  -7   5  -2   -0.88    1.29
  -7   5  -2    1.89    1.44
  -7   5  -2    1.34    1.51
  -7   5  -2    1.90    2.64
   7  -5   2    2.32    1.84
  -8   5  -2   -2.34    1.85
  -8   5  -2    2.08    1.79
  -8   5  -2   -2.56    1.67
  -8   5  -2   -3.85    3.10
  -8   5  -2    3.40    1.04
   8  -5   2    2.52    2.26
  -9   5  -2   -0.15    4.19
   9  -5   2    2.08    2.46
  12   4  -2    7.39    2.91
 -12  -4   2    4.26    2.24
  11   4  -2   -2.00    2.06
  11   4  -2    1.87    1.68
  11   4  -2    1.42    0.84
 -11  -4   2    9.50    3.49
 -11  -4   2    4.34    1.66
  10   4  -2    7.13    1.86
  10   4  -2    7.48    1.15
  10   4  -2    5.14    1.58
  10   4  -2    5.95    2.24
 -10  -4   2    8.55    2.90
 -10  -4   2   11.64    3.42
 -10  -4   2    4.95    1.41
   9   4  -2    6.26    1.24
   9   4  -2    5.22    1.04
   9   4  -2    5.57    1.70
  -9  -4   2    6.76    2.38
  -9  -4   2    5.03    1.35
  -9  -4   2    9.67    2.64
   8   4  -2    6.21    1.00
   8   4  -2    7.50    1.70
   8   4  -2    5.88    1.20
  -8  -4   2    7.52    2.05
  -8  -4   2    7.36    2.09
  -8  -4   2    7.39    1.25
   7   4  -2   -1.29    1.06
   7   4  -2    1.35    0.86
   7   4  -2   -0.11    0.57
  -7  -4   2    0.40    1.37
  -7  -4   2   -0.09    0.63
  -7  -4   2   -0.20    1.45
   6   4  -2   43.33    2.80
   6   4  -2   41.58    3.41
   6   4  -2   44.43    2.70
  -6  -4   2   39.76    2.71
  -6  -4   2   38.29    3.56
   5   4  -2    5.64    0.82
   5   4  -2    5.20    1.25
  -5  -4   2    5.88    1.43
  -5  -4   2    5.21    0.80
  -5  -4   2    6.68    1.40
   4   4  -2    0.05    0.26
   4   4  -2    0.41    0.42
   4   4  -2    0.03    0.74
  -4  -4   2   -0.86    0.72
  -4  -4   2    0.21    0.77
  -4  -4   2    0.24    0.40
   3   4  -2   35.78    2.23
   3   4  -2   39.22    2.18
   3   4  -2   36.46    2.89
  -3  -4   2   35.62    2.24
  -3  -4   2   35.04    2.80
  -3  -4   2   36.29    2.86
   2   4  -2   17.13    1.31
   2   4  -2   20.09    1.99
   2   4  -2   20.19    2.01
   2   4  -2   20.30    1.34
  -2  -4   2   19.45    1.34
  -2  -4   2   17.22    1.30
  -2  -4   2   19.47    1.84
  -2  -4   2   20.35    1.83
   1   4  -2    0.60    0.29
   1   4  -2    0.09    0.62
   1   4  -2   -0.19    0.29
   1   4  -2    0.95    0.66
  -1  -4   2    0.15    0.53
  -1  -4   2    0.11    0.33
  -1  -4   2    0.14    0.18
  -1  -4   2    0.15    0.51
  -1  -4   2    0.15    0.35
   0   4  -2   33.64    2.51
   0   4  -2   29.93    1.88
   0   4  -2   36.01    2.16
   0   4  -2   32.57    2.40
   0  -4   2   32.13    2.48
   0  -4   2   27.24    2.03
   0  -4   2   33.57    1.79
   0  -4   2   33.60    2.12
  -1   4  -2   27.45    1.89
  -1   4  -2   24.58    1.99
  -1   4  -2   27.37    2.29
  -1   4  -2   25.26    1.52
   1  -4   2   26.63    1.54
   1  -4   2   27.08    2.21
   1  -4   2   24.90    1.85
   1  -4   2   23.22    1.75
  -2   4  -2    0.44    0.36
  -2   4  -2    1.05    0.51
  -2   4  -2    0.65    0.57
  -2   4  -2    1.80    0.91
  -2   4  -2    1.47    0.54
   2  -4   2    2.10    0.89
   2  -4   2    1.59    0.57
   2  -4   2    1.15    0.47
  -3   4  -2   49.60    2.80
  -3   4  -2   36.34    3.08
  -3   4  -2   45.68    3.35
  -3   4  -2   42.23    2.55
  -3   4  -2   40.20    2.64
   3  -4   2   43.25    2.73
  -4   4  -2   18.10    1.33
  -4   4  -2   19.13    1.62
  -4   4  -2   20.51    1.82
  -4   4  -2   17.37    2.29
  -4   4  -2   16.43    1.46
   4  -4   2   14.85    2.03
   4  -4   2   13.29    1.52
  -5   4  -2    1.72    1.44
  -5   4  -2    1.47    0.70
  -5   4  -2    2.01    0.62
  -5   4  -2    1.60    0.90
  -5   4  -2    3.16    1.07
  -5   4  -2    1.73    0.77
   5  -4   2    0.25    1.31
  -6   4  -2    0.66    0.68
  -6   4  -2    0.56    0.98
  -6   4  -2   -1.74    0.77
  -6   4  -2   -2.87    1.39
  -6   4  -2   -1.65    1.01
  -6   4  -2    0.49    0.82
   6  -4   2   -0.54    1.32
  -7   4  -2    2.87    2.06
  -7   4  -2    2.88    1.22
  -7   4  -2    3.87    1.53
  -7   4  -2    3.21    1.15
  -7   4  -2    4.56    0.67
  -7   4  -2    3.61    1.37
  -7   4  -2    3.99    0.94
   7  -4   2    0.68    1.72
  -8   4  -2    1.71    2.61
  -8   4  -2   -0.24    0.95
  -8   4  -2    1.46    0.88
  -8   4  -2   -0.31    1.30
  -8   4  -2   -0.06    1.36
  -8   4  -2    1.58    1.84
  -8   4  -2   -0.78    1.51
   8  -4   2   -3.78    1.85
  -9   4  -2   15.01    2.30
  -9   4  -2   12.82    2.32
  -9   4  -2   12.65    3.70
  -9   4  -2   12.57    1.81
   9  -4   2    9.94    3.17
  12   3  -2   -0.30    2.29
 -12  -3   2   -0.70    1.92
  11   3  -2    5.46    2.19
  11   3  -2    6.61    1.11
 -11  -3   2    5.38    3.53
 -11  -3   2    6.23    1.81
  10   3  -2    3.78    0.65
  10   3  -2    2.35    1.29
  10   3  -2    3.08    1.58
  10   3  -2    2.45    1.85
 -10  -3   2    2.31    1.13
 -10  -3   2    0.82    2.50
   9   3  -2   40.06    2.35
   9   3  -2   38.17    3.12
   9   3  -2   33.70    2.89
   9   3  -2   30.94    3.48
  -9  -3   2   38.88    4.36
  -9  -3   2   33.82    3.15
   8   3  -2   34.32    3.02
   8   3  -2   37.46    2.27
   8   3  -2   29.94    2.53
  -8  -3   2   33.96    2.61
  -8  -3   2   33.29    3.69
   7   3  -2   78.80    4.32
   7   3  -2   72.70    4.93
   7   3  -2   78.63    4.56
  -7  -3   2   74.32    4.52
  -7  -3   2   82.24    5.47
   6   3  -2    0.66    0.45
   6   3  -2   -0.13    0.69
   6   3  -2    0.63    0.61
  -6  -3   2    0.71    0.57
  -6  -3   2    0.39    1.13
   5   3  -2    8.83    1.46
   5   3  -2    9.53    1.00
   5   3  -2    7.67    0.86
  -5  -3   2    6.17    0.91
  -5  -3   2    6.91    1.48
  -5  -3   2    6.69    1.31
   4   3  -2   14.71    1.72
   4   3  -2   15.47    1.23
   4   3  -2   16.33    0.96
  -4  -3   2   15.08    1.86
  -4  -3   2   16.24    1.28
  -4  -3   2   16.17    1.83
   3   3  -2   45.70    2.55
   3   3  -2   45.12    3.17
   3   3  -2   47.75    2.70
  -3  -3   2   47.64    2.71
  -3  -3   2   48.12    3.24
  -3  -3   2   46.17    3.16
   2   3  -2   98.14    5.70
   2   3  -2   88.84    5.61
   2   3  -2  101.16    5.21
   2   3  -2  100.74    5.18
  -2  -3   2  100.18    5.68
  -2  -3   2  104.74    5.68
  -2  -3   2   97.42    5.20
   1   3  -2    2.55    0.73
   1   3  -2    4.21    0.51
   1   3  -2    2.21    0.66
   1   3  -2    3.21    0.51
  -1  -3   2    3.29    0.73
  -1  -3   2    2.55    0.61
  -1  -3   2    3.06    0.50
   0   3  -2   51.08    3.29
   0   3  -2   53.27    3.09
   0   3  -2   56.29    2.96
   0   3  -2   56.45    3.39
   0  -3   2   55.20    3.10
   0  -3   2   53.82    2.87
   0  -3   2   57.10    3.38
   0  -3   2   53.95    3.15
   0  -3   2   53.74    3.10
  -1   3  -2    0.87    0.38
  -1   3  -2    0.41    0.47
  -1   3  -2   -0.23    0.41
  -1   3  -2    0.17    0.29
  -1   3  -2    0.34    0.21
   1  -3   2    0.22    0.19
   1  -3   2   -0.27    0.29
   1  -3   2    0.87    0.52
  -2   3  -2    4.28    0.68
  -2   3  -2    4.78    0.78
  -2   3  -2    4.03    0.57
  -2   3  -2    3.91    0.65
  -2   3  -2    5.16    1.05
   2  -3   2    4.69    0.93
   2  -3   2    4.82    0.70
   2  -3   2    4.33    0.96
   2  -3   2    4.36    0.59
  -3   3  -2   30.61    1.96
  -3   3  -2   36.75    2.13
  -3   3  -2   29.59    2.15
  -3   3  -2   31.77    2.48
   3  -3   2   30.99    2.08
   3  -3   2   30.01    2.53
  -4   3  -2   11.50    1.18
  -4   3  -2   13.14    1.75
  -4   3  -2   11.83    1.05
  -4   3  -2   12.07    1.38
  -4   3  -2   12.45    1.22
   4  -3   2   11.39    1.74
  -5   3  -2    9.49    1.02
  -5   3  -2    9.74    1.43
  -5   3  -2    7.34    1.64
  -5   3  -2    9.86    1.21
  -5   3  -2    6.83    1.09
  -5   3  -2    8.11    1.32
   5  -3   2    7.18    1.48
  -6   3  -2   15.83    1.61
  -6   3  -2   15.42    1.47
  -6   3  -2   16.63    1.88
  -6   3  -2   13.36    2.19
  -6   3  -2   19.48    1.92
  -6   3  -2   16.98    1.72
   6  -3   2   12.54    2.29
  -7   3  -2   13.22    1.69
  -7   3  -2    9.93    1.45
  -7   3  -2   12.03    1.96
  -7   3  -2    9.93    2.26
  -7   3  -2    9.74    1.44
  -7   3  -2    8.70    1.46
  -8   3  -2   18.49    3.14
  -8   3  -2   19.71    2.70
  -8   3  -2   24.84    2.45
  -8   3  -2   19.79    2.45
  -8   3  -2   23.59    2.69
  -8   3  -2   22.70    2.11
  -9   3  -2   10.52    1.92
  -9   3  -2   10.86    1.47
  -9   3  -2   17.21    2.54
  -9   3  -2   11.61    1.65
  -9   3  -2    7.83    3.10
  -9   3  -2   13.50    2.29
   9  -3   2    8.13    2.52
 -10   3  -2   13.62    2.08
 -10   3  -2    9.21    2.73
 -10   3  -2    5.41    4.01
 -10   3  -2   10.93    2.34
  10  -3   2   15.08    3.71
  12   2  -2    1.97    2.34
 -12  -2   2    8.32    2.16
  11   2  -2   16.35    3.08
 -11  -2   2   18.65    2.52
 -11  -2   2   23.58    4.01
  10   2  -2    3.71    1.75
  10   2  -2    2.44    1.29
 -10  -2   2   -0.36    2.29
 -10  -2   2    2.24    1.16
   9   2  -2   -0.14    0.91
   9   2  -2    0.06    0.86
   9   2  -2    0.60    1.53
  -9  -2   2    2.02    1.74
  -9  -2   2    1.33    0.92
   8   2  -2   58.85    3.85
   8   2  -2   59.73    3.72
   8   2  -2   56.50    3.20
  -8  -2   2   59.45    3.72
  -8  -2   2   60.03    4.58
   7   2  -2   22.45    2.24
   7   2  -2   21.59    1.42
   7   2  -2   19.89    1.74
   7   2  -2   19.43    2.11
  -7  -2   2   20.00    1.76
  -7  -2   2   19.12    2.54
   6   2  -2    2.01    0.69
   6   2  -2    2.36    0.45
   6   2  -2    1.87    0.84
  -6  -2   2    3.32    0.71
  -6  -2   2    2.51    1.12
   5   2  -2   11.00    0.91
   5   2  -2   10.78    1.55
   5   2  -2   12.49    1.05
  -5  -2   2   10.60    1.07
  -5  -2   2    8.03    1.38
   4   2  -2    7.30    1.24
   4   2  -2    7.81    0.83
  -4  -2   2    7.26    0.80
  -4  -2   2    5.98    1.10
   3   2  -2   72.64    4.00
   3   2  -2   76.21    3.80
   3   2  -2   69.28    4.40
  -3  -2   2   78.22    4.47
  -3  -2   2   73.23    4.01
   2   2  -2    5.68    0.57
   2   2  -2    5.38    0.50
   2   2  -2    6.03    0.99
  -2  -2   2    5.33    0.90
  -2  -2   2    5.77    0.60
  -2  -2   2    6.59    0.97
   1   2  -2   39.77    2.69
   1   2  -2   42.65    2.38
   1   2  -2   41.33    2.68
   1   2  -2   44.28    2.39
  -1  -2   2   43.38    2.69
  -1  -2   2   49.15    2.47
  -1  -2   2   41.64    2.66
   0   2  -2   24.52    1.60
   0   2  -2   25.59    1.81
   0   2  -2   31.10    1.66
   0   2  -2   25.98    1.81
   0  -2   2   24.71    1.77
   0  -2   2   27.07    1.72
   0  -2   2   27.67    1.65
   0  -2   2   26.09    1.49
  -1   2  -2  365.22   17.47
  -1   2  -2  344.74   17.58
  -1   2  -2  342.17   17.43
  -1   2  -2  365.87   17.30
  -1   2  -2  310.16   17.39
  -1   2  -2  341.32   17.66
   1  -2   2  325.87   17.40
   1  -2   2  355.54   17.59
   1  -2   2  363.41   17.31
  -2   2  -2   89.52    5.03
  -2   2  -2   84.13    4.73
  -2   2  -2   84.00    4.68
  -2   2  -2   88.95    4.84
  -2   2  -2   99.11    4.92
   2  -2   2   83.43    4.99
   2  -2   2   86.49    4.75
   2  -2   2   97.23    4.87
   2  -2   2  100.61    5.24
  -3   2  -2    2.55    0.55
  -3   2  -2    1.45    0.63
  -3   2  -2    1.86    0.43
  -3   2  -2    1.65    0.51
   3  -2   2    2.47    0.50
   3  -2   2    1.61    0.72
  -4   2  -2    3.53    0.57
  -4   2  -2    2.79    0.81
  -4   2  -2    3.21    0.64
  -4   2  -2    3.43    0.73
  -4   2  -2    3.17    0.60
  -4   2  -2    2.45    0.60
   4  -2   2    3.46    0.93
  -5   2  -2   20.72    1.48
  -5   2  -2   19.81    1.63
  -5   2  -2   17.17    1.65
  -5   2  -2   20.71    2.18
  -5   2  -2   20.81    1.72
  -5   2  -2   23.39    1.63
   5  -2   2   14.20    1.94
  -6   2  -2   22.14    1.71
  -6   2  -2   23.92    1.90
  -6   2  -2   21.99    2.49
  -6   2  -2   19.55    2.13
  -6   2  -2   20.43    1.86
   6  -2   2   19.55    2.40
  -7   2  -2    8.88    1.38
  -7   2  -2    8.91    1.38
  -7   2  -2    8.22    1.16
  -7   2  -2   10.07    2.05
  -7   2  -2   10.16    1.53
  -7   2  -2    9.21    1.42
  -8   2  -2    1.06    1.22
  -8   2  -2    2.09    0.86
  -8   2  -2    0.92    0.98
  -8   2  -2    1.99    0.79
  -8   2  -2    5.08    1.24
  -8   2  -2    1.83    1.07
  -8   2  -2   -0.19    1.74
   8  -2   2    1.95    1.77
  -9   2  -2   29.65    4.63
  -9   2  -2   27.04    2.47
  -9   2  -2   31.80    3.16
  -9   2  -2   25.99    2.55
  -9   2  -2   28.06    2.81
  -9   2  -2   35.47    3.25
  -9   2  -2   31.28    2.86
   9  -2   2   22.61    3.64
 -10   2  -2    1.78    1.51
 -10   2  -2    0.37    1.76
 -10   2  -2    6.60    3.41
 -10   2  -2    0.88    1.39
 -10   2  -2    3.20    2.09
 -10   2  -2    1.90    1.81
  10  -2   2    2.88    2.39
 -11   2  -2    3.36    1.99
 -11   2  -2    3.01    4.36
  11  -2   2    1.91    2.54
  12   1  -2   -1.28    2.28
 -12  -1   2   -3.27    1.78
  11   1  -2    4.38    1.88
  11   1  -2    3.68    2.26
 -11  -1   2    3.50    1.73
 -11  -1   2    3.31    3.09
  10   1  -2    0.70    1.31
  10   1  -2    1.24    1.55
 -10  -1   2    1.64    2.11
 -10  -1   2    0.87    1.18
   9   1  -2    3.93    1.03
   9   1  -2    4.32    1.83
  -9  -1   2    3.85    1.18
  -9  -1   2    1.79    1.91
   8   1  -2   16.44    1.59
   8   1  -2   16.28    1.77
  -8  -1   2   19.28    1.79
  -8  -1   2   15.94    2.65
   7   1  -2   20.51    2.45
   7   1  -2   23.53    1.94
  -7  -1   2   23.63    1.87
  -7  -1   2   25.94    2.65
   6   1  -2  103.13    5.76
   6   1  -2  123.45    6.50
   6   1  -2  105.47    5.40
   6   1  -2   92.77    5.88
  -6  -1   2  112.00    6.36
  -6  -1   2  101.26    5.74
   5   1  -2  232.57   11.73
   5   1  -2  208.06   11.92
   5   1  -2  225.91   11.46
  -5  -1   2  225.18   11.71
  -5  -1   2  249.62   12.27
   4   1  -2   23.12    1.37
   4   1  -2   23.84    1.89
   4   1  -2   22.34    1.54
  -4  -1   2   24.70    1.99
  -4  -1   2   24.49    1.57
   3   1  -2    4.59    0.82
   3   1  -2    4.91    0.58
  -3  -1   2    5.24    0.90
  -3  -1   2    4.42    0.58
   2   1  -2  126.78    7.11
   2   1  -2  143.58    6.84
  -2  -1   2  136.06    7.16
  -2  -1   2  125.70    6.81
   1   1  -2  148.96    7.46
   1   1  -2  140.48    7.71
  -1  -1   2  148.38    7.73
  -1  -1   2  149.18    7.68
   0   1  -2    0.30    0.25
   0   1  -2    0.19    0.19
   0   1  -2    0.53    0.36
   0  -1   2    0.49    0.20
   0  -1   2    0.40    0.27
   0  -1   2    0.23    0.22
  -1   1  -2  102.17    4.83
  -1   1  -2   87.74    4.81
  -1   1  -2   98.49    4.96
  -1   1  -2   87.79    4.79
  -1   1  -2   93.34    4.73
   1  -1   2   89.44    4.72
   1  -1   2   88.54    4.81
   1  -1   2   87.40    4.62
   1  -1   2   90.57    4.79
  -2   1  -2  127.94    6.21
  -2   1  -2  129.05    6.40
  -2   1  -2  104.30    6.63
  -2   1  -2  118.11    6.49
  -2   1  -2  139.83    6.47
  -2   1  -2  123.38    6.44
   2  -1   2  118.17    6.42
   2  -1   2  120.62    6.67
   2  -1   2  133.41    6.43
  -3   1  -2   33.37    1.94
  -3   1  -2   32.68    1.95
  -3   1  -2   28.77    1.93
  -3   1  -2   31.51    2.10
  -3   1  -2   33.57    2.04
   3  -1   2   30.33    2.26
   3  -1   2   31.58    1.95
  -4   1  -2   29.27    2.13
  -4   1  -2   28.81    1.78
  -4   1  -2   30.10    1.95
  -4   1  -2   27.92    1.84
  -4   1  -2   28.34    1.84
  -4   1  -2   26.08    1.79
   4  -1   2   23.64    2.19
  -5   1  -2   59.06    3.53
  -5   1  -2   62.83    3.60
  -5   1  -2   61.29    3.48
  -5   1  -2   56.15    3.50
  -5   1  -2   56.10    3.88
  -5   1  -2   61.70    3.57
   5  -1   2   71.79    4.25
  -6   1  -2   13.15    0.94
  -6   1  -2    9.65    1.25
  -6   1  -2   14.33    1.34
  -6   1  -2   13.47    1.41
  -6   1  -2   14.47    1.34
   6  -1   2   15.16    1.98
  -7   1  -2    3.84    0.89
  -7   1  -2    3.45    0.78
  -7   1  -2    3.49    0.87
  -7   1  -2    3.43    0.91
  -7   1  -2    2.13    0.90
  -7   1  -2    4.04    0.73
  -8   1  -2    2.57    1.69
  -8   1  -2    0.39    1.00
  -8   1  -2    0.99    0.86
  -8   1  -2   -0.63    0.72
  -8   1  -2    0.29    0.82
  -8   1  -2   -0.18    0.76
  -8   1  -2   -1.64    0.76
   8  -1   2    0.38    1.61
  -9   1  -2    5.00    1.25
  -9   1  -2    5.99    1.61
  -9   1  -2    3.36    1.16
  -9   1  -2    3.54    1.31
  -9   1  -2    3.92    1.18
  -9   1  -2    5.21    2.19
  -9   1  -2    4.12    1.24
   9  -1   2    4.53    2.02
 -10   1  -2    9.26    3.13
 -10   1  -2    7.58    1.46
 -10   1  -2   12.18    1.94
 -10   1  -2    5.25    1.69
 -10   1  -2    7.57    1.92
 -10   1  -2    5.61    1.53
  10  -1   2    5.38    2.56
 -11   1  -2    7.33    1.95
 -11   1  -2    4.57    3.97
 -11   1  -2    3.25    2.33
  11  -1   2    4.24    2.95
  12   0  -2    5.48    2.69
 -12   0   2    5.18    5.23
 -12   0   2    0.79    2.05
  11   0  -2    4.12    2.30
  11   0  -2   -1.51    1.89
 -11   0   2    1.77    3.11
 -11   0   2    0.18    1.50
  10   0  -2    0.15    1.63
 -10   0   2   -0.11    1.16
 -10   0   2   -0.53    1.85
 -10   0   2   -1.93    2.15
   9   0  -2    0.64    1.72
   9   0  -2   -0.31    0.95
  -9   0   2    1.46    0.96
  -9   0   2    1.81    1.82
   8   0  -2    1.15    1.24
   8   0  -2   -0.01    0.68
  -8   0   2   -0.52    1.26
  -8   0   2   -0.29    0.63
   7   0  -2   25.32    1.64
   7   0  -2   26.75    2.00
   7   0  -2   27.52    2.63
  -7   0   2   24.80    2.51
  -7   0   2   26.64    1.96
   6   0  -2    9.28    1.05
   6   0  -2    9.61    1.10
   6   0  -2   10.03    0.76
   6   0  -2    7.05    1.51
  -6   0   2   10.86    1.08
  -6   0   2    9.92    1.65
   5   0  -2   16.11    1.28
   5   0  -2   15.13    1.35
   5   0  -2   18.85    1.78
   5   0  -2   16.04    1.03
  -5   0   2   14.02    1.65
  -5   0   2   16.56    1.27
   4   0  -2    0.43    0.38
   4   0  -2    0.41    0.29
   4   0  -2    0.31    0.49
   4   0  -2    0.52    0.20
  -4   0   2    0.29    0.32
  -4   0   2    0.01    0.50
   3   0  -2   98.07    5.12
   3   0  -2   99.20    5.35
   3   0  -2  105.95    5.39
  -3   0   2   91.26    5.41
  -3   0   2   94.82    5.11
   2   0  -2   29.10    1.64
   2   0  -2   28.09    1.88
  -2   0   2   30.66    1.96
  -2   0   2   26.69    1.63
   1   0  -2    1.93    0.29
   1   0  -2    1.68    0.45
  -1   0   2    1.65    0.43
   0   0  -2    9.79    0.81
   0   0  -2    9.21    0.61
   0   0  -2    8.89    0.70
   0   0   2    9.87    0.80
   0   0   2    7.92    0.61
  -1   0  -2  804.92   35.72
  -1   0  -2  622.27   35.70
  -1   0  -2  709.69   35.70
  -1   0  -2  676.01   35.60
   1   0   2  759.01   35.61
   1   0   2  695.80   35.61
   1   0   2  756.92   35.64
  -2   0  -2  130.32    6.17
  -2   0  -2  140.16    6.50
  -2   0  -2  111.98    6.24
  -2   0  -2  107.13    6.31
  -2   0  -2  102.19    6.23
   2   0   2  121.16    6.27
   2   0   2  140.37    6.50
  -3   0  -2   33.00    1.91
  -3   0  -2   32.98    1.65
  -3   0  -2   28.02    2.24
  -3   0  -2   30.58    1.96
   3   0   2   32.09    1.93
  -4   0  -2    3.08    0.38
  -4   0  -2    3.31    0.53
  -4   0  -2    2.91    0.34
  -4   0  -2    3.63    0.57
  -4   0  -2    2.32    0.51
  -4   0  -2    2.79    0.60
  -4   0  -2    3.00    0.50
   4   0   2    3.37    0.86
  -5   0  -2   -0.24    0.33
  -5   0  -2    0.09    0.38
  -5   0  -2    0.69    0.41
  -5   0  -2    0.85    0.49
  -5   0  -2    0.06    0.30
  -5   0  -2    0.07    0.38
   5   0   2    0.08    0.60
  -6   0  -2   -0.56    0.54
  -6   0  -2   -0.45    0.45
  -6   0  -2   -0.65    0.48
  -6   0  -2   -0.14    0.49
  -6   0  -2    0.42    0.46
  -6   0  -2   -0.10    0.39
   6   0   2    1.11    0.87
  -7   0  -2    0.93    0.68
  -7   0  -2    0.43    0.60
  -7   0  -2    0.90    0.61
  -7   0  -2    0.67    0.71
  -7   0  -2    0.38    0.58
  -7   0  -2    0.65    0.58
   7   0   2   -1.74    0.97
  -8   0  -2   49.51    3.37
  -8   0  -2   52.39    3.33
  -8   0  -2   48.98    3.36
  -8   0  -2   50.44    3.37
  -8   0  -2   53.96    3.60
  -8   0  -2   52.73    3.30
  -9   0  -2   40.97    3.11
  -9   0  -2   45.18    3.45
  -9   0  -2   43.93    3.30
  -9   0  -2   45.09    3.20
  -9   0  -2   38.70    3.04
   9   0   2   45.94    4.38
 -10   0  -2   13.78    1.91
 -10   0  -2   10.53    1.61
 -10   0  -2   13.61    2.22
 -10   0  -2   12.09    1.92
 -10   0  -2   14.84    2.32
  10   0   2   12.00    2.96
 -11   0  -2    2.77    1.76
 -11   0  -2    3.31    2.57
 -11   0  -2    3.16    1.36
 -11   0  -2   -1.14    1.49
  11   0   2    1.21    2.79
  12   0   2    0.82    2.78
  11  -1  -2    2.11    2.33
 -11   1   2    4.99    1.67
 -11   1   2    1.64    3.28
 -11   1   2    4.40    1.60
  10  -1  -2    1.18    2.06
  10  -1  -2    1.08    1.43
 -10   1   2    2.60    2.32
 -10   1   2    0.13    1.20
 -10   1   2    1.83    1.08
   9  -1  -2    0.07    1.54
   9  -1  -2    0.99    1.04
  -9   1   2    1.91    0.86
  -9   1   2    0.48    0.91
  -9   1   2    0.14    1.63
   8  -1  -2   31.20    3.51
   8  -1  -2   41.13    2.80
  -8   1   2   43.15    2.76
  -8   1   2   38.31    3.42
   7  -1  -2   10.35    1.22
   7  -1  -2    8.96    1.77
   7  -1  -2   10.37    1.04
  -7   1   2    9.05    1.26
  -7   1   2   12.57    1.89
   6  -1  -2    5.68    1.40
   6  -1  -2    4.71    0.67
   6  -1  -2    5.27    0.80
  -6   1   2    4.34    0.74
  -6   1   2    4.68    1.10
   5  -1  -2   14.46    1.13
   5  -1  -2   14.15    1.00
   5  -1  -2   11.50    0.99
   5  -1  -2   11.27    1.50
  -5   1   2   15.74    1.57
  -5   1   2   14.08    1.12
   4  -1  -2    7.25    0.70
   4  -1  -2    7.12    0.69
   4  -1  -2    7.19    0.78
   4  -1  -2    8.34    1.11
  -4   1   2    6.89    1.01
  -4   1   2    7.16    0.71
   3  -1  -2  179.74    9.18
   3  -1  -2  178.00    9.04
   3  -1  -2  193.93    9.41
   3  -1  -2  170.46    9.04
  -3   1   2  174.75    9.04
  -3   1   2  173.08    9.31
   2  -1  -2   54.83    3.12
   2  -1  -2   55.31    3.14
   2  -1  -2   52.81    2.84
   2  -1  -2   52.65    2.94
  -2   1   2   56.55    2.96
  -2   1   2   54.07    3.19
  -2   1   2   55.64    2.85
  -2   1   2   65.53    3.19
   1  -1  -2  171.52    8.37
   1  -1  -2  171.67    8.57
   1  -1  -2  145.24    8.41
   1  -1  -2  153.24    8.41
  -1   1   2  167.47    8.37
  -1   1   2  177.34    8.61
  -1   1   2  163.37    8.28
  -1   1   2  183.72    8.44
   0  -1  -2   53.05    2.87
   0  -1  -2   49.74    2.76
   0  -1  -2   50.60    2.65
   0   1   2   55.39    2.89
   0   1   2   50.63    2.75
  -1  -1  -2  365.07   18.58
  -1  -1  -2  371.65   18.49
  -1  -1  -2  368.72   18.41
  -1  -1  -2  352.69   18.56
   1   1   2  375.61   18.41
   1   1   2  366.90   18.56
   1   1   2  409.59   18.60
   1   1   2  359.34   18.49
  -2  -1  -2  179.27    9.09
  -2  -1  -2  190.61    9.02
   2   1   2  175.89    8.97
   2   1   2  173.24    9.01
   2   1   2  170.03    9.00
   2   1   2  176.47    9.07
  -3  -1  -2   61.00    3.35
  -3  -1  -2   63.88    3.42
  -3  -1  -2   61.60    3.25
  -3  -1  -2   63.43    3.35
  -3  -1  -2   60.83    3.35
   3   1   2   62.62    3.37
   3   1   2   54.34    3.50
   3   1   2   63.31    3.40
  -4  -1  -2    4.81    0.70
  -4  -1  -2    5.39    0.63
  -4  -1  -2    5.70    0.69
  -4  -1  -2    3.45    0.55
   4   1   2    3.25    0.74
   4   1   2    5.11    0.67
   4   1   2    4.56    0.65
  -5  -1  -2    0.01    0.38
  -5  -1  -2   -0.55    0.32
  -5  -1  -2    0.48    0.45
  -5  -1  -2   -0.23    0.36
  -5  -1  -2    0.20    0.29
   5   1   2    0.23    0.34
   5   1   2   -0.31    0.52
  -6  -1  -2    2.64    0.70
  -6  -1  -2    2.28    0.66
  -6  -1  -2    2.72    0.52
  -6  -1  -2    2.81    0.70
  -6  -1  -2    3.03    0.73
   6   1   2    2.80    0.94
   6   1   2    3.31    0.61
  -7  -1  -2    5.45    0.80
  -7  -1  -2    5.90    1.04
  -7  -1  -2    4.10    0.84
  -7  -1  -2    4.74    0.99
  -7  -1  -2    5.55    1.00
   7   1   2    3.86    1.21
  -8  -1  -2    0.15    0.73
  -8  -1  -2    0.66    0.75
  -8  -1  -2    0.85    0.59
  -8  -1  -2    0.13    0.84
  -8  -1  -2   -0.40    0.82
   8   1   2    0.20    1.23
  -9  -1  -2    0.77    0.92
  -9  -1  -2    2.10    0.96
  -9  -1  -2    1.38    1.09
  -9  -1  -2   -1.32    1.08
  -9  -1  -2    1.56    0.93
  -9  -1  -2    0.90    0.84
   9   1   2    0.09    1.41
 -10  -1  -2    1.00    1.12
 -10  -1  -2    2.51    1.45
 -10  -1  -2   -1.65    1.31
 -10  -1  -2    2.01    1.60
 -10  -1  -2    1.88    1.12
  10   1   2    0.41    1.75
 -11  -1  -2   10.13    2.73
 -11  -1  -2    8.11    1.79
 -11  -1  -2    7.54    1.44
  11   1   2    8.66    2.86
 -12  -1  -2    2.92    1.95
  12   1   2    0.54    2.87
  11  -2  -2    1.21    2.68
 -11   2   2   -1.90    1.60
 -11   2   2   -1.62    3.95
  10  -2  -2   -1.07    1.90
 -10   2   2    2.28    1.55
 -10   2   2   -0.42    1.16
 -10   2   2   -1.46    2.33
   9  -2  -2    1.79    1.13
   9  -2  -2    0.27    1.75
  -9   2   2   -1.49    0.80
  -9   2   2    0.01    0.89
  -9   2   2    0.43    1.72
   8  -2  -2    9.89    2.05
   8  -2  -2    6.99    1.37
  -8   2   2    4.67    0.90
  -8   2   2    7.48    1.69
  -8   2   2    7.29    1.10
   7  -2  -2   21.65    1.65
   7  -2  -2   21.57    2.46
   7  -2  -2   18.03    1.68
  -7   2   2   18.45    1.47
  -7   2   2   20.80    2.34
  -7   2   2   18.69    1.62
   6  -2  -2    1.54    0.55
   6  -2  -2    2.85    1.18
   6  -2  -2    1.44    0.51
  -6   2   2    2.40    0.58
  -6   2   2    0.65    0.82
  -6   2   2    1.56    0.46
   5  -2  -2   21.83    2.17
   5  -2  -2   23.12    1.50
   5  -2  -2   20.73    1.54
  -5   2   2   21.86    1.50
  -5   2   2   21.97    1.84
  -5   2   2   22.14    1.40
   4  -2  -2   18.35    1.26
   4  -2  -2   19.04    1.37
   4  -2  -2   23.41    1.90
  -4   2   2   18.82    1.19
  -4   2   2   19.52    1.59
  -4   2   2   19.28    1.26
   3  -2  -2   23.77    1.55
   3  -2  -2   25.04    1.42
  -3   2   2   21.58    1.41
  -3   2   2   27.76    2.02
  -3   2   2   23.41    1.68
  -3   2   2   23.10    1.31
  -3   2   2   26.17    1.36
   2  -2  -2   16.86    1.33
   2  -2  -2   17.29    0.98
   2  -2  -2   16.92    1.16
  -2   2   2   16.75    0.97
  -2   2   2   14.75    1.21
  -2   2   2   16.93    0.88
  -2   2   2   14.38    1.31
  -2   2   2   15.01    0.96
   1  -2  -2    9.89    0.59
   1  -2  -2    9.56    0.69
   1  -2  -2   10.00    0.83
  -1   2   2    8.85    0.82
  -1   2   2    9.04    0.67
   0  -2  -2   36.81    2.03
   0  -2  -2   36.91    2.19
   0   2   2   32.32    1.96
   0   2   2   36.88    2.19
   0   2   2   37.24    2.03
   0   2   2   36.38    2.10
  -1  -2  -2  463.08   21.73
  -1  -2  -2  446.76   21.73
   1   2   2  453.33   21.74
   1   2   2  417.64   21.59
   1   2   2  418.40   21.71
   1   2   2  406.10   21.71
  -2  -2  -2   59.87    3.36
  -2  -2  -2   65.03    3.35
  -2  -2  -2   62.79    3.25
  -2  -2  -2   58.00    3.27
   2   2   2   58.32    3.24
   2   2   2   62.26    3.45
   2   2   2   61.64    3.37
   2   2   2   65.06    3.33
   2   2   2   58.15    3.32
  -3  -2  -2  223.38   11.72
  -3  -2  -2  238.38   11.91
  -3  -2  -2  220.37   11.81
  -3  -2  -2  237.51   11.81
  -3  -2  -2  230.48   11.71
   3   2   2  221.57   11.80
   3   2   2  241.65   11.71
   3   2   2  231.87   11.73
   3   2   2  236.34   11.80
  -4  -2  -2   13.42    1.09
  -4  -2  -2   13.99    1.28
  -4  -2  -2   13.66    1.15
  -4  -2  -2   14.89    1.10
   4   2   2   13.38    1.09
   4   2   2   13.27    1.30
   4   2   2   12.58    1.09
   4   2   2   14.68    0.98
   4   2   2   15.31    1.10
  -5  -2  -2   16.43    1.29
  -5  -2  -2   14.99    1.45
  -5  -2  -2   16.90    1.35
  -5  -2  -2   15.76    1.28
   5   2   2   16.50    1.06
   5   2   2   17.35    1.28
   5   2   2   15.03    1.00
  -6  -2  -2    3.60    0.72
  -6  -2  -2    3.86    0.74
  -6  -2  -2    4.42    0.79
  -6  -2  -2    3.76    0.84
   6   2   2    2.92    0.96
   6   2   2    5.39    0.87
  -7  -2  -2    4.04    0.83
  -7  -2  -2    3.30    0.59
  -7  -2  -2    4.35    0.78
  -7  -2  -2    3.71    0.82
  -7  -2  -2    2.73    0.98
   7   2   2    3.40    0.74
   7   2   2    1.62    0.99
  -8  -2  -2   20.20    1.77
  -8  -2  -2   13.27    1.80
  -8  -2  -2   17.84    1.43
  -8  -2  -2   15.33    2.15
  -8  -2  -2   18.37    1.74
   8   2   2   17.41    1.58
  -9  -2  -2   22.88    1.82
  -9  -2  -2   28.83    2.82
  -9  -2  -2   21.82    2.20
  -9  -2  -2   22.21    2.12
  -9  -2  -2   21.54    2.39
   9   2   2   19.55    2.92
 -10  -2  -2    4.15    1.49
 -10  -2  -2    2.97    1.21
 -10  -2  -2    4.26    1.17
 -10  -2  -2    4.79    2.02
 -10  -2  -2    3.60    0.94
  10   2   2    4.97    2.09
 -11  -2  -2    2.36    1.12
 -11  -2  -2    0.30    2.48
 -11  -2  -2   -1.08    1.51
 -11  -2  -2   -1.01    1.25
 -11  -2  -2    3.03    1.60
  11   2   2    0.57    2.25
 -12  -2  -2    2.61    2.07
 -12  -2  -2   -3.30    3.51
  12   2   2    2.81    2.76
  11  -3  -2    3.71    2.71
  10  -3  -2    1.49    2.24
 -10   3   2    6.92    2.81
 -10   3   2    4.23    1.41
 -10   3   2    6.74    3.83
   9  -3  -2   -0.85    1.70
  -9   3   2   -2.29    1.74
  -9   3   2    2.59    1.67
  -9   3   2    2.09    2.81
  -9   3   2   -0.87    0.92
  -9   3   2    1.39    1.02
   8  -3  -2    3.83    2.16
  -8   3   2    8.56    1.74
  -8   3   2    5.75    0.96
  -8   3   2    5.01    1.01
   7  -3  -2   17.81    2.64
   7  -3  -2   18.86    1.77
   7  -3  -2   18.01    1.59
  -7   3   2   18.47    1.46
  -7   3   2   15.24    1.51
  -7   3   2   21.16    2.27
   6  -3  -2   -0.21    1.12
   6  -3  -2    0.00    0.47
   6  -3  -2    0.76    0.58
  -6   3   2   -0.09    0.38
  -6   3   2    0.87    0.85
  -6   3   2    0.62    0.42
   5  -3  -2    8.93    1.04
   5  -3  -2    7.34    0.85
   5  -3  -2   10.40    1.67
  -5   3   2    9.93    1.27
  -5   3   2    8.57    0.63
  -5   3   2    8.15    0.78
  -5   3   2    8.03    0.86
  -5   3   2    7.09    0.74
   4  -3  -2   12.70    0.91
   4  -3  -2   12.36    1.15
   4  -3  -2   14.70    1.63
  -4   3   2   14.96    0.90
  -4   3   2   10.77    0.89
  -4   3   2   12.27    1.23
  -4   3   2   11.56    0.84
   3  -3  -2   40.83    2.48
   3  -3  -2   37.67    2.76
   3  -3  -2   43.45    2.23
  -3   3   2   42.72    2.28
  -3   3   2   42.48    3.05
  -3   3   2   38.48    2.20
  -3   3   2   44.66    2.54
  -3   3   2   38.83    2.20
   2  -3  -2    7.23    0.96
   2  -3  -2    6.51    0.46
   2  -3  -2    5.67    0.74
  -2   3   2    6.25    1.10
  -2   3   2    6.42    0.62
  -2   3   2    7.64    0.79
  -2   3   2    6.59    0.46
  -2   3   2    7.54    1.18
   1  -3  -2  254.61   12.83
   1  -3  -2  251.59   12.50
   1  -3  -2  255.95   12.92
   1  -3  -2  266.20   12.52
  -1   3   2  242.99   12.70
  -1   3   2  238.47   13.09
   0  -3  -2  142.49    7.52
   0  -3  -2  125.85    7.21
   0   3   2  142.43    7.52
   0   3   2  152.04    7.35
  -1  -3  -2    1.73    0.41
  -1  -3  -2    1.42    0.24
  -1  -3  -2    1.15    0.41
   1   3   2    1.01    0.30
   1   3   2    1.45    0.24
   1   3   2    1.59    0.51
  -2  -3  -2    1.90    0.48
  -2  -3  -2    2.67    0.35
  -2  -3  -2    2.16    0.36
  -2  -3  -2    1.69    0.48
   2   3   2    2.09    0.44
   2   3   2    2.90    0.67
   2   3   2    2.53    0.36
   2   3   2    2.34    0.54
  -3  -3  -2    3.19    0.65
  -3  -3  -2    2.98    0.47
  -3  -3  -2    3.66    0.73
  -3  -3  -2    4.86    0.66
  -3  -3  -2    3.05    0.43
   3   3   2    2.31    0.59
   3   3   2    3.58    0.52
   3   3   2    3.01    0.47
   3   3   2    3.72    0.59
   3   3   2    3.31    0.69
  -4  -3  -2   54.34    3.28
  -4  -3  -2   55.75    3.37
  -4  -3  -2   53.31    3.00
  -4  -3  -2   50.72    3.11
  -4  -3  -2   51.85    3.04
   4   3   2   51.15    3.25
   4   3   2   53.05    3.05
   4   3   2   52.65    3.02
   4   3   2   57.22    3.16
  -5  -3  -2    2.77    0.81
  -5  -3  -2    2.82    0.57
  -5  -3  -2    3.03    0.82
  -5  -3  -2    2.37    0.58
  -5  -3  -2    2.84    0.53
   5   3   2    3.00    0.58
   5   3   2    4.01    0.66
   5   3   2    2.76    0.73
  -6  -3  -2   -0.47    0.69
  -6  -3  -2   -0.73    0.43
  -6  -3  -2   -0.14    0.63
  -6  -3  -2    0.04    0.47
  -6  -3  -2    0.22    0.47
   6   3   2   -0.07    0.48
   6   3   2   -0.14    0.42
   6   3   2    0.29    0.34
   6   3   2   -0.02    0.50
   6   3   2   -0.55    0.58
  -7  -3  -2   41.64    2.68
  -7  -3  -2   36.94    3.03
  -7  -3  -2   37.30    2.62
  -7  -3  -2   34.74    2.76
   7   3   2   41.24    3.19
   7   3   2   40.74    2.58
   7   3   2   40.31    2.24
   7   3   2   37.27    2.64
   7   3   2   36.52    2.29
  -8  -3  -2   46.77    2.63
  -8  -3  -2   41.83    3.00
  -8  -3  -2   44.15    3.09
  -8  -3  -2   43.48    3.03
  -8  -3  -2   46.00    3.55
   8   3   2   42.19    3.70
   8   3   2   48.85    3.02
  -9  -3  -2    9.65    1.10
  -9  -3  -2    7.52    1.33
  -9  -3  -2    7.76    1.32
  -9  -3  -2    9.43    1.38
   9   3   2    9.40    1.46
   9   3   2    7.19    1.95
 -10  -3  -2    1.52    0.69
 -10  -3  -2    3.00    2.00
 -10  -3  -2    1.34    1.20
 -10  -3  -2    0.87    1.27
 -10  -3  -2    1.53    1.08
  10   3   2    4.04    1.97
  10   3   2    3.05    0.99
 -11  -3  -2    1.58    1.45
 -11  -3  -2    4.40    2.58
 -11  -3  -2    3.12    0.93
  11   3   2    2.03    2.15
 -12  -3  -2   -0.64    1.85
 -12  -3  -2   -5.38    3.31
 -12  -3  -2   -1.84    4.07
  12   3   2    1.67    2.28
  10  -4  -2    7.28    2.79
 -10   4   2    6.33    1.57
 -10   4   2    3.89    4.50
   9  -4  -2    0.11    1.86
  -9   4   2   -2.54    3.31
  -9   4   2   -1.53    1.98
  -9   4   2    1.66    1.04
  -9   4   2   -0.10    1.10
   8  -4  -2   32.67    2.56
   8  -4  -2   18.16    3.28
  -8   4   2   30.06    2.13
  -8   4   2   25.41    4.02
  -8   4   2   24.09    2.95
  -8   4   2   20.96    2.02
   7  -4  -2   11.07    1.70
   7  -4  -2   10.04    2.22
  -7   4   2   13.53    1.90
  -7   4   2   15.00    1.32
  -7   4   2    9.34    1.26
  -7   4   2   11.16    2.60
   6  -4  -2   -0.09    0.73
  -6   4   2   -1.38    1.26
  -6   4   2   -0.46    0.36
  -6   4   2    0.04    0.43
  -6   4   2    0.82    0.46
  -6   4   2   -0.31    0.85
  -6   4   2   -0.39    0.38
   5  -4  -2   83.29    4.99
   5  -4  -2  100.64    5.83
  -5   4   2   83.23    4.60
  -5   4   2   85.23    4.57
  -5   4   2   81.87    5.91
  -5   4   2   91.66    5.08
   4  -4  -2   29.58    2.04
   4  -4  -2   24.94    2.38
  -4   4   2   27.02    1.75
  -4   4   2   30.23    1.71
  -4   4   2   28.55    2.85
  -4   4   2   27.61    1.60
  -4   4   2   27.58    2.03
   3  -4  -2   16.24    1.83
   3  -4  -2   19.49    1.56
  -3   4   2   20.28    1.37
  -3   4   2   18.01    2.10
  -3   4   2   21.31    1.22
  -3   4   2   20.54    1.55
   2  -4  -2    0.39    0.52
   2  -4  -2    0.50    0.21
   2  -4  -2    0.21    0.38
  -2   4   2    0.08    0.66
  -2   4   2    0.10    0.32
   1  -4  -2   17.94    1.70
   1  -4  -2   16.96    1.32
   1  -4  -2   15.19    0.98
  -1   4   2   16.69    1.55
  -1   4   2   16.69    1.21
  -1   4   2   15.92    1.66
   0  -4  -2    0.63    0.13
   0  -4  -2    0.72    0.37
   0  -4  -2    0.80    0.51
   0   4   2    0.94    0.59
   0   4   2    1.30    0.67
   0   4   2    0.42    0.33
  -1  -4  -2   11.32    1.26
  -1  -4  -2   11.83    0.76
   1   4   2   12.26    0.99
   1   4   2   10.88    0.73
   1   4   2   11.71    1.30
  -2  -4  -2    1.67    0.50
  -2  -4  -2    2.05    0.68
  -2  -4  -2    2.04    0.36
   2   4   2    2.33    0.40
   2   4   2    2.23    0.34
   2   4   2    2.33    0.69
   2   4   2    2.17    0.51
   2   4   2    2.04    0.66
  -3  -4  -2    0.80    0.29
  -3  -4  -2    1.25    0.44
  -3  -4  -2    0.49    0.23
  -3  -4  -2    0.86    0.49
   3   4   2    0.51    0.55
   3   4   2    0.98    0.27
   3   4   2    1.21    0.36
   3   4   2    0.76    0.38
   3   4   2    0.92    0.47
  -4  -4  -2   46.54    2.82
  -4  -4  -2   41.96    2.64
  -4  -4  -2   49.27    3.13
  -4  -4  -2   48.51    3.06
  -4  -4  -2   46.01    2.59
   4   4   2   43.29    3.03
   4   4   2   43.39    3.03
   4   4   2   44.65    2.61
   4   4   2   45.99    2.67
   4   4   2   45.27    2.79
  -5  -4  -2   36.16    2.20
  -5  -4  -2   37.76    2.75
  -5  -4  -2   34.59    2.24
  -5  -4  -2   34.22    2.63
  -5  -4  -2   31.02    2.31
   5   4   2   34.36    2.35
   5   4   2   37.72    2.27
   5   4   2   36.08    2.63
  -6  -4  -2   28.69    1.99
  -6  -4  -2   28.32    2.50
  -6  -4  -2   27.50    2.04
  -6  -4  -2   33.42    2.19
  -6  -4  -2   28.61    2.48
   6   4   2   27.84    2.31
   6   4   2   28.17    2.04
   6   4   2   28.25    2.10
  -7  -4  -2    2.01    0.68
  -7  -4  -2    0.62    0.63
  -7  -4  -2    0.12    1.03
  -7  -4  -2    1.10    0.66
  -7  -4  -2    0.70    1.14
   7   4   2    0.19    0.65
   7   4   2    1.12    0.62
   7   4   2    0.59    0.86
  -8  -4  -2    5.72    1.67
  -8  -4  -2    4.36    1.02
  -8  -4  -2    1.79    1.18
  -8  -4  -2    3.36    0.98
  -8  -4  -2    3.80    0.99
   8   4   2    3.60    1.18
   8   4   2    4.63    1.05
   8   4   2    3.97    1.01
   8   4   2    3.55    0.85
   8   4   2    3.71    0.74
  -9  -4  -2   90.22    4.83
  -9  -4  -2   89.60    5.51
  -9  -4  -2   95.02    6.42
  -9  -4  -2   90.48    6.25
  -9  -4  -2   87.12    5.34
  -9  -4  -2   95.47    5.51
   9   4   2   93.72    5.36
   9   4   2   90.65    5.49
   9   4   2   83.99    6.32
 -10  -4  -2   -2.98    1.85
 -10  -4  -2    1.11    1.04
 -10  -4  -2    1.98    2.10
 -10  -4  -2   -0.57    0.52
 -10  -4  -2   -0.01    0.99
 -10  -4  -2    2.48    1.23
  10   4   2    0.91    1.03
  10   4   2   -1.73    1.68
 -11  -4  -2    7.23    1.78
 -11  -4  -2   13.21    3.27
 -11  -4  -2    0.71    2.61
 -11  -4  -2    6.96    0.99
  11   4   2    7.66    1.71
  11   4   2    1.81    2.04
 -12  -4  -2    6.08    3.64
 -12  -4  -2    6.45    4.01
 -12  -4  -2    4.01    1.97
  12   4   2    0.89    2.44
   9  -5  -2    0.55    2.34
  -9   5   2    2.56    2.55
  -9   5   2   -0.29    3.93
  -9   5   2    0.86    1.01
   8  -5  -2    3.96    2.38
   8  -5  -2    5.96    1.52
  -8   5   2    3.39    2.00
  -8   5   2    3.38    1.02
  -8   5   2    3.21    0.87
  -8   5   2    7.73    1.98
  -8   5   2    3.64    3.13
   7  -5  -2    6.01    2.13
   7  -5  -2    5.34    1.47
  -7   5   2    5.75    0.72
  -7   5   2    5.37    0.81
  -7   5   2    6.72    1.00
  -7   5   2    5.74    1.62
  -7   5   2    6.90    2.76
  -7   5   2    7.64    1.60
  -7   5   2    5.85    0.97
   6  -5  -2    8.32    2.08
   6  -5  -2    9.38    1.54
  -6   5   2    9.18    1.12
  -6   5   2   10.53    2.88
  -6   5   2    9.85    0.98
  -6   5   2   10.23    1.63
  -6   5   2   11.60    1.24
  -6   5   2   11.47    1.17
   5  -5  -2    1.46    1.12
   5  -5  -2    1.28    0.80
  -5   5   2    2.35    0.63
  -5   5   2    2.11    0.55
  -5   5   2    2.00    0.91
  -5   5   2    1.56    1.48
  -5   5   2    3.59    0.53
   4  -5  -2   17.80    2.02
   4  -5  -2   14.91    1.57
  -4   5   2   13.16    1.09
  -4   5   2   18.15    2.59
  -4   5   2   15.78    1.55
  -4   5   2   16.56    1.34
   3  -5  -2   56.98    3.92
   3  -5  -2   59.02    3.57
  -3   5   2   55.50    3.28
  -3   5   2   55.19    4.14
   2  -5  -2   13.06    0.92
   2  -5  -2   12.40    1.55
   2  -5  -2   10.82    1.20
  -2   5   2   10.15    1.69
  -2   5   2   13.13    1.17
   1  -5  -2    4.47    0.51
   1  -5  -2    5.67    1.22
   1  -5  -2    3.75    0.73
  -1   5   2    3.74    1.03
  -1   5   2    5.49    0.80
   0  -5  -2  185.87   10.46
   0  -5  -2  199.11   10.00
   0  -5  -2  212.07   10.97
   0   5   2  202.28   10.45
   0   5   2  208.53   10.96
  -1  -5  -2   36.28    2.61
  -1  -5  -2   36.10    1.87
  -1  -5  -2   32.82    2.17
   1   5   2   33.81    1.83
   1   5   2   34.07    2.58
   1   5   2   29.97    2.16
  -2  -5  -2   60.33    3.42
  -2  -5  -2   63.53    3.84
  -2  -5  -2   57.48    3.18
   2   5   2   57.88    3.80
   2   5   2   55.35    3.09
   2   5   2   59.43    3.20
   2   5   2   62.06    3.84
   2   5   2   58.72    3.49
  -3  -5  -2   29.40    2.27
  -3  -5  -2   29.69    1.64
  -3  -5  -2   26.59    1.73
   3   5   2   28.56    1.75
   3   5   2   28.81    2.33
   3   5   2   25.59    1.93
   3   5   2   28.18    2.35
   3   5   2   27.28    1.64
  -4  -5  -2   27.49    2.05
  -4  -5  -2   29.31    2.45
  -4  -5  -2   31.18    2.43
  -4  -5  -2   28.05    1.86
  -4  -5  -2   30.45    1.77
   4   5   2   30.07    1.90
   4   5   2   28.22    2.04
   4   5   2   28.09    2.40
   4   5   2   28.38    2.38
  -5  -5  -2    5.32    0.81
  -5  -5  -2    5.64    0.78
  -5  -5  -2    6.37    1.05
  -5  -5  -2    7.15    1.29
  -5  -5  -2    7.42    1.33
   5   5   2    6.10    1.01
   5   5   2    5.22    1.22
   5   5   2    7.12    0.91
  -6  -5  -2    0.12    0.67
  -6  -5  -2    0.63    0.43
  -6  -5  -2    0.76    0.76
  -6  -5  -2    2.30    1.11
  -6  -5  -2    0.67    0.51
   6   5   2    1.34    0.60
   6   5   2    1.37    0.57
   6   5   2    0.51    0.81
  -7  -5  -2   26.42    2.86
  -7  -5  -2   24.08    2.73
  -7  -5  -2   30.24    2.27
  -7  -5  -2   28.99    2.06
  -7  -5  -2   26.75    2.11
   7   5   2   28.60    2.55
   7   5   2   25.18    2.15
   7   5   2   28.11    2.16
  -8  -5  -2    5.09    1.06
  -8  -5  -2    6.76    1.15
  -8  -5  -2    8.16    1.86
  -8  -5  -2    7.23    1.71
  -8  -5  -2    8.16    1.30
   8   5   2    7.27    1.18
   8   5   2    6.04    1.20
   8   5   2    5.51    1.34
  -9  -5  -2    0.96    1.07
  -9  -5  -2    1.36    0.43
  -9  -5  -2    2.79    1.86
  -9  -5  -2    1.55    0.96
  -9  -5  -2    3.38    1.65
   9   5   2    2.14    1.41
   9   5   2    2.42    1.05
   9   5   2    2.68    1.07
   9   5   2    3.46    1.10
 -10  -5  -2    2.14    2.15
 -10  -5  -2    1.73    2.21
 -10  -5  -2    2.40    1.21
 -10  -5  -2   -0.57    1.09
  10   5   2   -1.14    1.62
  10   5   2   -0.73    1.15
  10   5   2    1.63    0.98
  10   5   2   -0.49    1.02
  10   5   2   -0.13    0.74
 -11  -5  -2   16.56    3.56
 -11  -5  -2   19.27    2.86
 -11  -5  -2   16.43    2.92
 -11  -5  -2   32.72    5.19
  11   5   2   18.35    3.59
 -12  -5  -2   13.85    4.19
 -12  -5  -2   27.93    5.18
 -12  -5  -2   20.36    2.76
  12   5   2   11.69    3.15
  12   5   2   12.61    2.61
  13   5   2    2.06    2.69
   9  -6  -2    0.59    2.81
  -9   6   2   -1.35    4.47
   8  -6  -2   11.32    2.08
   8  -6  -2    7.42    2.81
  -8   6   2    0.24    3.50
  -8   6   2   10.15    2.30
  -8   6   2    7.76    2.53
   7  -6  -2   22.80    3.53
   7  -6  -2   16.99    2.66
  -7   6   2   17.84    1.74
  -7   6   2   19.12    1.88
  -7   6   2   21.11    2.91
  -7   6   2   16.96    2.43
  -7   6   2   20.98    3.91
   6  -6  -2    0.06    1.47
  -6   6   2   -0.55    0.77
  -6   6   2    1.85    2.12
  -6   6   2    0.28    1.07
  -6   6   2   -0.53    1.18
   5  -6  -2   41.87    3.86
   5  -6  -2   39.33    3.07
  -5   6   2   36.77    4.16
  -5   6   2   42.70    2.74
  -5   6   2   41.87    3.12
   4  -6  -2   88.05    5.47
   4  -6  -2   89.19    6.11
  -4   6   2   89.23    6.35
  -4   6   2   97.31    5.21
  -4   6   2   97.31    5.40
   3  -6  -2   62.30    3.94
   3  -6  -2   56.99    3.44
   3  -6  -2   68.71    4.55
  -3   6   2   61.99    4.75
  -3   6   2   64.69    3.74
   2  -6  -2   27.58    1.74
   2  -6  -2   29.38    2.18
  -2   6   2   26.74    2.03
  -2   6   2   27.79    2.88
   1  -6  -2   66.72    3.68
   1  -6  -2   73.62    4.72
   1  -6  -2   69.72    4.08
  -1   6   2   63.45    3.96
  -1   6   2   66.13    4.67
   0  -6  -2    0.22    0.32
   0  -6  -2   -0.32    0.73
   0  -6  -2    0.65    0.51
   0   6   2    0.43    0.87
   0   6   2   -0.14    0.54
  -1  -6  -2   22.05    1.71
  -1  -6  -2   21.46    2.11
  -1  -6  -2   21.24    1.25
   1   6   2   21.45    1.70
   1   6   2   22.02    1.20
   1   6   2   17.73    2.07
  -2  -6  -2   18.59    1.22
  -2  -6  -2   21.80    1.59
  -2  -6  -2   18.73    1.99
   2   6   2   17.88    2.07
   2   6   2   18.48    2.04
   2   6   2   18.65    1.09
   2   6   2   16.75    1.57
   2   6   2   18.40    1.24
  -3  -6  -2   56.85    3.34
  -3  -6  -2   61.44    3.55
  -3  -6  -2   60.65    4.11
   3   6   2   55.47    4.09
   3   6   2   64.45    3.74
   3   6   2   60.76    3.21
   3   6   2   61.53    4.17
   3   6   2   61.46    3.38
  -4  -6  -2    3.78    0.60
  -4  -6  -2    4.64    0.56
  -4  -6  -2    4.71    1.22
  -4  -6  -2    5.42    0.85
   4   6   2    3.85    0.80
   4   6   2    4.18    1.14
   4   6   2    3.61    1.11
   4   6   2    4.13    0.71
  -5  -6  -2    5.36    1.38
  -5  -6  -2    3.61    0.68
  -5  -6  -2    5.91    1.37
  -5  -6  -2    4.00    0.63
   5   6   2    4.20    0.83
   5   6   2    6.36    1.36
   5   6   2    3.12    1.19
   5   6   2    4.68    0.83
  -6  -6  -2    7.44    1.50
  -6  -6  -2    8.02    1.11
  -6  -6  -2    8.71    0.99
   6   6   2    8.24    1.30
   6   6   2    8.52    1.75
   6   6   2    8.17    1.14
  -7  -6  -2   14.80    2.82
  -7  -6  -2   15.77    2.36
  -7  -6  -2   15.11    1.55
  -7  -6  -2   15.85    1.52
   7   6   2   18.63    2.41
   7   6   2   14.59    1.79
   7   6   2   16.03    1.69
  -8  -6  -2   31.77    3.65
  -8  -6  -2   34.22    2.55
  -8  -6  -2   38.14    3.64
  -8  -6  -2   35.73    2.68
   8   6   2   37.88    2.84
   8   6   2   34.35    2.67
   8   6   2   34.05    3.24
  -9  -6  -2    8.50    2.30
  -9  -6  -2    6.71    1.25
  -9  -6  -2    7.61    2.03
  -9  -6  -2    6.38    1.19
   9   6   2   11.87    1.91
   9   6   2    7.13    1.82
   9   6   2    8.54    1.58
 -10  -6  -2   15.46    3.10
 -10  -6  -2   13.78    2.91
 -10  -6  -2   11.89    1.89
 -10  -6  -2   11.38    1.85
  10   6   2   12.86    1.97
  10   6   2   11.95    2.07
  10   6   2   19.50    2.40
  10   6   2   12.80    2.68
 -11  -6  -2    1.94    1.64
 -11  -6  -2    3.08    2.97
 -11  -6  -2   -1.89    2.80
 -11  -6  -2    3.83    1.54
  11   6   2   -2.26    1.53
  11   6   2    2.57    1.13
  11   6   2    2.77    1.41
  11   6   2    1.71    1.89
 -12  -6  -2    4.51    2.18
  12   6   2    1.84    1.97
  12   6   2    1.75    2.88
   8  -7  -2    0.64    2.39
  -8   7   2   -0.99    4.02
   7  -7  -2    3.13    2.55
   7  -7  -2    1.61    1.78
  -7   7   2    3.52    1.28
  -7   7   2    3.28    2.06
  -7   7   2    7.09    3.36
  -7   7   2    4.63    1.39
  -7   7   2    2.89    1.84
   6  -7  -2    3.87    2.25
   6  -7  -2    1.76    1.56
  -6   7   2    3.54    1.21
  -6   7   2    4.20    1.46
  -6   7   2    3.50    1.69
  -6   7   2    4.68    2.92
   5  -7  -2   -0.51    1.69
   5  -7  -2    1.43    1.22
  -5   7   2    0.67    1.99
  -5   7   2    0.74    0.98
  -5   7   2    0.55    0.92
   4  -7  -2   17.90    2.04
  -4   7   2   19.19    1.80
  -4   7   2   20.01    1.97
   3  -7  -2    4.51    0.76
   3  -7  -2    4.95    1.18
  -3   7   2    8.05    2.07
  -3   7   2    4.84    1.11
   2  -7  -2    1.00    0.82
   2  -7  -2    1.81    0.57
  -2   7   2    0.65    1.42
  -2   7   2    2.18    0.78
   1  -7  -2   28.43    1.88
   1  -7  -2   31.13    3.16
   1  -7  -2   27.19    2.25
  -1   7   2   29.54    2.27
  -1   7   2   26.79    2.98
   0  -7  -2    0.34    0.37
   0  -7  -2    0.94    0.68
   0   7   2    0.64    1.14
   0   7   2    0.97    0.67
  -1  -7  -2   17.09    2.24
  -1  -7  -2   14.62    1.56
  -1  -7  -2   18.84    1.04
   1   7   2   16.29    1.66
   1   7   2   19.27    2.38
   1   7   2   15.38    0.92
   1   7   2   14.82    2.08
  -2  -7  -2   35.21    2.70
  -2  -7  -2   44.95    2.41
  -2  -7  -2   42.76    3.47
   2   7   2   47.26    2.95
   2   7   2   42.79    2.42
   2   7   2   39.97    3.47
   2   7   2   44.27    3.43
  -3  -7  -2   31.49    2.91
  -3  -7  -2   32.74    2.00
  -3  -7  -2   26.23    2.18
   3   7   2   39.23    2.53
   3   7   2   31.95    2.01
   3   7   2   32.61    3.00
   3   7   2   31.94    2.91
  -4  -7  -2    1.32    0.64
  -4  -7  -2    1.15    1.07
  -4  -7  -2    1.54    0.35
  -4  -7  -2    2.35    0.53
   4   7   2    1.41    0.53
   4   7   2    3.39    1.37
   4   7   2    2.34    0.80
   4   7   2    1.18    1.02
  -5  -7  -2    4.56    0.65
  -5  -7  -2    4.38    0.83
  -5  -7  -2    4.37    0.76
  -5  -7  -2    4.79    1.42
   5   7   2    5.31    1.50
   5   7   2    7.09    1.65
   5   7   2    6.59    0.95
  -6  -7  -2    3.41    0.72
  -6  -7  -2    0.98    1.31
  -6  -7  -2    1.93    0.55
  -6  -7  -2   -0.32    1.37
  -6  -7  -2    2.25    0.63
   6   7   2    2.66    1.50
   6   7   2    0.81    0.74
   6   7   2    2.28    0.82
  -7  -7  -2   18.91    1.49
  -7  -7  -2   13.37    2.22
  -7  -7  -2   16.07    1.70
  -7  -7  -2   14.72    1.47
  -7  -7  -2   17.76    2.63
   7   7   2   13.96    2.36
   7   7   2   18.70    1.96
   7   7   2   15.46    1.74
  -8  -7  -2    0.69    0.74
  -8  -7  -2    3.49    1.78
  -8  -7  -2    0.33    0.79
  -8  -7  -2    2.42    1.71
   8   7   2    2.18    1.61
   8   7   2    2.80    0.99
   8   7   2    0.74    0.89
  -9  -7  -2    2.86    1.16
  -9  -7  -2    5.80    2.33
  -9  -7  -2    4.78    0.76
  -9  -7  -2    6.68    1.18
  -9  -7  -2    2.61    2.27
   9   7   2    4.14    1.84
   9   7   2    1.97    1.32
   9   7   2    2.17    1.27
 -10  -7  -2    1.21    2.56
 -10  -7  -2    4.76    1.43
 -10  -7  -2    3.73    1.34
 -10  -7  -2   -2.14    2.38
  10   7   2    5.14    1.53
  10   7   2    4.38    1.98
  10   7   2    6.35    1.58
 -11  -7  -2   -2.50    3.82
 -11  -7  -2    9.13    1.95
 -11  -7  -2    6.47    3.36
 -11  -7  -2    6.98    1.81
  11   7   2    8.75    2.07
  11   7   2    4.36    2.29
  11   7   2    9.48    2.57
 -12  -7  -2   17.23    2.66
  12   7   2   16.40    3.59
  12   7   2   10.10    2.37
  12   7   2    2.74    2.90
   7  -8  -2   -0.42    2.03
  -7   8   2    5.14    4.73
  -7   8   2   -1.02    2.32
  -6   8   2   -1.54    1.99
  -6   8   2    5.14    1.43
  -6   8   2   -1.79    3.49
  -6   8   2    4.34    1.84
   5  -8  -2    1.05    1.45
  -5   8   2    6.04    2.88
  -5   8   2    2.18    1.42
  -5   8   2    2.55    1.61
  -5   8   2    1.20    1.20
   4  -8  -2   13.76    2.17
  -4   8   2   10.95    2.74
  -4   8   2   13.43    1.70
  -4   8   2   15.81    2.15
   3  -8  -2    0.32    0.99
   3  -8  -2    2.98    0.79
  -3   8   2    1.57    0.68
  -3   8   2    2.46    1.10
  -3   8   2    1.44    2.04
   2  -8  -2   13.75    1.31
   2  -8  -2   12.08    1.85
  -2   8   2   13.45    1.84
  -2   8   2   12.06    2.64
  -2   8   2   12.45    1.19
   1  -8  -2   52.22    3.06
   1  -8  -2   55.74    4.37
   1  -8  -2   46.68    3.51
  -1   8   2   43.21    4.38
  -1   8   2   53.32    3.49
  -1   8   2   48.99    2.75
   0  -8  -2   39.11    3.74
   0  -8  -2   39.94    2.71
   0  -8  -2   27.69    2.19
   0   8   2   35.80    3.64
   0   8   2   35.50    2.70
   0   8   2   32.95    1.79
  -1  -8  -2   16.10    1.72
  -1  -8  -2   18.23    2.55
   1   8   2   13.93    2.41
   1   8   2   13.51    1.80
   1   8   2   17.03    2.64
  -2  -8  -2   44.37    3.79
  -2  -8  -2   45.26    3.03
  -2  -8  -2   48.95    2.58
   2   8   2   45.42    2.58
   2   8   2   45.68    3.80
   2   8   2   39.98    3.08
   2   8   2   44.20    3.88
  -3  -8  -2    6.74    1.66
  -3  -8  -2    5.97    0.78
  -3  -8  -2    5.29    0.99
   3   8   2    5.75    1.61
   3   8   2    8.47    1.41
   3   8   2    6.71    1.74
   3   8   2    6.91    0.84
  -4  -8  -2    1.09    0.47
  -4  -8  -2   -0.01    0.63
  -4  -8  -2    1.82    1.33
   4   8   2    1.03    1.31
   4   8   2    0.09    0.45
   4   8   2    2.16    1.36
   4   8   2    1.43    0.87
  -5  -8  -2    5.07    0.69
  -5  -8  -2    4.06    0.79
  -5  -8  -2    2.94    0.82
  -5  -8  -2    5.34    1.63
   5   8   2    4.09    0.82
   5   8   2    5.69    1.64
   5   8   2    4.01    1.64
   5   8   2    5.71    1.17
  -6  -8  -2    5.76    1.83
  -6  -8  -2    5.30    0.78
  -6  -8  -2    7.02    1.03
  -6  -8  -2    5.54    0.98
   6   8   2    5.48    1.73
   6   8   2    6.15    2.02
   6   8   2    5.35    1.00
   6   8   2    7.21    1.37
  -7  -8  -2   53.18    3.46
  -7  -8  -2   53.61    4.61
  -7  -8  -2   49.20    3.21
  -7  -8  -2   52.92    3.19
   7   8   2   52.08    4.58
   7   8   2   54.62    3.56
   7   8   2   51.55    3.82
  -8  -8  -2   -1.09    1.87
  -8  -8  -2    0.66    0.72
  -8  -8  -2   -0.29    0.57
  -8  -8  -2    2.30    1.86
   8   8   2    0.62    1.62
   8   8   2   -0.80    0.94
   8   8   2   -1.45    1.14
  -9  -8  -2   -1.78    2.09
  -9  -8  -2   -0.40    1.15
  -9  -8  -2    0.21    0.93
  -9  -8  -2    0.00    0.64
  -9  -8  -2   -1.62    2.05
   9   8   2    2.09    2.07
   9   8   2    1.26    1.23
   9   8   2   -1.32    1.40
 -10  -8  -2   -1.13    2.70
 -10  -8  -2    3.74    2.94
 -10  -8  -2    0.03    1.35
  10   8   2    1.32    2.55
  10   8   2    1.48    1.64
  10   8   2    4.85    1.87
 -11  -8  -2    1.08    1.71
 -11  -8  -2   -1.23    1.72
  11   8   2   -2.70    3.18
  11   8   2   -2.81    1.95
 -12  -8  -2    3.55    2.32
  12   8   2    4.81    2.70
  12   8   2    9.99    2.70
  12   8   2    0.35    1.86
   6  -9  -2    3.45    2.47
  -6   9   2    4.97    4.26
   5  -9  -2   -0.70    1.67
  -5   9   2    1.39    2.05
  -5   9   2    2.46    1.36
  -5   9   2    2.17    3.50
  -5   9   2   -1.91    1.77
   4  -9  -2   -1.11    1.38
  -4   9   2   -1.23    2.75
  -4   9   2    1.23    1.05
  -4   9   2    0.14    1.47
   3  -9  -2   -1.13    1.25
   3  -9  -2    0.35    0.80
  -3   9   2   -3.23    2.25
  -3   9   2    3.71    1.45
  -3   9   2   -0.01    0.71
   2  -9  -2    2.20    0.78
   2  -9  -2    1.43    1.19
  -2   9   2    4.25    1.25
  -2   9   2    1.20    0.53
  -2   9   2   -0.04    2.01
   1  -9  -2    7.18    1.11
   1  -9  -2    4.25    2.24
   1  -9  -2    7.98    1.60
  -1   9   2    7.78    0.69
  -1   9   2    8.09    1.64
  -1   9   2    7.34    2.36
   0  -9  -2    0.05    0.86
   0  -9  -2    0.15    0.62
   0  -9  -2    1.73    1.71
   0   9   2   -1.06    1.50
   0   9   2    0.45    1.07
   0   9   2   -0.10    1.55
  -1  -9  -2   11.78    2.51
  -1  -9  -2    7.17    1.48
  -1  -9  -2    9.13    1.21
   1   9   2    8.48    2.12
   1   9   2    8.74    1.99
   1   9   2    6.08    1.33
  -2  -9  -2   19.72    3.13
  -2  -9  -2   19.19    1.96
  -2  -9  -2   19.96    1.33
   2   9   2   19.31    2.26
   2   9   2   21.27    3.25
   2   9   2   16.73    2.76
  -3  -9  -2   21.68    3.19
  -3  -9  -2   20.66    1.57
  -3  -9  -2   21.76    2.06
   3   9   2   20.55    1.55
   3   9   2   21.96    2.37
   3   9   2   21.39    3.15
   3   9   2   17.64    2.92
  -4  -9  -2    0.35    1.48
  -4  -9  -2    0.83    0.78
  -4  -9  -2    0.26    0.52
   4   9   2    0.94    1.58
   4   9   2   -0.26    1.37
   4   9   2    0.56    1.08
   4   9   2    0.08    0.55
  -5  -9  -2    3.11    0.78
  -5  -9  -2    5.49    1.91
  -5  -9  -2    1.88    0.86
   5   9   2    1.11    0.85
   5   9   2    3.63    1.84
   5   9   2    2.82    1.21
   5   9   2    2.20    1.57
  -6  -9  -2    3.74    0.63
  -6  -9  -2    3.02    0.83
  -6  -9  -2    3.31    0.91
  -6  -9  -2    2.40    1.91
   6   9   2    2.31    1.91
   6   9   2    3.04    1.06
   6   9   2    2.70    1.97
   6   9   2    3.49    1.27
  -7  -9  -2    1.56    0.89
  -7  -9  -2   -0.75    0.70
   7   9   2    0.98    2.28
   7   9   2    1.38    1.00
   7   9   2   -1.00    1.28
  -8  -9  -2   16.47    1.99
  -8  -9  -2   13.36    1.56
  -8  -9  -2   10.52    1.61
  -8  -9  -2   16.54    2.97
   8   9   2   14.53    1.96
   8   9   2   11.34    1.94
   8   9   2   15.40    3.03
  -9  -9  -2    0.42    2.78
  -9  -9  -2   -1.41    2.48
  -9  -9  -2    4.60    1.14
  -9  -9  -2    4.48    1.35
   9   9   2    1.23    1.71
   9   9   2    1.83    2.42
 -10  -9  -2    5.94    1.48
 -10  -9  -2    0.98    3.52
 -10  -9  -2    5.46    1.54
 -10  -9  -2    4.65    0.80
  10   9   2    0.06    1.97
  10   9   2    3.35    2.76
 -11  -9  -2    3.19    1.88
 -11  -9  -2    1.26    1.86
  11   9   2    2.85    2.52
  11   9   2    1.57    3.12
 -12  -9  -2    4.65    2.44
  12   9   2    5.16    3.67
   5 -10  -2   -0.12    2.29
  -5  10   2    1.72    4.55
   4 -10  -2    4.59    1.88
  -4  10   2    6.85    2.34
  -4  10   2   12.12    4.03
   3 -10  -2    0.28    1.54
   3 -10  -2   -0.48    1.07
  -3  10   2    3.96    3.26
  -3  10   2   -0.63    0.76
  -3  10   2   -1.31    1.76
   2 -10  -2    3.62    1.09
   2 -10  -2    1.70    1.55
  -2  10   2    2.08    1.63
  -2  10   2    3.39    2.78
  -2  10   2    5.90    2.44
  -2  10   2    2.14    0.51
   1 -10  -2   -1.36    2.35
   1 -10  -2    3.18    1.02
   1 -10  -2    3.49    1.51
  -1  10   2    3.25    2.26
  -1  10   2    3.32    1.50
  -1  10   2    3.74    2.64
   0 -10  -2   11.49    1.65
   0 -10  -2    9.79    1.83
   0 -10  -2   18.73    3.12
   0  10   2   14.03    2.77
   0  10   2   12.14    2.02
   0  10   2   10.01    2.83
  -1 -10  -2    9.81    1.69
  -1 -10  -2    7.54    1.28
  -1 -10  -2   10.28    3.11
   1  10   2    6.76    2.18
   1  10   2   11.97    2.78
  -2 -10  -2   17.50    1.88
  -2 -10  -2   21.25    3.45
   2  10   2   19.70    2.65
   2  10   2   17.84    3.07
   2  10   2   20.00    3.25
  -3 -10  -2   11.55    2.94
  -3 -10  -2    9.73    1.11
  -3 -10  -2    8.82    1.60
   3  10   2    8.53    1.93
   3  10   2    7.09    2.37
   3  10   2    8.84    1.17
  -4 -10  -2   10.24    2.42
  -4 -10  -2   12.35    1.89
  -4 -10  -2    9.01    1.25
   4  10   2   13.32    2.16
   4  10   2    7.21    2.42
   4  10   2    7.47    2.39
   4  10   2   10.69    1.43
  -5 -10  -2   11.95    1.59
  -5 -10  -2   17.40    1.95
  -5 -10  -2   12.56    2.78
   5  10   2   14.15    2.15
   5  10   2   12.28    2.69
   5  10   2   15.66    3.01
   5  10   2   15.42    1.68
  -6 -10  -2    6.34    1.17
  -6 -10  -2    5.61    1.28
  -6 -10  -2    6.21    2.68
   6  10   2    1.97    2.32
   6  10   2    3.86    2.49
   6  10   2    6.72    1.23
   6  10   2    6.37    1.60
  -7 -10  -2    4.23    1.12
  -7 -10  -2    5.13    1.19
  -7 -10  -2    7.83    2.44
  -7 -10  -2    4.21    0.81
   7  10   2    7.83    1.85
   7  10   2    4.02    1.30
   7  10   2    3.91    2.79
  -8 -10  -2    1.97    0.85
  -8 -10  -2   -2.14    2.62
  -8 -10  -2    2.22    1.21
  -8 -10  -2    1.20    1.00
   8  10   2    4.34    1.43
   8  10   2    3.95    2.96
   8  10   2   -1.28    1.81
  -9 -10  -2   15.55    1.84
  -9 -10  -2   11.99    1.87
  -9 -10  -2   15.64    2.01
   9  10   2   16.45    3.61
   9  10   2    9.39    2.58
   9  10   2   17.57    2.46
 -10 -10  -2   11.56    1.65
 -10 -10  -2   10.85    1.89
 -10 -10  -2   14.73    2.35
  10  10   2   10.20    3.80
 -11 -10  -2    8.40    2.13
  11  10   2    8.84    4.04
   3 -11  -2    6.11    2.11
   3 -11  -2    4.42    1.52
  -3  11   2    1.69    3.50
  -3  11   2    2.52    4.30
  -3  11   2   -5.10    2.43
   2 -11  -2    1.72    1.40
   2 -11  -2    0.15    1.80
  -2  11   2    4.79    3.11
  -2  11   2    2.38    3.51
   1 -11  -2    0.62    1.60
   1 -11  -2    1.63    1.19
  -1  11   2    0.88    3.19
  -1  11   2   -0.37    1.92
  -1  11   2   -0.76    2.68
   0 -11  -2    9.22    1.55
   0 -11  -2    7.45    1.80
   0  11   2    9.34    3.41
   0  11   2    6.20    2.61
   0  11   2    3.58    2.04
  -1 -11  -2   -0.05    1.26
  -1 -11  -2    0.62    1.03
   1  11   2   -1.48    1.70
   1  11   2   -1.48    2.37
   1  11   2   -1.82    2.39
  -2 -11  -2    2.45    1.10
  -2 -11  -2    1.98    1.46
  -2 -11  -2    5.03    2.98
   2  11   2    5.66    2.44
   2  11   2   -0.51    1.79
   2  11   2    2.79    2.67
  -3 -11  -2   -0.24    1.28
  -3 -11  -2    0.09    2.79
   3  11   2    0.84    2.51
   3  11   2    0.05    2.33
   3  11   2    2.11    1.62
  -4 -11  -2    0.21    2.55
  -4 -11  -2    0.49    1.17
  -4 -11  -2    4.01    0.90
   4  11   2    2.54    0.95
   4  11   2    2.48    2.30
   4  11   2    0.11    2.27
   4  11   2    5.65    1.85
  -5 -11  -2    0.57    2.57
  -5 -11  -2    0.99    0.83
  -5 -11  -2   -0.13    1.29
   5  11   2   -0.71    2.21
   5  11   2    5.17    2.04
   5  11   2    2.60    1.09
   5  11   2    1.51    2.30
  -6 -11  -2    4.04    2.99
  -6 -11  -2    3.67    1.12
  -6 -11  -2    3.26    1.34
   6  11   2    2.89    1.76
   6  11   2    3.43    3.08
   6  11   2    4.20    2.80
   6  11   2    3.03    1.21
  -7 -11  -2   12.08    4.48
  -7 -11  -2    8.37    1.56
  -7 -11  -2    7.25    1.51
   7  11   2   10.09    1.71
   7  11   2    9.10    3.46
   7  11   2   12.69    3.48
   7  11   2   12.00    3.50
  -8 -11  -2    1.20    1.35
  -8 -11  -2    1.09    1.20
   8  11   2    0.67    2.96
   8  11   2    0.22    1.51
  -9 -11  -2   -2.49    1.44
  -9 -11  -2    0.85    1.65
  -9 -11  -2    1.14    1.25
   9  11   2   -3.18    3.38
 -10 -11  -2   -1.15    1.80
 -10 -11  -2    0.08    1.26
  10  11   2    6.57    3.84
 -11 -11  -2   -1.30    2.28
  11  11   2    4.85    4.63
   2 -12  -2    5.70    1.93
  -2  12   2    6.43    4.24
  -2  12   2   -4.59    4.81
   1 -12  -2   -2.00    1.91
   1 -12  -2    2.31    1.61
  -1  12   2   -2.89    3.78
  -1  12   2   -2.15    4.03
   0 -12  -2    1.20    1.49
   0 -12  -2    1.17    1.87
   0  12   2    1.20    3.71
   0  12   2    3.65    3.60
  -1 -12  -2   10.08    2.18
  -1 -12  -2   13.01    1.97
   1  12   2   13.60    3.81
   1  12   2   22.20    4.04
  -2 -12  -2   11.02    2.32
  -2 -12  -2    8.99    1.74
   2  12   2   15.35    3.90
   2  12   2   16.13    3.93
  -3 -12  -2   20.02    2.61
  -3 -12  -2   23.43    3.29
   3  12   2   32.04    4.80
   3  12   2   34.49    5.80
  -4 -12  -2    1.87    1.62
  -4 -12  -2   -1.25    0.85
   4  12   2    0.64    3.06
   4  12   2   -1.65    2.86
  -5 -12  -2    4.31    1.72
  -5 -12  -2    3.83    1.26
   5  12   2   10.08    3.51
   5  12   2    2.68    3.03
  -6 -12  -2    4.09    1.38
  -6 -12  -2    7.81    1.83
   6  12   2    8.02    1.65
   6  12   2    5.56    3.37
   6  12   2   -1.69    3.57
  -7 -12  -2   -0.15    1.27
  -7 -12  -2    0.21    1.62
   7  12   2   -3.45    3.79
   7  12   2    2.84    1.68
   7  12   2    0.06    3.54
  -8 -12  -2   -0.06    1.48
   8  12   2   -6.81    4.12
   8  12   2   -1.20    1.91
  -9 -12  -2    3.82    1.78
  -9 -12  -2    7.11    1.90
   9  12   2    6.49    4.19
  -1 -13  -2    2.62    1.94
  -1 -13  -2   -0.33    2.13
   1  13   2    2.81    4.92
   1  13   2   -7.99    4.40
  -2 -13  -2    2.80    1.88
  -2 -13  -2    1.55    2.24
   2  13   2   -3.25    3.93
   2  13   2    4.40    4.35
  -3 -13  -2    3.00    2.07
  -3 -13  -2    0.30    1.69
   3  13   2   -4.15    3.58
   3  13   2   -6.34    3.64
  -4 -13  -2   -1.34    1.90
  -4 -13  -2    0.68    1.64
   4  13   2    1.99    4.45
   4  13   2    0.24    3.98
  -5 -13  -2    3.11    1.94
   5  13   2   -4.84    4.16
   5  13   2   -0.41    3.98
  -6 -13  -2    4.31    1.54
  -6 -13  -2   -1.38    1.97
   6  13   2   -6.04    3.77
   6  13   2   -0.81    4.21
  -7 -13  -2    0.51    1.67
  -7 -13  -2   -0.15    1.94
   7  13   2   -6.11    4.73
   7  13   2    0.38    4.63
  -8 -13  -2   -1.22    1.97
  -8 -13  -2    2.43    2.02
   8  13   2    3.62    6.01
   7  11  -3    3.81    4.81
  -7 -11   3    3.93    2.37
   6  11  -3    4.42    4.18
  -6 -11   3    3.43    2.07
   5  11  -3   13.05    2.29
   5  11  -3   15.10    4.86
  -5 -11   3    8.38    2.28
   4  11  -3   -3.17    4.10
   4  11  -3   -0.71    1.72
   4  11  -3    0.24    4.09
  -4 -11   3    1.34    2.63
   3  11  -3   -0.76    3.73
   3  11  -3    2.56    1.61
   3  11  -3   -5.49    4.05
  -3 -11   3   -0.51    1.89
   2  11  -3    1.16    3.68
   2  11  -3    0.76    4.14
  -2 -11   3    2.14    1.98
   1  11  -3   19.71    5.11
   1  11  -3   11.23    4.83
  -1 -11   3    7.41    2.27
   0  11  -3   21.48    5.63
   0  11  -3   14.85    4.90
   9  10  -3    8.88    4.74
  -9 -10   3   -1.30    2.10
   8  10  -3    6.20    3.84
  -8 -10   3   11.19    2.26
   7  10  -3    1.75    3.58
   6  10  -3    0.77    1.66
   6  10  -3    1.61    3.31
  -6 -10   3   -0.50    1.66
   5  10  -3    0.88    3.12
   5  10  -3   -1.98    1.41
  -5 -10   3   -1.13    1.22
   4  10  -3   13.43    3.80
   4  10  -3   11.78    3.70
   4  10  -3   10.29    1.78
  -4 -10   3    8.86    1.99
   3  10  -3   10.51    3.57
   3  10  -3    7.94    3.64
   3  10  -3   15.17    2.54
   3  10  -3   15.03    2.26
  -3 -10   3   16.04    2.61
   2  10  -3    8.20    1.28
   2  10  -3    8.77    3.42
   2  10  -3    4.09    3.59
   2  10  -3    3.64    2.28
  -2 -10   3    4.93    1.62
   1  10  -3    2.29    1.09
   1  10  -3    3.96    3.43
   1  10  -3    2.87    3.16
  -1 -10   3   -0.10    1.32
   0  10  -3    0.40    0.98
   0  10  -3    4.27    3.60
   0  10  -3    0.69    3.19
   0 -10   3   -2.68    1.55
  -1  10  -3   -1.10    3.52
  -1  10  -3    2.71    3.88
   1 -10   3    5.95    2.00
  -2  10  -3    1.31    3.97
  -2  10  -3    1.83    4.17
   2 -10   3    1.11    2.23
  10   9  -3   16.37    4.92
 -10  -9   3   12.10    2.43
   9   9  -3   12.89    4.04
  -9  -9   3   10.83    2.28
  -9  -9   3    6.40    2.52
   8   9  -3    1.51    2.16
   8   9  -3    2.13    3.25
  -8  -9   3    1.61    1.47
   7   9  -3    0.95    3.05
   7   9  -3    2.25    2.04
  -7  -9   3    1.73    0.90
  -7  -9   3   -2.64    3.64
  -7  -9   3    2.83    1.44
   6   9  -3    0.90    1.86
   6   9  -3    1.62    1.32
   6   9  -3   -2.55    2.48
  -6  -9   3    1.44    0.62
  -6  -9   3    3.12    2.90
  -6  -9   3   -2.50    2.91
   5   9  -3    3.68    2.49
   5   9  -3    1.36    1.16
  -5  -9   3    0.86    2.41
  -5  -9   3    1.88    2.40
  -5  -9   3    0.72    1.14
   4   9  -3   16.82    2.36
   4   9  -3   22.22    2.23
   4   9  -3   15.85    3.23
   4   9  -3   15.86    3.62
  -4  -9   3   16.85    2.29
  -4  -9   3   18.20    3.63
   3   9  -3   18.36    2.38
   3   9  -3   17.31    2.03
   3   9  -3   17.83    3.35
   3   9  -3   22.70    3.68
  -3  -9   3   18.46    3.13
  -3  -9   3   19.39    2.47
   2   9  -3   -3.57    2.41
   2   9  -3    1.70    0.95
   2   9  -3   -4.49    2.20
   2   9  -3   -0.24    1.50
  -2  -9   3   -0.40    0.99
  -2  -9   3   -0.92    2.46
   1   9  -3    3.10    1.53
   1   9  -3   -1.73    2.30
   1   9  -3   -0.88    2.37
   1   9  -3    1.91    1.21
  -1  -9   3   -3.85    2.44
  -1  -9   3   -0.78    1.15
   0   9  -3    0.60    0.86
   0   9  -3   -1.53    2.45
   0   9  -3   -2.58    1.76
   0   9  -3   -1.66    4.32
   0  -9   3    8.99    3.00
   0  -9   3    0.26    1.31
  -1   9  -3   28.14    2.12
  -1   9  -3   26.33    4.32
  -1   9  -3   22.05    4.06
   1  -9   3   28.46    4.25
   1  -9   3   29.85    3.06
  -2   9  -3    3.38    3.09
  -2   9  -3   10.07    2.99
  -2   9  -3    6.33    1.01
   2  -9   3    5.29    2.01
   2  -9   3    5.58    4.18
  -3   9  -3   26.83    4.15
  -3   9  -3   23.19    4.55
   3  -9   3   22.08    2.98
  -4   9  -3    7.12    3.36
  -4   9  -3    6.01    4.16
  11   8  -3    1.32    4.02
 -11  -8   3    1.55    2.36
  10   8  -3   15.58    3.86
  10   8  -3    6.49    2.48
 -10  -8   3    7.07    1.98
 -10  -8   3    7.98    2.16
   9   8  -3   24.03    3.72
   9   8  -3   23.95    4.06
  -9  -8   3   14.78    2.31
  -9  -8   3   17.12    2.15
   8   8  -3    2.13    1.63
   8   8  -3   -1.99    2.63
   8   8  -3    1.39    1.65
  -8  -8   3    1.34    1.35
  -8  -8   3    1.30    1.10
   7   8  -3    6.40    2.95
   7   8  -3   12.67    2.11
   7   8  -3    5.32    1.59
  -7  -8   3    5.61    2.63
  -7  -8   3    8.80    1.19
  -7  -8   3    4.79    3.03
  -7  -8   3    6.91    1.47
   6   8  -3    2.88    2.15
   6   8  -3    2.20    1.19
  -6  -8   3    0.49    2.19
  -6  -8   3    4.93    2.21
  -6  -8   3    1.61    1.07
   5   8  -3    5.45    2.30
   5   8  -3    2.50    1.02
  -5  -8   3    1.02    2.04
  -5  -8   3    1.13    2.09
   4   8  -3   27.93    2.57
   4   8  -3   29.48    4.03
   4   8  -3   27.40    2.39
   4   8  -3   31.20    4.05
  -4  -8   3   27.21    1.54
  -4  -8   3   30.01    3.88
  -4  -8   3   27.03    1.55
  -4  -8   3   30.95    2.57
  -4  -8   3   19.90    3.40
   3   8  -3   12.10    1.82
   3   8  -3    8.49    2.88
   3   8  -3    9.64    2.34
   3   8  -3    8.21    1.25
  -3  -8   3    9.65    2.35
   2   8  -3    5.81    2.07
   2   8  -3    5.09    2.28
  -2  -8   3    1.96    1.88
  -2  -8   3    2.96    1.10
   1   8  -3    0.72    1.94
   1   8  -3   -0.85    1.09
   1   8  -3    1.92    1.83
   1   8  -3   -0.34    0.66
  -1  -8   3   -0.16    0.92
  -1  -8   3   -2.51    1.98
   0   8  -3    0.86    1.97
   0   8  -3    1.95    0.71
   0   8  -3    4.57    2.18
   0   8  -3    1.08    1.33
   0  -8   3    3.13    1.23
   0  -8   3    1.49    2.09
  -1   8  -3    0.91    1.40
  -1   8  -3    1.10    0.64
  -1   8  -3    1.79    1.91
   1  -8   3   -0.19    0.96
   1  -8   3    2.29    2.57
  -2   8  -3    4.03    2.51
  -2   8  -3    0.27    1.97
  -2   8  -3   -0.55    1.65
   2  -8   3    1.54    2.66
   2  -8   3    1.72    1.29
  -3   8  -3    5.60    0.92
  -3   8  -3    4.09    0.92
  -3   8  -3    4.84    2.73
  -3   8  -3    0.26    2.26
   3  -8   3    7.72    1.83
  -4   8  -3    5.75    0.96
  -4   8  -3    1.70    2.46
  -4   8  -3    3.88    3.24
  -4   8  -3    3.73    0.93
   4  -8   3    7.43    1.85
  -5   8  -3    2.28    2.78
  -5   8  -3   -1.74    3.90
  11   7  -3    5.10    3.55
 -11  -7   3    1.74    2.16
  10   7  -3    5.72    2.02
  10   7  -3    5.68    3.58
 -10  -7   3    4.83    1.88
 -10  -7   3    3.22    1.84
   9   7  -3    2.05    2.60
   9   7  -3    2.03    1.62
  -9  -7   3   -0.99    1.24
   8   7  -3    2.70    1.38
   8   7  -3    4.81    1.69
   8   7  -3    6.53    2.45
  -8  -7   3    3.07    1.37
  -8  -7   3   -0.56    2.51
  -8  -7   3    2.58    2.80
   7   7  -3    1.87    1.27
   7   7  -3    0.86    1.14
   7   7  -3    1.62    2.16
  -7  -7   3   -0.96    0.85
  -7  -7   3    4.64    2.19
  -7  -7   3   -0.96    2.15
   6   7  -3   12.01    1.78
   6   7  -3    6.57    2.29
  -6  -7   3   12.27    2.83
  -6  -7   3   12.05    1.76
  -6  -7   3    7.57    2.38
   5   7  -3   10.12    1.54
   5   7  -3    8.71    2.27
   5   7  -3   10.70    1.47
  -5  -7   3   12.92    2.44
  -5  -7   3    7.67    2.17
  -5  -7   3   10.61    1.47
   4   7  -3   60.39    3.71
   4   7  -3   62.80    5.10
   4   7  -3   57.49    3.68
  -4  -7   3   58.32    4.80
  -4  -7   3   58.98    4.79
   3   7  -3   29.51    3.48
   3   7  -3   25.75    2.24
   3   7  -3   23.21    2.46
   3   7  -3   25.79    3.25
  -3  -7   3   26.68    1.52
  -3  -7   3   32.48    3.24
  -3  -7   3   22.72    3.21
  -3  -7   3   26.81    2.30
   2   7  -3    0.35    0.58
   2   7  -3    0.71    1.61
   2   7  -3    0.75    1.43
  -2  -7   3    0.30    0.83
  -2  -7   3   -0.36    1.32
   1   7  -3    1.67    1.62
   1   7  -3    1.07    0.61
   1   7  -3    3.32    1.04
   1   7  -3    2.07    1.56
  -1  -7   3    2.35    1.38
  -1  -7   3    2.40    0.96
   0   7  -3    4.15    1.81
   0   7  -3    4.48    0.77
   0   7  -3    5.03    1.30
   0   7  -3    3.56    1.50
   0  -7   3    3.84    1.09
   0  -7   3    5.23    1.96
  -1   7  -3   15.68    2.65
  -1   7  -3   11.59    2.32
  -1   7  -3   14.17    2.11
  -1   7  -3   14.43    1.39
   1  -7   3   14.18    2.45
   1  -7   3   13.26    1.83
  -2   7  -3    1.65    1.58
  -2   7  -3    1.86    1.84
  -2   7  -3    1.65    0.67
  -2   7  -3    3.63    1.37
   2  -7   3    1.46    1.88
   2  -7   3    3.39    1.68
  -3   7  -3    3.77    1.66
  -3   7  -3    8.07    1.21
  -3   7  -3    8.15    1.78
  -3   7  -3    8.66    2.51
   3  -7   3    7.71    1.54
  -4   7  -3   -0.48    1.67
  -4   7  -3   -1.84    2.25
  -4   7  -3    1.43    0.76
  -4   7  -3    1.07    0.95
  -4   7  -3    0.92    0.76
   4  -7   3    1.10    1.26
  -5   7  -3   24.33    4.14
  -5   7  -3   17.45    1.83
  -5   7  -3   22.10    1.88
  -5   7  -3   18.68    2.73
  -5   7  -3   26.21    2.44
  -6   7  -3    9.85    3.79
  -6   7  -3   11.77    2.83
  -6   7  -3    9.75    1.89
  12   6  -3    0.17    2.41
  12   6  -3    0.87    3.24
  11   6  -3    2.67    3.03
 -11  -6   3    0.56    1.82
  10   6  -3    0.64    2.56
  10   6  -3    1.47    1.56
 -10  -6   3    2.94    1.55
   9   6  -3    3.11    1.41
   9   6  -3    4.82    2.31
   9   6  -3    2.52    1.41
  -9  -6   3    2.82    1.36
  -9  -6   3    3.64    2.75
  -9  -6   3    4.39    3.23
   8   6  -3   10.92    1.75
   8   6  -3    8.39    1.65
   8   6  -3   10.24    2.64
  -8  -6   3    9.57    2.63
  -8  -6   3   10.15    2.84
  -8  -6   3   10.67    1.63
   7   6  -3   -0.60    0.88
   7   6  -3    1.19    1.03
   7   6  -3   -1.83    1.76
  -7  -6   3   -0.59    2.11
  -7  -6   3   -1.02    1.71
   6   6  -3   11.08    2.26
   6   6  -3   11.25    1.62
  -6  -6   3   10.44    1.58
  -6  -6   3    9.60    2.24
  -6  -6   3   12.21    2.46
   5   6  -3    8.62    1.14
   5   6  -3    8.16    1.22
   5   6  -3   14.28    2.45
  -5  -6   3   11.81    1.42
  -5  -6   3    9.39    1.92
  -5  -6   3    8.93    2.00
   4   6  -3   -0.59    0.58
   4   6  -3   -0.78    0.50
   4   6  -3    0.12    1.26
  -4  -6   3   -0.40    0.53
  -4  -6   3    2.12    1.30
  -4  -6   3    0.64    1.29
   3   6  -3    0.15    0.57
   3   6  -3    1.29    0.62
   3   6  -3    0.85    1.23
   3   6  -3    0.23    1.16
  -3  -6   3   -0.18    1.08
  -3  -6   3    0.67    1.18
  -3  -6   3   -0.38    0.53
   2   6  -3    1.93    0.68
   2   6  -3    0.46    0.48
   2   6  -3    0.74    1.14
   2   6  -3    2.23    1.31
  -2  -6   3    1.09    0.30
  -2  -6   3    1.53    0.67
  -2  -6   3    2.69    1.11
   1   6  -3    4.90    0.75
   1   6  -3    3.68    1.34
   1   6  -3    6.34    1.63
   1   6  -3    7.17    1.13
  -1  -6   3    3.97    0.85
  -1  -6   3    3.15    1.39
  -1  -6   3    4.67    0.56
   0   6  -3    0.99    0.80
   0   6  -3    2.01    1.22
   0   6  -3    1.77    1.38
   0   6  -3    0.91    0.53
   0  -6   3    0.02    0.65
   0  -6   3    1.61    1.33
  -1   6  -3    4.47    1.47
  -1   6  -3    4.04    0.73
  -1   6  -3    2.40    1.27
  -1   6  -3    4.08    1.13
   1  -6   3    5.16    0.93
  -2   6  -3    9.96    1.70
  -2   6  -3    8.01    1.91
  -2   6  -3    6.92    0.99
  -2   6  -3    9.91    1.55
   2  -6   3    8.80    1.84
   2  -6   3    8.40    1.43
  -3   6  -3   14.34    2.33
  -3   6  -3   17.37    1.50
  -3   6  -3   16.21    1.43
  -3   6  -3   16.75    2.75
  -3   6  -3   16.50    2.25
   3  -6   3   21.31    2.05
  -4   6  -3    5.62    0.91
  -4   6  -3    2.53    2.13
  -4   6  -3    2.76    1.31
  -4   6  -3    3.62    0.80
  -4   6  -3    5.87    1.55
   4  -6   3    2.97    1.74
  -5   6  -3   -1.83    0.92
  -5   6  -3    1.28    1.17
  -5   6  -3    1.55    1.68
  -5   6  -3   -0.07    2.15
  -5   6  -3    0.28    0.76
  -5   6  -3    0.15    1.32
  -6   6  -3    6.34    3.17
  -6   6  -3    6.47    1.53
  -6   6  -3    6.98    1.72
  -6   6  -3    4.54    2.16
  -6   6  -3    5.32    1.61
  -6   6  -3    7.14    1.16
  -7   6  -3   -0.33    1.72
  -7   6  -3    1.61    3.33
  -7   6  -3   -1.81    1.06
  -7   6  -3    0.82    2.33
  12   5  -3   15.48    4.47
  12   5  -3   16.16    3.89
 -12  -5   3   10.66    2.62
  11   5  -3    7.82    2.43
  11   5  -3    1.20    2.65
 -11  -5   3    7.12    2.07
  10   5  -3   15.44    2.40
  10   5  -3   15.94    2.83
 -10  -5   3   15.50    2.25
 -10  -5   3   22.52    6.84
   9   5  -3    1.91    1.35
   9   5  -3    1.26    2.19
   9   5  -3   -0.47    0.99
  -9  -5   3    0.98    2.82
  -9  -5   3   -0.51    1.12
  -9  -5   3    4.20    2.34
   8   5  -3    0.94    1.01
   8   5  -3    3.78    1.88
   8   5  -3    3.58    1.08
  -8  -5   3    1.69    1.00
  -8  -5   3    1.24    2.02
  -8  -5   3    1.19    2.04
   7   5  -3    2.48    0.96
   7   5  -3    2.88    1.71
   7   5  -3    3.45    0.98
  -7  -5   3    2.68    0.95
  -7  -5   3    4.36    1.78
  -7  -5   3    2.30    1.59
   6   5  -3   15.62    2.53
   6   5  -3   17.43    1.73
  -6  -5   3   16.63    2.79
  -6  -5   3   15.49    1.65
  -6  -5   3   16.84    2.56
   5   5  -3   21.30    2.73
   5   5  -3   26.53    1.64
   5   5  -3   21.57    1.95
  -5  -5   3   25.12    2.88
  -5  -5   3   23.06    1.88
  -5  -5   3   19.99    2.75
   4   5  -3   24.88    1.95
   4   5  -3   23.30    2.78
   4   5  -3   26.81    1.79
  -4  -5   3   24.78    3.09
  -4  -5   3   24.92    1.90
  -4  -5   3   31.30    2.78
   3   5  -3   45.83    3.85
   3   5  -3   50.27    3.03
   3   5  -3   54.56    3.05
  -3  -5   3   50.12    3.78
  -3  -5   3   48.86    3.70
   2   5  -3   29.77    1.89
   2   5  -3   28.76    1.98
   2   5  -3   24.71    2.56
   2   5  -3   31.01    2.71
  -2  -5   3   24.63    1.98
  -2  -5   3   26.88    2.62
  -2  -5   3   24.55    2.42
   1   5  -3    7.82    1.57
   1   5  -3    9.04    1.01
   1   5  -3    9.71    1.17
   1   5  -3   10.06    1.68
  -1  -5   3    9.02    0.73
  -1  -5   3    9.39    1.14
  -1  -5   3    9.98    1.70
  -1  -5   3    7.92    1.28
   0   5  -3    0.17    0.59
   0   5  -3    1.38    1.02
   0   5  -3    0.25    0.39
   0   5  -3    0.11    0.89
   0  -5   3    0.41    0.48
   0  -5   3    0.46    0.28
   0  -5   3    0.24    0.81
  -1   5  -3    7.69    1.28
  -1   5  -3    8.18    1.67
  -1   5  -3    7.63    1.47
  -1   5  -3   10.03    0.97
   1  -5   3    8.97    1.21
   1  -5   3    7.98    1.51
   1  -5   3    8.65    0.85
  -2   5  -3    7.51    1.35
  -2   5  -3    5.78    1.17
  -2   5  -3    5.63    1.58
   2  -5   3    7.18    1.11
   2  -5   3    5.43    1.37
  -3   5  -3    9.86    1.40
  -3   5  -3    9.41    1.64
  -3   5  -3   10.71    1.97
  -3   5  -3   13.69    1.25
  -3   5  -3   10.16    1.54
   3  -5   3   11.35    1.56
  -4   5  -3   32.34    2.18
  -4   5  -3   25.47    2.38
  -4   5  -3   30.92    2.80
  -4   5  -3   28.71    3.40
  -4   5  -3   27.00    2.39
   4  -5   3   36.24    2.57
  -5   5  -3   16.11    2.02
  -5   5  -3   18.97    1.97
  -5   5  -3   23.58    2.59
  -5   5  -3   23.18    2.57
  -5   5  -3   24.91    3.35
  -5   5  -3   20.12    2.20
  -5   5  -3   20.27    1.73
   5  -5   3   17.90    3.12
  -6   5  -3    2.24    1.54
  -6   5  -3    0.48    1.23
  -6   5  -3    0.27    2.17
  -6   5  -3    0.38    1.58
  -6   5  -3   -1.40    1.04
  -6   5  -3   -0.50    0.87
   6  -5   3   -0.39    1.53
  -7   5  -3    0.04    1.00
  -7   5  -3    2.88    1.68
  -7   5  -3    2.80    2.25
  -7   5  -3    3.13    2.58
  -7   5  -3    0.06    1.20
  -7   5  -3   -0.91    1.40
   7  -5   3   -2.35    1.92
  -8   5  -3    9.70    3.62
  -8   5  -3    3.72    1.37
  -8   5  -3   -0.77    2.15
   8  -5   3    1.76    2.25
  12   4  -3    0.74    2.35
 -12  -4   3    7.42    2.36
  11   4  -3   -0.92    2.27
  11   4  -3    0.84    2.01
 -11  -4   3    0.94    1.56
  10   4  -3    0.40    1.75
  10   4  -3    0.56    1.62
  10   4  -3    3.07    1.49
  10   4  -3    0.80    0.94
 -10  -4   3   -0.32    3.06
 -10  -4   3   -1.38    1.26
 -10  -4   3    9.81    3.39
   9   4  -3    4.18    1.86
   9   4  -3    5.22    1.06
   9   4  -3    2.62    1.19
  -9  -4   3   -2.42    2.30
  -9  -4   3    8.14    2.61
  -9  -4   3    3.50    1.28
   8   4  -3    3.74    0.91
   8   4  -3    6.07    1.85
   8   4  -3    3.94    1.15
  -8  -4   3    4.07    1.65
  -8  -4   3    2.73    2.15
  -8  -4   3    5.43    2.21
   7   4  -3   43.72    2.90
   7   4  -3   47.07    3.92
   7   4  -3   40.26    3.05
  -7  -4   3   50.82    4.41
  -7  -4   3   43.48    3.05
  -7  -4   3   49.23    4.46
   6   4  -3   19.54    1.74
   6   4  -3   18.99    2.62
  -6  -4   3   18.98    2.68
  -6  -4   3   18.14    1.73
  -6  -4   3   20.36    2.92
   5   4  -3   25.22    1.50
   5   4  -3   25.68    2.13
   5   4  -3   23.42    2.67
  -5  -4   3   23.67    2.89
  -5  -4   3   24.13    1.88
   4   4  -3   34.59    2.35
   4   4  -3   36.00    2.16
   4   4  -3   34.56    3.03
  -4  -4   3   37.39    3.12
  -4  -4   3   40.89    3.09
  -4  -4   3   37.80    2.41
   3   4  -3   12.99    1.83
   3   4  -3   13.45    1.20
   3   4  -3   13.43    1.13
  -3  -4   3   14.03    1.23
  -3  -4   3   13.77    1.86
  -3  -4   3   14.25    1.81
   2   4  -3    8.28    1.42
   2   4  -3    6.27    0.85
   2   4  -3    6.41    1.33
   2   4  -3    6.47    0.82
  -2  -4   3    7.47    0.92
  -2  -4   3    8.51    1.43
  -2  -4   3    6.31    1.16
   1   4  -3    1.73    0.85
   1   4  -3    2.12    0.57
   1   4  -3    1.45    0.46
   1   4  -3    2.27    0.86
  -1  -4   3    1.29    0.69
  -1  -4   3    1.60    0.70
  -1  -4   3    1.77    0.54
  -1  -4   3    1.45    0.32
   0   4  -3    2.93    0.87
   0   4  -3    2.70    0.61
   0   4  -3    2.51    0.50
   0   4  -3    2.07    0.92
   0  -4   3    3.10    0.49
   0  -4   3    2.74    0.63
   0  -4   3    2.91    0.85
  -1   4  -3    7.96    1.09
  -1   4  -3    9.94    1.45
  -1   4  -3    7.95    1.34
   1  -4   3    8.19    0.80
   1  -4   3    9.69    1.51
   1  -4   3    8.34    1.06
  -2   4  -3   12.62    1.84
  -2   4  -3   15.05    1.39
  -2   4  -3   13.76    1.11
  -2   4  -3   14.94    1.98
  -2   4  -3   16.80    1.62
   2  -4   3   12.20    1.32
   2  -4   3   15.39    1.81
   2  -4   3   14.02    1.14
  -3   4  -3   16.20    1.31
  -3   4  -3   14.71    1.82
  -3   4  -3   13.11    1.48
  -3   4  -3   15.37    2.10
  -3   4  -3   14.35    1.61
   3  -4   3   19.49    1.65
  -4   4  -3    6.75    1.00
  -4   4  -3    7.21    1.16
  -4   4  -3    6.25    1.62
  -4   4  -3    8.57    1.41
  -4   4  -3    6.90    1.10
   4  -4   3    8.04    1.25
   4  -4   3    6.73    1.63
  -5   4  -3    8.87    1.81
  -5   4  -3    7.57    1.44
  -5   4  -3    7.69    1.15
  -5   4  -3    9.09    1.23
  -5   4  -3    7.29    1.01
  -5   4  -3    6.51    1.47
  -5   4  -3    6.71    1.21
   5  -4   3    8.36    2.01
  -6   4  -3   22.62    2.30
  -6   4  -3   19.11    2.10
  -6   4  -3   22.22    3.21
  -6   4  -3   20.55    1.69
  -6   4  -3   26.57    2.72
  -6   4  -3   20.47    2.57
  -6   4  -3   23.96    1.93
   6  -4   3   22.65    2.97
  -7   4  -3    2.87    1.47
  -7   4  -3    3.80    2.24
  -7   4  -3    6.34    1.52
  -7   4  -3    3.14    1.36
  -7   4  -3    7.45    1.72
  -7   4  -3    3.83    1.07
   7  -4   3    2.91    1.93
  -8   4  -3    2.81    1.75
  -8   4  -3    4.30    2.69
  -8   4  -3   -1.05    1.17
  -8   4  -3    0.23    1.61
  -8   4  -3    0.70    1.69
  -8   4  -3    3.72    2.38
   8  -4   3   -1.01    1.93
  -9   4  -3    6.72    1.68
  -9   4  -3    2.71    2.34
  -9   4  -3    9.63    3.76
  12   3  -3    8.14    2.93
 -12  -3   3   13.48    2.64
  11   3  -3   44.92    3.75
  11   3  -3   45.47    4.86
 -11  -3   3   38.61    3.88
  10   3  -3   45.11    4.10
  10   3  -3   50.26    3.96
  10   3  -3   51.16    2.83
 -10  -3   3   56.76    4.07
 -10  -3   3   65.46    6.27
   9   3  -3   10.22    1.22
   9   3  -3    9.76    1.53
   9   3  -3    6.73    1.84
   9   3  -3   11.58    2.02
  -9  -3   3    8.28    1.51
  -9  -3   3   15.20    3.16
   8   3  -3    7.56    1.26
   8   3  -3    7.24    1.66
   8   3  -3    6.44    0.88
  -8  -3   3    6.50    1.20
  -8  -3   3    1.84    2.00
   7   3  -3    7.98    1.29
   7   3  -3    9.25    1.80
   7   3  -3    9.30    1.13
  -7  -3   3   10.20    2.07
  -7  -3   3    8.28    1.26
   6   3  -3   21.74    1.76
   6   3  -3   18.16    2.38
   6   3  -3   20.15    1.54
  -6  -3   3   15.45    1.65
  -6  -3   3   22.37    2.69
   5   3  -3   16.81    2.09
   5   3  -3   17.78    1.46
   5   3  -3   16.74    0.98
  -5  -3   3   14.67    1.38
  -5  -3   3   18.99    2.27
  -5  -3   3   15.17    2.13
   4   3  -3   20.53    2.26
   4   3  -3   22.08    1.60
   4   3  -3   20.53    1.30
  -4  -3   3   22.90    2.25
  -4  -3   3   21.85    2.29
  -4  -3   3   21.54    1.62
   3   3  -3   71.03    3.73
   3   3  -3   70.65    3.87
   3   3  -3   67.75    4.47
  -3  -3   3   72.92    4.52
  -3  -3   3   65.81    3.87
  -3  -3   3   68.35    4.38
   2   3  -3    0.34    0.63
   2   3  -3    0.09    0.28
   2   3  -3    0.59    0.35
  -2  -3   3   -0.27    0.46
  -2  -3   3    0.97    0.62
   1   3  -3   71.14    4.42
   1   3  -3   76.73    3.96
   1   3  -3   69.13    4.37
   1   3  -3   75.93    4.00
  -1  -3   3   72.18    4.31
  -1  -3   3   72.96    4.05
  -1  -3   3   67.03    4.30
   0   3  -3   10.61    1.27
   0   3  -3    9.49    0.93
   0   3  -3   10.34    0.85
   0   3  -3    7.84    1.24
   0  -3   3    9.72    1.11
   0  -3   3    8.89    0.92
   0  -3   3    7.72    1.14
   0  -3   3    8.72    0.76
  -1   3  -3  124.56    7.22
  -1   3  -3  147.26    7.13
  -1   3  -3  131.88    7.33
  -1   3  -3  128.87    7.10
   1  -3   3  123.94    6.87
   1  -3   3  131.72    7.30
   1  -3   3  144.71    7.12
  -2   3  -3   24.36    1.56
  -2   3  -3   25.01    1.82
  -2   3  -3   25.37    2.05
  -2   3  -3   20.19    1.66
  -2   3  -3   22.47    1.81
   2  -3   3   24.18    1.57
   2  -3   3   26.16    2.02
   2  -3   3   21.86    1.69
  -3   3  -3   20.85    1.54
  -3   3  -3   22.27    1.73
  -3   3  -3   20.64    1.56
  -3   3  -3   22.68    2.11
  -3   3  -3   22.05    1.78
   3  -3   3   21.22    2.08
   3  -3   3   20.58    1.70
   3  -3   3   22.00    1.58
  -4   3  -3   22.53    2.29
  -4   3  -3   21.78    1.91
  -4   3  -3   19.40    1.44
  -4   3  -3   21.72    1.65
  -4   3  -3   22.87    2.00
  -4   3  -3   19.89    1.93
   4  -3   3   19.88    1.76
   4  -3   3   22.63    2.25
  -5   3  -3    9.47    1.35
  -5   3  -3   10.04    0.86
  -5   3  -3    9.44    1.15
  -5   3  -3    8.95    1.45
  -5   3  -3    9.57    1.49
  -5   3  -3   12.34    2.11
   5  -3   3   11.78    1.93
  -6   3  -3    3.76    0.97
  -6   3  -3    3.34    0.85
  -6   3  -3    6.77    1.25
  -6   3  -3    3.02    1.51
  -6   3  -3    3.58    1.03
  -6   3  -3    4.25    1.16
   6  -3   3    3.50    1.72
  -7   3  -3   10.14    1.34
  -7   3  -3   11.14    1.83
  -7   3  -3   11.80    1.82
  -7   3  -3   11.43    2.18
  -7   3  -3    8.45    1.66
   7  -3   3    9.92    2.40
  -8   3  -3    5.27    1.57
  -8   3  -3    4.30    1.54
  -8   3  -3    7.49    1.54
  -8   3  -3    6.53    1.62
  -8   3  -3    3.77    2.31
  -8   3  -3    3.77    1.19
   8  -3   3    2.89    1.92
  -9   3  -3    3.27    2.98
  -9   3  -3   -1.25    1.73
  -9   3  -3    2.38    2.09
  -9   3  -3    3.53    1.40
   9  -3   3    3.80    2.32
 -10   3  -3    5.01    3.85
 -10   3  -3   -0.88    1.76
 -10   3  -3    2.51    2.80
  10  -3   3    4.50    2.76
  12   2  -3    2.88    2.40
 -12  -2   3    1.70    2.12
  11   2  -3    1.37    2.03
 -11  -2   3    1.58    3.90
 -11  -2   3   -2.39    1.59
  10   2  -3    4.67    1.38
  10   2  -3    3.35    1.48
  10   2  -3    3.11    2.10
 -10  -2   3    0.12    2.63
 -10  -2   3    1.53    1.28
   9   2  -3    3.17    1.27
   9   2  -3    1.83    1.75
   9   2  -3    2.50    1.06
  -9  -2   3    1.28    1.92
  -9  -2   3    3.18    1.17
   8   2  -3   14.45    1.76
   8   2  -3   17.25    1.19
   8   2  -3   15.47    2.28
   8   2  -3   18.67    4.10
  -8  -2   3   14.57    1.82
  -8  -2   3   17.22    2.82
   7   2  -3   21.63    2.49
   7   2  -3   22.69    1.52
   7   2  -3   22.94    1.93
  -7  -2   3   22.03    1.94
  -7  -2   3   21.59    2.98
   6   2  -3    8.10    0.85
   6   2  -3    8.04    1.50
   6   2  -3    9.77    1.14
  -6  -2   3    8.16    1.17
  -6  -2   3    7.92    1.72
   5   2  -3   63.51    3.65
   5   2  -3   64.15    4.17
  -5  -2   3   61.87    3.62
  -5  -2   3   59.33    4.25
   4   2  -3    0.57    0.44
   4   2  -3    0.24    0.68
   4   2  -3    0.37    0.17
  -4  -2   3   -0.15    0.68
  -4  -2   3   -0.11    0.35
   3   2  -3   21.77    1.93
   3   2  -3   21.51    1.31
   3   2  -3   20.87    1.48
  -3  -2   3   22.00    1.97
  -3  -2   3   25.12    2.03
  -3  -2   3   21.82    1.49
   2   2  -3    6.10    0.67
   2   2  -3    5.89    1.06
   2   2  -3    4.60    0.54
  -2  -2   3    5.88    1.01
  -2  -2   3    4.96    0.98
   1   2  -3   29.19    1.70
   1   2  -3   26.54    1.66
   1   2  -3   28.71    2.11
  -1  -2   3   26.32    1.73
  -1  -2   3   26.10    1.95
  -1  -2   3   28.04    2.03
   0   2  -3   58.98    3.86
   0   2  -3   68.76    3.66
   0   2  -3   61.81    3.64
   0   2  -3   67.40    3.84
   0   2  -3   68.66    3.91
   0  -2   3   73.50    3.56
   0  -2   3   70.88    3.81
   0  -2   3   69.24    3.85
   0  -2   3   57.81    3.63
  -1   2  -3   57.38    3.31
  -1   2  -3   56.23    3.20
  -1   2  -3   58.13    3.34
   1  -2   3   55.10    3.05
   1  -2   3   54.58    3.18
   1  -2   3   56.11    3.01
   1  -2   3   54.86    3.29
  -2   2  -3   16.21    1.46
  -2   2  -3   17.44    1.22
  -2   2  -3   18.62    1.34
  -2   2  -3   20.26    1.42
  -2   2  -3   18.30    1.38
   2  -2   3   17.42    1.62
   2  -2   3   14.86    1.28
   2  -2   3   18.09    1.49
   2  -2   3   15.85    1.22
  -3   2  -3   65.69    3.66
  -3   2  -3   65.34    3.94
  -3   2  -3   63.52    3.54
  -3   2  -3   74.44    3.82
  -3   2  -3   58.83    3.73
   3  -2   3   65.53    3.68
   3  -2   3   70.17    4.21
   3  -2   3   60.57    3.72
  -4   2  -3   28.67    2.16
  -4   2  -3   27.72    1.88
  -4   2  -3   30.59    2.08
  -4   2  -3   22.56    2.20
  -4   2  -3   26.92    1.96
   4  -2   3   27.01    2.39
  -5   2  -3    5.25    0.82
  -5   2  -3    7.22    1.07
  -5   2  -3    4.57    1.13
  -5   2  -3    6.10    1.09
   5  -2   3    2.70    1.00
  -6   2  -3   17.56    1.94
  -6   2  -3   21.48    1.69
  -6   2  -3   18.42    1.89
  -6   2  -3   21.76    1.85
  -6   2  -3   17.50    1.83
  -6   2  -3   14.48    2.28
  -7   2  -3   16.53    2.06
  -7   2  -3   16.53    1.88
  -7   2  -3   13.49    1.70
  -7   2  -3   14.11    1.92
  -7   2  -3   12.09    2.21
  -7   2  -3   13.85    1.68
   7  -2   3   15.60    2.41
  -8   2  -3    2.13    1.04
  -8   2  -3   -0.78    1.11
  -8   2  -3   -0.90    1.16
  -8   2  -3    2.18    1.86
  -8   2  -3    1.39    1.23
  -8   2  -3    3.93    1.17
   8  -2   3   -0.78    1.40
  -9   2  -3    0.98    1.56
  -9   2  -3    2.27    1.43
  -9   2  -3   -2.96    2.09
  -9   2  -3    0.77    0.96
  -9   2  -3   -0.32    1.48
  -9   2  -3    2.94    1.35
   9  -2   3   -0.33    1.45
 -10   2  -3    3.54    1.91
 -10   2  -3   -0.48    1.47
  10  -2   3   -0.11    2.02
  12   1  -3   -0.82    2.78
 -12  -1   3    2.15    2.03
  11   1  -3   -0.68    1.99
 -11  -1   3   -3.76    3.19
 -11  -1   3   -0.65    1.59
  10   1  -3    0.20    1.97
  10   1  -3    0.88    1.42
 -10  -1   3   -1.44    1.15
 -10  -1   3   -2.05    2.51
   9   1  -3    0.84    0.95
   9   1  -3    0.94    1.03
   9   1  -3   -0.61    1.35
  -9  -1   3   -0.24    1.17
  -9  -1   3    0.58    1.84
   8   1  -3   47.96    3.26
   8   1  -3   47.78    3.21
   8   1  -3   35.27    5.14
  -8  -1   3   48.80    3.22
  -8  -1   3   46.73    4.28
   7   1  -3  127.41    7.63
   7   1  -3  146.63    7.52
  -7  -1   3  135.99    8.81
  -7  -1   3  138.23    7.47
   6   1  -3   89.70    5.52
   6   1  -3  111.08    5.88
   6   1  -3   88.62    4.83
   6   1  -3   93.20    5.22
  -6  -1   3   93.02    5.22
  -6  -1   3   88.89    5.89
   5   1  -3   39.13    2.80
   5   1  -3   39.67    2.39
   5   1  -3   36.63    2.12
  -5  -1   3   39.06    2.43
  -5  -1   3   35.64    3.00
   4   1  -3   70.36    4.42
   4   1  -3   75.58    4.04
  -4  -1   3   74.19    4.58
  -4  -1   3   70.49    4.02
   3   1  -3   36.42    2.63
   3   1  -3   38.47    2.21
  -3  -1   3   38.39    2.21
  -3  -1   3   33.16    2.58
   2   1  -3    2.65    0.45
   2   1  -3    4.54    0.84
  -2  -1   3    4.41    0.88
   1   1  -3   16.61    1.41
   1   1  -3   15.96    1.08
  -1  -1   3   16.88    1.31
  -1  -1   3   14.21    1.35
  -1  -1   3   15.28    1.08
   0   1  -3   56.31    3.35
   0   1  -3   54.88    3.11
   0  -1   3   55.91    3.19
   0  -1   3   60.26    3.31
  -1   1  -3   10.41    1.10
  -1   1  -3   10.60    1.02
  -1   1  -3   12.15    0.94
  -1   1  -3   10.73    0.88
   1  -1   3   11.04    0.88
   1  -1   3   12.17    0.87
   1  -1   3   11.30    0.91
   1  -1   3   11.05    0.84
  -2   1  -3   46.81    2.84
  -2   1  -3   50.63    2.84
  -2   1  -3   44.89    2.87
  -2   1  -3   52.85    3.04
  -2   1  -3   55.38    3.25
  -2   1  -3   48.73    2.90
   2  -1   3   51.63    2.89
   2  -1   3   51.72    2.92
   2  -1   3   58.19    3.21
   2  -1   3   49.47    2.85
  -3   1  -3   41.23    2.39
  -3   1  -3   38.45    2.45
  -3   1  -3   40.20    2.42
  -3   1  -3   40.23    2.41
  -3   1  -3   37.18    2.23
  -3   1  -3   41.69    2.56
   3  -1   3   40.11    2.44
   3  -1   3   37.81    2.69
   3  -1   3   40.47    2.40
  -4   1  -3    0.22    0.49
  -4   1  -3   -0.24    0.50
  -4   1  -3   -0.26    0.35
  -4   1  -3    0.06    0.32
  -4   1  -3    0.31    0.36
   4  -1   3    0.42    0.67
   4  -1   3   -0.34    0.38
  -5   1  -3    9.63    1.20
  -5   1  -3   11.00    1.21
  -5   1  -3   11.08    1.41
  -5   1  -3   12.93    1.19
  -5   1  -3   10.24    1.52
  -5   1  -3   10.96    1.13
   5  -1   3   11.76    1.62
  -6   1  -3   13.27    1.53
  -6   1  -3   12.31    1.60
  -6   1  -3   14.58    1.52
  -6   1  -3   11.89    1.92
  -6   1  -3   12.04    1.41
  -6   1  -3   17.56    1.47
   6  -1   3   17.70    2.09
  -7   1  -3    3.95    0.97
  -7   1  -3    3.55    1.03
  -7   1  -3    4.20    1.03
  -7   1  -3    1.52    0.96
  -7   1  -3    2.66    0.84
  -7   1  -3    3.12    1.41
  -7   1  -3    3.09    0.64
   7  -1   3    3.97    1.63
  -8   1  -3    0.97    1.09
  -8   1  -3    0.46    0.71
  -8   1  -3    0.29    1.04
  -8   1  -3   -0.76    0.86
  -8   1  -3   -0.77    1.02
  -8   1  -3   -0.04    1.40
  -8   1  -3   -0.46    0.81
   8  -1   3   -1.85    1.46
  -9   1  -3   14.06    1.93
  -9   1  -3   13.87    2.12
  -9   1  -3   15.94    2.35
  -9   1  -3    9.54    1.85
  -9   1  -3    9.87    1.79
  -9   1  -3   12.43    2.52
  -9   1  -3   11.30    1.87
   9  -1   3   11.26    2.81
 -10   1  -3   14.45    2.06
 -10   1  -3   10.12    2.27
 -10   1  -3    9.36    3.87
 -10   1  -3   11.89    2.06
 -10   1  -3   13.50    1.99
 -10   1  -3   14.27    2.31
  10  -1   3   14.37    3.12
 -11   1  -3   13.95    2.28
 -11   1  -3   17.67    4.62
 -11   1  -3    5.86    2.88
  11  -1   3    6.53    2.64
  12   0  -3    1.38    2.82
 -12   0   3    0.51    2.13
  11   0  -3    3.66    2.29
  11   0  -3    0.55    1.95
 -11   0   3    2.10    3.56
 -11   0   3    2.23    1.62
  10   0  -3   -1.78    1.86
  10   0  -3    1.26    1.34
 -10   0   3    0.33    1.28
 -10   0   3   -2.65    2.50
   9   0  -3    4.40    1.92
   9   0  -3    3.68    1.25
  -9   0   3    5.06    2.04
  -9   0   3    5.06    1.21
   8   0  -3    7.46    1.17
   8   0  -3   10.41    2.05
   8   0  -3    7.99    1.16
  -8   0   3    8.88    1.28
  -8   0   3    9.41    2.01
   7   0  -3    0.29    0.76
   7   0  -3    0.24    1.04
   7   0  -3    0.00    0.68
  -7   0   3   -0.40    0.56
  -7   0   3   -1.96    1.02
   6   0  -3    4.70    0.56
   6   0  -3    3.81    1.04
   6   0  -3    3.49    0.84
   6   0  -3    3.98    0.69
  -6   0   3    3.26    0.72
  -6   0   3    2.25    1.11
   5   0  -3    5.74    0.83
   5   0  -3    6.66    1.13
   5   0  -3    5.55    1.20
   5   0  -3    7.45    0.60
  -5   0   3    6.16    0.85
  -5   0   3    8.21    1.48
   4   0  -3   26.78    1.48
   4   0  -3   27.04    1.72
   4   0  -3   24.70    2.06
  -4   0   3   26.74    2.22
  -4   0   3   26.35    1.72
   3   0  -3    0.20    0.27
   3   0  -3    0.31    0.21
   3   0  -3   -0.27    0.45
  -3   0   3    0.12    0.25
  -3   0   3    0.48    0.49
   2   0  -3   82.62    4.82
   2   0  -3   85.77    4.48
  -2   0   3   85.53    4.86
   1   0  -3   11.98    1.14
   1   0  -3   12.37    0.90
  -1   0   3   11.09    0.79
  -1   0   3   10.86    1.14
   0   0  -3    0.39    0.33
   0   0  -3    0.60    0.19
   0   0  -3    0.53    0.27
   0   0  -3    0.73    0.32
   0   0   3    0.27    0.36
   0   0   3    0.73    0.21
  -1   0  -3  139.08    8.13
  -1   0  -3  158.04    8.25
  -1   0  -3  155.82    8.12
  -1   0  -3  160.02    8.26
   1   0   3  141.06    8.10
   1   0   3  168.26    7.99
   1   0   3  160.49    8.11
   1   0   3  180.56    8.20
   1   0   3  166.20    8.20
  -2   0  -3   85.39    4.98
  -2   0  -3   98.36    4.89
  -2   0  -3   96.31    4.85
  -2   0  -3   93.19    4.70
  -2   0  -3   94.38    5.00
  -2   0  -3   92.23    4.87
   2   0   3   90.78    4.88
   2   0   3   82.33    4.95
   2   0   3   90.01    4.84
  -3   0  -3  101.88    5.50
  -3   0  -3  102.93    5.45
  -3   0  -3  100.77    5.69
  -3   0  -3  105.17    5.57
  -3   0  -3  104.88    5.59
   3   0   3  102.87    5.58
   3   0   3  117.38    5.91
  -4   0  -3   -0.09    0.31
  -4   0  -3    0.38    0.29
  -4   0  -3    0.23    0.46
  -4   0  -3    0.26    0.32
  -4   0  -3    0.44    0.49
   4   0   3    0.54    0.61
   4   0   3    0.54    0.38
  -5   0  -3    2.17    0.71
  -5   0  -3    0.94    0.41
  -5   0  -3    1.37    0.48
  -5   0  -3    2.02    0.52
  -5   0  -3    1.19    0.39
  -5   0  -3    1.28    0.53
  -5   0  -3    1.81    0.53
   5   0   3    1.70    0.83
  -6   0  -3    9.62    1.34
  -6   0  -3   11.27    1.06
  -6   0  -3    9.44    1.17
  -6   0  -3    9.79    1.42
  -6   0  -3    9.44    1.39
  -6   0  -3   12.62    1.25
   6   0   3   12.53    1.69
  -7   0  -3    0.56    0.69
  -7   0  -3    1.47    0.81
  -7   0  -3    0.57    0.63
  -7   0  -3   -0.26    0.77
  -7   0  -3    0.48    0.67
  -7   0  -3   -0.08    0.71
   7   0   3   -0.71    0.86
  -8   0  -3    8.97    1.50
  -8   0  -3    6.48    1.27
  -8   0  -3    6.57    1.25
  -8   0  -3    6.79    1.15
  -8   0  -3    8.39    1.34
  -8   0  -3    9.56    1.46
   8   0   3    6.30    1.92
  -9   0  -3   12.98    1.98
  -9   0  -3   12.41    1.75
  -9   0  -3   13.17    1.77
  -9   0  -3   14.37    2.11
  -9   0  -3   14.55    2.14
  -9   0  -3   14.84    2.33
   9   0   3    9.76    2.53
 -10   0  -3   10.41    1.78
 -10   0  -3    7.38    1.60
 -10   0  -3    3.48    1.77
 -10   0  -3    8.85    2.72
 -10   0  -3    5.01    1.61
 -10   0  -3    8.12    1.75
  10   0   3    5.08    2.68
 -11   0  -3    2.02    1.90
 -11   0  -3    1.39    1.76
 -11   0  -3   -0.57    3.38
 -11   0  -3    1.31    2.01
  11   0   3    7.09    2.93
  11  -1  -3    1.54    2.73
  11  -1  -3    1.61    2.20
 -11   1   3    4.39    1.77
 -11   1   3    0.21    1.50
 -11   1   3   -5.55    3.47
  10  -1  -3    1.59    2.19
  10  -1  -3    2.70    1.51
 -10   1   3    3.30    1.10
 -10   1   3    3.56    2.74
   9  -1  -3    3.16    1.13
   9  -1  -3    6.38    1.88
  -9   1   3    1.12    1.07
  -9   1   3    4.97    2.20
   8  -1  -3    2.02    0.91
   8  -1  -3    4.59    1.76
  -8   1   3    1.00    1.65
  -8   1   3    3.59    0.89
   7  -1  -3   39.90    3.20
   7  -1  -3   36.02    2.44
   7  -1  -3   34.93    2.19
  -7   1   3   32.60    2.44
  -7   1   3   36.20    3.23
   6  -1  -3   22.55    2.24
   6  -1  -3   24.11    1.60
   6  -1  -3   26.00    1.81
   6  -1  -3   24.85    1.76
  -6   1   3   24.87    2.47
  -6   1   3   22.41    1.76
   5  -1  -3   47.06    3.49
   5  -1  -3   54.06    3.22
   5  -1  -3   54.87    3.09
   5  -1  -3   52.14    2.97
  -5   1   3   56.54    3.66
  -5   1   3   55.31    3.11
   4  -1  -3    0.43    0.43
   4  -1  -3    0.16    0.28
   4  -1  -3    0.69    0.30
   4  -1  -3    0.59    0.57
  -4   1   3    0.16    0.28
  -4   1   3    1.14    0.60
   3  -1  -3   35.01    2.18
   3  -1  -3   42.37    2.26
   3  -1  -3   34.12    2.45
   3  -1  -3   39.64    2.54
  -3   1   3   42.35    2.27
  -3   1   3   43.34    2.71
   2  -1  -3   83.78    4.60
   2  -1  -3   89.95    4.82
   2  -1  -3   83.71    4.48
   2  -1  -3   83.25    4.44
  -2   1   3   88.95    4.87
   1  -1  -3  112.69    5.72
   1  -1  -3  102.25    5.63
   1  -1  -3  115.20    5.98
  -1   1   3  109.70    5.59
  -1   1   3  114.86    5.71
  -1   1   3  107.87    5.99
   0  -1  -3    0.71    0.36
   0  -1  -3    0.53    0.29
   0  -1  -3    0.41    0.20
   0   1   3    1.37    0.44
   0   1   3    0.47    0.25
   0   1   3    0.71    0.21
  -1  -1  -3    4.18    0.43
  -1  -1  -3    3.98    0.48
  -1  -1  -3    2.99    0.55
  -1  -1  -3    3.95    0.60
   1   1   3    3.60    0.45
   1   1   3    4.63    0.57
   1   1   3    4.91    0.45
   1   1   3    4.45    0.34
   1   1   3    4.09    0.60
  -2  -1  -3  449.50   23.42
  -2  -1  -3  475.04   23.31
  -2  -1  -3  481.75   23.39
  -2  -1  -3  416.39   23.27
   2   1   3  495.28   23.40
   2   1   3  496.03   23.33
   2   1   3  457.02   23.31
   2   1   3  458.73   23.42
  -3  -1  -3    4.95    0.62
  -3  -1  -3    2.47    0.74
  -3  -1  -3    4.38    0.58
  -3  -1  -3    4.47    0.60
  -3  -1  -3    5.41    0.77
   3   1   3    4.80    0.64
   3   1   3    4.32    0.72
   3   1   3    3.95    0.65
  -4  -1  -3   61.23    3.40
  -4  -1  -3   52.81    3.33
  -4  -1  -3   61.00    3.26
  -4  -1  -3   61.90    3.39
  -4  -1  -3   59.60    3.50
  -4  -1  -3   63.37    3.36
   4   1   3   62.72    3.48
   4   1   3   63.59    3.44
   4   1   3   48.68    3.53
  -5  -1  -3    0.71    0.40
  -5  -1  -3   -0.49    0.37
  -5  -1  -3    0.49    0.48
  -5  -1  -3    0.27    0.41
  -5  -1  -3   -0.01    0.47
   5   1   3   -0.24    0.70
   5   1   3    0.21    0.39
   5   1   3   -0.11    0.46
  -6  -1  -3   20.01    1.54
  -6  -1  -3   21.70    1.70
  -6  -1  -3   20.00    1.65
  -6  -1  -3   23.37    1.71
  -6  -1  -3   22.16    1.69
  -6  -1  -3   21.69    1.78
   6   1   3   17.53    1.62
   6   1   3   20.35    2.06
  -7  -1  -3   18.79    1.83
  -7  -1  -3   18.46    1.70
  -7  -1  -3   18.34    1.60
  -7  -1  -3   18.88    1.76
  -7  -1  -3   18.14    1.73
  -7  -1  -3   20.56    1.89
   7   1   3   18.71    2.22
  -8  -1  -3    5.91    1.15
  -8  -1  -3    5.20    1.03
  -8  -1  -3    5.78    1.15
  -8  -1  -3    5.66    1.06
  -8  -1  -3    5.39    1.19
  -8  -1  -3    6.83    1.22
   8   1   3    6.89    1.76
  -9  -1  -3   23.38    2.26
  -9  -1  -3   26.95    2.59
  -9  -1  -3   19.53    2.27
  -9  -1  -3   18.86    2.45
  -9  -1  -3   15.76    2.16
   9   1   3   14.64    2.78
 -10  -1  -3   -0.20    1.30
 -10  -1  -3    3.61    1.78
 -10  -1  -3    4.70    1.54
 -10  -1  -3    1.62    1.92
 -10  -1  -3    2.77    1.23
  10   1   3    4.58    2.20
 -11  -1  -3    2.30    1.68
 -11  -1  -3    3.59    1.61
 -11  -1  -3    0.15    2.31
  11   1   3    5.11    2.57
 -12  -1  -3   -0.72    2.06
  12   1   3    2.10    2.74
  11  -2  -3    1.74    2.52
 -11   2   3    2.74    4.20
 -11   2   3    2.55    1.86
  10  -2  -3    4.14    1.71
  10  -2  -3    4.48    2.68
 -10   2   3   -0.09    2.71
 -10   2   3    6.19    1.45
 -10   2   3    2.88    1.22
   9  -2  -3    6.31    1.36
   9  -2  -3    4.78    2.21
  -9   2   3    3.02    1.05
  -9   2   3    1.76    0.83
  -9   2   3    4.84    2.04
   8  -2  -3    4.60    1.76
   8  -2  -3    2.37    0.75
   8  -2  -3    2.88    0.95
  -8   2   3    5.96    1.63
  -8   2   3    1.84    0.82
  -8   2   3    1.89    0.64
   7  -2  -3   10.28    1.23
   7  -2  -3   10.38    2.13
   7  -2  -3    9.31    1.34
  -7   2   3   11.89    1.05
  -7   2   3    8.43    1.26
  -7   2   3   11.61    1.82
   6  -2  -3   -0.25    0.48
   6  -2  -3   -0.32    0.82
   6  -2  -3    1.52    0.51
  -6   2   3    0.72    0.90
  -6   2   3    0.85    0.47
   5  -2  -3   19.02    1.37
   5  -2  -3   17.59    1.93
   5  -2  -3   17.39    1.38
  -5   2   3   18.70    1.93
  -5   2   3   18.13    1.34
   4  -2  -3   39.18    2.27
   4  -2  -3   37.32    2.14
   4  -2  -3   35.30    2.20
   4  -2  -3   34.67    2.61
  -4   2   3   38.65    2.63
  -4   2   3   33.45    2.12
   3  -2  -3    9.36    0.75
   3  -2  -3    8.84    0.93
   3  -2  -3    8.21    1.08
   3  -2  -3    9.27    0.86
  -3   2   3    9.46    1.18
  -3   2   3    9.93    0.62
  -3   2   3    9.32    0.77
   2  -2  -3    4.40    0.47
   2  -2  -3    4.95    0.50
   2  -2  -3    4.50    0.72
   2  -2  -3    4.37    0.72
  -2   2   3    5.95    0.86
  -2   2   3    5.26    0.47
  -2   2   3    5.74    0.86
   1  -2  -3    8.56    0.74
   1  -2  -3    9.45    0.94
   1  -2  -3    9.33    0.79
  -1   2   3    9.32    1.00
  -1   2   3   10.17    0.75
  -1   2   3   11.88    0.82
   0  -2  -3  128.50    6.87
   0  -2  -3  130.91    6.57
   0  -2  -3  124.97    6.76
   0   2   3  135.76    6.77
   0   2   3  127.97    6.85
   0   2   3  124.48    6.90
   0   2   3  140.10    6.56
  -1  -2  -3  121.54    6.30
  -1  -2  -3  118.68    6.27
  -1  -2  -3  118.27    6.17
   1   2   3  123.31    6.33
   1   2   3  115.21    6.16
   1   2   3  118.96    6.25
  -2  -2  -3   58.72    3.11
  -2  -2  -3   58.74    3.06
  -2  -2  -3   58.82    3.26
  -2  -2  -3   59.69    3.21
   2   2   3   54.17    3.22
   2   2   3   60.22    3.23
   2   2   3   48.20    3.10
   2   2   3   56.84    3.11
  -3  -2  -3  152.67    7.40
  -3  -2  -3  154.40    7.56
  -3  -2  -3  152.59    7.37
   3   2   3  126.09    7.50
   3   2   3  140.52    7.45
   3   2   3  127.00    7.36
   3   2   3  143.71    7.39
   3   2   3  142.60    7.49
  -4  -2  -3    0.25    0.42
  -4  -2  -3    0.28    0.43
  -4  -2  -3    0.54    0.43
  -4  -2  -3    0.26    0.28
  -4  -2  -3    0.22    0.35
   4   2   3    0.26    0.36
   4   2   3    0.67    0.46
   4   2   3    0.22    0.33
   4   2   3    0.10    0.25
   4   2   3    0.82    0.40
  -5  -2  -3   11.57    1.08
  -5  -2  -3    9.04    1.22
  -5  -2  -3    9.71    1.03
  -5  -2  -3   10.38    1.17
   5   2   3   11.47    1.10
   5   2   3    7.45    1.25
   5   2   3   10.28    1.07
  -6  -2  -3    1.00    0.66
  -6  -2  -3    0.82    0.51
  -6  -2  -3    1.32    0.56
  -6  -2  -3    1.10    0.64
   6   2   3    1.52    0.62
   6   2   3    0.40    0.81
  -7  -2  -3   -0.12    0.71
  -7  -2  -3    0.03    0.80
  -7  -2  -3    0.42    0.63
  -7  -2  -3   -0.23    0.46
  -7  -2  -3   -0.20    0.58
   7   2   3    0.58    0.84
   7   2   3    0.62    0.57
  -8  -2  -3    5.64    1.17
  -8  -2  -3    7.37    1.39
  -8  -2  -3    5.39    1.16
  -8  -2  -3    5.62    1.13
  -8  -2  -3    6.76    0.99
   8   2   3    4.50    0.96
   8   2   3    8.30    2.81
  -9  -2  -3    3.08    1.29
  -9  -2  -3    4.60    1.23
  -9  -2  -3    4.21    0.99
  -9  -2  -3    4.57    1.52
  -9  -2  -3    2.62    1.10
   9   2   3    5.38    1.88
 -10  -2  -3    1.39    1.23
 -10  -2  -3    2.58    1.28
 -10  -2  -3   -0.52    0.92
 -10  -2  -3    4.18    1.52
 -10  -2  -3   -0.78    1.13
  10   2   3   -2.12    1.53
 -11  -2  -3   -1.00    1.47
 -11  -2  -3   -2.32    1.39
 -11  -2  -3    1.63    2.30
 -11  -2  -3    1.23    1.49
  11   2   3    0.40    1.96
 -12  -2  -3    7.83    2.07
 -12  -2  -3    7.94    2.24
  12   2   3    6.55    2.98
  10  -3  -3    0.30    2.48
 -10   3   3    0.84    1.15
 -10   3   3    2.79    4.04
 -10   3   3    2.21    2.92
 -10   3   3    0.11    1.31
   9  -3  -3    6.22    1.47
   9  -3  -3    2.84    2.41
  -9   3   3    3.34    2.29
  -9   3   3    6.20    1.15
  -9   3   3    5.26    1.18
   8  -3  -3    2.31    0.91
   8  -3  -3    0.50    1.85
   8  -3  -3    1.76    1.55
  -8   3   3   -0.44    1.66
  -8   3   3    1.30    0.69
  -8   3   3    1.98    0.84
   7  -3  -3   14.27    2.45
   7  -3  -3   14.26    1.55
   7  -3  -3    9.99    1.42
  -7   3   3   13.27    1.18
  -7   3   3   12.52    1.35
  -7   3   3   11.09    1.88
   6  -3  -3    1.32    0.66
   6  -3  -3    0.95    1.13
   6  -3  -3    1.55    0.55
  -6   3   3    1.28    0.54
  -6   3   3    1.32    0.41
  -6   3   3    1.97    1.03
   5  -3  -3    0.15    0.47
   5  -3  -3   -0.34    0.36
   5  -3  -3    0.03    0.90
  -5   3   3    0.51    0.73
  -5   3   3   -0.17    0.24
  -5   3   3   -0.11    0.36
   4  -3  -3   15.04    1.77
   4  -3  -3   17.67    1.41
   4  -3  -3   17.21    1.19
  -4   3   3   20.30    1.23
  -4   3   3   16.69    1.04
  -4   3   3   18.49    1.69
  -4   3   3   17.69    1.02
   3  -3  -3   23.27    1.36
   3  -3  -3   24.17    1.90
   3  -3  -3   22.12    1.61
  -3   3   3   22.99    1.20
  -3   3   3   20.45    1.76
  -3   3   3   22.96    1.36
   2  -3  -3   31.74    2.18
   2  -3  -3   31.08    1.80
  -2   3   3   32.55    1.90
  -2   3   3   33.90    2.57
  -2   3   3   32.83    2.22
  -2   3   3   36.45    2.31
   1  -3  -3  159.30    8.12
  -1   3   3  152.51    8.51
  -1   3   3  165.37    8.14
  -1   3   3  140.28    8.18
  -1   3   3  173.37    8.38
   0  -3  -3  120.07    6.34
   0   3   3  124.66    6.36
   0   3   3  124.25    6.28
   0   3   3  120.13    6.57
   0   3   3  117.17    6.46
  -1  -3  -3    7.81    0.88
  -1  -3  -3    7.51    0.82
   1   3   3    8.75    0.82
   1   3   3    8.83    0.88
   1   3   3    8.14    0.92
  -2  -3  -3    0.03    0.29
  -2  -3  -3   -0.51    0.30
   2   3   3    0.00    0.34
   2   3   3    0.63    0.31
   2   3   3    0.11    0.29
   2   3   3   -0.01    0.20
  -3  -3  -3   29.19    1.81
  -3  -3  -3   25.10    1.69
  -3  -3  -3   29.15    1.68
  -3  -3  -3   24.56    1.81
   3   3   3   26.61    1.68
   3   3   3   27.01    1.77
   3   3   3   24.35    1.92
   3   3   3   26.92    1.82
   3   3   3   27.17    1.83
  -4  -3  -3    1.61    0.43
  -4  -3  -3    1.24    0.39
  -4  -3  -3    1.29    0.49
  -4  -3  -3    1.69    0.60
   4   3   3    1.48    0.55
   4   3   3    1.24    0.47
   4   3   3    1.40    0.39
   4   3   3    0.97    0.42
  -5  -3  -3   51.25    3.09
  -5  -3  -3   53.56    3.27
  -5  -3  -3   53.10    3.06
  -5  -3  -3   49.26    3.18
  -5  -3  -3   50.92    3.32
   5   3   3   53.20    3.12
   5   3   3   50.03    3.09
   5   3   3   57.50    3.25
   5   3   3   48.12    2.96
  -6  -3  -3  238.94   11.89
  -6  -3  -3  213.43   11.53
  -6  -3  -3  216.87   11.57
  -6  -3  -3  216.84   11.86
  -6  -3  -3  228.28   11.65
   6   3   3  212.86   11.33
   6   3   3  225.99   11.29
   6   3   3  224.67   11.64
  -7  -3  -3  119.98    6.63
  -7  -3  -3  112.74    6.92
  -7  -3  -3  115.04    6.83
  -7  -3  -3  116.65    6.56
  -7  -3  -3  121.96    6.57
   7   3   3  122.92    6.60
  -8  -3  -3    4.71    1.05
  -8  -3  -3    5.39    0.80
  -8  -3  -3    5.60    1.14
  -8  -3  -3    5.84    1.54
  -8  -3  -3    5.38    1.39
  -8  -3  -3    5.50    1.15
   8   3   3    4.96    1.01
   8   3   3    3.02    1.38
  -9  -3  -3   -0.07    0.96
  -9  -3  -3    0.48    1.30
  -9  -3  -3    0.43    1.00
  -9  -3  -3   -0.51    0.94
  -9  -3  -3    0.36    0.67
   9   3   3   -0.83    0.87
   9   3   3    1.81    1.60
 -10  -3  -3    4.02    1.34
 -10  -3  -3    5.44    1.51
 -10  -3  -3    3.04    2.25
 -10  -3  -3    5.25    1.40
 -10  -3  -3    2.95    1.85
  10   3   3    2.54    1.86
 -11  -3  -3   -2.12    2.41
 -11  -3  -3   -1.91    1.35
 -11  -3  -3   -1.36    2.88
 -11  -3  -3   -0.08    1.48
  11   3   3   -0.24    2.00
 -12  -3  -3    2.55    4.00
 -12  -3  -3    5.20    2.00
 -12  -3  -3    2.08    1.83
 -12  -3  -3    1.75    3.33
  12   3   3    0.68    2.37
  10  -4  -3    3.18    2.55
 -10   4   3   17.95    5.61
 -10   4   3    8.17    1.62
 -10   4   3    6.42    4.57
   9  -4  -3   -0.01    1.67
  -9   4   3    2.26    3.30
  -9   4   3    2.41    1.09
  -9   4   3    0.89    2.57
  -9   4   3    0.87    0.94
   8  -4  -3   -0.08    1.10
   8  -4  -3    1.57    2.00
  -8   4   3    0.92    0.70
  -8   4   3    0.94    0.84
  -8   4   3    1.98    1.84
  -8   4   3    4.34    2.71
   7  -4  -3   72.74    5.30
   7  -4  -3   65.99    4.15
   7  -4  -3   64.53    3.83
  -7   4   3   61.59    3.65
  -7   4   3   71.61    5.86
  -7   4   3   65.40    3.77
   6  -4  -3    0.01    0.71
   6  -4  -3    1.55    1.18
   6  -4  -3    0.22    0.52
  -6   4   3   -0.18    0.41
  -6   4   3    2.33    1.90
  -6   4   3    0.06    1.03
  -6   4   3   -0.31    0.38
   5  -4  -3   31.53    2.39
   5  -4  -3   31.20    2.84
   5  -4  -3   33.96    2.04
  -5   4   3   35.46    1.87
  -5   4   3   33.36    1.92
  -5   4   3   31.22    1.98
  -5   4   3   37.62    3.47
  -5   4   3   37.02    2.71
   4  -4  -3    4.58    0.59
   4  -4  -3    3.60    1.08
   4  -4  -3    3.89    0.84
  -4   4   3    4.71    0.61
  -4   4   3    3.75    0.45
  -4   4   3    3.67    1.41
  -4   4   3    4.38    0.93
   3  -4  -3    6.52    1.28
   3  -4  -3    7.87    1.02
   3  -4  -3    8.20    0.60
  -3   4   3    7.99    1.19
  -3   4   3    6.08    1.31
  -3   4   3    6.92    0.74
   2  -4  -3   -0.49    0.50
   2  -4  -3   -0.24    0.14
   2  -4  -3    0.75    0.42
  -2   4   3    0.14    0.30
  -2   4   3   -0.37    0.68
  -2   4   3    0.19    0.52
   1  -4  -3   39.91    2.08
   1  -4  -3   38.13    2.04
  -1   4   3   40.53    2.37
  -1   4   3   40.95    2.55
  -1   4   3   39.27    2.83
  -1   4   3   39.11    2.59
   0  -4  -3   41.51    2.49
   0  -4  -3   43.76    2.82
   0   4   3   44.64    2.86
   0   4   3   38.03    2.52
   0   4   3   40.67    2.47
  -1  -4  -3   63.40    3.59
  -1  -4  -3   63.87    3.79
   1   4   3   61.45    3.79
   1   4   3   63.12    3.58
  -2  -4  -3   11.74    1.16
  -2  -4  -3   10.84    0.85
  -2  -4  -3   10.73    1.09
   2   4   3   11.46    1.06
   2   4   3   10.45    0.81
   2   4   3    9.83    1.18
  -3  -4  -3    2.87    0.45
  -3  -4  -3    2.96    0.45
  -3  -4  -3    2.40    0.62
  -3  -4  -3    2.45    0.64
   3   4   3    1.51    0.37
   3   4   3    2.50    0.71
   3   4   3    3.81    0.86
   3   4   3    2.10    0.52
  -4  -4  -3   31.24    2.19
  -4  -4  -3   32.28    2.03
  -4  -4  -3   31.21    2.27
  -4  -4  -3   31.97    1.96
   4   4   3   31.95    2.28
   4   4   3   30.98    1.97
   4   4   3   32.48    2.19
   4   4   3   31.98    2.39
  -5  -4  -3   60.51    3.84
  -5  -4  -3   61.88    4.02
  -5  -4  -3   66.80    4.18
  -5  -4  -3   63.46    3.76
  -5  -4  -3   67.31    3.70
   5   4   3   72.21    3.95
   5   4   3   64.92    3.78
   5   4   3   63.61    4.04
   5   4   3   67.08    3.75
  -6  -4  -3    2.96    0.60
  -6  -4  -3    1.60    0.55
  -6  -4  -3    0.99    1.46
  -6  -4  -3    2.20    0.81
  -6  -4  -3    0.37    0.77
   6   4   3    1.58    0.74
   6   4   3    1.78    0.53
   6   4   3    2.30    0.65
  -7  -4  -3    0.43    0.63
  -7  -4  -3    0.29    0.55
  -7  -4  -3    0.23    0.76
  -7  -4  -3    0.61    0.83
  -7  -4  -3    0.35    0.97
   7   4   3    0.76    0.56
   7   4   3    0.53    0.82
   7   4   3    0.75    0.56
   7   4   3    0.64    0.67
  -8  -4  -3   -2.11    1.08
  -8  -4  -3    1.34    0.87
  -8  -4  -3    0.25    0.74
  -8  -4  -3    0.37    1.09
  -8  -4  -3    1.83    0.73
   8   4   3    0.34    0.46
   8   4   3   -0.57    0.52
   8   4   3    2.09    1.16
   8   4   3   -0.09    0.70
  -9  -4  -3    3.01    0.94
  -9  -4  -3    1.22    1.56
  -9  -4  -3    2.30    1.04
  -9  -4  -3    0.79    0.58
  -9  -4  -3    1.02    1.49
   9   4   3    1.45    1.00
   9   4   3    0.14    1.56
 -10  -4  -3   -0.08    1.95
 -10  -4  -3    0.32    1.16
 -10  -4  -3    0.91    0.76
 -10  -4  -3    3.14    2.03
 -10  -4  -3    3.59    1.31
 -10  -4  -3    0.66    1.05
  10   4   3    0.85    1.49
  10   4   3    1.68    1.13
 -11  -4  -3    4.21    2.89
 -11  -4  -3    7.09    2.72
 -11  -4  -3    1.31    1.51
 -11  -4  -3    3.11    1.57
 -11  -4  -3    5.02    1.02
  11   4   3    3.09    2.10
  11   4   3    2.87    1.40
 -12  -4  -3   19.73    4.08
 -12  -4  -3   16.68    2.66
 -12  -4  -3   16.30    4.47
  12   4   3   12.22    3.05
   9  -5  -3    3.08    2.41
  -9   5   3   -3.09    3.80
  -9   5   3    7.54    3.06
   8  -5  -3    2.55    2.11
  -8   5   3   -4.78    2.69
  -8   5   3   -1.71    0.73
  -8   5   3    2.05    0.75
  -8   5   3   -2.83    2.03
   7  -5  -3    9.83    2.48
   7  -5  -3   11.36    1.70
  -7   5   3    9.50    1.09
  -7   5   3    4.78    2.62
  -7   5   3    9.45    1.15
  -7   5   3    9.84    2.10
   6  -5  -3    5.55    1.23
   6  -5  -3    6.03    1.97
  -6   5   3    7.62    0.85
  -6   5   3    8.27    0.85
  -6   5   3    8.93    1.67
  -6   5   3    6.07    2.72
  -6   5   3    7.12    0.77
   5  -5  -3   -0.34    1.07
   5  -5  -3    2.21    0.82
  -5   5   3    0.78    1.52
  -5   5   3    0.82    0.94
  -5   5   3    2.13    0.54
   4  -5  -3    7.83    1.52
   4  -5  -3    5.94    1.13
  -4   5   3    6.06    0.88
  -4   5   3    5.97    1.76
  -4   5   3    5.80    1.10
   3  -5  -3    6.77    1.11
   3  -5  -3   11.02    1.50
  -3   5   3    8.93    0.98
  -3   5   3    9.03    1.35
  -3   5   3    9.22    1.92
   2  -5  -3    7.77    1.30
   2  -5  -3    8.85    0.64
   2  -5  -3    9.45    1.13
  -2   5   3   10.78    1.22
  -2   5   3    9.31    1.57
  -2   5   3    9.18    0.97
   1  -5  -3  335.91   17.12
   1  -5  -3  300.87   16.63
  -1   5   3  343.36   17.60
  -1   5   3  356.99   17.01
   0  -5  -3  110.73    6.26
   0  -5  -3   97.33    5.81
   0  -5  -3  107.46    5.40
   0   5   3  105.88    6.21
   0   5   3  111.04    5.81
  -1  -5  -3   13.01    1.49
  -1  -5  -3   11.61    1.16
  -1  -5  -3   11.43    0.86
   1   5   3   13.98    1.20
   1   5   3   13.91    1.59
  -2  -5  -3    4.70    1.00
  -2  -5  -3    5.15    0.56
  -2  -5  -3    4.76    0.85
   2   5   3    4.64    0.54
   2   5   3    3.80    0.74
   2   5   3    4.14    0.95
  -3  -5  -3   38.24    2.43
  -3  -5  -3   36.48    2.17
  -3  -5  -3   36.52    2.62
  -3  -5  -3   39.52    2.10
   3   5   3   33.92    2.62
   3   5   3   34.35    2.09
   3   5   3   31.77    2.65
   3   5   3   35.66    2.43
  -4  -5  -3   35.53    2.20
  -4  -5  -3   32.72    2.56
  -4  -5  -3   37.88    2.12
  -4  -5  -3   32.61    2.39
   4   5   3   34.15    2.62
   4   5   3   35.93    2.71
   4   5   3   36.36    2.15
   4   5   3   33.44    2.41
  -5  -5  -3   11.70    1.11
  -5  -5  -3   16.07    1.49
  -5  -5  -3   12.57    1.62
  -5  -5  -3   13.24    1.24
   5   5   3   13.57    1.71
   5   5   3   12.53    1.15
   5   5   3   14.14    1.43
  -6  -5  -3   30.26    2.28
  -6  -5  -3   26.06    1.94
  -6  -5  -3   27.61    2.62
  -6  -5  -3   30.10    2.56
  -6  -5  -3   27.58    2.05
   6   5   3   24.59    2.44
   6   5   3   29.77    2.23
  -7  -5  -3   45.21    3.16
  -7  -5  -3   48.88    3.08
  -7  -5  -3   47.57    3.72
  -7  -5  -3   46.28    3.56
   7   5   3   42.70    3.16
   7   5   3   46.89    3.39
  -8  -5  -3   21.43    2.04
  -8  -5  -3   25.75    2.25
  -8  -5  -3   26.25    2.93
  -8  -5  -3   21.17    2.92
  -8  -5  -3   24.91    2.14
   8   5   3   22.66    2.87
   8   5   3   25.60    2.36
   8   5   3   23.23    1.97
   8   5   3   22.90    2.47
  -9  -5  -3   41.06    3.06
  -9  -5  -3   34.30    3.03
  -9  -5  -3   38.15    3.01
  -9  -5  -3   46.02    3.98
  -9  -5  -3   32.40    3.96
   9   5   3   39.84    2.65
   9   5   3   36.58    2.81
   9   5   3   49.74    4.04
   9   5   3   41.22    3.11
 -10  -5  -3   -0.87    0.63
 -10  -5  -3   -0.01    2.12
 -10  -5  -3   -1.10    0.91
 -10  -5  -3    1.27    1.28
 -10  -5  -3   -0.13    1.17
 -10  -5  -3    3.70    2.01
  10   5   3    1.83    1.80
  10   5   3   -0.15    1.10
 -11  -5  -3   10.73    1.35
 -11  -5  -3    6.25    2.88
 -11  -5  -3    9.76    1.88
 -11  -5  -3    5.45    2.69
 -11  -5  -3   11.46    1.94
  11   5   3   10.92    1.95
  11   5   3   12.41    2.92
 -12  -5  -3   -0.03    1.93
 -12  -5  -3   -2.34    3.58
  12   5   3    0.83    2.13
  12   5   3    1.21    1.89
   9  -6  -3    6.99    3.04
  -9   6   3    9.69    5.38
   8  -6  -3    0.53    2.11
   8  -6  -3    3.20    1.76
  -8   6   3    2.86    2.54
  -8   6   3   -0.70    3.26
   7  -6  -3   12.27    3.16
   7  -6  -3   19.88    2.55
  -7   6   3   15.28    3.60
  -7   6   3   18.69    2.75
   6  -6  -3    7.05    2.12
   6  -6  -3    5.51    1.44
  -6   6   3    9.13    1.84
  -6   6   3    7.00    2.50
  -6   6   3    9.05    1.21
   5  -6  -3   20.59    2.24
   5  -6  -3   21.90    2.92
  -5   6   3   22.84    2.46
  -5   6   3   21.68    1.77
   4  -6  -3    1.94    1.19
   4  -6  -3    1.33    0.90
  -4   6   3    3.95    0.78
  -4   6   3    3.44    1.05
  -4   6   3    3.10    1.56
   3  -6  -3   11.70    1.50
   3  -6  -3   10.82    1.82
  -3   6   3   15.85    2.46
  -3   6   3   11.93    1.51
  -3   6   3   11.95    1.29
   2  -6  -3    2.44    0.40
   2  -6  -3    2.08    0.69
  -2   6   3    2.55    0.68
  -2   6   3    2.04    1.02
   1  -6  -3   16.24    1.63
   1  -6  -3   20.98    1.24
   1  -6  -3   18.80    2.28
  -1   6   3   20.34    2.31
  -1   6   3   18.04    1.59
   0  -6  -3   15.33    1.45
   0  -6  -3   17.46    1.99
   0   6   3   16.86    2.01
   0   6   3   13.90    1.42
  -1  -6  -3   18.47    1.98
  -1  -6  -3   15.31    1.00
  -1  -6  -3   15.52    1.44
   1   6   3   15.96    1.92
   1   6   3   14.47    1.43
  -2  -6  -3   35.34    2.07
  -2  -6  -3   32.89    2.80
   2   6   3   36.43    2.46
   2   6   3   39.23    2.04
   2   6   3   32.40    2.78
  -3  -6  -3   40.68    2.99
  -3  -6  -3   37.60    2.26
  -3  -6  -3   37.08    2.59
   3   6   3   36.98    2.17
   3   6   3   37.88    2.93
   3   6   3   39.99    3.04
   3   6   3   36.00    2.55
  -4  -6  -3    6.53    0.80
  -4  -6  -3    8.03    1.33
  -4  -6  -3    6.15    0.73
  -4  -6  -3    5.51    1.04
   4   6   3    5.56    1.24
   4   6   3    6.19    1.36
   4   6   3    7.69    1.04
   4   6   3    5.56    0.72
  -5  -6  -3   14.16    1.72
  -5  -6  -3   22.48    2.15
  -5  -6  -3   18.58    1.38
  -5  -6  -3   17.19    1.50
   5   6   3   17.25    2.14
   5   6   3   19.50    1.52
   5   6   3   18.54    1.40
   5   6   3   17.33    1.68
   5   6   3   17.86    2.06
  -6  -6  -3   11.44    1.90
  -6  -6  -3   11.37    1.16
  -6  -6  -3   11.50    1.52
  -6  -6  -3   10.43    1.25
   6   6   3    8.82    1.33
   6   6   3    9.50    1.67
   6   6   3   10.59    1.42
  -7  -6  -3    7.55    1.70
  -7  -6  -3    7.84    1.20
  -7  -6  -3    7.45    1.11
  -7  -6  -3    6.82    1.31
  -7  -6  -3    7.26    1.70
   7   6   3    7.07    1.61
   7   6   3    5.26    1.90
   7   6   3    8.92    1.30
  -8  -6  -3   17.97    2.62
  -8  -6  -3   21.38    2.28
  -8  -6  -3   20.36    1.90
  -8  -6  -3   21.99    3.02
  -8  -6  -3   18.26    1.95
   8   6   3   22.84    2.19
   8   6   3   21.40    2.58
  -9  -6  -3    3.49    1.19
  -9  -6  -3    5.37    2.05
  -9  -6  -3    5.58    2.04
  -9  -6  -3    7.36    1.49
  -9  -6  -3    7.71    1.32
   9   6   3    5.64    1.17
   9   6   3    4.97    1.33
   9   6   3    6.11    1.56
 -10  -6  -3    7.64    1.08
 -10  -6  -3    7.13    1.56
 -10  -6  -3    6.44    2.25
 -10  -6  -3    9.58    1.68
 -10  -6  -3    8.31    2.72
  10   6   3    5.83    2.19
  10   6   3    8.06    1.72
  10   6   3    7.70    1.36
  10   6   3    7.04    1.64
 -11  -6  -3    7.47    1.75
 -11  -6  -3    8.90    1.15
 -11  -6  -3    5.93    3.27
 -11  -6  -3    5.32    2.88
  11   6   3    5.48    1.74
  11   6   3    3.66    2.11
 -12  -6  -3   18.23    4.18
 -12  -6  -3    7.58    2.27
  12   6   3    8.46    2.25
  12   6   3   10.02    3.12
   8  -7  -3   -2.27    1.89
   8  -7  -3    3.41    2.72
  -8   7   3   -8.39    4.03
   7  -7  -3    1.77    1.65
   7  -7  -3    2.94    2.35
  -7   7   3    2.19    0.98
  -7   7   3    3.89    0.93
  -7   7   3    7.88    2.07
  -7   7   3    8.89    2.40
  -7   7   3    1.93    3.54
   6  -7  -3    3.38    1.44
   6  -7  -3    4.26    2.40
  -6   7   3    2.81    1.73
  -6   7   3    1.64    1.05
  -6   7   3   -4.29    2.41
   5  -7  -3    6.51    1.45
   5  -7  -3    4.37    2.09
  -5   7   3    8.10    1.71
  -5   7   3    6.83    2.54
  -5   7   3    7.02    1.21
   4  -7  -3   14.35    1.96
  -4   7   3   11.01    3.15
  -4   7   3   10.76    1.66
  -4   7   3   12.74    2.12
   3  -7  -3   -0.37    0.85
  -3   7   3    1.77    1.68
  -3   7   3    1.71    0.95
   2  -7  -3    1.40    0.86
   2  -7  -3    1.45    0.42
  -2   7   3    1.17    0.76
  -2   7   3    2.68    1.42
   1  -7  -3   85.42    5.98
   1  -7  -3  103.64    4.92
   1  -7  -3   84.64    5.33
  -1   7   3   84.03    6.04
  -1   7   3   95.53    5.30
   0  -7  -3    4.58    1.48
   0  -7  -3    4.42    0.68
   0  -7  -3    4.34    0.94
   0   7   3    4.89    1.43
   0   7   3    5.62    1.00
  -1  -7  -3    8.44    0.65
  -1  -7  -3    6.97    1.53
  -1  -7  -3    8.66    1.25
   1   7   3    9.34    1.30
   1   7   3    8.87    1.72
   1   7   3    6.80    0.65
  -2  -7  -3    2.73    1.10
  -2  -7  -3    1.70    0.67
  -2  -7  -3    1.84    0.39
   2   7   3    1.79    0.81
   2   7   3    2.08    0.34
   2   7   3    2.75    1.06
   2   7   3    0.29    1.10
  -3  -7  -3   33.53    2.56
  -3  -7  -3   37.28    2.27
  -3  -7  -3   40.15    3.13
   3   7   3   38.73    3.32
   3   7   3   36.85    3.22
   3   7   3   39.33    2.17
   3   7   3   39.76    2.76
  -4  -7  -3    4.11    1.31
  -4  -7  -3    3.87    0.64
   4   7   3    4.01    1.37
   4   7   3    2.38    1.11
   4   7   3    1.63    0.76
   4   7   3    3.11    0.52
  -5  -7  -3    6.40    0.82
  -5  -7  -3    6.52    0.93
  -5  -7  -3    7.93    1.65
   5   7   3    6.35    0.92
   5   7   3    4.48    1.40
   5   7   3    6.04    1.28
   5   7   3    6.32    1.48
  -6  -7  -3   11.27    1.16
  -6  -7  -3   11.71    1.33
  -6  -7  -3   12.64    2.12
   6   7   3   14.19    1.77
   6   7   3   12.42    1.43
   6   7   3   12.39    2.03
  -7  -7  -3   56.12    3.32
  -7  -7  -3   55.42    3.47
  -7  -7  -3   49.17    4.21
   7   7   3   54.81    3.77
   7   7   3   54.61    3.54
   7   7   3   46.93    4.28
  -8  -7  -3   15.34    2.50
  -8  -7  -3   12.91    1.72
  -8  -7  -3   16.62    2.74
  -8  -7  -3   15.49    1.65
   8   7   3   15.84    1.89
   8   7   3   12.52    1.90
  -9  -7  -3    2.70    1.94
  -9  -7  -3   -0.03    0.94
  -9  -7  -3    0.84    0.95
  -9  -7  -3   -1.69    1.94
   9   7   3   -2.27    1.46
   9   7   3    3.27    1.21
 -10  -7  -3    1.59    1.36
 -10  -7  -3    2.57    1.42
 -10  -7  -3    4.90    2.25
 -10  -7  -3    1.08    2.51
  10   7   3   -0.54    1.23
  10   7   3    2.08    1.82
  10   7   3    1.77    1.48
 -11  -7  -3    3.68    0.67
 -11  -7  -3    1.97    1.75
 -11  -7  -3    3.92    0.79
 -11  -7  -3    3.33    1.52
 -11  -7  -3    5.02    3.23
 -11  -7  -3    1.91    3.15
  11   7   3    3.95    2.22
  11   7   3    5.94    1.54
  11   7   3    3.09    1.79
  11   7   3    3.02    1.83
 -12  -7  -3    6.98    2.37
  12   7   3    7.55    3.20
  12   7   3    8.67    2.41
   7  -8  -3    1.30    2.08
  -7   8   3    5.28    3.33
  -7   8   3    4.39    4.63
  -7   8   3   10.73    2.55
   6  -8  -3    4.92    1.82
  -6   8   3    0.98    3.44
  -6   8   3    2.94    1.72
  -6   8   3    5.34    2.43
   5  -8  -3    0.23    1.35
  -5   8   3   -3.00    1.61
  -5   8   3    2.32    2.83
  -5   8   3   -0.66    1.22
  -5   8   3    0.34    1.15
   4  -8  -3   -1.09    1.11
  -4   8   3    0.10    2.48
  -4   8   3    0.51    1.30
   3  -8  -3    2.25    1.20
  -3   8   3    3.93    1.39
  -3   8   3    3.87    2.02
   2  -8  -3    3.94    0.70
   2  -8  -3    2.99    1.25
  -2   8   3    4.08    1.88
   1  -8  -3   77.34    3.97
   1  -8  -3   68.13    4.50
   1  -8  -3   69.59    5.30
  -1   8   3   61.73    5.20
   0  -8  -3   68.60    4.44
   0  -8  -3   77.52    5.29
   0  -8  -3   68.53    3.98
   0   8   3   75.88    4.89
   0   8   3   67.98    5.23
  -1  -8  -3    0.78    0.65
  -1  -8  -3    0.34    1.19
   1   8   3    0.60    0.81
   1   8   3   -0.54    1.01
   1   8   3    0.61    0.29
  -2  -8  -3   75.78    5.20
  -2  -8  -3   76.12    3.87
  -2  -8  -3   72.87    4.43
   2   8   3   74.30    5.12
   2   8   3   67.45    4.53
   2   8   3   69.49    3.73
   2   8   3   67.26    5.13
  -3  -8  -3    0.18    0.35
  -3  -8  -3    0.02    0.63
  -3  -8  -3   -1.73    1.18
   3   8   3    0.68    1.06
   3   8   3    1.13    0.74
   3   8   3    0.24    0.28
   3   8   3    1.55    1.29
  -4  -8  -3    1.51    1.20
  -4  -8  -3    1.47    0.70
   4   8   3    2.07    1.25
   4   8   3    0.62    0.80
  -5  -8  -3    9.82    1.42
  -5  -8  -3   12.12    1.25
  -5  -8  -3   13.10    2.27
   5   8   3    8.30    1.79
   5   8   3   10.25    1.94
   5   8   3   11.56    1.35
   5   8   3   10.71    1.67
  -6  -8  -3    3.77    1.60
  -6  -8  -3    3.73    0.86
  -6  -8  -3    4.06    0.79
  -6  -8  -3    2.07    0.62
   6   8   3    2.83    1.63
   6   8   3    1.72    0.81
   6   8   3    2.52    1.47
   6   8   3    1.60    0.84
  -7  -8  -3   14.06    2.28
  -7  -8  -3   10.56    1.34
  -7  -8  -3   12.87    1.53
  -7  -8  -3   11.70    1.57
   7   8   3   14.04    2.50
   7   8   3   16.69    1.84
   7   8   3   16.60    2.07
  -8  -8  -3   17.31    1.73
  -8  -8  -3   18.20    1.80
   8   8   3   16.09    2.43
   8   8   3   17.68    2.97
   8   8   3   16.20    2.15
  -9  -8  -3    7.40    1.48
  -9  -8  -3    3.29    2.32
  -9  -8  -3    5.88    1.14
  -9  -8  -3    7.43    1.33
   9   8   3    6.36    1.63
   9   8   3    5.66    2.05
   9   8   3    6.39    1.43
 -10  -8  -3    3.32    2.89
 -10  -8  -3    9.54    3.18
 -10  -8  -3    8.65    1.15
 -10  -8  -3    7.47    1.45
 -10  -8  -3    6.86    1.71
  10   8   3    5.59    2.36
  10   8   3   10.53    2.11
 -11  -8  -3    2.60    1.61
 -11  -8  -3    1.26    0.69
 -11  -8  -3   -2.97    1.51
 -11  -8  -3    2.93    3.56
  11   8   3   -2.27    1.96
  11   8   3    1.79    2.33
  11   8   3    0.65    1.80
 -12  -8  -3    7.23    2.21
  12   8   3    4.34    2.54
  12   8   3    7.09    3.54
   6  -9  -3    3.12    2.17
  -6   9   3   -0.14    4.24
  -6   9   3    1.49    3.02
  -6   9   3    2.83    2.62
   5  -9  -3    4.57    2.00
  -5   9   3    8.54    1.97
  -5   9   3    8.64    1.74
  -5   9   3    4.47    3.67
  -5   9   3    2.76    2.37
   4  -9  -3    0.64    1.36
  -4   9   3    2.51    1.77
  -4   9   3   -0.27    1.46
  -4   9   3   10.06    3.14
  -4   9   3   -0.59    1.14
   3  -9  -3    0.15    0.72
   3  -9  -3   -0.54    1.37
  -3   9   3    2.17    0.88
  -3   9   3    2.51    1.32
  -3   9   3   -2.23    2.43
   2  -9  -3    2.36    0.75
   2  -9  -3   -0.31    1.02
  -2   9   3    2.95    2.03
  -2   9   3   -0.36    1.17
   1  -9  -3   -3.40    1.93
   1  -9  -3    0.36    1.03
   1  -9  -3    0.08    0.58
  -1   9   3   -0.82    1.10
  -1   9   3    1.43    2.03
   0  -9  -3    4.34    1.20
   0  -9  -3    5.90    2.05
   0  -9  -3    3.93    0.85
   0   9   3    4.94    1.27
   0   9   3    3.39    0.53
   0   9   3    1.15    1.62
  -1  -9  -3    3.95    0.80
  -1  -9  -3    4.87    1.89
  -1  -9  -3    5.26    1.13
   1   9   3    5.36    1.84
   1   9   3    4.31    1.24
   1   9   3    3.64    2.02
  -2  -9  -3    0.39    0.89
  -2  -9  -3    2.82    1.58
  -2  -9  -3    0.70    0.39
   2   9   3    0.79    0.92
   2   9   3    3.37    1.59
   2   9   3    1.52    1.40
  -3  -9  -3   41.69    4.51
  -3  -9  -3   43.02    2.53
  -3  -9  -3   41.24    3.06
   3   9   3   40.67    4.01
   3   9   3   41.47    4.00
   3   9   3   39.10    3.27
  -4  -9  -3    0.80    0.85
  -4  -9  -3    1.99    1.51
  -4  -9  -3    0.93    0.55
   4   9   3    0.82    1.39
   4   9   3   -0.62    0.89
   4   9   3   -0.29    1.35
  -5  -9  -3    7.16    1.03
  -5  -9  -3    4.25    1.89
  -5  -9  -3    3.39    1.08
   5   9   3    6.53    2.04
   5   9   3    3.96    1.17
   5   9   3    7.40    1.10
   5   9   3    4.58    1.87
  -6  -9  -3   -0.26    1.67
  -6  -9  -3    0.45    0.72
  -6  -9  -3   -0.43    0.78
   6   9   3   -0.91    1.44
   6   9   3    0.29    0.79
   6   9   3    0.13    1.59
   6   9   3   -1.79    0.93
  -7  -9  -3   29.94    2.15
  -7  -9  -3   31.93    2.48
  -7  -9  -3   27.06    3.90
  -7  -9  -3   30.24    2.43
   7   9   3   32.50    2.61
   7   9   3   25.97    2.94
  -8  -9  -3    1.86    0.94
  -8  -9  -3    0.46    0.77
  -8  -9  -3    4.30    2.35
  -8  -9  -3    1.50    0.93
   8   9   3    1.64    1.33
   8   9   3    2.52    2.29
   8   9   3    1.05    1.55
  -9  -9  -3   14.29    3.19
  -9  -9  -3    9.72    1.73
  -9  -9  -3    8.21    1.29
  -9  -9  -3    6.78    1.38
   9   9   3    7.75    1.75
   9   9   3    7.71    1.97
   9   9   3    9.80    2.76
 -10  -9  -3    1.76    1.35
 -10  -9  -3   -0.99    0.85
 -10  -9  -3   -1.17    2.95
 -10  -9  -3    2.01    1.43
  10   9   3   -2.80    1.82
  10   9   3   -1.14    2.47
 -11  -9  -3   -1.50    1.85
 -11  -9  -3   -0.20    0.69
 -11  -9  -3    1.21    1.75
  11   9   3   -4.15    2.32
 -12  -9  -3   18.05    2.89
  12   9   3   12.62    3.32
  12   9   3   21.43    3.73
   5 -10  -3   -2.48    2.25
  -5  10   3    3.11    4.41
  -5  10   3    0.58    3.27
   4 -10  -3   -1.65    1.76
  -4  10   3   -2.94    3.75
  -4  10   3   -2.54    2.00
  -4  10   3    2.44    2.15
  -4  10   3    0.61    2.39
   3 -10  -3    1.06    1.60
  -3  10   3    1.87    0.92
  -3  10   3    0.04    3.06
  -3  10   3   -3.77    1.72
   2 -10  -3    1.12    0.87
   2 -10  -3    0.52    1.39
  -2  10   3    0.30    2.78
  -2  10   3    0.30    0.63
   1 -10  -3   12.87    2.12
   1 -10  -3   12.44    1.57
  -1  10   3   11.16    2.03
  -1  10   3   11.03    0.97
  -1  10   3   10.47    2.80
   0 -10  -3    2.61    0.81
   0 -10  -3    1.87    2.40
   0 -10  -3    6.31    1.52
   0  10   3    5.30    2.05
   0  10   3    3.03    2.29
   0  10   3    5.29    1.65
  -1 -10  -3    4.31    0.99
  -1 -10  -3    4.15    1.25
  -1 -10  -3    8.09    2.64
   1  10   3    5.33    2.23
   1  10   3    3.18    2.39
   1  10   3    6.92    1.65
  -2 -10  -3   31.28    3.37
  -2 -10  -3   42.69    4.57
  -2 -10  -3   40.73    2.23
   2  10   3   36.54    4.24
   2  10   3   36.33    4.27
   2  10   3   42.20    3.39
  -3 -10  -3   20.96    1.63
  -3 -10  -3   24.79    2.35
  -3 -10  -3   21.61    3.50
   3  10   3   17.65    4.61
   3  10   3   24.25    2.84
  -4 -10  -3   32.34    2.21
  -4 -10  -3   33.77    4.24
  -4 -10  -3   33.14    2.77
   4  10   3   34.22    4.09
   4  10   3   28.97    2.98
  -5 -10  -3    0.62    0.69
  -5 -10  -3    2.49    1.86
  -5 -10  -3   -0.20    0.94
   5  10   3    3.06    1.45
   5  10   3    0.14    2.05
   5  10   3    0.84    1.92
  -6 -10  -3   -0.68    0.94
  -6 -10  -3    1.39    0.79
  -6 -10  -3    3.67    2.05
   6  10   3    1.09    1.79
   6  10   3    1.57    0.86
   6  10   3    1.33    1.77
   6  10   3   -0.41    1.25
  -7 -10  -3   41.31    3.00
  -7 -10  -3   33.99    2.94
  -7 -10  -3   42.26    4.85
   7  10   3   41.70    3.17
   7  10   3   37.92    3.59
   7  10   3   39.25    4.83
   7  10   3   41.94    5.32
  -8 -10  -3   28.23    2.63
  -8 -10  -3   26.33    2.41
  -8 -10  -3   27.33    2.21
  -8 -10  -3   28.80    4.17
   8  10   3   21.36    3.53
   8  10   3   30.31    4.93
   8  10   3   22.02    2.78
  -9 -10  -3   13.17    3.59
  -9 -10  -3   12.26    1.89
  -9 -10  -3   13.63    2.00
  -9 -10  -3   12.00    1.91
   9  10   3   10.36    2.42
   9  10   3   13.31    3.49
   9  10   3    7.49    1.90
 -10 -10  -3   20.33    2.26
 -10 -10  -3   26.98    3.16
 -10 -10  -3   19.54    2.35
  10  10   3   22.78    4.00
 -11 -10  -3    8.22    2.12
 -11 -10  -3    8.05    1.99
  11  10   3   10.40    3.88
  -4  11   3    8.57    5.32
   3 -11  -3    1.18    1.97
  -3  11   3   -0.76    2.60
  -3  11   3    4.23    3.97
   2 -11  -3    6.18    1.36
   2 -11  -3    2.57    1.91
  -2  11   3    6.37    3.03
   1 -11  -3    0.83    1.03
   1 -11  -3    0.99    1.70
  -1  11   3    3.80    3.14
  -1  11   3   -0.10    2.54
   0 -11  -3    6.92    1.33
   0 -11  -3    8.49    2.01
   0  11   3    3.74    2.95
   0  11   3    4.87    2.81
   0  11   3    4.47    2.05
  -1 -11  -3    0.25    0.95
  -1 -11  -3    2.44    1.41
  -1 -11  -3    6.36    3.01
   1  11   3    1.33    2.44
   1  11   3   -2.48    2.27
   1  11   3   -0.88    1.68
  -2 -11  -3    0.00    0.79
  -2 -11  -3    3.72    2.72
  -2 -11  -3    0.12    1.40
   2  11   3   -3.96    2.07
   2  11   3    0.47    2.20
   2  11   3   -0.26    1.53
  -3 -11  -3    3.85    2.81
  -3 -11  -3    1.33    1.25
  -3 -11  -3    3.22    0.71
   3  11   3    5.41    2.32
   3  11   3    1.22    2.24
   3  11   3    5.00    1.87
  -4 -11  -3    1.33    1.12
  -4 -11  -3    0.38    0.71
  -4 -11  -3    3.24    2.86
   4  11   3    2.23    2.22
   4  11   3   -1.52    1.53
   4  11   3   -0.32    2.41
  -5 -11  -3   -0.35    1.41
  -5 -11  -3   -1.81    2.46
  -5 -11  -3    1.35    0.84
   5  11   3    1.48    1.61
   5  11   3    0.50    2.28
   5  11   3    0.80    2.46
  -6 -11  -3    0.84    2.55
  -6 -11  -3    0.70    1.22
  -6 -11  -3    2.17    1.00
   6  11   3    4.27    2.47
   6  11   3    0.76    1.61
   6  11   3    0.28    2.60
  -7 -11  -3    4.44    2.96
  -7 -11  -3    6.42    1.32
  -7 -11  -3    6.09    1.46
   7  11   3    2.71    3.13
   7  11   3    3.95    3.09
   7  11   3    2.56    1.83
  -8 -11  -3   11.04    1.83
  -8 -11  -3   10.31    1.87
   8  11   3   22.45    4.06
  -9 -11  -3    4.07    1.65
  -9 -11  -3    7.14    1.45
  -9 -11  -3    6.75    1.60
   9  11   3    2.03    3.31
 -10 -11  -3   11.21    1.70
 -10 -11  -3   10.31    2.24
  10  11   3    7.96    4.09
 -11 -11  -3    4.77    2.14
  11  11   3    4.27    4.27
   2 -12  -3    8.57    2.71
  -2  12   3    5.82    3.98
  -2  12   3    5.73    4.79
   1 -12  -3    2.55    2.08
   1 -12  -3    6.77    1.56
  -1  12   3    9.32    3.60
  -1  12   3   -4.62    3.87
   0 -12  -3    6.24    1.63
   0 -12  -3    6.48    2.04
   0  12   3    7.05    3.76
   0  12   3    7.81    3.55
  -1 -12  -3   24.16    3.36
  -1 -12  -3   28.61    2.83
   1  12   3   23.58    4.21
   1  12   3   22.55    4.65
   2  12   3    9.35    3.42
   2  12   3    7.52    3.22
  -3 -12  -3    6.09    1.51
  -3 -12  -3    8.01    2.04
   3  12   3    5.78    3.38
   3  12   3   11.34    3.33
  -4 -12  -3   11.11    1.56
  -4 -12  -3    6.45    1.88
   4  12   3   11.98    3.31
   4  12   3    2.13    2.99
  -5 -12  -3    0.10    0.95
  -5 -12  -3    1.17    1.53
   5  12   3    2.65    2.94
   5  12   3   -1.65    2.65
  -6 -12  -3   13.96    2.26
  -6 -12  -3   10.97    1.66
   6  12   3   12.88    3.57
   6  12   3   13.94    3.93
  -7 -12  -3    0.92    1.32
  -7 -12  -3    1.53    1.58
   7  12   3    0.15    3.62
   7  12   3   -2.26    3.01
  -8 -12  -3    0.79    1.59
  -8 -12  -3    3.55    3.03
   8  12   3    0.79    3.54
  -9 -12  -3   -0.98    1.66
  -9 -12  -3    0.01    1.59
   9  12   3   -2.47    4.20
 -10 -12  -3   22.29    3.11
  10  12   3   24.50    5.56
   0 -13  -3    0.81    2.68
   0 -13  -3    3.47    1.70
   0  13   3    0.53    4.30
   0  13   3   -3.42    5.36
  -1 -13  -3   -2.88    2.14
  -1 -13  -3    1.91    1.74
   1  13   3    8.54    4.29
   1  13   3    0.76    4.25
  -2 -13  -3   -3.63    2.05
  -2 -13  -3    1.20    1.72
   2  13   3   -2.90    3.41
  -3 -13  -3   -1.97    1.98
  -3 -13  -3   -0.33    1.46
   3  13   3    1.93    4.08
   3  13   3    5.08    3.80
  -4 -13  -3    2.37    1.94
   4  13   3    3.19    3.57
   4  13   3    1.74    3.65
  -5 -13  -3    7.83    2.28
   5  13   3    0.18    3.88
   5  13   3    3.46    3.54
  -6 -13  -3    1.73    1.97
  -6 -13  -3    0.66    1.53
   6  13   3   -0.64    4.02
   6  13   3    3.91    3.84
  -7 -13  -3    0.15    1.79
  -7 -13  -3   -0.24    1.49
   7  13   3   -0.45    4.41
   7  13   3    1.39    4.68
  -8 -13  -3    3.18    2.14
  -8 -13  -3    0.76    1.79
   8  13   3    3.22    5.15
   5  11  -4    1.25    4.73
  -5 -11   4   -0.07    3.65
   4  11  -4   11.51    4.86
   3  11  -4    2.27    4.59
   3  11  -4   11.84    5.58
  -3 -11   4   12.70    2.60
   8  10  -4   -1.82    4.55
   7  10  -4    3.42    4.05
  -7 -10   4   -2.15    2.01
   6  10  -4   -4.60    3.57
  -6 -10   4    0.05    1.87
   5  10  -4   -6.36    3.34
   5  10  -4    0.07    1.83
  -5 -10   4    0.53    1.82
   4  10  -4   -0.70    3.33
   4  10  -4    1.61    2.36
   4  10  -4   -1.12    1.51
  -4 -10   4   -2.21    1.54
   3  10  -4    6.13    3.75
   3  10  -4    6.90    1.61
   3  10  -4    3.53    3.66
  -3 -10   4    5.69    1.72
   2  10  -4    1.39    1.50
   2  10  -4   -2.15    3.57
   2  10  -4    4.28    3.56
  -2 -10   4    3.68    1.93
   1  10  -4   10.89    4.02
   1  10  -4    8.96    3.92
   1  10  -4    6.73    1.58
  -1 -10   4    2.08    1.93
   0  10  -4    2.73    4.08
   0  10  -4   -0.56    3.97
   0 -10   4    0.68    2.11
  -1  10  -4    2.60    4.02
  -1  10  -4    4.52    4.41
   1 -10   4    5.67    2.36
   9   9  -4   -3.54    4.20
  -9  -9   4   -2.34    2.03
   8   9  -4   10.25    4.19
   7   9  -4    4.07    3.45
  -7  -9   4    4.66    1.15
   6   9  -4    4.38    1.75
   6   9  -4    6.67    3.09
  -6  -9   4    1.63    1.41
  -6  -9   4   -1.04    3.44
  -6  -9   4    3.05    0.80
   5   9  -4   -1.04    1.56
   5   9  -4    4.27    2.96
   5   9  -4    2.40    1.48
  -5  -9   4   -3.58    2.75
  -5  -9   4    0.62    1.36
   4   9  -4    1.07    2.87
   4   9  -4    0.43    1.26
   4   9  -4    1.19    1.66
  -4  -9   4    0.78    1.36
  -4  -9   4    0.94    2.92
   3   9  -4    2.66    2.78
   3   9  -4    3.70    3.12
   3   9  -4    1.84    1.20
   3   9  -4    3.61    1.68
  -3  -9   4   -2.65    2.78
  -3  -9   4   -0.28    1.27
   2   9  -4    3.11    2.77
   2   9  -4    5.99    1.34
   2   9  -4    3.54    2.89
   2   9  -4    0.09    1.97
  -2  -9   4    5.22    3.06
  -2  -9   4    1.53    1.38
   1   9  -4   -1.43    1.03
   1   9  -4   -4.72    2.61
   1   9  -4   -1.89    1.85
   1   9  -4    1.00    2.93
  -1  -9   4   -0.73    3.24
  -1  -9   4    1.13    1.42
   0   9  -4    5.65    2.85
   0   9  -4    1.83    2.91
   0   9  -4    5.63    1.27
   0  -9   4    7.91    3.53
   0  -9   4    1.97    1.42
  -1   9  -4   24.78    4.52
  -1   9  -4   37.56    5.63
  -1   9  -4   26.94    3.03
   1  -9   4   32.04    4.82
   1  -9   4   33.77    3.49
  -2   9  -4    7.30    3.40
  -2   9  -4   15.45    4.33
   2  -9   4   11.95    2.51
  -3   9  -4   -1.01    3.55
  -3   9  -4   -1.34    4.11
   3  -9   4   -1.70    2.16
  10   8  -4    6.63    2.83
  10   8  -4    5.69    4.51
 -10  -8   4    0.59    2.09
   9   8  -4   19.14    4.43
  -9  -8   4   14.27    2.49
   8   8  -4    0.18    2.95
   8   8  -4    0.99    1.97
  -8  -8   4    1.24    1.48
   7   8  -4    0.49    1.60
   7   8  -4    0.28    2.64
  -7  -8   4   -0.60    1.19
  -7  -8   4    5.21    3.08
   6   8  -4   -1.31    1.21
   6   8  -4    0.35    2.48
  -6  -8   4    3.10    2.78
  -6  -8   4   -1.98    2.38
   5   8  -4    4.93    1.36
   5   8  -4    2.86    2.48
   5   8  -4    0.80    1.27
  -5  -8   4    2.36    2.50
  -5  -8   4    3.27    2.55
  -5  -8   4    3.18    1.28
   4   8  -4    1.45    1.05
   4   8  -4    2.29    1.19
   4   8  -4    2.60    2.29
  -4  -8   4    2.22    2.04
  -4  -8   4    0.52    1.16
  -4  -8   4    6.16    2.52
   3   8  -4   51.63    3.59
   3   8  -4   44.54    5.34
   3   8  -4   59.46    3.96
   3   8  -4   54.71    5.23
  -3  -8   4   58.83    3.96
  -3  -8   4   47.21    4.97
   2   8  -4    1.37    2.27
   2   8  -4    0.55    1.35
   2   8  -4   -1.00    0.87
   2   8  -4    0.88    2.24
  -2  -8   4    1.50    1.17
  -2  -8   4   -1.31    2.01
   1   8  -4    2.01    2.19
   1   8  -4    4.68    1.01
   1   8  -4    0.67    2.52
   1   8  -4    3.39    1.53
  -1  -8   4    4.91    2.55
  -1  -8   4    4.35    1.31
   0   8  -4    3.71    1.03
   0   8  -4    2.56    2.13
   0   8  -4    4.27    1.69
   0   8  -4    6.90    2.71
   0  -8   4    3.82    1.31
   0  -8   4    3.31    2.66
  -1   8  -4    4.34    2.56
  -1   8  -4    5.06    1.84
  -1   8  -4    4.23    2.47
   1  -8   4    0.05    2.72
   1  -8   4    4.14    1.39
  -2   8  -4    2.69    2.49
  -2   8  -4    2.75    2.78
  -2   8  -4    5.04    1.03
   2  -8   4    2.94    1.56
   2  -8   4   -0.71    2.94
  -3   8  -4    0.79    3.27
  -3   8  -4    0.37    2.57
  -3   8  -4    1.15    1.07
   3  -8   4    5.26    1.93
  -4   8  -4   -0.11    3.25
  -4   8  -4   -1.21    2.71
  -4   8  -4    1.12    1.15
   4  -8   4    6.97    2.08
  11   7  -4    9.94    4.29
 -11  -7   4   14.61    4.14
  10   7  -4    7.47    3.65
  10   7  -4    2.94    2.06
 -10  -7   4    2.71    1.77
   9   7  -4   -3.45    2.73
   9   7  -4   -0.44    1.80
  -9  -7   4    1.21    1.49
   8   7  -4    9.87    3.17
   8   7  -4    3.30    1.66
   8   7  -4    7.14    1.80
  -8  -7   4    6.28    1.60
   7   7  -4    1.16    1.48
   7   7  -4    0.49    2.28
   7   7  -4    3.01    1.43
  -7  -7   4    2.90    2.64
  -7  -7   4    3.91    1.30
  -7  -7   4    8.13    2.92
   6   7  -4    5.06    1.28
   6   7  -4    6.75    2.59
  -6  -7   4    3.51    2.36
  -6  -7   4    5.20    1.30
  -6  -7   4    5.68    2.28
   5   7  -4    5.54    1.09
   5   7  -4    3.68    2.12
  -5  -7   4    4.58    2.16
  -5  -7   4    7.69    2.21
   4   7  -4    4.10    1.10
   4   7  -4    1.14    3.07
   4   7  -4    4.29    1.16
  -4  -7   4    6.55    2.13
  -4  -7   4    2.17    1.10
  -4  -7   4    3.86    2.00
   3   7  -4    8.66    2.15
   3   7  -4    7.01    1.27
   3   7  -4    5.11    1.05
   3   7  -4    6.79    2.30
  -3  -7   4    4.04    1.79
  -3  -7   4    5.04    2.05
  -3  -7   4    5.57    1.41
  -3  -7   4    4.80    0.76
   2   7  -4    0.40    1.82
   2   7  -4    1.96    0.97
   2   7  -4   -0.87    1.79
   2   7  -4    1.36    0.84
  -2  -7   4    0.31    0.40
  -2  -7   4    2.14    1.56
  -2  -7   4    1.22    1.51
   1   7  -4    0.42    0.70
   1   7  -4   -0.95    1.49
   1   7  -4    2.22    1.05
   1   7  -4    1.88    1.65
  -1  -7   4    1.63    1.08
  -1  -7   4   -0.56    1.64
  -1  -7   4    0.34    0.43
   0   7  -4    1.76    0.78
   0   7  -4    3.03    1.60
   0   7  -4    0.46    1.68
   0   7  -4    0.45    1.06
   0  -7   4   -1.86    1.90
   0  -7   4    0.92    1.04
  -1   7  -4    9.13    1.83
  -1   7  -4   11.69    2.54
  -1   7  -4   11.56    1.50
  -1   7  -4    8.18    2.19
   1  -7   4   10.67    1.78
   1  -7   4   14.40    2.78
  -2   7  -4    0.52    0.82
  -2   7  -4    0.23    1.85
  -2   7  -4    4.07    1.49
  -2   7  -4   -0.04    2.09
   2  -7   4   -0.75    2.14
   2  -7   4    1.30    1.15
  -3   7  -4   -0.53    1.94
  -3   7  -4    2.46    0.93
  -3   7  -4    2.73    2.29
   3  -7   4    1.63    1.39
  -4   7  -4    5.96    2.71
  -4   7  -4    0.00    2.12
  -4   7  -4    2.07    1.03
  -4   7  -4   -1.25    0.98
   4  -7   4   -0.42    1.45
  -5   7  -4    0.59    1.15
  -5   7  -4    0.06    2.52
  -5   7  -4    5.45    3.09
  -5   7  -4    1.10    2.32
  -6   7  -4   11.52    4.40
  -6   7  -4   14.96    3.58
  11   6  -4   10.67    3.54
 -11  -6   4    7.80    2.30
  10   6  -4   -4.59    2.80
  10   6  -4    2.06    1.72
 -10  -6   4    2.60    1.71
   9   6  -4   18.73    2.73
   9   6  -4   17.67    3.41
  -9  -6   4   13.23    2.15
   8   6  -4    5.69    1.49
   8   6  -4    2.68    2.37
   8   6  -4    4.01    1.40
  -8  -6   4    2.81    2.77
  -8  -6   4    8.51    3.11
  -8  -6   4    5.61    1.41
   7   6  -4   13.85    2.80
   7   6  -4   17.32    2.22
  -7  -6   4   18.78    3.38
  -7  -6   4   16.48    3.31
  -7  -6   4   16.35    2.12
   6   6  -4    5.04    1.31
   6   6  -4    3.97    0.79
   6   6  -4    2.81    1.98
  -6  -6   4    4.05    1.20
  -6  -6   4    5.33    2.31
  -6  -6   4    7.50    2.32
   5   6  -4   16.41    1.54
   5   6  -4   14.11    1.78
   5   6  -4   17.70    2.89
  -5  -6   4   14.85    2.52
  -5  -6   4   13.56    2.35
   4   6  -4   19.91    1.72
   4   6  -4   16.62    1.78
   4   6  -4   14.92    2.68
  -4  -6   4   18.81    2.85
  -4  -6   4   15.20    1.79
  -4  -6   4   17.62    2.68
   3   6  -4   22.01    3.09
   3   6  -4   23.31    2.08
   3   6  -4   29.22    2.06
  -3  -6   4   26.18    2.16
  -3  -6   4   23.66    2.97
  -3  -6   4   24.23    3.30
   2   6  -4    1.74    1.35
   2   6  -4    0.55    0.77
   2   6  -4    0.55    1.33
  -2  -6   4   -0.36    0.73
  -2  -6   4   -0.46    1.33
  -2  -6   4   -1.13    1.04
  -2  -6   4    0.83    0.36
   1   6  -4   31.82    2.65
   1   6  -4   32.37    3.42
   1   6  -4   34.04    2.38
   1   6  -4   36.15    3.54
  -1  -6   4   33.05    2.03
  -1  -6   4   34.95    3.28
  -1  -6   4   40.54    2.70
   0   6  -4   36.43    3.58
   0   6  -4   39.95    2.88
   0   6  -4   38.09    2.54
   0   6  -4   35.09    3.50
   0  -6   4   37.51    2.24
   0  -6   4   39.81    2.84
   0  -6   4   36.06    3.66
  -1   6  -4   24.17    2.34
  -1   6  -4   20.57    2.86
  -1   6  -4   26.13    3.18
  -1   6  -4   25.02    1.83
   1  -6   4   25.03    3.21
   1  -6   4   19.59    2.14
  -2   6  -4    0.43    1.55
  -2   6  -4    0.40    0.65
  -2   6  -4   -1.07    1.07
  -2   6  -4    1.58    1.42
   2  -6   4   -0.41    0.89
   2  -6   4    0.19    1.51
  -3   6  -4    4.40    1.87
  -3   6  -4    5.01    1.68
  -3   6  -4    2.38    1.45
  -3   6  -4    3.65    0.81
   3  -6   4    4.47    1.28
  -4   6  -4   -0.69    1.94
  -4   6  -4    1.05    1.61
  -4   6  -4    2.70    1.51
   4  -6   4    1.17    1.16
  -5   6  -4    1.78    1.51
  -5   6  -4    2.93    2.11
  -5   6  -4    3.53    2.48
  -5   6  -4    1.12    1.70
  -5   6  -4    3.40    1.22
  -5   6  -4    1.63    0.99
  -6   6  -4    4.70    1.83
  -6   6  -4    6.41    3.14
  -6   6  -4   -0.05    2.24
  -6   6  -4    2.00    1.50
  -7   6  -4    4.49    2.22
  -7   6  -4    4.97    3.00
  -7   6  -4    3.81    3.68
  11   5  -4   -3.73    2.91
  11   5  -4    1.14    1.87
 -11  -5   4    1.26    1.94
  10   5  -4    0.51    2.39
  10   5  -4   -2.08    1.23
 -10  -5   4    1.85    1.57
   9   5  -4    3.88    1.70
   9   5  -4   -0.86    2.16
  -9  -5   4    0.09    1.19
  -9  -5   4   -0.78    3.10
  -9  -5   4    1.25    2.68
   8   5  -4    2.05    1.23
   8   5  -4    2.95    2.15
   8   5  -4    1.81    1.25
  -8  -5   4    3.46    1.19
  -8  -5   4    6.44    2.25
  -8  -5   4    3.92    2.45
   7   5  -4    6.16    1.20
   7   5  -4    5.00    1.22
   7   5  -4    5.98    2.37
  -7  -5   4    6.07    1.30
  -7  -5   4    7.34    2.66
  -7  -5   4    7.26    2.43
   6   5  -4   48.11    3.12
   6   5  -4   40.47    2.49
   6   5  -4   42.87    4.10
  -6  -5   4   41.96    4.11
  -6  -5   4   37.95    4.15
  -6  -5   4   44.28    3.07
   5   5  -4    6.27    1.98
   5   5  -4    7.30    0.94
   5   5  -4    4.82    1.03
  -5  -5   4    5.75    1.66
  -5  -5   4    6.54    1.08
  -5  -5   4    7.03    1.84
   4   5  -4    2.91    0.78
   4   5  -4    3.22    0.68
   4   5  -4    2.69    1.29
  -4  -5   4    1.84    1.18
  -4  -5   4    2.59    1.41
   3   5  -4   54.55    4.42
   3   5  -4   55.31    3.49
  -3  -5   4   56.11    4.65
  -3  -5   4   60.58    3.69
  -3  -5   4   66.53    4.48
   2   5  -4    8.91    1.22
   2   5  -4   10.72    1.90
   2   5  -4   10.11    1.94
   2   5  -4   12.95    1.32
  -2  -5   4   12.07    2.05
  -2  -5   4   11.44    1.95
  -2  -5   4    9.21    1.30
   1   5  -4   20.45    2.40
   1   5  -4   20.57    1.75
   1   5  -4   20.19    2.46
   1   5  -4   19.72    1.54
  -1  -5   4   17.33    1.29
  -1  -5   4   20.79    2.35
  -1  -5   4   16.82    2.02
  -1  -5   4   15.64    1.65
   0   5  -4    4.48    1.00
   0   5  -4    5.64    1.53
   0   5  -4    4.16    0.75
   0   5  -4    4.71    1.24
   0  -5   4    3.18    0.82
   0  -5   4    4.46    0.63
   0  -5   4    3.46    1.11
  -1   5  -4    4.56    1.03
  -1   5  -4    4.25    1.29
  -1   5  -4    2.77    1.25
  -1   5  -4    3.13    0.70
   1  -5   4    4.05    1.29
   1  -5   4    3.45    0.92
   1  -5   4    2.84    0.59
  -2   5  -4    0.77    1.04
  -2   5  -4    2.22    0.99
  -2   5  -4    0.55    1.15
   2  -5   4   -0.13    0.48
   2  -5   4    0.18    0.68
   2  -5   4    1.47    1.29
  -3   5  -4    1.41    1.18
  -3   5  -4    1.91    1.08
  -3   5  -4    1.03    0.95
  -3   5  -4    3.47    1.54
   3  -5   4    2.93    0.87
  -4   5  -4   24.38    2.29
  -4   5  -4   20.91    2.70
  -4   5  -4   21.32    3.10
  -4   5  -4   18.72    2.42
  -5   5  -4    6.74    1.46
  -5   5  -4    9.89    2.84
  -5   5  -4    7.71    1.19
  -5   5  -4    7.96    2.24
  -5   5  -4    5.39    1.82
  -5   5  -4   11.11    1.67
  -5   5  -4    7.48    1.52
  -6   5  -4   15.40    2.34
  -6   5  -4   18.25    2.35
  -6   5  -4   13.72    2.99
  -6   5  -4   17.34    2.32
  -6   5  -4   15.59    1.94
  -6   5  -4   14.67    2.57
  -7   5  -4    6.83    1.98
  -7   5  -4    4.75    2.35
  -7   5  -4    8.47    1.56
  -7   5  -4    2.64    3.82
  -7   5  -4    8.87    1.55
   7  -5   4    7.93    3.12
  -8   5  -4    4.27    3.90
  -8   5  -4   -2.47    2.57
  -8   5  -4    5.11    1.64
   8  -5   4    1.48    2.46
  12   4  -4    1.12    2.70
 -12  -4   4   -1.91    2.34
  11   4  -4   10.45    2.80
  11   4  -4    6.33    2.85
 -11  -4   4    8.59    2.18
  10   4  -4   -0.35    2.13
  10   4  -4    0.84    1.95
  10   4  -4   -1.18    0.96
 -10  -4   4    0.44    1.32
   9   4  -4    2.22    3.66
   9   4  -4    0.18    0.89
   9   4  -4   -1.25    1.25
  -9  -4   4   -0.81    1.13
  -9  -4   4   -1.59    2.64
  -9  -4   4   -0.87    2.60
   8   4  -4    7.52    1.42
   8   4  -4    2.30    0.96
   8   4  -4    5.93    1.80
  -8  -4   4    2.27    2.32
  -8  -4   4    9.37    2.80
  -8  -4   4    3.90    1.19
   7   4  -4   25.78    2.18
   7   4  -4   19.66    1.91
   7   4  -4   19.75    3.00
  -7  -4   4   21.43    3.36
  -7  -4   4   20.67    2.07
  -7  -4   4   20.37    3.41
   6   4  -4   22.93    2.92
   6   4  -4   25.11    2.15
   6   4  -4   25.76    1.49
  -6  -4   4   26.23    3.50
  -6  -4   4   26.60    2.16
  -6  -4   4   22.49    3.11
   5   4  -4   62.59    3.70
   5   4  -4   70.52    4.14
   5   4  -4   64.08    4.92
  -5  -4   4   71.75    5.15
  -5  -4   4   67.61    4.11
  -5  -4   4   78.30    5.03
   4   4  -4   31.21    3.13
   4   4  -4   31.78    2.00
  -4  -4   4   32.44    2.22
  -4  -4   4   28.08    2.84
  -4  -4   4   31.76    3.58
   3   4  -4   -0.32    0.49
   3   4  -4    0.53    0.99
   3   4  -4    0.27    0.42
  -3  -4   4    0.01    0.82
  -3  -4   4    0.77    0.83
  -3  -4   4    0.02    0.42
   2   4  -4    0.37    0.44
   2   4  -4    0.73    0.85
   2   4  -4    1.15    0.46
  -2  -4   4   -0.01    0.78
  -2  -4   4    0.25    0.50
  -2  -4   4   -0.10    0.85
   1   4  -4   10.71    1.82
   1   4  -4   15.22    1.27
   1   4  -4   15.10    1.94
   1   4  -4   15.05    1.32
  -1  -4   4   14.05    1.80
  -1  -4   4   12.04    1.35
  -1  -4   4   14.27    1.73
  -1  -4   4   15.67    1.10
   0   4  -4   11.90    1.78
   0   4  -4   15.19    1.25
   0   4  -4   15.42    1.38
   0   4  -4   13.99    1.91
   0  -4   4   11.89    1.36
   0  -4   4   16.01    1.11
   0  -4   4   13.38    1.75
   0  -4   4   13.53    1.45
  -1   4  -4   36.66    2.97
  -1   4  -4   35.49    2.82
  -1   4  -4   38.52    2.90
   1  -4   4   35.48    2.25
   1  -4   4   39.08    2.56
   1  -4   4   37.78    2.93
  -2   4  -4   38.71    2.64
  -2   4  -4   42.60    2.80
  -2   4  -4   37.37    2.82
  -2   4  -4   35.60    3.06
   2  -4   4   39.42    3.02
   2  -4   4   36.72    2.36
   2  -4   4   35.91    2.63
  -3   4  -4   24.39    2.30
  -3   4  -4   25.61    2.69
  -3   4  -4   34.24    2.35
  -3   4  -4   27.31    2.40
  -3   4  -4   28.17    1.99
   3  -4   4   28.78    2.31
   3  -4   4   27.54    2.00
  -4   4  -4   15.76    1.90
  -4   4  -4   15.77    2.55
  -4   4  -4   17.32    2.15
  -4   4  -4   17.86    1.65
  -4   4  -4   17.77    1.95
  -4   4  -4   20.31    2.19
   4  -4   4   16.40    1.87
  -5   4  -4    4.22    1.44
  -5   4  -4    3.46    1.03
  -5   4  -4    4.38    0.92
  -5   4  -4    2.27    1.10
  -5   4  -4    2.81    1.65
  -5   4  -4    5.07    1.51
  -5   4  -4    3.75    0.95
   5  -4   4    3.47    1.84
  -6   4  -4    0.89    1.67
  -6   4  -4   -2.29    1.40
  -6   4  -4   -1.19    0.77
  -6   4  -4   -0.23    0.88
  -6   4  -4    1.66    1.30
  -6   4  -4    2.30    1.00
   6  -4   4   -1.29    1.50
  -7   4  -4    2.84    2.66
  -7   4  -4    4.96    1.52
  -7   4  -4    2.61    2.50
  -7   4  -4    6.37    2.19
  -7   4  -4    5.53    1.68
  -7   4  -4    3.68    1.30
   7  -4   4    0.73    1.97
  -8   4  -4    3.88    2.17
  -8   4  -4    1.05    1.36
  -8   4  -4    0.52    2.02
   8  -4   4    2.15    2.12
  -9   4  -4   -1.44    1.75
  -9   4  -4   -3.34    2.63
  -9   4  -4    3.79    4.08
   9  -4   4    4.56    2.89
  12   3  -4   12.46    3.63
 -12  -3   4   13.43    2.78
  11   3  -4    7.41    2.14
  11   3  -4    0.89    2.39
 -11  -3   4    1.86    1.88
  10   3  -4    0.04    2.45
  10   3  -4   -0.67    1.85
  10   3  -4   -0.92    2.02
 -10  -3   4    2.34    3.12
 -10  -3   4    1.63    1.55
   9   3  -4    0.57    1.71
   9   3  -4    0.05    0.68
   9   3  -4   -1.50    1.44
   9   3  -4   -1.42    1.08
  -9  -3   4    0.55    1.08
   8   3  -4    4.48    0.84
   8   3  -4    5.50    1.73
   8   3  -4    3.69    1.12
  -8  -3   4    4.54    2.14
  -8  -3   4    3.32    1.28
   7   3  -4   13.00    1.43
   7   3  -4   15.64    1.73
   7   3  -4   12.11    2.12
  -7  -3   4   15.44    2.73
  -7  -3   4   13.49    1.67
   6   3  -4   18.77    1.79
   6   3  -4   18.88    2.51
  -6  -3   4   20.18    2.88
  -6  -3   4   16.02    1.72
  -6  -3   4   18.35    2.79
   5   3  -4    7.48    1.15
   5   3  -4    8.90    0.74
   5   3  -4    8.68    1.71
  -5  -3   4    8.65    1.20
  -5  -3   4   10.02    1.80
   4   3  -4   10.35    1.15
   4   3  -4   12.24    0.93
   4   3  -4    9.39    1.70
  -4  -3   4   13.69    1.99
  -4  -3   4   11.35    1.23
  -4  -3   4   11.29    1.77
   3   3  -4   17.50    2.19
   3   3  -4   19.87    1.41
   3   3  -4   22.18    1.56
  -3  -3   4   20.52    2.20
  -3  -3   4   19.21    2.06
   2   3  -4   23.74    1.66
   2   3  -4   24.47    1.63
   2   3  -4   22.43    2.29
  -2  -3   4   22.03    1.68
  -2  -3   4   24.68    2.13
  -2  -3   4   22.62    2.20
   1   3  -4   41.31    2.97
   1   3  -4   44.25    2.56
   1   3  -4   37.39    2.98
   1   3  -4   40.26    2.47
  -1  -3   4   42.77    2.92
  -1  -3   4   43.83    2.93
  -1  -3   4   37.47    2.55
   0   3  -4    8.54    1.43
   0   3  -4    8.19    0.97
   0   3  -4    7.59    1.25
   0  -3   4    6.74    0.74
   0  -3   4    8.19    1.13
   0  -3   4    5.69    0.84
   0  -3   4    6.17    1.06
  -1   3  -4  100.74    5.68
  -1   3  -4  101.18    5.90
  -1   3  -4  106.82    5.69
  -1   3  -4  104.29    5.91
   1  -3   4  100.50    5.44
   1  -3   4  101.83    5.86
  -2   3  -4   31.00    2.36
  -2   3  -4   32.95    2.23
  -2   3  -4   28.61    2.23
  -2   3  -4   28.34    2.42
   2  -3   4   35.32    2.49
   2  -3   4   31.33    2.02
   2  -3   4   32.14    2.22
  -3   3  -4   27.26    2.01
  -3   3  -4   25.66    1.80
  -3   3  -4   25.24    2.05
  -3   3  -4   25.53    2.33
  -3   3  -4   23.27    1.98
   3  -3   4   23.36    2.00
   3  -3   4   26.20    2.48
   3  -3   4   25.13    1.83
  -4   3  -4   17.88    1.73
  -4   3  -4   14.92    1.95
  -4   3  -4   14.55    2.04
  -4   3  -4   17.93    1.49
  -4   3  -4   16.74    1.55
  -4   3  -4   15.01    1.77
   4  -3   4   13.18    1.67
   4  -3   4   18.53    2.19
  -5   3  -4   37.53    2.48
  -5   3  -4   41.04    2.73
  -5   3  -4   39.48    2.86
  -5   3  -4   37.54    3.15
  -5   3  -4   38.10    2.97
  -5   3  -4   41.20    2.64
  -5   3  -4   40.00    3.39
   5  -3   4   35.12    3.55
  -6   3  -4    8.94    1.86
  -6   3  -4    4.60    1.29
  -6   3  -4    5.65    1.28
  -6   3  -4    6.09    1.07
  -6   3  -4    6.22    1.21
  -6   3  -4    4.73    0.84
  -6   3  -4    4.96    1.44
   6  -3   4    5.28    1.95
  -7   3  -4    4.91    1.37
  -7   3  -4    3.29    1.61
  -7   3  -4    3.93    1.53
  -7   3  -4    5.38    2.09
  -7   3  -4    5.56    1.18
  -7   3  -4    4.81    1.40
   7  -3   4    3.11    2.08
  -8   3  -4    6.16    1.88
  -8   3  -4   -2.28    1.58
  -8   3  -4    0.75    1.54
  -8   3  -4    5.65    2.33
  -8   3  -4    0.06    1.93
   8  -3   4    1.64    2.42
  -9   3  -4   -3.23    2.11
  -9   3  -4   15.09    6.14
  -9   3  -4   -0.38    1.49
   9  -3   4   -0.94    2.21
  12   2  -4    1.69    2.65
 -12  -2   4   -3.09    2.17
  11   2  -4   -1.66    1.88
  11   2  -4    1.25    1.49
 -11  -2   4   -1.66    1.66
  10   2  -4   14.83    2.71
  10   2  -4   16.86    2.38
  10   2  -4   10.83    1.95
 -10  -2   4   12.78    2.05
 -10  -2   4   13.12    3.51
   9   2  -4    5.19    1.44
   9   2  -4    3.07    1.53
   9   2  -4    6.58    2.19
  -9  -2   4    3.40    1.18
  -9  -2   4    0.35    2.35
   8   2  -4    0.37    1.30
   8   2  -4   -0.22    1.00
   8   2  -4    1.36    1.34
   8   2  -4    0.94    0.50
  -8  -2   4    0.57    1.94
  -8  -2   4    0.28    0.82
   7   2  -4   18.41    1.47
   7   2  -4   17.03    2.52
   7   2  -4   23.05    1.87
  -7  -2   4   20.98    1.93
  -7  -2   4   20.07    3.09
   6   2  -4   26.61    2.02
   6   2  -4   27.08    2.64
  -6  -2   4   28.34    2.98
  -6  -2   4   24.78    2.03
   5   2  -4   25.54    1.47
   5   2  -4   24.31    2.52
   5   2  -4   26.71    1.92
  -5  -2   4   27.49    2.78
  -5  -2   4   24.70    1.88
   4   2  -4    0.01    0.40
   4   2  -4    0.75    0.87
  -4  -2   4    0.19    0.44
  -4  -2   4    0.58    0.93
   3   2  -4    1.16    0.74
   3   2  -4    1.85    0.46
  -3  -2   4    0.89    0.86
  -3  -2   4    0.87    0.83
   2   2  -4    0.38    0.68
   2   2  -4    0.30    0.35
  -2  -2   4    0.19    0.34
  -2  -2   4    0.36    0.61
  -2  -2   4    1.34    0.69
   1   2  -4    0.85    0.38
   1   2  -4    1.16    0.72
  -1  -2   4    0.92    0.63
  -1  -2   4    0.84    0.41
  -1  -2   4    0.17    0.52
   0   2  -4   24.66    2.00
   0   2  -4   23.04    1.84
   0   2  -4   24.47    1.67
   0   2  -4   22.90    1.61
   0  -2   4   22.41    1.51
   0  -2   4   25.44    1.83
   0  -2   4   22.53    1.65
   0  -2   4   26.26    1.88
  -1   2  -4   60.87    3.63
  -1   2  -4   64.25    3.75
  -1   2  -4   64.88    3.66
  -1   2  -4   60.19    3.81
   1  -2   4   63.68    3.53
   1  -2   4   64.45    3.51
   1  -2   4   66.07    3.66
   1  -2   4   62.69    3.69
  -2   2  -4    3.75    0.71
  -2   2  -4    3.61    0.67
  -2   2  -4    2.91    0.72
  -2   2  -4    2.64    0.68
   2  -2   4    3.21    0.67
   2  -2   4    2.55    0.53
   2  -2   4    3.08    0.72
  -3   2  -4   20.79    1.68
  -3   2  -4   20.61    1.73
  -3   2  -4   20.95    1.80
  -3   2  -4   18.85    1.58
  -3   2  -4   20.99    1.50
  -3   2  -4   16.54    1.54
   3  -2   4   18.62    1.60
   3  -2   4   16.29    1.86
  -4   2  -4    1.04    0.64
  -4   2  -4    0.50    0.52
  -4   2  -4    0.94    0.82
  -4   2  -4    1.31    0.70
  -4   2  -4    0.52    0.55
  -4   2  -4    1.01    0.77
   4  -2   4    1.07    0.88
   4  -2   4    0.25    0.49
  -5   2  -4    6.32    1.14
  -5   2  -4    5.45    1.22
  -5   2  -4    4.61    1.22
  -5   2  -4    5.14    0.71
  -5   2  -4    4.27    0.89
  -5   2  -4    5.79    1.01
   5  -2   4    4.94    1.47
  -6   2  -4   16.23    1.79
  -6   2  -4   19.42    2.41
  -6   2  -4   15.95    2.19
  -6   2  -4   23.07    2.17
  -6   2  -4   16.52    1.71
  -6   2  -4   18.55    1.93
  -6   2  -4   18.47    1.92
   6  -2   4   20.26    2.69
  -7   2  -4    1.96    1.22
  -7   2  -4    2.15    1.29
  -7   2  -4    1.25    1.55
  -7   2  -4    1.21    0.98
  -7   2  -4    2.52    1.00
  -7   2  -4    3.17    1.28
   7  -2   4    0.47    1.62
  -8   2  -4    1.92    1.57
  -8   2  -4    4.29    1.90
  -8   2  -4    1.49    1.17
  -8   2  -4    2.65    1.30
  -8   2  -4    0.69    1.38
  -8   2  -4    4.61    1.43
   8  -2   4    0.31    1.81
  -9   2  -4    3.49    2.51
  -9   2  -4    0.57    1.60
  -9   2  -4    0.63    1.88
  -9   2  -4    0.53    1.46
   9  -2   4    1.82    2.04
 -10   2  -4   -0.06    3.33
 -10   2  -4    4.67    1.82
 -10   2  -4   -2.00    2.65
  10  -2   4    5.94    2.49
  11   1  -4    1.91    2.17
 -11  -1   4    1.65    1.76
  10   1  -4    1.38    1.93
  10   1  -4    5.67    1.64
  10   1  -4    3.78    1.31
 -10  -1   4    1.94    1.38
 -10  -1   4    8.03    3.24
   9   1  -4    7.41    1.57
   9   1  -4    6.93    1.40
   9   1  -4    9.10    2.36
  -9  -1   4    8.85    2.70
  -9  -1   4    5.41    1.39
   8   1  -4   23.11    2.69
   8   1  -4   22.22    2.96
   8   1  -4   29.83    2.45
  -8  -1   4   25.44    3.51
  -8  -1   4   23.89    2.29
   7   1  -4   67.35    3.58
   7   1  -4   78.47    4.97
   7   1  -4   63.90    3.67
   7   1  -4   69.81    4.19
   7   1  -4   68.22    4.57
  -7  -1   4   65.58    4.18
  -7  -1   4   76.81    5.34
   6   1  -4   13.64    1.90
   6   1  -4   12.11    1.71
   6   1  -4   12.72    1.37
   6   1  -4   12.38    0.98
  -6  -1   4   12.23    1.32
  -6  -1   4   14.82    2.40
   5   1  -4    9.77    1.09
   5   1  -4    7.92    1.54
  -5  -1   4    8.94    1.11
  -5  -1   4   11.47    1.94
   4   1  -4    2.16    0.54
   4   1  -4    4.70    1.08
  -4  -1   4    3.41    0.63
  -4  -1   4    3.16    1.06
   3   1  -4    4.63    1.07
   3   1  -4    5.39    0.77
  -3  -1   4    3.52    1.06
   2   1  -4    8.44    0.80
   2   1  -4    9.32    1.34
  -2  -1   4    7.16    0.76
  -2  -1   4    8.97    1.34
   1   1  -4    5.72    0.66
   1   1  -4    5.04    0.97
  -1  -1   4    5.74    0.67
  -1  -1   4    3.57    0.83
  -1  -1   4    4.59    0.82
   0   1  -4   -0.35    0.54
   0   1  -4   -0.25    0.25
   0   1  -4    0.33    0.49
   0  -1   4    0.42    0.35
   0  -1   4   -0.35    0.24
   0  -1   4   -0.49    0.36
  -1   1  -4   40.41    2.80
  -1   1  -4   43.60    2.65
  -1   1  -4   46.81    2.91
  -1   1  -4   50.51    2.73
  -1   1  -4   46.43    2.82
   1  -1   4   45.78    2.70
   1  -1   4   46.35    2.65
   1  -1   4   41.90    2.59
   1  -1   4   48.03    2.74
  -2   1  -4  109.28    6.18
  -2   1  -4  120.07    6.27
  -2   1  -4  113.34    6.09
  -2   1  -4  112.24    6.34
   2  -1   4  113.68    6.08
   2  -1   4  113.54    6.20
   2  -1   4  126.70    6.49
   2  -1   4  117.46    6.13
  -3   1  -4   52.59    3.15
  -3   1  -4   57.02    3.18
  -3   1  -4   52.65    3.14
  -3   1  -4   55.78    3.43
  -3   1  -4   57.77    3.23
  -3   1  -4   48.71    3.17
   3  -1   4   55.78    3.27
   3  -1   4   52.43    3.14
  -4   1  -4   23.45    1.83
  -4   1  -4   24.91    1.81
  -4   1  -4   19.91    1.97
  -4   1  -4   27.29    1.66
  -4   1  -4   24.29    1.86
  -4   1  -4   23.96    1.80
   4  -1   4   24.33    2.19
   4  -1   4   25.23    1.81
  -5   1  -4    2.62    0.74
  -5   1  -4    3.59    0.60
  -5   1  -4    3.79    0.97
  -5   1  -4    4.12    0.90
  -5   1  -4    3.59    0.92
   5  -1   4    3.27    0.83
   5  -1   4    2.44    0.93
  -6   1  -4    9.34    1.35
  -6   1  -4    7.78    1.33
  -6   1  -4    5.63    1.10
  -6   1  -4    7.39    0.86
  -6   1  -4    8.53    1.42
  -6   1  -4    6.66    1.10
  -6   1  -4    7.05    1.10
   6  -1   4    6.38    1.55
  -7   1  -4    2.50    1.14
  -7   1  -4    2.58    0.97
  -7   1  -4    2.60    1.08
  -7   1  -4    3.35    0.95
  -7   1  -4    2.30    0.91
  -7   1  -4    2.62    0.54
  -7   1  -4    0.00    1.08
   7  -1   4    2.25    1.48
  -8   1  -4   -1.14    0.90
  -8   1  -4    2.05    1.10
  -8   1  -4   -2.22    1.32
  -8   1  -4   -0.40    1.25
  -8   1  -4   -0.24    1.15
  -8   1  -4    1.44    1.14
   8  -1   4    0.89    1.62
  -9   1  -4    4.37    1.60
  -9   1  -4    2.15    1.59
  -9   1  -4    4.15    1.40
  -9   1  -4    2.50    1.65
  -9   1  -4    1.95    2.27
  -9   1  -4    5.16    1.59
   9  -1   4    4.78    2.25
 -10   1  -4    5.60    2.17
 -10   1  -4    0.89    2.69
 -10   1  -4    6.27    2.22
 -10   1  -4    4.28    1.73
  10  -1   4    3.08    2.19
  11  -1   4    3.22    2.64
  11   0  -4    2.93    2.62
 -11   0   4    1.26    1.76
  10   0  -4    3.37    2.33
  10   0  -4    7.74    1.80
 -10   0   4    9.48    1.75
 -10   0   4    8.19    3.31
   9   0  -4    2.02    0.90
   9   0  -4    3.43    1.79
   9   0  -4    2.92    1.30
  -9   0   4    1.29    1.69
  -9   0   4    4.58    2.44
   8   0  -4   18.74    1.88
   8   0  -4   14.43    2.38
   8   0  -4   14.43    1.97
  -8   0   4   16.57    2.67
  -8   0   4   12.00    1.77
   7   0  -4   -0.17    1.09
   7   0  -4   -0.06    0.32
   7   0  -4    0.11    0.71
   7   0  -4    0.78    0.87
  -7   0   4    0.16    0.60
  -7   0   4   -1.23    1.27
   6   0  -4    6.10    1.51
   6   0  -4    8.59    1.13
   6   0  -4    7.98    0.72
   6   0  -4    7.48    1.30
  -6   0   4    9.13    2.07
  -6   0   4    8.13    1.15
   5   0  -4   28.58    1.68
   5   0  -4   30.50    2.42
   5   0  -4   28.86    2.41
   5   0  -4   32.46    2.05
  -5   0   4   27.48    2.70
  -5   0   4   27.94    1.98
   4   0  -4    6.86    1.08
   4   0  -4    7.54    0.76
   4   0  -4    6.69    1.21
   4   0  -4    8.29    0.88
  -4   0   4    9.22    0.94
  -4   0   4   10.46    1.60
   3   0  -4  107.89    6.34
   3   0  -4  113.29    5.85
   3   0  -4  114.77    5.91
  -3   0   4  108.34    6.43
   2   0  -4    6.31    1.06
   2   0  -4    6.42    0.75
   2   0  -4    7.28    0.71
  -2   0   4    5.30    1.03
  -2   0   4    5.72    0.60
   1   0  -4    0.33    0.43
   1   0  -4   -0.19    0.33
  -1   0   4    0.82    0.52
  -1   0   4   -0.09    0.19
   0   0  -4   30.65    1.95
   0   0  -4   33.42    1.99
   0   0  -4   31.24    2.31
   0   0  -4   32.63    2.15
   0   0   4   36.12    2.01
   0   0   4   36.09    2.07
   0   0   4   35.21    2.34
  -1   0  -4   82.44    4.02
  -1   0  -4   71.43    4.19
  -1   0  -4   77.28    4.04
   1   0   4   71.95    3.82
   1   0   4   66.40    3.93
   1   0   4   73.09    4.11
   1   0   4   69.44    3.97
  -2   0  -4   10.51    1.08
  -2   0  -4   13.04    1.32
  -2   0  -4    9.76    1.14
  -2   0  -4    9.42    0.89
  -2   0  -4    9.70    0.65
   2   0   4   10.39    0.82
   2   0   4   10.19    1.04
   2   0   4    9.12    0.88
   2   0   4    8.58    0.90
  -3   0  -4   82.38    4.57
  -3   0  -4   78.17    4.18
  -3   0  -4   71.72    4.30
  -3   0  -4   80.41    4.32
   3   0   4   78.98    4.33
  -4   0  -4   77.09    4.24
  -4   0  -4   75.08    4.09
  -4   0  -4   81.00    4.25
  -4   0  -4   71.14    4.37
  -4   0  -4   71.64    4.08
   4   0   4   70.59    4.53
  -5   0  -4    0.84    0.47
  -5   0  -4   -0.10    0.45
  -5   0  -4    0.53    0.60
  -5   0  -4   -0.28    0.40
  -5   0  -4    0.61    0.50
  -5   0  -4    0.67    0.58
  -5   0  -4    0.47    0.69
   5   0   4    0.95    0.72
   5   0   4   -0.37    0.47
  -6   0  -4    6.96    0.90
  -6   0  -4    6.99    1.09
  -6   0  -4    6.08    1.02
  -6   0  -4    7.03    1.20
  -6   0  -4    5.58    0.93
  -6   0  -4    7.23    1.17
  -6   0  -4    6.48    1.12
   6   0   4    7.99    1.59
  -7   0  -4   24.10    2.33
  -7   0  -4   23.33    2.11
  -7   0  -4   23.37    2.06
  -7   0  -4   23.58    2.50
  -7   0  -4   20.77    2.01
  -7   0  -4   23.38    2.08
  -8   0  -4    8.84    1.47
  -8   0  -4    9.73    1.97
  -8   0  -4   11.47    1.62
  -8   0  -4   14.89    1.91
  -8   0  -4    8.17    1.24
  -8   0  -4    8.24    1.41
  -8   0  -4    9.41    1.59
   8   0   4    8.92    2.35
  -9   0  -4    4.59    1.36
  -9   0  -4    8.22    2.11
  -9   0  -4    5.86    1.45
  -9   0  -4    7.53    1.57
  -9   0  -4    4.51    1.36
  -9   0  -4    6.40    1.60
  -9   0  -4    3.88    1.30
   9   0   4    4.10    2.21
 -10   0  -4   -0.49    2.35
 -10   0  -4   -2.74    1.68
 -10   0  -4    0.51    1.43
 -10   0  -4    0.68    1.77
  10   0   4    0.64    2.12
 -11   0  -4    1.90    2.20
 -11   0  -4    9.03    3.63
 -11   0  -4    4.86    1.94
 -11   0  -4    1.50    2.41
  11   0   4   -0.40    2.38
  11  -1  -4    0.98    2.50
 -11   1   4    0.36    1.79
  10  -1  -4    2.40    1.61
  10  -1  -4   -0.23    2.46
 -10   1   4    1.22    1.37
 -10   1   4    6.08    2.96
   9  -1  -4   -1.85    1.05
   9  -1  -4    0.50    1.54
  -9   1   4    0.23    1.02
  -9   1   4    3.72    2.20
   8  -1  -4   -0.20    0.83
   8  -1  -4    0.56    0.53
   8  -1  -4   -1.61    1.43
  -8   1   4   -0.04    0.76
  -8   1   4    0.69    1.63
   7  -1  -4   19.78    1.98
   7  -1  -4   27.60    2.73
   7  -1  -4   25.75    2.06
   7  -1  -4   22.14    1.60
  -7   1   4   24.69    1.95
  -7   1   4   20.20    2.86
   6  -1  -4   18.98    2.06
   6  -1  -4   18.06    1.52
   6  -1  -4   16.30    1.76
   6  -1  -4   18.81    1.34
  -6   1   4   19.57    2.41
  -6   1   4   17.48    1.55
   5  -1  -4   37.17    2.82
   5  -1  -4   38.86    2.42
   5  -1  -4   37.61    2.72
   5  -1  -4   38.71    2.29
  -5   1   4   38.28    2.42
  -5   1   4   38.57    3.16
   4  -1  -4   90.08    4.57
   4  -1  -4   78.98    5.06
   4  -1  -4   89.86    4.80
   4  -1  -4   89.51    5.18
  -4   1   4   91.12    4.83
  -4   1   4   92.76    5.46
   3  -1  -4  122.53    6.33
   3  -1  -4  116.70    6.70
   3  -1  -4  128.48    6.55
   3  -1  -4  119.51    6.22
  -3   1   4  115.02    6.83
   2  -1  -4  139.69    7.92
   2  -1  -4  154.22    7.89
   2  -1  -4  160.34    7.92
   2  -1  -4  154.79    8.31
  -2   1   4  158.28    8.40
  -2   1   4  153.51    7.78
   1  -1  -4    1.48    0.39
   1  -1  -4    0.85    0.51
  -1   1   4    2.05    0.62
  -1   1   4    2.24    0.35
   0  -1  -4  177.67    8.97
   0  -1  -4  170.63    9.33
   0  -1  -4  183.00    8.81
   0  -1  -4  166.94    9.13
   0   1   4  183.37    9.15
   0   1   4  165.22    8.96
   0   1   4  189.80    9.40
  -1  -1  -4  337.64   16.88
  -1  -1  -4  331.55   16.52
  -1  -1  -4  337.89   16.79
  -1  -1  -4  303.44   16.57
   1   1   4  339.06   16.52
   1   1   4  349.93   16.62
   1   1   4  316.31   16.82
   1   1   4  325.31   16.75
  -2  -1  -4  296.79   15.73
  -2  -1  -4  313.64   15.65
  -2  -1  -4  325.02   15.75
  -2  -1  -4  323.37   15.60
   2   1   4  295.27   15.62
   2   1   4  301.28   15.58
   2   1   4  301.84   15.72
  -3  -1  -4    8.05    1.05
  -3  -1  -4    9.36    0.87
  -3  -1  -4    8.04    0.80
  -3  -1  -4    7.23    0.94
  -3  -1  -4    9.47    1.37
   3   1   4    8.42    0.66
   3   1   4    7.83    0.98
   3   1   4    8.70    0.97
   3   1   4    8.76    0.89
  -4  -1  -4   23.46    1.58
  -4  -1  -4   21.60    1.78
  -4  -1  -4   22.86    1.59
  -4  -1  -4   19.75    1.52
   4   1   4   21.76    1.65
   4   1   4   21.18    1.80
   4   1   4   20.08    1.58
  -5  -1  -4   37.99    2.46
  -5  -1  -4   35.99    2.30
  -5  -1  -4   35.36    2.62
  -5  -1  -4   42.39    2.49
  -5  -1  -4   33.16    2.44
   5   1   4   38.15    2.55
   5   1   4   38.29    2.52
   5   1   4   42.32    2.93
  -6  -1  -4    8.57    1.04
  -6  -1  -4    6.70    1.18
  -6  -1  -4    5.18    0.87
  -6  -1  -4    6.00    0.94
   6   1   4    3.96    1.24
   6   1   4    6.26    1.07
  -7  -1  -4    8.02    1.30
  -7  -1  -4    7.18    1.12
  -7  -1  -4    6.38    1.12
  -7  -1  -4    5.43    1.01
  -7  -1  -4    6.21    1.18
  -7  -1  -4    7.15    1.12
   7   1   4    7.53    1.63
  -8  -1  -4    4.45    1.27
  -8  -1  -4    4.28    1.11
  -8  -1  -4    4.39    1.21
  -8  -1  -4    5.85    1.13
  -8  -1  -4    5.60    1.22
  -8  -1  -4    4.98    1.18
   8   1   4    6.61    1.98
  -9  -1  -4    0.18    1.20
  -9  -1  -4   -0.07    1.11
  -9  -1  -4    0.97    1.17
  -9  -1  -4   -0.81    1.26
  -9  -1  -4   -1.16    1.02
   9   1   4    1.42    1.79
 -10  -1  -4    2.18    1.66
 -10  -1  -4    1.59    1.39
 -10  -1  -4    3.84    1.69
 -10  -1  -4    3.13    1.68
 -10  -1  -4    3.67    1.42
  10   1   4    6.01    2.22
 -11  -1  -4    0.70    2.01
 -11  -1  -4   -0.93    1.84
 -11  -1  -4    5.32    3.60
 -11  -1  -4    1.51    1.62
  11   1   4   -4.29    2.48
  11  -2  -4    0.80    2.97
 -11   2   4    6.38    1.88
  10  -2  -4   -0.56    1.68
  10  -2  -4    1.20    2.20
 -10   2   4    5.40    3.08
 -10   2   4    5.55    1.53
   9  -2  -4    0.47    1.85
   9  -2  -4    0.05    1.11
  -9   2   4   -3.43    2.15
  -9   2   4   -0.07    1.05
  -9   2   4    0.59    0.79
   8  -2  -4    4.35    0.94
   8  -2  -4    4.35    1.09
   8  -2  -4    3.10    1.93
  -8   2   4    6.78    1.00
  -8   2   4    6.57    1.97
  -8   2   4    4.35    1.03
   7  -2  -4    0.49    0.72
   7  -2  -4    0.65    0.55
   7  -2  -4    0.69    1.30
  -7   2   4    0.57    1.31
  -7   2   4    0.98    0.68
   6  -2  -4    0.38    0.53
   6  -2  -4    0.98    1.05
   6  -2  -4    0.08    0.50
  -6   2   4    0.40    0.51
  -6   2   4   -0.47    1.03
   5  -2  -4    0.81    0.47
   5  -2  -4   -0.31    0.73
   5  -2  -4    0.20    0.43
   5  -2  -4    0.54    0.59
  -5   2   4    0.86    0.47
  -5   2   4    1.03    0.96
   4  -2  -4   79.13    4.47
   4  -2  -4   77.07    4.17
   4  -2  -4   81.46    4.65
   4  -2  -4   72.76    4.23
  -4   2   4   75.60    4.75
  -4   2   4   72.66    4.14
   3  -2  -4   53.01    3.51
   3  -2  -4   62.88    3.30
   3  -2  -4   61.14    3.64
   3  -2  -4   59.65    3.18
  -3   2   4   62.29    3.86
   2  -2  -4    6.74    1.05
   2  -2  -4    5.77    0.80
   2  -2  -4    7.57    0.73
   2  -2  -4    7.40    0.67
  -2   2   4    6.42    1.11
  -2   2   4    6.51    0.65
   1  -2  -4    2.65    0.48
   1  -2  -4    3.09    0.68
   1  -2  -4    3.41    0.43
  -1   2   4    2.68    0.33
  -1   2   4    3.31    0.53
  -1   2   4    3.61    0.74
   0  -2  -4    5.12    0.87
   0  -2  -4    4.84    0.45
   0  -2  -4    4.51    0.70
   0   2   4    5.10    0.89
   0   2   4    5.41    0.66
  -1  -2  -4   13.19    0.94
  -1  -2  -4   12.70    1.22
  -1  -2  -4   14.15    1.20
   1   2   4   13.63    1.13
   1   2   4   13.68    1.01
   1   2   4   14.92    1.30
   1   2   4   15.67    0.85
  -2  -2  -4    1.26    0.48
  -2  -2  -4    1.51    0.51
  -2  -2  -4    1.64    0.34
   2   2   4    1.68    0.52
   2   2   4    1.52    0.39
   2   2   4    1.35    0.24
   2   2   4    1.70    0.42
   2   2   4    0.99    0.40
  -3  -2  -4    4.31    0.47
  -3  -2  -4    4.87    0.75
  -3  -2  -4    3.12    0.70
  -3  -2  -4    4.06    0.62
  -3  -2  -4    3.97    0.57
   3   2   4    3.96    0.68
   3   2   4    5.18    0.75
   3   2   4    4.25    0.74
   3   2   4    3.96    0.72
   3   2   4    2.71    0.52
  -4  -2  -4   70.14    3.79
  -4  -2  -4   67.55    3.63
  -4  -2  -4   60.94    3.92
  -4  -2  -4   66.42    3.78
   4   2   4   58.04    3.91
   4   2   4   68.40    3.81
   4   2   4   71.80    3.96
   4   2   4   67.99    3.63
   4   2   4   68.64    3.60
  -5  -2  -4    8.36    1.25
  -5  -2  -4   10.55    1.11
  -5  -2  -4   10.85    1.10
  -5  -2  -4   10.17    1.09
   5   2   4   11.52    1.22
   5   2   4   10.33    1.12
   5   2   4    8.20    1.27
  -6  -2  -4    2.75    1.00
  -6  -2  -4    3.25    0.81
  -6  -2  -4    2.03    0.85
   6   2   4    2.65    0.99
   6   2   4    2.26    0.77
   6   2   4    1.50    0.68
  -7  -2  -4    3.66    0.85
  -7  -2  -4    4.66    0.94
  -7  -2  -4    3.97    1.07
  -7  -2  -4    5.02    0.99
  -7  -2  -4    4.42    1.09
   7   2   4    3.46    1.21
   7   2   4    3.90    0.92
  -8  -2  -4    1.85    1.07
  -8  -2  -4    3.28    0.99
  -8  -2  -4    2.22    1.02
  -8  -2  -4    1.02    1.03
  -8  -2  -4    1.55    0.84
  -8  -2  -4    2.14    0.92
   8   2   4    1.55    1.40
  -9  -2  -4    2.53    1.26
  -9  -2  -4   -0.19    1.06
  -9  -2  -4    1.30    1.25
  -9  -2  -4    2.63    1.19
  -9  -2  -4    3.35    1.10
  -9  -2  -4    3.32    1.23
   9   2   4    2.22    1.60
 -10  -2  -4   16.91    2.59
 -10  -2  -4   15.40    2.82
 -10  -2  -4   16.54    2.27
 -10  -2  -4   18.04    2.83
 -10  -2  -4   16.79    2.22
 -10  -2  -4   22.93    2.36
  10   2   4   19.91    3.58
 -11  -2  -4   12.49    2.07
 -11  -2  -4    7.81    2.73
 -11  -2  -4   10.16    2.20
 -11  -2  -4   13.89    2.09
  11   2   4   19.20    3.78
 -12  -2  -4   -1.74    2.02
 -12  -2  -4    0.87    2.29
  12   2   4    5.80    3.28
  10  -3  -4    4.40    1.86
  10  -3  -4    2.66    2.73
 -10   3   4    1.97    3.18
 -10   3   4    4.43    1.52
   9  -3  -4    4.50    1.22
   9  -3  -4    7.15    1.62
   9  -3  -4    4.63    2.37
  -9   3   4    7.04    1.34
  -9   3   4    5.56    0.97
  -9   3   4   10.00    2.81
   8  -3  -4    5.52    1.12
   8  -3  -4    6.00    1.19
   8  -3  -4    5.44    2.18
  -8   3   4    5.04    1.01
  -8   3   4    3.53    0.75
  -8   3   4    1.96    2.15
   7  -3  -4    9.01    1.20
   7  -3  -4   11.02    2.25
   7  -3  -4    9.53    1.38
  -7   3   4    9.61    1.27
  -7   3   4    8.74    1.98
  -7   3   4    8.70    0.89
   6  -3  -4   76.72    4.03
   6  -3  -4   59.32    4.72
   6  -3  -4   76.04    4.16
  -6   3   4   66.11    3.69
  -6   3   4   69.30    3.94
  -6   3   4   70.11    4.87
   5  -3  -4    1.80    0.52
   5  -3  -4    0.80    0.95
   5  -3  -4    1.64    0.60
  -5   3   4    1.58    0.51
  -5   3   4    1.55    0.30
  -5   3   4    0.96    0.94
   4  -3  -4   31.30    1.94
   4  -3  -4   32.74    2.16
  -4   3   4   31.21    1.65
  -4   3   4   32.84    2.64
  -4   3   4   31.71    1.71
   3  -3  -4    3.31    0.79
   3  -3  -4    2.62    0.45
  -3   3   4    1.99    0.82
  -3   3   4    2.87    0.42
   2  -3  -4   96.74    5.15
   2  -3  -4   99.78    5.09
   2  -3  -4   94.03    5.39
   2  -3  -4   96.67    5.34
  -2   3   4   95.37    5.59
  -2   3   4  106.31    5.38
  -2   3   4   94.88    5.14
   1  -3  -4   48.05    2.53
   1  -3  -4   42.45    2.72
   1  -3  -4   41.98    2.54
  -1   3   4   42.15    2.90
  -1   3   4   44.82    2.56
  -1   3   4   44.49    2.51
  -1   3   4   40.53    2.82
   0  -3  -4   16.87    0.97
   0  -3  -4   17.08    1.28
   0  -3  -4   14.77    1.34
   0   3   4   15.86    1.42
   0   3   4   16.52    1.05
   0   3   4   16.73    1.26
   0   3   4   15.21    1.43
  -1  -3  -4   61.55    3.52
  -1  -3  -4   59.84    3.55
   1   3   4   58.49    3.49
   1   3   4   62.69    3.51
   1   3   4   62.79    3.64
  -2  -3  -4    1.23    0.44
  -2  -3  -4    1.41    0.38
  -2  -3  -4    1.48    0.52
   2   3   4    1.23    0.46
   2   3   4    1.01    0.37
   2   3   4    1.26    0.37
   2   3   4    1.00    0.44
  -3  -3  -4   54.63    3.49
  -3  -3  -4   60.34    3.31
  -3  -3  -4   61.23    3.34
   3   3   4   58.81    3.50
   3   3   4   61.62    3.49
   3   3   4   58.10    3.58
   3   3   4   60.40    3.34
   3   3   4   56.89    3.31
  -4  -3  -4  248.46   12.42
  -4  -3  -4  240.22   12.45
  -4  -3  -4  249.11   12.63
  -4  -3  -4  243.21   12.38
   4   3   4  235.44   12.54
   4   3   4  239.99   12.42
   4   3   4  259.35   12.63
   4   3   4  232.03   12.62
   4   3   4  230.67   12.44
  -5  -3  -4   94.96    5.45
  -5  -3  -4   97.23    5.28
  -5  -3  -4   96.16    5.31
  -5  -3  -4   96.08    5.31
   5   3   4   97.90    5.24
   5   3   4   86.07    5.12
   5   3   4  100.24    5.33
   5   3   4   96.01    5.42
  -6  -3  -4   42.63    2.82
  -6  -3  -4   41.52    2.90
  -6  -3  -4   38.73    2.67
  -6  -3  -4   39.88    2.70
   6   3   4   40.66    2.73
   6   3   4   45.28    3.17
   6   3   4   39.97    2.80
  -7  -3  -4    1.90    1.03
  -7  -3  -4    0.54    0.63
  -7  -3  -4    0.66    0.72
  -7  -3  -4    2.17    0.96
  -7  -3  -4    1.27    0.85
   7   3   4   -0.06    0.87
   7   3   4    1.16    0.77
  -8  -3  -4    3.74    1.15
  -8  -3  -4    3.33    1.04
  -8  -3  -4    6.32    1.14
  -8  -3  -4    2.64    1.24
  -8  -3  -4    4.49    1.35
   8   3   4    1.96    1.13
  -9  -3  -4    1.19    0.98
  -9  -3  -4    1.92    1.22
  -9  -3  -4    0.81    1.16
  -9  -3  -4    0.49    1.40
  -9  -3  -4   -0.11    1.45
  -9  -3  -4    0.85    0.79
   9   3   4   -1.25    1.45
   9   3   4    1.38    1.07
 -10  -3  -4    1.25    1.45
 -10  -3  -4    1.12    1.83
 -10  -3  -4    1.01    1.31
 -10  -3  -4   -0.05    1.38
 -10  -3  -4   -1.53    2.04
  10   3   4    1.00    1.72
 -11  -3  -4   14.18    3.19
 -11  -3  -4    4.64    2.60
 -11  -3  -4    6.79    2.02
 -11  -3  -4    4.58    1.84
 -11  -3  -4    5.81    1.57
  11   3   4    4.16    2.23
 -12  -3  -4    1.03    1.96
 -12  -3  -4   -1.93    3.92
 -12  -3  -4   -2.54    2.19
  12   3   4   -0.16    2.44
  10  -4  -4    2.12    2.39
 -10   4   4    9.99    5.06
 -10   4   4   -4.10    3.77
   9  -4  -4    3.63    1.49
   9  -4  -4    4.49    2.17
  -9   4   4    2.07    1.16
  -9   4   4   10.64    3.71
  -9   4   4    4.31    0.90
  -9   4   4    2.85    2.95
   8  -4  -4    1.35    1.91
   8  -4  -4    2.33    1.12
   8  -4  -4    0.33    1.01
  -8   4   4   -0.83    2.64
  -8   4   4   -0.04    0.58
  -8   4   4    2.52    2.03
  -8   4   4    0.99    0.90
   7  -4  -4    0.57    0.88
   7  -4  -4    0.26    0.74
   7  -4  -4    0.57    1.55
  -7   4   4    1.65    2.22
  -7   4   4    0.71    0.43
  -7   4   4    0.80    0.64
  -7   4   4    1.67    1.56
   6  -4  -4    4.98    0.83
   6  -4  -4    3.56    1.39
   6  -4  -4    3.79    0.99
  -6   4   4    4.74    1.96
  -6   4   4    4.58    0.55
  -6   4   4    4.30    1.53
   5  -4  -4    9.24    0.95
   5  -4  -4   11.14    1.89
   5  -4  -4    8.63    1.24
  -5   4   4    7.66    0.55
  -5   4   4    9.55    2.05
  -5   4   4    6.32    1.44
   4  -4  -4   87.14    5.10
   4  -4  -4   87.79    5.50
   4  -4  -4   91.91    4.78
  -4   4   4   91.63    5.49
  -4   4   4   92.82    6.01
  -4   4   4   91.74    4.74
   3  -4  -4   38.76    2.19
   3  -4  -4   38.81    2.78
   3  -4  -4   38.99    2.57
  -3   4   4   39.46    2.29
  -3   4   4   38.47    2.81
  -3   4   4   40.46    3.30
   2  -4  -4   46.97    2.82
   2  -4  -4   43.77    2.36
   2  -4  -4   40.22    2.49
  -2   4   4   44.03    2.55
  -2   4   4   42.61    2.90
  -2   4   4   44.29    2.96
  -2   4   4   40.38    3.23
   1  -4  -4   13.06    1.12
  -1   4   4   13.17    1.43
  -1   4   4   12.84    1.58
  -1   4   4   12.59    1.10
  -1   4   4   16.79    1.37
   0  -4  -4    6.88    0.89
   0   4   4    6.72    0.89
   0   4   4    6.65    1.11
   0   4   4    6.15    0.82
   0   4   4    6.32    1.02
  -1  -4  -4    5.09    0.86
  -1  -4  -4    5.62    0.84
   1   4   4    3.76    0.81
   1   4   4    5.50    0.91
   1   4   4    4.64    0.77
  -2  -4  -4   11.55    1.16
  -2  -4  -4   11.52    1.19
   2   4   4   10.89    1.15
   2   4   4   10.07    1.06
   2   4   4   10.33    0.87
   2   4   4    8.89    1.10
  -3  -4  -4    5.29    0.71
  -3  -4  -4    5.53    0.90
  -3  -4  -4    4.84    0.79
   3   4   4    5.39    0.65
   3   4   4    3.92    0.76
   3   4   4    5.17    0.89
   3   4   4    4.96    1.07
   3   4   4    5.18    0.87
  -4  -4  -4   38.53    2.59
  -4  -4  -4   41.82    2.68
  -4  -4  -4   38.29    2.41
  -4  -4  -4   38.70    2.49
   4   4   4   43.29    2.67
   4   4   4   39.97    2.45
   4   4   4   36.88    2.60
   4   4   4   38.87    2.79
   4   4   4   43.20    2.62
  -5  -4  -4  140.18    7.52
  -5  -4  -4  137.40    7.65
  -5  -4  -4  143.56    7.47
  -5  -4  -4  134.39    7.60
   5   4   4  143.06    7.71
   5   4   4  135.54    7.48
   5   4   4  142.11    7.72
   5   4   4  146.66    7.56
  -6  -4  -4    1.08    0.64
  -6  -4  -4    0.90    0.70
  -6  -4  -4    1.15    0.78
  -6  -4  -4    0.86    0.56
   6   4   4    1.50    0.70
   6   4   4    2.03    0.86
   6   4   4    1.15    0.61
   6   4   4    1.98    0.79
   6   4   4    1.65    0.68
  -7  -4  -4    2.71    0.78
  -7  -4  -4    2.68    0.98
  -7  -4  -4    2.66    0.96
  -7  -4  -4    1.92    0.87
   7   4   4    3.02    0.90
   7   4   4    2.07    0.69
   7   4   4    2.86    0.65
   7   4   4    3.27    1.20
  -8  -4  -4    0.04    1.08
  -8  -4  -4    0.69    0.78
  -8  -4  -4    2.38    1.29
  -8  -4  -4    1.65    1.11
  -8  -4  -4    1.02    0.76
   8   4   4    2.16    1.35
   8   4   4    1.37    1.01
  -9  -4  -4    1.14    1.13
  -9  -4  -4    2.52    1.38
  -9  -4  -4   -0.95    0.89
  -9  -4  -4   -1.10    1.33
  -9  -4  -4    0.56    1.11
   9   4   4    0.43    1.46
   9   4   4    0.63    1.02
 -10  -4  -4   35.72    2.58
 -10  -4  -4   38.05    3.11
 -10  -4  -4   36.72    3.30
 -10  -4  -4   39.07    3.35
 -10  -4  -4   28.46    4.09
 -10  -4  -4   28.38    3.88
  10   4   4   32.56    3.83
  10   4   4   35.96    3.19
 -11  -4  -4    4.32    2.65
 -11  -4  -4   -5.12    2.38
 -11  -4  -4    2.22    1.74
 -11  -4  -4    3.56    1.25
 -11  -4  -4   -1.33    1.47
  11   4   4   -0.95    2.07
  11   4   4   -1.61    1.55
 -12  -4  -4    8.24    3.72
 -12  -4  -4    3.89    2.09
 -12  -4  -4    2.99    3.55
 -12  -4  -4    5.23    2.32
  12   4   4    0.93    2.52
   9  -5  -4   42.73    4.86
   9  -5  -4   26.78    3.50
  -9   5   4   38.45    4.78
  -9   5   4   35.45    5.67
   8  -5  -4   12.81    2.62
  -8   5   4   13.33    3.03
  -8   5   4   14.89    3.79
   7  -5  -4    2.35    1.83
   7  -5  -4   -0.01    1.06
  -7   5   4    1.62    1.78
  -7   5   4   -0.14    2.66
   6  -5  -4    7.89    1.42
   6  -5  -4    6.10    0.83
   6  -5  -4    5.82    1.81
  -6   5   4    7.23    2.44
  -6   5   4    8.04    1.73
   5  -5  -4    5.11    1.44
   5  -5  -4    4.50    0.65
   5  -5  -4    3.68    0.89
  -5   5   4    5.00    1.80
  -5   5   4    6.40    2.09
  -5   5   4    4.54    0.59
   4  -5  -4   15.86    2.03
   4  -5  -4   16.83    1.09
   4  -5  -4   14.12    1.52
  -4   5   4   16.48    1.27
  -4   5   4   14.22    1.90
  -4   5   4   13.48    2.40
   3  -5  -4   43.41    3.03
   3  -5  -4   40.94    2.22
   3  -5  -4   39.49    2.75
  -3   5   4   37.06    3.37
  -3   5   4   42.48    2.50
  -3   5   4   40.38    3.03
   2  -5  -4  100.39    5.90
   2  -5  -4  100.83    6.05
   2  -5  -4  108.99    5.38
  -2   5   4  101.69    6.44
  -2   5   4  108.93    5.72
  -2   5   4  112.11    6.11
   1  -5  -4    4.67    0.34
   1  -5  -4    5.31    0.47
  -1   5   4    4.20    0.72
  -1   5   4    5.50    1.25
  -1   5   4    4.61    0.97
   0  -5  -4    5.88    0.93
   0  -5  -4    6.14    1.21
   0   5   4    5.95    1.03
   0   5   4    6.92    1.15
   0   5   4    6.31    0.90
   0   5   4    6.50    1.29
  -1  -5  -4  100.63    5.77
  -1  -5  -4   96.70    5.46
   1   5   4  101.52    5.49
   1   5   4   91.10    5.72
   1   5   4  103.05    5.60
  -2  -5  -4    3.98    0.78
  -2  -5  -4    4.03    0.90
  -2  -5  -4    2.54    0.51
   2   5   4    3.28    0.79
   2   5   4    5.02    0.59
   2   5   4    4.07    0.78
   2   5   4    2.85    0.81
  -3  -5  -4   -0.23    0.54
  -3  -5  -4    0.27    0.36
  -3  -5  -4    0.23    0.54
   3   5   4    0.30    0.47
   3   5   4    0.13    0.28
   3   5   4    0.42    0.67
   3   5   4   -0.12    0.51
   3   5   4    0.09    0.43
  -4  -5  -4    3.71    0.87
  -4  -5  -4    4.52    0.68
  -4  -5  -4    4.18    0.87
  -4  -5  -4    3.47    0.63
   4   5   4    4.67    1.01
   4   5   4    5.13    1.10
   4   5   4    4.45    0.69
   4   5   4    3.66    0.80
   4   5   4    4.32    0.90
  -5  -5  -4   -0.15    0.36
  -5  -5  -4    0.34    0.54
  -5  -5  -4    1.09    0.72
  -5  -5  -4    0.03    0.58
   5   5   4   -0.18    0.53
   5   5   4    0.91    0.62
   5   5   4    0.32    0.76
   5   5   4    0.30    0.39
  -6  -5  -4   57.45    3.62
  -6  -5  -4   60.05    4.02
  -6  -5  -4   61.72    3.74
  -6  -5  -4   71.06    4.03
   6   5   4   57.58    3.73
   6   5   4   57.96    3.66
   6   5   4   61.15    4.10
   6   5   4   66.26    3.96
  -7  -5  -4   19.67    2.08
  -7  -5  -4   21.52    1.89
  -7  -5  -4   22.97    1.81
  -7  -5  -4   20.97    2.28
   7   5   4   23.28    2.15
   7   5   4   16.91    1.81
  -8  -5  -4   24.87    2.42
  -8  -5  -4   18.55    2.86
  -8  -5  -4   19.13    1.93
  -8  -5  -4   19.67    1.88
  -8  -5  -4   24.69    2.66
   8   5   4   19.77    2.16
   8   5   4   18.75    1.98
   8   5   4   16.42    2.36
   8   5   4   22.22    1.84
  -9  -5  -4   10.50    1.58
  -9  -5  -4   11.97    2.34
  -9  -5  -4   10.73    2.07
  -9  -5  -4   11.82    1.86
   9   5   4   15.23    2.69
   9   5   4   12.06    1.80
 -10  -5  -4    2.32    0.87
 -10  -5  -4    1.72    1.24
 -10  -5  -4    2.18    1.25
 -10  -5  -4    2.70    1.93
 -10  -5  -4   -0.36    1.95
 -10  -5  -4    3.32    1.50
  10   5   4    1.04    1.24
  10   5   4    3.08    1.83
 -11  -5  -4   -1.67    0.94
 -11  -5  -4   -0.40    1.72
 -11  -5  -4    1.53    2.71
 -11  -5  -4   -3.63    2.54
 -11  -5  -4   -1.28    1.35
  11   5   4   -0.85    1.60
  11   5   4    0.11    1.95
 -12  -5  -4    0.36    2.14
 -12  -5  -4    0.16    1.78
 -12  -5  -4    0.50    3.60
 -12  -5  -4   -0.32    3.73
  12   5   4   -0.76    2.40
  12   5   4    0.14    2.04
   9  -6  -4    1.42    2.08
   9  -6  -4    1.34    2.80
  -9   6   4   -7.60    4.57
   8  -6  -4    0.82    2.41
   8  -6  -4    0.43    1.68
  -8   6   4   -4.14    2.66
  -8   6   4   -4.26    3.78
   7  -6  -4    1.75    1.90
   7  -6  -4    0.11    1.38
  -7   6   4    0.19    2.22
  -7   6   4   -2.29    3.02
   6  -6  -4   -0.87    1.58
   6  -6  -4    2.52    1.26
  -6   6   4    1.75    1.65
  -6   6   4    0.91    0.44
  -6   6   4   -0.77    2.15
   5  -6  -4    4.73    1.20
   5  -6  -4    5.75    1.70
  -5   6   4    3.68    1.41
  -5   6   4    4.84    0.74
  -5   6   4    4.23    2.02
   4  -6  -4   41.36    3.50
   4  -6  -4   45.30    3.09
  -4   6   4   41.62    2.67
  -4   6   4   41.94    4.10
   3  -6  -4   17.22    2.18
   3  -6  -4   22.58    1.92
  -3   6   4   24.36    2.89
  -3   6   4   20.40    2.16
  -3   6   4   20.93    1.65
   2  -6  -4    3.46    0.84
  -2   6   4    4.32    0.76
  -2   6   4    3.32    0.95
  -2   6   4    2.48    1.32
   1  -6  -4    6.48    0.47
   1  -6  -4    6.37    0.54
   1  -6  -4    6.53    0.59
   1  -6  -4    5.43    1.04
  -1   6   4    6.73    1.11
  -1   6   4    6.04    1.32
  -1   6   4    8.92    1.07
   0  -6  -4    0.23    0.73
   0  -6  -4    1.40    0.28
   0   6   4    0.76    0.54
   0   6   4    1.62    0.97
   0   6   4    1.63    0.67
  -1  -6  -4   43.79    2.91
  -1  -6  -4   46.19    3.34
  -1  -6  -4   45.90    2.53
   1   6   4   43.78    2.89
   1   6   4   47.52    3.41
  -2  -6  -4   23.46    2.11
  -2  -6  -4   20.66    1.76
  -2  -6  -4   18.76    1.35
   2   6   4   18.14    1.95
   2   6   4   19.56    1.35
   2   6   4   21.38    1.75
  -3  -6  -4    5.60    1.14
  -3  -6  -4    5.65    1.02
  -3  -6  -4    4.27    0.64
   3   6   4    6.08    1.01
   3   6   4    5.11    1.12
   3   6   4    5.37    0.68
   3   6   4    4.33    1.19
  -4  -6  -4   82.24    4.45
  -4  -6  -4   70.74    4.54
  -4  -6  -4   70.89    4.04
   4   6   4   64.79    4.27
   4   6   4   69.09    3.95
   4   6   4   72.00    4.56
   4   6   4   70.01    4.72
  -5  -6  -4   51.82    3.19
  -5  -6  -4   53.95    3.71
  -5  -6  -4   50.39    3.07
  -5  -6  -4   53.94    3.52
   5   6   4   53.56    3.83
   5   6   4   50.14    3.44
   5   6   4   52.18    3.12
   5   6   4   52.17    3.69
  -6  -6  -4    4.44    1.06
  -6  -6  -4    3.49    0.73
  -6  -6  -4    3.98    1.18
  -6  -6  -4    4.16    0.90
   6   6   4    6.32    1.31
   6   6   4    4.19    0.82
  -7  -6  -4   10.04    1.45
  -7  -6  -4   16.09    2.10
  -7  -6  -4   11.16    1.66
  -7  -6  -4   11.15    1.38
   7   6   4   10.96    1.55
   7   6   4   10.17    1.59
   7   6   4   14.70    2.23
  -8  -6  -4    6.79    1.29
  -8  -6  -4    6.07    1.41
  -8  -6  -4    8.85    1.85
  -8  -6  -4    8.20    1.37
   8   6   4   10.89    1.74
   8   6   4    9.10    1.64
   8   6   4    9.09    1.53
  -9  -6  -4    5.47    1.50
  -9  -6  -4    6.31    1.33
  -9  -6  -4    6.94    1.38
  -9  -6  -4    7.65    1.90
   9   6   4    5.88    1.31
   9   6   4    3.90    1.51
   9   6   4    6.66    1.48
   9   6   4    4.65    1.65
 -10  -6  -4    1.52    1.45
 -10  -6  -4    5.34    1.40
 -10  -6  -4    1.92    1.25
 -10  -6  -4   -1.45    2.06
  10   6   4    2.10    0.92
  10   6   4    3.06    1.05
  10   6   4    2.56    1.36
  10   6   4    1.44    1.87
 -11  -6  -4   12.90    2.17
 -11  -6  -4   12.61    3.12
 -11  -6  -4    8.14    2.70
 -11  -6  -4    9.92    3.32
 -11  -6  -4   11.04    1.66
  11   6   4   12.94    2.23
  11   6   4    9.73    3.06
 -12  -6  -4    7.37    2.34
 -12  -6  -4    3.50    3.83
  12   6   4    7.65    2.32
  12   6   4    5.90    2.99
   8  -7  -4    0.10    2.05
   8  -7  -4    1.49    2.65
  -8   7   4   -2.74    4.47
  -8   7   4    8.11    3.83
   7  -7  -4    1.39    1.68
   7  -7  -4    2.40    2.35
  -7   7   4   -4.39    3.11
  -7   7   4    4.41    2.63
   6  -7  -4   19.35    2.64
   6  -7  -4   18.79    3.40
  -6   7   4   22.72    3.69
  -6   7   4   18.12    1.71
  -6   7   4   22.06    3.94
   5  -7  -4    6.56    1.50
   5  -7  -4    5.73    2.04
  -5   7   4    5.61    1.05
  -5   7   4    5.95    2.13
  -5   7   4    6.86    1.87
   4  -7  -4   13.68    1.95
  -4   7   4   11.08    2.70
  -4   7   4   11.67    1.52
  -4   7   4   15.01    2.45
   3  -7  -4    2.00    1.00
  -3   7   4    3.89    1.60
  -3   7   4    0.50    0.74
  -3   7   4    1.45    1.10
   2  -7  -4    7.76    1.28
   2  -7  -4    6.74    0.61
  -2   7   4    6.46    1.88
  -2   7   4    6.41    1.05
   1  -7  -4   26.05    2.18
   1  -7  -4   22.52    1.52
  -1   7   4   26.45    2.91
  -1   7   4   29.81    2.14
   0  -7  -4   34.64    3.60
   0  -7  -4   36.64    2.75
   0  -7  -4   38.15    2.04
   0   7   4   39.08    2.70
   0   7   4   43.73    3.49
  -1  -7  -4   -0.01    0.26
  -1  -7  -4    1.53    1.06
  -1  -7  -4    0.61    0.60
   1   7   4    0.28    0.96
   1   7   4    0.26    0.64
  -2  -7  -4    0.75    0.36
  -2  -7  -4    0.10    0.95
   2   7   4   -0.20    0.92
   2   7   4    0.86    0.74
   2   7   4    1.14    0.37
  -3  -7  -4    8.62    0.96
  -3  -7  -4   11.13    1.48
  -3  -7  -4    8.48    1.62
   3   7   4   10.18    1.36
   3   7   4    9.19    1.57
   3   7   4   10.29    1.85
   3   7   4   10.11    0.93
  -4  -7  -4   -0.42    0.75
  -4  -7  -4    1.20    0.52
  -4  -7  -4    1.06    0.82
   4   7   4    1.90    0.48
   4   7   4    1.61    1.00
   4   7   4    1.16    1.04
  -5  -7  -4    0.82    0.81
  -5  -7  -4    0.67    0.42
  -5  -7  -4   -0.03    0.43
  -5  -7  -4    0.88    1.08
   5   7   4   -1.81    0.97
   5   7   4    0.02    0.91
   5   7   4    0.65    0.51
   5   7   4   -0.09    0.70
  -6  -7  -4   16.52    2.30
  -6  -7  -4   11.30    1.69
  -6  -7  -4   11.92    1.34
  -6  -7  -4    9.99    1.21
   6   7   4   10.52    1.91
   6   7   4   10.20    1.62
  -7  -7  -4    1.37    0.80
  -7  -7  -4   -0.05    1.01
  -7  -7  -4    1.37    0.83
   7   7   4    2.06    1.31
   7   7   4    1.20    0.96
  -8  -7  -4   13.88    1.64
  -8  -7  -4   14.28    2.34
  -8  -7  -4   15.12    1.87
  -8  -7  -4   17.37    2.36
   8   7   4   11.80    1.73
   8   7   4   15.39    2.07
   8   7   4   12.12    2.23
  -9  -7  -4    2.37    1.42
  -9  -7  -4    3.40    1.03
  -9  -7  -4    1.98    1.12
   9   7   4    0.44    1.12
   9   7   4    3.91    1.67
   9   7   4    3.79    1.33
 -10  -7  -4   12.42    2.78
 -10  -7  -4    5.90    2.07
 -10  -7  -4    7.69    1.73
 -10  -7  -4   10.21    1.69
  10   7   4    7.13    2.00
  10   7   4    5.02    1.99
  10   7   4   10.27    2.06
  10   7   4    7.62    1.69
 -11  -7  -4    8.98    3.21
 -11  -7  -4    9.86    2.06
  11   7   4    9.35    1.47
  11   7   4    9.58    1.71
  11   7   4    6.94    2.68
  11   7   4    8.54    2.25
 -12  -7  -4    4.24    3.83
 -12  -7  -4    1.81    2.15
  12   7   4    5.69    2.54
  12   7   4    7.25    2.70
   7  -8  -4   -0.93    1.96
  -7   8   4   -0.77    2.79
  -7   8   4    0.49    3.41
  -7   8   4    7.92    4.37
   6  -8  -4    3.14    1.88
  -6   8   4    2.97    3.14
  -6   8   4    2.68    2.51
   5  -8  -4    0.51    1.56
  -5   8   4    0.97    1.89
  -5   8   4   -1.99    2.81
  -5   8   4    1.18    1.10
   4  -8  -4    1.95    1.23
  -4   8   4    4.14    2.44
  -4   8   4   -0.46    1.49
  -4   8   4    3.21    1.10
   3  -8  -4   26.47    2.67
  -3   8   4   27.56    2.46
  -3   8   4   31.23    3.95
  -3   8   4   30.94    3.17
   2  -8  -4    3.64    1.16
   2  -8  -4    5.52    0.75
  -2   8   4    7.87    1.38
  -2   8   4    7.77    2.02
  -2   8   4    4.36    1.17
   1  -8  -4    2.50    0.98
   1  -8  -4    3.42    0.56
  -1   8   4    3.51    1.05
  -1   8   4    3.54    1.75
   0  -8  -4   50.14    2.95
   0  -8  -4   52.09    4.28
   0  -8  -4   54.58    3.59
   0   8   4   50.52    4.33
  -1  -8  -4   15.10    1.07
  -1  -8  -4   18.28    1.78
  -1  -8  -4   16.25    2.49
   1   8   4   16.50    2.48
   1   8   4   16.39    1.88
   1   8   4   16.69    1.17
  -2  -8  -4    0.84    0.85
  -2  -8  -4    1.24    1.19
  -2  -8  -4    1.48    0.41
   2   8   4    1.59    0.41
   2   8   4    1.76    0.80
   2   8   4    0.18    1.19
  -3  -8  -4    3.12    1.46
  -3  -8  -4    3.91    0.96
  -3  -8  -4    4.06    0.69
   3   8   4    5.39    1.56
   3   8   4    3.82    1.35
   3   8   4    4.26    0.66
   3   8   4    2.53    0.88
  -4  -8  -4  105.36    8.00
  -4  -8  -4  120.18    6.38
   4   8   4  128.71    7.62
   4   8   4  116.00    7.36
   4   8   4  121.89    6.26
   4   8   4  114.76    6.83
  -5  -8  -4   14.90    1.41
  -5  -8  -4   18.72    2.50
   5   8   4   12.77    1.24
   5   8   4   11.46    2.05
   5   8   4   13.06    1.77
   5   8   4   15.03    2.49
  -6  -8  -4    7.39    1.15
  -6  -8  -4    9.09    1.17
  -6  -8  -4    9.77    1.94
   6   8   4    9.59    1.62
   6   8   4    6.22    1.84
   6   8   4    6.37    1.78
  -7  -8  -4    7.20    1.20
  -7  -8  -4    6.77    1.11
  -7  -8  -4    7.86    2.10
   7   8   4    6.09    1.50
   7   8   4    7.98    2.01
  -8  -8  -4    1.21    1.06
  -8  -8  -4   -0.23    0.82
  -8  -8  -4    1.47    1.70
   8   8   4    3.53    1.92
   8   8   4    1.67    1.28
  -9  -8  -4    3.29    2.38
  -9  -8  -4    2.85    1.10
  -9  -8  -4    2.18    1.30
   9   8   4    8.72    2.21
 -10  -8  -4   30.11    3.15
 -10  -8  -4   32.28    3.17
 -10  -8  -4   35.21    4.70
  10   8   4   31.72    3.46
  10   8   4   28.77    4.19
  10   8   4   39.11    3.75
 -11  -8  -4   20.09    4.00
 -11  -8  -4   19.63    2.68
  11   8   4   21.79    3.13
  11   8   4   21.23    3.35
  11   8   4   19.22    2.59
  11   8   4   14.07    2.85
 -12  -8  -4   -1.04    2.21
  12   8   4   -2.49    2.71
  12   8   4    2.59    2.69
   6  -9  -4    5.85    2.45
  -6   9   4    4.63    2.33
  -6   9   4    3.81    4.60
  -6   9   4   -4.38    3.25
   5  -9  -4    5.33    1.97
  -5   9   4    7.55    3.50
  -5   9   4    8.99    2.87
  -5   9   4    2.42    1.70
   4  -9  -4    7.68    2.01
  -4   9   4    9.54    3.47
  -4   9   4    9.61    1.84
  -4   9   4   15.10    2.65
   3  -9  -4   -1.11    1.32
  -3   9   4   -0.16    2.20
  -3   9   4    0.81    1.30
  -3   9   4   -2.98    1.36
   2  -9  -4    1.45    0.58
   2  -9  -4    2.61    1.25
  -2   9   4    2.16    1.28
  -2   9   4    2.31    2.04
  -2   9   4    1.31    1.36
   1  -9  -4    3.44    0.71
   1  -9  -4    4.26    1.32
  -1   9   4    1.02    2.00
  -1   9   4    1.76    1.19
   0  -9  -4    1.56    1.69
   0  -9  -4    1.29    0.53
   0  -9  -4    1.44    0.96
   0   9   4    2.24    1.74
   0   9   4    2.32    1.11
  -1  -9  -4   15.61    2.54
  -1  -9  -4   11.03    1.83
  -1  -9  -4   11.12    0.77
   1   9   4   10.51    0.95
   1   9   4    9.97    2.39
   1   9   4   10.61    1.66
  -2  -9  -4    2.10    0.89
  -2  -9  -4    5.37    1.69
  -2  -9  -4    1.98    0.43
   2   9   4    2.59    1.72
   2   9   4    3.01    1.47
   2   9   4    1.95    1.02
   2   9   4    1.73    0.39
  -3  -9  -4   58.41    3.98
  -3  -9  -4   62.40    4.84
  -3  -9  -4   55.57    3.41
   3   9   4   66.98    5.01
   3   9   4   59.86    5.21
   3   9   4   58.39    3.27
   3   9   4   65.06    4.92
  -4  -9  -4   33.21    2.55
  -4  -9  -4   29.66    2.02
  -4  -9  -4   25.50    3.39
   4   9   4   23.77    3.44
   4   9   4   28.41    3.36
   4   9   4   25.41    2.60
   4   9   4   29.43    1.83
  -5  -9  -4    1.45    1.36
  -5  -9  -4    3.12    0.74
  -5  -9  -4    3.56    1.11
   5   9   4    3.80    1.69
   5   9   4    3.74    1.62
   5   9   4    3.79    1.26
  -6  -9  -4    2.22    0.94
  -6  -9  -4    3.34    1.61
  -6  -9  -4    2.86    0.80
   6   9   4    3.50    1.89
   6   9   4   -0.08    1.57
   6   9   4    3.10    1.08
  -7  -9  -4    2.44    1.88
  -7  -9  -4    2.92    0.88
  -7  -9  -4    4.56    0.95
  -7  -9  -4    4.19    1.16
   7   9   4    2.34    2.02
   7   9   4    5.86    1.66
  -8  -9  -4    5.96    1.15
  -8  -9  -4    5.57    2.18
  -8  -9  -4    4.93    1.25
  -8  -9  -4    6.82    1.27
   8   9   4    6.38    1.83
  -9  -9  -4    0.75    2.44
  -9  -9  -4    2.41    1.12
  -9  -9  -4    2.49    1.40
  -9  -9  -4    1.41    1.03
   9   9   4   -2.57    2.20
   9   9   4    4.55    1.79
 -10  -9  -4   25.63    2.58
 -10  -9  -4   33.70    3.17
 -10  -9  -4   21.11    2.93
 -10  -9  -4   41.11    5.44
  10   9   4   31.64    4.82
  10   9   4   31.17    3.70
  10   9   4   22.86    3.32
 -11  -9  -4   19.26    2.31
 -11  -9  -4   14.69    4.24
 -11  -9  -4   21.15    3.00
 -11  -9  -4   17.15    2.71
  11   9   4   19.81    4.35
  11   9   4   16.61    2.97
 -12  -9  -4    2.50    2.42
  12   9   4    3.07    2.34
   5 -10  -4    4.88    2.43
  -5  10   4    5.38    4.48
   4 -10  -4   -0.37    1.71
  -4  10   4   -0.81    2.60
  -4  10   4   -1.65    1.44
  -4  10   4   -1.13    1.98
  -4  10   4    4.25    3.71
   3 -10  -4    0.03    1.67
  -3  10   4    1.03    2.03
  -3  10   4   -0.67    1.65
  -3  10   4   -2.17    2.65
  -3  10   4    1.15    1.01
   2 -10  -4    2.97    0.87
   2 -10  -4    0.95    1.44
  -2  10   4    1.63    2.46
  -2  10   4    5.26    1.99
  -2  10   4    4.18    1.65
   1 -10  -4    2.19    1.37
   1 -10  -4    4.05    0.85
  -1  10   4    3.52    1.55
  -1  10   4   -1.64    2.18
   0 -10  -4   16.84    2.50
   0 -10  -4   19.53    1.72
   0 -10  -4   15.33    3.18
   0  10   4   18.28    2.59
   0  10   4   19.89    1.34
   0  10   4   18.33    3.22
  -1 -10  -4   15.96    2.93
  -1 -10  -4   12.64    2.07
  -1 -10  -4   11.09    1.39
   1  10   4   13.30    2.93
   1  10   4   14.49    2.23
   1  10   4   11.54    2.57
   1  10   4   12.50    0.93
  -2 -10  -4   23.82    3.71
  -2 -10  -4   21.48    1.41
   2  10   4   22.05    2.69
   2  10   4   19.05    1.25
   2  10   4   24.58    4.32
   2  10   4   26.06    4.39
  -3 -10  -4    7.86    1.55
  -3 -10  -4    9.06    1.06
  -3 -10  -4    9.01    2.31
   3  10   4    8.10    2.75
  -4 -10  -4   13.65    2.71
  -4 -10  -4   13.48    2.05
  -4 -10  -4   14.96    1.43
   4  10   4   12.56    2.00
   4  10   4   17.45    2.98
   4  10   4   12.61    2.80
  -5 -10  -4    5.75    1.97
  -5 -10  -4    4.08    1.21
  -5 -10  -4    4.41    0.93
   5  10   4    5.75    1.65
   5  10   4    3.69    2.07
   5  10   4    8.38    2.40
  -6 -10  -4    0.12    0.73
  -6 -10  -4   -0.70    1.78
  -6 -10  -4   -0.32    0.91
   6  10   4    0.96    1.80
   6  10   4    0.52    1.45
  -7 -10  -4    0.99    0.97
  -7 -10  -4    1.83    2.18
  -7 -10  -4    2.06    1.07
   7  10   4    5.84    1.75
   7  10   4    2.74    2.25
   7  10   4    2.53    2.25
  -8 -10  -4   12.72    1.81
  -8 -10  -4   12.54    1.79
  -8 -10  -4   16.53    2.01
   8  10   4   16.31    2.65
   8  10   4   13.79    3.24
  -9 -10  -4   15.67    2.21
  -9 -10  -4   16.15    2.30
  -9 -10  -4   14.56    2.26
   9  10   4   14.76    3.75
   9  10   4   17.81    2.84
 -10 -10  -4    9.51    1.63
 -10 -10  -4    8.49    1.86
 -10 -10  -4    5.20    3.62
 -10 -10  -4    8.51    1.71
  10  10   4    4.57    3.25
 -11 -10  -4    3.37    1.97
 -11 -10  -4    0.11    1.34
 -11 -10  -4   -3.78    1.89
  11  10   4   -2.97    2.59
  11  10   4   -2.22    3.46
   4 -11  -4    0.38    2.51
  -4  11   4   -5.85    4.54
   3 -11  -4    6.15    2.42
  -3  11   4   -1.11    4.30
  -3  11   4    8.66    2.62
   2 -11  -4    5.80    1.11
   2 -11  -4    4.15    1.97
  -2  11   4    8.76    2.62
  -2  11   4    6.52    3.75
  -2  11   4    6.63    1.02
  -2  11   4    7.47    2.32
   1 -11  -4   -0.48    0.89
   1 -11  -4   -1.26    1.44
  -1  11   4   -1.28    2.61
  -1  11   4   -0.66    0.48
  -1  11   4    0.32    0.54
  -1  11   4   -0.15    1.87
   0 -11  -4    3.97    1.76
   0 -11  -4    4.56    1.12
   0 -11  -4    0.71    3.28
   0  11   4    3.39    2.40
   0  11   4    5.87    1.81
   0  11   4    3.34    2.92
  -1 -11  -4    8.94    1.34
  -1 -11  -4   17.56    3.43
  -1 -11  -4   10.55    2.00
   1  11   4   10.46    3.18
   1  11   4    9.33    2.13
   1  11   4   12.56    3.11
  -2 -11  -4    1.66    2.75
  -2 -11  -4   -0.38    1.11
   2  11   4   -1.54    2.22
   2  11   4    3.09    2.19
   2  11   4    1.65    1.59
  -3 -11  -4    3.51    2.42
  -3 -11  -4    0.65    1.23
   3  11   4    4.71    1.75
   3  11   4    2.34    2.31
   3  11   4    0.71    2.09
  -4 -11  -4    5.14    1.57
  -4 -11  -4    6.59    1.01
  -4 -11  -4    9.17    2.69
   4  11   4    9.15    2.79
   4  11   4    4.39    2.40
   4  11   4    5.99    1.77
  -5 -11  -4    1.73    0.84
  -5 -11  -4    1.30    1.46
  -5 -11  -4    1.16    2.35
   5  11   4   -1.79    2.29
   5  11   4    2.99    1.61
   5  11   4    3.49    2.12
  -6 -11  -4   11.58    1.87
  -6 -11  -4   14.39    3.02
  -6 -11  -4    9.90    1.47
   6  11   4    2.87    2.86
   6  11   4    9.17    2.77
   6  11   4    8.58    2.06
  -7 -11  -4    7.62    2.73
  -7 -11  -4    5.48    1.41
  -7 -11  -4    6.79    1.61
   7  11   4    8.32    3.05
   7  11   4    9.16    2.21
   7  11   4    6.08    3.31
  -8 -11  -4    3.41    3.11
  -8 -11  -4    7.53    1.57
  -8 -11  -4    3.14    1.48
   8  11   4    8.82    3.41
  -9 -11  -4    6.74    1.69
  -9 -11  -4   13.16    2.02
  -9 -11  -4   10.38    1.62
   9  11   4    8.60    3.89
 -10 -11  -4    0.52    1.41
 -10 -11  -4    5.40    1.95
 -10 -11  -4    2.47    1.62
  10  11   4    3.12    3.82
 -11 -11  -4    1.04    2.15
  11  11   4   -2.71    4.06
   2 -12  -4   -0.93    2.41
  -2  12   4    7.18    4.17
  -2  12   4   -5.67    3.95
   1 -12  -4    6.64    2.12
   1 -12  -4    7.06    1.37
  -1  12   4    3.05    3.83
  -1  12   4    9.34    3.70
   0 -12  -4    0.44    1.22
   0  12   4   -6.90    3.12
   0  12   4    6.91    3.30
  -1 -12  -4    2.49    1.32
  -1 -12  -4   -0.25    1.78
   1  12   4    3.53    3.33
   1  12   4   -0.39    3.49
   1  12   4    5.26    4.11
  -2 -12  -4    0.77    1.05
  -2 -12  -4    2.06    1.71
   2  12   4    3.74    3.24
   2  12   4    4.06    3.17
  -3 -12  -4    1.48    1.49
  -3 -12  -4    0.68    0.63
   3  12   4   -4.43    2.52
   3  12   4   -4.93    2.59
  -4 -12  -4    3.47    0.93
  -4 -12  -4    1.91    1.63
   4  12   4    8.25    3.27
   4  12   4    0.25    2.77
  -5 -12  -4    1.13    0.99
  -5 -12  -4   -0.81    1.44
   5  12   4    1.39    2.93
   5  12   4    6.13    2.82
  -6 -12  -4   17.12    2.78
  -6 -12  -4   17.75    2.25
   6  12   4   18.22    4.39
   6  12   4   22.27    4.11
  -7 -12  -4    5.88    1.71
  -7 -12  -4    6.49    1.62
   7  12   4    9.80    3.70
   7  12   4    3.18    3.41
  -8 -12  -4    5.48    1.84
  -8 -12  -4    2.46    1.57
   8  12   4   13.45    4.11
  -9 -12  -4    6.57    1.87
   9  12   4    4.96    4.68
 -10 -12  -4    4.61    1.91
 -10 -12  -4    3.15    2.13
   0 -13  -4    0.13    2.70
   0  13   4   -3.98    4.72
   0  13   4    2.34    4.28
  -1 -13  -4   15.25    2.88
   1  13   4    7.61    4.46
   1  13   4   17.82    4.62
  -2 -13  -4   -0.55    1.53
  -2 -13  -4   -1.36    2.02
   2  13   4    3.49    4.11
   2  13   4   -1.16    3.77
  -3 -13  -4    0.46    2.15
  -3 -13  -4    0.59    1.46
   3  13   4    4.96    3.67
   3  13   4   -0.79    3.56
  -4 -13  -4    7.47    1.11
  -4 -13  -4    7.49    2.21
   4  13   4    8.52    4.28
   4  13   4    3.39    4.05
  -5 -13  -4    2.03    1.13
  -5 -13  -4    1.28    1.95
   5  13   4    4.24    3.50
   5  13   4    3.63    3.81
  -6 -13  -4    2.51    1.95
  -6 -13  -4   -0.30    1.27
   6  13   4   -2.36    3.59
   6  13   4   -3.25    3.70
  -7 -13  -4   -0.34    1.56
  -7 -13  -4   -2.51    2.04
   7  13   4   -1.15    3.93
   7  13   4   -5.30    4.49
  -8 -13  -4    6.14    1.93
  -8 -13  -4    6.21    2.20
   8  13   4    1.63    4.75
  -3 -14  -4    3.00    2.49
   3  14   4    3.59    5.28
  -4 -14  -4    2.75    2.75
  -4 -14  -4    4.66    2.10
   4  14   4    2.53    4.95
   4  14   4   -4.63    5.65
  -5 -14  -4   -0.45    2.35
   5  14   4    2.86    7.66
   5  14   4    3.26    4.52
  -6 -14  -4    4.85    2.81
   6  10  -5    5.40    4.57
  -6 -10   5    3.07    2.67
   5  10  -5   -3.91    3.72
   5  10  -5    0.02    4.22
  -5 -10   5    4.59    2.45
   4  10  -5   -5.54    4.08
  -4 -10   5    5.16    2.24
   3  10  -5    4.53    4.30
   3  10  -5    6.82    2.25
  -3 -10   5    6.22    2.52
   2  10  -5   10.45    4.75
   2  10  -5   11.98    4.93
  -2 -10   5   12.33    2.53
   1  10  -5   -2.32    4.44
   1  10  -5    8.88    4.28
  -1 -10   5    1.24    2.27
   8   9  -5    2.13    4.60
  -8  -9   5    7.20    2.41
   7   9  -5   11.27    4.27
  -7  -9   5    1.81    1.93
   6   9  -5   -0.95    3.64
  -6  -9   5   -0.65    1.64
  -6  -9   5   -0.30    0.89
   5   9  -5   -4.19    1.88
   5   9  -5   -1.98    1.89
   5   9  -5   -0.44    3.20
  -5  -9   5    0.08    0.66
  -5  -9   5   -0.37    1.54
   4   9  -5    4.93    3.28
   4   9  -5    2.72    1.87
   4   9  -5    0.77    1.70
  -4  -9   5    0.25    1.79
   3   9  -5    4.20    1.62
   3   9  -5    2.94    2.24
   3   9  -5    6.78    3.46
  -3  -9   5    2.02    1.66
   2   9  -5   -0.15    3.00
   2   9  -5   -2.43    1.41
   2   9  -5    1.22    3.36
  -2  -9   5   -0.80    1.51
  -2  -9   5   -5.48    3.39
   1   9  -5    2.11    1.40
   1   9  -5    4.74    3.23
   1   9  -5    6.23    3.59
  -1  -9   5    4.26    3.98
  -1  -9   5    0.11    1.47
   0   9  -5    5.69    3.56
   0   9  -5    4.16    1.53
   0   9  -5    6.90    3.78
   0  -9   5   14.16    4.76
   0  -9   5    5.60    1.96
  -1   9  -5    3.08    3.63
  -1   9  -5   -0.13    3.85
   1  -9   5    5.62    2.00
  -2   9  -5    6.44    3.94
  -2   9  -5   12.99    4.78
   2  -9   5    6.87    2.60
   9   8  -5    8.14    4.23
   8   8  -5    5.54    3.66
   7   8  -5   22.81    4.48
  -7  -8   5   16.51    2.56
   6   8  -5    1.40    1.55
   6   8  -5    3.65    1.72
   6   8  -5    0.58    2.93
  -6  -8   5    2.03    1.56
  -6  -8   5   -1.07    3.03
   5   8  -5   13.86    3.50
   5   8  -5   13.11    2.09
   5   8  -5   20.01    2.54
  -5  -8   5   16.70    3.88
  -5  -8   5   14.74    3.58
  -5  -8   5   17.76    2.60
   4   8  -5   -1.17    1.27
   4   8  -5   -1.47    2.45
  -4  -8   5    1.20    0.61
  -4  -8   5    0.82    2.32
  -4  -8   5    1.08    1.26
  -4  -8   5   -0.79    2.68
   3   8  -5    4.40    2.93
   3   8  -5    5.67    1.76
   3   8  -5    4.00    1.32
  -3  -8   5    3.87    1.49
  -3  -8   5    4.53    2.62
  -3  -8   5    4.97    0.68
   2   8  -5   22.04    3.83
   2   8  -5   32.41    4.86
   2   8  -5   36.94    3.37
   2   8  -5   29.16    2.57
  -2  -8   5   28.19    1.74
  -2  -8   5   29.89    2.99
  -2  -8   5   30.39    4.96
   1   8  -5    5.10    3.06
   1   8  -5    7.22    1.45
   1   8  -5   10.90    3.07
  -1  -8   5    8.27    3.09
  -1  -8   5    8.39    1.79
   0   8  -5    5.55    3.01
   0   8  -5    0.70    2.49
   0   8  -5    4.23    1.35
   0  -8   5    9.66    3.19
  -1   8  -5   -0.28    2.65
  -1   8  -5   -1.44    2.64
  -1   8  -5    1.17    1.26
   1  -8   5    1.29    1.49
   1  -8   5   -4.61    2.96
  -2   8  -5    9.74    3.25
  -2   8  -5    5.06    1.44
   2  -8   5    6.73    2.06
   2  -8   5    0.77    3.80
  -3   8  -5   -4.24    3.41
  -3   8  -5    2.60    3.03
   3  -8   5    6.34    2.43
  10   7  -5    4.12    4.30
 -10  -7   5    2.29    2.21
   9   7  -5    3.93    2.08
   9   7  -5    2.14    3.54
  -9  -7   5   -0.78    1.62
   8   7  -5    4.81    2.08
   8   7  -5    1.08    3.06
  -8  -7   5    7.38    1.78
   7   7  -5    4.42    1.91
   7   7  -5    3.20    2.68
  -7  -7   5   -2.07    3.04
  -7  -7   5    0.59    3.18
   6   7  -5   -0.26    1.01
   6   7  -5    5.66    2.78
   6   7  -5   -0.46    1.37
  -6  -7   5   -1.69    2.56
  -6  -7   5    3.51    2.77
  -6  -7   5    0.08    1.10
   5   7  -5    0.07    1.11
   5   7  -5    2.04    2.45
   5   7  -5   -0.66    1.08
  -5  -7   5    3.03    2.48
  -5  -7   5    0.64    1.08
  -5  -7   5    1.77    2.43
   4   7  -5    0.53    1.02
   4   7  -5    1.48    1.11
   4   7  -5   -0.28    2.04
  -4  -7   5   -1.78    2.03
  -4  -7   5    2.29    1.86
  -4  -7   5   -1.35    0.98
   3   7  -5    4.09    1.14
   3   7  -5    2.80    1.30
   3   7  -5    3.16    2.37
  -3  -7   5    3.10    0.58
  -3  -7   5    1.73    2.08
  -3  -7   5    3.45    1.21
   2   7  -5   15.74    1.88
   2   7  -5   18.10    2.38
   2   7  -5   16.23    3.01
   2   7  -5    8.27    4.56
  -2  -7   5   14.63    1.29
  -2  -7   5   14.49    2.05
  -2  -7   5   12.99    2.76
   1   7  -5    4.85    2.13
   1   7  -5    4.29    1.09
   1   7  -5    4.13    1.45
   1   7  -5    1.59    2.07
  -1  -7   5    3.03    0.65
  -1  -7   5    3.76    1.25
  -1  -7   5    3.39    2.04
   0   7  -5    0.07    1.93
   0   7  -5   -0.74    1.96
   0   7  -5    0.95    0.93
   0   7  -5   -0.14    1.37
   0  -7   5    0.99    2.23
   0  -7   5    0.85    1.08
   0  -7   5    1.08    0.61
  -1   7  -5   -0.01    2.06
  -1   7  -5    0.57    1.01
  -1   7  -5    0.23    1.94
  -1   7  -5    3.15    1.58
   1  -7   5   -2.76    2.15
   1  -7   5    2.41    1.30
  -2   7  -5    2.31    2.24
  -2   7  -5    2.98    1.12
  -2   7  -5    5.47    2.39
   2  -7   5    4.70    2.77
   2  -7   5    4.16    1.69
  -3   7  -5   -3.67    2.04
  -3   7  -5    0.91    1.16
   3  -7   5    1.08    1.81
  -4   7  -5   29.91    3.07
  -4   7  -5   37.09    4.54
  -4   7  -5   34.32    4.60
  -4   7  -5   30.64    4.52
   4  -7   5   42.73    4.11
  -5   7  -5    5.77    3.82
  -5   7  -5   11.12    3.43
  -5   7  -5   16.16    1.97
  10   6  -5   -0.81    3.44
 -10  -6   5    0.55    1.86
   9   6  -5    5.90    3.25
   9   6  -5    5.08    1.91
  -9  -6   5    4.50    1.85
   8   6  -5    1.24    2.62
   8   6  -5    7.49    1.77
  -8  -6   5    4.18    1.64
   7   6  -5   -3.04    2.24
   7   6  -5    1.66    1.45
  -7  -6   5    2.35    2.73
  -7  -6   5    0.56    1.09
  -7  -6   5    6.20    2.93
   6   6  -5   -0.80    2.08
   6   6  -5    1.49    0.83
   6   6  -5    2.89    1.17
  -6  -6   5   -3.64    2.25
  -6  -6   5    1.08    2.31
   5   6  -5    2.99    1.04
   5   6  -5    3.85    0.95
  -5  -6   5    3.81    1.12
  -5  -6   5    3.21    2.16
  -5  -6   5    4.20    1.89
   4   6  -5   -1.26    0.84
   4   6  -5    0.35    0.89
  -4  -6   5    0.07    1.07
  -4  -6   5   -0.27    1.72
  -4  -6   5   -1.76    1.61
   3   6  -5   67.44    5.48
   3   6  -5   69.32    4.22
   3   6  -5   66.12    4.28
  -3  -6   5   71.09    5.38
  -3  -6   5   71.72    5.28
   2   6  -5  102.71    5.51
   2   6  -5   91.60    5.23
   2   6  -5   85.23    6.31
  -2  -6   5   87.69    6.24
  -2  -6   5   90.97    4.86
  -2  -6   5   93.25    6.02
  -2  -6   5   76.17    5.97
   1   6  -5   30.63    2.32
   1   6  -5   26.81    3.50
   1   6  -5   26.67    3.48
   1   6  -5   27.10    2.55
  -1  -6   5   27.61    1.84
  -1  -6   5   26.99    3.27
   0   6  -5    6.62    1.51
   0   6  -5    7.06    1.89
   0   6  -5    7.78    1.15
   0   6  -5    7.22    2.00
   0  -6   5    7.50    1.89
   0  -6   5    9.03    1.50
   0  -6   5    7.15    1.07
  -1   6  -5    6.89    2.01
  -1   6  -5    6.07    1.51
  -1   6  -5    8.08    1.24
  -1   6  -5    6.19    2.07
   1  -6   5    8.85    1.58
   1  -6   5    8.94    1.16
   1  -6   5   10.29    2.19
  -2   6  -5    2.46    1.45
  -2   6  -5    0.21    1.72
  -2   6  -5    1.00    0.84
  -2   6  -5   -0.28    1.86
   2  -6   5    3.69    2.00
   2  -6   5    1.62    1.09
  -3   6  -5    3.24    2.03
  -3   6  -5    6.36    1.95
  -3   6  -5    5.54    1.89
  -3   6  -5    5.72    1.18
   3  -6   5    5.90    1.57
  -4   6  -5    9.07    2.69
  -4   6  -5    8.96    2.16
  -4   6  -5    8.02    2.15
   4  -6   5    9.78    1.92
  -5   6  -5    0.48    2.62
  -5   6  -5    1.54    2.43
  -5   6  -5   -0.67    1.21
  -5   6  -5   -1.77    1.94
  -6   6  -5    6.07    3.28
  -6   6  -5    1.34    1.55
  -6   6  -5    5.47    2.95
  11   5  -5   10.53    3.54
  11   5  -5    6.58    2.70
 -11  -5   5    8.36    2.37
  10   5  -5    5.11    3.04
  10   5  -5   -0.47    1.84
 -10  -5   5    2.87    1.78
   9   5  -5   19.92    3.75
   9   5  -5   20.21    2.80
  -9  -5   5   22.29    2.93
   8   5  -5    9.87    1.82
   8   5  -5   11.33    1.75
   8   5  -5   12.23    2.94
  -8  -5   5    8.13    2.80
  -8  -5   5   10.12    3.45
  -8  -5   5    9.35    1.67
   7   5  -5   -1.66    1.11
   7   5  -5    0.58    2.20
  -7  -5   5    0.43    1.10
  -7  -5   5   -1.25    2.17
  -7  -5   5    1.12    2.30
   6   5  -5   -0.60    0.54
   6   5  -5   -0.61    0.93
   6   5  -5    0.68    1.83
  -6  -5   5    1.17    0.89
  -6  -5   5   -0.42    1.83
  -6  -5   5   -0.62    1.76
   5   5  -5    1.33    0.69
   5   5  -5    0.45    0.75
   5   5  -5    1.23    1.54
  -5  -5   5    4.57    1.73
  -5  -5   5   -0.60    1.57
   4   5  -5   11.01    1.48
   4   5  -5    9.50    1.33
   4   5  -5    5.84    2.14
  -4  -5   5   10.03    2.03
  -4  -5   5   16.75    2.69
  -4  -5   5    8.93    1.47
   3   5  -5    3.96    0.94
   3   5  -5    4.91    0.96
   3   5  -5    4.61    1.48
  -3  -5   5    2.77    1.45
  -3  -5   5    3.37    0.97
  -3  -5   5    3.56    1.47
   2   5  -5   54.21    4.46
   2   5  -5   59.61    3.47
   2   5  -5   57.48    3.80
  -2  -5   5   52.86    3.59
  -2  -5   5   49.64    3.12
  -2  -5   5   55.40    4.19
   1   5  -5    3.79    1.56
   1   5  -5    6.98    1.19
   1   5  -5    7.60    1.12
   1   5  -5    7.38    1.79
  -1  -5   5    6.53    1.43
  -1  -5   5    5.94    0.93
  -1  -5   5    5.61    1.70
  -1  -5   5    6.26    1.16
   0   5  -5    0.89    0.89
   0   5  -5    1.16    1.27
   0   5  -5    0.63    1.27
   0  -5   5    1.45    1.08
   0  -5   5   -0.76    0.70
   0  -5   5    0.53    0.50
  -1   5  -5    0.97    1.34
  -1   5  -5    1.29    1.28
  -1   5  -5   -0.34    0.78
   1  -5   5    0.50    0.78
   1  -5   5    0.84    1.25
   1  -5   5    0.78    0.56
  -2   5  -5    5.22    1.45
  -2   5  -5    7.46    1.75
  -2   5  -5    5.72    1.82
   2  -5   5    7.40    1.76
   2  -5   5    6.67    1.57
   2  -5   5    7.20    1.13
  -3   5  -5    1.97    1.41
  -3   5  -5    1.91    1.03
  -3   5  -5    0.27    1.51
  -3   5  -5    2.04    1.30
   3  -5   5    2.32    1.10
  -4   5  -5    7.21    2.03
  -4   5  -5   11.21    2.05
  -4   5  -5    7.88    1.49
  -4   5  -5    9.29    1.93
   4  -5   5    9.60    1.77
  -5   5  -5    2.87    1.61
  -5   5  -5    3.42    1.12
  -5   5  -5    0.05    2.15
  -5   5  -5    2.75    1.97
  -6   5  -5    3.48    1.32
  -6   5  -5    0.92    2.17
  -6   5  -5    3.34    1.76
  -6   5  -5    4.52    1.56
  -6   5  -5   -2.22    2.55
  -7   5  -5    1.71    2.01
  -7   5  -5    0.85    1.70
  -7   5  -5   -0.43    2.43
  -7   5  -5    0.80    3.58
  11   4  -5    4.16    2.84
  11   4  -5    6.91    3.07
 -11  -4   5    7.50    2.33
  10   4  -5    0.65    1.76
  10   4  -5   -1.65    1.16
  10   4  -5    0.41    2.41
 -10  -4   5    1.59    1.41
   9   4  -5    9.65    2.85
   9   4  -5   12.20    1.66
  -9  -4   5    7.60    5.72
  -9  -4   5   10.33    1.84
   8   4  -5    5.97    2.47
   8   4  -5   11.73    1.69
   8   4  -5   10.44    1.39
  -8  -4   5    8.93    3.04
  -8  -4   5    6.69    2.56
  -8  -4   5    7.76    1.46
   7   4  -5   13.05    1.83
  -7  -4   5   10.38    2.92
  -7  -4   5    9.64    2.63
  -7  -4   5   12.92    1.84
   6   4  -5    7.85    0.85
   6   4  -5    8.35    1.26
   6   4  -5    7.71    2.08
  -6  -4   5    6.07    1.22
  -6  -4   5   10.00    2.15
  -6  -4   5    7.08    2.24
   5   4  -5   31.75    2.35
   5   4  -5   28.06    3.48
   5   4  -5   31.03    2.01
  -5  -4   5   33.19    3.30
  -5  -4   5   29.10    3.54
   4   4  -5    2.90    0.66
   4   4  -5    2.69    1.49
   4   4  -5    2.57    0.79
  -4  -4   5    1.04    1.22
  -4  -4   5    3.53    0.83
  -4  -4   5    2.10    1.35
   3   4  -5   18.38    1.63
   3   4  -5   15.78    1.47
   3   4  -5   14.62    2.52
  -3  -4   5   16.96    2.42
  -3  -4   5   18.51    2.32
  -3  -4   5   17.91    1.69
   2   4  -5    3.86    0.87
   2   4  -5    2.99    1.29
  -2  -4   5    5.59    1.30
  -2  -4   5    4.18    0.92
  -2  -4   5    3.90    1.28
   1   4  -5   15.77    1.51
   1   4  -5   13.82    1.46
   1   4  -5   17.52    2.33
  -1  -4   5   15.01    1.99
  -1  -4   5   17.49    2.03
  -1  -4   5   14.52    1.24
  -1  -4   5   16.05    1.56
   0   4  -5   36.71    2.57
   0   4  -5   34.69    3.02
   0   4  -5   34.80    3.11
   0   4  -5   34.27    2.34
   0  -4   5   32.62    2.57
   0  -4   5   34.78    2.83
   0  -4   5   33.63    2.18
   0  -4   5   36.20    2.54
  -1   4  -5    1.03    1.09
  -1   4  -5    0.57    0.97
  -1   4  -5   -0.32    0.76
   1  -4   5    0.20    0.49
   1  -4   5   -0.89    0.81
   1  -4   5    0.45    0.67
  -2   4  -5   23.26    2.44
  -2   4  -5   24.96    2.08
  -2   4  -5   21.00    2.43
  -2   4  -5   24.60    2.21
   2  -4   5   22.98    1.79
   2  -4   5   19.93    1.95
   2  -4   5   21.92    2.42
  -3   4  -5   12.10    1.69
  -3   4  -5   14.20    1.95
  -3   4  -5   14.63    2.31
  -3   4  -5   12.27    2.03
   3  -4   5   14.26    1.81
   3  -4   5   11.92    1.44
  -4   4  -5   22.50    2.35
  -4   4  -5   26.35    2.81
  -4   4  -5   19.42    2.47
  -4   4  -5   23.30    2.41
  -4   4  -5   23.41    2.87
   4  -4   5   20.03    2.59
  -5   4  -5    2.33    1.26
  -5   4  -5   -0.45    0.94
  -5   4  -5   -0.08    1.11
  -5   4  -5    2.46    1.41
  -5   4  -5    0.01    1.50
  -5   4  -5   -1.43    1.51
  -6   4  -5   11.78    2.60
  -6   4  -5   11.46    1.70
  -6   4  -5    8.98    2.14
  -6   4  -5   13.00    1.72
  -6   4  -5   13.00    2.47
  -6   4  -5   13.46    1.91
  -6   4  -5   17.46    2.69
   6  -4   5   13.16    2.53
  -7   4  -5    2.01    1.29
  -7   4  -5    0.88    1.26
  -7   4  -5   -2.16    1.92
  -7   4  -5    1.83    2.25
  -7   4  -5   -0.70    1.57
   7  -4   5   -0.50    1.95
  -8   4  -5   -0.18    1.67
  -8   4  -5    2.41    2.58
  -8   4  -5    2.62    3.16
   8  -4   5    1.30    2.52
  11   3  -5   -1.74    2.37
  11   3  -5    3.91    2.69
 -11  -3   5    5.81    2.14
  10   3  -5   -2.31    2.28
  10   3  -5   -1.83    2.13
 -10  -3   5    0.42    1.57
   9   3  -5   12.41    2.68
   9   3  -5   12.53    1.61
   9   3  -5   15.70    2.88
   9   3  -5   11.57    2.00
  -9  -3   5    7.56    3.11
   8   3  -5    1.80    1.83
   8   3  -5    0.76    1.19
   8   3  -5   -1.64    0.76
  -8  -3   5    3.99    2.26
  -8  -3   5    5.53    2.51
  -8  -3   5    0.26    0.96
   7   3  -5    3.30    1.15
   7   3  -5    3.52    1.66
  -7  -3   5    2.96    1.98
  -7  -3   5    0.15    1.68
   6   3  -5   27.40    3.33
   6   3  -5   26.65    2.28
   6   3  -5   29.48    1.66
  -6  -3   5   28.32    3.63
  -6  -3   5   27.44    2.28
  -6  -3   5   25.55    3.39
   5   3  -5   26.67    2.10
   5   3  -5   26.26    3.07
   5   3  -5   26.22    1.72
  -5  -3   5   30.62    3.42
  -5  -3   5   26.86    2.13
  -5  -3   5   27.64    3.17
   4   3  -5    4.82    0.77
   4   3  -5    3.65    1.31
   4   3  -5    3.72    0.79
  -4  -3   5    4.35    1.48
  -4  -3   5    4.23    1.41
   3   3  -5   12.87    1.56
   3   3  -5   14.64    2.09
   3   3  -5   13.14    1.17
  -3  -3   5   11.37    1.26
  -3  -3   5   13.35    2.18
  -3  -3   5   11.45    1.86
   2   3  -5   87.68    5.79
   2   3  -5   94.50    5.15
   2   3  -5   93.16    5.08
  -2  -3   5  101.16    5.73
  -2  -3   5   93.52    5.78
  -2  -3   5   83.28    5.16
   1   3  -5   39.39    2.57
   1   3  -5   38.15    3.20
   1   3  -5   34.42    2.45
  -1  -3   5   43.03    2.65
  -1  -3   5   41.10    2.94
  -1  -3   5   41.88    3.02
   0   3  -5   16.19    1.36
   0   3  -5   16.74    2.02
   0   3  -5   16.53    1.85
   0   3  -5   17.48    1.47
   0  -3   5   16.73    1.68
   0  -3   5   16.13    1.27
   0  -3   5   17.57    1.81
   0  -3   5   14.47    1.50
  -1   3  -5   12.51    1.71
  -1   3  -5   11.22    1.29
  -1   3  -5   15.21    1.81
   1  -3   5   12.26    1.36
   1  -3   5   11.96    1.61
   1  -3   5   12.78    1.16
   1  -3   5   12.84    1.16
  -2   3  -5   34.62    2.55
  -2   3  -5   30.13    2.66
  -2   3  -5   33.99    2.65
   2  -3   5   33.17    2.59
   2  -3   5   40.61    2.58
   2  -3   5   33.74    2.25
  -3   3  -5    0.64    0.88
  -3   3  -5   -1.25    0.68
  -3   3  -5    1.65    0.91
  -3   3  -5    0.37    0.70
  -3   3  -5    0.03    0.76
   3  -3   5    0.30    0.50
   3  -3   5   -1.14    0.67
  -4   3  -5    6.38    1.25
  -4   3  -5    5.31    1.28
  -4   3  -5    4.67    1.28
  -4   3  -5    5.35    1.38
  -4   3  -5    4.26    0.90
  -4   3  -5    4.18    1.14
   4  -3   5    8.13    1.93
   4  -3   5    3.99    0.95
   4  -3   5    5.33    1.22
  -5   3  -5    0.95    1.30
  -5   3  -5    2.35    0.94
  -5   3  -5    1.34    1.09
  -5   3  -5    1.42    1.27
  -5   3  -5    1.90    0.85
  -5   3  -5    2.48    1.27
   5  -3   5    0.55    1.34
  -6   3  -5    5.42    1.16
  -6   3  -5    3.23    1.34
  -6   3  -5    5.42    1.29
  -6   3  -5    6.94    1.77
  -6   3  -5    4.94    1.48
  -6   3  -5    4.98    1.68
  -6   3  -5    4.69    1.10
   6  -3   5    6.24    1.97
  -7   3  -5    1.61    0.92
  -7   3  -5    1.45    1.80
  -7   3  -5    1.75    1.41
  -7   3  -5    2.17    1.54
  -7   3  -5    0.02    1.47
  -7   3  -5    1.84    1.14
  -7   3  -5    0.50    1.82
   7  -3   5    0.44    1.56
  -8   3  -5    7.17    2.25
  -8   3  -5    3.82    2.53
  -8   3  -5    2.69    1.63
   8  -3   5    2.79    2.12
  -9   3  -5    1.92    2.80
  -9   3  -5    5.35    3.19
  -9   3  -5   -2.76    1.82
   9  -3   5    2.66    2.36
  11   2  -5    1.05    2.28
  11   2  -5   -0.73    2.42
 -11  -2   5    3.87    1.71
  10   2  -5   -0.42    1.91
  10   2  -5   -2.97    1.87
 -10  -2   5    2.68    1.43
   9   2  -5   -1.70    1.75
   9   2  -5    2.17    1.58
   9   2  -5   -0.48    1.59
  -9  -2   5   -3.32    2.46
  -9  -2   5    0.47    1.13
   8   2  -5    1.72    1.42
   8   2  -5    4.62    1.68
   8   2  -5    0.38    1.08
   8   2  -5    2.51    0.70
   8   2  -5    3.69    0.71
  -8  -2   5    2.86    2.34
  -8  -2   5    4.28    1.18
   7   2  -5   11.26    1.16
   7   2  -5    6.80    1.84
   7   2  -5    7.83    1.32
  -7  -2   5   10.72    2.44
  -7  -2   5   11.55    1.68
   6   2  -5    3.89    0.51
   6   2  -5    3.95    0.93
   6   2  -5    2.14    1.38
  -6  -2   5    3.00    1.58
  -6  -2   5    2.49    0.90
   5   2  -5   13.03    2.02
   5   2  -5   13.05    1.41
  -5  -2   5   12.77    1.44
  -5  -2   5   12.96    2.15
   4   2  -5    2.63    1.20
   4   2  -5    3.45    1.19
  -4  -2   5    5.31    1.47
  -4  -2   5    3.91    1.46
   3   2  -5   11.06    1.82
   3   2  -5    9.84    1.06
  -3  -2   5   13.60    1.80
  -3  -2   5    9.13    1.03
  -3  -2   5    7.01    1.39
   2   2  -5   -0.61    0.33
   2   2  -5    0.05    0.77
  -2  -2   5    0.00    0.59
  -2  -2   5    0.34    0.36
  -2  -2   5    0.36    0.77
   1   2  -5    0.28    0.45
   1   2  -5    0.09    0.72
  -1  -2   5    0.36    0.66
  -1  -2   5   -0.19    0.39
  -1  -2   5   -0.17    0.61
   0   2  -5    1.70    0.49
   0   2  -5    1.84    0.92
   0  -2   5    0.71    0.40
   0  -2   5    1.13    0.64
   0  -2   5    1.37    0.51
   0  -2   5    1.31    0.73
  -1   2  -5    1.23    0.66
  -1   2  -5    1.22    0.57
  -1   2  -5    2.40    0.89
  -1   2  -5    2.67    0.64
   1  -2   5    1.10    0.55
   1  -2   5    0.82    0.57
   1  -2   5    1.94    0.52
   1  -2   5    1.15    0.54
  -2   2  -5    6.72    1.01
  -2   2  -5    5.41    0.93
  -2   2  -5    7.05    1.03
  -2   2  -5    5.30    1.10
  -2   2  -5    6.26    1.10
   2  -2   5    4.65    0.87
   2  -2   5    6.03    1.01
   2  -2   5    6.15    0.83
  -3   2  -5   54.37    3.60
  -3   2  -5   53.02    3.78
  -3   2  -5   61.92    3.64
  -3   2  -5   56.45    3.54
  -3   2  -5   58.36    3.63
   3  -2   5   63.47    3.50
   3  -2   5   57.35    3.61
  -4   2  -5   71.96    4.31
  -4   2  -5   69.90    4.23
  -4   2  -5   66.58    4.58
  -4   2  -5   70.49    4.34
  -4   2  -5   66.33    4.30
  -4   2  -5   72.32    4.39
   4  -2   5   74.01    4.85
   4  -2   5   80.11    4.43
   4  -2   5   71.56    4.23
  -5   2  -5   -0.29    1.09
  -5   2  -5    0.04    0.63
  -5   2  -5   -0.73    0.85
  -5   2  -5    0.51    0.74
  -5   2  -5   -0.74    0.72
   5  -2   5    0.10    0.66
   5  -2   5   -1.85    1.10
  -6   2  -5   -0.70    0.90
  -6   2  -5    1.47    0.95
  -6   2  -5   -0.45    0.79
  -6   2  -5    0.76    1.13
  -6   2  -5   -0.05    1.20
  -6   2  -5    0.33    0.76
  -6   2  -5   -0.05    1.16
   6  -2   5   -1.63    1.40
  -7   2  -5    2.34    1.26
  -7   2  -5    3.85    1.54
  -7   2  -5    1.72    1.19
  -7   2  -5    3.14    1.43
  -7   2  -5   -0.05    1.40
  -7   2  -5    1.04    0.79
  -7   2  -5    1.37    1.08
   7  -2   5    1.33    1.58
  -8   2  -5   -0.74    1.83
  -8   2  -5    0.41    1.30
  -8   2  -5   -1.74    1.56
  -8   2  -5    2.98    1.60
  -8   2  -5   -0.03    1.76
  -8   2  -5    1.33    1.90
   8  -2   5   -1.70    1.58
  -9   2  -5   -2.48    1.99
  -9   2  -5    1.11    1.58
  -9   2  -5    0.61    2.57
   9  -2   5   -1.11    1.72
  10  -2   5    1.46    2.20
  11   1  -5    1.73    2.41
 -11  -1   5    2.02    1.91
  10   1  -5    3.49    1.96
  10   1  -5    5.52    2.34
  10   1  -5    3.07    1.93
 -10  -1   5    7.09    1.65
   9   1  -5   19.83    2.96
   9   1  -5   17.79    2.26
   9   1  -5   13.17    2.83
  -9  -1   5   17.60    2.36
  -9  -1   5   17.94    3.46
   8   1  -5    5.14    1.24
   8   1  -5   10.99    2.45
   8   1  -5    8.53    1.74
  -8  -1   5    5.36    2.21
   7   1  -5   42.05    3.10
   7   1  -5   48.19    2.60
   7   1  -5   45.69    2.63
   7   1  -5   43.01    3.71
  -7  -1   5   52.53    4.60
  -7  -1   5   47.32    3.19
   6   1  -5   11.71    1.18
   6   1  -5   13.29    1.75
   6   1  -5   10.68    1.84
   6   1  -5   11.72    1.45
  -6  -1   5   11.10    2.15
  -6  -1   5   10.47    1.40
   5   1  -5   -0.23    0.47
   5   1  -5    0.37    1.06
  -5  -1   5   -0.64    1.09
  -5  -1   5    0.63    0.56
   4   1  -5    0.38    0.88
   4   1  -5    0.22    0.44
  -4  -1   5   -0.05    0.93
   3   1  -5   38.90    2.38
   3   1  -5   30.49    2.83
  -3  -1   5   35.69    2.98
  -3  -1   5   39.24    2.32
   2   1  -5   -1.16    0.62
   2   1  -5    0.36    0.38
  -2  -1   5    0.13    0.34
  -2  -1   5   -0.32    0.64
   1   1  -5   41.73    2.42
   1   1  -5   38.22    2.89
  -1  -1   5   41.44    2.70
  -1  -1   5   42.51    2.94
  -1  -1   5   34.26    2.37
   0   1  -5    0.17    0.31
   0   1  -5    0.69    0.70
   0   1  -5   -0.23    0.69
   0   1  -5    0.57    0.53
   0  -1   5    0.09    0.40
   0  -1   5   -0.04    0.53
   0  -1   5    0.54    0.43
  -1   1  -5   -0.24    0.89
  -1   1  -5    0.63    0.63
  -1   1  -5    0.44    0.40
  -1   1  -5    0.15    0.60
   1  -1   5   -0.14    0.47
   1  -1   5    0.31    0.39
   1  -1   5   -0.26    0.34
   1  -1   5    0.25    0.34
  -2   1  -5   16.63    1.61
  -2   1  -5   12.82    1.53
  -2   1  -5   12.97    1.17
  -2   1  -5   14.51    1.27
   2  -1   5   13.12    1.16
   2  -1   5   13.66    0.92
   2  -1   5   14.20    1.10
   2  -1   5   11.38    1.23
  -3   1  -5   82.74    4.54
  -3   1  -5   76.71    4.29
  -3   1  -5   76.77    4.56
  -3   1  -5   77.91    4.41
  -3   1  -5   73.78    4.71
   3  -1   5   81.17    4.44
   3  -1   5   71.17    4.48
   3  -1   5   87.43    4.87
  -4   1  -5   45.88    2.82
  -4   1  -5   45.99    2.96
  -4   1  -5   51.20    2.91
  -4   1  -5   40.06    2.84
  -4   1  -5   47.29    3.23
  -4   1  -5   44.22    2.97
   4  -1   5   43.17    2.88
   4  -1   5   46.35    3.32
  -5   1  -5   22.74    1.94
  -5   1  -5   23.42    1.98
  -5   1  -5   22.99    1.91
  -5   1  -5   21.04    1.97
  -5   1  -5   23.71    1.85
  -5   1  -5   21.54    2.25
   5  -1   5   19.09    2.19
   5  -1   5   21.06    1.88
  -6   1  -5    0.22    0.96
  -6   1  -5    1.41    0.89
  -6   1  -5   -1.59    0.82
  -6   1  -5    0.08    0.60
  -6   1  -5   -0.14    0.75
  -6   1  -5   -0.06    0.75
  -6   1  -5    0.15    0.99
  -7   1  -5   -0.96    0.95
  -7   1  -5   -0.17    1.02
  -7   1  -5   -0.92    1.15
  -7   1  -5    1.42    1.30
  -7   1  -5   -0.45    0.63
  -7   1  -5    0.82    0.92
  -7   1  -5    0.22    1.15
   7  -1   5    0.56    1.36
  -8   1  -5    5.62    1.55
  -8   1  -5    3.10    1.51
  -8   1  -5    3.00    1.37
  -8   1  -5    6.50    1.78
  -8   1  -5    5.88    1.68
  -8   1  -5    2.65    1.60
   8  -1   5    1.63    1.69
  -9   1  -5    4.11    1.93
  -9   1  -5    0.93    1.44
  -9   1  -5    0.47    3.13
  -9   1  -5   -1.14    1.99
   9  -1   5    0.17    1.67
 -10   1  -5    1.11    2.93
 -10   1  -5    4.75    1.99
 -10   1  -5   11.30    2.67
  10  -1   5    6.61    2.87
  11   0  -5    2.81    2.66
 -11   0   5    4.58    1.89
  10   0  -5    0.63    2.29
  10   0  -5    5.48    1.74
 -10   0   5    2.84    1.45
 -10   0   5   -1.54    3.64
   9   0  -5   15.60    2.40
   9   0  -5   17.33    2.50
   9   0  -5    9.40    2.38
  -9   0   5   14.72    2.09
  -9   0   5   15.43    3.26
   8   0  -5   -1.06    1.17
   8   0  -5   -0.30    1.45
   8   0  -5    0.85    0.99
  -8   0   5    3.75    1.98
  -8   0   5    1.16    0.83
   7   0  -5    0.66    1.14
   7   0  -5    0.05    0.39
   7   0  -5   -0.55    0.74
   7   0  -5   -0.37    1.05
  -7   0   5    0.05    0.64
  -7   0   5    1.03    1.66
   6   0  -5   -0.16    0.87
   6   0  -5    0.66    0.44
   6   0  -5    0.71    0.70
   6   0  -5    0.75    0.99
   6   0  -5   -0.18    0.32
  -6   0   5    0.70    0.64
  -6   0   5    2.38    1.42
   5   0  -5    4.03    0.80
   5   0  -5    4.58    1.02
   5   0  -5    3.49    0.56
   5   0  -5    3.49    1.08
  -5   0   5    2.73    0.74
  -5   0   5    4.71    2.02
   4   0  -5    3.84    0.72
   4   0  -5    2.61    0.55
   4   0  -5    2.36    1.01
  -4   0   5    3.96    1.35
   3   0  -5    1.69    0.53
   3   0  -5    2.54    0.57
   3   0  -5    1.39    0.90
  -3   0   5    1.66    0.97
  -3   0   5    1.98    0.48
   2   0  -5   21.03    2.06
   2   0  -5   20.18    1.59
   2   0  -5   22.98    1.56
  -2   0   5   22.51    1.48
  -2   0   5   22.58    2.17
   1   0  -5   21.77    1.97
   1   0  -5   21.03    1.66
  -1   0   5   22.77    1.98
  -1   0   5   20.75    1.44
   0   0  -5    2.13    0.70
   0   0  -5    1.78    0.39
   0   0  -5    1.38    0.55
   0   0  -5    2.28    0.58
   0   0   5    2.60    0.78
   0   0   5    1.47    0.39
   0   0   5    2.59    0.57
  -1   0  -5    6.79    0.76
  -1   0  -5    7.78    1.09
  -1   0  -5    7.48    1.05
  -1   0  -5    6.37    1.11
   1   0   5    7.80    1.07
   1   0   5    6.63    0.83
   1   0   5    6.14    0.78
   1   0   5    7.09    0.70
  -2   0  -5   55.05    3.32
  -2   0  -5   49.12    3.24
  -2   0  -5   58.22    3.31
  -2   0  -5   47.94    3.00
   2   0   5   54.56    3.06
   2   0   5   44.12    3.08
   2   0   5   51.77    2.98
   2   0   5   50.27    3.00
  -3   0  -5   81.14    4.19
  -3   0  -5   76.75    4.20
  -3   0  -5   72.69    4.41
  -3   0  -5   68.47    4.25
   3   0   5   60.55    4.30
   3   0   5   78.67    4.19
  -4   0  -5   21.44    1.70
  -4   0  -5   21.79    1.42
  -4   0  -5   22.79    1.77
  -4   0  -5   24.10    1.76
  -4   0  -5   24.06    2.04
   4   0   5   19.67    1.90
   4   0   5   21.23    1.74
  -5   0  -5    5.99    0.92
  -5   0  -5    6.37    1.04
  -5   0  -5    7.58    1.13
  -5   0  -5    6.69    1.02
  -5   0  -5    6.29    1.24
   5   0   5    5.51    1.24
   5   0   5    5.11    0.92
  -6   0  -5   18.59    2.15
  -6   0  -5   20.82    1.82
  -6   0  -5   19.91    1.60
  -6   0  -5   16.32    2.07
  -6   0  -5   17.53    1.80
  -6   0  -5   22.84    1.91
  -6   0  -5   15.90    1.82
   6   0   5   18.12    1.87
   6   0   5   22.15    2.31
  -7   0  -5   -1.39    1.10
  -7   0  -5    1.48    0.94
  -7   0  -5    1.06    0.94
  -7   0  -5    1.57    0.62
  -7   0  -5    1.24    0.97
  -7   0  -5    1.68    0.92
  -7   0  -5    2.18    0.85
   7   0   5    1.48    1.27
  -8   0  -5   -0.47    1.22
  -8   0  -5    0.78    1.05
  -8   0  -5    0.08    1.28
  -8   0  -5   -1.33    1.21
   8   0   5   -0.08    1.53
  -9   0  -5    2.95    1.48
  -9   0  -5    5.99    1.99
  -9   0  -5    8.35    1.77
  -9   0  -5    2.87    1.94
  -9   0  -5    0.85    1.46
  -9   0  -5    3.26    1.75
   9   0   5    4.27    2.11
 -10   0  -5   -2.08    1.62
 -10   0  -5    3.05    2.39
 -10   0  -5    1.37    2.27
 -10   0  -5    5.05    2.10
  10   0   5    4.55    2.03
 -11   0  -5    2.02    2.70
 -11   0  -5    2.20    2.15
 -11   0  -5   -1.48    3.40
  11   0   5    1.41    2.40
  11  -1  -5    0.32    2.73
 -11   1   5   -0.89    1.80
  10  -1  -5   -3.46    2.17
  10  -1  -5    1.63    1.79
 -10   1   5   -2.19    1.38
   9  -1  -5    1.65    2.10
   9  -1  -5   -1.27    1.14
  -9   1   5   -0.41    1.07
  -9   1   5    3.34    2.44
   8  -1  -5   -2.30    1.51
   8  -1  -5    0.40    0.98
   8  -1  -5   -0.24    0.55
   8  -1  -5    2.24    1.03
  -8   1   5    0.65    0.87
  -8   1   5    3.22    2.17
   7  -1  -5   24.01    2.70
   7  -1  -5   30.84    2.70
   7  -1  -5   29.92    1.93
   7  -1  -5   28.50    2.32
  -7   1   5   34.23    3.54
  -7   1   5   27.01    2.26
   6  -1  -5   18.66    2.09
   6  -1  -5   17.43    2.11
   6  -1  -5   19.34    1.48
  -6   1   5   19.11    1.73
  -6   1   5   21.37    2.82
   5  -1  -5   20.57    1.21
   5  -1  -5   20.10    1.57
   5  -1  -5   19.81    2.02
   5  -1  -5   16.80    1.86
  -5   1   5   18.34    1.55
   4  -1  -5   45.99    3.31
   4  -1  -5   54.85    3.13
   4  -1  -5   41.66    2.61
   4  -1  -5   44.04    2.76
  -4   1   5   46.66    3.60
   3  -1  -5   -0.32    0.50
   3  -1  -5    0.06    0.63
   3  -1  -5    0.06    0.33
   3  -1  -5    0.74    0.40
  -3   1   5    0.27    0.26
  -3   1   5    0.16    0.77
   2  -1  -5    3.01    0.56
   2  -1  -5    1.90    0.44
   2  -1  -5    2.55    0.53
   2  -1  -5    1.84    0.76
  -2   1   5    3.13    0.92
  -2   1   5    2.82    0.48
   1  -1  -5  154.22    8.48
   1  -1  -5  154.15    8.14
  -1   1   5  158.59    8.55
  -1   1   5  151.64    7.92
   0  -1  -5    1.94    0.33
   0  -1  -5    1.17    0.58
   0  -1  -5    1.22    0.52
   0  -1  -5    0.70    0.33
   0   1   5    1.45    0.36
   0   1   5    0.72    0.59
  -1  -1  -5    4.09    0.60
  -1  -1  -5    2.89    0.71
  -1  -1  -5    2.84    0.66
  -1  -1  -5    3.46    0.53
   1   1   5    2.73    0.46
   1   1   5    2.73    0.51
   1   1   5    2.44    0.65
   1   1   5    2.86    0.54
  -2  -1  -5   15.65    1.49
  -2  -1  -5   16.42    1.22
  -2  -1  -5   15.48    1.43
  -2  -1  -5   14.69    1.45
   2   1   5   13.80    1.20
   2   1   5   17.45    1.27
   2   1   5   15.34    1.38
   2   1   5   15.80    1.41
  -3  -1  -5  115.61    6.43
  -3  -1  -5  103.44    6.26
  -3  -1  -5  104.68    6.15
  -3  -1  -5  121.81    6.21
  -3  -1  -5  110.00    6.38
   3   1   5  127.91    6.36
   3   1   5  116.27    6.20
   3   1   5  111.61    6.00
   3   1   5  126.76    6.40
   3   1   5  112.75    6.01
  -4  -1  -5    4.14    0.78
  -4  -1  -5    3.94    0.71
  -4  -1  -5    4.07    0.95
  -4  -1  -5    2.67    0.66
   4   1   5    2.86    0.85
   4   1   5    3.40    0.72
  -5  -1  -5   -0.23    0.53
  -5  -1  -5   -0.30    0.65
  -5  -1  -5    0.16    0.52
   5   1   5   -1.11    0.73
   5   1   5    0.22    0.54
  -6  -1  -5    0.20    0.58
  -6  -1  -5   -0.49    0.74
  -6  -1  -5   -0.07    0.60
  -6  -1  -5    0.25    0.53
  -6  -1  -5   -0.94    0.56
  -6  -1  -5   -0.78    0.68
   6   1   5    0.36    0.65
   6   1   5   -0.30    0.80
  -7  -1  -5   29.49    2.72
  -7  -1  -5   28.54    2.46
  -7  -1  -5   29.12    2.36
  -7  -1  -5   28.38    2.46
  -7  -1  -5   31.62    2.46
  -7  -1  -5   29.95    2.28
   7   1   5   21.85    2.62
  -8  -1  -5   50.31    3.50
  -8  -1  -5   47.64    3.82
  -8  -1  -5   46.66    3.75
  -8  -1  -5   53.76    3.70
  -8  -1  -5   49.68    3.59
  -8  -1  -5   47.18    3.59
   8   1   5   56.82    4.50
  -9  -1  -5   17.75    2.55
  -9  -1  -5   23.23    2.76
  -9  -1  -5   23.72    2.94
  -9  -1  -5   25.13    3.19
  -9  -1  -5   22.31    2.65
  -9  -1  -5   18.39    2.72
   9   1   5   19.29    3.26
 -10  -1  -5    6.97    1.89
 -10  -1  -5    7.30    2.16
 -10  -1  -5   10.75    2.09
 -10  -1  -5   10.49    2.46
  10   1   5   10.77    2.87
 -11  -1  -5    5.08    2.44
 -11  -1  -5    9.51    3.37
 -11  -1  -5    3.90    2.47
 -11  -1  -5    1.67    2.09
  11   1   5    4.17    2.72
  10  -2  -5    7.72    2.76
  10  -2  -5    5.18    1.92
 -10   2   5    4.86    1.77
 -10   2   5    6.82    1.77
 -10   2   5   -4.37    3.73
   9  -2  -5   11.47    1.54
   9  -2  -5   11.72    1.77
   9  -2  -5   10.90    2.76
  -9   2   5    3.03    2.74
  -9   2   5   11.29    2.68
  -9   2   5    9.28    1.34
   8  -2  -5    9.59    1.40
   8  -2  -5    8.69    2.38
   8  -2  -5   14.03    1.82
  -8   2   5    7.96    1.40
  -8   2   5   11.49    2.60
   7  -2  -5    4.58    1.59
   7  -2  -5    5.66    1.10
   7  -2  -5    6.21    0.91
  -7   2   5    3.56    1.84
  -7   2   5    5.74    1.05
   6  -2  -5    5.90    1.29
   6  -2  -5    9.18    1.23
   6  -2  -5    7.91    1.08
   6  -2  -5    8.44    1.32
  -6   2   5    8.95    1.19
  -6   2   5    8.28    1.93
   5  -2  -5   -0.38    0.77
   5  -2  -5   -0.04    0.47
   5  -2  -5    0.47    0.75
   5  -2  -5    0.23    0.47
   4  -2  -5    3.68    1.00
   4  -2  -5    6.61    1.12
   4  -2  -5    5.74    0.64
   4  -2  -5    4.88    0.73
  -4   2   5    6.22    1.44
  -4   2   5    5.26    0.53
   3  -2  -5    1.80    0.43
   3  -2  -5    1.80    0.46
   3  -2  -5    1.87    0.65
   3  -2  -5    2.09    0.78
  -3   2   5    1.19    0.78
  -3   2   5    1.88    0.31
   2  -2  -5    4.02    0.90
   2  -2  -5    2.63    0.52
   2  -2  -5    2.62    0.56
   2  -2  -5    2.16    0.52
  -2   2   5    2.13    0.75
  -2   2   5    2.37    0.45
  -2   2   5    2.43    0.38
   1  -2  -5   56.29    3.34
   1  -2  -5   62.17    3.70
   1  -2  -5   58.76    3.00
   1  -2  -5   56.52    3.08
  -1   2   5   57.99    3.31
  -1   2   5   56.32    3.08
  -1   2   5   58.68    3.75
   0  -2  -5   28.50    1.70
   0  -2  -5   28.36    2.00
   0   2   5   29.17    1.72
   0   2   5   28.91    1.95
   0   2   5   28.12    2.24
  -1  -2  -5   53.08    2.84
  -1  -2  -5   50.07    3.10
  -1  -2  -5   50.37    3.22
   1   2   5   49.36    3.04
   1   2   5   49.88    2.84
   1   2   5   49.81    3.21
  -2  -2  -5   83.78    4.89
  -2  -2  -5   91.81    4.67
  -2  -2  -5   84.57    4.91
   2   2   5   88.98    4.87
   2   2   5   86.46    4.69
   2   2   5   85.72    4.90
   2   2   5   80.05    4.56
  -3  -2  -5   21.39    1.80
  -3  -2  -5   20.17    1.48
  -3  -2  -5   18.77    1.70
   3   2   5   21.13    1.54
   3   2   5   22.25    1.64
   3   2   5   20.24    1.67
   3   2   5   22.74    1.62
  -4  -2  -5   10.66    1.06
  -4  -2  -5    9.40    1.34
  -4  -2  -5    7.52    1.11
  -4  -2  -5   10.42    0.98
   4   2   5    8.33    0.91
   4   2   5    7.98    1.19
   4   2   5    9.67    0.92
   4   2   5    9.25    1.04
   4   2   5    8.78    1.18
  -5  -2  -5    6.36    1.03
  -5  -2  -5    6.10    0.96
  -5  -2  -5    6.45    0.75
  -5  -2  -5    7.77    1.27
  -5  -2  -5    5.12    0.86
   5   2   5    5.46    1.14
   5   2   5    5.34    1.01
   5   2   5    7.71    1.10
  -6  -2  -5    0.62    0.86
  -6  -2  -5    1.01    0.71
  -6  -2  -5    0.72    0.51
  -6  -2  -5    0.58    0.59
  -6  -2  -5    1.71    0.67
   6   2   5   -0.05    0.64
   6   2   5    0.95    0.81
   6   2   5    0.17    0.70
  -7  -2  -5    8.80    1.28
  -7  -2  -5    6.47    1.15
  -7  -2  -5    5.69    1.38
  -7  -2  -5    6.24    1.14
  -7  -2  -5    8.51    1.33
   7   2   5    8.69    1.70
   7   2   5    7.76    1.39
   7   2   5    4.84    1.15
  -8  -2  -5   18.05    2.39
  -8  -2  -5   21.90    2.04
  -8  -2  -5   18.38    2.09
  -8  -2  -5   16.65    1.92
  -8  -2  -5   16.83    2.25
  -8  -2  -5   16.21    2.01
   8   2   5   18.63    2.70
  -9  -2  -5   20.83    2.80
  -9  -2  -5   24.01    2.41
  -9  -2  -5   20.46    2.44
  -9  -2  -5   23.12    2.70
  -9  -2  -5   20.06    3.01
  -9  -2  -5   22.68    2.48
   9   2   5   17.25    3.00
 -10  -2  -5    0.02    1.53
 -10  -2  -5   -0.85    1.39
 -10  -2  -5   -1.41    1.59
  10   2   5    1.16    1.78
 -11  -2  -5   16.25    2.59
 -11  -2  -5   31.95    4.97
 -11  -2  -5   18.42    2.66
 -11  -2  -5   26.01    3.86
  11   2   5   27.15    3.95
  10  -3  -5    4.51    2.88
  10  -3  -5   -8.15    3.20
   9  -3  -5    6.79    1.53
   9  -3  -5    2.76    1.25
   9  -3  -5    2.88    2.35
  -9   3   5    3.07    2.88
  -9   3   5    5.11    1.39
  -9   3   5    3.61    0.82
   8  -3  -5    2.48    1.97
   8  -3  -5    4.07    1.08
   8  -3  -5    5.39    1.17
  -8   3   5    4.49    0.71
  -8   3   5    3.28    2.35
  -8   3   5    4.77    1.06
   7  -3  -5    1.52    0.79
   7  -3  -5    2.10    1.56
  -7   3   5    1.60    0.43
  -7   3   5    2.06    1.78
   6  -3  -5    0.30    1.10
   6  -3  -5   -0.26    0.58
   6  -3  -5    0.67    0.63
  -6   3   5    1.56    1.28
   5  -3  -5   13.25    1.24
   5  -3  -5   16.16    1.86
   5  -3  -5   12.96    1.38
  -5   3   5   11.01    2.21
  -5   3   5   13.18    0.78
   4  -3  -5    3.58    0.59
   4  -3  -5    3.64    1.04
   4  -3  -5    2.74    0.75
  -4   3   5    2.80    1.12
   3  -3  -5   55.55    3.50
   3  -3  -5   56.67    3.22
   3  -3  -5   57.89    3.20
   3  -3  -5   61.56    3.66
  -3   3   5   57.25    3.18
  -3   3   5   57.07    3.94
   2  -3  -5    7.17    1.12
   2  -3  -5    7.04    0.86
   2  -3  -5    6.21    0.83
   2  -3  -5    6.01    0.70
  -2   3   5    4.53    1.07
  -2   3   5    6.25    0.78
   1  -3  -5   17.96    1.40
   1  -3  -5   18.34    1.64
   1  -3  -5   18.25    1.06
  -1   3   5   19.77    1.78
  -1   3   5   19.05    1.40
   0  -3  -5   61.76    3.83
   0  -3  -5   66.38    3.69
   0  -3  -5   63.64    3.34
   0   3   5   58.32    3.88
   0   3   5   64.82    3.64
   0   3   5   63.79    3.78
  -1  -3  -5   22.04    1.68
  -1  -3  -5   19.05    1.69
  -1  -3  -5   20.68    1.32
   1   3   5   20.33    1.57
   1   3   5   22.44    1.78
   1   3   5   20.10    1.53
   1   3   5   21.30    1.14
  -2  -3  -5   48.13    3.05
  -2  -3  -5   51.31    3.07
  -2  -3  -5   52.07    2.73
   2   3   5   50.27    2.98
   2   3   5   45.88    2.77
   2   3   5   46.58    3.06
   2   3   5   44.70    2.70
   2   3   5   42.10    2.61
  -3  -3  -5   32.76    1.87
  -3  -3  -5   32.36    2.34
  -3  -3  -5   29.96    1.97
  -3  -3  -5   30.04    2.19
   3   3   5   30.81    1.87
   3   3   5   31.58    2.06
   3   3   5   28.15    2.01
   3   3   5   32.77    2.23
   3   3   5   37.72    2.31
  -4  -3  -5   13.45    1.20
  -4  -3  -5   14.37    1.49
  -4  -3  -5   12.62    1.00
   4   3   5   12.63    1.29
   4   3   5   13.60    1.37
   4   3   5   12.40    1.40
   4   3   5   12.05    1.30
   4   3   5   12.77    1.22
  -5  -3  -5    0.68    0.60
  -5  -3  -5    1.44    0.59
  -5  -3  -5    0.99    0.53
  -5  -3  -5    1.39    0.79
   5   3   5    0.93    0.53
   5   3   5    1.90    0.67
   5   3   5    1.85    0.79
   5   3   5    1.40    0.53
   5   3   5    1.88    0.55
  -6  -3  -5   23.27    2.24
  -6  -3  -5   26.33    1.99
  -6  -3  -5   21.89    1.92
  -6  -3  -5   24.15    1.89
   6   3   5   27.11    2.15
   6   3   5   25.65    2.29
   6   3   5   24.27    2.01
  -7  -3  -5   12.45    1.65
  -7  -3  -5   13.71    1.98
  -7  -3  -5   12.48    1.60
  -7  -3  -5   14.09    1.66
   7   3   5   12.37    1.68
   7   3   5   15.38    1.82
   7   3   5   13.53    1.91
  -8  -3  -5   23.47    2.58
  -8  -3  -5   25.47    2.23
  -8  -3  -5   27.67    2.52
  -8  -3  -5   22.78    2.26
  -8  -3  -5   22.72    2.31
   8   3   5   20.41    3.13
   8   3   5   23.32    2.35
  -9  -3  -5    2.74    1.05
  -9  -3  -5    1.72    1.25
  -9  -3  -5    4.22    1.49
  -9  -3  -5    2.66    1.50
  -9  -3  -5    1.99    1.14
  -9  -3  -5    3.02    1.51
   9   3   5    0.26    1.63
   9   3   5    1.64    1.26
 -10  -3  -5    1.40    1.66
 -10  -3  -5   -0.84    1.42
 -10  -3  -5   -1.88    1.16
 -10  -3  -5   -2.41    1.56
  10   3   5    2.08    1.81
 -11  -3  -5   -3.44    1.63
 -11  -3  -5    2.68    2.39
 -11  -3  -5    1.68    1.67
 -11  -3  -5   -3.67    2.60
  11   3   5    1.33    2.16
 -12  -3  -5    3.15    2.25
 -12  -3  -5   -2.48    2.54
  12   3   5    1.50    2.66
  10  -4  -5    8.91    3.09
 -10   4   5   16.45    5.49
   9  -4  -5    4.85    2.83
   9  -4  -5    2.15    1.46
   9  -4  -5    3.39    1.56
  -9   4   5    3.48    3.95
  -9   4   5    4.40    3.19
   8  -4  -5    4.24    2.18
   8  -4  -5    7.53    1.24
   8  -4  -5    4.08    1.33
  -8   4   5    7.01    2.60
   7  -4  -5    0.66    0.81
   7  -4  -5    1.45    1.59
   7  -4  -5    0.25    0.91
  -7   4   5   -2.09    1.67
   6  -4  -5   15.32    2.28
   6  -4  -5   19.01    1.59
   6  -4  -5   17.25    1.78
  -6   4   5   17.58    2.52
   5  -4  -5    1.76    1.11
   5  -4  -5    0.04    0.46
   5  -4  -5    1.64    0.76
  -5   4   5    1.24    1.26
   4  -4  -5   70.35    4.87
   4  -4  -5   85.63    4.39
   4  -4  -5   80.99    4.70
  -4   4   5   83.87    5.24
  -4   4   5   80.98    4.26
   3  -4  -5    1.40    0.47
   3  -4  -5    2.51    0.47
   3  -4  -5    2.72    0.76
  -3   4   5    1.82    1.18
  -3   4   5    2.36    0.50
  -3   4   5    1.15    0.90
   2  -4  -5    7.91    1.02
   2  -4  -5    7.26    0.93
   2  -4  -5    8.30    0.75
  -2   4   5    7.40    1.26
  -2   4   5    7.84    1.45
  -2   4   5    8.90    0.92
  -2   4   5    8.51    1.38
   1  -4  -5   22.49    1.79
  -1   4   5   26.55    2.16
  -1   4   5   25.95    2.25
  -1   4   5   26.74    1.82
  -1   4   5   27.94    1.81
   0  -4  -5    2.00    0.31
   0  -4  -5    1.30    0.57
   0   4   5    1.47    0.66
   0   4   5    1.70    0.75
   0   4   5    2.79    0.55
   0   4   5    2.58    0.65
  -1  -4  -5   44.00    2.73
   1   4   5   40.80    2.68
   1   4   5   42.29    2.90
   1   4   5   42.21    2.76
  -2  -4  -5    9.15    1.19
  -2  -4  -5    8.36    1.07
   2   4   5    8.22    1.08
   2   4   5    8.41    0.87
   2   4   5    9.98    1.26
   2   4   5    8.86    1.07
  -3  -4  -5   37.77    2.53
  -3  -4  -5   36.14    2.26
   3   4   5   32.44    2.38
   3   4   5   29.14    2.38
   3   4   5   36.74    2.21
   3   4   5   34.99    2.28
  -4  -4  -5    3.44    0.92
  -4  -4  -5    2.94    0.63
  -4  -4  -5    3.57    0.65
  -4  -4  -5    2.35    0.60
   4   4   5    2.05    0.70
   4   4   5    2.86    0.83
   4   4   5    2.06    0.70
   4   4   5    3.76    0.79
   4   4   5    2.32    0.60
  -5  -4  -5   11.40    1.17
  -5  -4  -5    9.67    1.23
  -5  -4  -5   10.65    1.48
  -5  -4  -5   10.08    1.21
   5   4   5   10.12    1.22
   5   4   5   11.18    1.35
   5   4   5    9.65    1.39
   5   4   5   11.55    1.33
   5   4   5   10.50    1.46
  -6  -4  -5    9.98    1.38
  -6  -4  -5   11.08    1.56
  -6  -4  -5    8.41    1.14
  -6  -4  -5   11.17    1.35
   6   4   5    8.18    1.52
   6   4   5   10.25    1.43
   6   4   5   10.25    1.37
   6   4   5    8.63    1.20
   6   4   5    8.12    1.27
  -7  -4  -5   20.58    1.81
  -7  -4  -5   18.09    1.87
  -7  -4  -5   19.31    2.08
  -7  -4  -5   19.25    2.01
   7   4   5   17.48    1.81
   7   4   5   18.44    1.28
   7   4   5   19.07    1.32
   7   4   5   19.32    2.03
   7   4   5   13.03    1.97
  -8  -4  -5    8.51    1.64
  -8  -4  -5   11.43    1.91
  -8  -4  -5    9.23    1.42
  -8  -4  -5    8.89    1.48
   8   4   5   10.37    1.66
   8   4   5    7.29    2.05
  -9  -4  -5    2.64    1.32
  -9  -4  -5   -0.78    0.99
  -9  -4  -5    0.43    1.35
  -9  -4  -5   -0.38    1.01
   9   4   5   -2.08    1.26
   9   4   5   -0.35    1.47
 -10  -4  -5    4.77    2.04
 -10  -4  -5    2.18    1.42
 -10  -4  -5    2.23    1.68
 -10  -4  -5    2.49    1.14
 -10  -4  -5    2.32    1.28
  10   4   5    2.14    1.47
  10   4   5    4.48    2.05
 -11  -4  -5    6.33    2.57
 -11  -4  -5    2.88    1.82
 -11  -4  -5    2.73    1.52
 -11  -4  -5    4.95    2.18
  11   4   5    1.65    2.24
 -12  -4  -5    4.16    2.45
 -12  -4  -5    3.96    2.42
  12   4   5    2.22    2.57
   9  -5  -5    3.66    2.59
   9  -5  -5   -1.70    1.69
  -9   5   5   -2.04    4.47
  -9   5   5    5.14    3.74
   8  -5  -5   11.97    2.85
   8  -5  -5   14.55    2.11
   8  -5  -5    9.65    1.91
  -8   5   5   13.52    3.08
  -8   5   5   15.77    4.18
   7  -5  -5    3.92    1.92
   7  -5  -5    3.64    1.30
   7  -5  -5    2.76    0.95
  -7   5   5    0.15    2.41
  -7   5   5    2.04    2.18
   6  -5  -5   -0.15    0.89
   6  -5  -5    2.86    1.54
   6  -5  -5    0.63    0.62
  -6   5   5    3.50    2.32
  -6   5   5   -0.04    1.62
   5  -5  -5    0.65    0.82
   5  -5  -5    0.89    0.52
   5  -5  -5    1.62    1.15
  -5   5   5   -0.29    1.22
  -5   5   5    1.91    1.56
   4  -5  -5   10.56    1.44
   4  -5  -5   10.17    1.73
   4  -5  -5   11.63    0.97
  -4   5   5   11.27    1.07
  -4   5   5    8.40    2.12
  -4   5   5   14.19    2.16
   3  -5  -5   12.87    1.49
   3  -5  -5   14.03    1.65
   3  -5  -5   12.29    0.98
  -3   5   5   13.99    1.88
  -3   5   5   12.80    2.12
  -3   5   5   12.99    1.20
   2  -5  -5    0.56    0.30
  -2   5   5    0.14    0.42
  -2   5   5    2.00    1.04
  -2   5   5   -0.29    0.77
   1  -5  -5    0.21    0.50
  -1   5   5   -0.85    0.89
  -1   5   5    0.14    0.75
  -1   5   5    0.60    0.72
  -1   5   5   -0.40    0.47
   0  -5  -5   16.65    1.56
   0   5   5   21.12    1.61
   0   5   5   17.59    1.57
   0   5   5   19.07    1.87
   0   5   5   19.49    1.95
  -1  -5  -5    2.13    0.84
  -1  -5  -5    1.73    0.64
   1   5   5    0.82    0.64
   1   5   5    0.68    0.55
   1   5   5    0.98    0.70
  -2  -5  -5   27.52    2.13
  -2  -5  -5   30.82    2.29
   2   5   5   27.11    1.82
   2   5   5   28.91    2.23
   2   5   5   28.83    2.27
   2   5   5   27.80    2.10
  -3  -5  -5   42.84    2.59
  -3  -5  -5   39.38    2.80
  -3  -5  -5   41.45    2.82
   3   5   5   43.28    2.86
   3   5   5   42.25    2.91
   3   5   5   45.14    2.89
   3   5   5   41.51    2.56
  -4  -5  -5    3.63    0.82
  -4  -5  -5    3.18    0.87
  -4  -5  -5    2.30    0.60
   4   5   5    2.47    0.78
   4   5   5    2.69    0.69
   4   5   5    2.32    0.77
   4   5   5    4.71    1.09
   4   5   5    3.86    0.69
  -5  -5  -5    3.41    0.99
  -5  -5  -5    2.77    0.73
  -5  -5  -5    2.90    0.67
  -5  -5  -5    3.07    0.77
   5   5   5    2.15    0.61
   5   5   5    4.08    1.00
   5   5   5    3.08    0.91
   5   5   5    1.77    0.77
  -6  -5  -5   43.99    2.96
  -6  -5  -5   43.48    3.18
  -6  -5  -5   47.08    3.15
  -6  -5  -5   41.10    3.11
   6   5   5   44.73    2.93
   6   5   5   46.21    3.23
   6   5   5   43.30    3.55
   6   5   5   44.65    3.06
  -7  -5  -5   26.69    2.20
  -7  -5  -5   24.79    2.49
  -7  -5  -5   28.67    2.31
  -7  -5  -5   30.87    2.57
   7   5   5   26.24    2.21
   7   5   5   30.47    2.28
   7   5   5   26.10    2.46
   7   5   5   27.81    2.68
   7   5   5   27.68    2.43
  -8  -5  -5   56.44    4.03
  -8  -5  -5   55.45    3.66
  -8  -5  -5   52.33    3.69
  -8  -5  -5   56.16    3.99
   8   5   5   56.67    3.26
   8   5   5   49.39    3.84
   8   5   5   54.11    3.34
  -9  -5  -5    7.79    1.74
  -9  -5  -5   10.01    1.60
  -9  -5  -5    9.31    1.55
  -9  -5  -5    7.81    1.91
   9   5   5    9.26    1.79
   9   5   5    7.73    2.11
 -10  -5  -5    7.41    1.72
 -10  -5  -5    9.33    1.82
 -10  -5  -5    6.98    1.78
 -10  -5  -5    6.22    2.05
  10   5   5    7.76    1.80
  10   5   5    5.85    2.29
 -11  -5  -5    2.50    2.47
 -11  -5  -5    4.68    1.78
 -11  -5  -5    1.92    1.94
 -11  -5  -5    1.41    1.33
  11   5   5    3.65    2.25
  11   5   5    5.22    2.04
 -12  -5  -5    5.69    2.32
 -12  -5  -5    1.67    2.29
 -12  -5  -5    3.94    5.95
  12   5   5   -1.26    3.54
  12   5   5    4.69    2.56
   8  -6  -5    0.75    1.68
   8  -6  -5    1.48    2.44
  -8   6   5    2.30    3.43
  -8   6   5   -1.89    4.29
   7  -6  -5   -0.49    1.32
   7  -6  -5   -0.88    1.77
  -7   6   5   -0.91    2.26
  -7   6   5   -1.90    2.76
   6  -6  -5    1.57    1.98
   6  -6  -5    5.40    1.52
   6  -6  -5    5.97    0.80
  -6   6   5    0.43    2.59
  -6   6   5    4.81    1.93
   5  -6  -5    3.32    1.45
   5  -6  -5    3.87    1.21
   5  -6  -5    2.20    0.52
  -5   6   5    3.50    0.62
  -5   6   5    4.87    1.77
  -5   6   5    1.82    2.25
   4  -6  -5   39.53    3.37
   4  -6  -5   44.80    2.35
   4  -6  -5   42.69    3.06
  -4   6   5   41.09    3.56
  -4   6   5   40.30    4.26
  -4   6   5   41.30    2.61
   3  -6  -5    5.94    1.36
   3  -6  -5    5.08    1.09
   3  -6  -5    5.71    0.59
  -3   6   5    7.22    1.55
  -3   6   5    4.31    0.87
  -3   6   5    6.48    1.88
   2  -6  -5    4.22    1.02
   2  -6  -5    5.83    0.58
  -2   6   5    7.54    1.11
  -2   6   5    8.84    1.81
  -2   6   5    5.36    1.60
   1  -6  -5   13.23    0.96
  -1   6   5   16.02    1.87
  -1   6   5   14.58    1.41
  -1   6   5   14.34    1.99
   0  -6  -5    2.30    0.81
   0   6   5    2.37    0.73
   0   6   5    2.87    1.23
   0   6   5    2.84    0.83
  -1  -6  -5    2.46    0.87
  -1  -6  -5    1.96    0.79
   1   6   5    2.65    0.70
   1   6   5    3.33    0.87
   1   6   5    3.22    1.19
   1   6   5    3.07    1.01
  -2  -6  -5   -0.74    0.62
  -2  -6  -5    0.15    0.35
  -2  -6  -5    0.24    0.55
   2   6   5    0.12    0.31
   2   6   5   -0.40    0.59
   2   6   5    0.19    0.70
   2   6   5   -0.48    0.49
  -3  -6  -5    4.10    0.95
  -3  -6  -5    3.32    0.96
  -3  -6  -5    3.39    0.63
   3   6   5    4.34    0.95
   3   6   5    5.22    1.10
   3   6   5    4.81    1.03
   3   6   5    4.39    0.71
  -4  -6  -5    2.43    0.91
  -4  -6  -5    3.97    1.01
  -4  -6  -5    2.43    0.66
   4   6   5    2.06    0.56
   4   6   5    2.26    0.83
   4   6   5    1.66    0.85
   4   6   5    1.44    1.09
   4   6   5    3.47    0.93
  -5  -6  -5   32.70    2.35
  -5  -6  -5   33.58    2.29
  -5  -6  -5   30.08    2.67
  -5  -6  -5   37.17    2.76
   5   6   5   34.06    3.59
   5   6   5   35.48    2.80
   5   6   5   34.27    3.01
   5   6   5   35.56    2.66
   5   6   5   33.66    2.31
  -6  -6  -5   15.18    1.66
  -6  -6  -5   16.19    1.94
  -6  -6  -5   16.15    1.80
  -6  -6  -5   19.06    2.12
   6   6   5   20.41    1.91
   6   6   5   17.76    2.18
   6   6   5   15.45    1.92
   6   6   5   15.59    1.56
  -7  -6  -5    1.11    1.09
  -7  -6  -5    0.81    0.67
  -7  -6  -5    0.23    0.98
  -7  -6  -5    0.78    0.68
   7   6   5    0.81    0.91
   7   6   5    1.16    1.11
   7   6   5   -0.66    0.66
   7   6   5    2.15    1.12
  -8  -6  -5   14.02    2.19
  -8  -6  -5   13.38    1.94
  -8  -6  -5    8.72    1.41
   8   6   5   13.35    2.07
   8   6   5   11.85    1.80
   8   6   5    9.34    1.69
  -9  -6  -5    2.20    2.06
  -9  -6  -5    2.95    1.17
  -9  -6  -5    4.36    1.32
  -9  -6  -5    3.66    1.60
   9   6   5    5.00    1.51
   9   6   5    5.44    1.18
   9   6   5    4.03    1.23
   9   6   5    2.96    1.88
 -10  -6  -5    2.32    1.44
 -10  -6  -5    5.62    1.84
 -10  -6  -5    1.31    2.06
 -10  -6  -5    0.07    1.24
  10   6   5    0.37    1.70
  10   6   5    3.75    2.22
 -11  -6  -5    1.37    1.61
 -11  -6  -5    0.57    1.52
 -11  -6  -5    1.04    2.64
 -11  -6  -5    2.48    1.95
  11   6   5    0.63    1.89
  11   6   5    2.22    1.95
 -12  -6  -5    1.00    2.39
 -12  -6  -5    0.20    1.94
 -12  -6  -5    0.61    3.63
  12   6   5    3.87    2.48
  12   6   5   -0.91    2.33
   8  -7  -5   17.95    3.96
   8  -7  -5   19.55    2.88
  -8   7   5   21.74    7.58
  -8   7   5   15.72    5.21
   7  -7  -5    1.02    2.39
   7  -7  -5   -1.18    1.56
  -7   7   5    0.69    3.01
  -7   7   5   -2.28    3.55
   6  -7  -5   20.69    3.39
   6  -7  -5   20.33    2.83
  -6   7   5   19.76    3.84
  -6   7   5   17.00    2.97
   5  -7  -5   14.00    2.15
   5  -7  -5   15.28    2.87
  -5   7   5   17.59    3.44
  -5   7   5   18.67    3.11
  -5   7   5   16.10    1.64
   4  -7  -5    5.48    1.28
  -4   7   5    6.10    1.67
  -4   7   5    4.79    0.94
  -4   7   5    2.49    1.98
   3  -7  -5   -0.32    0.77
  -3   7   5   -1.14    0.62
  -3   7   5   -1.01    1.47
  -3   7   5    1.04    1.26
   2  -7  -5   13.22    1.77
  -2   7   5   16.39    1.68
  -2   7   5   14.50    2.06
  -2   7   5   13.73    2.51
   1  -7  -5    0.17    0.27
   1  -7  -5   -0.31    0.71
   1  -7  -5    0.17    0.20
   1  -7  -5    0.08    0.21
  -1   7   5    0.71    0.64
  -1   7   5    0.96    0.93
  -1   7   5   -0.71    1.05
   0  -7  -5   20.15    1.26
   0   7   5   18.23    2.35
   0   7   5   17.25    1.82
   0   7   5   19.36    2.13
  -1  -7  -5   38.11    2.24
  -1  -7  -5   41.12    2.75
  -1  -7  -5   38.60    3.29
   1   7   5   38.66    3.22
   1   7   5   35.57    2.75
  -2  -7  -5   66.05    4.12
  -2  -7  -5   65.46    3.62
  -2  -7  -5   67.45    4.53
   2   7   5   64.66    4.11
   2   7   5   66.07    4.47
   2   7   5   61.34    3.61
  -3  -7  -5   25.45    2.48
  -3  -7  -5   23.36    1.70
  -3  -7  -5   23.15    2.13
   3   7   5   21.52    2.93
   3   7   5   25.03    2.50
   3   7   5   25.82    1.70
   3   7   5   24.79    2.55
  -4  -7  -5    0.82    0.82
  -4  -7  -5    0.21    0.46
  -4  -7  -5    0.01    0.88
   4   7   5    0.59    0.93
   4   7   5    0.10    0.84
   4   7   5    1.50    0.99
   4   7   5   -0.07    0.45
   4   7   5    0.40    0.77
  -5  -7  -5   22.48    2.47
  -5  -7  -5   26.82    2.00
  -5  -7  -5   28.46    2.46
   5   7   5   25.21    2.31
   5   7   5   26.10    1.90
   5   7   5   23.07    2.84
   5   7   5   26.69    2.66
   5   7   5   22.73    2.55
  -6  -7  -5    7.03    1.50
  -6  -7  -5    5.68    1.03
  -6  -7  -5    4.45    1.19
  -6  -7  -5    5.81    0.95
   6   7   5    3.89    0.88
   6   7   5    6.62    1.38
   6   7   5    5.44    1.57
   6   7   5    6.31    1.34
  -7  -7  -5    2.21    0.91
  -7  -7  -5    3.36    1.27
  -7  -7  -5    1.85    0.80
  -7  -7  -5    3.06    1.35
   7   7   5    2.16    1.09
   7   7   5    2.13    0.80
   7   7   5    4.46    1.16
   7   7   5    0.59    1.33
  -8  -7  -5    9.46    1.34
  -8  -7  -5    5.10    1.40
  -8  -7  -5   10.02    2.18
  -8  -7  -5    9.17    1.83
   8   7   5    8.48    1.62
   8   7   5    7.17    1.95
   8   7   5    7.66    1.56
  -9  -7  -5    0.95    1.09
  -9  -7  -5    2.53    1.05
  -9  -7  -5    0.75    1.88
   9   7   5    3.44    1.46
   9   7   5    2.65    1.52
   9   7   5    3.38    1.59
   9   7   5    1.84    1.51
 -10  -7  -5    4.86    1.59
 -10  -7  -5    2.89    2.21
 -10  -7  -5    6.72    1.98
 -10  -7  -5    5.47    1.59
  10   7   5    6.23    2.30
  10   7   5    6.46    1.72
  10   7   5    4.31    1.49
  10   7   5   11.07    2.10
 -11  -7  -5    3.85    1.78
 -11  -7  -5    7.10    3.10
 -11  -7  -5    6.03    2.20
  11   7   5   14.05    2.93
  11   7   5    9.76    2.45
 -12  -7  -5    6.62    4.16
 -12  -7  -5    0.05    1.96
 -12  -7  -5    2.48    2.48
  12   7   5    4.62    2.59
  12   7   5    5.86    2.93
   7  -8  -5    5.38    2.41
  -7   8   5    6.82    4.29
  -7   8   5   -0.42    4.40
   6  -8  -5    1.55    1.87
  -6   8   5    1.43    3.34
  -6   8   5    2.96    2.67
  -6   8   5    0.35    0.98
   5  -8  -5    9.72    2.20
  -5   8   5   10.51    1.40
  -5   8   5    9.00    2.68
  -5   8   5    9.48    3.17
   4  -8  -5   14.79    2.27
  -4   8   5   11.32    2.30
  -4   8   5   14.25    1.97
  -4   8   5   16.10    3.11
   3  -8  -5   11.42    1.85
  -3   8   5    8.02    2.58
  -3   8   5   13.27    2.26
   2  -8  -5    0.02    0.94
  -2   8   5   -1.48    1.15
  -2   8   5    2.41    1.79
  -2   8   5    0.07    0.83
   1  -8  -5    7.67    1.51
   1  -8  -5    7.23    0.69
  -1   8   5    9.39    1.42
  -1   8   5    5.27    1.42
  -1   8   5    7.33    2.08
   0  -8  -5    0.72    0.36
   0  -8  -5    0.65    0.27
   0  -8  -5    1.01    0.84
   0  -8  -5    1.46    1.57
   0   8   5    1.41    1.39
   0   8   5   -0.19    0.91
  -1  -8  -5    9.04    0.89
  -1  -8  -5    9.57    1.57
  -1  -8  -5   10.28    2.10
   1   8   5    8.96    1.48
   1   8   5   13.05    2.12
   1   8   5   10.83    1.82
  -2  -8  -5   13.21    2.23
  -2  -8  -5   13.08    1.10
   2   8   5   10.28    1.87
   2   8   5   10.84    1.04
   2   8   5   11.36    1.63
  -3  -8  -5    8.37    1.03
  -3  -8  -5    9.48    1.50
   3   8   5   11.06    1.03
   3   8   5   10.03    1.96
   3   8   5    9.43    2.02
   3   8   5   11.14    1.68
  -4  -8  -5   26.95    2.45
  -4  -8  -5   20.48    1.72
  -4  -8  -5   22.54    2.69
   4   8   5   25.54    2.95
   4   8   5   23.53    2.34
   4   8   5   23.78    2.79
   4   8   5   21.37    1.67
  -5  -8  -5    1.29    1.34
  -5  -8  -5    0.73    1.14
  -5  -8  -5   -0.42    0.57
   5   8   5   -0.81    0.79
   5   8   5    2.11    1.25
   5   8   5   -1.03    1.22
   5   8   5    0.27    0.50
  -6  -8  -5    5.73    1.50
  -6  -8  -5    6.16    1.85
  -6  -8  -5    6.39    1.11
   6   8   5    6.45    1.02
   6   8   5    5.18    1.40
   6   8   5    7.78    1.89
   6   8   5    7.35    1.85
  -7  -8  -5    5.05    1.00
  -7  -8  -5    2.68    1.32
  -7  -8  -5    2.84    1.04
  -7  -8  -5    5.69    1.69
   7   8   5    1.97    1.20
   7   8   5    2.89    1.34
   7   8   5    2.71    1.61
  -8  -8  -5   44.22    3.24
  -8  -8  -5   34.08    3.81
  -8  -8  -5   46.34    4.24
  -8  -8  -5   44.57    3.15
   8   8   5   46.57    3.77
   8   8   5   48.77    3.75
   8   8   5   39.15    4.34
  -9  -8  -5   17.18    2.31
  -9  -8  -5   15.63    2.83
  -9  -8  -5   19.20    2.29
  -9  -8  -5   16.46    2.47
   9   8   5   23.28    3.49
   9   8   5   20.15    2.91
   9   8   5   17.76    2.56
 -10  -8  -5    7.65    1.86
 -10  -8  -5   10.79    2.02
 -10  -8  -5   12.00    2.99
 -10  -8  -5   11.30    2.30
  10   8   5   10.05    2.40
  10   8   5   12.21    2.39
  10   8   5   10.92    2.65
 -11  -8  -5   -0.31    1.57
 -11  -8  -5    0.56    3.29
  11   8   5   -1.40    2.41
  11   8   5    1.85    2.22
  11   8   5    3.05    1.95
 -12  -8  -5    3.99    4.43
 -12  -8  -5    5.21    2.27
  12   8   5    0.37    2.43
   6  -9  -5    0.92    2.34
  -6   9   5    7.92    4.69
   5  -9  -5    2.57    1.82
  -5   9   5    6.97    2.90
  -5   9   5    2.99    3.56
  -5   9   5    6.36    1.55
   4  -9  -5    6.97    2.00
  -4   9   5    7.65    3.21
  -4   9   5    8.24    2.47
  -4   9   5    6.74    1.86
   3  -9  -5    8.24    1.68
  -3   9   5    5.87    1.96
  -3   9   5    6.71    2.45
  -3   9   5    8.04    1.53
   2  -9  -5    6.82    1.49
  -2   9   5    5.82    1.77
  -2   9   5    8.59    2.48
  -2   9   5    6.55    1.42
   1  -9  -5   33.02    3.01
   1  -9  -5   31.46    2.05
  -1   9   5   37.06    4.32
  -1   9   5   38.76    3.04
  -1   9   5   41.53    3.49
   0  -9  -5   11.06    1.06
   0  -9  -5    8.61    1.62
   0  -9  -5   11.99    2.72
   0   9   5    7.64    1.66
   0   9   5   13.66    1.93
   0   9   5   12.52    2.43
  -1  -9  -5   24.39    1.57
  -1  -9  -5   27.65    2.54
  -1  -9  -5   28.87    3.56
   1   9   5   30.17    2.58
   1   9   5   28.13    1.78
   1   9   5   18.78    3.39
  -2  -9  -5   60.64    4.90
  -2  -9  -5   57.40    4.13
  -2  -9  -5   59.39    3.37
   2   9   5   63.21    4.20
   2   9   5   60.36    4.93
   2   9   5   62.68    3.44
  -3  -9  -5   35.40    2.86
  -3  -9  -5   37.27    3.68
  -3  -9  -5   32.42    2.21
   3   9   5   34.60    2.17
   3   9   5   31.24    2.92
   3   9   5   34.26    3.72
   3   9   5   32.60    3.54
  -4  -9  -5   34.13    3.63
  -4  -9  -5   34.79    2.31
   4   9   5   35.37    2.96
   4   9   5   27.26    3.63
   4   9   5   35.56    3.60
   4   9   5   32.41    2.19
  -5  -9  -5    1.68    0.67
  -5  -9  -5   -1.71    1.28
   5   9   5   -1.32    1.06
   5   9   5    1.42    1.43
   5   9   5    0.13    0.58
   5   9   5    0.11    1.61
  -6  -9  -5    5.18    1.03
  -6  -9  -5    3.22    1.61
   6   9   5    4.77    2.04
   6   9   5    4.02    1.33
   6   9   5    5.58    0.96
   6   9   5    6.65    1.96
  -7  -9  -5    0.29    0.82
  -7  -9  -5   -0.90    1.68
   7   9   5    0.07    1.74
   7   9   5    0.06    1.15
  -8  -9  -5   30.38    3.88
  -8  -9  -5   26.57    2.47
  -8  -9  -5   21.72    2.22
   8   9   5   23.56    3.20
   8   9   5   20.34    3.00
  -9  -9  -5   21.32    2.62
  -9  -9  -5   30.22    4.48
  -9  -9  -5   16.40    2.44
   9   9   5   19.45    2.90
   9   9   5   21.98    3.24
 -10  -9  -5    4.29    1.57
 -10  -9  -5    0.44    2.91
 -10  -9  -5    2.43    1.38
  10   9   5    4.02    2.13
  10   9   5    4.11    2.41
 -11  -9  -5    0.24    3.72
 -11  -9  -5    4.68    2.00
  11   9   5    1.34    2.69
  11   9   5    0.09    1.87
  12   9   5    4.49    2.75
   5 -10  -5    0.86    2.49
  -5  10   5    3.32    4.36
   4 -10  -5    4.01    1.95
  -4  10   5    5.82    3.12
  -4  10   5    1.94    3.72
  -4  10   5    7.41    1.98
   3 -10  -5    0.32    1.70
  -3  10   5    1.33    1.72
  -3  10   5   -1.06    2.29
  -3  10   5   -1.14    2.75
   2 -10  -5    3.09    1.54
  -2  10   5   -1.89    2.43
  -2  10   5    0.66    1.43
  -2  10   5    0.69    1.99
   1 -10  -5    8.69    1.78
   1 -10  -5    9.31    1.11
  -1  10   5    8.46    2.82
  -1  10   5   10.51    1.82
  -1  10   5   10.96    2.23
   0 -10  -5    4.23    1.32
   0 -10  -5    7.09    0.98
   0  10   5    5.92    2.31
   0  10   5    6.23    1.64
  -1 -10  -5   23.24    3.67
  -1 -10  -5   16.88    1.59
  -1 -10  -5   16.80    2.44
   1  10   5   18.75    1.42
   1  10   5   18.84    3.19
   1  10   5   20.95    2.49
  -2 -10  -5    1.48    1.30
  -2 -10  -5    1.59    0.50
  -2 -10  -5    2.31    1.97
   2  10   5    1.77    2.17
   2  10   5    1.59    1.27
   2  10   5    1.25    0.51
  -3 -10  -5    8.10    1.07
  -3 -10  -5    9.18    2.51
  -3 -10  -5    6.99    1.50
   3  10   5    8.83    1.00
   3  10   5    9.36    1.71
   3  10   5    8.31    2.17
   3  10   5    8.83    2.31
  -4 -10  -5   10.66    2.57
  -4 -10  -5   10.59    1.22
  -4 -10  -5    9.71    1.77
   4  10   5    5.27    2.02
   4  10   5    8.55    1.05
   4  10   5    5.01    1.52
   4  10   5    6.62    2.10
  -5 -10  -5   -0.02    0.67
  -5 -10  -5    1.97    1.15
  -5 -10  -5    0.00    1.71
   5  10   5    0.02    0.58
   5  10   5    4.46    1.43
   5  10   5   -0.94    2.03
   5  10   5    0.45    1.81
  -6 -10  -5    0.96    1.77
  -6 -10  -5    1.07    1.10
  -6 -10  -5    0.00    0.81
   6  10   5    4.39    2.16
   6  10   5    3.15    2.19
  -7 -10  -5   -1.51    2.02
  -7 -10  -5    0.98    1.22
  -7 -10  -5   -0.40    1.02
   7  10   5    1.24    1.40
   7  10   5   -1.69    2.12
  -8 -10  -5    5.53    2.48
  -8 -10  -5    1.99    1.14
  -8 -10  -5    5.14    1.53
   8  10   5    6.15    2.86
   8  10   5    0.47    1.78
  -9 -10  -5    1.95    1.47
  -9 -10  -5    1.18    2.77
  -9 -10  -5    1.13    1.27
  -9 -10  -5    3.57    1.36
   9  10   5    3.81    2.93
   9  10   5   -0.83    2.63
   9  10   5    1.14    1.98
 -10 -10  -5    5.68    1.85
 -10 -10  -5   11.25    3.98
 -10 -10  -5    7.05    1.84
 -10 -10  -5    7.94    1.86
  10  10   5    8.59    3.33
  10  10   5   10.46    2.83
 -11 -10  -5   19.25    2.94
 -11 -10  -5   27.84    3.18
  11  10   5   20.56    4.19
   4 -11  -5   11.50    3.08
  -4  11   5   13.01    5.81
   3 -11  -5    3.79    2.11
  -3  11   5    6.51    4.00
  -3  11   5    4.58    2.35
   2 -11  -5   10.08    2.37
  -2  11   5   20.06    4.40
  -2  11   5   10.75    2.37
   1 -11  -5    1.22    1.61
   1 -11  -5    2.27    0.76
  -1  11   5   -0.05    2.67
  -1  11   5    1.79    2.13
  -1  11   5    0.42    1.72
   0 -11  -5    2.66    0.90
   0 -11  -5    3.38    1.77
   0  11   5    4.11    1.81
   0  11   5    3.42    0.65
   0  11   5   -0.03    2.48
  -1 -11  -5    4.36    1.83
  -1 -11  -5   -0.38    2.86
  -1 -11  -5    4.02    1.01
   1  11   5    6.24    2.77
   1  11   5    4.17    2.46
   1  11   5    5.66    1.89
   1  11   5    4.03    0.62
  -2 -11  -5    5.54    1.51
  -2 -11  -5    9.18    2.87
  -2 -11  -5    4.42    0.62
   2  11   5    5.25    0.66
   2  11   5    7.76    1.79
   2  11   5    6.92    2.89
   2  11   5    3.52    2.18
  -3 -11  -5    2.32    2.75
  -3 -11  -5    3.75    1.50
  -3 -11  -5    6.06    0.88
   3  11   5    5.44    2.58
   3  11   5    6.67    1.63
   3  11   5    4.64    2.32
   3  11   5    5.23    0.69
  -4 -11  -5   12.82    2.06
  -4 -11  -5    9.20    1.24
  -4 -11  -5   15.69    3.28
   4  11   5   10.07    3.06
   4  11   5   10.65    2.21
   4  11   5   13.64    3.12
  -5 -11  -5   12.41    2.87
  -5 -11  -5   13.50    1.62
  -5 -11  -5    9.62    1.91
   5  11   5   10.00    2.30
   5  11   5   14.59    2.79
   5  11   5   14.18    3.28
  -6 -11  -5   12.61    1.85
  -6 -11  -5    9.49    3.02
  -6 -11  -5   10.13    2.07
   6  11   5   11.99    3.13
   6  11   5   14.38    3.31
   6  11   5   15.24    2.43
  -7 -11  -5   31.34    2.85
  -7 -11  -5   40.76    4.88
  -7 -11  -5   32.90    4.47
   7  11   5   36.03    5.01
   7  11   5   35.45    4.57
   7  11   5   29.75    4.24
  -8 -11  -5    0.59    2.85
  -8 -11  -5    0.91    1.46
  -8 -11  -5   -0.52    1.19
   8  11   5    0.31    3.09
  -9 -11  -5   -2.70    1.47
  -9 -11  -5   -0.45    1.41
  -9 -11  -5    1.53    3.26
   9  11   5    5.72    3.51
 -10 -11  -5    3.30    1.72
 -10 -11  -5    5.62    1.92
 -10 -11  -5    0.94    1.83
  10  11   5   10.92    3.79
  10  11   5    3.91    3.42
 -11 -11  -5   -1.96    2.12
  11  11   5   11.81    4.55
   2 -12  -5    2.38    2.58
  -2  12   5    7.36    4.46
   1 -12  -5    6.70    2.38
  -1  12   5    6.96    4.60
  -1  12   5   14.14    2.87
   0 -12  -5    2.70    2.06
   0 -12  -5    2.09    1.04
   0  12   5    6.44    3.36
   0  12   5    6.43    3.82
   0  12   5    3.27    2.32
  -1 -12  -5    0.87    1.63
  -1 -12  -5    1.57    1.14
   1  12   5   -3.67    2.74
   1  12   5    1.84    2.20
   1  12   5    0.68    3.08
  -2 -12  -5    3.00    1.71
  -2 -12  -5    6.53    1.35
   2  12   5    9.76    3.25
   2  12   5    7.71    3.11
   2  12   5    8.28    2.37
  -3 -12  -5   -0.67    1.66
  -3 -12  -5    0.69    0.63
   3  12   5    1.11    2.82
   3  12   5   -0.88    3.01
   3  12   5    1.36    2.62
  -4 -12  -5    0.76    0.85
  -4 -12  -5    1.04    1.54
  -4 -12  -5    3.52    3.70
   4  12   5   -0.39    3.02
   4  12   5   -0.40    2.84
  -5 -12  -5    7.22    3.45
  -5 -12  -5    1.73    1.68
  -5 -12  -5    2.39    1.00
   5  12   5    3.86    2.88
   5  12   5    1.29    2.67
  -6 -12  -5    0.94    1.05
  -6 -12  -5    1.27    1.79
   6  12   5    4.53    3.20
   6  12   5    1.46    2.91
  -7 -12  -5   21.55    2.71
  -7 -12  -5   17.79    2.94
   7  12   5   19.28    4.06
   7  12   5   21.59    4.11
  -8 -12  -5   -1.19    1.81
  -8 -12  -5   -0.47    1.37
   8  12   5    5.04    3.73
  -9 -12  -5   12.22    2.33
  -9 -12  -5    9.45    2.09
   9  12   5   16.63    4.79
 -10 -12  -5    0.45    2.01
 -10 -12  -5    2.42    2.12
  10  12   5   -6.07    4.09
   0 -13  -5    1.22    2.50
   0  13   5    7.75    4.77
   0  13   5    4.65    4.41
  -1 -13  -5    6.78    2.76
  -1 -13  -5    8.59    1.62
   1  13   5    8.54    4.34
   1  13   5   15.49    4.56
  -2 -13  -5    1.29    2.01
  -2 -13  -5    0.90    1.39
   2  13   5   11.26    4.17
   2  13   5   -1.21    3.58
  -3 -13  -5   -0.83    1.35
  -3 -13  -5    2.73    2.01
   3  13   5    1.03    3.54
   3  13   5   -4.29    3.43
  -4 -13  -5   -2.81    1.98
  -4 -13  -5    1.89    0.94
   4  13   5    2.28    3.54
   4  13   5    2.27    3.59
  -5 -13  -5    2.84    1.13
  -5 -13  -5    0.91    1.84
   5  13   5    5.44    3.61
   5  13   5   -0.66    3.88
  -6 -13  -5    5.16    2.16
  -6 -13  -5    3.52    1.42
   6  13   5   -3.66    3.22
   6  13   5    0.75    3.90
  -7 -13  -5   15.90    2.22
  -7 -13  -5   16.72    2.65
   7  13   5   14.16    4.77
   7  13   5   14.79    4.75
  -8 -13  -5    1.54    1.76
  -8 -13  -5    2.14    2.03
   8  13   5   -3.61    4.58
  -3 -14  -5    0.34    2.88
  -3 -14  -5   -0.56    1.70
   3  14   5   -0.23    4.91
   3  14   5   -0.32    5.62
  -4 -14  -5    6.05    2.82
   4  14   5    4.13    4.69
   4  14   5   -1.96    4.55
  -5 -14  -5   -0.84    2.54
   5  14   5    3.61    5.06
   5  14   5    2.18    4.91
  -6 -14  -5   -0.46    2.41
   6  14   5   -5.08    4.45
   6   9  -6   -0.21    4.16
  -6  -9   6    2.51    2.23
   5   9  -6    2.56    2.68
   5   9  -6   -4.13    3.96
  -5  -9   6    3.04    2.17
   4   9  -6    4.80    2.63
   4   9  -6    0.26    3.97
  -4  -9   6    0.85    1.93
   3   9  -6   -6.20    3.52
  -3  -9   6   -3.23    1.87
   2   9  -6    0.48    1.91
   2   9  -6   -7.33    3.37
  -2  -9   6   -0.43    1.84
   1   9  -6   15.38    4.34
  -1  -9   6   16.26    2.68
   0   9  -6    6.08    3.90
   0   9  -6    9.34    4.59
   0  -9   6    4.20    2.56
   8   8  -6   -5.23    4.16
  -8  -8   6    2.09    2.07
   7   8  -6   26.64    5.39
  -7  -8   6   22.24    3.60
   6   8  -6    4.03    1.71
   6   8  -6   -0.39    3.48
  -6  -8   6    0.32    1.61
   5   8  -6    4.92    3.28
   5   8  -6    2.01    1.82
  -5  -8   6   -0.10    1.82
  -5  -8   6    1.27    0.92
  -5  -8   6    8.39    3.68
   4   8  -6    0.79    1.69
   4   8  -6   -0.08    2.86
   4   8  -6   -0.30    1.81
  -4  -8   6    1.80    0.80
  -4  -8   6    3.96    3.70
  -4  -8   6    0.91    1.71
  -4  -8   6    3.13    2.99
   3   8  -6    5.49    2.09
   3   8  -6    7.69    3.24
  -3  -8   6    2.46    1.61
  -3  -8   6    9.88    3.39
   2   8  -6   25.78    2.71
   2   8  -6   23.58    3.55
   2   8  -6   17.02    4.02
  -2  -8   6   25.19    4.13
  -2  -8   6   16.21    2.66
   1   8  -6   -4.30    2.55
   1   8  -6   -0.59    1.40
  -1  -8   6    4.48    3.44
  -1  -8   6    2.92    1.58
   0   8  -6    5.50    3.30
   0   8  -6    8.42    1.81
   0   8  -6   10.16    3.48
   0  -8   6    8.05    2.07
   0  -8   6   16.17    3.88
  -1   8  -6   21.37    4.11
  -1   8  -6   10.50    3.72
   1  -8   6   17.38    4.16
   1  -8   6   13.20    2.61
  -2   8  -6   11.09    3.76
  -2   8  -6    4.30    3.89
   2  -8   6   11.14    2.60
   9   7  -6   -0.40    3.62
   9   7  -6    5.72    2.82
   8   7  -6   -1.06    3.53
   8   7  -6    2.65    2.33
  -8  -7   6    3.10    1.84
   7   7  -6    1.88    3.39
  -7  -7   6    2.54    1.60
   6   7  -6   -0.70    2.76
   6   7  -6    3.23    1.58
  -6  -7   6    2.64    1.45
  -6  -7   6   -3.01    3.69
  -6  -7   6   -4.28    3.53
   5   7  -6   11.16    1.97
   5   7  -6   10.58    1.69
   5   7  -6    9.14    3.09
  -5  -7   6   13.35    3.55
  -5  -7   6    7.59    1.82
  -5  -7   6   11.52    3.73
   4   7  -6   15.12    3.34
   4   7  -6   17.54    2.50
   4   7  -6   12.41    1.92
  -4  -7   6   15.89    2.49
  -4  -7   6   18.49    3.33
  -4  -7   6   15.42    1.67
  -4  -7   6   17.81    3.64
   3   7  -6    3.28    1.57
   3   7  -6    1.73    2.52
   3   7  -6    3.89    1.24
  -3  -7   6    5.28    0.90
  -3  -7   6    3.08    1.27
  -3  -7   6    7.09    2.71
  -3  -7   6    4.19    2.35
   2   7  -6    2.98    1.39
   2   7  -6    1.41    1.69
   2   7  -6    6.22    2.57
  -2  -7   6    0.58    2.50
  -2  -7   6    2.59    0.77
  -2  -7   6    3.79    1.37
   1   7  -6    8.12    1.45
   1   7  -6    2.93    2.30
   1   7  -6    5.99    1.83
  -1  -7   6    5.26    1.64
  -1  -7   6    7.13    2.48
  -1  -7   6    8.02    1.06
   0   7  -6    0.22    1.84
   0   7  -6   -0.29    1.17
   0   7  -6   -2.22    2.17
   0   7  -6    1.43    2.41
   0  -7   6    0.75    1.23
   0  -7   6    1.08    0.86
   0  -7   6    2.76    2.60
  -1   7  -6    3.41    2.60
  -1   7  -6   -2.78    1.25
   1  -7   6    1.98    2.79
   1  -7   6    0.26    1.44
  -2   7  -6    5.58    2.81
  -2   7  -6   11.54    1.85
   2  -7   6    9.71    2.32
   2  -7   6   13.20    3.57
  -3   7  -6    6.62    1.73
  -3   7  -6    4.84    3.19
  -3   7  -6    6.52    3.05
   3  -7   6    8.17    2.31
  -4   7  -6    1.19    3.05
  -4   7  -6    2.60    3.45
  -4   7  -6    0.50    3.16
   4  -7   6   -3.84    2.43
  10   6  -6   21.19    4.97
   9   6  -6   -0.06    3.43
   9   6  -6   -2.44    1.99
   8   6  -6   13.83    2.36
   8   6  -6    9.03    3.17
   7   6  -6    3.76    2.85
  -7  -6   6    0.71    1.24
  -7  -6   6    8.26    3.25
   6   6  -6   -1.76    1.40
   6   6  -6    2.44    2.42
   6   6  -6    0.71    0.94
  -6  -6   6   -0.61    1.22
  -6  -6   6    1.71    3.06
  -6  -6   6    4.28    2.52
   5   6  -6    0.48    1.24
   5   6  -6   -0.36    2.34
  -5  -6   6    1.54    1.16
  -5  -6   6    1.23    2.35
  -5  -6   6    2.32    2.41
   4   6  -6    2.35    1.08
   4   6  -6    3.25    1.16
   4   6  -6   -1.18    1.84
  -4  -6   6    2.37    1.12
  -4  -6   6    4.61    2.38
  -4  -6   6    2.66    2.28
   3   6  -6    7.74    2.75
   3   6  -6   12.11    1.76
   3   6  -6    9.72    1.47
  -3  -6   6   16.30    2.71
  -3  -6   6   11.60    1.99
  -3  -6   6   10.40    2.52
  -3  -6   6   11.77    1.38
   2   6  -6   17.90    2.16
   2   6  -6   20.07    2.42
  -2  -6   6   24.60    3.61
  -2  -6   6   17.88    2.28
  -2  -6   6   18.36    1.62
   1   6  -6    2.67    1.28
   1   6  -6   -0.61    0.98
   1   6  -6   -1.92    1.75
  -1  -6   6   -1.52    1.57
  -1  -6   6    0.64    1.00
  -1  -6   6    1.54    0.66
   0   6  -6   10.92    2.40
   0   6  -6   10.74    2.42
   0   6  -6    9.60    1.44
   0   6  -6   15.95    2.52
   0  -6   6   13.11    2.50
   0  -6   6   12.01    1.43
   0  -6   6   11.51    1.81
  -1   6  -6    6.82    2.37
  -1   6  -6    6.45    1.82
  -1   6  -6    6.62    1.32
  -1   6  -6    9.93    2.40
   1  -6   6   12.25    2.52
   1  -6   6    9.86    1.39
   1  -6   6    9.68    1.75
  -2   6  -6    3.42    1.77
  -2   6  -6   -0.40    1.85
  -2   6  -6    4.80    1.14
  -2   6  -6    2.65    2.12
   2  -6   6    6.64    1.64
   2  -6   6   -1.28    2.27
  -3   6  -6    5.88    2.24
  -3   6  -6    1.40    2.07
  -3   6  -6    4.02    1.32
  -3   6  -6    3.24    2.24
  -4   6  -6    7.30    2.76
  -4   6  -6    1.91    2.36
  -4   6  -6   10.82    2.87
  -4   6  -6    7.10    1.58
   4  -6   6    6.87    2.03
  -5   6  -6    5.71    2.56
  -5   6  -6    5.51    3.31
  -5   6  -6   -1.36    2.79
  -5   6  -6    0.78    1.83
  10   5  -6    1.77    3.53
 -10  -5   6   10.06    2.24
   9   5  -6    1.81    2.93
   9   5  -6    3.21    1.64
  -9  -5   6   -1.57    1.62
   8   5  -6   -0.63    1.43
   8   5  -6   -0.82    2.59
   7   5  -6    1.47    1.39
   7   5  -6    0.08    0.70
   7   5  -6    3.10    2.32
  -7  -5   6   -1.87    2.62
  -7  -5   6   -1.93    2.90
   6   5  -6    6.90    1.70
   6   5  -6    5.72    0.97
   6   5  -6    9.27    2.96
  -6  -5   6    6.36    2.62
  -6  -5   6    4.27    2.45
  -6  -5   6    6.12    1.33
   5   5  -6   -1.00    0.76
   5   5  -6    0.29    1.02
   5   5  -6    1.03    2.13
  -5  -5   6    4.28    2.17
  -5  -5   6    0.55    1.01
  -5  -5   6    3.38    2.09
   4   5  -6   83.98    4.80
   4   5  -6   78.86    6.34
   4   5  -6   79.64    4.91
  -4  -5   6   76.30    5.89
  -4  -5   6   84.85    6.11
   3   5  -6   -0.57    0.86
   3   5  -6   -1.35    0.77
   3   5  -6    0.41    1.39
  -3  -5   6   -2.90    1.44
  -3  -5   6    0.24    1.55
  -3  -5   6    0.49    0.81
   2   5  -6    2.43    1.05
   2   5  -6   -0.26    1.63
   2   5  -6    1.26    0.83
  -2  -5   6    0.22    0.52
  -2  -5   6    0.84    0.80
  -2  -5   6   -0.82    1.35
  -2  -5   6    0.46    1.52
   1   5  -6    0.55    1.55
   1   5  -6    1.16    0.96
   1   5  -6    2.12    0.92
  -1  -5   6    1.64    1.44
  -1  -5   6    0.62    0.56
  -1  -5   6    2.30    1.22
   0   5  -6    4.11    0.99
   0   5  -6    2.17    1.23
   0   5  -6    2.08    1.59
   0   5  -6    1.01    1.46
   0  -5   6    2.93    0.73
   0  -5   6    2.97    1.00
   0  -5   6    2.17    1.42
  -1   5  -6   -1.65    1.15
  -1   5  -6    1.01    1.52
  -1   5  -6   -0.82    1.40
  -1   5  -6    1.40    0.89
   1  -5   6    1.13    0.68
   1  -5   6    1.22    0.96
  -2   5  -6    1.45    0.93
  -2   5  -6    0.04    1.56
  -2   5  -6    1.72    1.36
  -2   5  -6    0.26    1.49
   2  -5   6   -0.25    0.71
   2  -5   6   -0.03    1.05
   2  -5   6    0.89    1.43
  -3   5  -6   -0.66    1.65
  -3   5  -6    2.02    1.66
  -3   5  -6   -0.08    1.59
  -3   5  -6    2.27    1.57
   3  -5   6    1.64    0.88
   3  -5   6   -0.88    1.26
  -4   5  -6   -2.38    1.68
  -4   5  -6    5.16    2.03
  -4   5  -6   -0.77    1.70
  -4   5  -6    0.28    1.78
   4  -5   6    1.99    1.54
  -5   5  -6    1.43    1.91
  -5   5  -6    3.28    2.29
  -5   5  -6    1.03    2.17
  -6   5  -6    0.90    2.12
  -6   5  -6   -2.87    2.55
  -6   5  -6    3.25    1.61
  -6   5  -6    2.00    2.78
  11   4  -6    8.09    3.26
  11   4  -6    8.48    3.88
  10   4  -6   12.40    3.36
  10   4  -6    6.91    2.59
  10   4  -6    4.83    1.68
 -10  -4   6    7.16    2.04
   9   4  -6   -0.74    1.34
   9   4  -6    3.79    2.75
  -9  -4   6    2.20    1.58
   8   4  -6    0.48    1.06
   8   4  -6   -1.70    2.21
  -8  -4   6   -0.79    1.23
  -8  -4   6   -2.66    3.25
   7   4  -6    1.29    1.38
   7   4  -6    0.93    0.45
   7   4  -6    0.44    2.10
  -7  -4   6    0.73    2.50
  -7  -4   6   -2.86    2.24
   6   4  -6    6.45    1.34
   6   4  -6    7.09    2.17
   6   4  -6    7.65    1.10
  -6  -4   6    4.35    2.25
  -6  -4   6    5.21    2.18
   5   4  -6   26.00    2.35
   5   4  -6   27.79    1.94
  -5  -4   6   21.11    3.47
  -5  -4   6   24.73    2.27
  -5  -4   6   29.00    3.77
   4   4  -6   70.70    5.52
   4   4  -6   72.41    4.54
   4   4  -6   69.67    4.30
  -4  -4   6   75.09    4.60
  -4  -4   6   75.68    5.42
  -4  -4   6   87.19    5.88
   3   4  -6   13.56    2.33
   3   4  -6   13.44    1.47
   3   4  -6   11.60    1.60
  -3  -4   6   13.67    2.20
  -3  -4   6   13.22    1.58
  -3  -4   6   13.87    2.38
   2   4  -6   26.48    2.14
   2   4  -6   24.48    2.23
   2   4  -6   25.47    3.02
  -2  -4   6   26.51    2.16
  -2  -4   6   21.89    2.81
  -2  -4   6   24.76    2.86
   1   4  -6   18.85    2.63
   1   4  -6   21.92    1.91
   1   4  -6   18.48    1.79
  -1  -4   6   17.56    1.81
  -1  -4   6   18.78    2.45
  -1  -4   6   25.27    2.50
  -1  -4   6   16.05    1.50
   0   4  -6   33.18    3.40
   0   4  -6   33.43    2.38
   0   4  -6   28.94    2.50
   0  -4   6   33.43    2.25
   0  -4   6   34.02    2.58
   0  -4   6   32.20    2.91
   0  -4   6   34.13    2.69
  -1   4  -6    7.94    1.45
  -1   4  -6    5.73    0.96
  -1   4  -6    5.27    1.49
  -1   4  -6    7.10    1.61
   1  -4   6    5.19    1.47
   1  -4   6    7.22    1.28
   1  -4   6    5.09    0.90
  -2   4  -6   12.50    1.96
  -2   4  -6   13.75    1.73
  -2   4  -6    9.08    1.69
  -2   4  -6    7.95    1.84
   2  -4   6   10.90    1.45
   2  -4   6   14.15    2.20
  -3   4  -6   11.81    1.97
  -3   4  -6   12.64    1.97
  -3   4  -6    7.90    1.88
  -3   4  -6    9.40    1.75
  -3   4  -6   13.88    2.00
   3  -4   6    8.65    1.29
   3  -4   6    9.05    1.64
  -4   4  -6    0.56    1.20
  -4   4  -6   -0.48    1.45
  -4   4  -6    1.28    1.48
  -4   4  -6    1.75    1.44
  -4   4  -6    0.34    1.49
   4  -4   6    2.40    0.93
   4  -4   6    1.25    1.32
  -5   4  -6    5.09    1.57
  -5   4  -6    5.69    1.74
  -5   4  -6    4.04    1.80
  -5   4  -6    8.43    2.12
  -5   4  -6    6.76    2.20
  -6   4  -6    2.04    2.13
  -6   4  -6    2.20    1.51
  -6   4  -6    4.79    2.42
  -6   4  -6    4.33    1.59
  -7   4  -6   -3.29    2.29
  -7   4  -6    0.89    2.56
  -7   4  -6    4.88    1.58
  11   3  -6    4.56    3.29
  11   3  -6    1.94    2.70
 -11  -3   6    0.55    2.29
  10   3  -6    2.04    2.86
  10   3  -6   -0.29    2.55
 -10  -3   6   -0.17    1.78
   9   3  -6   -0.37    1.01
   9   3  -6    1.40    2.30
   9   3  -6    0.31    1.53
   9   3  -6    0.64    1.01
   8   3  -6    3.04    1.38
   8   3  -6    0.96    2.03
   8   3  -6    2.98    1.04
  -8  -3   6    1.21    2.87
  -8  -3   6    1.20    1.24
  -8  -3   6    1.46    2.85
   7   3  -6    2.69    1.86
   7   3  -6    1.84    1.19
  -7  -3   6    3.39    2.21
  -7  -3   6    0.09    2.33
   6   3  -6   -3.24    1.57
   6   3  -6    0.07    0.94
   6   3  -6    0.61    0.48
  -6  -3   6   -1.22    1.85
  -6  -3   6    4.35    1.95
   5   3  -6   -0.28    0.50
   5   3  -6   -0.84    0.67
   5   3  -6   -0.42    1.57
  -5  -3   6    0.96    1.62
  -5  -3   6    0.16    0.67
  -5  -3   6   -0.97    1.68
   4   3  -6   30.88    3.44
   4   3  -6   29.60    2.01
   4   3  -6   29.55    2.23
  -4  -3   6   26.39    2.17
  -4  -3   6   27.63    3.07
  -4  -3   6   24.71    3.35
   3   3  -6    8.98    1.19
   3   3  -6   11.17    2.04
   3   3  -6    8.93    1.38
  -3  -3   6   14.23    2.40
  -3  -3   6   10.10    1.31
  -3  -3   6   10.76    1.90
   2   3  -6   20.94    2.63
   2   3  -6   21.58    1.72
   2   3  -6   18.64    1.78
  -2  -3   6   18.94    1.75
  -2  -3   6   21.60    2.35
  -2  -3   6   20.80    2.56
   1   3  -6    9.71    1.70
   1   3  -6    7.63    1.18
   1   3  -6    9.33    1.29
  -1  -3   6    6.91    1.01
  -1  -3   6    8.13    1.23
  -1  -3   6    7.48    1.46
  -1  -3   6   11.74    1.83
   0   3  -6   29.05    2.18
   0   3  -6   26.08    2.00
   0   3  -6   25.93    2.70
   0  -3   6   22.80    2.02
   0  -3   6   28.30    1.90
   0  -3   6   28.09    2.36
   0  -3   6   26.95    2.42
  -1   3  -6    9.25    1.36
  -1   3  -6   12.24    2.01
  -1   3  -6    8.30    1.27
   1  -3   6    8.84    1.22
   1  -3   6    7.70    1.05
   1  -3   6   10.91    1.42
   1  -3   6   10.73    1.65
  -2   3  -6   24.21    2.13
  -2   3  -6   24.46    2.36
  -2   3  -6   25.96    2.52
  -2   3  -6   24.79    2.20
  -2   3  -6   23.97    2.53
   2  -3   6   26.94    2.31
   2  -3   6   24.57    2.19
   2  -3   6   23.19    1.92
  -3   3  -6   -0.60    1.08
  -3   3  -6    0.17    0.96
  -3   3  -6    0.26    0.78
  -3   3  -6   -0.29    0.91
  -3   3  -6   -0.94    1.08
   3  -3   6   -0.09    0.84
   3  -3   6    0.44    0.68
  -4   3  -6    5.26    1.36
  -4   3  -6    5.89    1.37
  -4   3  -6    7.94    1.44
  -4   3  -6    5.86    1.51
  -4   3  -6    7.06    1.85
   4  -3   6    6.35    1.23
   4  -3   6    5.28    1.39
  -5   3  -6    2.67    1.36
  -5   3  -6    3.03    1.52
  -5   3  -6    2.82    1.22
  -5   3  -6    0.90    1.23
  -5   3  -6    0.88    1.63
  -6   3  -6    2.30    1.20
  -6   3  -6    3.13    1.33
  -6   3  -6    3.40    1.87
  -6   3  -6    0.68    1.57
  -6   3  -6   -0.06    1.18
  -6   3  -6    2.65    1.65
  -6   3  -6    1.66    1.85
   6  -3   6    2.83    1.96
  -7   3  -6   -1.32    1.54
  -7   3  -6    2.26    1.40
  -7   3  -6    4.38    1.41
  -7   3  -6    0.28    1.94
  -7   3  -6   -0.72    1.98
   7  -3   6    4.11    2.27
  -8   3  -6    1.88    1.82
  -8   3  -6    2.00    2.40
  -8   3  -6    5.22    2.68
   8  -3   6   -1.13    2.24
  11   2  -6   -4.69    2.59
  11   2  -6    0.12    2.38
 -11  -2   6    1.74    2.15
  10   2  -6    3.01    2.29
  10   2  -6   -1.17    2.53
 -10  -2   6    2.32    1.68
   9   2  -6    1.53    1.77
   9   2  -6   -2.02    1.86
   9   2  -6    0.27    0.57
   9   2  -6   -0.93    1.99
  -9  -2   6    0.14    1.40
   8   2  -6    2.80    0.93
   8   2  -6   -0.08    1.20
   8   2  -6    2.00    0.80
   8   2  -6    0.76    1.64
   8   2  -6    1.48    2.00
  -8  -2   6    1.52    1.07
  -8  -2   6    0.02    2.61
   7   2  -6    1.10    0.82
   7   2  -6    0.23    1.14
   7   2  -6   -1.16    1.55
  -7  -2   6    1.67    0.97
  -7  -2   6    0.71    2.02
   6   2  -6   13.20    1.72
   6   2  -6   14.33    2.45
   6   2  -6   14.43    1.12
  -6  -2   6   13.86    2.52
   5   2  -6   34.54    3.35
   5   2  -6   33.10    2.48
  -5  -2   6   32.86    3.61
  -5  -2   6   33.79    2.41
   4   2  -6   82.00    4.74
   4   2  -6   79.57    5.55
  -4  -2   6   85.71    4.71
  -4  -2   6   84.36    5.72
  -4  -2   6   71.98    5.82
   3   2  -6    5.78    0.89
   3   2  -6    2.85    1.33
  -3  -2   6    4.55    0.83
  -3  -2   6    5.41    1.45
   2   2  -6    6.92    1.49
   2   2  -6    8.78    1.56
  -2  -2   6    9.75    1.71
  -2  -2   6    8.14    1.50
  -2  -2   6    7.77    1.05
   1   2  -6    0.23    0.92
   1   2  -6    0.00    0.51
  -1  -2   6    0.25    0.45
  -1  -2   6   -0.19    0.87
  -1  -2   6   -0.04    0.66
   0   2  -6    4.66    1.23
   0  -2   6    3.45    0.71
   0  -2   6    4.10    0.91
   0  -2   6    4.29    0.83
   0  -2   6    6.13    1.17
  -1   2  -6    0.53    0.59
  -1   2  -6    0.28    0.58
  -1   2  -6    0.35    0.88
  -1   2  -6   -0.55    0.85
   1  -2   6    0.26    0.61
   1  -2   6    0.80    0.60
   1  -2   6    0.83    0.47
   1  -2   6    0.24    0.59
  -2   2  -6   15.87    1.65
  -2   2  -6   14.72    1.58
  -2   2  -6   15.60    1.94
  -2   2  -6   19.68    1.73
  -2   2  -6   11.06    1.91
   2  -2   6   15.42    1.66
   2  -2   6   17.30    1.45
   2  -2   6   17.00    1.60
  -3   2  -6   18.17    2.16
  -3   2  -6   16.39    1.84
  -3   2  -6   23.17    1.93
  -3   2  -6   19.76    2.14
  -3   2  -6   18.46    1.77
   3  -2   6   19.11    1.63
   3  -2   6   15.89    1.83
  -4   2  -6   56.45    4.27
  -4   2  -6   57.27    3.83
  -4   2  -6   65.46    4.13
  -4   2  -6   65.32    4.06
  -4   2  -6   61.84    4.06
   4  -2   6   57.60    4.44
   4  -2   6   62.86    3.93
   4  -2   6   74.04    4.20
  -5   2  -6   11.93    1.89
  -5   2  -6   12.30    1.69
  -5   2  -6   10.81    1.79
  -5   2  -6    9.72    1.62
  -5   2  -6    9.92    1.87
  -5   2  -6    8.37    1.46
   5  -2   6   10.82    2.25
   5  -2   6   10.77    1.64
  -6   2  -6    7.44    1.46
  -6   2  -6    4.21    1.23
  -6   2  -6    2.97    1.67
  -6   2  -6    4.84    1.23
  -6   2  -6    7.74    1.78
  -6   2  -6    2.97    1.38
  -6   2  -6    3.24    1.13
   6  -2   6    5.81    1.94
  -7   2  -6    0.72    1.06
  -7   2  -6    0.67    1.48
  -7   2  -6    1.90    1.40
  -7   2  -6   -0.91    1.56
  -7   2  -6   -1.06    1.05
  -7   2  -6    0.84    1.73
   7  -2   6   -0.35    1.73
  -8   2  -6    2.24    1.48
  -8   2  -6    2.85    1.92
  -8   2  -6    3.85    1.15
  -8   2  -6    4.66    2.18
   8  -2   6   -0.57    2.10
  -9   2  -6   -1.96    1.80
  -9   2  -6   -0.96    4.01
  -9   2  -6   -0.78    2.53
   9  -2   6   -1.35    2.41
  11   1  -6    0.05    2.31
 -11  -1   6   -2.31    1.89
  10   1  -6   11.53    2.75
  10   1  -6   12.79    2.77
 -10  -1   6    8.05    2.07
   9   1  -6    3.16    2.04
   9   1  -6    2.53    1.55
   9   1  -6    3.78    2.00
  -9  -1   6    2.58    1.47
  -9  -1   6    2.68    3.06
   8   1  -6   -0.03    1.62
   8   1  -6    0.76    1.58
   8   1  -6    0.17    1.12
  -8  -1   6   -3.71    2.35
  -8  -1   6   -0.94    0.98
   7   1  -6    3.40    1.13
   7   1  -6    4.26    1.65
   7   1  -6    3.14    0.54
   7   1  -6    2.91    0.75
   7   1  -6    3.28    1.48
  -7  -1   6    3.10    2.13
  -7  -1   6    3.59    1.22
   6   1  -6    3.93    0.96
   6   1  -6    3.91    1.70
   6   1  -6    3.56    0.83
  -6  -1   6    4.66    1.99
   5   1  -6    1.14    0.67
   5   1  -6    1.35    1.17
   5   1  -6    1.28    0.72
  -5  -1   6    3.47    1.52
  -5  -1   6    1.91    0.64
   4   1  -6    4.67    1.46
   4   1  -6    2.50    0.67
   4   1  -6    2.94    0.77
  -4  -1   6    3.44    0.71
  -4  -1   6    0.13    1.20
   3   1  -6    0.76    0.96
   3   1  -6    0.66    0.57
  -3  -1   6    0.70    1.06
  -3  -1   6    0.35    0.41
   2   1  -6    0.24    0.55
   2   1  -6    0.06    0.47
   2   1  -6    0.27    0.82
  -2  -1   6    0.45    0.40
  -2  -1   6    2.08    1.08
  -2  -1   6   -0.65    0.71
   1   1  -6   39.02    3.12
   1   1  -6   36.89    2.72
   1   1  -6   36.06    2.46
  -1  -1   6   42.33    3.07
  -1  -1   6   38.77    2.72
  -1  -1   6   41.16    2.51
   0   1  -6    0.15    0.61
   0   1  -6    0.81    0.40
   0   1  -6   -0.23    1.05
   0   1  -6    1.05    0.86
   0  -1   6    0.90    0.52
   0  -1   6    0.96    0.76
   0  -1   6    0.38    0.54
  -1   1  -6   28.62    2.54
  -1   1  -6   33.99    2.18
  -1   1  -6   27.80    2.33
   1  -1   6   30.76    2.27
   1  -1   6   28.52    2.12
   1  -1   6   29.56    2.02
   1  -1   6   30.90    2.02
  -2   1  -6  126.71    7.24
  -2   1  -6  125.58    7.22
   2  -1   6  123.93    6.83
   2  -1   6  126.09    6.63
   2  -1   6  130.45    6.97
   2  -1   6  127.44    6.63
  -3   1  -6   85.13    4.97
  -3   1  -6   83.94    5.08
  -3   1  -6   81.63    4.77
   3  -1   6   82.10    5.07
   3  -1   6   77.74    4.64
   3  -1   6   77.20    4.77
  -4   1  -6    0.57    0.70
  -4   1  -6   -0.28    0.58
  -4   1  -6   -0.60    0.80
  -4   1  -6    0.33    0.52
  -4   1  -6   -0.02    0.84
   4  -1   6    0.18    0.93
   4  -1   6    0.52    0.65
  -5   1  -6   10.02    1.66
  -5   1  -6    8.15    1.31
  -5   1  -6    9.27    1.48
  -5   1  -6   10.89    1.67
  -5   1  -6   10.40    1.55
  -5   1  -6    9.72    1.66
   5  -1   6   11.37    1.55
   5  -1   6    9.15    1.72
  -6   1  -6    0.47    0.82
  -6   1  -6   -0.68    1.20
  -6   1  -6    1.12    1.07
  -6   1  -6    0.08    0.91
  -6   1  -6    1.09    0.90
  -6   1  -6    2.45    0.90
   6  -1   6    0.47    0.88
   6  -1   6   -0.59    1.22
  -7   1  -6   -2.08    1.10
  -7   1  -6    0.17    1.25
  -7   1  -6    0.73    1.05
  -7   1  -6    0.33    1.24
  -7   1  -6    0.83    0.99
   7  -1   6    0.71    1.65
  -8   1  -6   10.65    1.97
  -8   1  -6    9.54    1.80
  -8   1  -6   13.99    2.47
  -8   1  -6    9.28    1.77
  -8   1  -6    7.19    2.26
   8  -1   6    9.90    2.50
  -9   1  -6    4.07    1.79
  -9   1  -6   10.89    2.51
  -9   1  -6    9.33    2.59
   9  -1   6    6.62    2.67
 -10   1  -6    8.13    2.33
 -10   1  -6   10.04    3.20
  10  -1   6    5.33    2.78
  11   0  -6    6.72    2.91
 -11   0   6    6.88    2.25
  10   0  -6    7.72    1.92
  10   0  -6    6.44    2.56
 -10   0   6    6.98    1.77
   9   0  -6    4.01    2.18
   9   0  -6    6.97    1.99
  -9   0   6    5.07    1.39
  -9   0   6    7.34    3.71
   8   0  -6    8.51    1.97
   8   0  -6   12.05    1.70
   8   0  -6    9.69    0.89
   8   0  -6   11.45    2.47
  -8   0   6   10.20    2.82
  -8   0   6    9.91    1.59
   7   0  -6    5.08    1.68
   7   0  -6    4.50    1.11
   7   0  -6    4.02    0.69
   7   0  -6    5.22    1.60
  -7   0   6    9.08    2.50
   6   0  -6   19.28    1.47
   6   0  -6   24.56    2.00
   6   0  -6   17.52    2.19
   6   0  -6   18.93    2.53
  -6   0   6   20.00    3.23
   5   0  -6   83.27    4.62
   5   0  -6   75.63    4.40
   5   0  -6   77.16    5.23
  -5   0   6   84.69    5.74
  -5   0   6   77.09    4.39
   4   0  -6  107.20    6.37
   4   0  -6  100.72    5.57
  -4   0   6  102.87    6.60
  -4   0   6   96.11    5.45
   3   0  -6    6.44    0.95
   3   0  -6    5.69    0.89
   3   0  -6    6.82    1.37
  -3   0   6    4.67    1.29
  -3   0   6    5.59    0.78
   2   0  -6    7.18    1.44
   2   0  -6    5.17    0.85
   2   0  -6    5.85    0.97
  -2   0   6    6.04    0.79
  -2   0   6    7.61    1.50
   1   0  -6   21.06    2.17
   1   0  -6   20.72    1.77
  -1   0   6   19.98    1.49
  -1   0   6   19.86    2.15
   0   0  -6    9.02    1.22
   0   0  -6    6.33    0.84
   0   0  -6    6.80    1.04
   0   0  -6    5.07    1.15
   0   0   6    8.14    1.38
   0   0   6    7.85    0.93
   0   0   6    6.37    0.83
  -1   0  -6    1.94    0.90
  -1   0  -6    2.44    0.63
  -1   0  -6    1.37    0.76
  -1   0  -6    3.35    0.90
   1   0   6    1.18    0.78
   1   0   6    3.24    0.64
   1   0   6    2.98    0.50
   1   0   6    2.44    0.59
  -2   0  -6   42.61    3.05
  -2   0  -6   39.22    3.20
  -2   0  -6   39.86    2.66
  -2   0  -6   43.08    3.03
   2   0   6   40.51    2.66
   2   0   6   46.63    2.75
   2   0   6   42.69    2.67
  -3   0  -6   48.14    3.19
  -3   0  -6   46.80    3.15
  -3   0  -6   41.01    3.08
   3   0   6   50.97    2.92
   3   0   6   38.14    2.95
  -4   0  -6  137.52    7.97
  -4   0  -6  142.32    7.77
  -4   0  -6  150.74    7.74
  -4   0  -6  131.23    7.61
   4   0   6  143.45    8.02
   4   0   6  142.01    7.67
  -5   0  -6   56.20    3.69
  -5   0  -6   62.45    3.76
  -5   0  -6   55.01    3.71
  -5   0  -6   62.92    4.11
   5   0   6   62.80    4.24
   5   0   6   57.89    3.75
  -6   0  -6   11.13    1.54
  -6   0  -6    9.92    1.46
  -6   0  -6    9.66    1.43
  -6   0  -6   11.66    1.87
  -6   0  -6   13.11    1.70
  -6   0  -6   10.34    1.26
  -6   0  -6   10.49    1.48
   6   0   6    9.56    1.47
   6   0   6    8.49    1.68
  -7   0  -6    0.80    1.47
  -7   0  -6    1.61    0.87
  -7   0  -6    0.64    1.06
  -7   0  -6   -0.80    0.91
  -7   0  -6    1.60    1.01
  -7   0  -6    2.69    1.05
  -7   0  -6   -0.25    1.05
   7   0   6    1.08    1.39
  -8   0  -6    4.73    1.60
  -8   0  -6    6.01    1.54
  -8   0  -6    5.23    1.47
  -8   0  -6    4.62    2.76
  -8   0  -6    5.90    1.40
  -8   0  -6    2.01    1.32
   8   0   6    1.98    1.62
  -9   0  -6    5.52    1.86
  -9   0  -6    2.25    1.72
  -9   0  -6    6.99    2.12
  -9   0  -6    2.90    1.99
   9   0   6    3.59    1.89
 -10   0  -6   -1.35    1.78
 -10   0  -6    5.12    2.63
 -10   0  -6    2.95    2.48
  10   0   6   -0.34    2.29
  10  -1  -6   -0.10    2.28
  10  -1  -6    4.26    3.21
 -10   1   6    1.48    1.58
   9  -1  -6   -0.91    1.89
   9  -1  -6    3.10    1.49
   9  -1  -6   -0.04    1.30
  -9   1   6   -0.74    3.16
  -9   1   6    0.15    1.23
   8  -1  -6   -0.58    1.45
   8  -1  -6    1.11    1.26
   8  -1  -6   -1.61    1.07
   8  -1  -6    0.02    0.66
  -8   1   6    0.75    2.09
   7  -1  -6    1.79    1.26
   7  -1  -6    2.68    1.48
   7  -1  -6    2.78    0.74
   7  -1  -6    2.74    0.97
  -7   1   6    3.49    2.04
   6  -1  -6   20.71    2.28
   6  -1  -6   21.76    2.51
   6  -1  -6   21.56    1.69
   6  -1  -6   21.71    1.93
  -6   1   6   25.09    3.27
   5  -1  -6    0.59    1.09
   5  -1  -6    0.64    0.54
   5  -1  -6    1.01    0.79
   5  -1  -6    0.88    0.52
  -5   1   6    0.60    1.32
  -5   1   6    0.05    0.38
   4  -1  -6    1.37    0.97
   4  -1  -6    0.64    0.48
   4  -1  -6    1.38    0.55
   4  -1  -6   -0.15    0.72
  -4   1   6    0.26    1.07
  -4   1   6    0.24    0.38
   3  -1  -6   10.49    1.23
   3  -1  -6   10.76    1.70
   3  -1  -6    9.70    1.16
   3  -1  -6   11.47    1.14
  -3   1   6    9.82    0.92
  -3   1   6   12.17    1.84
   2  -1  -6   11.84    1.71
   2  -1  -6   14.19    1.18
   2  -1  -6   12.35    1.28
   2  -1  -6   15.85    1.13
  -2   1   6   12.15    1.04
  -2   1   6   13.37    1.81
   1  -1  -6   26.03    2.28
   1  -1  -6   25.05    1.90
  -1   1   6   24.37    1.63
  -1   1   6   23.81    2.23
   0  -1  -6    2.80    0.53
   0  -1  -6    1.69    0.67
   0  -1  -6    3.51    0.99
   0  -1  -6    2.72    0.51
   0   1   6    2.64    0.56
   0   1   6    3.13    1.01
  -1  -1  -6    3.91    0.86
  -1  -1  -6    2.99    0.60
  -1  -1  -6    4.45    0.72
  -1  -1  -6    3.77    0.95
   1   1   6    3.75    0.57
   1   1   6    4.03    0.95
   1   1   6    2.90    0.60
   1   1   6    3.05    0.63
  -2  -1  -6   12.42    1.39
  -2  -1  -6    8.19    1.42
  -2  -1  -6   13.98    1.18
  -2  -1  -6   10.16    1.43
   2   1   6   13.21    1.18
   2   1   6   11.72    1.13
   2   1   6   12.04    1.14
   2   1   6   12.23    1.39
  -3  -1  -6   11.57    1.52
  -3  -1  -6   11.57    1.42
  -3  -1  -6   12.31    1.16
   3   1   6   10.16    1.21
   3   1   6    9.67    1.08
   3   1   6    9.70    1.11
  -4  -1  -6    0.16    0.65
  -4  -1  -6   -0.45    0.64
  -4  -1  -6   -0.03    0.56
   4   1   6    0.74    0.61
   4   1   6   -0.27    0.51
  -5  -1  -6  110.91    6.61
  -5  -1  -6  103.85    6.24
  -5  -1  -6  112.67    6.28
  -5  -1  -6  126.84    6.38
   5   1   6  109.52    6.30
   5   1   6  109.28    6.57
  -6  -1  -6   76.04    4.53
  -6  -1  -6   73.12    4.52
  -6  -1  -6   72.28    4.39
  -6  -1  -6   72.98    3.94
  -6  -1  -6   65.94    4.47
  -6  -1  -6   74.49    4.92
  -6  -1  -6   74.41    4.01
   6   1   6   83.24    5.06
   6   1   6   78.34    4.61
  -7  -1  -6   24.81    2.41
  -7  -1  -6   26.28    2.09
  -7  -1  -6   27.30    2.90
  -7  -1  -6   22.68    2.37
  -7  -1  -6   30.00    2.09
  -7  -1  -6   28.64    2.40
  -7  -1  -6   27.77    2.41
  -8  -1  -6   11.21    1.71
  -8  -1  -6    9.06    1.58
  -8  -1  -6    9.62    1.46
  -8  -1  -6    8.25    1.72
  -8  -1  -6   12.51    1.81
  -8  -1  -6   10.93    2.06
   8   1   6    5.98    2.16
  -9  -1  -6   14.76    2.13
  -9  -1  -6    9.91    1.90
  -9  -1  -6   10.21    1.83
  -9  -1  -6    8.66    2.19
  -9  -1  -6    8.68    1.83
   9   1   6    8.93    2.52
 -10  -1  -6   26.50    4.18
 -10  -1  -6   28.54    3.43
 -10  -1  -6   25.11    3.78
 -10  -1  -6   23.44    3.78
 -10  -1  -6   23.99    4.07
  10   1   6   25.12    3.97
 -11  -1  -6    2.51    2.92
 -11  -1  -6    1.83    2.36
  11   1   6    5.00    2.64
  10  -2  -6    7.52    2.22
  10  -2  -6   13.12    3.35
   9  -2  -6   12.83    1.70
   9  -2  -6   16.56    2.19
   9  -2  -6   21.60    3.55
  -9   2   6   21.15    4.13
   8  -2  -6    2.61    0.92
   8  -2  -6    4.18    1.93
   8  -2  -6    2.99    1.20
  -8   2   6    3.78    2.36
   7  -2  -6    1.10    0.73
   7  -2  -6    2.44    0.91
   7  -2  -6    0.82    1.27
   7  -2  -6    2.91    1.14
  -7   2   6    1.83    1.96
   6  -2  -6    1.09    1.07
   6  -2  -6    0.32    0.59
   6  -2  -6    0.61    1.16
   6  -2  -6    0.94    0.75
  -6   2   6   -3.05    1.38
   5  -2  -6    1.88    0.42
   5  -2  -6    1.74    1.00
   5  -2  -6    2.97    0.74
   5  -2  -6    3.69    1.13
  -5   2   6   -0.18    1.29
  -5   2   6    2.59    0.46
   4  -2  -6    6.93    0.89
   4  -2  -6    7.29    1.19
   4  -2  -6    5.71    0.87
   4  -2  -6    4.80    1.24
  -4   2   6    6.40    0.63
  -4   2   6    7.42    1.68
   3  -2  -6    4.54    0.71
   3  -2  -6    3.59    1.00
   3  -2  -6    4.33    0.72
   3  -2  -6    5.37    0.91
  -3   2   6    4.33    1.29
  -3   2   6    3.79    0.54
   2  -2  -6   41.71    2.51
   2  -2  -6   41.41    2.38
   2  -2  -6   41.81    3.07
   2  -2  -6   39.52    2.59
  -2   2   6   40.98    3.25
  -2   2   6   41.36    2.31
   1  -2  -6  108.19    6.48
   1  -2  -6  112.15    5.83
   1  -2  -6  109.01    6.13
  -1   2   6  113.23    5.84
  -1   2   6  113.70    6.08
  -1   2   6  115.82    6.63
   0  -2  -6  142.88    7.52
   0  -2  -6  150.14    7.87
   0  -2  -6  144.70    8.10
   0   2   6  150.22    8.18
   0   2   6  143.72    7.78
   0   2   6  140.33    7.52
  -1  -2  -6   13.96    1.11
  -1  -2  -6   13.95    1.42
  -1  -2  -6   16.01    1.63
   1   2   6   12.29    1.33
   1   2   6   13.90    1.59
   1   2   6   13.15    1.11
  -2  -2  -6   25.14    2.10
  -2  -2  -6   25.42    2.07
  -2  -2  -6   27.00    1.75
   2   2   6   26.36    1.99
   2   2   6   25.64    2.10
   2   2   6   24.94    1.77
   2   2   6   23.65    1.60
  -3  -2  -6   53.01    3.17
  -3  -2  -6   59.16    3.52
  -3  -2  -6   52.82    3.52
   3   2   6   44.35    3.11
   3   2   6   59.71    3.36
   3   2   6   55.43    3.25
   3   2   6   50.60    3.38
  -4  -2  -6   57.74    3.51
  -4  -2  -6   61.43    3.57
  -4  -2  -6   59.02    3.87
  -4  -2  -6   56.10    3.66
   4   2   6   60.18    3.36
   4   2   6   52.85    3.58
   4   2   6   63.38    3.80
   4   2   6   58.44    3.35
   4   2   6   57.66    3.56
  -5  -2  -6   31.81    2.25
  -5  -2  -6   29.09    2.21
  -5  -2  -6   29.66    2.53
  -5  -2  -6   30.28    2.32
   5   2   6   30.88    2.48
   5   2   6   33.40    2.35
   5   2   6   25.69    2.34
  -6  -2  -6    1.93    0.74
  -6  -2  -6    0.48    0.70
  -6  -2  -6    1.82    1.11
  -6  -2  -6    1.36    0.42
  -6  -2  -6    1.59    0.70
  -6  -2  -6    1.85    0.78
   6   2   6    0.37    0.92
   6   2   6    1.33    0.82
   6   2   6    1.44    0.79
  -7  -2  -6    3.21    0.75
  -7  -2  -6    3.12    0.81
  -7  -2  -6    3.16    1.34
  -7  -2  -6    2.03    0.96
  -7  -2  -6    0.84    0.88
  -7  -2  -6    3.96    1.02
   7   2   6    2.04    1.30
   7   2   6    1.58    0.98
  -8  -2  -6    1.09    0.98
  -8  -2  -6    0.72    1.28
  -8  -2  -6   -0.08    0.92
  -8  -2  -6    0.34    1.06
  -8  -2  -6   -0.70    1.10
  -8  -2  -6    0.71    0.94
  -8  -2  -6    1.55    1.11
   8   2   6    2.36    1.64
  -9  -2  -6    1.55    1.43
  -9  -2  -6    3.16    1.40
  -9  -2  -6    1.50    1.35
  -9  -2  -6    0.61    1.38
  -9  -2  -6    2.30    1.41
  -9  -2  -6    2.94    1.59
   9   2   6    0.87    1.68
 -10  -2  -6    0.05    2.07
 -10  -2  -6   -0.65    1.90
 -10  -2  -6    0.73    1.81
 -10  -2  -6    3.04    1.72
 -10  -2  -6    2.54    1.51
  10   2   6   -1.56    1.89
 -11  -2  -6    6.77    2.76
 -11  -2  -6    1.16    2.46
 -11  -2  -6    9.59    2.66
  11   2   6    5.20    2.68
  10  -3  -6    0.87    2.64
   9  -3  -6    2.08    2.14
   9  -3  -6    0.54    1.10
   9  -3  -6    2.23    1.60
  -9   3   6    1.71    3.51
   8  -3  -6   11.29    1.54
   8  -3  -6   12.22    1.65
   8  -3  -6    7.12    2.40
  -8   3   6   10.25    0.89
  -8   3   6   14.68    2.94
   7  -3  -6    7.08    1.16
   7  -3  -6    5.14    1.06
  -7   3   6    3.98    0.49
  -7   3   6    3.07    2.13
  -7   3   6    3.58    0.45
   6  -3  -6   -0.12    0.67
   6  -3  -6   -0.36    1.10
  -6   3   6    0.86    1.63
   5  -3  -6    4.57    0.95
   5  -3  -6    4.38    1.31
   5  -3  -6    5.26    1.15
   5  -3  -6    4.17    0.84
  -5   3   6    7.97    1.75
   4  -3  -6    3.78    0.70
   4  -3  -6    3.32    0.60
   4  -3  -6    5.25    1.05
   4  -3  -6    3.68    1.08
  -4   3   6    2.14    1.21
   3  -3  -6   59.32    3.97
   3  -3  -6   58.90    3.60
   3  -3  -6   63.63    3.50
   3  -3  -6   61.60    3.49
  -3   3   6   60.65    4.36
   2  -3  -6   37.83    2.43
   2  -3  -6   36.95    2.31
   2  -3  -6   38.51    2.28
   2  -3  -6   35.78    2.81
  -2   3   6   41.59    3.12
  -2   3   6   37.57    2.38
   1  -3  -6   28.62    1.63
   1  -3  -6   28.58    2.37
   1  -3  -6   27.77    2.03
  -1   3   6   29.01    2.54
  -1   3   6   27.50    1.94
   0  -3  -6   15.42    1.46
   0  -3  -6   15.42    1.05
   0  -3  -6   14.58    1.63
   0   3   6   13.56    1.34
   0   3   6   13.88    1.75
   0   3   6   14.05    1.46
  -1  -3  -6    5.58    0.65
  -1  -3  -6    3.98    0.80
  -1  -3  -6    6.40    1.17
   1   3   6    5.93    0.91
   1   3   6    5.01    0.86
   1   3   6    5.68    1.04
  -2  -3  -6   49.18    3.19
  -2  -3  -6   47.02    2.83
  -2  -3  -6   47.39    3.23
   2   3   6   50.54    3.16
   2   3   6   45.29    2.74
   2   3   6   50.44    2.68
   2   3   6   54.18    3.36
   2   3   6   47.83    2.93
  -3  -3  -6    4.48    0.93
  -3  -3  -6    3.11    0.82
  -3  -3  -6    3.86    0.66
   3   3   6    6.41    0.99
   3   3   6    4.22    0.75
   3   3   6    5.36    1.00
   3   3   6    4.15    0.71
  -4  -3  -6   34.55    2.27
  -4  -3  -6   31.51    2.56
  -4  -3  -6   34.56    2.48
   4   3   6   35.00    2.36
   4   3   6   35.15    2.41
   4   3   6   35.51    2.51
   4   3   6   33.91    2.51
  -5  -3  -6   26.70    2.40
  -5  -3  -6   25.02    1.96
  -5  -3  -6   24.97    1.86
   5   3   6   23.10    1.78
   5   3   6   23.54    2.05
   5   3   6   24.82    2.00
   5   3   6   23.58    1.78
  -6  -3  -6   14.23    1.62
  -6  -3  -6   15.77    2.03
  -6  -3  -6   15.88    1.70
  -6  -3  -6   17.15    1.59
  -6  -3  -6   15.90    1.25
   6   3   6   15.82    1.92
   6   3   6   13.92    1.65
   6   3   6   17.94    1.93
  -7  -3  -6   17.68    2.00
  -7  -3  -6   20.66    2.32
  -7  -3  -6   18.48    1.61
  -7  -3  -6   16.54    1.84
  -7  -3  -6   14.57    1.78
   7   3   6   21.25    2.15
   7   3   6   17.37    1.89
   7   3   6   17.75    2.21
  -8  -3  -6   -1.81    0.91
  -8  -3  -6   -0.38    1.22
  -8  -3  -6    0.07    1.00
  -8  -3  -6   -0.06    0.89
  -8  -3  -6   -1.14    0.96
   8   3   6   -2.31    1.05
   8   3   6   -1.42    1.31
  -9  -3  -6    2.80    1.27
  -9  -3  -6    5.59    1.46
  -9  -3  -6    2.99    1.32
  -9  -3  -6    2.75    1.22
  -9  -3  -6    3.10    1.79
  -9  -3  -6   -0.05    1.37
   9   3   6    3.77    2.05
 -10  -3  -6    2.03    1.50
 -10  -3  -6    1.17    1.88
 -10  -3  -6    0.56    1.44
 -10  -3  -6   -0.14    1.71
  10   3   6    1.86    2.06
 -11  -3  -6    3.55    2.51
 -11  -3  -6    0.03    2.23
 -11  -3  -6   -2.41    1.93
 -11  -3  -6    4.79    2.64
  11   3   6   -0.01    2.21
   9  -4  -6   17.09    3.42
   9  -4  -6   14.18    2.01
   9  -4  -6   14.83    2.37
  -9   4   6   17.65    4.89
   8  -4  -6    1.07    1.34
   8  -4  -6    0.14    1.83
   8  -4  -6    4.81    1.30
  -8   4   6   -1.05    2.87
   7  -4  -6    6.79    1.98
   7  -4  -6    5.88    1.26
  -7   4   6    6.76    2.50
   6  -4  -6    9.40    1.83
   6  -4  -6    6.24    1.23
   6  -4  -6    8.60    1.10
  -6   4   6    7.33    2.04
   5  -4  -6    3.11    0.79
   5  -4  -6    2.26    0.85
   5  -4  -6    2.73    1.17
  -5   4   6    1.92    1.56
   4  -4  -6    3.56    0.60
   4  -4  -6    4.75    1.12
  -4   4   6    2.92    0.55
  -4   4   6    4.18    1.51
   3  -4  -6    2.44    0.64
   3  -4  -6    1.94    0.79
   3  -4  -6    2.16    0.82
   3  -4  -6    0.97    0.44
  -3   4   6    2.18    0.57
  -3   4   6    1.66    1.46
   2  -4  -6    3.94    0.60
   2  -4  -6    4.37    0.82
   2  -4  -6    3.91    1.00
   2  -4  -6    4.64    0.80
  -2   4   6    2.99    1.10
  -2   4   6    4.92    1.20
  -2   4   6    4.56    0.74
   1  -4  -6   11.40    1.24
   1  -4  -6   10.73    1.44
  -1   4   6   10.64    1.68
  -1   4   6   11.07    1.00
  -1   4   6   11.76    1.20
  -1   4   6   12.19    1.66
   0  -4  -6   40.31    2.77
   0  -4  -6   43.24    2.36
   0  -4  -6   43.08    3.00
   0   4   6   41.40    2.99
   0   4   6   42.95    3.16
   0   4   6   41.55    2.75
   0   4   6   45.74    2.27
  -1  -4  -6   32.21    1.93
  -1  -4  -6   29.81    2.30
  -1  -4  -6   32.07    2.43
   1   4   6   33.66    2.30
   1   4   6   31.48    2.53
   1   4   6   33.33    2.33
  -2  -4  -6    5.90    0.71
  -2  -4  -6    5.88    1.04
  -2  -4  -6    6.19    1.09
   2   4   6    6.50    0.67
   2   4   6    5.16    0.87
   2   4   6    5.79    0.98
   2   4   6    6.23    0.89
   2   4   6    7.44    1.25
  -3  -4  -6    1.56    0.45
  -3  -4  -6    0.84    0.72
   3   4   6    0.13    0.48
   3   4   6    0.54    0.65
   3   4   6    0.76    0.56
   3   4   6    0.62    0.46
   3   4   6    1.04    0.47
  -4  -4  -6   13.70    1.69
  -4  -4  -6   12.79    1.12
   4   4   6   14.86    1.65
   4   4   6   13.83    1.69
   4   4   6   11.56    1.27
   4   4   6   13.36    1.51
   4   4   6   10.59    1.25
  -5  -4  -6    7.38    0.93
  -5  -4  -6    7.42    1.11
  -5  -4  -6    8.56    1.47
  -5  -4  -6    6.55    1.03
   5   4   6    9.62    1.45
   5   4   6    5.14    1.05
   5   4   6    8.34    1.38
   5   4   6    5.98    1.42
   5   4   6    8.20    1.15
  -6  -4  -6    8.87    1.12
  -6  -4  -6   11.75    1.71
  -6  -4  -6    7.34    1.18
  -6  -4  -6   12.61    1.41
   6   4   6    8.31    1.31
   6   4   6    8.37    1.38
   6   4   6    8.83    1.35
   6   4   6    7.81    1.24
  -7  -4  -6    7.31    1.57
  -7  -4  -6    6.00    1.25
  -7  -4  -6    8.54    1.21
  -7  -4  -6    5.94    1.22
   7   4   6    4.71    1.41
   7   4   6   11.39    1.78
   7   4   6    6.01    1.19
  -8  -4  -6    9.50    1.57
  -8  -4  -6    7.72    1.43
  -8  -4  -6   10.89    1.70
  -8  -4  -6    8.84    1.60
  -8  -4  -6    8.53    1.73
   8   4   6   11.70    1.83
   8   4   6   13.32    1.90
  -9  -4  -6    3.52    1.26
  -9  -4  -6    3.08    1.70
  -9  -4  -6    3.51    1.35
  -9  -4  -6    4.52    1.42
  -9  -4  -6    4.96    1.41
   9   4   6    2.63    1.47
   9   4   6    3.66    1.72
 -10  -4  -6    2.81    1.35
 -10  -4  -6    2.92    1.99
 -10  -4  -6    0.60    1.29
 -10  -4  -6   -3.11    1.67
  10   4   6    0.00    1.79
 -11  -4  -6   -1.67    2.19
 -11  -4  -6    4.21    2.54
 -11  -4  -6   -0.77    1.73
 -11  -4  -6    2.29    1.73
  11   4   6    0.44    2.15
 -12  -4  -6   13.38    3.31
 -12  -4  -6   11.64    3.10
  12   4   6   11.66    3.13
   9  -5  -6    5.77    2.58
   9  -5  -6    2.67    1.86
  -9   5   6    4.12    4.45
   8  -5  -6    4.65    1.74
   8  -5  -6    3.32    2.18
   8  -5  -6    5.98    1.34
  -8   5   6    4.53    3.69
  -8   5   6   10.13    3.42
   7  -5  -6    2.57    1.05
   7  -5  -6    1.80    1.33
   7  -5  -6    2.00    1.84
  -7   5   6    7.43    2.55
  -7   5   6    1.55    2.99
   6  -5  -6    2.74    0.84
   6  -5  -6    1.17    0.99
  -6   5   6    3.23    2.18
  -6   5   6    0.10    1.98
   5  -5  -6   -0.78    0.78
   5  -5  -6   -0.50    0.53
   5  -5  -6    0.31    1.11
  -5   5   6   -1.12    2.91
  -5   5   6    0.02    1.42
   4  -5  -6    4.35    0.70
   4  -5  -6    4.19    1.13
   4  -5  -6    5.22    1.19
  -4   5   6    2.33    1.39
  -4   5   6    5.45    1.76
  -4   5   6    4.71    0.68
   3  -5  -6   47.03    3.41
   3  -5  -6   55.67    3.02
  -3   5   6   54.50    4.44
  -3   5   6   52.40    3.14
  -3   5   6   54.32    4.03
   2  -5  -6    1.06    0.45
   2  -5  -6    1.26    0.63
  -2   5   6    2.07    1.16
  -2   5   6    0.58    0.61
  -2   5   6   -1.14    1.04
   1  -5  -6   10.30    1.22
  -1   5   6    7.74    1.41
  -1   5   6    5.66    1.35
  -1   5   6    6.61    1.04
  -1   5   6    7.27    1.23
   0  -5  -6   32.04    2.45
   0  -5  -6   34.83    1.95
   0   5   6   34.47    2.81
   0   5   6   38.75    2.50
   0   5   6   34.99    2.77
   0   5   6   35.91    2.23
  -1  -5  -6   34.97    2.03
  -1  -5  -6   33.40    2.53
   1   5   6   35.79    2.80
   1   5   6   37.44    2.54
   1   5   6   34.10    2.14
   1   5   6   34.97    2.62
  -2  -5  -6    3.31    0.91
   2   5   6    2.63    0.60
   2   5   6    2.07    0.74
   2   5   6    4.57    0.94
   2   5   6    3.16    0.98
  -3  -5  -6   15.08    1.51
  -3  -5  -6   15.38    1.75
   3   5   6   15.84    1.64
   3   5   6   15.61    1.60
   3   5   6   17.28    1.80
   3   5   6   15.76    1.37
  -4  -5  -6    0.50    0.82
  -4  -5  -6    2.12    0.69
   4   5   6    0.89    0.91
   4   5   6    1.19    0.57
   4   5   6    1.01    0.61
   4   5   6    1.21    0.73
   4   5   6    0.00    0.69
  -5  -5  -6    3.32    0.76
  -5  -5  -6    3.12    1.05
  -5  -5  -6    2.62    0.73
   5   5   6    3.74    1.06
   5   5   6    3.10    1.16
   5   5   6    3.84    0.95
   5   5   6    3.06    0.70
   5   5   6    2.52    0.94
  -6  -5  -6   24.75    2.20
  -6  -5  -6   25.30    2.19
  -6  -5  -6   30.19    2.22
  -6  -5  -6   24.02    2.43
   6   5   6   30.53    2.42
   6   5   6   26.82    2.21
   6   5   6   32.86    2.61
   6   5   6   29.35    2.53
   6   5   6   29.22    2.54
  -7  -5  -6   28.42    2.57
  -7  -5  -6   32.07    2.45
  -7  -5  -6   29.57    2.83
  -7  -5  -6   30.30    2.51
   7   5   6   32.02    2.47
   7   5   6   35.77    2.91
   7   5   6   29.60    2.75
   7   5   6   30.72    2.55
   7   5   6   31.52    2.59
  -8  -5  -6    5.65    1.55
  -8  -5  -6    4.34    1.29
  -8  -5  -6    4.67    1.18
  -8  -5  -6    4.55    1.21
   8   5   6    4.99    1.43
   8   5   6    4.69    1.43
   8   5   6    6.65    2.59
  -9  -5  -6    8.36    1.58
  -9  -5  -6    7.00    1.59
  -9  -5  -6    8.11    1.73
   9   5   6    7.11    1.99
   9   5   6    9.80    1.89
 -10  -5  -6   -0.14    1.81
 -10  -5  -6    1.29    1.38
 -10  -5  -6    2.30    1.80
  10   5   6    1.31    1.84
  10   5   6    0.15    1.73
 -11  -5  -6    3.14    2.56
 -11  -5  -6   -2.68    1.73
 -11  -5  -6   -2.52    2.18
 -11  -5  -6    1.77    1.62
  11   5   6    0.59    2.02
  11   5   6    0.51    2.29
 -12  -5  -6    0.73    2.80
 -12  -5  -6    3.84    2.51
  12   5   6    0.32    2.47
   8  -6  -6   -0.48    1.91
   8  -6  -6   -0.81    2.22
  -8   6   6    0.36    4.30
   7  -6  -6    4.04    1.05
   7  -6  -6    4.43    1.73
   7  -6  -6    3.16    2.19
  -7   6   6   -0.41    2.88
  -7   6   6    2.83    2.95
   6  -6  -6    3.14    1.43
   6  -6  -6    2.88    2.04
   6  -6  -6    1.77    0.82
  -6   6   6    3.36    2.15
  -6   6   6    2.51    2.52
   5  -6  -6    2.43    1.23
   5  -6  -6   -1.50    0.95
   5  -6  -6    1.80    0.59
  -5   6   6    1.06    2.14
  -5   6   6    0.07    0.49
  -5   6   6   -1.81    1.66
   4  -6  -6   -0.31    1.02
   4  -6  -6    0.38    0.40
   4  -6  -6   -1.37    0.73
  -4   6   6    0.86    0.59
  -4   6   6    2.44    1.48
  -4   6   6    2.93    2.04
   3  -6  -6    0.69    0.41
   3  -6  -6   -0.02    0.91
  -3   6   6    3.59    1.42
  -3   6   6    0.16    1.40
  -3   6   6    2.27    0.67
   2  -6  -6    2.08    0.43
  -2   6   6    0.26    1.26
  -2   6   6    1.61    1.14
  -2   6   6    0.25    0.63
   1  -6  -6    2.20    0.76
  -1   6   6    0.80    0.98
  -1   6   6    2.75    0.70
  -1   6   6    2.27    1.16
   0  -6  -6    4.38    0.47
   0  -6  -6    6.71    1.09
   0   6   6    5.65    1.02
   0   6   6    4.07    1.20
   0   6   6    4.77    1.07
  -1  -6  -6    0.78    0.69
   1   6   6    1.80    0.83
   1   6   6   -0.65    0.56
   1   6   6    1.13    0.88
   1   6   6    0.18    0.80
  -2  -6  -6    7.66    1.21
  -2  -6  -6    7.12    1.29
   2   6   6    7.70    1.01
   2   6   6    8.21    1.45
   2   6   6    9.05    1.34
   2   6   6    9.67    1.56
  -3  -6  -6   17.12    1.91
  -3  -6  -6   20.81    1.96
  -3  -6  -6   17.94    1.52
   3   6   6   20.55    1.57
   3   6   6   20.61    2.11
   3   6   6   15.92    1.84
   3   6   6   20.58    1.98
  -4  -6  -6   12.23    1.81
  -4  -6  -6   13.09    1.71
  -4  -6  -6   13.27    1.36
   4   6   6   15.60    1.93
   4   6   6   13.37    1.69
   4   6   6   11.52    1.72
   4   6   6   18.46    2.16
   4   6   6   12.35    1.32
  -5  -6  -6   34.01    2.66
  -5  -6  -6   31.62    2.77
  -5  -6  -6   31.47    2.44
   5   6   6   36.34    2.82
   5   6   6   33.63    2.40
   5   6   6   36.03    2.86
   5   6   6   36.22    3.05
   5   6   6   34.19    2.69
  -6  -6  -6   46.77    3.21
  -6  -6  -6   47.99    3.39
  -6  -6  -6   49.36    3.62
  -6  -6  -6   51.29    3.18
   6   6   6   44.44    3.17
   6   6   6   46.41    3.43
   6   6   6   48.97    3.56
   6   6   6   49.83    3.75
  -7  -6  -6    2.27    0.99
  -7  -6  -6    1.61    0.80
  -7  -6  -6    1.93    1.26
  -7  -6  -6    1.02    0.88
   7   6   6    0.20    0.79
   7   6   6    0.24    1.04
   7   6   6    1.98    0.99
   7   6   6    2.53    1.12
   7   6   6    2.04    1.17
  -8  -6  -6    1.57    0.96
  -8  -6  -6   -0.93    0.99
  -8  -6  -6    2.16    1.45
  -8  -6  -6    2.01    1.21
   8   6   6    1.29    1.02
   8   6   6   -0.20    1.08
   8   6   6    3.31    1.15
  -9  -6  -6    1.95    1.31
  -9  -6  -6    2.49    1.63
  -9  -6  -6    0.97    1.55
  -9  -6  -6    4.01    1.24
   9   6   6    2.93    0.92
   9   6   6    2.46    0.93
   9   6   6   -1.00    1.66
   9   6   6    3.44    1.48
 -10  -6  -6    1.16    2.05
 -10  -6  -6   -0.21    1.36
 -10  -6  -6    2.65    1.91
 -10  -6  -6    3.81    2.50
  10   6   6    0.03    1.81
  10   6   6    3.65    1.84
 -11  -6  -6    1.96    2.11
 -11  -6  -6   -0.55    1.75
  11   6   6    2.72    2.34
  11   6   6    1.71    1.96
 -12  -6  -6    1.16    2.75
 -12  -6  -6    4.55    2.35
  12   6   6    5.88    2.62
   8  -7  -6    7.28    2.61
   8  -7  -6   13.38    3.27
   7  -7  -6   27.31    3.71
   7  -7  -6   28.55    4.06
  -7   7   6   18.72    4.16
  -7   7   6   35.74    5.68
   6  -7  -6   17.64    2.83
   6  -7  -6   28.22    3.62
  -6   7   6   21.51    4.19
  -6   7   6   21.17    3.70
   5  -7  -6   11.45    1.92
   5  -7  -6   13.49    0.99
   5  -7  -6   10.03    2.35
  -5   7   6   12.93    1.42
  -5   7   6   11.31    2.60
  -5   7   6   10.08    2.98
   4  -7  -6    5.29    1.41
   4  -7  -6    8.48    0.82
  -4   7   6    8.36    2.08
  -4   7   6    5.42    2.27
  -4   7   6    7.83    1.15
   3  -7  -6    7.03    0.67
   3  -7  -6    7.38    1.41
  -3   7   6    4.24    1.92
  -3   7   6    6.62    1.85
  -3   7   6    6.91    1.14
   2  -7  -6   11.07    1.71
   2  -7  -6   11.26    0.88
  -2   7   6   14.14    2.19
  -2   7   6   12.40    2.31
  -2   7   6   11.08    1.61
   1  -7  -6   20.37    1.37
  -1   7   6   23.41    2.65
  -1   7   6   21.46    1.98
  -1   7   6   23.70    2.91
   0  -7  -6   36.21    2.75
   0   7   6   36.30    3.29
   0   7   6   38.55    3.23
   0   7   6   39.96    2.78
  -1  -7  -6    6.68    1.13
   1   7   6    8.28    1.66
   1   7   6    8.31    1.52
   1   7   6    7.82    1.23
  -2  -7  -6    5.27    1.13
  -2  -7  -6    4.26    1.30
  -2  -7  -6    5.41    0.84
   2   7   6    5.60    1.32
   2   7   6    5.25    0.81
   2   7   6    3.17    1.17
  -3  -7  -6    7.70    1.50
  -3  -7  -6   10.08    1.53
  -3  -7  -6    8.19    1.06
   3   7   6   10.21    1.12
   3   7   6    8.79    1.54
   3   7   6    6.35    1.24
   3   7   6    7.61    1.46
  -4  -7  -6   12.20    1.29
  -4  -7  -6   11.26    1.76
  -4  -7  -6   12.69    1.88
   4   7   6    9.62    1.55
   4   7   6   11.69    2.02
   4   7   6   11.36    1.92
   4   7   6   13.92    1.86
   4   7   6   12.69    1.29
  -5  -7  -6    1.09    1.11
  -5  -7  -6    1.31    1.04
  -5  -7  -6    1.23    0.69
   5   7   6    1.03    1.23
   5   7   6    1.28    1.17
   5   7   6    1.24    1.00
   5   7   6    1.12    0.67
   5   7   6    0.04    0.90
  -6  -7  -6   11.08    1.80
  -6  -7  -6    6.97    1.51
  -6  -7  -6    9.48    1.41
   6   7   6    7.98    1.46
   6   7   6   12.27    2.09
   6   7   6   10.83    2.04
  -7  -7  -6    2.40    1.29
  -7  -7  -6    0.01    1.16
  -7  -7  -6    0.95    0.81
  -7  -7  -6    1.68    1.00
   7   7   6    0.89    1.24
   7   7   6   -0.34    1.26
   7   7   6    1.74    1.22
   7   7   6    0.83    0.81
  -8  -7  -6    2.47    1.01
  -8  -7  -6    1.15    2.33
  -8  -7  -6    2.37    1.05
  -8  -7  -6    4.87    1.50
   8   7   6    2.18    1.02
   8   7   6    5.32    1.64
   8   7   6    3.05    1.68
   8   7   6    0.88    1.44
   8   7   6    6.11    1.42
  -9  -7  -6    6.76    1.54
  -9  -7  -6   10.44    1.68
  -9  -7  -6    9.68    2.14
  -9  -7  -6   12.02    2.38
   9   7   6   11.11    1.80
   9   7   6   10.57    2.23
   9   7   6    8.10    1.90
   9   7   6   11.35    1.91
 -10  -7  -6    4.70    2.23
 -10  -7  -6    1.27    1.61
 -10  -7  -6    3.61    1.97
 -10  -7  -6    3.43    1.59
  10   7   6    5.46    1.99
  10   7   6    2.00    1.93
  10   7   6    1.97    1.24
  10   7   6   -0.52    1.10
 -11  -7  -6    9.16    3.25
 -11  -7  -6    6.55    2.47
 -11  -7  -6    9.45    2.02
  11   7   6    4.25    2.48
  11   7   6    1.46    2.46
 -12  -7  -6    5.26    2.89
 -12  -7  -6   10.93    2.59
  12   7   6    6.91    2.89
   7  -8  -6    4.85    2.41
  -7   8   6   13.15    4.60
   6  -8  -6    0.23    1.82
  -6   8   6    3.24    3.44
  -6   8   6   -2.43    3.09
   5  -8  -6    1.64    1.60
  -5   8   6    0.22    2.44
  -5   8   6    2.34    1.01
  -5   8   6   -2.29    2.83
   4  -8  -6    0.07    1.14
  -4   8   6    0.88    2.27
  -4   8   6   -0.16    0.99
  -4   8   6   -3.92    1.80
   3  -8  -6    3.59    1.32
  -3   8   6   -0.22    1.92
  -3   8   6    5.40    1.83
  -3   8   6    2.07    1.09
   2  -8  -6    4.23    1.69
  -2   8   6    5.49    1.15
  -2   8   6    6.94    1.91
   1  -8  -6    0.70    0.35
   1  -8  -6    0.84    0.29
   1  -8  -6    0.01    1.05
  -1   8   6    1.66    1.60
  -1   8   6   -0.12    0.94
  -1   8   6   -0.89    1.20
   0  -8  -6    4.64    1.37
   0  -8  -6    4.62    0.58
   0   8   6    4.10    1.47
   0   8   6    3.87    1.52
   0   8   6    1.58    0.94
  -1  -8  -6    0.67    1.43
  -1  -8  -6    0.11    0.42
  -1  -8  -6    0.88    0.89
   1   8   6    2.10    1.09
   1   8   6   -0.36    1.09
   1   8   6    1.02    0.99
  -2  -8  -6    5.00    1.21
  -2  -8  -6    4.16    1.48
  -2  -8  -6    4.65    0.75
   2   8   6    4.68    1.34
   2   8   6    3.83    1.39
   2   8   6    3.88    1.06
   2   8   6    4.77    0.78
  -3  -8  -6    0.31    0.93
  -3  -8  -6    1.61    1.31
  -3  -8  -6    0.87    0.55
   3   8   6    0.88    1.07
   3   8   6    1.18    1.24
   3   8   6    1.65    0.54
   3   8   6    0.71    0.94
  -4  -8  -6    3.79    1.35
  -4  -8  -6    4.86    1.36
  -4  -8  -6    5.43    0.93
   4   8   6    4.71    1.15
   4   8   6    6.17    1.45
   4   8   6    5.68    1.59
   4   8   6    3.81    0.83
   4   8   6    5.58    1.79
  -5  -8  -6   99.59    6.29
  -5  -8  -6   97.68    5.60
  -5  -8  -6  102.95    6.11
   5   8   6   97.82    6.16
   5   8   6   93.83    5.52
   5   8   6   99.15    6.14
   5   8   6  100.09    6.34
   5   8   6   99.63    6.71
  -6  -8  -6   47.47    3.88
  -6  -8  -6   40.93    3.60
  -6  -8  -6   43.93    3.11
   6   8   6   47.78    3.13
   6   8   6   42.16    3.90
   6   8   6   50.51    3.78
   6   8   6   43.61    4.14
   6   8   6   53.72    3.73
  -7  -8  -6   17.36    3.10
  -7  -8  -6   25.17    2.29
  -7  -8  -6   27.62    2.11
   7   8   6   19.34    2.70
   7   8   6   21.07    2.14
   7   8   6   19.39    2.72
   7   8   6   21.04    3.04
  -8  -8  -6   -3.31    1.58
  -8  -8  -6    1.69    1.09
  -8  -8  -6    0.00    0.98
  -8  -8  -6   -0.87    1.37
   8   8   6    2.91    1.87
   8   8   6    2.40    1.56
   8   8   6   -0.30    1.39
  -9  -8  -6    1.68    1.23
  -9  -8  -6    0.32    1.84
  -9  -8  -6   -0.38    1.21
  -9  -8  -6    1.02    1.76
   9   8   6    0.01    1.88
   9   8   6    1.01    1.73
   9   8   6    2.15    1.79
   9   8   6   -2.54    1.40
 -10  -8  -6    0.13    1.51
 -10  -8  -6   -1.41    2.51
 -10  -8  -6   -1.54    1.84
 -10  -8  -6    3.19    1.38
  10   8   6    0.48    1.97
  10   8   6    1.05    1.77
  10   8   6    1.52    2.16
  10   8   6    1.60    1.68
 -11  -8  -6    1.61    1.76
 -11  -8  -6    1.50    2.38
 -11  -8  -6    1.19    3.18
  11   8   6    1.48    2.10
 -12  -8  -6   -2.31    2.86
  12   8   6    2.62    2.91
   6  -9  -6   -0.48    2.39
  -6   9   6    5.96    4.87
   5  -9  -6   10.28    2.48
  -5   9   6   14.55    4.43
  -5   9   6   15.37    4.12
  -5   9   6   13.10    1.93
   4  -9  -6    1.32    1.62
  -4   9   6    1.18    1.42
  -4   9   6    0.56    3.06
  -4   9   6    6.11    2.50
   3  -9  -6   11.27    2.03
  -3   9   6    8.62    2.78
  -3   9   6    9.55    1.71
  -3   9   6    9.49    2.78
   2  -9  -6   -0.09    1.32
  -2   9   6    0.89    1.76
  -2   9   6    2.33    2.19
  -2   9   6   -2.51    1.08
   1  -9  -6   -0.68    0.95
  -1   9   6   -1.25    1.87
  -1   9   6    2.94    1.50
  -1   9   6   -2.21    1.02
   0  -9  -6    8.84    0.90
   0  -9  -6    9.03    0.71
   0  -9  -6    7.17    0.71
   0  -9  -6   10.88    2.18
   0   9   6    8.06    1.48
   0   9   6    9.75    2.20
   0   9   6   10.55    2.08
  -1  -9  -6   25.27    2.66
  -1  -9  -6   25.57    1.68
  -1  -9  -6   27.58    3.59
   1   9   6   26.19    3.01
   1   9   6   29.77    2.69
   1   9   6   23.31    3.36
   1   9   6   25.14    1.88
  -2  -9  -6   23.79    1.68
  -2  -9  -6   24.30    3.24
   2   9   6   25.51    1.80
   2   9   6   23.05    2.58
   2   9   6   20.03    2.63
   2   9   6   25.18    3.33
  -3  -9  -6   11.62    1.25
  -3  -9  -6    9.79    2.17
   3   9   6    9.47    1.55
   3   9   6   11.37    1.22
   3   9   6   10.82    1.89
   3   9   6    8.81    2.09
   3   9   6   13.92    2.57
  -4  -9  -6   38.26    3.32
  -4  -9  -6   45.23    3.95
  -4  -9  -6   44.41    2.78
   4   9   6   41.86    3.47
   4   9   6   43.12    2.74
   4   9   6   41.44    3.50
   4   9   6   37.22    3.92
   4   9   6   39.37    4.21
  -5  -9  -6    5.36    1.02
  -5  -9  -6    5.35    1.76
  -5  -9  -6    6.42    2.48
   5   9   6    4.01    1.29
   5   9   6    3.01    1.30
   5   9   6    4.40    0.89
   5   9   6    6.55    1.96
   5   9   6    4.77    1.62
  -6  -9  -6    0.68    1.53
  -6  -9  -6   -0.66    0.74
  -6  -9  -6   -1.18    1.16
   6   9   6   -1.89    1.17
   6   9   6   -2.16    1.59
   6   9   6    1.59    1.24
   6   9   6    0.55    0.73
   6   9   6   -0.83    1.70
  -7  -9  -6   -0.91    1.57
  -7  -9  -6    0.48    1.49
   7   9   6    2.19    0.94
   7   9   6    0.91    1.51
   7   9   6    3.16    1.89
   7   9   6    0.50    1.40
  -8  -9  -6    2.25    1.18
  -8  -9  -6    0.05    1.29
  -8  -9  -6    3.28    1.06
  -8  -9  -6    2.38    2.00
   8   9   6    0.99    2.36
   8   9   6   -1.65    1.74
   8   9   6    2.14    1.75
  -9  -9  -6    5.63    1.65
  -9  -9  -6    6.90    1.58
  -9  -9  -6    8.51    2.69
  -9  -9  -6    9.59    2.26
   9   9   6    6.05    2.09
   9   9   6    6.42    2.10
   9   9   6    6.43    2.80
 -10  -9  -6   21.89    2.98
 -10  -9  -6   29.21    3.23
 -10  -9  -6   21.70    3.88
 -10  -9  -6   21.87    3.15
  10   9   6   19.60    3.47
  10   9   6   27.39    4.30
 -11  -9  -6    7.23    3.95
 -11  -9  -6    5.48    2.06
 -11  -9  -6    7.58    2.52
  11   9   6    9.30    2.95
  11   9   6    4.32    2.66
   5 -10  -6    1.14    2.41
  -5  10   6    4.63    4.80
   4 -10  -6   -1.57    2.02
  -4  10   6    7.86    3.90
  -4  10   6   -0.41    1.78
   3 -10  -6   -0.15    1.55
  -3  10   6   -1.39    1.57
  -3  10   6    4.39    3.35
  -3  10   6   -0.03    2.88
   2 -10  -6   -0.60    1.48
  -2  10   6   -2.33    2.09
  -2  10   6   -0.77    1.56
  -2  10   6    3.74    2.41
   1 -10  -6    0.60    1.27
  -1  10   6    1.44    2.44
  -1  10   6   -0.29    1.44
  -1  10   6    0.18    2.03
   0 -10  -6    0.90    0.56
   0 -10  -6    3.76    1.49
   0  10   6    2.06    2.14
   0  10   6    1.00    1.42
   0  10   6    0.47    1.73
  -1 -10  -6    1.13    1.16
  -1 -10  -6    2.86    2.18
  -1 -10  -6    3.56    0.53
   1  10   6    3.79    1.66
   1  10   6    5.94    2.21
   1  10   6    3.53    1.38
   1  10   6    3.06    0.73
  -2 -10  -6    3.39    2.09
  -2 -10  -6    3.13    1.37
  -2 -10  -6    3.96    0.69
   2  10   6    3.80    1.44
   2  10   6    3.88    1.53
  -3 -10  -6    8.06    2.50
  -3 -10  -6    5.72    0.91
  -3 -10  -6    6.14    1.60
   3  10   6    6.34    1.65
   3  10   6    5.72    1.67
   3  10   6    8.03    2.13
   3  10   6    5.37    2.21
   3  10   6    9.63    1.14
  -4 -10  -6    3.57    1.91
  -4 -10  -6    0.96    0.63
   4  10   6   -1.04    1.59
   4  10   6    0.45    0.64
   4  10   6    1.78    1.34
   4  10   6    0.69    1.96
   4  10   6    0.15    1.36
  -5 -10  -6   34.76    2.53
  -5 -10  -6   34.66    4.14
   5  10   6   28.87    3.97
   5  10   6   33.47    2.40
   5  10   6   32.57    3.55
   5  10   6   35.98    3.43
   5  10   6   26.21    4.18
  -6 -10  -6    3.78    0.99
  -6 -10  -6    4.77    2.45
   6  10   6    4.13    1.03
   6  10   6    5.18    1.73
   6  10   6    1.83    2.06
   6  10   6    3.74    2.17
   6  10   6    5.37    1.75
  -7 -10  -6    6.36    2.13
  -7 -10  -6    3.01    1.15
   7  10   6    4.77    2.26
   7  10   6    4.05    1.82
   7  10   6    2.10    1.66
   7  10   6    3.67    2.30
  -8 -10  -6    2.92    1.23
  -8 -10  -6    5.62    2.53
   8  10   6    2.92    1.93
   8  10   6    2.38    2.61
   8  10   6    0.91    1.91
  -9 -10  -6   13.05    3.21
  -9 -10  -6    9.75    1.91
   9  10   6   10.72    2.72
   9  10   6    3.57    3.04
 -10 -10  -6   -2.76    3.46
 -10 -10  -6    4.51    1.79
 -10 -10  -6    6.46    2.00
  10  10   6    9.61    3.31
  10  10   6    7.13    2.84
 -11 -10  -6    7.63    2.23
  11  10   6    6.07    3.32
   4 -11  -6    5.97    2.72
   3 -11  -6    4.93    2.69
  -3  11   6   -2.19    2.15
  -3  11   6   -2.00    3.86
   2 -11  -6    6.39    2.18
  -2  11   6    3.73    3.52
  -2  11   6    6.44    2.29
   1 -11  -6   11.68    2.18
   1 -11  -6    7.37    0.93
  -1  11   6   17.34    3.86
   0 -11  -6    0.79    1.43
   0 -11  -6    1.27    0.72
   0  11   6   -2.02    1.59
   0  11   6    0.01    0.67
   0  11   6    2.21    2.49
   0  11   6   -1.52    2.01
  -1 -11  -6    2.73    0.85
  -1 -11  -6    0.81    2.94
  -1 -11  -6    1.78    1.40
   1  11   6    2.27    0.74
   1  11   6    1.96    2.49
   1  11   6    3.50    1.83
   1  11   6    3.23    1.88
  -2 -11  -6    1.32    0.55
  -2 -11  -6    1.45    1.42
  -2 -11  -6    0.17    2.60
   2  11   6   -1.11    1.74
   2  11   6    5.06    1.73
   2  11   6    2.71    2.28
   2  11   6    1.24    0.65
   2  11   6    1.13    2.32
  -3 -11  -6   22.01    3.58
  -3 -11  -6   18.09    1.55
  -3 -11  -6   15.59    2.48
   3  11   6   13.90    3.09
   3  11   6   15.08    1.50
   3  11   6   15.64    2.45
   3  11   6    9.80    2.29
   3  11   6   17.80    3.66
  -4 -11  -6   10.59    2.91
  -4 -11  -6    7.48    1.84
  -4 -11  -6    7.64    1.15
   4  11   6    3.75    1.95
   4  11   6   10.97    2.81
   4  11   6    5.64    2.84
   4  11   6    5.10    0.96
  -5 -11  -6   19.26    2.70
  -5 -11  -6   13.65    1.71
  -5 -11  -6   12.91    2.99
   5  11   6   10.55    2.29
   5  11   6   13.20    3.00
   5  11   6   11.47    3.20
   5  11   6   14.37    1.61
  -6 -11  -6   11.75    2.06
  -6 -11  -6   15.30    3.07
  -6 -11  -6   12.73    1.79
   6  11   6    7.64    3.02
   6  11   6   13.10    2.60
   6  11   6    7.49    2.72
   6  11   6   10.89    2.41
  -7 -11  -6   12.84    2.17
  -7 -11  -6    8.51    3.09
  -7 -11  -6    9.60    1.59
   7  11   6    2.96    2.40
   7  11   6    6.97    2.81
   7  11   6    6.34    2.83
  -8 -11  -6    9.19    1.71
  -8 -11  -6    9.11    2.11
  -8 -11  -6   10.35    3.07
   8  11   6    6.53    3.03
   8  11   6   12.47    2.74
  -9 -11  -6    0.85    1.42
  -9 -11  -6    3.47    1.87
  -9 -11  -6   -4.28    3.05
   9  11   6   -4.21    2.64
   9  11   6   -0.70    3.26
 -10 -11  -6    2.66    2.05
 -10 -11  -6    0.58    1.89
  10  11   6    6.69    3.88
  10  11   6    0.95    3.33
   2 -12  -6    4.07    2.63
  -2  12   6    2.24    4.79
  -2  12   6   -2.18    3.02
   1 -12  -6    0.83    2.15
  -1  12   6   -4.88    3.77
  -1  12   6   -3.43    2.47
  -1  12   6    0.96    0.94
   0 -12  -6    0.05    2.00
   0 -12  -6    0.34    0.86
   0  12   6   -3.29    2.20
   0  12   6    1.18    0.82
   0  12   6    1.72    3.33
  -1 -12  -6    1.96    1.01
  -1 -12  -6    1.89    1.76
   1  12   6   -0.15    0.68
   1  12   6   -1.57    2.31
   1  12   6    0.60    3.09
   1  12   6    4.04    3.06
  -2 -12  -6    5.80    1.95
  -2 -12  -6    3.21    1.14
   2  12   6    4.86    2.29
   2  12   6    4.64    3.09
   2  12   6    3.35    3.05
   2  12   6    5.85    0.82
  -3 -12  -6    3.22    0.75
  -3 -12  -6    0.47    1.68
   3  12   6    3.05    0.73
   3  12   6    7.27    3.31
   3  12   6    0.10    2.94
  -4 -12  -6    0.42    1.48
  -4 -12  -6    1.19    0.90
  -4 -12  -6   -1.50    3.40
   4  12   6    4.36    3.13
   4  12   6    1.55    2.81
   4  12   6   -0.19    0.66
  -5 -12  -6    1.17    1.75
  -5 -12  -6    0.99    1.03
  -5 -12  -6    3.40    3.44
   5  12   6   -0.13    3.28
   5  12   6   -0.06    2.71
  -6 -12  -6    2.45    1.14
  -6 -12  -6   -2.28    1.65
  -6 -12  -6    2.78    3.16
   6  12   6    3.41    2.65
   6  12   6    2.18    3.39
  -7 -12  -6   -0.12    1.25
  -7 -12  -6    1.86    3.77
  -7 -12  -6    1.25    1.74
   7  12   6   -2.78    3.05
   7  12   6   -1.15    3.16
  -8 -12  -6    0.38    1.46
  -8 -12  -6   -0.86    1.89
   8  12   6   -6.75    3.17
  -9 -12  -6   -0.09    1.97
  -9 -12  -6    1.90    1.78
   9  12   6    1.78    4.22
 -10 -12  -6    2.80    2.48
 -10 -12  -6    1.69    2.32
  10  12   6    9.12    5.00
   0 -13  -6    4.36    2.78
   0  13   6    5.01    4.29
   0  13   6    5.45    4.94
  -1 -13  -6    2.09    2.19
  -1 -13  -6    1.24    1.32
   1  13   6   -5.31    3.78
   1  13   6   -5.64    3.78
  -2 -13  -6   -2.47    2.05
  -2 -13  -6   -0.61    1.23
   2  13   6    3.46    3.93
   2  13   6    1.33    3.66
  -3 -13  -6    1.91    2.08
   3  13   6    0.79    3.53
   3  13   6    6.52    3.97
  -4 -13  -6    0.35    2.06
  -4 -13  -6    0.61    0.93
   4  13   6    0.56    3.36
  -5 -13  -6    9.32    2.44
  -5 -13  -6    4.36    1.24
   5  13   6    5.72    3.70
   5  13   6    3.46    3.86
  -6 -13  -6   -0.63    1.97
   6  13   6    0.19    3.90
   6  13   6    5.65    3.55
  -7 -13  -6   33.01    3.40
  -7 -13  -6   31.19    4.06
   7  13   6   26.62    5.19
   7  13   6   26.70    5.42
  -8 -13  -6   21.28    3.26
  -8 -13  -6   18.10    2.95
   8  13   6   18.83    5.14
   8  13   6   17.55    5.36
  -3 -14  -6   -0.31    1.59
  -3 -14  -6   -0.72    2.70
   3  14   6    4.54    4.86
   3  14   6  -11.53    5.31
   4  14   6   -1.31    4.84
   4  14   6    4.29    5.46
  -5 -14  -6   -1.00    2.39
   5  14   6  -14.45    8.16
   5  14   6    7.46    4.67
  -6 -14  -6    2.15    2.51
   6  14   6   -0.95    4.15
   6   8  -7   -6.55    4.10
  -6  -8   7    3.04    2.46
   5   8  -7    5.08    2.72
   5   8  -7   -2.65    4.01
  -5  -8   7    1.79    2.14
   4   8  -7    6.64    3.86
   4   8  -7   -1.96    2.33
  -4  -8   7    0.17    1.91
   3   8  -7    1.96    3.59
  -3  -8   7    1.71    2.01
   2   8  -7   12.51    4.32
  -2  -8   7   20.38    4.76
  -2  -8   7   13.70    2.51
   1   8  -7   20.52    2.67
   1   8  -7   15.07    4.52
  -1  -8   7   25.22    3.56
  -1  -8   7   16.96    4.71
   0   8  -7   11.40    4.59
   0   8  -7   16.21    2.80
   0  -8   7   25.71    3.87
   0  -8   7   15.45    6.87
  -1   8  -7    4.84    4.27
   1  -8   7    4.78    3.48
   8   7  -7   13.27    4.64
   7   7  -7    4.38    4.62
  -7  -7   7    4.15    2.22
   6   7  -7    2.53    3.53
   6   7  -7    1.40    1.57
  -6  -7   7    2.34    1.68
   5   7  -7    6.94    1.83
   5   7  -7    5.47    3.47
  -5  -7   7    3.32    1.82
  -5  -7   7   13.00    3.97
   4   7  -7   -0.10    1.75
   4   7  -7   -0.54    3.06
  -4  -7   7   -1.53    3.01
  -4  -7   7    0.83    0.97
  -4  -7   7    2.55    1.60
  -4  -7   7   -1.00    3.15
   3   7  -7    1.95    1.61
   3   7  -7    1.88    1.88
   3   7  -7    1.41    2.89
  -3  -7   7   -1.34    3.15
  -3  -7   7    2.18    0.99
  -3  -7   7   -1.07    2.55
  -3  -7   7    1.74    1.60
   2   7  -7    3.26    2.78
   2   7  -7    1.20    1.66
   2   7  -7    2.04    1.92
  -2  -7   7   -3.94    2.67
  -2  -7   7   -1.36    1.41
  -2  -7   7    2.11    0.96
   1   7  -7    2.26    1.59
  -1  -7   7   -0.95    0.89
  -1  -7   7   -4.37    2.92
  -1  -7   7   -0.09    1.57
   0   7  -7    2.26    1.60
   0   7  -7   -1.70    3.03
   0  -7   7   -1.45    3.10
   0  -7   7    1.57    1.00
   0  -7   7   -0.01    1.58
  -1   7  -7    2.39    1.82
  -1   7  -7    3.60    3.34
   1  -7   7    5.04    3.37
   1  -7   7    7.51    2.05
  -2   7  -7    2.52    3.31
  -2   7  -7    8.17    3.51
  -2   7  -7    3.80    2.73
  -2   7  -7    2.08    2.01
   2  -7   7    1.72    2.11
  -3   7  -7    1.83    3.61
  -3   7  -7    4.57    3.58
   3  -7   7    1.69    2.47
   9   6  -7   -2.44    3.91
  -9  -6   7    6.53    2.24
   8   6  -7    1.54    3.67
  -8  -6   7    6.31    2.01
   7   6  -7    0.24    3.31
   7   6  -7    0.78    1.74
  -7  -6   7    5.63    1.85
   6   6  -7    2.27    3.00
  -6  -6   7    2.63    1.62
  -6  -6   7    6.58    3.40
   5   6  -7    0.47    1.46
   5   6  -7    3.57    3.00
   5   6  -7    1.07    1.40
  -5  -6   7   -0.92    3.12
  -5  -6   7    0.90    1.45
  -5  -6   7   -4.00    2.94
   4   6  -7    3.88    1.45
   4   6  -7    0.10    1.28
   4   6  -7    2.95    2.59
  -4  -6   7   -0.16    1.19
  -4  -6   7    2.74    2.67
  -4  -6   7   -0.28    2.61
   3   6  -7    7.91    1.67
   3   6  -7    6.35    2.72
   3   6  -7    4.37    1.46
  -3  -6   7    2.63    1.37
  -3  -6   7    4.05    0.93
  -3  -6   7    2.27    2.31
  -3  -6   7    5.39    2.47
   2   6  -7    5.85    1.52
   2   6  -7   11.12    1.93
   2   6  -7    3.82    2.43
  -2  -6   7    7.08    1.59
  -2  -6   7    7.10    2.44
  -2  -6   7    7.21    1.15
  -2  -6   7    5.14    2.20
   1   6  -7    5.77    2.45
   1   6  -7    3.67    1.38
   1   6  -7    8.85    1.88
  -1  -6   7    4.93    2.19
  -1  -6   7    7.05    1.52
  -1  -6   7    6.27    1.16
   0   6  -7   11.59    2.06
   0   6  -7    9.28    1.77
   0   6  -7    5.06    2.37
   0  -6   7    8.03    1.21
   0  -6   7    6.48    1.72
   0  -6   7   12.20    2.77
  -1   6  -7   12.18    4.82
  -1   6  -7   15.98    2.46
   1  -6   7   18.33    3.11
   1  -6   7   16.96    2.72
   1  -6   7   15.72    1.99
  -2   6  -7    2.00    1.47
  -2   6  -7    4.62    2.55
  -2   6  -7    2.73    2.14
  -2   6  -7    2.22    2.44
   2  -6   7    3.22    1.80
   2  -6   7    4.32    2.74
   2  -6   7   -0.42    1.16
  -3   6  -7    0.70    2.63
  -3   6  -7    0.59    2.42
  -3   6  -7   -1.89    2.46
  -3   6  -7    1.05    1.54
   3  -6   7    1.23    1.84
  -4   6  -7   13.68    3.51
  -4   6  -7   10.43    2.24
  -4   6  -7    1.38    3.35
  -4   6  -7    4.82    3.23
   4  -6   7    0.88    2.27
   9   5  -7    5.14    3.92
  -9  -5   7   -0.04    1.72
   8   5  -7    1.42    3.05
  -8  -5   7    1.69    1.59
   7   5  -7    2.67    0.84
   7   5  -7    1.25    2.73
  -7  -5   7   -9.34    4.85
  -7  -5   7   -0.04    1.35
   6   5  -7    8.50    1.71
   6   5  -7    6.35    1.20
   6   5  -7    4.14    2.55
  -6  -5   7    6.47    3.21
  -6  -5   7    8.21    3.04
  -6  -5   7    5.38    1.58
   5   5  -7    4.47    2.45
   5   5  -7    5.07    1.45
  -5  -5   7    8.19    1.59
  -5  -5   7    6.07    2.73
  -5  -5   7    9.51    2.98
   4   5  -7   14.43    1.97
   4   5  -7   18.89    2.03
   4   5  -7    9.09    2.72
  -4  -5   7   13.31    2.78
  -4  -5   7   16.24    2.18
  -4  -5   7   17.38    3.10
   3   5  -7   21.04    2.38
   3   5  -7   20.29    2.38
   3   5  -7   19.28    3.25
  -3  -5   7   18.46    2.24
  -3  -5   7   21.44    3.16
  -3  -5   7   26.44    3.91
   2   5  -7    3.42    2.09
   2   5  -7   -0.61    0.98
   2   5  -7   -0.01    1.20
  -2  -5   7    1.18    1.11
  -2  -5   7    2.07    1.80
  -2  -5   7   -0.43    1.73
   1   5  -7   -0.82    1.02
   1   5  -7   -1.74    1.14
   1   5  -7    2.29    1.92
  -1  -5   7    0.43    0.71
  -1  -5   7    4.73    1.70
  -1  -5   7   -0.55    0.86
  -1  -5   7    2.29    1.52
   0   5  -7    3.17    1.40
   0   5  -7    0.15    1.08
   0   5  -7    0.74    1.78
   0  -5   7    2.92    1.24
   0  -5   7    0.70    0.79
   0  -5   7    3.82    1.76
  -1   5  -7    0.21    1.00
  -1   5  -7   -0.03    1.69
  -1   5  -7    2.05    1.46
   1  -5   7   -0.80    0.85
   1  -5   7    0.37    1.10
  -2   5  -7   -0.31    1.25
  -2   5  -7    3.06    1.81
  -2   5  -7    1.82    1.88
  -2   5  -7   -1.90    1.80
  -2   5  -7    2.43    1.94
   2  -5   7    4.57    1.45
   2  -5   7    5.35    1.16
   2  -5   7   -0.92    1.86
  -3   5  -7    2.87    2.01
  -3   5  -7    2.30    1.97
  -3   5  -7    0.47    1.91
   3  -5   7   -0.63    1.04
   3  -5   7    1.04    1.51
  -4   5  -7   -3.01    2.23
  -4   5  -7    1.61    2.25
  -4   5  -7   -1.07    2.11
   4  -5   7   -1.79    1.64
  -5   5  -7    2.48    2.63
  -5   5  -7   -3.68    2.48
  -5   5  -7   -3.40    2.35
  -6   5  -7    1.62    3.66
  10   4  -7   13.35    3.25
  10   4  -7   19.46    4.53
   9   4  -7   -0.07    3.14
   9   4  -7   -0.06    1.63
   8   4  -7    9.56    3.40
  -8  -4   7    5.46    1.56
   7   4  -7    6.84    0.91
   7   4  -7    9.13    2.99
  -7  -4   7    6.48    1.47
  -7  -4   7    5.03    3.09
  -7  -4   7    6.34    3.16
   6   4  -7   14.15    1.49
   6   4  -7   11.58    2.94
   6   4  -7    9.52    1.78
  -6  -4   7   10.92    3.12
  -6  -4   7   12.97    2.01
  -6  -4   7   12.52    2.75
   5   4  -7    2.32    1.08
   5   4  -7    4.31    2.20
   5   4  -7    2.55    0.93
  -5  -4   7    2.02    1.28
  -5  -4   7   -2.68    2.05
  -5  -4   7    0.61    1.96
   4   4  -7   15.39    2.13
   4   4  -7   16.02    2.03
   4   4  -7   18.12    3.19
  -4  -4   7   23.95    3.88
  -4  -4   7   23.38    3.24
  -4  -4   7   16.07    2.32
   3   4  -7    5.59    1.32
   3   4  -7    7.95    1.25
  -3  -4   7    4.43    1.93
  -3  -4   7    6.18    1.28
  -3  -4   7    6.73    1.98
   2   4  -7    3.14    1.03
   2   4  -7    1.58    0.89
   2   4  -7    0.90    1.63
  -2  -4   7    3.79    1.53
  -2  -4   7    2.25    1.48
  -2  -4   7    2.05    0.91
   1   4  -7    6.77    2.04
   1   4  -7    9.17    1.38
   1   4  -7   10.69    1.62
  -1  -4   7   10.20    1.92
  -1  -4   7   10.58    1.29
  -1  -4   7    7.95    1.79
   0   4  -7   13.40    2.45
   0   4  -7   19.03    2.13
   0   4  -7   16.97    1.82
   0  -4   7   12.04    1.84
   0  -4   7   14.66    2.46
   0  -4   7   17.43    2.10
   0  -4   7   15.73    1.61
  -1   4  -7   28.04    2.28
  -1   4  -7   20.30    3.30
  -1   4  -7   19.02    2.57
   1  -4   7   25.87    2.85
   1  -4   7   24.19    2.06
   1  -4   7   25.43    2.46
  -2   4  -7   -0.20    1.61
  -2   4  -7    0.24    1.29
  -2   4  -7    0.84    1.60
   2  -4   7    0.63    0.79
   2  -4   7    0.67    1.35
   2  -4   7    0.32    1.18
  -3   4  -7    8.48    1.80
  -3   4  -7    6.24    1.95
  -3   4  -7    7.94    2.08
  -3   4  -7    4.20    1.65
  -3   4  -7    3.58    1.70
   3  -4   7    4.41    1.42
   3  -4   7    4.26    1.18
  -4   4  -7   -0.58    1.55
  -4   4  -7    0.00    1.78
  -4   4  -7    1.43    2.15
   4  -4   7    0.40    1.13
   4  -4   7   -0.75    1.41
  -5   4  -7   -0.64    1.75
  -5   4  -7   -1.17    2.26
  -5   4  -7   -0.54    1.88
  -6   4  -7   -0.78    1.59
  -6   4  -7    3.69    2.79
  -6   4  -7    4.76    2.02
  -6   4  -7    2.18    2.00
  -7   4  -7    2.97    1.97
  -7   4  -7   -2.99    3.07
  10   3  -7    0.12    3.13
  10   3  -7   -5.22    2.34
   9   3  -7   -1.45    1.21
   9   3  -7   -0.54    2.95
   9   3  -7   -1.56    1.84
   8   3  -7    5.25    2.63
   8   3  -7    4.95    1.45
   7   3  -7    4.97    0.79
   7   3  -7    4.50    2.11
   7   3  -7    4.05    1.50
  -7  -3   7    9.02    3.08
  -7  -3   7    5.24    3.04
  -7  -3   7    5.39    1.37
   6   3  -7    2.03    0.75
   6   3  -7    0.75    1.19
   6   3  -7    1.97    1.94
  -6  -3   7    0.99    0.92
  -6  -3   7    2.65    2.54
  -6  -3   7    1.42    2.46
   5   3  -7    1.24    1.64
   5   3  -7   -0.36    0.86
   5   3  -7    0.70    0.67
  -5  -3   7    0.79    1.82
  -5  -3   7   -0.43    0.80
  -5  -3   7   -1.67    2.04
   4   3  -7   65.84    3.88
   4   3  -7   61.19    4.03
   4   3  -7   55.92    5.29
  -4  -3   7   68.97    5.05
  -4  -3   7   65.49    5.35
  -4  -3   7   64.47    4.08
   3   3  -7   34.17    2.53
   3   3  -7   38.89    2.79
   3   3  -7   36.34    3.78
  -3  -3   7   32.34    2.65
  -3  -3   7   35.25    3.71
  -3  -3   7   37.82    3.53
   2   3  -7   -0.34    0.65
   2   3  -7   -0.03    0.72
   2   3  -7    1.83    1.39
  -2  -3   7    0.08    1.30
  -2  -3   7   -1.67    1.12
  -2  -3   7   -0.23    0.67
   1   3  -7   13.34    1.76
   1   3  -7   17.16    2.75
   1   3  -7   14.74    1.67
  -1  -3   7   18.00    1.83
  -1  -3   7   19.69    2.34
  -1  -3   7   15.46    1.51
  -1  -3   7   16.44    2.49
   0   3  -7    7.43    1.22
   0   3  -7    7.42    1.72
   0   3  -7    6.16    1.14
   0  -3   7    6.64    1.29
   0  -3   7    8.72    1.42
   0  -3   7    5.81    1.51
   0  -3   7    6.55    0.97
  -1   3  -7    8.44    1.59
  -1   3  -7    5.79    1.75
  -1   3  -7    7.64    1.34
   1  -3   7    7.65    1.37
   1  -3   7    5.65    0.99
   1  -3   7    6.25    1.04
   1  -3   7    8.23    1.36
  -2   3  -7    1.17    1.37
  -2   3  -7   -0.40    2.00
  -2   3  -7    1.03    0.93
  -2   3  -7    1.94    1.12
   2  -3   7    0.42    0.75
   2  -3   7    0.99    1.19
  -3   3  -7    0.63    1.47
  -3   3  -7    1.28    1.51
  -3   3  -7   -0.04    1.12
  -3   3  -7   -0.02    1.13
  -3   3  -7    2.05    1.07
   3  -3   7    0.75    1.05
   3  -3   7    1.79    0.89
  -4   3  -7    3.20    1.77
  -4   3  -7    4.59    1.46
  -4   3  -7    5.84    1.42
  -4   3  -7    4.91    1.68
  -4   3  -7    6.60    1.79
   4  -3   7    6.50    1.52
   4  -3   7    6.12    1.29
  -5   3  -7    0.73    1.57
  -5   3  -7   -0.21    1.31
  -5   3  -7    1.24    1.62
  -5   3  -7    2.10    2.02
  -5   3  -7    0.22    1.84
   5  -3   7    1.59    1.17
  -6   3  -7    2.59    1.71
  -6   3  -7    3.91    1.63
  -6   3  -7    1.03    2.10
  -7   3  -7   -0.23    1.63
  -7   3  -7   -1.50    2.39
  -7   3  -7    3.13    1.69
  -7   3  -7    2.07    1.93
   8  -3   7    2.41    3.06
  10   2  -7    3.26    2.61
  10   2  -7    1.14    3.07
   9   2  -7    2.83    2.24
   9   2  -7    0.09    0.95
   9   2  -7   -1.92    2.42
   9   2  -7    0.13    0.82
   8   2  -7    2.98    1.18
   8   2  -7    3.87    1.83
   8   2  -7    3.45    1.04
   8   2  -7    4.75    2.21
   8   2  -7    6.38    1.67
   7   2  -7    2.78    1.13
   7   2  -7    4.92    1.98
   7   2  -7    2.70    1.32
   7   2  -7    3.33    0.64
  -7  -2   7    0.79    2.44
  -7  -2   7    1.68    0.94
   6   2  -7   20.31    3.50
   6   2  -7   18.16    2.08
   6   2  -7   14.71    2.07
   6   2  -7   21.37    1.56
  -6  -2   7   18.75    1.91
  -6  -2   7   22.43    3.42
  -6  -2   7   21.37    3.34
   5   2  -7    5.85    1.86
   5   2  -7    6.62    1.32
   5   2  -7    7.02    1.27
  -5  -2   7    7.50    2.27
  -5  -2   7    4.68    1.97
  -5  -2   7    4.29    0.99
   4   2  -7   10.42    1.49
   4   2  -7    8.73    2.01
   4   2  -7    7.54    1.29
  -4  -2   7   11.08    2.13
  -4  -2   7    7.10    1.99
  -4  -2   7    6.82    1.14
   3   2  -7   -0.84    0.74
   3   2  -7   -0.78    1.17
  -3  -2   7    0.10    0.55
  -3  -2   7    0.43    1.31
  -3  -2   7    0.18    1.06
   2   2  -7    0.81    0.83
   2   2  -7    1.89    1.50
   2   2  -7    0.79    0.67
  -2  -2   7    1.09    0.69
  -2  -2   7    1.07    1.03
   1   2  -7   13.80    1.54
   1   2  -7   12.08    2.10
   1   2  -7   11.77    1.80
  -1  -2   7    9.15    1.53
  -1  -2   7   10.23    1.37
  -1  -2   7   13.24    2.18
   0   2  -7    8.22    1.76
   0   2  -7    6.75    1.36
   0  -2   7    6.40    1.22
   0  -2   7    7.50    1.05
   0  -2   7    7.19    1.22
   0  -2   7   12.12    1.94
  -1   2  -7    2.91    1.32
  -1   2  -7    3.32    1.20
  -1   2  -7    2.23    0.85
  -1   2  -7    3.48    0.80
   1  -2   7    2.72    0.85
   1  -2   7    3.57    0.78
   1  -2   7    3.33    0.97
   1  -2   7    2.59    0.83
  -2   2  -7    3.74    1.06
  -2   2  -7    6.61    1.14
  -2   2  -7    4.78    1.41
  -2   2  -7    6.10    1.56
   2  -2   7    5.70    1.01
   2  -2   7    4.89    1.19
   2  -2   7    5.00    1.00
  -3   2  -7   18.55    2.11
  -3   2  -7   17.46    2.57
  -3   2  -7   18.71    2.15
  -3   2  -7   16.99    2.38
   3  -2   7   18.28    1.76
   3  -2   7   17.70    1.98
  -4   2  -7    1.12    1.16
  -4   2  -7    3.10    1.25
  -4   2  -7    3.60    1.24
  -4   2  -7    2.94    1.49
   4  -2   7    2.47    0.96
  -5   2  -7    8.25    2.02
  -5   2  -7    6.57    1.74
  -5   2  -7    6.46    1.60
  -5   2  -7    7.02    1.16
  -5   2  -7    6.99    1.59
   5  -2   7    6.04    1.58
  -6   2  -7    3.21    1.11
  -6   2  -7   -0.32    1.45
  -6   2  -7    2.64    1.40
  -6   2  -7    3.52    1.94
  -6   2  -7    1.38    1.72
   6  -2   7    2.32    1.96
   6  -2   7    1.54    1.38
  -7   2  -7    1.45    1.47
  -7   2  -7   -0.10    1.37
  -7   2  -7    2.08    1.65
  -7   2  -7    2.70    2.10
  -7   2  -7    1.88    1.42
   7  -2   7   -0.77    1.95
  -8   2  -7   -0.49    2.46
  -8   2  -7   -1.71    1.76
   8  -2   7   -0.05    2.46
  10   1  -7    1.61    2.89
  10   1  -7   -0.66    2.27
   9   1  -7    2.97    2.17
   9   1  -7    2.38    2.39
   8   1  -7    1.93    1.83
   8   1  -7    5.17    0.79
   8   1  -7    7.71    2.32
   8   1  -7    6.59    1.67
   8   1  -7    4.95    0.87
  -8  -1   7    1.16    2.91
   7   1  -7    6.70    1.84
   7   1  -7    6.05    1.40
   7   1  -7    3.26    0.92
   7   1  -7    5.30    1.91
  -7  -1   7    2.79    2.41
  -7  -1   7    3.35    1.04
   6   1  -7   10.13    1.42
   6   1  -7    5.83    1.60
   6   1  -7    9.45    1.26
   6   1  -7    7.35    2.08
  -6  -1   7    7.47    2.45
  -6  -1   7    9.34    1.28
   5   1  -7    8.63    1.30
   5   1  -7    7.99    1.21
   5   1  -7    6.57    1.87
  -5  -1   7   11.10    2.55
  -5  -1   7    7.06    1.20
   4   1  -7   10.83    2.01
   4   1  -7   15.03    1.65
   4   1  -7   14.22    1.69
  -4  -1   7   16.81    2.73
  -4  -1   7   12.97    1.41
   3   1  -7   35.01    2.52
   3   1  -7   35.52    3.29
   3   1  -7   33.33    2.59
  -3  -1   7   32.32    2.33
  -3  -1   7   33.40    3.13
  -3  -1   7   38.36    3.62
   2   1  -7    5.29    1.50
   2   1  -7    6.21    1.02
   2   1  -7    6.54    1.17
  -2  -1   7    6.27    1.00
  -2  -1   7    6.25    1.80
  -2  -1   7    6.07    1.31
   1   1  -7   11.92    1.55
   1   1  -7    7.01    1.51
   1   1  -7   12.27    1.29
  -1  -1   7    9.73    1.45
  -1  -1   7    9.64    1.22
  -1  -1   7   10.61    1.83
   0   1  -7  144.54    8.60
   0   1  -7  140.17    8.68
   0   1  -7  146.58    8.32
   0  -1   7  142.68    7.93
   0  -1   7  149.01    8.45
   0  -1   7  164.37    8.08
   0  -1   7  149.59    8.03
  -1   1  -7   90.04    5.64
  -1   1  -7   83.69    5.38
  -1   1  -7   92.30    5.12
   1  -1   7   88.40    4.91
   1  -1   7   84.76    5.25
   1  -1   7   82.06    4.96
   1  -1   7   95.35    5.17
  -2   1  -7   13.19    2.02
  -2   1  -7   10.26    1.47
  -2   1  -7   13.42    1.93
   2  -1   7   14.18    1.52
   2  -1   7   12.20    1.10
   2  -1   7   11.99    1.38
   2  -1   7   12.24    1.32
  -3   1  -7    0.65    0.93
  -3   1  -7   -0.48    0.94
  -3   1  -7   -0.32    0.76
   3  -1   7    0.21    0.84
   3  -1   7    0.11    0.63
  -4   1  -7    5.52    1.48
  -4   1  -7    5.58    1.40
  -4   1  -7    6.87    1.26
  -4   1  -7    5.31    1.24
   4  -1   7    4.98    1.07
   4  -1   7    5.57    1.39
  -5   1  -7   12.36    1.99
  -5   1  -7    8.76    1.57
  -5   1  -7   10.13    1.71
   5  -1   7   13.63    2.09
   5  -1   7    7.94    1.40
  -6   1  -7    0.64    1.54
  -6   1  -7   -1.95    1.13
  -6   1  -7   -0.69    1.26
  -6   1  -7    1.30    1.09
  -6   1  -7    0.43    1.37
   6  -1   7    2.73    1.52
   6  -1   7    0.22    1.03
  -7   1  -7    6.31    1.80
  -7   1  -7    6.80    1.64
  -7   1  -7    5.64    1.38
  -7   1  -7    8.14    2.18
  -7   1  -7    6.01    1.47
  -7   1  -7    6.88    1.08
   7  -1   7    2.12    2.02
  -8   1  -7   -0.44    2.27
  -8   1  -7   -0.11    1.26
  -8   1  -7    3.67    1.42
  -8   1  -7    7.57    1.68
   8  -1   7    3.12    2.25
  -9   1  -7    0.70    2.60
  -9   1  -7    4.47    2.01
   9  -1   7    1.14    2.29
  10   0  -7   14.35    3.44
   9   0  -7    3.99    2.27
   9   0  -7    2.06    2.39
   8   0  -7    0.54    0.58
   8   0  -7    1.47    1.63
   8   0  -7    2.14    1.44
  -8   0   7    5.19    2.90
   7   0  -7    6.94    1.03
   7   0  -7    8.90    1.83
   7   0  -7    6.54    1.99
   7   0  -7    5.70    1.44
   7   0  -7    6.71    1.07
  -7   0   7    8.58    1.33
  -7   0   7    7.34    2.55
   6   0  -7   42.70    2.65
   6   0  -7   35.91    3.25
   6   0  -7   42.97    3.77
   6   0  -7   40.81    3.00
  -6   0   7   39.16    4.41
  -6   0   7   40.11    2.63
   5   0  -7   32.55    2.34
   5   0  -7   36.14    2.43
   5   0  -7   28.97    2.60
   5   0  -7   28.68    3.21
  -5   0   7   28.61    2.14
  -5   0   7   36.67    3.69
   4   0  -7   19.69    1.86
   4   0  -7   23.80    2.82
   4   0  -7   22.13    1.85
  -4   0   7   19.95    2.94
  -4   0   7   20.07    1.65
   3   0  -7    6.02    1.11
   3   0  -7    6.28    1.01
   3   0  -7    3.77    1.51
  -3   0   7    5.93    0.96
  -3   0   7    6.18    1.55
   2   0  -7    9.65    1.70
   2   0  -7    8.10    1.21
   2   0  -7    7.16    1.05
  -2   0   7    8.73    1.82
  -2   0   7    6.67    1.01
   1   0  -7   14.19    1.52
   1   0  -7   17.51    1.79
   1   0  -7   15.44    2.19
  -1   0   7   18.63    1.47
  -1   0   7   18.53    2.19
  -1   0   7   17.47    1.82
   0   0  -7   -0.12    0.85
   0   0  -7   -1.26    0.77
   0   0  -7    0.22    0.78
   0   0  -7    0.24    0.41
   0   0   7   -0.06    0.54
   0   0   7   -0.97    0.82
   0   0   7    0.10    0.45
  -1   0  -7    2.27    0.73
  -1   0  -7    1.26    0.82
  -1   0  -7    2.10    1.02
  -1   0  -7    1.96    1.04
   1   0   7    2.90    0.73
   1   0   7    2.28    0.93
   1   0   7    2.55    0.59
   1   0   7    2.48    0.60
  -2   0  -7    2.26    0.74
  -2   0  -7    1.69    0.91
  -2   0  -7    2.75    1.13
   2   0   7    3.86    0.86
   2   0   7    0.88    0.58
   2   0   7    2.17    0.67
  -3   0  -7   82.10    5.08
  -3   0  -7   75.26    4.67
  -3   0  -7   78.63    5.02
   3   0   7   81.05    4.65
  -4   0  -7    0.88    0.73
  -4   0  -7   -0.62    0.99
  -4   0  -7   -0.07    0.88
   4   0   7    0.47    0.72
   4   0   7    0.21    0.97
  -5   0  -7    9.83    1.57
  -5   0  -7   10.57    1.59
  -5   0  -7   10.84    1.79
   5   0   7   10.57    1.54
   5   0   7    7.87    1.59
  -6   0  -7   26.72    2.48
  -6   0  -7   28.92    2.57
  -6   0  -7   22.14    2.42
  -6   0  -7   20.79    2.34
   6   0   7   23.32    2.43
  -7   0  -7   27.32    2.75
  -7   0  -7   30.39    2.99
  -7   0  -7   27.47    2.62
  -7   0  -7   31.90    3.51
  -7   0  -7   27.35    2.98
  -7   0  -7   33.65    3.01
   7   0   7   33.67    2.99
   7   0   7   29.49    3.41
  -8   0  -7   -0.50    1.92
  -8   0  -7    0.00    1.95
  -8   0  -7    2.52    1.37
   8   0   7    5.69    2.00
  -9   0  -7   -3.12    1.58
  -9   0  -7    3.23    2.36
  -9   0  -7   -0.25    1.60
   9   0   7    3.90    2.12
 -10   0  -7    1.15    2.38
 -10   0  -7   13.18    3.37
  10   0   7    7.04    2.63
  10  -1  -7   -3.42    2.42
   9  -1  -7    1.05    1.90
   9  -1  -7    0.12    2.07
   9  -1  -7    1.64    1.82
   9  -1  -7    0.53    0.63
   8  -1  -7    9.89    2.14
   8  -1  -7    8.63    1.32
   8  -1  -7   10.04    1.70
   8  -1  -7    4.98    2.13
  -8   1   7    7.72    1.14
  -8   1   7   12.25    3.37
   7  -1  -7    0.28    1.11
   7  -1  -7    1.28    1.28
   7  -1  -7   -0.18    1.48
   7  -1  -7   -1.48    0.68
  -7   1   7    0.28    0.62
  -7   1   7    2.11    2.16
   6  -1  -7   12.64    1.92
   6  -1  -7    9.79    2.12
   6  -1  -7    9.58    1.14
   6  -1  -7   12.08    1.64
  -6   1   7    9.62    2.59
  -6   1   7    8.93    1.12
   5  -1  -7    1.40    1.30
   5  -1  -7    2.95    1.07
   5  -1  -7    3.24    0.84
   5  -1  -7    2.96    0.71
  -5   1   7    2.26    0.61
  -5   1   7    4.71    1.75
   4  -1  -7   -0.31    0.99
   4  -1  -7    2.30    0.77
   4  -1  -7    1.88    0.94
   4  -1  -7    2.93    0.79
  -4   1   7    2.81    1.49
  -4   1   7    2.39    0.51
   3  -1  -7   38.48    2.64
   3  -1  -7   44.06    3.45
   3  -1  -7   40.24    2.74
   3  -1  -7   43.03    2.77
  -3   1   7   41.31    3.71
  -3   1   7   41.65    2.50
   2  -1  -7   -1.60    0.81
   2  -1  -7   -0.32    0.65
   2  -1  -7    0.84    0.52
   2  -1  -7    0.18    0.43
  -2   1   7    0.09    0.44
  -2   1   7    0.36    0.94
   1  -1  -7    0.44    0.84
   1  -1  -7    0.24    0.55
   1  -1  -7    0.34    0.45
  -1   1   7    0.32    0.40
  -1   1   7   -0.18    0.90
   0  -1  -7   72.59    3.83
   0  -1  -7   70.00    4.41
   0  -1  -7   73.64    4.75
   0  -1  -7   71.56    4.07
   0   1   7   69.68    4.06
   0   1   7   73.34    4.70
  -1  -1  -7    7.84    1.43
  -1  -1  -7    7.54    1.24
  -1  -1  -7    5.91    1.00
  -1  -1  -7    9.32    1.09
   1   1   7    7.57    1.31
   1   1   7    8.06    1.05
   1   1   7    8.13    1.06
   1   1   7    8.17    0.87
  -2  -1  -7   10.81    1.68
  -2  -1  -7   10.17    1.57
  -2  -1  -7    7.64    1.13
  -2  -1  -7   10.37    1.59
   2   1   7    7.85    1.11
   2   1   7   10.33    1.49
   2   1   7    9.09    1.12
  -3  -1  -7   10.83    1.68
  -3  -1  -7   12.04    1.36
  -3  -1  -7   10.57    1.74
   3   1   7   10.04    1.27
   3   1   7   10.31    1.32
   3   1   7   14.04    1.48
  -4  -1  -7    3.20    1.00
  -4  -1  -7    2.88    0.78
  -4  -1  -7    2.11    1.05
   4   1   7    4.32    1.02
   4   1   7    3.49    0.86
  -5  -1  -7   -0.98    0.81
  -5  -1  -7    0.98    0.68
  -5  -1  -7    0.76    1.08
   5   1   7   -0.22    0.73
   5   1   7   -0.76    0.93
  -6  -1  -7    7.45    1.33
  -6  -1  -7    8.35    1.39
  -6  -1  -7    8.15    1.44
  -6  -1  -7    5.00    1.60
   6   1   7    7.64    1.56
   6   1   7    7.10    1.42
  -7  -1  -7    8.65    1.47
  -7  -1  -7   11.08    2.40
  -7  -1  -7    9.84    1.60
  -7  -1  -7   10.48    1.67
  -7  -1  -7    5.84    1.43
  -7  -1  -7    8.48    1.37
   7   1   7   10.36    1.67
   7   1   7   12.14    2.34
  -8  -1  -7    1.83    1.57
  -8  -1  -7    0.77    1.40
  -8  -1  -7    1.84    1.69
  -8  -1  -7    2.98    1.44
  -8  -1  -7    1.86    1.25
   8   1   7    2.00    1.68
  -9  -1  -7    2.81    2.25
  -9  -1  -7    1.95    1.16
  -9  -1  -7    0.73    0.99
  -9  -1  -7    1.18    1.49
  -9  -1  -7   -2.36    1.85
   9   1   7    0.63    1.81
 -10  -1  -7    1.40    2.03
 -10  -1  -7    1.52    2.89
  10   1   7    2.63    2.14
  10  -2  -7    2.06    2.66
   9  -2  -7    2.56    1.84
   9  -2  -7    4.43    2.78
   9  -2  -7    2.11    1.02
  -9   2   7    3.04    0.81
   8  -2  -7   12.32    1.74
   8  -2  -7   10.18    1.79
   8  -2  -7   14.58    2.71
   8  -2  -7   10.80    1.94
  -8   2   7    5.25    3.07
  -8   2   7    8.13    1.17
   7  -2  -7    4.05    0.98
   7  -2  -7    6.36    1.76
   7  -2  -7    4.84    1.23
   7  -2  -7    4.03    1.58
  -7   2   7    4.26    0.69
  -7   2   7    2.11    2.61
   6  -2  -7    0.60    0.81
   6  -2  -7   -0.45    0.85
   6  -2  -7    1.01    1.32
   6  -2  -7    0.77    1.21
  -6   2   7    2.14    1.90
  -6   2   7    0.87    0.47
   5  -2  -7    5.88    0.83
   5  -2  -7    5.47    1.52
   5  -2  -7    6.36    1.36
   5  -2  -7    6.44    0.99
  -5   2   7    6.44    0.76
  -5   2   7    3.60    1.70
   4  -2  -7   34.44    2.38
   4  -2  -7   32.62    2.51
   4  -2  -7   32.22    3.12
   4  -2  -7   36.50    2.43
  -4   2   7   36.80    2.07
  -4   2   7   33.47    3.52
   3  -2  -7    0.88    1.07
   3  -2  -7   -0.21    0.55
   3  -2  -7   -0.16    0.60
   3  -2  -7    0.68    0.53
  -3   2   7    0.48    1.22
  -3   2   7    0.61    0.35
   2  -2  -7   29.75    2.02
   2  -2  -7   29.23    1.72
   2  -2  -7   30.22    2.74
   2  -2  -7   27.27    2.15
  -2   2   7   26.50    1.77
   1  -2  -7   55.39    3.53
   1  -2  -7   52.17    3.92
  -1   2   7   60.43    4.07
  -1   2   7   56.23    3.17
   0  -2  -7   28.67    2.26
   0  -2  -7   26.10    2.53
   0  -2  -7   28.44    1.87
   0   2   7   29.74    2.62
   0   2   7   28.98    1.88
  -1  -2  -7   14.05    1.58
  -1  -2  -7   10.99    1.63
  -1  -2  -7   10.49    1.08
   1   2   7   11.08    1.20
   1   2   7   12.69    1.79
   1   2   7   11.40    1.32
   1   2   7   12.13    1.11
  -2  -2  -7    1.79    0.57
  -2  -2  -7    2.18    0.85
  -2  -2  -7    2.45    1.03
   2   2   7    2.40    0.80
   2   2   7    3.26    0.68
   2   2   7    3.16    0.90
  -3  -2  -7   15.40    1.76
  -3  -2  -7   13.25    1.31
  -3  -2  -7   11.29    1.61
   3   2   7   13.13    1.60
   3   2   7   13.12    1.40
   3   2   7   12.99    1.62
   3   2   7   13.58    1.34
  -4  -2  -7   30.32    2.16
  -4  -2  -7   25.55    2.43
  -4  -2  -7   27.73    2.57
   4   2   7   28.48    2.00
   4   2   7   27.73    2.17
   4   2   7   29.03    2.19
   4   2   7   27.56    1.99
  -5  -2  -7    1.30    0.88
  -5  -2  -7   -0.80    0.57
  -5  -2  -7    0.08    1.04
   5   2   7    0.69    0.72
   5   2   7    0.41    0.66
  -6  -2  -7    2.43    1.24
  -6  -2  -7    0.64    0.87
  -6  -2  -7    2.45    0.96
  -6  -2  -7    0.70    0.79
   6   2   7   -0.75    0.94
   6   2   7    1.22    0.82
  -7  -2  -7    1.55    1.31
  -7  -2  -7    3.12    1.13
  -7  -2  -7    1.20    0.95
  -7  -2  -7    2.09    1.01
   7   2   7   -0.01    1.08
   7   2   7    1.72    1.07
  -8  -2  -7   -0.70    1.19
  -8  -2  -7    2.23    1.82
  -8  -2  -7    1.83    1.26
  -8  -2  -7    3.88    1.48
  -8  -2  -7   -0.84    1.17
   8   2   7    1.10    1.49
   8   2   7    3.67    1.32
  -9  -2  -7    6.97    1.18
  -9  -2  -7    6.60    2.19
  -9  -2  -7    8.80    1.91
  -9  -2  -7    5.26    1.18
  -9  -2  -7    7.47    1.76
   9   2   7    4.02    2.13
 -10  -2  -7   15.06    2.56
 -10  -2  -7   20.54    2.80
 -10  -2  -7   16.51    2.72
 -10  -2  -7   15.69    3.11
  10   2   7   13.66    3.26
  11   2   7    2.04    2.70
   9  -3  -7    3.23    1.76
   9  -3  -7   -2.30    2.17
   9  -3  -7    0.42    1.25
   8  -3  -7    0.45    2.09
   8  -3  -7   -1.24    1.14
   8  -3  -7    3.76    1.49
  -8   3   7    2.18    3.26
   7  -3  -7    1.28    1.04
   7  -3  -7    4.73    1.77
   7  -3  -7    2.88    1.01
  -7   3   7    2.32    2.27
   6  -3  -7    2.28    0.93
   6  -3  -7    1.45    1.24
   6  -3  -7    1.76    1.41
   6  -3  -7    1.91    0.87
  -6   3   7   -2.67    1.71
   5  -3  -7    1.17    1.11
   5  -3  -7    1.27    1.05
   5  -3  -7    1.28    0.52
   5  -3  -7    1.48    0.75
  -5   3   7    1.57    1.63
   4  -3  -7    2.24    0.91
   4  -3  -7    1.34    0.67
   4  -3  -7    3.65    1.22
   4  -3  -7    1.65    0.66
  -4   3   7    2.25    0.34
  -4   3   7    4.35    1.65
   3  -3  -7   27.71    1.96
   3  -3  -7   21.02    1.79
   3  -3  -7   25.90    2.61
   3  -3  -7   26.54    1.89
  -3   3   7   25.49    1.46
  -3   3   7   24.32    2.77
   2  -3  -7   31.85    1.88
   2  -3  -7   32.31    2.86
   2  -3  -7   32.83    2.15
   2  -3  -7   31.37    2.32
  -2   3   7   30.94    3.00
   1  -3  -7    4.17    1.21
   1  -3  -7    4.11    0.90
  -1   3   7    2.83    0.70
  -1   3   7    4.32    1.32
   0  -3  -7   17.18    1.66
   0  -3  -7   16.38    1.96
   0  -3  -7   17.00    1.24
   0   3   7   16.93    1.58
   0   3   7   16.24    1.71
   0   3   7   15.99    2.02
  -1  -3  -7    3.07    0.92
  -1  -3  -7    2.06    0.97
  -1  -3  -7    3.62    0.62
   1   3   7    2.43    0.67
   1   3   7    3.46    0.86
   1   3   7    3.23    1.04
  -2  -3  -7   21.21    1.58
  -2  -3  -7   19.72    2.09
  -2  -3  -7   23.02    2.11
   2   3   7   23.06    2.14
   2   3   7   19.93    1.38
   2   3   7   22.43    1.94
   2   3   7   20.53    1.67
  -3  -3  -7    2.58    0.62
  -3  -3  -7    3.50    1.02
  -3  -3  -7    3.92    1.00
   3   3   7    2.54    0.68
   3   3   7    2.59    0.70
   3   3   7    3.11    0.94
  -4  -3  -7    4.72    1.16
  -4  -3  -7    4.76    1.21
  -4  -3  -7    4.12    0.91
   4   3   7    5.04    0.94
   4   3   7    2.53    0.77
   4   3   7    3.10    0.92
   4   3   7    4.34    1.00
   4   3   7    3.86    1.00
  -5  -3  -7   15.59    1.90
  -5  -3  -7   16.72    2.14
  -5  -3  -7   14.25    1.62
   5   3   7   18.99    1.55
   5   3   7   19.86    2.01
   5   3   7   15.42    1.76
   5   3   7   18.53    1.72
   5   3   7   16.17    1.55
  -6  -3  -7    2.17    0.83
  -6  -3  -7    4.03    0.91
  -6  -3  -7    4.23    1.29
  -6  -3  -7    2.82    0.93
   6   3   7    4.34    1.11
   6   3   7    3.51    0.95
   6   3   7    3.91    1.21
  -7  -3  -7    5.53    1.30
  -7  -3  -7    5.93    1.30
  -7  -3  -7    4.15    1.52
  -7  -3  -7    6.34    1.26
   7   3   7    2.36    1.31
   7   3   7    4.95    1.28
   7   3   7    5.06    1.43
  -8  -3  -7   -0.13    0.56
  -8  -3  -7    2.68    1.69
  -8  -3  -7   -1.91    1.03
  -8  -3  -7    0.04    1.04
   8   3   7    1.68    1.51
   8   3   7   -0.48    1.12
  -9  -3  -7    2.70    1.89
  -9  -3  -7    0.14    1.35
  -9  -3  -7   -1.01    0.98
  -9  -3  -7    0.74    1.48
  -9  -3  -7   -0.31    1.03
   9   3   7    0.74    1.73
 -10  -3  -7    0.01    1.54
 -10  -3  -7   -1.56    1.74
 -10  -3  -7    5.81    1.99
 -10  -3  -7    0.19    1.55
 -10  -3  -7   -0.94    2.23
  10   3   7   -0.69    2.00
 -11  -3  -7    5.59    2.99
 -11  -3  -7   -3.11    2.19
 -11  -3  -7    1.99    2.65
  11   3   7    3.07    2.80
   9  -4  -7    6.36    2.61
   9  -4  -7   11.88    2.00
   8  -4  -7    3.82    1.49
   8  -4  -7    2.05    1.48
   8  -4  -7    7.07    2.50
   7  -4  -7    2.85    1.15
   7  -4  -7    2.10    1.14
   7  -4  -7    3.67    1.88
  -7   4   7    2.63    2.72
   6  -4  -7   -0.75    1.20
   6  -4  -7   -0.26    0.80
   6  -4  -7   -0.80    0.91
  -6   4   7    3.94    2.31
   5  -4  -7    5.18    1.35
   5  -4  -7    5.13    1.21
   5  -4  -7    3.29    0.86
  -5   4   7    3.29    1.80
   4  -4  -7    4.16    0.74
   4  -4  -7    2.71    1.10
   4  -4  -7    3.15    1.04
   4  -4  -7    4.17    0.78
  -4   4   7    3.46    1.66
   3  -4  -7   40.22    3.13
   3  -4  -7   40.72    2.58
   3  -4  -7   42.31    2.68
   3  -4  -7   42.08    2.72
  -3   4   7   39.02    3.69
  -3   4   7   40.62    2.61
   2  -4  -7   29.77    2.05
   2  -4  -7   33.48    2.74
   2  -4  -7   28.64    2.24
  -2   4   7   32.53    3.10
  -2   4   7   31.66    3.01
  -2   4   7   30.92    2.21
   1  -4  -7   17.58    1.63
   1  -4  -7   15.11    1.88
  -1   4   7   16.57    2.00
  -1   4   7   15.22    1.49
   0  -4  -7  112.60    6.70
   0  -4  -7  113.24    6.45
   0  -4  -7  114.50    6.00
   0   4   7  109.73    6.57
   0   4   7  122.28    6.95
   0   4   7  118.67    6.45
  -1  -4  -7   78.61    5.01
  -1  -4  -7   80.66    4.91
  -1  -4  -7   83.58    4.43
   1   4   7   78.53    4.74
   1   4   7   82.90    4.84
   1   4   7   85.47    5.20
  -2  -4  -7   60.91    3.98
  -2  -4  -7   59.23    3.92
  -2  -4  -7   61.29    3.46
   2   4   7   58.52    4.06
   2   4   7   58.26    3.58
   2   4   7   62.41    3.86
   2   4   7   59.71    3.54
  -3  -4  -7    3.25    1.02
  -3  -4  -7    4.14    0.73
  -3  -4  -7    4.73    1.10
   3   4   7    5.13    0.82
   3   4   7    5.78    0.95
   3   4   7    5.44    0.81
   3   4   7    5.08    1.20
  -4  -4  -7   -0.48    0.77
  -4  -4  -7    1.10    0.52
  -4  -4  -7    1.14    0.76
   4   4   7    1.48    0.68
   4   4   7    1.31    0.93
   4   4   7    1.24    0.61
   4   4   7   -0.41    0.77
   4   4   7    1.66    0.82
  -5  -4  -7    0.47    0.96
  -5  -4  -7    0.93    0.60
   5   4   7    0.02    0.91
   5   4   7    0.52    0.68
   5   4   7    0.98    0.82
   5   4   7    0.54    0.81
   5   4   7    1.25    0.76
  -6  -4  -7   -0.46    0.65
  -6  -4  -7    0.36    0.82
  -6  -4  -7    1.00    1.13
  -6  -4  -7    0.60    0.74
   6   4   7    0.81    0.68
   6   4   7    0.62    0.95
   6   4   7    0.67    1.04
   6   4   7   -0.67    0.67
   6   4   7    0.14    0.78
  -7  -4  -7    6.57    1.21
  -7  -4  -7    7.95    1.71
  -7  -4  -7    7.68    2.01
  -7  -4  -7    5.42    0.95
  -7  -4  -7    7.54    1.26
   7   4   7    7.61    1.56
   7   4   7    8.76    1.64
  -8  -4  -7   11.89    1.89
  -8  -4  -7    7.87    2.25
  -8  -4  -7   13.00    1.49
  -8  -4  -7   14.18    2.01
  -8  -4  -7    9.82    1.65
   8   4   7    8.70    1.63
   8   4   7   12.60    1.93
   8   4   7   15.55    2.58
  -9  -4  -7    0.30    1.45
  -9  -4  -7    3.21    1.69
  -9  -4  -7    2.35    1.43
  -9  -4  -7    3.83    1.51
  -9  -4  -7    5.00    1.29
   9   4   7    3.41    1.95
   9   4   7    3.64    1.73
 -10  -4  -7    2.52    1.65
 -10  -4  -7    4.03    1.75
 -10  -4  -7    2.22    1.78
 -10  -4  -7    4.68    2.17
  10   4   7    3.70    2.44
 -11  -4  -7   17.51    3.38
 -11  -4  -7   15.65    2.76
 -11  -4  -7   11.20    2.52
  11   4   7   11.60    3.28
   9  -5  -7    3.90    2.88
   8  -5  -7    3.13    2.11
  -8   5   7    4.70    4.19
   7  -5  -7    2.54    1.22
   7  -5  -7    1.11    1.26
   7  -5  -7    3.42    2.06
  -7   5   7    7.22    3.37
  -7   5   7    4.53    3.07
   6  -5  -7    5.48    1.74
   6  -5  -7    5.74    1.09
   6  -5  -7    3.83    1.25
  -6   5   7    3.56    2.47
  -6   5   7    4.77    2.29
   5  -5  -7    1.43    1.34
   5  -5  -7   -0.27    0.91
   5  -5  -7    0.66    0.70
  -5   5   7    2.52    2.07
  -5   5   7    3.25    2.15
   4  -5  -7    8.42    1.41
   4  -5  -7   11.23    1.18
   4  -5  -7   10.26    1.71
  -4   5   7    9.79    1.14
  -4   5   7    8.22    2.12
  -4   5   7    9.01    2.23
   3  -5  -7    0.26    0.54
   3  -5  -7    1.28    0.69
   3  -5  -7    1.56    0.81
  -3   5   7    1.98    1.45
  -3   5   7    0.95    0.63
  -3   5   7    2.57    1.41
   2  -5  -7    9.79    1.05
   2  -5  -7    8.36    1.36
  -2   5   7   10.67    1.32
  -2   5   7    8.02    1.80
  -2   5   7    9.29    1.74
   1  -5  -7    1.71    0.69
  -1   5   7    2.52    0.68
  -1   5   7    1.42    0.99
  -1   5   7    0.30    1.09
  -1   5   7    2.56    0.69
   0  -5  -7    3.01    0.45
   0  -5  -7    4.37    1.00
   0   5   7    2.52    0.96
   0   5   7    4.38    0.96
   0   5   7    4.30    1.49
   0   5   7    3.86    0.58
  -1  -5  -7   47.21    2.57
  -1  -5  -7   43.90    3.08
   1   5   7   43.27    3.02
   1   5   7   43.02    3.12
   1   5   7   43.61    3.40
  -2  -5  -7    1.68    0.86
  -2  -5  -7    3.20    0.57
   2   5   7    3.12    1.12
   2   5   7    1.68    0.60
   2   5   7    2.20    0.47
   2   5   7    2.00    0.88
   2   5   7    2.11    0.75
  -3  -5  -7   45.68    3.45
  -3  -5  -7   51.62    2.99
   3   5   7   53.38    3.53
   3   5   7   47.60    3.55
   3   5   7   49.98    3.13
   3   5   7   48.64    3.10
   3   5   7   48.68    2.94
  -4  -5  -7    5.08    0.90
  -4  -5  -7    6.65    1.00
  -4  -5  -7    4.70    1.21
   4   5   7    6.65    1.36
   4   5   7    5.95    0.95
   4   5   7    5.58    0.97
   4   5   7    5.77    0.92
   4   5   7    8.01    1.36
  -5  -5  -7   17.41    1.51
  -5  -5  -7   20.87    1.68
  -5  -5  -7   17.87    1.75
  -5  -5  -7   18.89    2.21
   5   5   7   16.28    1.72
   5   5   7   14.83    1.78
   5   5   7   18.61    2.09
   5   5   7   19.24    2.11
   5   5   7   17.96    2.24
  -6  -5  -7    7.47    1.20
  -6  -5  -7   10.11    1.39
  -6  -5  -7    7.18    1.50
  -6  -5  -7    7.44    1.33
   6   5   7    8.65    1.47
   6   5   7    7.48    1.29
   6   5   7    5.60    1.25
   6   5   7    7.43    1.31
   6   5   7    8.01    1.48
  -7  -5  -7   40.49    3.39
  -7  -5  -7   34.18    2.56
  -7  -5  -7   36.42    2.88
  -7  -5  -7   40.24    2.87
   7   5   7   38.27    2.80
   7   5   7   28.14    2.97
   7   5   7   44.44    2.69
   7   5   7   32.30    3.25
   7   5   7   38.65    3.02
  -8  -5  -7    1.31    1.47
  -8  -5  -7   -1.65    1.03
  -8  -5  -7    0.86    1.09
  -8  -5  -7    1.95    1.02
  -8  -5  -7    1.21    1.00
   8   5   7   -0.41    0.97
   8   5   7    2.80    1.42
  -9  -5  -7    3.84    1.91
  -9  -5  -7    0.44    1.35
  -9  -5  -7    0.37    1.22
  -9  -5  -7    0.24    1.24
  -9  -5  -7    2.89    1.43
   9   5   7    2.51    1.69
   9   5   7   -2.69    1.68
 -10  -5  -7    0.49    1.45
 -10  -5  -7   -1.38    1.98
  10   5   7   -0.48    1.89
  10   5   7    2.17    1.98
 -11  -5  -7    1.03    2.69
 -11  -5  -7   -0.17    1.93
  11   5   7    1.72    2.10
   8  -6  -7    0.82    2.04
   8  -6  -7   -1.98    2.63
  -8   6   7   -3.13    4.21
   7  -6  -7    4.92    1.26
   7  -6  -7    1.25    2.26
   7  -6  -7    6.67    1.87
  -7   6   7    0.80    3.63
   6  -6  -7    4.28    0.99
   6  -6  -7    2.01    1.38
   6  -6  -7    4.10    1.96
  -6   6   7    0.48    3.03
  -6   6   7    4.46    2.91
   5  -6  -7    6.26    1.72
   5  -6  -7    6.92    1.51
   5  -6  -7    6.06    0.99
  -5   6   7    7.49    2.55
  -5   6   7    8.68    2.87
   4  -6  -7    3.07    0.69
   4  -6  -7    3.68    1.31
   4  -6  -7    6.17    1.34
  -4   6   7    3.62    2.30
  -4   6   7    4.85    2.14
  -4   6   7    3.61    0.82
   3  -6  -7   28.55    1.92
  -3   6   7   29.60    2.18
  -3   6   7   25.65    3.41
  -3   6   7   29.22    3.38
   2  -6  -7    2.29    0.82
   2  -6  -7    3.44    0.61
  -2   6   7    0.62    1.34
  -2   6   7    2.71    1.33
  -2   6   7    2.89    0.85
   1  -6  -7    9.34    1.49
  -1   6   7   11.65    1.66
  -1   6   7   11.73    1.51
  -1   6   7   11.49    2.04
  -1   6   7   11.98    2.07
   0  -6  -7  117.12    6.21
   0  -6  -7  124.66    6.90
   0   6   7  127.62    7.42
   0   6   7  125.40    6.87
   0   6   7  116.07    6.52
   0   6   7  121.32    7.27
  -1  -6  -7   44.70    3.21
  -1  -6  -7   45.40    2.61
   1   6   7   45.95    3.56
   1   6   7   45.71    2.80
   1   6   7   44.18    3.43
   1   6   7   52.14    3.25
  -2  -6  -7   19.04    1.99
  -2  -6  -7   17.93    1.34
   2   6   7   16.57    1.97
   2   6   7   18.96    1.57
   2   6   7   16.76    2.20
  -3  -6  -7    0.28    0.86
  -3  -6  -7    0.21    0.77
   3   6   7   -0.41    0.93
   3   6   7    1.82    0.87
   3   6   7    1.67    0.83
   3   6   7    2.05    0.66
  -4  -6  -7   13.28    1.98
  -4  -6  -7   14.82    1.63
  -4  -6  -7   13.48    1.43
   4   6   7   12.83    1.80
   4   6   7   12.78    1.98
   4   6   7   12.51    1.39
   4   6   7   13.50    1.75
  -5  -6  -7   44.75    3.13
  -5  -6  -7   49.69    3.17
  -5  -6  -7   46.56    3.61
   5   6   7   53.05    3.63
   5   6   7   45.04    3.18
   5   6   7   48.02    3.26
   5   6   7   43.79    3.43
   5   6   7   45.25    3.10
   5   6   7   42.56    3.71
  -6  -6  -7    4.73    1.11
  -6  -6  -7    5.31    1.66
  -6  -6  -7    4.60    1.13
   6   6   7    2.18    1.14
   6   6   7    6.46    1.18
   6   6   7    4.74    1.37
   6   6   7    5.18    1.52
   6   6   7    5.24    1.41
  -7  -6  -7    2.05    1.13
  -7  -6  -7    3.87    1.07
  -7  -6  -7    3.63    1.77
  -7  -6  -7    2.79    1.46
   7   6   7    3.44    1.38
   7   6   7    3.05    0.98
   7   6   7    2.87    1.36
   7   6   7    1.41    1.18
  -8  -6  -7   17.67    2.52
  -8  -6  -7   16.78    2.30
  -8  -6  -7   17.53    2.34
  -8  -6  -7   19.79    2.21
   8   6   7   20.76    2.28
   8   6   7   16.15    2.19
   8   6   7   17.95    2.29
   8   6   7   18.30    2.54
  -9  -6  -7    2.18    1.78
  -9  -6  -7    6.21    1.51
  -9  -6  -7    2.11    1.50
  -9  -6  -7    1.07    1.39
   9   6   7    5.59    1.96
   9   6   7    1.24    1.74
 -10  -6  -7    3.37    1.76
 -10  -6  -7   -0.01    1.92
 -10  -6  -7   -2.63    2.00
  10   6   7    1.34    1.93
  10   6   7    7.03    2.21
 -11  -6  -7    4.47    2.27
 -11  -6  -7    9.30    2.72
  11   6   7   11.43    2.88
   7  -7  -7    5.02    2.44
   7  -7  -7    0.34    1.87
  -7   7   7    1.71    4.52
   6  -7  -7    0.49    0.81
   6  -7  -7    1.75    1.44
   6  -7  -7    4.12    2.13
  -6   7   7    3.17    3.41
  -6   7   7    2.65    3.37
   5  -7  -7    7.09    0.93
   5  -7  -7    5.90    1.79
  -5   7   7    4.52    2.95
  -5   7   7    7.13    0.97
  -5   7   7    6.90    2.78
   4  -7  -7   -0.68    0.52
   4  -7  -7    1.54    1.26
  -4   7   7   -2.91    1.82
  -4   7   7    0.24    0.80
  -4   7   7   -1.88    2.19
   3  -7  -7    8.25    1.61
   3  -7  -7    5.80    0.75
  -3   7   7    5.78    1.17
  -3   7   7    6.21    2.47
  -3   7   7    7.76    2.04
   2  -7  -7   16.34    1.29
  -2   7   7   18.38    2.84
  -2   7   7   14.99    2.64
  -2   7   7   19.83    1.93
   1  -7  -7    0.84    0.48
   1  -7  -7    0.99    0.91
  -1   7   7    0.31    1.23
  -1   7   7   -0.38    0.75
  -1   7   7    0.18    1.46
   0  -7  -7   13.79    0.89
   0  -7  -7   12.67    1.73
   0   7   7   13.24    1.68
   0   7   7   13.16    2.20
   0   7   7   11.31    2.02
  -1  -7  -7    1.12    0.35
  -1  -7  -7    0.73    0.97
   1   7   7    1.36    1.16
   1   7   7   -0.10    1.13
   1   7   7   -0.46    0.75
  -2  -7  -7    3.26    1.11
   2   7   7    2.36    0.88
   2   7   7    3.93    1.38
   2   7   7    2.65    1.20
   2   7   7    2.53    1.21
   2   7   7    2.52    0.67
  -3  -7  -7   98.00    5.95
  -3  -7  -7   96.03    5.44
  -3  -7  -7   99.33    5.94
   3   7   7   94.29    5.86
   3   7   7   98.97    6.20
   3   7   7   99.83    5.48
   3   7   7   93.28    5.98
  -4  -7  -7   96.73    5.68
  -4  -7  -7  103.03    6.14
  -4  -7  -7   93.62    6.11
   4   7   7   97.50    6.11
   4   7   7  106.94    6.37
   4   7   7  100.10    5.68
   4   7   7  103.67    6.70
   4   7   7  106.70    6.21
  -5  -7  -7   30.99    2.94
  -5  -7  -7   34.47    2.80
  -5  -7  -7   32.59    2.48
   5   7   7   33.70    3.00
   5   7   7   31.17    2.86
   5   7   7   33.51    2.98
   5   7   7   29.19    2.37
   5   7   7   32.52    3.35
  -6  -7  -7    7.58    1.70
  -6  -7  -7    6.78    1.32
  -6  -7  -7    7.40    1.41
   6   7   7    6.78    1.15
   6   7   7    7.98    1.65
   6   7   7    7.12    1.88
   6   7   7    3.46    1.77
  -7  -7  -7    1.02    1.25
  -7  -7  -7    0.61    1.04
  -7  -7  -7    0.66    1.14
   7   7   7    1.54    1.36
   7   7   7    0.47    1.31
   7   7   7    1.35    1.64
   7   7   7    2.30    1.22
   7   7   7    2.81    0.99
  -8  -7  -7    2.60    1.37
  -8  -7  -7   -0.80    1.44
  -8  -7  -7    0.28    1.19
  -8  -7  -7   -2.38    1.05
   8   7   7   -2.15    1.47
   8   7   7    0.40    1.05
   8   7   7   -0.51    1.78
   8   7   7    1.27    1.49
   8   7   7    1.75    1.40
  -9  -7  -7   16.32    2.47
  -9  -7  -7   17.45    2.55
  -9  -7  -7   17.02    2.36
  -9  -7  -7   13.10    2.62
   9   7   7   14.21    2.68
   9   7   7   18.39    2.66
   9   7   7   10.83    2.33
   9   7   7   15.73    2.12
 -10  -7  -7   12.61    2.24
 -10  -7  -7   10.98    4.36
 -10  -7  -7   13.33    2.75
  10   7   7   17.42    3.17
  10   7   7   15.00    2.77
 -11  -7  -7   26.10    3.25
  11   7   7   17.90    3.42
   7  -8  -7   -0.16    2.39
   6  -8  -7    3.59    2.00
  -6   8   7    1.24    4.03
   5  -8  -7    2.23    1.73
  -5   8   7    3.25    2.97
  -5   8   7    3.62    1.08
  -5   8   7   12.52    3.26
   4  -8  -7    8.63    1.98
  -4   8   7   12.67    3.34
  -4   8   7   12.67    2.98
  -4   8   7   10.06    1.61
   3  -8  -7   12.89    0.96
   3  -8  -7   10.00    1.88
  -3   8   7   13.69    2.63
  -3   8   7   11.06    2.83
  -3   8   7   15.68    2.04
   2  -8  -7   27.22    2.73
   2  -8  -7   23.69    1.55
  -2   8   7   26.40    3.64
  -2   8   7   23.97    2.49
  -2   8   7   28.09    3.51
   1  -8  -7    4.40    0.63
   1  -8  -7    5.41    1.59
  -1   8   7    6.73    1.90
  -1   8   7    2.11    1.86
  -1   8   7    3.60    1.17
   0  -8  -7    7.82    1.39
   0  -8  -7    6.67    0.60
   0   8   7    7.14    1.72
   0   8   7    8.27    1.99
   0   8   7    7.36    1.43
  -1  -8  -7   -0.69    0.89
  -1  -8  -7   -0.99    0.50
   1   8   7   -1.91    1.03
   1   8   7    0.39    1.21
  -2  -8  -7    2.89    1.07
  -2  -8  -7    2.95    0.76
  -2  -8  -7    0.32    1.30
   2   8   7    0.16    1.29
   2   8   7    2.22    0.75
   2   8   7    2.69    1.51
   2   8   7    2.24    1.05
  -3  -8  -7   52.09    4.04
  -3  -8  -7   58.06    3.58
  -3  -8  -7   59.59    4.45
   3   8   7   64.68    4.20
   3   8   7   55.83    4.46
   3   8   7   61.08    3.63
   3   8   7   62.02    4.47
  -4  -8  -7   28.56    2.72
  -4  -8  -7   27.13    2.12
  -4  -8  -7   28.64    2.97
   4   8   7   27.73    3.38
   4   8   7   23.33    2.59
   4   8   7   25.69    2.85
   4   8   7   23.69    2.03
   4   8   7   25.48    2.87
  -5  -8  -7   68.63    5.00
  -5  -8  -7   75.74    4.50
  -5  -8  -7   79.44    5.10
   5   8   7   72.31    5.11
   5   8   7   75.86    5.61
   5   8   7   77.20    5.16
   5   8   7   68.27    4.39
   5   8   7   75.67    4.96
  -6  -8  -7    2.38    1.34
  -6  -8  -7    1.60    0.88
  -6  -8  -7    1.04    1.50
   6   8   7    0.32    1.25
   6   8   7    1.95    1.71
   6   8   7    2.64    1.26
   6   8   7    2.40    1.59
   6   8   7    3.87    0.98
  -7  -8  -7    6.22    1.29
  -7  -8  -7    3.63    1.47
   7   8   7    6.32    1.92
   7   8   7    4.91    2.04
   7   8   7    5.27    1.23
   7   8   7    5.92    1.69
  -8  -8  -7    7.95    1.62
  -8  -8  -7    8.88    2.03
  -8  -8  -7   10.88    1.65
   8   8   7    7.47    1.52
   8   8   7    7.17    1.98
   8   8   7    5.64    2.16
   8   8   7    5.42    1.88
   8   8   7    3.49    1.94
  -9  -8  -7   -0.16    1.31
  -9  -8  -7    1.77    2.04
  -9  -8  -7    2.90    1.75
  -9  -8  -7    0.24    1.47
   9   8   7    0.95    1.76
   9   8   7    2.68    2.03
   9   8   7    1.49    1.85
   9   8   7    4.21    2.36
 -10  -8  -7    0.75    1.61
 -10  -8  -7   -1.15    2.31
 -10  -8  -7    4.49    2.40
  10   8   7   -2.83    1.74
  10   8   7    4.86    1.77
  10   8   7   -1.18    2.05
 -11  -8  -7    2.88    2.02
 -11  -8  -7    1.70    2.47
  11   8   7   -1.65    2.25
   6  -9  -7    3.06    2.50
   5  -9  -7   22.28    3.59
  -5   9   7   12.04    4.39
   4  -9  -7    3.21    1.67
  -4   9   7    0.89    3.11
  -4   9   7    6.14    3.32
  -4   9   7    2.79    1.48
   3  -9  -7   -2.63    1.36
  -3   9   7    0.04    2.56
  -3   9   7   -2.86    2.27
  -3   9   7    0.69    1.31
   2  -9  -7   -1.79    1.22
  -2   9   7    1.90    1.33
  -2   9   7    3.90    2.24
  -2   9   7   -1.60    2.17
   1  -9  -7    1.22    0.46
   1  -9  -7    1.08    0.36
   1  -9  -7   -0.44    1.17
  -1   9   7   -0.49    1.63
  -1   9   7    5.68    2.01
  -1   9   7    0.83    1.30
   0  -9  -7   -0.37    0.33
   0  -9  -7   -0.63    0.49
   0  -9  -7    2.83    1.34
   0   9   7    0.10    1.13
   0   9   7   -1.10    1.88
   0   9   7   -1.32    1.48
  -1  -9  -7   11.07    1.24
   1   9   7   13.61    2.55
   1   9   7    8.94    2.00
   1   9   7    9.45    1.34
   1   9   7   12.45    1.91
  -2  -9  -7   10.99    1.74
  -2  -9  -7    8.52    1.26
  -2  -9  -7    8.89    2.04
   2   9   7   11.49    1.32
   2   9   7   13.85    2.20
   2   9   7   11.95    2.27
   2   9   7    7.05    1.88
  -3  -9  -7   25.78    2.86
  -3  -9  -7   27.26    3.37
  -3  -9  -7   25.04    2.05
   3   9   7   26.17    3.03
   3   9   7   22.44    3.18
   3   9   7   25.33    2.77
   3   9   7   27.11    2.06
  -4  -9  -7   25.29    3.38
  -4  -9  -7   28.01    2.26
   4   9   7   28.22    3.32
   4   9   7   29.12    2.17
   4   9   7   26.07    2.85
   4   9   7   28.68    4.20
   4   9   7   29.71    3.30
  -5  -9  -7    7.88    1.86
  -5  -9  -7   10.08    1.97
  -5  -9  -7   10.82    1.64
   5   9   7   11.28    2.01
   5   9   7    9.23    1.84
   5   9   7   12.83    2.27
   5   9   7    8.34    1.31
  -6  -9  -7    2.02    1.60
  -6  -9  -7    2.03    1.01
  -6  -9  -7    0.69    1.33
   6   9   7    0.76    1.59
   6   9   7    1.71    0.89
   6   9   7   -2.01    1.45
   6   9   7    0.14    1.52
  -7  -9  -7   39.74    3.14
  -7  -9  -7   40.57    4.16
  -7  -9  -7   40.11    3.84
   7   9   7   42.66    3.16
   7   9   7   38.13    3.84
   7   9   7   38.47    4.05
  -8  -9  -7   11.06    2.45
  -8  -9  -7   13.15    2.47
  -8  -9  -7   12.45    1.94
   8   9   7   14.94    2.57
   8   9   7   10.54    1.69
   8   9   7    7.62    2.15
  -9  -9  -7    0.70    2.22
  -9  -9  -7    2.12    1.57
  -9  -9  -7    2.94    2.29
   9   9   7    3.79    2.01
   9   9   7    3.38    2.63
   9   9   7    2.43    2.16
 -10  -9  -7    4.89    2.35
 -10  -9  -7    4.18    2.87
 -10  -9  -7    7.14    1.88
  10   9   7    3.89    2.20
  10   9   7    6.13    2.41
  10   9   7    9.69    2.73
 -11  -9  -7   14.18    3.18
 -11  -9  -7   14.44    2.79
  11   9   7   14.66    3.22
   5 -10  -7   -5.99    2.53
   4 -10  -7   -1.38    2.06
  -4  10   7    1.54    4.07
   3 -10  -7    6.77    1.98
  -3  10   7    6.96    1.93
  -3  10   7    5.72    3.32
   2 -10  -7    3.08    1.78
  -2  10   7    5.51    1.73
  -2  10   7    3.20    2.87
  -2  10   7    0.75    2.49
   1 -10  -7   -0.18    1.47
  -1  10   7    0.35    1.45
  -1  10   7    4.52    2.60
  -1  10   7    3.36    2.48
   0 -10  -7    5.10    0.74
   0 -10  -7    5.12    1.75
   0  10   7    2.14    2.08
   0  10   7    7.73    2.63
   0  10   7    6.83    1.61
  -1 -10  -7    5.85    0.81
  -1 -10  -7    6.73    1.89
   1  10   7    8.12    1.76
   1  10   7    2.65    2.01
   1  10   7    5.14    0.96
   1  10   7    6.42    1.99
  -2 -10  -7    1.93    1.56
  -2 -10  -7   -1.61    1.88
   2  10   7    1.03    1.42
   2  10   7    0.01    0.73
   2  10   7    2.13    1.73
  -3 -10  -7    7.24    1.08
  -3 -10  -7   10.11    2.44
   3  10   7    7.38    2.27
   3  10   7    9.35    2.62
   3  10   7    8.99    2.15
   3  10   7    5.14    1.01
   3  10   7    8.69    1.91
  -4 -10  -7   -1.31    1.82
  -4 -10  -7    0.23    0.77
  -4 -10  -7    1.13    1.46
   4  10   7    0.41    1.97
   4  10   7   -0.38    1.32
   4  10   7   -1.18    1.90
   4  10   7    0.67    1.56
   4  10   7    1.21    0.76
  -5 -10  -7   24.89    2.38
  -5 -10  -7   27.26    3.81
  -5 -10  -7   29.54    3.13
   5  10   7   28.17    2.31
   5  10   7   32.04    3.81
   5  10   7   27.42    3.67
   5  10   7   31.01    4.65
   5  10   7   23.58    3.29
  -6 -10  -7    5.27    2.09
  -6 -10  -7    2.73    1.07
  -6 -10  -7    2.94    1.64
   6  10   7    3.55    1.05
   6  10   7    3.72    2.51
   6  10   7    2.94    2.12
   6  10   7    3.94    1.75
  -7 -10  -7    0.75    1.15
  -7 -10  -7   -1.50    2.06
  -7 -10  -7    1.87    1.74
   7  10   7    1.42    1.02
   7  10   7   -1.04    2.31
   7  10   7    2.92    2.14
   7  10   7    1.58    2.03
   7  10   7    2.26    1.77
  -8 -10  -7    2.88    1.35
  -8 -10  -7    1.69    1.79
  -8 -10  -7   -0.99    2.24
   8  10   7   -3.68    2.01
   8  10   7   -3.97    2.52
  -9 -10  -7    1.34    2.64
  -9 -10  -7    4.97    1.54
  -9 -10  -7    2.91    2.28
   9  10   7    2.06    3.09
   9  10   7    2.88    2.73
 -10 -10  -7    2.82    3.38
 -10 -10  -7    3.25    1.84
 -10 -10  -7    1.98    2.71
  10  10   7    2.03    2.73
  10  10   7   -5.10    3.02
  10  10   7    2.80    2.34
 -11 -10  -7    1.81    2.22
 -11 -10  -7    5.18    3.24
  11  10   7   -1.30    2.38
  11  10   7   -0.02    3.59
   3 -11  -7    0.29    2.10
  -3  11   7    5.19    4.11
   2 -11  -7    3.05    2.06
  -2  11   7    4.81    2.09
  -2  11   7    4.93    4.00
   1 -11  -7    5.84    2.04
  -1  11   7    6.03    2.88
  -1  11   7    3.60    2.05
   0 -11  -7    5.89    1.83
   0 -11  -7    5.87    0.89
   0  11   7    4.30    1.06
   0  11   7    4.83    2.88
   0  11   7    5.38    1.97
  -1 -11  -7    0.82    0.43
  -1 -11  -7   -1.47    1.52
  -1 -11  -7    0.25    0.72
   1  11   7    1.94    1.88
   1  11   7    2.50    2.24
   1  11   7    1.36    0.80
   1  11   7   -0.03    2.30
  -2 -11  -7   -4.09    2.44
  -2 -11  -7    3.36    1.58
  -2 -11  -7   -0.03    0.60
   2  11   7    0.71    1.69
   2  11   7   -0.83    2.14
   2  11   7    3.12    2.09
   2  11   7    0.80    0.84
  -3 -11  -7   40.65    2.64
  -3 -11  -7   40.60    5.01
  -3 -11  -7   39.00    3.70
   3  11   7   38.74    2.71
   3  11   7   39.40    4.75
   3  11   7   36.47    4.06
   3  11   7   41.84    5.07
   3  11   7   37.02    4.55
  -4 -11  -7   36.67    5.03
  -4 -11  -7   28.03    2.46
  -4 -11  -7   34.12    3.55
   4  11   7   27.81    3.76
   4  11   7   32.40    4.51
   4  11   7   30.33    3.99
   4  11   7   32.11    2.43
   4  11   7   43.90    5.02
  -5 -11  -7   15.27    2.85
  -5 -11  -7   10.21    1.45
   5  11   7   13.68    3.24
   5  11   7    8.09    2.41
   5  11   7   14.47    3.18
   5  11   7    9.05    1.36
   5  11   7    9.03    2.41
  -6 -11  -7    6.76    1.68
  -6 -11  -7    9.80    3.12
   6  11   7   11.55    3.02
   6  11   7   12.06    3.25
   6  11   7    7.94    2.56
   6  11   7    9.38    1.50
  -7 -11  -7    9.82    1.74
   7  11   7   15.23    3.13
   7  11   7    7.08    2.92
   7  11   7   10.10    3.28
   7  11   7   14.93    2.09
  -8 -11  -7    6.63    1.62
  -8 -11  -7    9.72    3.12
   8  11   7    6.39    3.20
   8  11   7    6.17    2.95
  -9 -11  -7    0.89    1.54
  -9 -11  -7   -6.94    3.10
   9  11   7    1.03    3.50
   9  11   7   -1.23    3.23
 -10 -11  -7   -0.91    3.93
 -10 -11  -7    1.76    2.01
  10  11   7   -0.13    4.17
   2 -12  -7    4.74    2.48
  -2  12   7    6.70    5.03
   1 -12  -7    5.62    2.38
  -1  12   7    3.51    1.32
  -1  12   7   13.16    4.37
  -1  12   7    8.35    2.72
   0 -12  -7    1.53    2.21
   0  12   7   -0.71    0.95
   0  12   7    2.83    2.43
   0  12   7   -1.61    3.46
  -1 -12  -7    1.19    1.91
  -1 -12  -7    1.29    0.90
   1  12   7    1.84    3.07
   1  12   7   -3.16    2.36
   1  12   7    0.63    0.92
  -2 -12  -7   -0.21    0.54
  -2 -12  -7    0.67    1.70
   2  12   7    0.59    2.79
   2  12   7    1.14    2.84
   2  12   7    0.89    0.88
  -3 -12  -7    6.70    1.09
  -3 -12  -7    4.98    1.92
   3  12   7    7.68    3.06
   3  12   7    7.17    1.13
   3  12   7    9.21    3.70
  -4 -12  -7    5.30    1.16
  -4 -12  -7    4.87    2.09
  -4 -12  -7    3.57    3.45
   4  12   7   -0.23    2.81
   4  12   7    4.40    3.03
   4  12   7    3.93    0.96
  -5 -12  -7    0.78    1.07
  -5 -12  -7   -2.22    3.11
  -5 -12  -7    2.29    2.07
   5  12   7    3.15    1.10
   5  12   7    1.63    3.16
   5  12   7    1.67    2.75
  -6 -12  -7   10.23    3.38
  -6 -12  -7    0.85    1.83
  -6 -12  -7   -0.92    1.26
   6  12   7    5.85    2.76
   6  12   7   -3.82    2.93
   6  12   7    0.90    1.04
  -7 -12  -7   -0.12    1.30
  -7 -12  -7   -4.21    3.25
  -7 -12  -7    0.20    1.99
   7  12   7    0.66    3.25
   7  12   7    2.10    2.99
  -8 -12  -7   -0.05    1.53
  -8 -12  -7    1.64    1.98
   8  12   7   -1.91    3.70
  -9 -12  -7    9.92    2.26
  -9 -12  -7   12.12    2.67
   9  12   7    7.86    4.55
   0  13   7    5.74    4.82
   0  13   7   -0.87    4.59
  -1 -13  -7    1.18    2.36
   1  13   7   12.46    4.54
   1  13   7   -1.16    3.89
  -2 -13  -7   -0.08    2.24
  -2 -13  -7   -2.31    1.10
   2  13   7    0.16    3.64
   2  13   7    2.61    3.67
  -3 -13  -7   11.92    2.84
   3  13   7    9.31    1.47
   3  13   7   16.53    3.99
   3  13   7    6.31    3.93
  -4 -13  -7   -2.34    2.08
   4  13   7    0.17    0.88
   4  13   7   -2.29    4.00
   4  13   7   -3.77    3.54
  -5 -13  -7    3.02    2.34
  -5 -13  -7   -0.13    1.26
   5  13   7    1.33    4.32
   5  13   7    2.68    3.48
  -6 -13  -7    3.82    1.56
  -6 -13  -7    2.56    2.24
   6  13   7    1.85    4.11
   6  13   7   13.73    3.93
  -7 -13  -7    0.39    2.15
  -7 -13  -7    6.17    1.87
   7  13   7    1.80    3.91
   7  13   7    2.26    4.07
  -8 -13  -7   20.19    2.73
  -8 -13  -7   17.29    3.08
   8  13   7   13.42    4.71
   8  13   7   11.04    4.99
   4  14   7   13.81    5.02
  -5 -14  -7   -2.97    2.75
   5  14   7   -2.57    4.22
   6   7  -8    8.21    4.30
  -6  -7   8    2.91    2.36
   5   7  -8    2.19    4.01
  -5  -7   8    1.19    1.95
  -5  -7   8   -0.35    1.38
   4   7  -8   17.37    2.82
   4   7  -8    6.13    4.20
  -4  -7   8   10.13    2.26
  -4  -7   8   10.57    4.07
  -4  -7   8    9.80    1.58
   3   7  -8    2.47    3.62
  -3  -7   8    3.51    1.94
  -3  -7   8    1.80    1.27
  -3  -7   8    2.07    3.66
  -3  -7   8    3.26    3.84
   2   7  -8    2.35    3.59
  -2  -7   8    4.15    3.65
  -2  -7   8    0.25    1.12
  -2  -7   8    0.44    1.79
   1   7  -8    2.12    3.72
  -1  -7   8   10.64    3.85
  -1  -7   8    0.29    1.94
  -1  -7   8    4.21    1.37
   0   7  -8    6.85    3.94
   0  -7   8    4.06    2.27
  -1   7  -8    4.85    3.45
  -1   7  -8   -0.04    3.88
   1  -7   8   -1.43    2.66
   7   6  -8    8.34    4.33
  -7  -6   8    8.98    2.33
   6   6  -8   -3.14    3.24
  -6  -6   8   -1.68    1.83
   5   6  -8    0.92    1.65
   5   6  -8    3.53    3.29
  -5  -6   8   -1.35    4.03
  -5  -6   8   -1.19    1.70
  -5  -6   8   -4.68    4.46
   4   6  -8    1.79    2.97
   4   6  -8    2.49    1.88
  -4  -6   8   -1.62    1.48
  -4  -6   8   -2.05    3.27
  -4  -6   8   -1.29    1.09
  -4  -6   8   -0.66    3.12
   3   6  -8   -0.65    1.83
   3   6  -8   -0.92    2.95
  -3  -6   8    0.36    2.92
  -3  -6   8    2.65    1.58
  -3  -6   8   -0.33    0.95
  -3  -6   8    8.20    3.17
   2   6  -8    9.79    2.22
   2   6  -8    9.98    3.31
   2   6  -8   14.72    2.42
  -2  -6   8    9.88    1.52
  -2  -6   8   11.08    2.10
  -2  -6   8   11.02    2.97
  -2  -6   8    9.25    2.76
   1   6  -8    0.92    1.78
   1   6  -8    2.71    3.04
  -1  -6   8    2.81    1.58
  -1  -6   8    4.24    1.29
  -1  -6   8    4.13    2.76
   0   6  -8   -2.77    1.67
   0   6  -8   -0.90    2.85
   0  -6   8   -3.85    2.70
   0  -6   8   -0.16    1.10
   0  -6   8   -0.69    1.52
  -1   6  -8   -1.38    3.06
  -1   6  -8    7.10    2.49
  -1   6  -8    6.07    1.94
   1  -6   8    5.43    1.39
   1  -6   8    5.05    1.97
   1  -6   8   -0.08    2.99
  -2   6  -8    3.92    2.75
  -2   6  -8   -0.33    3.12
  -2   6  -8    1.52    2.06
   2  -6   8   -1.45    1.36
   2  -6   8    4.03    2.27
  -3   6  -8    0.62    3.02
  -3   6  -8   -5.42    3.32
   3  -6   8    1.40    2.49
   8   5  -8    4.09    4.33
  -8  -5   8    4.93    2.15
   7   5  -8   12.71    3.87
  -7  -5   8    9.81    2.21
   6   5  -8    3.98    1.39
   6   5  -8    6.30    3.41
  -6  -5   8    3.69    3.84
  -6  -5   8    4.51    1.74
   5   5  -8   17.12    3.57
   5   5  -8   12.14    1.88
  -5  -5   8   12.63    3.87
  -5  -5   8   13.42    3.86
  -5  -5   8   14.31    2.21
   4   5  -8    4.25    1.78
   4   5  -8    3.34    1.55
   4   5  -8    5.52    2.67
  -4  -5   8    4.77    2.87
  -4  -5   8    4.40    1.61
  -4  -5   8    0.89    2.65
   3   5  -8   15.49    2.11
   3   5  -8    9.97    3.05
   3   5  -8   16.20    2.53
  -3  -5   8   15.04    3.19
  -3  -5   8   12.33    2.00
  -3  -5   8   13.30    1.71
  -3  -5   8   17.86    2.92
   2   5  -8   -3.57    2.05
   2   5  -8   -3.15    1.57
   2   5  -8   -0.35    1.29
  -2  -5   8   -0.95    2.08
  -2  -5   8    1.35    1.40
  -2  -5   8    3.31    2.25
  -2  -5   8    1.53    0.92
   1   5  -8   -4.05    1.99
   1   5  -8   -1.80    1.35
   1   5  -8   -0.31    1.64
  -1  -5   8    1.39    1.37
  -1  -5   8   -3.08    1.89
  -1  -5   8    0.15    1.88
  -1  -5   8   -1.12    0.91
   0   5  -8   -1.23    2.32
   0   5  -8    2.80    1.32
   0   5  -8   -3.62    1.58
   0  -5   8   -3.56    2.10
   0  -5   8    1.79    1.05
   0  -5   8    1.95    1.40
  -1   5  -8    1.90    1.41
  -1   5  -8    3.71    2.59
  -1   5  -8    3.95    2.17
   1  -5   8    2.13    1.43
   1  -5   8    4.71    2.19
   1  -5   8    3.22    1.18
  -2   5  -8    2.14    2.28
  -2   5  -8    2.11    1.60
  -2   5  -8   -3.61    4.13
   2  -5   8    4.65    1.98
   2  -5   8   -2.43    2.35
   2  -5   8   -2.34    1.09
  -3   5  -8    0.35    3.02
  -3   5  -8    2.97    2.73
  -3   5  -8    0.44    1.68
   3  -5   8    1.11    1.80
   3  -5   8    0.76    1.48
  -4   5  -8    7.96    3.37
  -4   5  -8    4.02    3.09
   4  -5   8    4.43    2.48
   9   4  -8    2.33    3.85
  -9  -4   8   -1.58    1.84
   8   4  -8    2.22    2.02
   8   4  -8   -4.40    3.27
  -8  -4   8   -1.36    1.56
   7   4  -8   35.17    2.42
   7   4  -8   35.42    5.73
  -7  -4   8   28.22    3.28
   6   4  -8   12.12    3.10
   6   4  -8    8.21    1.38
  -6  -4   8    7.78    1.72
  -6  -4   8   11.22    3.21
  -6  -4   8    3.92    3.91
   5   4  -8    5.72    2.58
   5   4  -8    4.15    1.57
   5   4  -8    7.92    1.34
  -5  -4   8    4.93    2.85
  -5  -4   8    6.01    1.47
  -5  -4   8    5.01    2.77
   4   4  -8   13.65    2.05
   4   4  -8   11.21    1.88
   4   4  -8   10.22    2.82
  -4  -4   8   13.93    3.17
  -4  -4   8   11.43    1.95
  -4  -4   8    8.76    2.62
   3   4  -8    1.12    1.15
   3   4  -8   -1.71    1.09
   3   4  -8    1.06    1.87
  -3  -4   8    1.27    1.94
  -3  -4   8   -0.07    1.90
  -3  -4   8    0.69    1.09
   2   4  -8   14.08    1.87
   2   4  -8   11.45    2.58
   2   4  -8    8.71    1.68
  -2  -4   8   10.04    1.76
  -2  -4   8   10.47    1.58
  -2  -4   8   17.91    2.94
  -2  -4   8   11.01    2.41
   1   4  -8    0.86    1.15
   1   4  -8    2.62    1.42
   1   4  -8    0.48    2.16
  -1  -4   8   -0.27    1.10
  -1  -4   8   -0.15    0.79
  -1  -4   8    0.13    1.92
  -1  -4   8    0.18    1.61
   0   4  -8    0.00    1.21
   0   4  -8    3.28    1.60
   0   4  -8    3.36    2.41
   0  -4   8    1.62    1.35
   0  -4   8    2.67    1.22
   0  -4   8    3.96    1.59
   0  -4   8    1.90    0.95
  -1   4  -8    7.44    1.83
  -1   4  -8    8.91    1.66
  -1   4  -8    5.61    2.32
  -1   4  -8   11.00    2.17
   1  -4   8    8.84    1.64
   1  -4   8    8.35    1.34
   1  -4   8    7.40    1.81
  -2   4  -8    4.82    1.93
  -2   4  -8    1.28    2.11
  -2   4  -8   -0.85    1.71
   2  -4   8    2.48    1.44
   2  -4   8    4.19    1.63
   2  -4   8    1.62    1.04
  -3   4  -8    2.33    1.93
  -3   4  -8    2.16    2.20
   3  -4   8   -0.04    1.66
   3  -4   8    2.58    2.06
  -4   4  -8   -1.95    2.34
  -4   4  -8    2.62    2.30
   4  -4   8    1.47    2.03
   4  -4   8    3.07    1.40
  -5   4  -8    4.39    2.88
  -5   4  -8    8.27    2.71
  -6   4  -8   -0.41    3.39
   9   3  -8   -1.12    3.26
   9   3  -8    2.73    2.48
  -9  -3   8    0.17    1.58
   8   3  -8    3.47    1.74
   8   3  -8    1.98    2.99
  -8  -3   8    0.89    1.47
   7   3  -8    1.69    1.46
   7   3  -8    0.55    0.77
  -7  -3   8    1.13    1.29
  -7  -3   8    6.10    3.40
   6   3  -8   15.24    3.20
   6   3  -8    8.90    1.70
   6   3  -8   12.90    1.63
   6   3  -8   12.95    2.01
  -6  -3   8    9.04    3.43
  -6  -3   8    9.88    3.17
  -6  -3   8   11.76    2.01
   5   3  -8   28.31    4.36
   5   3  -8   33.53    2.58
   5   3  -8   37.47    2.90
   5   3  -8   31.68    3.19
  -5  -3   8   23.34    3.92
  -5  -3   8   33.45    4.51
   4   3  -8    7.98    1.32
   4   3  -8    4.68    1.51
   4   3  -8    5.68    2.36
   4   3  -8    7.37    1.35
  -4  -3   8    6.70    2.30
  -4  -3   8    6.54    1.62
  -4  -3   8    6.86    2.13
   3   3  -8   49.00    3.53
   3   3  -8   46.90    3.29
   3   3  -8   45.27    3.61
   3   3  -8   46.77    4.74
  -3  -3   8   45.02    4.31
  -3  -3   8   46.80    4.75
  -3  -3   8   46.06    3.42
   2   3  -8   -0.01    0.95
   2   3  -8   -0.02    0.90
   2   3  -8    0.51    1.46
  -2  -3   8    3.91    1.78
  -2  -3   8   -0.56    1.08
   1   3  -8   12.54    1.67
   1   3  -8   12.90    2.10
   1   3  -8   10.89    2.42
   1   3  -8   13.59    1.93
  -1  -3   8   18.53    2.85
  -1  -3   8   13.00    2.12
  -1  -3   8    8.65    1.84
  -1  -3   8   13.11    1.64
   0   3  -8    0.90    1.41
   0   3  -8    3.22    1.69
   0   3  -8    1.85    1.05
   0   3  -8    0.84    1.16
   0  -3   8    1.85    0.82
   0  -3   8    1.58    1.31
   0  -3   8    2.63    1.16
   0  -3   8    3.38    1.13
  -1   3  -8    7.76    2.05
  -1   3  -8    7.92    1.89
  -1   3  -8    7.54    1.45
   1  -3   8   10.05    1.64
   1  -3   8    7.41    1.55
   1  -3   8    6.70    1.23
   1  -3   8    6.99    1.20
  -2   3  -8    0.53    1.62
  -2   3  -8    3.00    1.60
  -2   3  -8    2.19    1.38
  -2   3  -8    1.24    1.17
   2  -3   8    2.26    0.99
   2  -3   8    2.50    1.24
   2  -3   8    0.93    1.20
  -3   3  -8    0.07    1.63
  -3   3  -8    0.56    1.86
  -3   3  -8    3.62    1.35
  -3   3  -8   -2.68    1.32
   3  -3   8    2.16    1.26
   3  -3   8    1.80    1.13
  -4   3  -8    3.90    2.05
  -4   3  -8    5.49    2.07
   4  -3   8    6.23    1.86
   4  -3   8    5.42    1.54
  -5   3  -8    3.46    2.09
  -5   3  -8   -0.67    2.26
   5  -3   8   -1.44    1.31
  -6   3  -8   -2.02    2.58
  -6   3  -8    5.50    2.31
  -7   3  -8   -1.38    2.07
  -7   3  -8    3.85    3.42
   9   2  -8   -4.05    2.91
   9   2  -8    1.12    2.34
  -9  -2   8   -0.56    1.48
   8   2  -8    1.08    1.32
   8   2  -8    0.56    2.44
   8   2  -8    1.42    1.99
  -8  -2   8    0.61    1.22
   7   2  -8    5.30    2.50
   7   2  -8    6.16    0.98
   7   2  -8    6.76    1.55
  -7  -2   8    6.14    1.40
  -7  -2   8    6.33    3.15
   6   2  -8    1.60    2.23
   6   2  -8    5.46    1.36
   6   2  -8    3.85    1.39
   6   2  -8    4.33    0.92
  -6  -2   8    0.56    2.49
  -6  -2   8   -0.74    2.45
  -6  -2   8    3.13    1.08
   5   2  -8    0.35    1.86
   5   2  -8    1.90    1.22
   5   2  -8    2.08    1.09
  -5  -2   8    0.23    0.85
  -5  -2   8    3.72    2.20
  -5  -2   8    2.56    2.27
   4   2  -8    8.11    2.04
   4   2  -8    6.93    1.51
   4   2  -8    7.68    1.37
  -4  -2   8   14.27    2.64
  -4  -2   8    6.52    1.26
  -4  -2   8   10.49    2.37
   3   2  -8   71.71    4.79
   3   2  -8   71.83    4.54
   3   2  -8   64.02    6.81
  -3  -2   8   79.60    5.73
  -3  -2   8   68.59    4.45
  -3  -2   8   78.57    5.34
   2   2  -8   61.11    3.99
   2   2  -8   60.45    4.28
   2   2  -8   57.16    4.88
  -2  -2   8   66.71    5.07
  -2  -2   8   63.94    4.56
  -2  -2   8   60.20    3.92
   1   2  -8   15.83    2.33
   1   2  -8   20.67    1.96
   1   2  -8   15.88    2.54
  -1  -2   8   15.65    1.71
  -1  -2   8   17.30    2.89
  -1  -2   8   17.62    2.29
  -1  -2   8   18.98    1.90
   0   2  -8    0.40    0.90
   0   2  -8    0.93    1.17
   0   2  -8   -0.29    1.19
   0  -2   8    1.03    1.16
   0  -2   8   -1.16    0.93
   0  -2   8    1.50    0.80
   0  -2   8   -0.98    0.61
  -1   2  -8   25.43    2.48
  -1   2  -8   29.70    2.36
  -1   2  -8   22.23    3.18
   1  -2   8   27.77    2.47
   1  -2   8   26.44    2.27
   1  -2   8   26.54    2.20
   1  -2   8   25.96    2.45
  -2   2  -8    3.06    1.52
  -2   2  -8    4.32    1.23
  -2   2  -8    1.44    1.53
  -2   2  -8    2.61    1.19
   2  -2   8    4.08    1.26
   2  -2   8    3.82    0.95
   2  -2   8    2.38    0.92
  -3   2  -8   12.37    2.17
  -3   2  -8   13.22    2.34
  -3   2  -8   12.98    1.90
  -3   2  -8   15.30    2.12
   3  -2   8   13.36    1.82
   3  -2   8   14.48    2.17
  -4   2  -8   28.84    3.02
  -4   2  -8   36.75    3.57
  -4   2  -8   30.78    3.53
  -4   2  -8   29.97    3.10
   4  -2   8   29.61    4.05
  -5   2  -8   22.90    3.56
  -5   2  -8   13.64    2.24
   5  -2   8   15.60    2.40
  -6   2  -8    0.89    1.72
  -6   2  -8   -2.23    2.08
   6  -2   8    2.46    1.62
  -7   2  -8    4.27    1.95
  -7   2  -8    6.72    2.09
  -7   2  -8    4.54    2.82
   8  -2   8   -0.90    2.72
  10   1  -8    4.86    2.78
  10   1  -8   -1.88    3.36
 -10  -1   8    5.27    1.81
   9   1  -8   23.77    3.92
   9   1  -8   15.43    3.29
  -9  -1   8   16.29    2.65
   8   1  -8    1.86    2.35
   8   1  -8    1.79    1.02
   8   1  -8    1.30    0.88
   8   1  -8    0.88    2.06
  -8  -1   8    0.62    1.09
   7   1  -8    3.08    1.19
   7   1  -8    3.15    1.53
   7   1  -8    2.02    1.49
   7   1  -8   -0.15    1.97
  -7  -1   8    2.32    2.92
  -7  -1   8    0.67    1.03
   6   1  -8    0.20    1.01
   6   1  -8   -1.34    1.71
   6   1  -8   -0.30    1.04
   6   1  -8   -0.81    1.08
  -6  -1   8    0.48    0.85
  -6  -1   8    0.10    2.63
   5   1  -8   -0.91    0.91
   5   1  -8   -1.84    1.54
   5   1  -8    0.52    1.00
  -5  -1   8    1.05    0.80
  -5  -1   8   -2.16    1.99
   4   1  -8   18.87    2.02
   4   1  -8   18.64    2.19
  -4  -1   8   18.85    1.78
  -4  -1   8   17.06    2.95
  -4  -1   8   16.69    2.58
   3   1  -8   51.42    4.39
   3   1  -8   45.89    3.24
   3   1  -8   47.68    3.51
  -3  -1   8   46.42    4.41
  -3  -1   8   45.83    3.13
  -3  -1   8   53.53    4.52
   2   1  -8   32.09    3.52
   2   1  -8   34.23    2.51
   2   1  -8   29.56    2.81
  -2  -1   8   34.95    2.45
  -2  -1   8   30.50    3.53
  -2  -1   8   31.61    3.00
   1   1  -8    7.44    1.49
   1   1  -8    5.57    1.06
   1   1  -8    7.06    1.63
  -1  -1   8    7.98    1.32
  -1  -1   8    7.58    1.35
   0   1  -8    3.97    1.51
   0   1  -8    5.93    1.44
   0  -1   8    7.08    1.25
   0  -1   8    6.80    1.22
   0  -1   8    4.77    0.97
   0  -1   8    6.00    1.49
  -1   1  -8    4.34    0.93
  -1   1  -8    3.26    1.29
  -1   1  -8    5.20    1.51
   1  -1   8    3.10    0.90
   1  -1   8    4.57    0.94
   1  -1   8    5.89    1.32
   1  -1   8    4.64    1.06
  -2   1  -8   -0.13    0.73
  -2   1  -8    0.53    1.15
  -2   1  -8    1.15    1.26
   2  -1   8   -0.27    0.71
   2  -1   8   -0.23    0.71
   2  -1   8   -1.52    0.79
  -3   1  -8    4.20    1.29
  -3   1  -8    2.04    1.60
  -3   1  -8    3.06    1.45
   3  -1   8    2.72    0.95
  -4   1  -8    0.59    1.11
  -4   1  -8    1.19    1.20
  -4   1  -8   -0.20    1.40
  -4   1  -8    1.31    1.37
   4  -1   8    0.73    0.90
  -5   1  -8   22.52    2.86
  -5   1  -8   16.32    2.55
  -5   1  -8   15.81    2.57
  -5   1  -8   16.85    2.44
  -6   1  -8    1.35    1.86
  -6   1  -8    2.69    2.20
  -6   1  -8    5.48    1.86
   6  -1   8    4.82    2.10
   6  -1   8    2.49    1.35
  -7   1  -8   -1.71    1.56
  -7   1  -8    1.86    1.67
  -7   1  -8    4.96    2.34
   7  -1   8   -1.46    2.00
  -8   1  -8    2.62    1.85
  -8   1  -8   -2.50    2.54
  -8   1  -8    1.12    2.02
   8  -1   8    1.47    2.42
  10   0  -8    1.10    2.63
  10   0  -8    1.13    2.96
   9   0  -8   -2.16    2.75
   9   0  -8   -0.33    2.06
  -9   0   8    2.37    1.20
   8   0  -8    1.24    0.78
   8   0  -8    5.64    2.24
   8   0  -8    4.11    2.26
  -8   0   8    2.54    1.07
   7   0  -8    3.18    1.60
   7   0  -8    2.91    1.39
   7   0  -8    1.87    0.94
   7   0  -8    0.45    1.94
  -7   0   8    0.69    3.04
  -7   0   8    1.87    0.94
   6   0  -8    0.20    0.87
   6   0  -8   -0.81    1.14
   6   0  -8    0.51    1.76
   6   0  -8    0.81    1.08
  -6   0   8    1.75    2.17
  -6   0   8    0.36    0.72
   5   0  -8    6.72    1.50
   5   0  -8    7.44    1.21
   5   0  -8    6.08    1.27
  -5   0   8    6.87    1.18
  -5   0   8    5.31    2.17
   4   0  -8    1.95    1.39
   4   0  -8    0.99    0.94
   4   0  -8    0.73    0.89
  -4   0   8    1.66    0.70
  -4   0   8   -0.51    1.65
   3   0  -8   59.53    3.74
   3   0  -8   57.88    3.88
   3   0  -8   53.59    4.59
  -3   0   8   62.90    4.89
  -3   0   8   58.29    3.55
   2   0  -8   11.88    2.25
   2   0  -8   11.99    1.80
   2   0  -8    9.61    1.43
  -2   0   8   11.93    2.08
  -2   0   8   15.63    2.58
  -2   0   8   15.11    1.44
   1   0  -8    6.16    1.25
   1   0  -8    4.75    1.68
   1   0  -8    6.05    1.09
   1   0  -8    7.17    1.18
  -1   0   8    3.77    0.85
  -1   0   8    4.31    1.15
   0   0  -8   63.77    4.76
   0   0  -8   62.55    4.43
   0   0  -8   71.60    4.07
   0   0  -8   70.94    4.06
   0   0   8   73.17    4.11
   0   0   8   60.26    4.00
   0   0   8   65.53    4.06
   0   0   8   67.63    4.69
  -1   0  -8   17.72    2.37
  -1   0  -8   19.35    1.76
  -1   0  -8   15.68    2.17
  -1   0  -8   18.95    2.27
   1   0   8   15.10    1.59
   1   0   8   17.40    2.20
   1   0   8   16.19    1.72
   1   0   8   18.04    1.41
  -2   0  -8   17.03    2.40
  -2   0  -8   19.06    2.62
  -2   0  -8   23.23    2.01
   2   0   8   20.52    1.90
   2   0   8   21.09    1.84
   2   0   8   18.89    2.08
  -3   0  -8    6.63    1.60
  -3   0  -8    8.92    1.67
  -3   0  -8    8.97    1.42
   3   0   8    8.81    1.39
  -4   0  -8   39.83    3.53
  -4   0  -8   47.08    3.27
   4   0   8   44.21    3.23
  -5   0  -8   61.22    4.35
  -5   0  -8   53.70    4.46
  -5   0  -8   57.90    4.10
   5   0   8   65.89    4.13
   5   0   8   55.93    4.35
  -6   0  -8    2.11    1.63
  -6   0  -8    0.24    1.30
  -6   0  -8    0.06    1.24
  -6   0  -8   -1.71    1.21
   6   0   8   -0.98    0.98
   6   0   8    0.69    1.73
  -7   0  -8   16.57    2.64
  -7   0  -8   15.60    2.57
  -7   0  -8   16.18    2.77
  -7   0  -8   14.97    2.26
   7   0   8   11.53    2.68
   7   0   8   19.94    2.69
  -8   0  -8    7.69    1.86
  -8   0  -8    7.67    2.60
  -8   0  -8    5.71    2.07
   8   0   8    8.10    2.47
  -9   0  -8    7.21    3.05
  -9   0  -8    3.47    2.19
   9   0   8    0.76    2.26
   9  -1  -8    5.40    2.72
   9  -1  -8   10.22    2.82
  -9   1   8    5.87    1.19
   8  -1  -8    4.52    1.00
   8  -1  -8    6.21    2.21
   8  -1  -8    5.67    1.75
   8  -1  -8    2.70    2.19
  -8   1   8    3.70    0.96
   7  -1  -8    9.83    1.76
   7  -1  -8    9.52    2.55
   7  -1  -8   11.27    1.73
   7  -1  -8    6.33    1.88
  -7   1   8    7.64    3.09
  -7   1   8   10.54    1.36
   6  -1  -8    4.87    0.99
   6  -1  -8    4.82    1.46
   6  -1  -8    5.53    2.05
   6  -1  -8    5.16    1.27
  -6   1   8    4.58    0.88
  -6   1   8    5.41    2.38
   5  -1  -8    1.45    1.00
   5  -1  -8    2.67    0.83
   5  -1  -8    2.08    0.94
   5  -1  -8   -0.94    1.39
  -5   1   8    2.49    0.70
  -5   1   8    0.43    1.82
   4  -1  -8   35.17    2.65
   4  -1  -8   39.81    2.66
   4  -1  -8   34.85    2.53
   4  -1  -8   29.69    3.46
  -4   1   8   38.79    4.09
  -4   1   8   33.11    2.29
   3  -1  -8    2.87    1.32
   3  -1  -8    1.32    0.78
   3  -1  -8    2.14    0.78
   3  -1  -8    2.06    0.82
  -3   1   8    1.32    0.54
  -3   1   8    1.16    1.51
   2  -1  -8    0.27    0.63
   2  -1  -8   -0.20    0.51
   2  -1  -8    0.36    1.08
   2  -1  -8   -0.27    0.70
  -2   1   8   -1.33    1.15
  -2   1   8    0.78    0.52
   1  -1  -8    0.24    0.94
   1  -1  -8    1.72    0.51
   1  -1  -8    0.89    1.23
  -1   1   8   -0.60    1.13
  -1   1   8    0.93    0.56
   0  -1  -8    0.24    0.85
   0  -1  -8   -0.15    0.56
   0  -1  -8   -0.15    0.51
   0  -1  -8   -0.20    0.95
   0   1   8   -0.17    0.50
   0   1   8    1.44    0.76
   0   1   8   -0.30    1.12
  -1  -1  -8    6.62    1.06
  -1  -1  -8    3.85    1.14
  -1  -1  -8    3.97    1.33
   1   1   8    4.76    0.84
   1   1   8    6.68    1.01
   1   1   8    4.66    0.91
   1   1   8    5.71    1.38
  -2  -1  -8    0.94    1.03
  -2  -1  -8   -0.13    1.09
  -2  -1  -8    1.59    1.19
  -2  -1  -8    2.16    0.70
   2   1   8    0.62    0.70
   2   1   8    2.58    1.05
  -3  -1  -8    2.11    1.10
  -3  -1  -8    0.76    0.74
  -3  -1  -8    1.36    1.05
   3   1   8    3.55    0.82
   3   1   8    2.86    0.83
  -4  -1  -8    0.97    1.12
  -4  -1  -8   -0.15    1.07
  -4  -1  -8   -0.43    0.82
   4   1   8   -0.64    0.78
   4   1   8    0.39    0.92
  -5  -1  -8   38.53    2.97
  -5  -1  -8   45.45    3.30
   5   1   8   32.17    3.51
   5   1   8   35.35    3.07
  -6  -1  -8    2.48    1.78
  -6  -1  -8   11.80    1.90
  -6  -1  -8    2.74    1.32
   6   1   8    2.94    1.04
   6   1   8    6.06    1.53
  -7  -1  -8    3.72    1.57
  -7  -1  -8    2.31    1.50
  -7  -1  -8   -0.66    1.30
  -7  -1  -8    0.19    1.86
  -7  -1  -8   -1.12    1.23
  -7  -1  -8   -0.67    1.33
   7   1   8    2.94    1.83
   7   1   8    0.05    1.19
  -8  -1  -8   -1.29    1.55
  -8  -1  -8    2.23    3.37
  -8  -1  -8    2.35    2.07
   8   1   8   -0.13    1.61
   8   1   8    2.60    1.86
  -9  -1  -8    6.71    1.96
  -9  -1  -8    5.99    2.82
   9   1   8    6.17    2.64
   9  -2  -8   10.50    2.84
   8  -2  -8    4.18    1.20
   8  -2  -8    7.19    2.29
   8  -2  -8    6.96    1.85
   8  -2  -8    4.01    2.17
  -8   2   8    4.86    0.86
   7  -2  -8    3.24    1.42
   7  -2  -8    3.28    3.03
   7  -2  -8    4.11    1.49
   7  -2  -8    0.70    0.99
  -7   2   8    1.73    2.81
  -7   2   8    2.00    0.62
   6  -2  -8    0.40    1.68
   6  -2  -8   -0.25    0.63
   6  -2  -8   -0.30    1.16
   6  -2  -8   -1.70    0.95
  -6   2   8   -2.48    2.14
  -6   2   8   -0.04    0.52
   5  -2  -8    0.74    1.43
   5  -2  -8    0.46    0.80
   5  -2  -8    1.06    0.74
   5  -2  -8    0.20    1.06
  -5   2   8    0.30    0.48
  -5   2   8   -0.50    1.72
   4  -2  -8   18.40    2.88
   4  -2  -8   23.77    2.00
   4  -2  -8   23.31    1.98
   4  -2  -8   24.73    2.03
  -4   2   8   21.54    1.59
  -4   2   8   26.58    3.35
   3  -2  -8   73.71    5.12
   3  -2  -8   67.42    4.33
   3  -2  -8   74.16    4.32
   3  -2  -8   72.31    4.05
  -3   2   8   71.54    3.99
  -3   2   8   74.94    5.37
   2  -2  -8   23.80    1.85
   2  -2  -8   20.80    2.09
   2  -2  -8   18.66    2.63
  -2   2   8   23.28    2.77
  -2   2   8   24.12    1.63
   1  -2  -8   41.74    3.67
   1  -2  -8   47.13    3.23
  -1   2   8   47.45    2.82
  -1   2   8   48.54    3.87
   0  -2  -8   29.90    2.05
   0  -2  -8   31.16    2.92
   0  -2  -8   30.16    2.47
   0   2   8   26.83    2.04
   0   2   8   32.23    2.91
  -1  -2  -8    2.02    1.07
  -1  -2  -8    0.09    0.53
  -1  -2  -8    1.25    1.03
   1   2   8    0.89    0.63
   1   2   8    0.98    0.55
   1   2   8    0.07    0.92
  -2  -2  -8    2.13    1.01
  -2  -2  -8    1.69    0.79
  -2  -2  -8    3.20    1.12
   2   2   8    2.33    0.77
   2   2   8    2.64    1.09
  -3  -2  -8   -0.15    0.57
  -3  -2  -8    0.09    0.91
  -3  -2  -8   -0.39    0.92
   3   2   8    0.94    0.89
   3   2   8    0.53    0.66
  -4  -2  -8    0.29    1.04
  -4  -2  -8    0.46    1.00
  -4  -2  -8    0.62    0.74
   4   2   8    1.76    0.77
   4   2   8    1.15    0.78
   4   2   8    1.84    0.72
   4   2   8    1.10    0.72
  -5  -2  -8   14.54    1.73
  -5  -2  -8   15.22    2.17
  -5  -2  -8   16.12    2.47
   5   2   8   15.82    1.95
   5   2   8   16.59    1.86
  -6  -2  -8   -0.58    1.33
  -6  -2  -8    0.97    1.09
  -6  -2  -8    0.53    0.93
   6   2   8    0.50    1.01
   6   2   8   -1.99    0.82
  -7  -2  -8   24.89    2.69
  -7  -2  -8   20.14    2.62
  -7  -2  -8   25.59    2.73
  -7  -2  -8   25.35    2.71
  -7  -2  -8   28.09    3.32
   7   2   8   25.21    2.62
  -8  -2  -8    8.95    2.41
  -8  -2  -8    7.74    1.78
   8   2   8    7.53    2.19
   8   2   8   12.07    2.11
  -9  -2  -8    2.12    2.40
  -9  -2  -8    3.93    1.81
   9   2   8    1.58    2.05
 -10  -2  -8   10.36    3.24
 -10  -2  -8    6.86    2.43
  10   2   8    6.23    2.65
   9  -3  -8    3.15    2.28
   9  -3  -8   -3.06    2.14
   8  -3  -8    1.12    1.75
   8  -3  -8    4.06    1.36
   8  -3  -8    5.33    2.37
   7  -3  -8    3.15    1.61
   7  -3  -8    1.99    1.30
   7  -3  -8    2.36    1.60
   7  -3  -8    0.20    1.14
  -7   3   8    5.66    2.99
   6  -3  -8    1.73    1.07
   6  -3  -8    3.05    1.60
   6  -3  -8    2.14    1.28
   6  -3  -8   -0.85    0.97
  -6   3   8   -1.12    2.14
   5  -3  -8   -0.52    1.03
   5  -3  -8    2.35    1.40
   5  -3  -8   -0.69    0.83
   5  -3  -8   -0.77    0.64
  -5   3   8    0.21    0.31
  -5   3   8    0.73    1.91
   4  -3  -8    0.14    1.28
   4  -3  -8    0.35    0.71
   4  -3  -8    0.48    0.73
   4  -3  -8   -0.45    0.89
  -4   3   8   -3.00    1.41
  -4   3   8   -0.44    0.32
   3  -3  -8   16.80    1.55
   3  -3  -8   13.41    1.30
   3  -3  -8   12.65    1.58
   3  -3  -8   11.22    1.98
  -3   3   8   11.24    2.32
  -3   3   8   13.25    1.02
   2  -3  -8   61.16    4.00
   2  -3  -8   66.61    3.84
   2  -3  -8   64.46    4.62
  -2   3   8   62.56    4.87
   1  -3  -8   -0.14    0.73
   1  -3  -8    0.18    1.09
  -1   3   8   -1.09    1.03
   0  -3  -8    0.65    0.42
   0  -3  -8    0.71    0.84
   0  -3  -8    0.62    0.87
   0   3   8   -0.57    0.64
   0   3   8   -0.58    0.66
  -1  -3  -8    5.10    0.86
  -1  -3  -8    4.24    1.17
  -1  -3  -8    3.91    1.23
   1   3   8    2.70    0.76
   1   3   8    4.76    1.38
   1   3   8    6.39    1.57
   1   3   8    3.74    0.82
  -2  -3  -8   -0.11    0.84
  -2  -3  -8   -0.16    0.92
  -2  -3  -8   -0.04    0.49
   2   3   8   -1.65    0.93
   2   3   8    0.37    0.51
   2   3   8   -0.17    0.77
  -3  -3  -8   14.16    1.92
  -3  -3  -8   11.37    1.44
  -3  -3  -8   17.40    2.09
   3   3   8   14.06    1.98
   3   3   8   15.17    1.85
   3   3   8   12.95    1.49
   3   3   8   11.72    1.25
  -4  -3  -8   13.89    1.95
  -4  -3  -8   14.02    1.47
  -4  -3  -8   13.59    2.13
   4   3   8   13.10    1.79
   4   3   8   12.29    1.52
   4   3   8   11.85    1.95
   4   3   8   10.34    1.40
   4   3   8   17.06    1.95
  -5  -3  -8    2.81    1.27
  -5  -3  -8    2.30    1.13
  -5  -3  -8    1.69    0.74
   5   3   8    1.62    0.90
   5   3   8    1.73    1.02
   5   3   8    1.30    1.09
   5   3   8    2.69    0.78
   5   3   8    2.36    0.75
  -6  -3  -8    5.24    1.27
  -6  -3  -8    4.40    1.31
   6   3   8    6.39    1.25
   6   3   8    6.40    1.44
   6   3   8    3.26    1.42
  -7  -3  -8    1.95    1.58
  -7  -3  -8    1.78    1.14
  -7  -3  -8    4.66    1.36
   7   3   8    4.84    1.57
   7   3   8    5.33    1.31
  -8  -3  -8    9.86    2.19
  -8  -3  -8   10.45    1.74
  -8  -3  -8    5.96    1.75
  -8  -3  -8    7.94    1.76
   8   3   8   10.83    2.43
   8   3   8    8.41    1.73
  -9  -3  -8    0.41    1.78
  -9  -3  -8    2.40    1.75
  -9  -3  -8   -1.11    2.09
   9   3   8   -0.41    2.00
 -10  -3  -8    1.09    2.66
 -10  -3  -8    1.36    2.24
  10   3   8   -0.86    2.39
   9  -4  -8    7.34    3.13
   8  -4  -8   14.87    3.00
   8  -4  -8   13.44    2.07
   8  -4  -8   22.67    3.20
   7  -4  -8    1.73    1.24
   7  -4  -8    2.22    1.92
   7  -4  -8    5.66    1.38
   6  -4  -8   -0.65    1.02
   6  -4  -8   -0.59    1.20
   6  -4  -8    0.31    1.14
  -6   4   8    3.73    2.57
   5  -4  -8    1.97    1.22
   5  -4  -8    0.82    1.09
   5  -4  -8   -0.96    0.83
   5  -4  -8    1.17    0.60
  -5   4   8    0.57    2.12
   4  -4  -8   13.60    1.52
   4  -4  -8   11.24    1.48
   4  -4  -8   14.18    1.73
   4  -4  -8   12.87    2.21
  -4   4   8   21.10    3.43
   3  -4  -8    0.68    1.10
   3  -4  -8    1.12    0.83
   3  -4  -8   -1.79    1.10
   3  -4  -8   -1.09    0.62
  -3   4   8   -0.49    1.39
   2  -4  -8    6.20    1.02
   2  -4  -8    4.85    1.35
   2  -4  -8    5.16    1.08
  -2   4   8    6.73    1.74
  -2   4   8    4.83    0.99
  -2   4   8    5.42    1.69
   1  -4  -8   80.45    5.31
   1  -4  -8   83.42    4.95
  -1   4   8   78.49    5.22
  -1   4   8   82.93    5.63
  -1   4   8   84.25    4.86
   0  -4  -8   18.58    2.30
   0  -4  -8   18.85    2.00
   0  -4  -8   18.86    1.37
   0   4   8   16.80    2.02
   0   4   8   20.07    2.51
   0   4   8   16.43    1.85
  -1  -4  -8   23.25    2.44
  -1  -4  -8   24.94    1.70
  -1  -4  -8   25.49    2.33
   1   4   8   22.21    1.99
  -2  -4  -8   21.91    2.25
  -2  -4  -8   22.38    1.67
  -2  -4  -8   20.64    2.36
   2   4   8   23.12    2.16
   2   4   8   21.42    1.81
   2   4   8   24.34    2.53
   2   4   8   21.05    1.75
  -3  -4  -8    9.11    1.65
  -3  -4  -8    9.75    1.68
  -3  -4  -8   11.82    1.24
   3   4   8   10.99    1.03
   3   4   8   13.91    1.78
   3   4   8   10.96    1.79
   3   4   8   12.52    1.42
  -4  -4  -8    3.46    0.84
  -4  -4  -8    2.00    1.10
  -4  -4  -8    2.35    1.11
   4   4   8    2.89    0.81
   4   4   8    2.48    0.87
   4   4   8    2.74    1.16
   4   4   8    3.61    1.27
  -5  -4  -8   16.74    2.14
  -5  -4  -8   14.97    1.66
  -5  -4  -8   17.44    2.37
   5   4   8   16.70    1.87
   5   4   8   14.05    2.07
   5   4   8   14.20    1.97
   5   4   8   18.06    2.14
   5   4   8   17.66    1.81
  -6  -4  -8    4.09    1.33
  -6  -4  -8    2.35    0.96
  -6  -4  -8    5.53    1.77
   6   4   8    4.67    1.38
   6   4   8    7.90    1.49
   6   4   8    4.89    0.89
   6   4   8    3.13    0.95
  -7  -4  -8    4.46    1.29
  -7  -4  -8    3.81    1.68
  -7  -4  -8    3.38    1.21
  -7  -4  -8    0.79    1.04
   7   4   8    3.04    1.55
   7   4   8    2.35    1.16
   7   4   8    2.61    1.47
  -8  -4  -8   12.47    2.11
  -8  -4  -8   14.08    2.01
  -8  -4  -8   13.96    2.10
  -8  -4  -8   14.20    2.57
   8   4   8   12.07    1.93
   8   4   8   10.34    2.11
   8   4   8   11.83    2.44
  -9  -4  -8    1.94    2.26
  -9  -4  -8    4.24    1.85
   9   4   8    2.41    2.08
   9   4   8    1.79    1.76
 -10  -4  -8    3.17    2.71
 -10  -4  -8    3.43    1.93
 -10  -4  -8   -2.01    2.01
  10   4   8   -0.13    2.28
 -11  -4  -8   -1.42    3.17
 -11  -4  -8    2.08    2.56
  11   4   8   -1.53    2.63
   8  -5  -8   11.04    2.24
   8  -5  -8    7.86    2.94
  -8   5   8   18.66    5.26
   7  -5  -8   -0.95    1.67
   7  -5  -8   -1.07    2.07
   7  -5  -8   -1.15    1.33
  -7   5   8    3.26    3.31
   6  -5  -8    5.32    1.45
   6  -5  -8    6.63    1.30
   6  -5  -8    5.95    1.78
  -6   5   8   10.03    3.18
  -6   5   8    4.93    2.87
   5  -5  -8   21.50    2.05
   5  -5  -8   20.79    2.59
   5  -5  -8   21.14    2.47
  -5   5   8   22.61    3.43
  -5   5   8   31.40    4.18
   4  -5  -8   -1.36    0.93
   4  -5  -8    0.41    0.75
  -4   5   8    1.18    1.87
  -4   5   8   -0.40    2.17
   3  -5  -8   12.33    1.55
   3  -5  -8   14.24    1.39
  -3   5   8    8.92    2.14
  -3   5   8   12.46    2.39
  -3   5   8    9.20    1.41
   2  -5  -8  118.35    7.05
   2  -5  -8  114.22    6.34
   2  -5  -8  119.22    6.62
  -2   5   8  118.80    6.57
  -2   5   8  112.43    7.33
  -2   5   8  119.54    7.54
   1  -5  -8   17.44    1.81
   1  -5  -8   11.96    1.92
  -1   5   8   16.76    1.76
  -1   5   8   14.16    2.38
  -1   5   8   15.45    2.54
   0  -5  -8   10.32    1.58
   0  -5  -8    8.13    0.85
   0  -5  -8    7.61    1.47
   0   5   8    9.86    1.50
   0   5   8    7.42    1.44
   0   5   8   11.35    2.05
  -1  -5  -8    8.71    0.91
  -1  -5  -8    7.65    1.55
  -1  -5  -8    7.70    1.37
   1   5   8    9.49    1.63
   1   5   8    9.50    1.97
   1   5   8   10.20    1.64
  -2  -5  -8   16.57    2.02
  -2  -5  -8   15.61    2.04
  -2  -5  -8   13.92    1.24
   2   5   8   11.53    2.31
   2   5   8   16.68    1.83
   2   5   8   13.55    1.67
   2   5   8   13.71    1.48
  -3  -5  -8    0.91    1.03
  -3  -5  -8    0.31    0.56
   3   5   8    0.36    0.74
   3   5   8    0.84    0.68
   3   5   8    0.75    0.51
   3   5   8    0.76    0.95
   3   5   8    0.87    1.12
  -4  -5  -8   10.60    1.84
  -4  -5  -8   10.52    1.31
   4   5   8    9.54    1.40
   4   5   8   11.70    1.86
   4   5   8   10.80    1.29
   4   5   8    9.23    1.71
  -5  -5  -8   45.05    2.94
  -5  -5  -8   47.76    3.72
   5   5   8   47.17    3.53
   5   5   8   46.74    3.17
   5   5   8   41.96    3.56
   5   5   8   35.10    2.94
   5   5   8   46.39    3.58
  -6  -5  -8   19.06    2.91
  -6  -5  -8   16.16    1.78
   6   5   8   14.19    2.34
   6   5   8   16.94    2.10
   6   5   8   15.02    2.22
   6   5   8   14.35    2.16
   6   5   8   15.00    1.98
  -7  -5  -8    5.68    1.75
  -7  -5  -8    7.61    1.49
  -7  -5  -8    6.51    1.45
   7   5   8    5.93    1.51
   7   5   8    5.20    1.07
   7   5   8    6.79    1.19
   7   5   8    5.07    1.62
  -8  -5  -8    2.30    1.25
  -8  -5  -8    1.80    1.31
  -8  -5  -8   -1.22    1.07
  -8  -5  -8    0.46    1.59
   8   5   8   -0.44    1.31
   8   5   8    0.40    2.04
   8   5   8    2.57    1.65
  -9  -5  -8    1.06    2.04
  -9  -5  -8    1.60    1.50
   9   5   8    1.93    1.54
   9   5   8    3.73    1.95
   9   5   8    4.46    2.25
 -10  -5  -8    0.83    1.84
 -10  -5  -8   -4.27    2.35
  10   5   8    1.38    2.19
 -11  -5  -8    0.19    3.02
 -11  -5  -8    5.79    2.17
  11   5   8    0.01    2.39
   8  -6  -8    7.57    2.42
   8  -6  -8   12.21    3.25
   7  -6  -8    5.89    1.92
   7  -6  -8    4.84    2.32
  -7   6   8    2.67    4.10
   6  -6  -8    5.64    1.63
   6  -6  -8   10.20    2.41
   6  -6  -8    6.61    1.68
  -6   6   8    2.85    3.21
   5  -6  -8    7.76    1.20
   5  -6  -8   11.70    2.42
   5  -6  -8   11.92    2.07
  -5   6   8    6.54    2.56
  -5   6   8   11.23    3.02
   4  -6  -8    3.20    1.43
   4  -6  -8    3.14    0.87
  -4   6   8    4.56    0.89
  -4   6   8    4.71    2.27
  -4   6   8    3.49    2.14
   3  -6  -8   -0.01    0.78
   3  -6  -8    0.75    0.64
  -3   6   8   -0.49    1.72
  -3   6   8   -2.10    1.63
  -3   6   8    0.26    0.78
   2  -6  -8   36.99    2.88
   2  -6  -8   39.91    2.54
  -2   6   8   41.57    2.85
  -2   6   8   34.46    3.76
  -2   6   8   34.99    3.82
   1  -6  -8   36.59    2.87
  -1   6   8   34.54    3.42
  -1   6   8   39.11    2.83
  -1   6   8   40.04    3.59
   0  -6  -8    0.68    0.34
   0  -6  -8    0.09    0.86
   0   6   8    0.32    1.12
   0   6   8    0.20    1.05
  -1  -6  -8    1.02    0.42
  -1  -6  -8    1.09    0.95
   1   6   8    0.76    0.98
   1   6   8    2.46    0.98
   1   6   8   -0.42    1.05
  -2  -6  -8    3.97    1.18
  -2  -6  -8    3.02    0.69
   2   6   8    4.90    0.66
   2   6   8    4.33    0.93
   2   6   8    2.04    1.07
   2   6   8    3.84    0.64
   2   6   8    2.57    1.01
   2   6   8    6.50    1.56
  -3  -6  -8   22.23    2.38
  -3  -6  -8   25.96    1.82
   3   6   8   24.71    1.75
   3   6   8   26.86    2.48
   3   6   8   22.32    2.70
   3   6   8   25.90    2.33
   3   6   8   22.04    1.96
  -4  -6  -8    4.73    1.44
  -4  -6  -8    4.94    0.97
   4   6   8    5.46    1.04
   4   6   8    3.97    1.24
   4   6   8    5.67    1.72
   4   6   8    5.46    1.01
   4   6   8    5.03    1.08
  -5  -6  -8   -1.35    1.11
  -5  -6  -8   -0.69    0.76
  -5  -6  -8    0.65    0.67
   5   6   8    1.01    0.80
   5   6   8   -0.80    0.87
   5   6   8    1.94    1.15
   5   6   8    0.12    1.18
   5   6   8   -0.17    1.21
  -6  -6  -8    4.92    1.03
  -6  -6  -8    5.14    0.93
   6   6   8    3.37    1.13
   6   6   8    5.00    1.63
   6   6   8    2.12    0.98
   6   6   8    3.01    1.40
   6   6   8    7.54    1.73
  -7  -6  -8    0.15    0.93
  -7  -6  -8    0.39    1.50
   7   6   8    1.85    1.56
   7   6   8    0.23    1.30
   7   6   8    1.58    1.04
   7   6   8   -1.46    1.07
   7   6   8    0.28    1.22
  -8  -6  -8    2.80    1.29
  -8  -6  -8    1.85    1.32
  -8  -6  -8    0.69    1.77
  -8  -6  -8    3.84    1.28
   8   6   8    0.64    1.28
   8   6   8    2.12    1.08
   8   6   8    2.56    1.78
   8   6   8    1.35    1.06
  -9  -6  -8    2.77    1.94
  -9  -6  -8   -0.33    1.20
  -9  -6  -8    1.72    1.53
   9   6   8   -0.48    1.73
   9   6   8    0.11    2.00
   9   6   8   -1.30    1.39
 -10  -6  -8    6.68    2.00
 -10  -6  -8    5.93    2.62
 -10  -6  -8    5.18    2.03
  10   6   8    4.10    2.51
 -11  -6  -8   11.71    3.26
 -11  -6  -8   19.44    3.09
  11   6   8   17.15    3.55
   7  -7  -8    6.94    2.33
   7  -7  -8    2.32    2.57
  -7   7   8   -3.45    4.57
   6  -7  -8    2.69    1.83
  -6   7   8   -3.01    3.58
   5  -7  -8    0.06    1.46
   5  -7  -8    0.90    0.89
  -5   7   8    9.11    3.11
  -5   7   8   -2.71    2.68
   4  -7  -8   -1.23    0.70
   4  -7  -8    1.97    1.32
  -4   7   8   -0.91    0.87
  -4   7   8    2.01    2.26
  -4   7   8   -0.09    2.30
   3  -7  -8    5.41    0.82
   3  -7  -8    2.82    1.36
  -3   7   8    5.79    1.23
  -3   7   8    3.06    2.11
  -3   7   8    2.49    2.23
   2  -7  -8    0.48    0.60
   2  -7  -8    1.41    0.94
  -2   7   8    3.62    1.97
  -2   7   8   -0.20    1.72
  -2   7   8    0.65    0.95
   1  -7  -8    0.48    0.91
   1  -7  -8    0.95    0.58
  -1   7   8    2.80    1.60
  -1   7   8    1.31    1.44
  -1   7   8   -0.17    1.38
   0  -7  -8    0.14    0.28
   0  -7  -8    0.00    0.97
   0   7   8   -1.87    1.41
   0   7   8   -1.98    0.85
   0   7   8    0.82    1.06
   0   7   8    1.81    1.27
  -1  -7  -8   60.77    3.25
  -1  -7  -8   61.24    4.11
   1   7   8   60.22    4.04
   1   7   8   57.26    4.50
   1   7   8   52.93    3.47
   1   7   8   54.66    4.25
  -2  -7  -8   79.56    4.46
  -2  -7  -8   87.67    5.22
   2   7   8   70.21    4.66
   2   7   8   85.37    4.62
   2   7   8   80.05    5.30
   2   7   8   76.40    5.13
   2   7   8   90.38    5.65
  -3  -7  -8   42.27    2.56
  -3  -7  -8   35.22    3.19
   3   7   8   37.13    3.23
   3   7   8   42.45    3.51
   3   7   8   39.07    2.73
   3   7   8   35.04    3.17
  -4  -7  -8    4.40    1.31
  -4  -7  -8    3.59    0.96
  -4  -7  -8    4.19    1.46
   4   7   8    3.21    0.86
   4   7   8    1.69    1.17
   4   7   8    5.04    1.44
   4   7   8    5.55    1.34
  -5  -7  -8    2.19    0.87
  -5  -7  -8    2.72    1.10
  -5  -7  -8    1.67    1.41
   5   7   8    1.31    1.36
   5   7   8    2.26    0.91
   5   7   8   -0.01    1.04
   5   7   8    1.14    0.92
   5   7   8    1.53    1.63
   5   7   8    0.85    1.07
  -6  -7  -8   13.15    2.20
  -6  -7  -8   13.60    1.93
   6   7   8   11.94    1.63
   6   7   8   11.91    2.16
   6   7   8    9.40    1.72
   6   7   8   12.28    2.27
   6   7   8   11.67    1.91
  -7  -7  -8    9.74    2.11
  -7  -7  -8    9.43    1.55
  -7  -7  -8   12.97    1.90
   7   7   8    5.87    1.83
   7   7   8   12.61    1.98
   7   7   8    7.14    2.03
   7   7   8    7.48    1.86
   7   7   8    9.87    1.68
  -8  -7  -8   10.80    1.91
  -8  -7  -8   11.28    2.41
  -8  -7  -8    8.61    1.62
   8   7   8    8.41    1.96
   8   7   8   11.23    1.91
   8   7   8   11.95    2.13
   8   7   8   10.09    2.22
  -9  -7  -8    4.42    1.67
  -9  -7  -8    6.58    2.21
   9   7   8    5.73    1.70
   9   7   8    6.26    1.42
   9   7   8    7.72    1.51
   9   7   8    7.62    2.61
   9   7   8    1.99    1.94
 -10  -7  -8    0.74    2.51
 -10  -7  -8    6.03    2.01
 -10  -7  -8    1.51    1.93
  10   7   8   -0.82    2.01
 -11  -7  -8    2.00    3.06
 -11  -7  -8    0.08    2.21
  11   7   8    3.00    2.71
   6  -8  -8    8.74    2.37
  -6   8   8   -2.25    4.16
   5  -8  -8    4.73    2.04
  -5   8   8    5.44    3.47
  -5   8   8    7.88    1.26
   4  -8  -8   31.57    2.08
   4  -8  -8   29.10    3.37
  -4   8   8   34.63    2.79
  -4   8   8   27.42    4.47
  -4   8   8   33.13    5.19
   3  -8  -8    0.76    0.63
   3  -8  -8    4.93    1.47
  -3   8   8   -4.13    2.30
  -3   8   8    4.33    1.19
  -3   8   8   -2.84    2.31
   2  -8  -8    2.56    1.41
   2  -8  -8    1.10    0.59
  -2   8   8    0.65    1.97
  -2   8   8    2.35    1.23
  -2   8   8    1.30    2.16
   1  -8  -8   -0.76    1.02
   1  -8  -8   -0.30    0.57
  -1   8   8    1.36    1.73
  -1   8   8    0.57    1.79
  -1   8   8    0.49    0.99
   0  -8  -8    9.75    1.66
   0   8   8   14.33    2.52
   0   8   8    9.89    2.44
   0   8   8    8.30    1.53
  -1  -8  -8    2.42    1.30
  -1  -8  -8    3.63    0.57
   1   8   8    4.35    1.72
   1   8   8    2.99    1.50
   1   8   8    3.98    1.28
  -2  -8  -8   11.10    1.12
  -2  -8  -8   10.83    1.74
   2   8   8    9.40    1.97
   2   8   8   10.13    1.33
   2   8   8    9.63    1.96
   2   8   8   13.29    2.06
  -3  -8  -8   10.83    1.98
  -3  -8  -8    9.19    1.43
   3   8   8    9.12    1.91
   3   8   8   13.33    2.32
   3   8   8    6.89    1.66
   3   8   8   11.28    1.52
  -4  -8  -8    7.11    1.91
  -4  -8  -8    4.57    1.00
  -4  -8  -8    2.69    1.21
   4   8   8    4.25    1.47
   4   8   8    5.53    1.50
   4   8   8    4.75    1.04
   4   8   8    4.90    1.65
  -5  -8  -8    0.15    0.80
  -5  -8  -8   -0.18    1.41
  -5  -8  -8    0.23    1.24
   5   8   8    2.53    1.72
   5   8   8    1.00    0.92
   5   8   8    1.34    1.14
   5   8   8    1.35    1.21
   5   8   8   -0.55    1.34
  -6  -8  -8    7.74    1.89
  -6  -8  -8    8.05    1.69
   6   8   8   12.33    2.13
   6   8   8    8.64    1.39
   6   8   8    5.72    1.95
   6   8   8    8.04    1.73
   6   8   8    8.45    2.31
  -7  -8  -8   -0.86    1.24
  -7  -8  -8    3.18    1.68
  -7  -8  -8   -0.29    1.01
   7   8   8    0.32    1.70
   7   8   8    0.29    1.60
   7   8   8   -0.09    1.20
   7   8   8    0.12    1.96
   7   8   8   -1.89    0.91
  -8  -8  -8   13.61    2.57
  -8  -8  -8   13.31    2.21
  -8  -8  -8   11.98    1.86
   8   8   8   15.08    2.40
   8   8   8   10.39    2.69
   8   8   8   13.35    2.07
   8   8   8   15.80    2.48
   8   8   8   16.36    2.82
  -9  -8  -8   -0.88    1.59
  -9  -8  -8    2.09    2.30
  -9  -8  -8   -1.07    1.69
   9   8   8    1.46    2.15
   9   8   8   -1.19    1.98
   9   8   8   -1.19    1.40
   9   8   8    0.05    2.11
 -10  -8  -8   -5.14    2.24
 -10  -8  -8    0.59    1.89
  10   8   8    1.25    1.74
  10   8   8    4.69    2.32
 -11  -8  -8    4.12    2.41
 -11  -8  -8    8.16    3.20
  11   8   8    4.20    2.82
   5  -9  -8    6.43    2.24
  -5   9   8    3.79    4.27
   4  -9  -8    7.72    2.03
  -4   9   8    6.67    1.64
  -4   9   8    5.70    3.10
   3  -9  -8    0.91    1.58
  -3   9   8    0.93    2.82
  -3   9   8    1.42    1.54
   2  -9  -8    2.28    0.59
   2  -9  -8    2.33    1.51
   2  -9  -8    1.46    0.53
  -2   9   8    1.33    1.46
  -2   9   8    1.86    2.35
  -2   9   8    2.98    2.32
   1  -9  -8    3.35    1.39
   1  -9  -8    2.89    0.75
   1  -9  -8    3.22    0.66
  -1   9   8    4.87    2.45
  -1   9   8    0.94    2.11
  -1   9   8    2.07    1.48
   0  -9  -8    0.04    0.63
   0   9   8   -0.49    1.66
   0   9   8   -1.85    1.20
  -1  -9  -8   25.35    1.94
  -1  -9  -8   25.63    2.76
  -1  -9  -8   21.31    1.59
   1   9   8   22.74    2.09
   1   9   8   31.32    3.75
   1   9   8   24.80    3.67
   1   9   8   31.52    2.95
  -2  -9  -8   17.50    2.61
  -2  -9  -8   21.92    1.85
   2   9   8   22.03    1.94
   2   9   8   20.71    3.04
   2   9   8   18.87    2.73
   2   9   8   19.06    3.31
  -3  -9  -8   18.33    2.79
  -3  -9  -8   22.32    1.91
  -3  -9  -8   19.26    2.88
   3   9   8   18.50    1.89
   3   9   8   21.02    2.70
   3   9   8   18.66    2.86
   3   9   8   16.78    2.76
  -4  -9  -8    1.42    1.37
  -4  -9  -8    4.64    1.60
  -4  -9  -8    1.71    0.87
   4   9   8    1.84    1.21
   4   9   8    0.75    1.66
   4   9   8    2.13    2.00
   4   9   8    2.95    0.88
   4   9   8    2.99    1.78
  -5  -9  -8   23.32    2.99
  -5  -9  -8   16.69    2.03
  -5  -9  -8   17.67    2.60
   5   9   8   27.58    3.84
   5   9   8   16.87    1.98
   5   9   8   18.28    2.74
   5   9   8   15.86    2.65
   5   9   8   14.35    2.30
  -6  -9  -8    8.84    2.25
  -6  -9  -8    6.62    1.38
  -6  -9  -8    7.32    1.88
   6   9   8    4.87    2.39
   6   9   8   10.72    2.36
   6   9   8    8.04    2.00
   6   9   8    4.66    1.27
   6   9   8    6.92    1.98
  -7  -9  -8    1.66    1.95
  -7  -9  -8    1.72    1.75
  -7  -9  -8    0.73    1.25
   7   9   8   -3.00    1.60
   7   9   8    2.35    1.18
   7   9   8    0.84    2.25
   7   9   8    3.59    2.04
  -8  -9  -8    5.50    2.14
  -8  -9  -8    4.95    1.98
  -8  -9  -8   -1.06    1.31
   8   9   8    1.41    1.25
   8   9   8    0.91    2.17
   8   9   8    2.05    1.73
  -9  -9  -8    0.71    2.26
  -9  -9  -8   -1.49    1.42
  -9  -9  -8   -0.65    2.13
   9   9   8   -4.19    1.92
   9   9   8    1.68    2.51
   9   9   8   -4.75    2.60
 -10  -9  -8    8.10    3.53
 -10  -9  -8    0.45    1.71
 -10  -9  -8   -1.54    2.51
  10   9   8    5.95    2.75
  10   9   8    4.16    2.59
 -11  -9  -8    6.41    3.32
  11   9   8    6.74    3.02
   4 -10  -8    5.07    2.64
  -4  10   8    2.47    4.16
   3 -10  -8    4.89    1.94
  -3  10   8    6.44    3.54
  -3  10   8    4.38    2.00
   2 -10  -8    3.43    1.84
  -2  10   8    6.92    1.92
  -2  10   8    8.44    3.49
   1 -10  -8    8.38    2.12
  -1  10   8    2.95    1.72
  -1  10   8    6.18    2.81
   0 -10  -8    2.10    0.60
   0 -10  -8    2.44    1.64
   0 -10  -8    1.13    0.71
   0  10   8    2.24    1.64
   0  10   8   -0.68    2.43
   0  10   8   -3.22    2.27
  -1 -10  -8   11.70    2.27
  -1 -10  -8   11.19    1.49
   1  10   8   19.19    3.32
   1  10   8   11.63    1.70
   1  10   8   11.35    2.77
   1  10   8   14.08    2.27
  -2 -10  -8    1.71    0.85
   2  10   8    0.59    0.87
   2  10   8    0.78    1.51
   2  10   8    1.48    2.09
  -3 -10  -8    1.64    0.89
  -3 -10  -8    0.38    1.92
  -3 -10  -8    0.36    1.29
   3  10   8    2.07    1.87
   3  10   8    0.37    0.88
   3  10   8    3.52    1.67
   3  10   8    0.88    1.93
  -4 -10  -8    6.49    2.19
  -4 -10  -8    3.34    1.08
  -4 -10  -8    2.47    1.77
   4  10   8    0.48    1.66
   4  10   8    3.52    0.99
   4  10   8    5.55    2.38
   4  10   8    3.79    2.18
   4  10   8    1.15    2.12
  -5 -10  -8    2.49    1.19
  -5 -10  -8    4.35    1.75
  -5 -10  -8    2.99    2.06
   5  10   8    4.67    2.26
   5  10   8    6.16    1.16
   5  10   8    6.70    2.09
   5  10   8    4.45    1.90
   5  10   8    3.31    1.94
  -6 -10  -8   11.31    2.32
  -6 -10  -8    5.81    1.35
  -6 -10  -8    6.41    2.00
   6  10   8    4.90    1.22
   6  10   8    0.70    2.44
   6  10   8    5.17    2.27
   6  10   8    3.42    2.21
   6  10   8    4.26    1.78
  -7 -10  -8    0.36    1.12
  -7 -10  -8   -0.43    2.10
  -7 -10  -8   -1.09    1.71
   7  10   8    0.18    1.17
   7  10   8    1.13    2.69
   7  10   8    2.79    2.53
   7  10   8   -0.44    2.17
  -8 -10  -8    3.26    2.07
  -8 -10  -8    5.54    1.76
  -8 -10  -8    1.52    2.55
   8  10   8    6.38    2.72
   8  10   8    1.90    1.49
   8  10   8    3.81    2.72
  -9 -10  -8    2.41    1.59
  -9 -10  -8    1.72    2.82
  -9 -10  -8    3.95    2.52
   9  10   8    7.10    3.15
   9  10   8    0.15    2.83
   9  10   8    1.86    2.08
 -10 -10  -8    2.38    2.02
 -10 -10  -8   -1.21    2.89
  10  10   8    3.04    3.30
  10  10   8    0.08    2.19
   3 -11  -8    2.51    2.49
  -3  11   8    0.41    4.38
   2 -11  -8   -1.10    2.04
  -2  11   8   -1.25    2.32
  -2  11   8    0.85    3.69
   1 -11  -8    8.17    2.50
  -1  11   8    7.71    3.42
  -1  11   8    9.95    2.57
   0 -11  -8   -1.00    1.72
   0  11   8    1.84    1.96
   0  11   8    0.18    1.01
   0  11   8    0.14    3.04
  -1 -11  -8    1.52    0.66
  -1 -11  -8    2.10    0.69
  -1 -11  -8    3.17    2.01
   1  11   8    4.16    1.97
   1  11   8    4.64    2.53
   1  11   8    0.92    1.03
  -2 -11  -8    4.87    2.07
  -2 -11  -8    3.53    0.94
   2  11   8    5.27    2.67
   2  11   8    4.91    1.15
   2  11   8    5.78    2.16
  -3 -11  -8    9.23    1.32
  -3 -11  -8   12.06    3.03
   3  11   8    8.91    2.82
   3  11   8    5.73    3.02
   3  11   8    8.90    1.38
   3  11   8   11.17    2.48
  -4 -11  -8   31.07    4.62
  -4 -11  -8   19.79    2.18
   4  11   8   26.13    3.61
   4  11   8   22.06    3.91
   4  11   8   26.45    3.85
   4  11   8   21.34    2.20
   4  11   8   12.97    3.03
  -5 -11  -8    8.38    2.30
  -5 -11  -8    6.58    1.32
  -5 -11  -8    7.71    2.76
   5  11   8    5.14    3.03
   5  11   8    7.40    2.61
   5  11   8    7.54    2.70
   5  11   8    7.65    1.40
  -6 -11  -8   -2.47    2.38
  -6 -11  -8    0.14    1.10
  -6 -11  -8   -0.66    2.01
   6  11   8   -2.61    2.53
   6  11   8    0.11    2.31
   6  11   8   -1.97    2.80
   6  11   8    0.56    1.06
  -7 -11  -8   -0.06    2.62
  -7 -11  -8    3.82    2.43
  -7 -11  -8    1.73    1.28
   7  11   8    2.65    1.33
   7  11   8    9.00    3.53
   7  11   8    1.78    2.71
   7  11   8    0.12    2.83
  -8 -11  -8    4.84    1.66
  -8 -11  -8    3.86    3.05
  -8 -11  -8    4.84    2.34
   8  11   8    6.95    3.51
   8  11   8    7.07    1.72
   8  11   8    0.07    2.97
  -9 -11  -8   -0.09    2.53
  -9 -11  -8    3.85    3.36
   9  11   8   -4.99    3.43
   9  11   8   -3.33    3.77
 -10 -11  -8   -1.94    2.05
 -10 -11  -8    3.63    3.43
  10  11   8    1.54    2.45
  10  11   8   -7.86    4.12
   1 -12  -8   -0.47    2.24
  -1  12   8    0.69    2.91
  -1  12   8   -5.12    3.91
   0 -12  -8   10.30    2.75
   0  12   8    9.48    4.30
   0  12   8   10.14    1.62
  -1 -12  -8   16.20    2.87
   1  12   8   15.89    2.17
   1  12   8   17.33    4.08
  -2 -12  -8   10.98    2.49
  -2 -12  -8    8.52    1.11
   2  12   8   13.36    2.02
   2  12   8   10.38    3.55
  -3 -12  -8    7.59    1.15
  -3 -12  -8    6.55    2.20
  -3 -12  -8    9.90    6.85
   3  12   8    6.29    1.30
   3  12   8    9.15    3.64
   3  12   8    8.29    3.21
  -4 -12  -8    2.86    3.58
  -4 -12  -8    0.87    1.10
  -4 -12  -8    4.84    2.14
   4  12   8   -2.28    2.89
   4  12   8    5.14    3.34
  -5 -12  -8   -0.45    3.15
  -5 -12  -8    0.35    1.21
  -5 -12  -8    0.91    2.08
   5  12   8    2.30    3.16
   5  12   8    0.51    1.07
   5  12   8    2.54    2.96
  -6 -12  -8   -0.14    1.35
  -6 -12  -8    0.53    3.50
   6  12   8    3.49    2.65
   6  12   8   -1.05    3.55
   6  12   8    1.90    1.29
  -7 -12  -8    6.64    3.69
  -7 -12  -8    7.64    1.81
   7  12   8    6.71    3.69
   7  12   8    4.89    3.24
  -8 -12  -8   -0.49    1.68
   8  12   8   -0.75    3.89
  -9 -12  -8    5.48    1.95
   9  12   8    0.92    4.61
  -1 -13  -8    0.67    2.41
   1  13   8    7.62    4.79
   1  13   8   -3.61    4.19
  -2 -13  -8   -1.43    2.56
   2  13   8    4.32    1.29
   2  13   8    2.29    3.86
   2  13   8    2.29    4.12
  -3 -13  -8    2.20    2.51
   3  13   8    3.50    3.72
   3  13   8    6.08    4.04
   3  13   8   -0.80    1.07
  -4 -13  -8    3.16    1.27
  -4 -13  -8    4.05    2.57
   4  13   8    0.66    1.14
   4  13   8   -0.50    3.71
   4  13   8   -1.57    3.96
  -5 -13  -8    5.78    1.49
  -5 -13  -8    9.56    2.72
   5  13   8    7.83    3.66
   5  13   8    3.99    1.41
   5  13   8    2.51    4.31
  -6 -13  -8    4.02    1.56
  -6 -13  -8   -0.12    2.59
   6  13   8   -0.68    3.68
   6  13   8   11.10    4.35
   6  13   8    2.78    1.44
  -7 -13  -8    8.07    2.86
  -7 -13  -8   10.11    2.11
   7  13   8    7.29    4.33
   7  13   8    8.16    4.72
  -6  -6   9   -0.26    2.10
   5   6  -9   -3.39    4.05
  -5  -6   9   -1.51    2.04
   4   6  -9   -1.83    2.35
   4   6  -9    0.88    3.70
  -4  -6   9   -0.22    1.43
  -4  -6   9    1.76    4.42
  -4  -6   9    1.82    1.94
   3   6  -9    7.43    3.78
  -3  -6   9    0.46    3.85
  -3  -6   9   -1.99    2.43
  -3  -6   9    3.63    2.26
  -3  -6   9    2.00    3.82
   2   6  -9    2.43    3.52
  -2  -6   9   -3.46    3.35
  -2  -6   9    4.27    2.08
  -2  -6   9    3.53    1.53
   1   6  -9    1.55    2.91
   1   6  -9    3.83    3.60
  -1  -6   9    4.32    2.31
  -1  -6   9    1.68    1.43
   0   6  -9    5.40    3.84
   0   6  -9   -0.80    2.87
   0  -6   9    1.05    2.08
   0  -6   9    3.22    2.49
  -1   6  -9    1.52    3.89
  -1   6  -9    5.32    4.02
   1  -6   9    5.41    1.80
   1  -6   9    6.73    3.40
   7   5  -9    7.37    3.10
   7   5  -9    6.39    4.23
  -7  -5   9    8.31    2.63
   6   5  -9   14.11    4.23
   6   5  -9    8.73    2.74
  -6  -5   9    9.79    2.26
   5   5  -9   -6.58    3.06
  -5  -5   9    2.02    1.87
  -5  -5   9   10.32    4.01
   4   5  -9    4.65    3.19
   4   5  -9    2.99    1.98
  -4  -5   9    1.64    3.65
  -4  -5   9    2.37    1.60
  -4  -5   9    1.24    3.62
   3   5  -9   17.21    3.03
   3   5  -9    9.03    3.34
   3   5  -9   12.82    2.39
  -3  -5   9   10.68    2.13
  -3  -5   9   10.37    2.05
  -3  -5   9    7.22    3.50
  -3  -5   9   10.81    3.42
   2   5  -9   -3.81    2.64
   2   5  -9    0.59    2.25
  -2  -5   9    3.56    2.85
  -2  -5   9    0.55    1.50
  -2  -5   9    3.71    2.79
  -2  -5   9   -0.84    1.22
   1   5  -9    9.09    2.65
   1   5  -9   10.17    3.27
  -1  -5   9    8.73    2.67
  -1  -5   9    7.91    1.85
  -1  -5   9    4.17    2.23
  -1  -5   9    4.47    1.48
   0   5  -9    4.38    3.13
   0   5  -9    5.65    2.56
   0  -5   9    1.66    1.90
   0  -5   9   -2.09    2.52
   0  -5   9   -0.30    1.46
  -1   5  -9   -0.29    3.16
  -1   5  -9    7.55    2.72
   1  -5   9    2.38    2.06
   1  -5   9    0.66    1.51
  -2   5  -9   -2.47    3.34
  -2   5  -9   -2.06    2.91
   2  -5   9    2.78    2.04
   2  -5   9   -0.73    1.41
  -3   5  -9    5.94    3.32
  -3   5  -9    2.27    3.56
   3  -5   9    3.13    1.77
   3  -5   9    2.95    2.63
   8   4  -9   -0.95    4.00
   8   4  -9    6.51    2.60
  -8  -4   9    0.16    2.04
   7   4  -9   20.88    3.19
   7   4  -9   23.87    5.02
  -7  -4   9   19.06    3.24
   6   4  -9   15.21    2.05
   6   4  -9   16.32    2.86
   6   4  -9   20.12    4.00
  -6  -4   9   10.25    2.12
   5   4  -9    4.82    1.59
   5   4  -9    0.00    2.01
   5   4  -9    5.30    2.95
  -5  -4   9    1.08    1.55
  -5  -4   9    5.07    3.53
   4   4  -9   -1.01    1.45
   4   4  -9    3.81    2.02
   4   4  -9   -4.22    2.39
  -4  -4   9    1.45    3.28
  -4  -4   9    1.06    1.39
  -4  -4   9   -5.37    2.58
   3   4  -9   10.33    1.96
   3   4  -9    6.95    3.01
   3   4  -9    7.79    2.10
  -3  -4   9    1.37    2.93
  -3  -4   9    4.30    1.54
  -3  -4   9    8.26    2.77
   2   4  -9   29.13    3.26
   2   4  -9   29.98    3.12
   2   4  -9   31.25    3.80
   2   4  -9   21.76    3.75
  -2  -4   9   29.11    3.04
  -2  -4   9   27.21    4.51
  -2  -4   9   24.21    2.52
  -2  -4   9   25.64    4.16
   1   4  -9    2.85    1.56
   1   4  -9    5.05    2.20
   1   4  -9    5.53    1.80
   1   4  -9    4.18    2.91
  -1  -4   9    3.63    1.42
  -1  -4   9    5.43    2.09
  -1  -4   9    2.21    1.14
  -1  -4   9    3.89    2.15
   0   4  -9    0.10    2.52
   0   4  -9    3.20    1.89
   0   4  -9   -0.54    1.97
   0  -4   9    1.52    2.09
   0  -4   9    1.78    1.56
   0  -4   9    1.08    1.16
   0  -4   9   -1.09    1.59
  -1   4  -9    1.14    2.73
  -1   4  -9   -2.32    2.08
  -1   4  -9   -0.38    1.46
   1  -4   9    0.67    1.58
   1  -4   9    2.24    1.82
  -2   4  -9    2.37    2.58
  -2   4  -9    1.15    2.19
  -2   4  -9   -1.33    1.87
   2  -4   9    0.44    1.31
   2  -4   9    1.68    1.67
  -3   4  -9    0.22    2.71
  -3   4  -9   -2.33    2.34
   3  -4   9   -1.77    1.46
   3  -4   9    3.17    2.16
  -4   4  -9    5.23    3.00
  -4   4  -9    2.99    3.31
   4  -4   9    4.51    1.81
   8   3  -9   12.79    2.97
   8   3  -9   12.71    2.49
   8   3  -9   14.09    4.18
  -8  -3   9   15.70    2.41
   7   3  -9   12.14    2.95
   7   3  -9   14.00    3.59
  -7  -3   9   10.96    2.12
   6   3  -9   -2.29    2.77
   6   3  -9   -2.21    1.79
  -6  -3   9   -5.17    3.22
  -6  -3   9   -1.48    1.23
   5   3  -9    2.84    1.31
   5   3  -9    0.44    2.37
   5   3  -9    2.77    1.90
  -5  -3   9   -1.24    2.46
  -5  -3   9    7.69    3.34
  -5  -3   9    2.65    1.28
   4   3  -9    8.18    2.86
   4   3  -9    5.46    1.64
   4   3  -9    5.90    1.43
   4   3  -9    2.31    1.82
  -4  -3   9    2.45    3.01
  -4  -3   9    1.70    2.31
  -4  -3   9    3.20    1.43
   3   3  -9   26.72    4.09
   3   3  -9   21.05    3.13
   3   3  -9   21.76    2.85
   3   3  -9   28.19    2.70
  -3  -3   9   27.94    4.11
  -3  -3   9   19.02    2.57
  -3  -3   9   22.31    3.17
   2   3  -9    2.08    1.36
   2   3  -9    0.42    1.65
   2   3  -9   -0.29    2.10
   2   3  -9    1.14    1.34
  -2  -3   9    2.10    1.21
  -2  -3   9    3.55    1.93
  -2  -3   9    2.50    2.02
   1   3  -9    1.07    1.27
   1   3  -9    3.01    1.64
   1   3  -9    1.21    2.09
   1   3  -9    0.54    1.27
  -1  -3   9    2.15    0.97
  -1  -3   9    2.05    1.90
  -1  -3   9    3.74    1.69
  -1  -3   9    3.73    1.33
   0   3  -9    0.20    1.68
   0   3  -9   -3.38    1.96
   0   3  -9   -0.78    1.38
   0   3  -9   -0.27    1.18
   0  -3   9    1.13    1.09
   0  -3   9    0.30    1.43
   0  -3   9    1.38    1.03
  -1   3  -9    3.11    1.55
  -1   3  -9    0.65    1.92
  -1   3  -9    1.12    1.18
  -1   3  -9   -2.50    2.32
   1  -3   9    1.39    1.32
   1  -3   9    0.10    0.95
   1  -3   9   -0.60    1.00
   1  -3   9    1.70    1.46
  -2   3  -9    2.99    2.29
  -2   3  -9    2.32    2.14
   2  -3   9   -0.87    1.34
   2  -3   9   -0.74    1.09
  -3   3  -9    4.82    2.35
  -3   3  -9    3.24    2.43
   3  -3   9    2.03    1.37
   3  -3   9    1.88    1.77
  -4   3  -9   15.19    3.12
   4  -3   9   13.22    2.13
  -5   3  -9   19.17    3.41
  -5   3  -9   24.17    3.97
   5  -3   9   22.01    3.40
  -6   3  -9   -4.65    3.06
   9   2  -9    7.96    4.01
   9   2  -9   -2.57    2.72
  -9  -2   9    3.65    1.86
   8   2  -9    3.54    1.64
   8   2  -9   -0.29    3.12
   8   2  -9   -0.31    2.41
  -8  -2   9    4.16    1.63
   7   2  -9    1.55    1.08
   7   2  -9    6.12    2.91
   7   2  -9    2.51    1.77
   7   2  -9    1.54    1.83
  -7  -2   9    1.36    1.42
   6   2  -9   15.97    2.09
   6   2  -9   21.35    2.88
   6   2  -9   16.44    3.35
  -6  -2   9   17.03    2.35
  -6  -2   9   24.69    4.20
   5   2  -9   55.08    4.18
   5   2  -9   52.21    3.94
   5   2  -9   51.37    3.51
   5   2  -9   41.98    5.41
  -5  -2   9   51.55    5.93
  -5  -2   9   55.94    5.84
   4   2  -9   65.44    4.95
   4   2  -9   70.10    4.62
   4   2  -9   66.64    6.02
  -4  -2   9   74.53    5.75
  -4  -2   9   62.86    4.78
  -4  -2   9   73.60    6.42
   3   2  -9   12.24    2.92
   3   2  -9   18.05    3.15
   3   2  -9   17.54    2.33
  -3  -2   9   16.64    2.57
  -3  -2   9   12.84    3.16
  -3  -2   9   14.00    2.35
   2   2  -9   14.56    1.87
   2   2  -9   13.17    2.22
   2   2  -9   19.53    3.05
  -2  -2   9   14.66    2.74
   1   2  -9    3.84    2.04
   1   2  -9    2.79    1.12
   1   2  -9    3.30    1.54
  -1  -2   9    2.88    1.08
  -1  -2   9    3.86    2.00
  -1  -2   9    4.07    1.47
  -1  -2   9    4.04    1.18
   0   2  -9    2.90    1.14
   0   2  -9   -1.40    1.05
   0   2  -9   -0.92    2.11
   0   2  -9    0.55    1.51
   0  -2   9   -1.05    1.37
   0  -2   9    0.73    0.82
   0  -2   9    0.01    0.98
  -1   2  -9    1.44    1.87
  -1   2  -9    1.81    1.54
  -1   2  -9    3.13    1.26
   1  -2   9    2.81    1.11
   1  -2   9    1.80    1.32
   1  -2   9    4.13    1.25
   1  -2   9    3.11    1.05
  -2   2  -9   26.80    3.06
  -2   2  -9   27.18    3.54
  -2   2  -9   33.80    3.96
  -2   2  -9   31.73    2.81
   2  -2   9   23.05    2.81
  -3   2  -9    9.83    1.98
  -3   2  -9   12.02    1.97
  -3   2  -9   11.96    2.46
  -3   2  -9    9.40    2.17
   3  -2   9   10.95    2.11
   3  -2   9   10.53    1.70
  -4   2  -9    0.33    1.93
  -4   2  -9   -3.22    1.87
   4  -2   9    1.14    1.37
  -5   2  -9    0.21    2.38
  -5   2  -9    1.06    1.94
   5  -2   9   -0.83    1.29
  -6   2  -9   -1.42    2.49
  -6   2  -9   -0.80    2.30
   6  -2   9   -3.02    1.73
   9   1  -9    3.50    3.55
   9   1  -9    2.16    2.50
  -9  -1   9    0.65    1.69
   8   1  -9    0.25    1.44
   8   1  -9    1.83    2.39
   8   1  -9   -2.78    3.07
  -8  -1   9    0.70    1.34
   7   1  -9   -1.09    1.33
   7   1  -9   -0.19    2.51
  -7  -1   9   -1.07    1.13
   6   1  -9    1.05    1.49
   6   1  -9   -0.92    2.05
   6   1  -9    1.57    1.38
   6   1  -9   -1.01    1.31
  -6  -1   9    1.05    0.99
   5   1  -9    3.21    2.36
   5   1  -9   -0.34    1.35
   5   1  -9    2.84    1.30
  -5  -1   9   -0.49    2.21
  -5  -1   9    3.06    2.59
  -5  -1   9    0.85    1.01
   4   1  -9   17.28    3.06
   4   1  -9   15.78    2.43
   4   1  -9   13.49    2.13
  -4  -1   9   23.35    3.92
  -4  -1   9   15.67    3.05
  -4  -1   9   15.53    1.86
   3   1  -9    5.15    1.30
   3   1  -9    4.63    1.46
   3   1  -9    5.71    1.88
  -3  -1   9    7.35    2.08
  -3  -1   9    6.28    1.19
  -3  -1   9    4.64    2.20
   2   1  -9    2.48    1.82
   2   1  -9    1.44    1.22
   2   1  -9    1.78    0.90
  -2  -1   9    2.31    1.43
  -2  -1   9    0.59    1.78
  -2  -1   9    4.55    1.12
   1   1  -9    3.20    1.04
   1   1  -9    3.57    1.90
   1   1  -9    2.67    1.39
  -1  -1   9    4.15    1.02
  -1  -1   9    1.96    1.80
  -1  -1   9    0.96    1.09
   0   1  -9   -0.40    1.55
   0  -1   9   -0.77    0.98
   0  -1   9   -2.75    1.36
   0  -1   9   -0.57    0.67
   0  -1   9    0.54    0.91
  -1   1  -9   11.47    2.20
  -1   1  -9   12.46    1.90
  -1   1  -9   15.40    2.31
   1  -1   9   13.24    1.52
   1  -1   9   13.12    1.66
  -2   1  -9    8.04    1.91
  -2   1  -9    5.24    1.97
  -2   1  -9    8.83    1.48
   2  -1   9    9.65    1.48
   2  -1   9    7.10    1.24
   2  -1   9    9.30    1.58
  -3   1  -9    1.35    1.67
  -3   1  -9    2.92    1.18
  -3   1  -9    0.60    1.41
   3  -1   9    3.61    1.10
   3  -1   9    0.75    1.23
  -4   1  -9   10.65    2.10
  -4   1  -9   10.75    2.00
  -4   1  -9   10.82    1.81
  -4   1  -9    7.00    2.12
   4  -1   9    8.44    1.53
  -5   1  -9    7.37    2.17
  -5   1  -9    9.92    2.32
   5  -1   9    4.84    1.52
  -6   1  -9    2.25    2.07
  -6   1  -9    5.14    2.41
   6  -1   9    1.01    1.58
  -7   1  -9   -0.47    2.62
  -7   1  -9    0.22    2.16
  -7   1  -9    1.85    1.95
   7  -1   9    2.30    1.98
   9   0  -9    0.34    2.52
   9   0  -9   -0.67    3.36
   8   0  -9   -0.02    1.28
   8   0  -9    2.84    2.09
   8   0  -9    2.76    2.69
  -8   0   9   -0.04    1.17
   7   0  -9    5.78    2.74
   7   0  -9    3.58    1.60
   7   0  -9    3.72    1.31
  -7   0   9    4.28    1.18
   6   0  -9    5.36    1.63
   6   0  -9    6.03    1.58
   6   0  -9    6.59    2.48
   6   0  -9    6.49    1.47
  -6   0   9    5.97    1.20
  -6   0   9    5.12    3.13
   5   0  -9   17.00    2.25
   5   0  -9   14.19    2.16
   5   0  -9   14.40    2.22
   5   0  -9   18.47    3.11
  -5   0   9   19.48    1.85
  -5   0   9   19.13    3.41
   4   0  -9    9.08    1.51
   4   0  -9    5.46    1.40
   4   0  -9    6.01    1.23
   4   0  -9    2.34    1.94
  -4   0   9    6.78    2.50
  -4   0   9    5.93    1.11
   3   0  -9   -0.84    1.16
   3   0  -9    0.48    0.87
   3   0  -9    2.03    1.54
  -3   0   9    0.60    0.70
  -3   0   9    5.00    2.26
   2   0  -9   21.03    3.42
   2   0  -9   21.16    2.14
   2   0  -9   18.98    2.29
   2   0  -9   23.59    2.50
  -2   0   9   23.38    2.02
  -2   0   9   30.19    2.94
  -2   0   9   19.08    2.90
   1   0  -9   13.78    1.85
   1   0  -9   15.74    1.83
   1   0  -9   15.47    2.60
   1   0  -9   14.16    2.14
  -1   0   9    9.87    1.57
  -1   0   9   15.73    2.66
  -1   0   9   14.44    2.11
   0   0  -9   41.59    3.34
   0   0  -9   46.23    3.73
   0   0  -9   50.88    4.36
   0   0   9   46.34    3.25
   0   0   9   50.14    3.24
   0   0   9   53.92    3.38
  -1   0  -9    0.32    1.39
  -1   0  -9   -0.24    0.77
  -1   0  -9   -0.01    1.10
   1   0   9    0.51    0.78
   1   0   9    0.75    0.57
   1   0   9    0.61    0.83
   1   0   9   -0.09    1.12
  -2   0  -9   16.95    2.68
  -2   0  -9   23.10    2.24
  -2   0  -9   23.47    3.09
   2   0   9   23.09    2.27
   2   0   9   23.88    2.21
   2   0   9   20.26    2.26
  -3   0  -9   12.15    1.79
  -3   0  -9    7.63    2.03
  -3   0  -9    8.06    1.95
  -4   0  -9    5.71    1.47
  -4   0  -9    2.77    1.83
  -4   0  -9    5.36    1.82
   4   0   9    2.64    1.17
  -5   0  -9   19.87    3.01
  -5   0  -9   27.29    3.50
  -5   0  -9   21.94    2.82
  -5   0  -9   31.06    3.50
   5   0   9   31.67    2.87
  -6   0  -9    2.16    2.00
  -6   0  -9    0.05    1.63
   6   0   9    2.51    1.98
   6   0   9   -0.12    1.41
  -7   0  -9    3.44    1.80
  -7   0  -9    5.15    1.77
   7   0   9    5.89    2.34
   7   0   9    6.54    1.76
  -8   0  -9    3.67    2.11
  -8   0  -9    3.41    2.98
  -8   0  -9    3.30    2.09
   8   0   9    0.40    2.15
   9  -1  -9    6.43    2.87
   9  -1  -9    9.63    3.32
   8  -1  -9    5.59    2.26
   8  -1  -9    6.32    2.83
  -8   1   9    4.96    1.21
   7  -1  -9   11.63    2.93
   7  -1  -9   13.19    2.14
   7  -1  -9   14.06    2.25
   7  -1  -9   13.26    1.64
  -7   1   9   10.80    1.62
   6  -1  -9    3.92    1.15
   6  -1  -9    1.82    1.28
   6  -1  -9   -0.07    1.23
   6  -1  -9    1.64    2.13
  -6   1   9    1.74    0.80
  -6   1   9    5.65    2.68
   5  -1  -9    7.70    1.35
   5  -1  -9    6.55    1.35
   5  -1  -9    7.96    1.41
   5  -1  -9    4.08    2.06
  -5   1   9    7.66    1.10
  -5   1   9    4.96    2.69
   4  -1  -9    2.28    0.97
   4  -1  -9    2.60    1.03
   4  -1  -9    2.81    1.81
   4  -1  -9    1.53    0.94
  -4   1   9   -1.96    1.79
  -4   1   9    2.39    0.77
   3  -1  -9    7.73    1.47
   3  -1  -9   11.86    1.80
   3  -1  -9    8.54    1.19
   3  -1  -9    9.02    3.30
  -3   1   9    8.58    2.50
  -3   1   9    8.32    1.26
   2  -1  -9   -0.87    0.67
   2  -1  -9   -0.25    0.68
   2  -1  -9    0.29    1.30
   2  -1  -9   -0.82    0.87
   2  -1  -9   -0.21    0.53
  -2   1   9   -0.26    0.58
  -2   1   9   -1.13    1.59
   1  -1  -9   -0.36    1.00
   1  -1  -9    0.03    0.78
   1  -1  -9    0.01    1.31
  -1   1   9   -0.31    0.61
  -1   1   9   -2.06    1.23
  -1   1   9   -0.99    1.00
   0  -1  -9    1.37    1.06
   0  -1  -9    2.22    1.36
   0  -1  -9    2.20    0.66
   0  -1  -9    2.03    0.75
   0   1   9    1.21    1.49
   0   1   9    2.87    0.85
   0   1   9    1.81    0.85
  -1  -1  -9   10.25    1.50
  -1  -1  -9   11.19    1.40
  -1  -1  -9    7.27    1.88
  -1  -1  -9    8.38    1.66
   1   1   9    6.65    1.21
   1   1   9   10.06    1.91
   1   1   9    8.89    1.52
   1   1   9   10.68    1.08
  -2  -1  -9    3.75    1.60
  -2  -1  -9    3.96    1.07
  -2  -1  -9    5.20    1.33
  -2  -1  -9    5.44    1.70
   2   1   9    3.55    1.32
   2   1   9    2.80    0.98
  -3  -1  -9    5.89    1.21
  -3  -1  -9    5.51    1.77
  -3  -1  -9    6.99    1.76
   3   1   9    5.24    1.19
   3   1   9    4.60    1.11
  -4  -1  -9    1.49    1.06
  -4  -1  -9    2.06    1.60
  -4  -1  -9    0.84    1.33
   4   1   9    2.71    1.03
  -5  -1  -9   -1.00    1.47
  -5  -1  -9    0.70    1.43
  -5  -1  -9    2.79    1.18
   5   1   9    2.08    1.34
   5   1   9    0.60    0.99
  -6  -1  -9    2.05    1.97
  -6  -1  -9    2.59    1.69
  -6  -1  -9    3.06    1.42
   6   1   9    1.14    1.74
   6   1   9    2.93    1.47
  -7  -1  -9   -0.96    2.00
  -7  -1  -9    0.44    1.64
  -7  -1  -9    0.25    1.56
   7   1   9    0.55    1.58
   7   1   9    1.89    1.76
  -8  -1  -9   10.81    2.35
  -8  -1  -9   10.24    2.73
   8   1   9   17.10    2.59
   8   1   9    5.10    2.49
  -9  -1  -9    2.42    3.30
  -9  -1  -9    6.84    2.52
   9   1   9    3.13    2.46
   9  -2  -9    5.58    2.87
   9  -2  -9    9.36    2.87
   8  -2  -9    1.83    1.26
   8  -2  -9    3.44    2.27
   8  -2  -9   -2.06    2.52
  -8   2   9    1.32    0.91
   7  -2  -9   -0.31    1.29
   7  -2  -9   -0.97    1.52
   7  -2  -9    0.89    2.10
   7  -2  -9    3.50    1.65
  -7   2   9    0.98    0.70
   6  -2  -9   -0.06    1.33
   6  -2  -9   -1.19    2.15
   6  -2  -9   -0.91    1.23
   6  -2  -9   -0.08    0.91
  -6   2   9    3.61    3.12
  -6   2   9    0.87    0.63
   5  -2  -9    4.14    1.97
   5  -2  -9    6.15    1.34
   5  -2  -9    6.24    1.41
   5  -2  -9    5.23    1.12
  -5   2   9    6.50    1.08
  -5   2   9    8.19    2.64
   4  -2  -9   -0.99    0.87
   4  -2  -9   -0.52    1.53
   4  -2  -9   -0.68    0.92
   4  -2  -9   -0.49    0.78
  -4   2   9   -1.77    1.74
  -4   2   9    0.90    0.59
   3  -2  -9   14.98    1.22
   3  -2  -9   15.84    1.85
   3  -2  -9   11.99    2.68
   3  -2  -9   16.65    2.06
  -3   2   9   16.56    2.70
  -3   2   9   17.11    1.47
   2  -2  -9   17.79    1.68
   2  -2  -9   12.02    1.76
   2  -2  -9   10.95    2.18
  -2   2   9   13.56    1.39
  -2   2   9   13.43    2.40
   1  -2  -9   12.71    2.29
   1  -2  -9   12.17    1.87
  -1   2   9   11.00    1.28
  -1   2   9   10.76    2.21
   0  -2  -9   17.82    2.20
   0  -2  -9   17.90    1.60
   0  -2  -9   19.72    2.68
   0   2   9   17.54    2.59
   0   2   9   15.51    1.65
  -1  -2  -9    0.89    1.21
  -1  -2  -9    1.33    0.74
  -1  -2  -9    0.33    1.05
   1   2   9   -0.15    0.61
   1   2   9   -0.10    0.67
   1   2   9    0.51    0.54
   1   2   9    0.91    1.33
  -2  -2  -9   -0.76    0.63
  -2  -2  -9    2.09    1.23
  -2  -2  -9   -0.01    1.17
   2   2   9   -0.78    0.67
   2   2   9    0.34    1.26
  -3  -2  -9    0.40    0.74
  -3  -2  -9    0.52    1.28
  -3  -2  -9   -0.48    1.15
   3   2   9   -0.36    0.79
   3   2   9    2.37    1.18
  -4  -2  -9   -2.32    1.18
  -4  -2  -9   -1.45    1.38
  -4  -2  -9   -0.02    0.78
   4   2   9   -0.27    0.74
   4   2   9    0.75    1.50
   4   2   9    2.56    0.91
  -5  -2  -9    0.16    1.34
  -5  -2  -9    0.12    1.55
  -5  -2  -9    0.34    1.06
   5   2   9    0.90    1.12
   5   2   9    0.38    0.96
  -6  -2  -9    5.12    1.79
  -6  -2  -9    6.78    1.39
  -6  -2  -9    2.44    1.46
   6   2   9    5.22    1.40
   6   2   9    3.85    1.48
  -7  -2  -9   11.73    1.92
  -7  -2  -9   10.99    2.05
  -7  -2  -9   15.31    2.60
   7   2   9   10.50    1.97
   7   2   9   14.57    2.51
  -8  -2  -9   41.99    3.99
  -8  -2  -9   45.68    5.12
   8   2   9   47.06    4.40
   8   2   9   46.11    4.23
  -9  -2  -9   14.94    2.80
  -9  -2  -9   19.70    3.51
   9   2   9   26.68    3.85
   8  -3  -9    4.05    3.36
   8  -3  -9    4.83    2.43
   8  -3  -9    3.74    1.50
   7  -3  -9   16.77    2.19
   7  -3  -9   19.26    2.63
   7  -3  -9   16.70    2.36
   7  -3  -9   15.14    2.82
   6  -3  -9    5.19    1.51
   6  -3  -9    3.52    2.07
   6  -3  -9    5.35    1.40
   6  -3  -9    5.12    0.84
  -6   3   9    5.50    3.57
   5  -3  -9   36.42    3.87
   5  -3  -9   35.97    2.94
   5  -3  -9   34.36    2.58
   5  -3  -9   37.24    2.80
  -5   3   9   34.88    4.90
  -5   3   9   31.97    2.00
   4  -3  -9    6.44    1.93
   4  -3  -9    7.42    1.24
   4  -3  -9    7.03    1.15
   4  -3  -9    5.03    1.19
  -4   3   9    6.97    2.57
  -4   3   9    5.47    0.85
   3  -3  -9   -0.51    1.59
   3  -3  -9    1.29    1.05
   3  -3  -9    2.68    0.90
  -3   3   9    2.76    0.59
  -3   3   9    3.29    1.88
   2  -3  -9   17.39    2.03
   2  -3  -9   16.09    1.77
   2  -3  -9   18.40    2.88
  -2   3   9   14.87    2.55
   1  -3  -9    0.04    1.16
   1  -3  -9    0.99    1.04
  -1   3   9    1.10    1.43
   0  -3  -9    4.79    1.21
   0  -3  -9    4.27    1.56
   0  -3  -9    4.64    0.80
   0   3   9    4.55    1.70
   0   3   9    2.97    1.08
  -1  -3  -9    9.71    1.67
  -1  -3  -9   13.15    2.25
  -1  -3  -9   11.30    1.36
   1   3   9   12.88    2.22
   1   3   9    9.88    1.34
   1   3   9   11.00    1.41
  -2  -3  -9    4.48    1.39
  -2  -3  -9    5.58    1.65
  -2  -3  -9    7.10    1.09
   2   3   9    4.16    0.99
   2   3   9    8.73    1.74
  -3  -3  -9   14.40    2.31
  -3  -3  -9   14.24    1.57
  -3  -3  -9   12.67    2.01
   3   3   9   12.17    1.68
   3   3   9   15.26    2.32
  -4  -3  -9    2.55    2.32
  -4  -3  -9    2.44    1.33
  -4  -3  -9    0.17    0.80
   4   3   9   -0.51    0.86
   4   3   9    2.05    1.10
   4   3   9    0.19    0.80
  -5  -3  -9    2.04    0.86
  -5  -3  -9    2.52    1.59
  -5  -3  -9    0.98    1.25
   5   3   9    2.75    0.87
   5   3   9    2.21    1.19
   5   3   9    0.93    0.95
   5   3   9    2.22    0.78
  -6  -3  -9    2.21    1.12
  -6  -3  -9    5.24    1.72
  -6  -3  -9    1.06    1.25
   6   3   9    2.04    1.10
   6   3   9   -0.31    1.09
  -7  -3  -9    1.98    1.35
  -7  -3  -9    1.96    1.43
  -7  -3  -9    2.26    2.04
   7   3   9    0.12    1.30
   7   3   9   -0.37    1.21
  -8  -3  -9   -0.65    1.56
  -8  -3  -9    0.03    2.18
   8   3   9   -0.49    1.58
   8   3   9    2.67    1.68
  -9  -3  -9   12.22    3.06
  -9  -3  -9    3.39    1.92
   9   3   9    6.75    2.17
   9   3   9    1.82    2.01
 -10  -3  -9    1.93    3.33
 -10  -3  -9   -0.64    2.41
  10   3   9    5.08    2.28
   8  -4  -9   -4.79    2.24
   8  -4  -9    1.85    1.64
   8  -4  -9   -5.50    2.43
   7  -4  -9    5.40    1.73
   7  -4  -9    7.72    1.84
   6  -4  -9    3.85    1.73
   6  -4  -9    2.95    1.48
   6  -4  -9    4.10    1.98
   6  -4  -9    1.63    1.35
   5  -4  -9   17.46    1.73
   5  -4  -9   14.01    2.44
   5  -4  -9   13.34    1.99
   5  -4  -9   14.50    2.18
  -5   4   9   13.26    3.30
   4  -4  -9   16.28    1.84
   4  -4  -9   20.73    2.06
   4  -4  -9   16.97    2.91
   4  -4  -9   20.83    2.06
  -4   4   9   19.60    3.24
   3  -4  -9   22.06    2.09
   3  -4  -9   21.19    2.91
   3  -4  -9   14.42    1.87
  -3   4   9   21.81    3.64
   2  -4  -9    5.02    1.56
   2  -4  -9    2.49    1.07
   2  -4  -9    0.91    0.73
  -2   4   9    2.66    1.36
  -2   4   9    5.72    1.94
   1  -4  -9   34.81    2.93
   1  -4  -9   35.39    3.42
  -1   4   9   34.97    2.77
  -1   4   9   38.92    3.69
  -1   4   9   39.24    3.32
   0  -4  -9    4.55    1.17
   0  -4  -9    4.59    0.77
   0  -4  -9    5.17    1.51
   0   4   9    3.71    1.50
   0   4   9    4.08    1.04
   0   4   9    5.45    1.34
  -1  -4  -9   23.40    1.75
  -1  -4  -9   25.48    2.76
  -1  -4  -9   21.18    2.39
   1   4   9   23.43    2.82
   1   4   9   19.09    1.97
   1   4   9   19.65    1.93
   1   4   9   22.00    2.17
  -2  -4  -9   14.34    2.31
  -2  -4  -9   17.77    1.56
  -2  -4  -9   15.40    2.37
   2   4   9   14.84    1.47
   2   4   9   23.44    2.69
   2   4   9   14.66    1.75
   2   4   9   14.69    2.07
  -3  -4  -9    1.96    1.25
  -3  -4  -9    3.26    0.85
  -3  -4  -9    3.67    1.47
   3   4   9    4.52    1.42
   3   4   9    3.63    0.95
   3   4   9    3.70    1.35
  -4  -4  -9    4.40    1.60
  -4  -4  -9    2.73    1.24
  -4  -4  -9    1.25    0.80
   4   4   9    3.24    1.35
   4   4   9    2.50    0.75
   4   4   9    3.10    1.21
   4   4   9    2.89    0.95
  -5  -4  -9    1.69    1.30
  -5  -4  -9    3.17    1.55
  -5  -4  -9    1.58    0.90
   5   4   9    2.88    1.14
   5   4   9    1.16    1.32
   5   4   9    1.00    0.95
   5   4   9    3.42    1.19
   5   4   9    2.59    1.11
  -6  -4  -9    2.10    1.53
  -6  -4  -9    3.89    1.22
   6   4   9    3.14    1.43
   6   4   9    3.04    1.19
   6   4   9    3.59    1.19
   6   4   9    4.14    0.83
   6   4   9    3.55    0.87
  -7  -4  -9    6.32    2.05
  -7  -4  -9    3.57    1.35
  -7  -4  -9    0.98    1.30
   7   4   9    3.95    1.44
   7   4   9    3.74    1.85
   7   4   9    2.70    1.43
  -8  -4  -9   15.80    2.49
  -8  -4  -9   18.63    3.03
   8   4   9   20.73    3.21
   8   4   9   19.01    2.72
  -9  -4  -9    8.36    2.75
  -9  -4  -9    6.62    2.16
   9   4   9    4.10    2.21
   9   4   9    1.92    2.03
 -10  -4  -9    1.30    3.03
 -10  -4  -9    3.73    2.63
  10   4   9   -1.14    2.31
   8  -5  -9   -0.55    2.67
   8  -5  -9    1.81    1.94
  -8   5   9   16.87    7.98
   7  -5  -9   -0.65    1.72
   7  -5  -9    2.60    1.61
   7  -5  -9   -1.10    2.22
  -7   5   9   -1.37    3.47
   6  -5  -9    0.27    1.55
   6  -5  -9    5.72    1.41
  -6   5   9    2.67    3.08
   5  -5  -9   26.01    2.86
   5  -5  -9   23.39    2.56
   5  -5  -9   23.14    2.47
  -5   5   9   33.37    5.31
  -5   5   9   32.52    4.66
   4  -5  -9   13.14    1.82
   4  -5  -9   11.43    1.77
  -4   5   9   14.79    3.08
  -4   5   9   14.80    2.89
   3  -5  -9    7.94    1.23
   3  -5  -9    6.95    1.29
  -3   5   9    8.55    2.09
  -3   5   9    7.75    2.47
   2  -5  -9   44.50    3.20
   2  -5  -9   41.78    2.86
   2  -5  -9   38.89    3.61
  -2   5   9   40.97    3.02
  -2   5   9   42.28    4.32
  -2   5   9   39.81    3.87
   1  -5  -9    8.75    1.46
   1  -5  -9    5.78    1.62
  -1   5   9    9.33    1.42
  -1   5   9    6.24    1.68
  -1   5   9    5.98    1.95
   0  -5  -9    2.38    1.35
   0  -5  -9    2.23    0.55
   0  -5  -9    2.28    1.16
   0   5   9    3.33    1.66
   0   5   9    2.83    1.04
   0   5   9    1.45    1.09
  -1  -5  -9    0.02    1.02
  -1  -5  -9    1.40    0.54
  -1  -5  -9   -0.49    1.02
   1   5   9    1.48    0.99
   1   5   9    1.53    0.88
   1   5   9    1.14    1.34
  -2  -5  -9    6.62    1.51
  -2  -5  -9    8.25    1.14
  -2  -5  -9   10.25    1.78
   2   5   9   11.57    1.81
   2   5   9   10.64    2.17
   2   5   9    9.51    1.38
   2   5   9    7.18    1.24
  -3  -5  -9   73.45    5.01
  -3  -5  -9   70.12    4.90
  -3  -5  -9   71.70    4.32
   3   5   9   72.56    4.12
   3   5   9   71.89    5.15
   3   5   9   74.98    4.89
   3   5   9   71.97    4.50
  -4  -5  -9    0.67    1.29
  -4  -5  -9   -0.81    0.66
   4   5   9    0.28    1.19
   4   5   9   -0.14    0.76
   4   5   9    0.53    0.66
   4   5   9   -0.10    0.99
  -5  -5  -9    9.06    1.94
  -5  -5  -9    9.69    1.58
   5   5   9    4.26    1.69
   5   5   9    6.99    1.37
   5   5   9    9.46    1.78
   5   5   9   12.18    1.52
  -6  -5  -9    1.88    1.60
  -6  -5  -9   -0.43    1.00
  -6  -5  -9   -0.01    0.98
   6   5   9    1.10    1.08
   6   5   9   -1.05    1.49
   6   5   9    1.05    1.26
   6   5   9    2.67    1.31
   6   5   9    2.17    1.11
  -7  -5  -9    1.84    1.82
  -7  -5  -9   -0.72    1.11
  -7  -5  -9    0.57    1.27
   7   5   9   -1.25    1.22
   7   5   9    1.84    1.21
   7   5   9   -1.17    0.71
   7   5   9   -1.49    1.68
  -8  -5  -9    8.75    1.80
  -8  -5  -9    8.52    2.52
   8   5   9   10.85    2.41
   8   5   9    9.73    2.28
   8   5   9    6.40    1.80
  -9  -5  -9    1.59    2.41
  -9  -5  -9    2.38    1.85
   9   5   9    3.24    2.07
   9   5   9    2.44    1.80
 -10  -5  -9    4.25    2.94
 -10  -5  -9   -4.94    2.09
  10   5   9    0.38    2.31
   7  -6  -9    2.07    1.94
   7  -6  -9    5.56    2.57
  -7   6   9   -4.04    4.39
   6  -6  -9    2.81    1.79
   6  -6  -9    6.38    1.43
   6  -6  -9    5.15    1.79
  -6   6   9    9.32    3.60
   5  -6  -9   -0.52    1.45
   5  -6  -9   -0.80    1.04
  -5   6   9    0.72    2.74
   4  -6  -9    0.68    0.92
  -4   6   9    1.48    2.12
  -4   6   9    0.28    2.57
   3  -6  -9    4.52    1.27
   3  -6  -9    6.59    1.02
  -3   6   9    6.17    2.69
  -3   6   9    4.95    1.15
   2  -6  -9   28.73    2.66
   2  -6  -9   31.56    2.29
  -2   6   9   22.20    3.56
  -2   6   9   29.59    2.61
  -2   6   9   27.16    3.97
   1  -6  -9    4.85    1.30
  -1   6   9    1.45    1.47
  -1   6   9    5.02    2.07
  -1   6   9    3.97    1.27
   0  -6  -9   12.32    1.02
   0  -6  -9   10.18    1.77
   0   6   9    9.79    1.57
   0   6   9   11.20    2.19
   0   6   9   10.66    2.01
  -1  -6  -9    4.52    0.74
  -1  -6  -9    3.16    1.22
   1   6   9    4.56    1.36
   1   6   9    3.26    1.24
  -2  -6  -9    6.89    1.53
  -2  -6  -9    9.14    1.17
   2   6   9    9.93    1.57
   2   6   9   10.03    1.56
   2   6   9    9.91    1.47
   2   6   9    8.26    1.92
  -3  -6  -9   28.42    2.87
  -3  -6  -9   22.89    2.02
   3   6   9   29.22    2.79
   3   6   9   33.29    3.34
   3   6   9   26.54    2.36
   3   6   9   25.39    2.21
  -4  -6  -9   44.14    4.37
  -4  -6  -9   50.69    3.12
   4   6   9   40.65    3.99
   4   6   9   45.07    2.84
   4   6   9   42.89    3.62
   4   6   9   46.69    3.02
   4   6   9   47.84    3.28
  -5  -6  -9   20.13    2.72
  -5  -6  -9   19.60    1.91
   5   6   9   15.99    2.43
   5   6   9   21.01    2.84
   5   6   9   24.60    3.11
   5   6   9   17.93    1.86
  -6  -6  -9   11.88    2.27
  -6  -6  -9   10.46    1.72
  -6  -6  -9   12.24    1.88
   6   6   9   10.79    1.97
   6   6   9   14.75    1.94
   6   6   9   10.68    2.07
   6   6   9   12.64    2.11
   6   6   9    9.28    1.60
  -7  -6  -9    0.49    1.14
  -7  -6  -9   -0.47    1.67
  -7  -6  -9    1.52    1.25
   7   6   9    1.44    1.37
   7   6   9   -0.96    1.65
   7   6   9    0.35    1.41
   7   6   9    1.52    1.21
   7   6   9    2.14    1.24
  -8  -6  -9   29.26    3.86
  -8  -6  -9   24.14    3.14
   8   6   9   17.96    2.84
   8   6   9   24.39    3.50
  -9  -6  -9   22.52    3.54
  -9  -6  -9   24.13    3.30
   9   6   9   19.68    3.12
   9   6   9   16.22    3.20
 -10  -6  -9   11.21    3.22
  10   6   9   10.60    2.92
   6  -7  -9    2.11    1.93
  -6   7   9   -4.43    3.83
   5  -7  -9    1.13    1.66
  -5   7   9    0.27    2.92
   4  -7  -9    0.79    1.63
   4  -7  -9    1.82    1.16
  -4   7   9   -2.04    1.07
  -4   7   9   -2.34    2.60
   3  -7  -9   18.53    1.70
  -3   7   9   12.63    2.95
  -3   7   9   13.86    2.08
  -3   7   9   15.02    3.09
   2  -7  -9   17.53    2.15
   2  -7  -9   12.47    1.61
  -2   7   9   10.93    2.70
  -2   7   9   15.29    2.26
  -2   7   9   12.03    3.10
   1  -7  -9   31.21    2.39
   1  -7  -9   25.11    2.72
  -1   7   9   26.17    3.39
  -1   7   9   27.02    2.69
  -1   7   9   27.64    3.76
   0  -7  -9   11.05    1.79
   0  -7  -9   11.52    0.92
   0   7   9   13.13    1.86
   0   7   9   13.62    2.36
   0   7   9    8.44    2.02
  -1  -7  -9    1.77    0.53
  -1  -7  -9   -0.04    1.16
   1   7   9    1.05    1.31
   1   7   9    0.22    1.49
   1   7   9    1.40    1.07
  -2  -7  -9   -0.40    0.52
  -2  -7  -9    2.58    1.41
   2   7   9   -0.25    1.42
   2   7   9   -0.53    1.17
   2   7   9    0.21    1.05
   2   7   9   -1.38    0.69
  -3  -7  -9    5.53    1.65
  -3  -7  -9    7.34    1.21
   3   7   9   10.34    1.54
   3   7   9    8.65    2.10
   3   7   9    8.90    1.16
   3   7   9   10.67    1.77
   3   7   9    8.14    1.68
   3   7   9    7.36    1.03
  -4  -7  -9   16.03    2.40
  -4  -7  -9   18.40    1.68
   4   7   9   16.99    2.22
   4   7   9   21.73    3.02
   4   7   9   13.38    1.60
   4   7   9   14.14    2.22
   4   7   9   15.45    1.90
  -5  -7  -9    5.53    1.69
  -5  -7  -9    4.23    1.03
   5   7   9    4.74    1.86
   5   7   9    5.94    1.16
   5   7   9    5.10    1.29
   5   7   9    2.69    1.81
   5   7   9    5.13    1.56
  -6  -7  -9   10.44    1.58
  -6  -7  -9   11.75    2.29
  -6  -7  -9    7.29    1.34
   6   7   9    7.44    2.20
   6   7   9    8.54    1.96
   6   7   9   10.78    2.46
   6   7   9    9.36    1.55
   6   7   9    6.92    1.43
  -7  -7  -9   13.85    2.05
  -7  -7  -9   12.80    2.55
  -7  -7  -9   13.29    2.16
   7   7   9   22.06    3.28
   7   7   9   17.74    2.36
   7   7   9   21.60    3.20
   7   7   9   15.68    2.60
   7   7   9   16.82    2.50
  -8  -7  -9    3.41    1.12
  -8  -7  -9    3.01    1.54
  -8  -7  -9    0.50    2.16
  -8  -7  -9    4.91    1.92
   8   7   9    2.53    1.62
   8   7   9    1.34    1.46
   8   7   9    3.87    1.85
  -9  -7  -9    2.63    2.42
  -9  -7  -9   -0.31    1.72
  -9  -7  -9    0.96    1.06
   9   7   9   -2.84    1.83
   9   7   9    0.62    1.71
 -10  -7  -9    1.43    2.73
  10   7   9    4.11    2.35
   6  -8  -9    3.95    2.47
  -6   8   9    0.90    4.90
   5  -8  -9    7.42    2.06
  -5   8   9   -3.92    3.41
   4  -8  -9    3.28    1.79
  -4   8   9    1.12    3.15
   3  -8  -9    9.89    1.47
   3  -8  -9    8.11    2.10
  -3   8   9    8.34    2.96
  -3   8   9   12.68    1.95
   2  -8  -9    1.81    0.79
  -2   8   9    0.75    2.18
  -2   8   9   -0.60    2.52
  -2   8   9    0.08    1.28
   1  -8  -9    3.47    1.38
   1  -8  -9    2.35    0.80
  -1   8   9    2.90    1.34
  -1   8   9    5.61    2.19
  -1   8   9    3.46    3.69
   0  -8  -9   -1.69    1.16
   0   8   9    1.59    1.35
   0   8   9    4.93    2.13
   0   8   9   -1.18    1.69
  -1  -8  -9    2.59    1.37
  -1  -8  -9    1.31    0.51
   1   8   9    1.80    0.91
   1   8   9    4.33    1.81
   1   8   9    2.53    1.29
   1   8   9    3.68    1.94
   1   8   9   -1.45    1.30
  -2  -8  -9   -0.60    0.53
  -2  -8  -9    1.94    1.29
   2   8   9    0.06    1.45
   2   8   9   -0.50    1.20
   2   8   9    2.72    1.92
   2   8   9    0.80    0.87
   2   8   9    1.76    1.11
  -3  -8  -9    7.62    1.07
  -3  -8  -9    9.83    1.97
   3   8   9    9.08    2.34
   3   8   9    8.60    1.82
   3   8   9   10.81    1.69
   3   8   9    9.45    1.69
  -4  -8  -9   21.18    1.87
  -4  -8  -9   18.19    2.19
  -4  -8  -9   18.85    2.71
   4   8   9   21.12    2.13
   4   8   9   19.65    2.79
   4   8   9   20.09    2.84
   4   8   9   20.08    2.80
  -5  -8  -9   -0.03    0.81
  -5  -8  -9    0.26    1.47
   5   8   9   -1.04    1.23
   5   8   9    0.87    1.44
   5   8   9   -2.85    2.02
   5   8   9    1.09    1.01
   5   8   9    1.40    1.97
  -6  -8  -9   45.56    4.20
  -6  -8  -9   36.18    3.39
  -6  -8  -9   46.56    3.42
   6   8   9   44.02    4.26
   6   8   9   42.98    4.58
   6   8   9   38.78    3.30
   6   8   9   48.46    4.47
   6   8   9   35.77    3.29
  -7  -8  -9    1.53    1.39
  -7  -8  -9    0.81    1.30
  -7  -8  -9   -0.41    1.70
   7   8   9   -0.92    1.24
   7   8   9    2.23    1.39
   7   8   9    1.98    1.88
   7   8   9    1.71    2.07
   7   8   9    3.22    1.93
  -8  -8  -9    2.35    1.53
  -8  -8  -9    2.93    2.06
  -8  -8  -9    2.37    1.53
   8   8   9    5.15    2.08
   8   8   9    0.24    2.03
   8   8   9    1.04    1.54
   8   8   9    2.59    2.24
  -9  -8  -9    3.50    1.91
  -9  -8  -9   -0.92    2.55
  -9  -8  -9    2.68    1.71
   9   8   9   -0.82    2.00
   9   8   9   -0.80    1.95
   9   8   9   -2.61    1.70
 -10  -8  -9    1.11    2.15
 -10  -8  -9    4.96    3.09
  10   8   9    3.73    2.54
   5  -9  -9   -4.36    2.07
  -5   9   9   -2.36    4.32
   4  -9  -9   -0.32    2.18
  -4   9   9    2.27    3.52
   3  -9  -9    4.76    0.91
   3  -9  -9    4.38    1.97
  -3   9   9    6.99    1.81
  -3   9   9    8.19    3.46
   2  -9  -9    3.97    0.86
   2  -9  -9    3.25    1.90
  -2   9   9    3.83    1.58
  -2   9   9    1.13    2.90
   1  -9  -9   13.95    1.49
  -1   9   9    7.97    1.89
  -1   9   9   11.43    3.10
  -1   9   9   11.00    2.85
   0  -9  -9    2.88    1.50
   0   9   9    1.44    2.30
   0   9   9    4.43    1.49
   0   9   9    0.72    1.97
  -1  -9  -9   -0.83    0.43
  -1  -9  -9   -0.12    0.75
  -1  -9  -9   -0.68    2.41
   1   9   9    0.47    1.33
   1   9   9    6.31    2.14
   1   9   9    0.34    1.84
   1   9   9   -1.39    0.84
  -2  -9  -9    4.69    1.09
  -2  -9  -9    5.43    0.86
  -2  -9  -9    6.38    1.60
   2   9   9    5.68    1.18
   2   9   9    5.00    1.53
   2   9   9    1.63    2.14
   2   9   9    6.09    2.02
  -3  -9  -9    0.85    1.46
  -3  -9  -9    1.83    0.70
  -3  -9  -9    0.76    0.92
   3   9   9   -0.75    1.45
   3   9   9   -0.56    1.65
   3   9   9   -0.06    0.89
   3   9   9   -2.76    1.84
  -4  -9  -9    9.25    1.49
  -4  -9  -9   12.36    2.23
   4   9   9    9.14    1.51
   4   9   9    7.28    2.43
   4   9   9    7.96    2.07
   4   9   9   14.32    2.21
  -5  -9  -9    2.85    1.34
  -5  -9  -9    1.25    1.70
   5   9   9    5.44    2.49
   5   9   9    4.15    1.89
   5   9   9    8.60    2.42
   5   9   9    5.62    1.97
  -6  -9  -9    0.11    1.60
  -6  -9  -9   -3.01    1.64
  -6  -9  -9   -0.55    1.10
   6   9   9    0.74    1.11
   6   9   9    3.08    2.35
   6   9   9   -0.02    1.65
   6   9   9    1.40    1.90
   6   9   9   -2.85    2.05
  -7  -9  -9    4.60    1.48
  -7  -9  -9    3.15    2.10
  -7  -9  -9    8.30    2.07
   7   9   9    5.96    1.65
   7   9   9    3.57    1.48
   7   9   9    2.73    2.55
   7   9   9    3.19    2.43
  -8  -9  -9   -1.54    2.11
  -8  -9  -9    3.04    1.99
  -8  -9  -9    2.71    1.50
   8   9   9    1.10    1.53
   8   9   9   -4.77    2.46
   8   9   9   -0.77    1.97
   8   9   9   -0.11    2.41
  -9  -9  -9   -2.11    1.58
  -9  -9  -9    4.52    2.83
  -9  -9  -9   -1.55    2.37
   9   9   9    3.92    1.94
   9   9   9   -0.81    2.79
   9   9   9    3.74    3.46
   9   9   9    0.47    2.12
 -10  -9  -9   14.67    3.56
 -10  -9  -9   12.11    2.40
  10   9   9    8.93    2.74
   4 -10  -9    7.33    2.80
  -4  10   9   20.08    5.14
   3 -10  -9    7.84    2.54
  -3  10   9   20.04    4.70
  -3  10   9   11.11    2.50
   2 -10  -9    7.35    2.32
  -2  10   9    5.83    3.07
  -2  10   9    5.96    2.17
   1 -10  -9   12.00    1.30
   1 -10  -9    9.80    2.28
  -1  10   9   13.20    3.56
  -1  10   9   21.00    3.16
   0 -10  -9   14.93    1.58
   0 -10  -9   17.41    1.79
   0 -10  -9   11.42    2.31
   0  10   9    8.32    3.02
   0  10   9   15.20    2.55
  -1 -10  -9    4.90    0.84
  -1 -10  -9    6.92    1.13
   1  10   9   -0.86    2.76
   1  10   9    6.89    2.02
   1  10   9    1.15    2.31
   1  10   9    5.17    1.33
  -2 -10  -9   -2.69    1.45
  -2 -10  -9   -0.46    0.60
  -2 -10  -9    1.03    0.92
   2  10   9    3.49    4.18
   2  10   9    0.14    2.22
   2  10   9   -0.69    1.66
   2  10   9    0.59    0.99
  -3 -10  -9    3.51    1.83
  -3 -10  -9    5.65    1.29
   3  10   9    7.87    1.95
   3  10   9    5.70    2.45
   3  10   9    6.77    1.30
   3  10   9    4.95    2.26
  -4 -10  -9    4.42    1.95
  -4 -10  -9    3.16    1.15
   4  10   9    3.88    2.15
   4  10   9    3.29    1.84
   4  10   9    2.37    2.54
   4  10   9    3.28    2.52
   4  10   9    4.01    1.12
  -5 -10  -9    4.54    1.80
  -5 -10  -9   -1.45    2.16
  -5 -10  -9    0.64    1.17
   5  10   9    1.37    2.50
   5  10   9   -1.71    1.92
   5  10   9    2.58    2.03
  -6 -10  -9   31.21    3.93
  -6 -10  -9   22.74    2.85
  -6 -10  -9   27.69    3.99
   6  10   9   21.05    3.65
   6  10   9   28.59    4.84
   6  10   9   24.52    2.65
   6  10   9   26.04    4.12
  -7 -10  -9    1.12    1.46
  -7 -10  -9   -1.11    2.28
  -7 -10  -9   -0.19    2.01
   7  10   9    1.02    1.16
   7  10   9   -3.43    2.63
   7  10   9    1.43    2.68
  -8 -10  -9    4.98    2.49
  -8 -10  -9    0.76    1.56
  -8 -10  -9    3.37    2.40
   8  10   9    2.29    3.11
   8  10   9    4.23    1.81
   8  10   9    0.65    2.94
   8  10   9    1.40    2.03
  -9 -10  -9   -0.30    1.80
  -9 -10  -9   -3.06    2.60
   9  10   9    1.30    2.61
   9  10   9    0.46    3.80
   9  10   9   -0.59    1.75
   9  10   9    2.15    3.55
 -10 -10  -9    0.57    2.33
 -10 -10  -9   -2.85    3.34
  10  10   9   10.27    3.77
  10  10   9    1.45    2.57
   2 -11  -9    0.70    2.16
  -2  11   9    6.18    3.94
  -2  11   9   -3.97    2.43
   1 -11  -9    2.91    2.18
  -1  11   9    9.08    3.62
  -1  11   9    0.02    2.33
   0 -11  -9    8.83    2.60
   0  11   9    7.87    2.65
   0  11   9    5.05    3.28
  -1 -11  -9   -0.83    0.49
  -1 -11  -9    1.32    0.86
  -1 -11  -9    2.84    2.04
  -1 -11  -9   -0.23    0.46
   1  11   9   -0.35    1.10
   1  11   9    0.87    2.02
   1  11   9   -3.10    2.59
  -2 -11  -9   14.17    1.53
  -2 -11  -9   12.34    1.62
   2  11   9   14.85    2.80
   2  11   9   13.53    1.83
   2  11   9   12.90    3.44
  -3 -11  -9    5.98    1.33
   3  11   9    7.15    4.05
   3  11   9    7.85    2.84
   3  11   9    7.45    1.33
  -4 -11  -9   11.87    2.55
  -4 -11  -9   14.26    3.62
  -4 -11  -9   11.75    1.70
   4  11   9   17.79    3.43
   4  11   9   17.02    2.24
   4  11   9   17.41    3.76
  -5 -11  -9   -3.34    2.41
  -5 -11  -9    0.72    1.21
  -5 -11  -9    1.88    2.06
   5  11   9    1.50    2.94
   5  11   9   -1.27    2.49
  -6 -11  -9   -2.35    2.04
  -6 -11  -9    3.24    2.66
  -6 -11  -9    0.89    1.35
   6  11   9   -4.11    3.03
   6  11   9    0.59    1.28
  -7 -11  -9    2.65    1.51
  -7 -11  -9   -1.85    2.30
  -7 -11  -9    0.18    2.93
   7  11   9    2.05    1.51
   7  11   9    3.80    3.28
  -8 -11  -9    1.87    3.01
  -8 -11  -9   -1.76    2.74
  -8 -11  -9   -1.58    1.62
   8  11   9   -3.99    3.80
   8  11   9    0.52    1.68
   8  11   9    8.41    3.51
  -9 -11  -9    1.82    3.14
  -9 -11  -9    3.25    2.23
   9  11   9    6.99    4.23
   9  11   9    0.14    2.56
   1 -12  -9    5.03    2.82
  -1  12   9   -8.54    4.24
   0 -12  -9   20.63    3.49
   0  12   9   22.24    3.28
   0  12   9   25.38    5.30
  -1 -12  -9    7.10    2.46
   1  12   9    7.33    4.08
   1  12   9    3.83    1.47
  -2 -12  -9    2.36    0.97
  -2 -12  -9    0.90    2.52
   2  12   9    1.61    3.42
   2  12   9    4.00    1.42
  -3 -12  -9    0.10    2.20
  -3 -12  -9    1.19    1.11
   3  12   9    0.90    1.22
   3  12   9    1.49    3.11
   3  12   9   -4.09    3.48
  -4 -12  -9    0.89    1.16
   4  12   9   -2.93    1.19
   4  12   9    0.58    3.04
   4  12   9    0.83    3.60
  -5 -12  -9    0.21    1.25
  -5 -12  -9   -5.21    3.07
   5  12   9   -0.01    3.22
   5  12   9    2.32    3.33
  -6 -12  -9    2.78    1.49
  -6 -12  -9    0.81    3.68
   6  12   9   -3.10    3.12
   6  12   9   -1.61    1.33
  -7 -12  -9    2.47    3.88
  -7 -12  -9    1.36    1.65
   7  12   9    5.79    1.88
   7  12   9    2.52    3.93
   7  12   9    2.32    3.48
  -8 -12  -9    3.96    3.02
  -8 -12  -9    5.04    1.97
  -8 -12  -9   10.31    5.59
   8  12   9    2.31    4.08
   8  12   9    4.61    2.00
  -2 -13  -9   -2.01    2.71
   2  13   9   -1.77    4.67
   2  13   9   -2.89    1.41
   2  13   9   -3.40    4.07
  -3 -13  -9    3.19    2.63
   3  13   9    5.42    4.55
   3  13   9    6.28    4.16
   3  13   9    4.61    1.60
  -4 -13  -9    3.27    1.36
  -4 -13  -9    3.37    2.80
   4  13   9    1.20    1.48
   4  13   9   12.74    4.89
   4  13   9    5.21    4.00
  -5 -13  -9   -0.56    1.49
  -5 -13  -9    1.31    2.71
   5  13   9    2.33    1.66
   5  13   9    2.96    3.84
   5  13   9    6.38    4.83
  -6 -13  -9    9.80    1.98
  -6 -13  -9   13.48    3.29
   6  13   9    9.06    2.13
   6  13   9   11.11    4.14
   6  13   9   12.14    5.03
   5   5 -10    5.96    3.40
  -5  -5  10    9.28    2.52
   4   5 -10    3.95    2.92
   4   5 -10   11.47    3.55
   4   5 -10    9.77    4.45
  -4  -5  10    7.68    4.85
  -4  -5  10    5.27    2.19
  -4  -5  10    6.32    1.91
   3   5 -10    2.73    2.95
   3   5 -10    2.25    3.96
  -3  -5  10    1.59    2.13
  -3  -5  10    2.51    1.64
   2   5 -10    1.86    2.87
  -2  -5  10    5.93    1.77
  -2  -5  10    2.65    2.12
   1   5 -10   -4.49    3.57
   1   5 -10   11.96    3.21
  -1  -5  10    4.57    2.24
  -1  -5  10    0.49    1.66
   0   5 -10    2.55    3.22
   0   5 -10   -2.07    3.47
   0  -5  10    3.96    2.20
   0  -5  10   -0.99    1.69
  -1   5 -10   11.75    4.38
   1  -5  10   11.15    2.22
   6   4 -10    5.28    3.03
   6   4 -10    8.06    4.67
  -6  -4  10    1.05    2.07
   5   4 -10    2.22    3.50
   5   4 -10   -5.44    2.60
  -5  -4  10    1.41    1.81
   4   4 -10    3.49    2.15
   4   4 -10   10.90    2.78
   4   4 -10    5.40    3.67
  -4  -4  10    4.21    1.85
  -4  -4  10    4.57    4.00
   3   4 -10    8.48    2.57
   3   4 -10    7.53    3.37
   3   4 -10    1.47    2.09
  -3  -4  10    2.34    3.42
  -3  -4  10    6.81    1.69
  -3  -4  10    6.86    2.05
  -3  -4  10   16.45    3.34
   2   4 -10    3.86    2.62
   2   4 -10    3.01    2.29
   2   4 -10    2.38    3.14
  -2  -4  10    1.98    1.82
  -2  -4  10   -1.90    3.13
  -2  -4  10   -0.48    1.17
  -2  -4  10    1.84    2.71
   1   4 -10   11.05    3.42
   1   4 -10    3.07    2.52
  -1  -4  10    9.74    2.88
  -1  -4  10    2.33    1.37
  -1  -4  10    0.04    1.68
  -1  -4  10   -2.76    2.43
   0   4 -10   11.07    3.43
   0   4 -10    7.78    2.73
   0  -4  10   15.00    2.73
   0  -4  10    7.63    1.73
  -1   4 -10    3.69    3.27
  -1   4 -10    5.70    3.24
   1  -4  10    0.88    2.23
   1  -4  10   -1.40    1.55
  -2   4 -10   11.21    3.90
  -2   4 -10    9.49    3.66
   2  -4  10    5.01    2.44
   2  -4  10    6.61    1.99
  -3   4 -10    5.27    3.44
   3  -4  10    0.03    1.95
   7   3 -10    9.81    2.94
   7   3 -10   18.54    4.63
  -7  -3  10   12.51    2.36
   6   3 -10    3.33    3.45
   6   3 -10   -3.43    2.28
  -6  -3  10    2.01    1.89
   5   3 -10    4.89    2.49
   5   3 -10   -1.92    3.19
   5   3 -10    5.83    1.79
  -5  -3  10    5.04    1.79
  -5  -3  10   -0.06    3.55
   4   3 -10   16.40    4.07
   4   3 -10   17.80    2.87
   4   3 -10   13.99    2.29
  -4  -3  10   10.48    4.23
  -4  -3  10   16.25    3.57
  -4  -3  10   18.77    2.84
   3   3 -10   20.26    3.06
   3   3 -10   16.22    3.00
   3   3 -10   19.68    3.80
  -3  -3  10   16.00    3.27
  -3  -3  10   17.48    2.72
   2   3 -10   13.60    2.38
   2   3 -10   17.03    3.65
   2   3 -10    9.79    2.84
  -2  -3  10   12.91    3.23
  -2  -3  10   14.73    2.31
  -2  -3  10   15.17    2.38
  -2  -3  10   25.59    4.08
   1   3 -10    3.29    1.97
   1   3 -10    4.98    3.02
   1   3 -10    1.16    2.19
  -1  -3  10    3.07    3.53
  -1  -3  10    4.16    1.29
  -1  -3  10    2.73    1.68
  -1  -3  10    1.09    2.42
   0   3 -10    8.53    3.11
   0   3 -10   11.75    2.69
   0  -3  10    5.37    2.18
   0  -3  10    4.73    1.94
   0  -3  10    3.48    1.84
   0  -3  10    9.68    1.67
  -1   3 -10    3.90    2.72
  -1   3 -10    4.84    2.50
   1  -3  10    2.01    1.83
   1  -3  10    3.78    1.65
  -2   3 -10   10.09    3.13
  -2   3 -10    3.60    2.67
   2  -3  10    7.10    1.99
   2  -3  10    9.16    2.37
  -3   3 -10    8.82    3.20
  -3   3 -10   16.31    3.50
   3  -3  10   11.76    2.19
   3  -3  10   13.21    2.79
  -4   3 -10   -2.09    2.92
  -4   3 -10    1.94    3.21
   4  -3  10    3.07    1.92
   7   2 -10    6.42    2.72
   7   2 -10    9.03    2.59
   7   2 -10   10.37    3.85
  -7  -2  10   11.59    2.16
   6   2 -10   35.38    4.10
   6   2 -10   35.24    3.26
   6   2 -10   28.02    4.53
  -6  -2  10   33.37    3.30
   5   2 -10    4.24    1.52
   5   2 -10   -0.22    2.77
   5   2 -10    2.60    2.13
  -5  -2  10   -0.77    1.28
  -5  -2  10   -4.01    3.11
   4   2 -10    2.72    1.94
   4   2 -10    0.16    1.39
   4   2 -10    3.71    2.61
  -4  -2  10    2.15    1.36
  -4  -2  10    0.87    2.52
  -4  -2  10   -7.13    3.23
   3   2 -10   -1.24    1.28
   3   2 -10   -0.04    2.33
   3   2 -10    3.40    1.78
  -3  -2  10    0.48    1.21
  -3  -2  10   -4.99    2.57
  -3  -2  10    0.66    2.25
   2   2 -10   -0.65    1.69
   2   2 -10    2.84    2.46
   2   2 -10   -1.10    1.73
   2   2 -10   -0.10    1.30
  -2  -2  10    0.15    1.28
  -2  -2  10    1.98    1.88
  -2  -2  10   -2.52    2.42
   1   2 -10   -0.28    1.71
   1   2 -10    2.56    2.39
   1   2 -10   -0.15    1.39
   1   2 -10   -0.71    1.27
  -1  -2  10   -1.65    1.71
  -1  -2  10   -0.95    1.05
  -1  -2  10   -0.97    1.13
   0   2 -10   -1.00    1.70
   0   2 -10   -0.47    1.40
   0   2 -10    1.36    1.45
   0   2 -10    2.81    2.38
   0  -2  10    0.99    1.39
   0  -2  10   -2.60    1.33
   0  -2  10    0.20    1.10
  -1   2 -10    5.42    1.87
  -1   2 -10   -0.42    2.07
  -1   2 -10    6.14    2.35
  -1   2 -10    4.27    1.64
   1  -2  10    6.96    1.28
   1  -2  10    7.60    1.57
   1  -2  10    3.92    1.66
   1  -2  10    4.29    1.67
  -2   2 -10    4.26    2.26
  -2   2 -10    5.25    2.41
   2  -2  10    5.74    1.57
   2  -2  10    4.85    1.71
  -3   2 -10   -1.69    2.20
  -3   2 -10    0.92    2.41
   3  -2  10   -0.13    1.38
   3  -2  10    0.53    1.60
  -4   2 -10    1.42    2.67
  -4   2 -10    0.35    2.53
   4  -2  10   -1.16    1.56
  -5   2 -10    1.23    2.89
  -5   2 -10    3.46    2.76
   5  -2  10   -0.37    1.81
   8   1 -10    6.45    2.92
   8   1 -10    8.41    4.12
  -8  -1  10   13.43    2.27
   7   1 -10    1.15    1.80
   7   1 -10    4.59    3.21
  -7  -1  10    1.06    1.48
   6   1 -10    0.03    1.65
   6   1 -10   -0.57    1.73
   6   1 -10    0.81    2.39
  -6  -1  10    0.29    1.35
  -6  -1  10   -0.26    3.64
   5   1 -10   -1.19    2.29
   5   1 -10    0.99    1.76
   5   1 -10    2.53    1.39
  -5  -1  10    1.49    3.06
   4   1 -10    0.52    2.29
  -4  -1  10    1.67    2.55
  -4  -1  10   -1.42    1.96
   3   1 -10    2.03    2.65
   3   1 -10    2.95    1.71
   3   1 -10    2.42    1.51
  -3  -1  10    4.68    2.67
  -3  -1  10    5.31    2.00
   2   1 -10   -1.13    1.58
   2   1 -10   -0.44    1.27
   2   1 -10    2.00    2.20
  -2  -1  10    2.14    1.18
  -2  -1  10    0.71    2.15
   1   1 -10   11.19    2.61
   1   1 -10    9.82    1.64
   1   1 -10    8.56    2.14
  -1  -1  10   10.13    2.64
  -1  -1  10   11.70    1.90
  -1  -1  10   10.63    1.59
  -1  -1  10   10.01    1.68
   0   1 -10   19.92    2.56
   0   1 -10   23.62    3.84
   0   1 -10   18.82    3.02
   0  -1  10   13.23    2.01
   0  -1  10   19.37    2.41
   0  -1  10   20.69    3.50
   0  -1  10   21.10    2.29
  -1   1 -10    8.08    2.09
  -1   1 -10    5.62    2.35
   1  -1  10    4.69    1.69
   1  -1  10    5.88    1.58
   1  -1  10    8.57    1.10
   1  -1  10    7.93    1.49
  -2   1 -10    1.15    2.04
  -2   1 -10   -1.28    1.82
  -2   1 -10    0.90    1.27
   2  -1  10   -0.31    1.12
   2  -1  10    1.37    1.40
   2  -1  10    0.18    1.12
  -3   1 -10   -2.20    1.95
   3  -1  10    1.11    1.25
  -4   1 -10    2.16    2.49
  -4   1 -10    2.54    2.14
   4  -1  10    0.30    1.39
  -5   1 -10   14.69    3.09
  -5   1 -10   12.77    3.09
   5  -1  10   17.11    2.63
  -6   1 -10   21.33    3.58
  -6   1 -10   22.53    3.78
   6  -1  10   15.26    2.81
   8   0 -10   -0.77    3.57
   8   0 -10   -1.94    2.15
  -8   0  10   -1.03    1.41
   7   0 -10    1.03    1.56
   7   0 -10    0.02    1.67
   7   0 -10    5.37    3.34
  -7   0  10    0.47    1.22
   6   0 -10    8.16    1.80
   6   0 -10    5.47    1.83
   6   0 -10    2.32    3.13
  -6   0  10    8.87    1.53
   5   0 -10    0.80    1.25
   5   0 -10    2.67    2.30
   5   0 -10    2.72    1.47
  -5   0  10   -1.13    0.96
   4   0 -10    5.64    1.66
   4   0 -10    5.98    1.42
   4   0 -10    8.53    1.75
   4   0 -10    8.36    2.76
  -4   0  10    4.33    3.15
  -4   0  10    7.11    1.31
  -4   0  10    7.12    2.69
   3   0 -10   -1.36    1.10
   3   0 -10   -0.08    2.07
   3   0 -10   -1.58    1.29
  -3   0  10    0.04    0.88
  -3   0  10    1.26    1.90
  -3   0  10   -3.29    2.36
   2   0 -10    6.33    1.40
   2   0 -10    4.62    1.99
   2   0 -10    6.00    2.31
  -2   0  10    5.27    1.15
  -2   0  10    3.64    2.41
  -2   0  10   10.14    1.99
   1   0 -10   -0.98    1.41
   1   0 -10    1.10    1.11
   1   0 -10    1.84    1.68
  -1   0  10    0.70    1.80
  -1   0  10    0.75    1.00
  -1   0  10   -1.08    1.20
   0   0 -10    8.06    2.17
   0   0 -10    4.55    1.53
   0   0  10    6.09    1.41
   0   0  10    3.85    1.98
   0   0  10    3.41    1.09
   0   0  10    5.58    1.17
  -1   0 -10    6.65    1.46
  -1   0 -10    9.18    2.15
  -1   0 -10    7.45    2.82
   1   0  10    6.84    1.28
   1   0  10    7.59    1.37
   1   0  10   10.59    2.26
   1   0  10    5.96    1.01
  -2   0 -10   17.23    2.33
  -2   0 -10   13.76    2.41
  -2   0 -10   18.88    3.14
   2   0  10   14.21    2.08
   2   0  10   17.57    2.23
   2   0  10   21.02    2.53
  -3   0 -10    9.51    2.28
  -3   0 -10    9.94    2.26
  -3   0 -10   15.65    2.37
   3   0  10    9.32    1.59
  -4   0 -10    8.10    2.32
  -4   0 -10    0.24    1.93
   4   0  10    4.67    1.62
  -5   0 -10   12.22    2.80
  -5   0 -10    9.49    2.41
   5   0  10   10.62    2.01
  -6   0 -10    7.97    2.58
  -6   0 -10    7.80    2.85
   6   0  10    9.89    2.20
  -7   0 -10   -0.97    3.22
  -7   0 -10    1.55    2.52
   7   0  10    0.20    2.15
   8  -1 -10   14.55    3.06
   8  -1 -10   21.07    4.18
   7  -1 -10    1.46    1.41
   7  -1 -10    2.58    3.04
   7  -1 -10   -2.97    1.68
  -7   1  10    1.12    1.15
   6  -1 -10    7.29    2.73
   6  -1 -10    6.64    1.61
   6  -1 -10    7.64    1.76
  -6   1  10    5.95    1.18
   5  -1 -10    2.01    2.25
   5  -1 -10    4.62    1.57
   5  -1 -10    2.01    1.47
   5  -1 -10    0.90    1.22
  -5   1  10    1.45    0.95
   4  -1 -10   -0.08    1.36
   4  -1 -10   -0.02    1.25
   4  -1 -10    0.29    1.01
   4  -1 -10   -2.08    1.95
  -4   1  10    0.18    0.85
   3  -1 -10    2.07    1.20
   3  -1 -10    1.98    1.27
   3  -1 -10    1.62    1.97
   3  -1 -10    3.12    1.42
   3  -1 -10    2.35    0.79
  -3   1  10    9.55    2.70
  -3   1  10    3.16    0.99
   2  -1 -10    0.89    1.20
   2  -1 -10   -1.55    0.89
   2  -1 -10   -1.13    1.60
  -2   1  10    2.47    1.42
  -2   1  10    1.68    1.91
  -2   1  10    0.76    0.86
   1  -1 -10    4.59    1.52
   1  -1 -10    3.86    2.03
   1  -1 -10    8.60    1.44
  -1   1  10    4.68    1.09
  -1   1  10    4.98    1.46
  -1   1  10    4.64    2.16
   0  -1 -10    7.26    2.14
   0   1  10    8.37    2.22
   0   1  10   11.36    1.66
   0   1  10    8.66    1.41
   0   1  10    6.61    1.28
  -1  -1 -10   12.57    2.26
  -1  -1 -10   11.87    1.85
  -1  -1 -10   13.65    2.99
   1   1  10   10.85    1.90
   1   1  10   13.13    1.18
   1   1  10   13.59    2.52
   1   1  10   13.12    1.24
   1   1  10   12.00    1.68
  -2  -1 -10    0.92    1.51
  -2  -1 -10    2.06    1.03
  -2  -1 -10    0.90    1.58
   2   1  10    2.37    0.99
   2   1  10    1.58    1.39
  -3  -1 -10   -0.38    1.71
  -3  -1 -10    1.35    1.49
  -3  -1 -10   -0.29    1.20
   3   1  10   -0.94    0.92
   3   1  10    1.46    1.12
  -4  -1 -10    1.53    1.69
  -4  -1 -10   -0.03    1.24
  -4  -1 -10    1.51    1.77
   4   1  10    1.44    1.17
  -5  -1 -10   -1.27    1.76
  -5  -1 -10   -1.20    1.92
   5   1  10    1.41    1.35
  -6  -1 -10    4.81    2.54
  -6  -1 -10    2.87    1.99
   6   1  10    2.52    1.58
  -7  -1 -10    3.82    2.34
  -7  -1 -10    0.16    2.85
   7   1  10    2.76    2.58
   7   1  10    1.85    1.82
  -8  -1 -10   13.11    3.50
  -8  -1 -10    2.57    2.47
  -8  -1 -10   12.37    2.78
   8   1  10    6.20    2.68
   8   1  10    7.69    2.99
   8  -2 -10    7.84    2.67
   8  -2 -10    3.40    3.22
   7  -2 -10    2.41    1.70
   7  -2 -10    2.75    2.73
  -7   2  10    0.15    0.79
   6  -2 -10    1.85    1.24
   6  -2 -10    1.91    1.37
   6  -2 -10   -0.77    1.63
   6  -2 -10    2.64    2.71
  -6   2  10    1.09    0.83
   5  -2 -10    3.69    1.41
   5  -2 -10    1.26    1.39
   5  -2 -10    2.59    1.15
   5  -2 -10    5.65    2.42
  -5   2  10    1.98    0.81
   4  -2 -10    7.00    1.59
   4  -2 -10    7.07    1.40
   4  -2 -10    6.84    2.45
   4  -2 -10    6.98    1.19
  -4   2  10    2.57    2.51
  -4   2  10    9.24    1.35
   3  -2 -10    1.19    1.13
   3  -2 -10   -1.05    1.63
   3  -2 -10    0.18    1.19
  -3   2  10    0.33    0.74
  -3   2  10    0.64    2.26
   2  -2 -10    1.27    1.72
   2  -2 -10    1.45    1.19
   2  -2 -10   -0.43    0.98
  -2   2  10    0.24    0.69
  -2   2  10    2.13    2.09
   1  -2 -10    7.01    1.26
   1  -2 -10    6.50    2.09
   1  -2 -10    4.95    1.51
  -1   2  10    7.70    2.42
  -1   2  10    6.00    1.11
   0  -2 -10   19.31    1.90
   0  -2 -10   18.89    2.58
   0  -2 -10   22.19    4.14
   0   2  10   22.74    2.26
   0   2  10   19.77    1.99
   0   2  10   30.09    3.51
  -1  -2 -10   10.91    2.26
  -1  -2 -10    8.51    1.33
   1   2  10    8.80    2.06
   1   2  10    8.18    1.21
   1   2  10    7.82    1.38
   1   2  10    8.16    1.19
  -2  -2 -10    1.13    1.39
  -2  -2 -10    2.70    1.71
  -2  -2 -10    2.38    1.07
   2   2  10    2.49    0.94
   2   2  10    2.60    1.60
  -3  -2 -10    3.83    1.84
  -3  -2 -10    1.15    1.45
  -3  -2 -10    1.75    1.07
   3   2  10    3.79    1.42
   3   2  10    1.75    1.08
  -4  -2 -10   -0.40    1.61
  -4  -2 -10   -0.98    1.54
  -4  -2 -10   -0.96    1.25
   4   2  10    2.24    1.04
   4   2  10   -0.43    0.92
   4   2  10    2.67    1.24
  -5  -2 -10    7.37    2.40
  -5  -2 -10    9.07    2.17
  -5  -2 -10    9.92    1.81
   5   2  10   10.03    1.90
  -6  -2 -10   33.78    4.05
  -6  -2 -10   32.61    3.80
   6   2  10   28.37    3.35
   6   2  10   33.06    3.32
  -7  -2 -10   15.01    2.74
  -7  -2 -10   17.16    3.06
   7   2  10   13.54    2.13
   7   2  10   16.04    2.98
  -8  -2 -10   22.64    3.99
  -8  -2 -10   22.22    3.21
   8   2  10   25.38    3.81
   8   2  10   26.17    3.84
   8  -3 -10    6.48    2.78
   8  -3 -10    1.62    2.70
   7  -3 -10   16.75    2.66
   7  -3 -10   16.94    3.13
   7  -3 -10   18.55    2.85
   6  -3 -10    9.43    1.85
   6  -3 -10   11.41    2.90
   6  -3 -10    9.32    1.36
   6  -3 -10    8.13    1.90
   5  -3 -10   15.70    2.72
   5  -3 -10   12.99    1.88
   5  -3 -10   13.41    1.77
   5  -3 -10   11.65    1.74
   4  -3 -10    5.12    1.38
   4  -3 -10    6.32    2.13
   4  -3 -10    6.95    1.50
  -4   3  10   -0.23    2.79
   3  -3 -10    0.25    1.76
   3  -3 -10    0.75    1.06
  -3   3  10    1.12    2.32
   2  -3 -10    2.57    2.06
   2  -3 -10    2.61    1.06
   2  -3 -10    5.10    1.41
  -2   3  10    7.50    2.33
   1  -3 -10    2.96    1.34
   1  -3 -10    2.37    1.70
  -1   3  10    6.55    2.14
   0  -3 -10   12.82    1.72
   0  -3 -10   15.19    2.32
   0   3  10   15.18    2.53
   0   3  10   17.93    2.12
  -1  -3 -10    1.62    1.60
  -1  -3 -10    0.54    1.17
  -1  -3 -10    0.61    0.80
   1   3  10   -1.63    1.49
   1   3  10    1.40    0.73
   1   3  10    0.51    0.94
  -2  -3 -10    4.68    1.09
  -2  -3 -10    6.50    1.81
   2   3  10    6.10    1.23
   2   3  10    6.22    1.79
  -3  -3 -10    1.44    1.46
  -3  -3 -10    1.86    1.57
  -3  -3 -10    1.28    0.99
   3   3  10    2.64    1.04
   3   3  10    4.08    1.57
  -4  -3 -10    1.50    1.54
  -4  -3 -10    4.72    1.85
  -4  -3 -10    0.12    1.05
   4   3  10    1.29    1.37
   4   3  10   -0.92    0.79
  -5  -3 -10    1.50    1.70
  -5  -3 -10   -1.14    1.12
  -5  -3 -10    1.46    1.69
   5   3  10   -0.32    1.03
   5   3  10   -0.23    0.74
   5   3  10    0.43    1.22
   5   3  10    0.13    0.68
  -6  -3 -10    2.13    1.69
  -6  -3 -10    4.65    2.20
  -6  -3 -10    2.53    1.49
   6   3  10    3.54    1.42
   6   3  10    2.55    1.46
  -7  -3 -10    2.77    1.53
  -7  -3 -10    6.23    2.58
   7   3  10   -1.21    1.87
   7   3  10    2.23    1.41
  -8  -3 -10    1.95    2.75
  -8  -3 -10    2.84    1.93
   8   3  10    3.46    2.37
   8   3  10   -0.53    2.00
  -9  -3 -10    5.70    2.51
  -9  -3 -10    5.16    3.50
   9   3  10    5.11    2.56
   9   3  10    6.69    2.63
   7  -4 -10    7.54    1.99
   7  -4 -10   13.81    2.37
   7  -4 -10    8.27    2.44
   6  -4 -10    3.74    1.83
   6  -4 -10    7.76    1.99
   6  -4 -10    7.43    2.51
   5  -4 -10    4.97    1.37
   5  -4 -10    4.00    1.28
   5  -4 -10    3.69    2.15
   5  -4 -10    4.84    1.33
   4  -4 -10   11.18    1.76
   4  -4 -10   12.50    1.73
   4  -4 -10    8.72    2.34
  -4   4  10   18.78    3.70
   3  -4 -10    3.38    1.70
   3  -4 -10    3.52    1.37
   3  -4 -10    2.22    1.13
  -3   4  10    2.67    2.40
   2  -4 -10    0.90    1.53
   2  -4 -10    2.50    1.25
  -2   4  10    0.17    1.79
  -2   4  10    1.15    1.61
   1  -4 -10   53.49    4.42
   1  -4 -10   51.26    3.80
  -1   4  10   41.29    4.68
  -1   4  10   46.84    3.97
   0  -4 -10   91.89    5.92
   0  -4 -10   95.70    6.38
   0  -4 -10   89.76    5.10
   0   4  10   89.66    6.54
   0   4  10   89.84    5.65
  -1  -4 -10   10.98    2.03
  -1  -4 -10   11.48    1.54
   1   4  10    8.45    1.70
   1   4  10   10.81    2.38
   1   4  10   10.58    1.73
  -2  -4 -10    0.82    1.32
  -2  -4 -10    0.08    1.62
  -2  -4 -10   -0.09    0.79
   2   4  10   -0.25    0.88
   2   4  10   -1.53    1.53
   2   4  10   -0.55    1.14
   2   4  10    0.19    0.60
  -3  -4 -10    0.58    0.81
  -3  -4 -10    1.32    1.37
  -3  -4 -10   -1.08    1.30
   3   4  10   -0.64    1.13
   3   4  10    0.69    1.46
   3   4  10    1.29    0.89
  -4  -4 -10    7.40    1.97
  -4  -4 -10    7.33    1.34
  -4  -4 -10    8.37    2.04
   4   4  10    4.36    1.26
   4   4  10    8.04    1.93
  -5  -4 -10    1.58    1.44
  -5  -4 -10   -0.47    1.69
  -5  -4 -10    0.13    1.02
   5   4  10    0.34    1.32
   5   4  10    0.69    1.11
   5   4  10    1.78    1.22
   5   4  10    2.01    1.07
  -6  -4 -10    3.03    2.07
  -6  -4 -10   -2.24    1.28
   6   4  10   -0.74    1.25
   6   4  10   -1.16    1.17
  -7  -4 -10    0.89    2.08
  -7  -4 -10    2.59    1.60
   7   4  10    3.97    1.70
   7   4  10    1.58    1.59
  -8  -4 -10    9.02    2.27
  -8  -4 -10    8.95    2.94
   8   4  10    7.61    1.97
   8   4  10    7.89    2.46
  -9  -4 -10   21.79    4.20
  -9  -4 -10   22.66    3.02
   9   4  10   18.64    3.31
   9   4  10   13.02    2.91
   7  -5 -10   22.77    3.51
  -7   5  10   26.90    5.23
   6  -5 -10    8.16    1.93
   6  -5 -10    3.89    1.87
   6  -5 -10    9.70    2.15
  -6   5  10   13.16    4.13
   5  -5 -10   21.03    2.46
   5  -5 -10   17.11    2.08
  -5   5  10   15.76    3.37
   4  -5 -10    1.47    1.27
   4  -5 -10    1.25    1.72
   4  -5 -10    3.38    1.15
  -4   5  10   -1.12    2.33
  -4   5  10    6.16    5.14
   3  -5 -10    2.78    1.25
   3  -5 -10    4.17    1.72
   3  -5 -10    0.80    1.16
  -3   5  10    2.83    2.19
  -3   5  10    6.24    2.52
   2  -5 -10    0.16    1.17
   2  -5 -10    1.47    1.62
   2  -5 -10    1.57    0.95
  -2   5  10    2.58    2.09
  -2   5  10    3.85    1.65
   1  -5 -10   29.68    2.91
   1  -5 -10   27.19    3.18
  -1   5  10   23.09    3.12
  -1   5  10   22.48    3.66
  -1   5  10   25.41    2.67
   0  -5 -10   11.82    1.28
   0  -5 -10   14.03    2.27
   0  -5 -10   15.06    2.39
   0   5  10   15.79    2.30
   0   5  10   11.33    1.92
   0   5  10   13.68    2.55
  -1  -5 -10    0.93    1.27
  -1  -5 -10   -0.70    1.05
  -1  -5 -10    0.76    0.73
   1   5  10   -0.04    1.01
   1   5  10    1.82    1.07
   1   5  10   -0.63    1.64
   1   5  10   -1.15    1.08
  -2  -5 -10    2.07    1.36
  -2  -5 -10   -1.82    2.16
  -2  -5 -10    0.44    0.73
   2   5  10    0.26    0.88
   2   5  10    0.84    1.23
   2   5  10    1.95    0.92
   2   5  10    7.20    1.93
  -3  -5 -10    0.03    0.79
  -3  -5 -10    1.74    1.60
   3   5  10    2.19    1.07
   3   5  10   -0.47    1.23
   3   5  10   -1.37    1.57
  -4  -5 -10    3.51    1.12
  -4  -5 -10    3.08    1.71
   4   5  10    4.37    1.14
   4   5  10    3.11    1.42
   4   5  10    0.98    1.68
  -5  -5 -10   -1.86    0.93
  -5  -5 -10    1.30    1.58
   5   5  10   -0.20    0.96
   5   5  10    2.17    1.62
   5   5  10    0.67    1.01
   5   5  10   -1.03    1.57
   5   5  10    2.86    1.57
  -6  -5 -10   24.61    3.57
  -6  -5 -10   19.13    2.42
   6   5  10   22.86    2.75
   6   5  10   21.59    2.33
   6   5  10   24.09    2.55
   6   5  10   21.37    2.81
   6   5  10   22.65    3.41
  -7  -5 -10    3.56    2.22
  -7  -5 -10    1.27    1.62
   7   5  10    2.26    1.44
   7   5  10    2.48    1.51
  -8  -5 -10    4.04    2.48
  -8  -5 -10    2.78    1.83
   8   5  10    3.25    1.93
   8   5  10    0.92    2.07
  -9  -5 -10   -0.97    2.08
  -9  -5 -10    3.48    3.09
   9   5  10    0.76    2.25
   9   5  10    0.38    2.32
   6  -6 -10   -2.12    1.89
  -6   6  10   -1.17    3.99
   5  -6 -10    7.91    2.18
   5  -6 -10    9.06    1.67
  -5   6  10    2.75    3.03
   4  -6 -10   47.59    3.49
   4  -6 -10   46.00    3.53
  -4   6  10   50.50    5.71
   3  -6 -10   25.77    2.74
   3  -6 -10   25.96    2.46
  -3   6  10   19.71    3.62
  -3   6  10   26.85    3.96
   2  -6 -10    1.39    0.99
   2  -6 -10    4.22    1.37
  -2   6  10    3.58    2.06
  -2   6  10    3.39    1.36
  -2   6  10    4.34    2.51
   1  -6 -10    5.95    1.23
   1  -6 -10    7.85    1.65
  -1   6  10    2.22    2.06
  -1   6  10    3.59    1.92
  -1   6  10    5.97    1.38
   0  -6 -10   21.50    2.59
   0  -6 -10   20.55    1.53
   0   6  10   21.13    3.36
   0   6  10   19.65    2.84
   0   6  10   19.17    2.54
  -1  -6 -10    3.20    1.42
  -1  -6 -10    3.73    0.78
   1   6  10    2.56    1.25
   1   6  10    2.33    1.18
   1   6  10    1.67    1.96
   1   6  10    3.58    1.28
  -2  -6 -10    5.91    0.99
  -2  -6 -10    6.65    2.96
   2   6  10    6.04    2.20
   2   6  10    4.68    1.32
   2   6  10    4.82    1.26
   2   6  10    3.78    1.42
  -3  -6 -10    7.70    1.93
   3   6  10   16.60    2.50
   3   6  10    9.28    1.40
   3   6  10   10.93    1.76
   3   6  10   11.11    1.84
  -4  -6 -10   17.89    1.92
  -4  -6 -10   16.57    2.57
   4   6  10   17.70    2.10
   4   6  10   18.33    2.70
   4   6  10   17.59    2.76
  -5  -6 -10   15.08    2.64
  -5  -6 -10   11.30    2.02
   5   6  10   23.39    3.25
   5   6  10   18.75    2.94
   5   6  10   15.41    1.70
   5   6  10   19.02    2.28
   5   6  10   16.59    2.60
  -6  -6 -10    0.81    1.71
  -6  -6 -10    2.10    1.26
  -6  -6 -10    2.70    1.27
   6   6  10   -1.56    1.15
   6   6  10   -0.33    1.75
   6   6  10    3.25    1.83
   6   6  10    0.14    1.83
   6   6  10    3.43    1.32
  -7  -6 -10    5.22    1.80
  -7  -6 -10    8.75    2.42
  -7  -6 -10    8.01    1.82
   7   6  10    5.50    1.81
   7   6  10    7.14    1.86
   7   6  10    8.28    1.88
   7   6  10   10.24    1.78
  -8  -6 -10   27.58    3.41
  -8  -6 -10   17.53    3.32
   8   6  10   22.83    3.29
  -9  -6 -10    8.16    2.39
  -9  -6 -10    3.64    3.00
   9   6  10    7.99    2.40
   9   6  10    6.06    2.60
  10   6  10    1.42    2.58
   6  -7 -10    2.47    2.28
  -6   7  10    1.33    4.39
  -5   7  10    2.48    3.89
   4  -7 -10    1.39    1.23
   4  -7 -10    0.01    1.89
  -4   7  10    0.60    3.11
   3  -7 -10   -0.64    1.39
   3  -7 -10    2.22    1.08
  -3   7  10    0.46    2.43
  -3   7  10   -1.89    1.25
   2  -7 -10   17.61    2.68
   2  -7 -10   18.05    1.94
  -2   7  10    9.78    2.89
  -2   7  10   13.31    1.90
  -2   7  10   12.39    2.73
   1  -7 -10    3.13    1.40
   1  -7 -10    1.17    0.95
  -1   7  10    1.42    1.35
  -1   7  10    4.63    2.63
  -1   7  10    0.53    1.91
   0  -7 -10    0.64    0.45
   0  -7 -10    1.65    1.41
   0   7  10    2.22    2.08
   0   7  10    1.66    1.66
   0   7  10    5.06    1.45
  -1  -7 -10    0.30    0.59
  -1  -7 -10    1.55    1.47
   1   7  10   -0.06    1.40
   1   7  10    2.04    2.01
   1   7  10    2.36    1.51
   1   7  10   -0.47    0.88
  -2  -7 -10    8.23    1.86
  -2  -7 -10    8.23    1.20
   2   7  10    8.55    2.41
   2   7  10    5.42    1.50
   2   7  10    4.94    1.68
   2   7  10    6.59    1.44
  -3  -7 -10    0.82    1.46
  -3  -7 -10    1.04    0.78
   3   7  10    1.30    1.20
   3   7  10    3.05    1.96
   3   7  10   -1.22    1.42
   3   7  10    1.01    0.94
  -4  -7 -10    4.76    1.78
  -4  -7 -10    5.32    1.13
   4   7  10    5.03    1.31
   4   7  10    5.27    1.32
   4   7  10    3.44    2.70
   4   7  10    2.05    1.94
  -5  -7 -10    1.40    1.84
   5   7  10    0.76    0.98
   5   7  10    0.67    1.00
   5   7  10    3.82    1.79
   5   7  10   -2.48    1.88
   5   7  10    1.40    1.96
  -6  -7 -10    6.21    2.15
  -6  -7 -10    2.26    1.40
  -6  -7 -10    2.21    1.32
   6   7  10    4.22    1.41
   6   7  10    4.87    2.22
   6   7  10    4.95    2.22
   6   7  10    6.41    2.23
   6   7  10    3.33    1.47
  -7  -7 -10   18.60    2.55
  -7  -7 -10   17.81    2.65
  -7  -7 -10   20.79    3.27
   7   7  10   18.45    2.55
   7   7  10   18.86    2.79
   7   7  10   19.30    2.97
   7   7  10   16.10    2.79
  -8  -7 -10    6.16    2.12
  -8  -7 -10    4.48    2.68
   8   7  10    2.45    2.11
   8   7  10    5.41    2.10
   8   7  10    6.61    1.90
   8   7  10    1.43    1.87
  -9  -7 -10    7.95    2.30
  -9  -7 -10    5.19    2.94
   9   7  10    7.06    2.43
   9   7  10    6.14    2.35
 -10  -7 -10    1.36    3.38
  10   7  10    4.29    2.77
  10   7  10   -1.28    4.16
   5  -8 -10   14.14    2.83
  -5   8  10    8.85    4.45
   4  -8 -10   16.32    2.87
  -4   8  10   14.85    4.10
  -4   8  10   16.56    3.07
   3  -8 -10   11.40    1.46
   3  -8 -10   10.32    2.50
  -3   8  10   15.39    3.43
  -3   8  10   12.66    1.94
   2  -8 -10   -0.61    1.41
   2  -8 -10    0.51    1.01
  -2   8  10   -0.63    2.36
  -2   8  10   -1.30    1.49
   1  -8 -10    1.88    1.42
   1  -8 -10    1.03    0.98
  -1   8  10    2.42    2.22
  -1   8  10    0.75    1.45
  -1   8  10   -0.76    2.68
   0  -8 -10   -0.45    1.44
   0   8  10   -1.79    1.68
   0   8  10   -0.76    1.50
  -1  -8 -10   -0.88    1.42
   1   8  10    1.77    1.73
   1   8  10   -0.19    2.05
   1   8  10    2.55    1.55
   1   8  10   -0.19    0.94
  -2  -8 -10    6.40    1.87
  -2  -8 -10    6.36    0.97
   2   8  10    4.71    1.33
   2   8  10    6.63    1.83
   2   8  10    6.84    2.03
   2   8  10    8.22    2.38
  -3  -8 -10    0.18    0.84
  -3  -8 -10    0.78    1.44
   3   8  10    2.69    1.60
   3   8  10    0.85    2.03
   3   8  10    1.65    1.09
   3   8  10    0.23    1.61
  -4  -8 -10   17.74    2.05
  -4  -8 -10   23.22    3.35
   4   8  10   20.35    2.82
   4   8  10   21.82    1.77
   4   8  10   28.23    3.37
   4   8  10   19.92    2.37
   4   8  10   24.61    3.96
  -5  -8 -10   14.20    1.88
  -5  -8 -10    8.77    1.76
  -5  -8 -10    8.25    2.45
   5   8  10   15.43    2.25
   5   8  10   22.72    3.40
   5   8  10   13.47    2.80
   5   8  10   10.99    1.90
   5   8  10   14.27    1.81
   5   8  10   11.49    2.78
  -6  -8 -10    7.53    2.53
  -6  -8 -10    6.85    1.72
  -6  -8 -10    8.72    1.60
   6   8  10    8.06    1.65
   6   8  10    8.22    2.72
   6   8  10    8.11    1.71
   6   8  10    8.40    3.01
  -7  -8 -10    6.99    1.76
  -7  -8 -10    2.59    1.52
  -7  -8 -10    4.39    2.56
   7   8  10    5.05    1.71
   7   8  10    4.48    1.62
   7   8  10    3.85    2.47
   7   8  10    0.35    2.44
  -8  -8 -10    3.81    1.70
  -8  -8 -10    3.97    2.64
   8   8  10    4.38    2.45
   8   8  10    1.15    2.40
   8   8  10    7.33    2.11
  -9  -8 -10    4.22    2.94
  -9  -8 -10    0.47    2.22
   9   8  10    2.37    2.43
   9   8  10    1.63    2.24
   4  -9 -10    1.55    2.12
  -4   9  10   -0.07    3.92
   3  -9 -10    1.53    2.38
  -3   9  10    0.85    3.20
  -3   9  10    2.73    1.99
   2  -9 -10    5.98    2.36
   2  -9 -10   11.63    1.33
  -2   9  10   11.00    3.48
   1  -9 -10    2.71    1.17
  -1   9  10   -0.77    1.66
  -1   9  10    1.12    2.36
   0  -9 -10    2.36    1.78
   0   9  10    5.12    2.32
   0   9  10    8.98    1.88
  -1  -9 -10    0.17    1.63
   1   9  10   -3.13    2.38
   1   9  10    2.47    2.06
   1   9  10    1.68    1.11
   1   9  10    1.95    1.66
  -2  -9 -10    7.28    1.06
  -2  -9 -10    6.17    2.01
   2   9  10    3.64    2.34
   2   9  10    6.14    1.32
   2   9  10    9.02    2.35
   2   9  10   10.24    2.03
  -3  -9 -10   -2.61    1.63
  -3  -9 -10    0.95    1.07
   3   9  10   -2.64    2.43
   3   9  10    0.80    1.75
   3   9  10    0.80    1.01
   3   9  10    1.13    1.84
  -4  -9 -10    6.26    1.43
  -4  -9 -10    6.88    2.25
  -4  -9 -10    4.85    1.07
   4   9  10    1.95    1.16
   4   9  10    0.07    2.54
   4   9  10    3.18    1.94
   4   9  10    3.57    2.00
   4   9  10    2.07    1.21
  -5  -9 -10    6.90    2.22
  -5  -9 -10    3.41    1.22
  -5  -9 -10    1.21    1.37
   5   9  10    3.04    1.34
   5   9  10    5.07    1.52
   5   9  10    7.19    1.96
   5   9  10    1.74    2.60
   5   9  10    8.11    2.71
  -6  -9 -10    0.32    2.11
  -6  -9 -10   -1.17    1.19
  -6  -9 -10   -0.95    1.36
   6   9  10    0.56    1.21
   6   9  10   -0.03    1.38
   6   9  10    2.43    2.43
   6   9  10    2.27    2.67
  -7  -9 -10   30.10    3.46
  -7  -9 -10   28.47    4.66
   7   9  10   34.46    3.50
   7   9  10   28.24    3.32
   7   9  10   44.81    5.42
   7   9  10   29.55    4.20
  -8  -9 -10    3.22    1.94
  -8  -9 -10    5.88    2.81
   8   9  10    1.98    2.79
   8   9  10   -0.23    2.74
   8   9  10    1.38    2.22
   8   9  10    0.51    1.72
  -9  -9 -10    8.11    2.32
  -9  -9 -10   11.34    3.50
   9   9  10    7.09    3.12
   9   9  10    9.95    2.96
   9   9  10    9.71    2.61
   3 -10 -10   -1.52    2.39
  -3  10  10    8.71    4.49
   2 -10 -10    3.14    2.31
  -2  10  10    2.92    3.63
   1 -10 -10    6.32    2.19
   1 -10 -10    4.22    1.19
  -1  10  10    5.22    3.25
  -1  10  10    1.83    2.12
   0 -10 -10   13.08    1.69
   0  10  10   13.37    3.43
   0  10  10   14.62    2.52
  -1 -10 -10    5.14    0.64
  -1 -10 -10    9.77    2.25
  -1 -10 -10    5.30    1.31
   1  10  10    4.22    2.68
   1  10  10    2.81    2.37
   1  10  10    3.83    1.43
  -2 -10 -10    5.15    0.94
  -2 -10 -10    4.73    2.09
  -2 -10 -10    3.36    1.23
   2  10  10    5.32    1.39
   2  10  10    7.00    2.70
  -3 -10 -10    4.30    1.30
  -3 -10 -10    5.19    2.09
   3  10  10    3.40    1.25
   3  10  10    6.51    2.53
   3  10  10    0.27    2.09
  -4 -10 -10   15.67    1.99
  -4 -10 -10   15.74    2.08
  -4 -10 -10   14.12    2.82
   4  10  10   28.08    4.71
   4  10  10   25.83    4.19
   4  10  10   15.62    2.30
   4  10  10   10.22    2.72
  -5 -10 -10    3.53    1.29
  -5 -10 -10    2.57    1.37
  -5 -10 -10    4.82    2.16
   5  10  10    1.75    2.75
   5  10  10    1.64    2.19
   5  10  10    1.99    2.97
   5  10  10    1.81    1.36
  -6 -10 -10    1.13    1.63
  -6 -10 -10    1.98    2.22
   6  10  10   -0.05    1.34
   6  10  10    2.24    3.00
   6  10  10    0.09    1.56
   6  10  10   -3.58    2.15
   6  10  10   -1.25    2.78
  -7 -10 -10   -2.51    2.28
  -7 -10 -10   -0.99    2.37
  -7 -10 -10    0.89    1.57
   7  10  10    3.41    3.23
   7  10  10   11.51    3.32
   7  10  10    2.27    1.85
   7  10  10    2.57    1.63
  -8 -10 -10   -0.26    1.81
  -8 -10 -10    3.73    3.06
   8  10  10    1.32    2.30
   8  10  10   -1.07    1.63
   8  10  10    1.62    3.44
   8  10  10   -1.52    3.03
  -9 -10 -10   17.25    3.61
  -9 -10 -10   10.83    2.74
   9  10  10   18.29    3.48
   9  10  10   17.57    4.39
   9  10  10   12.62    2.75
   2 -11 -10    0.28    2.65
  -2  11  10    4.55    4.67
   1 -11 -10    9.62    2.75
  -1  11  10    3.26    4.11
  -1  11  10    0.97    2.76
   0 -11 -10    2.75    2.34
   0  11  10    2.64    2.66
   0  11  10   -1.75    1.38
   0  11  10    2.93    3.28
  -1 -11 -10    4.36    1.34
   1  11  10    3.35    1.50
   1  11  10   12.26    4.20
   1  11  10    6.16    3.41
  -2 -11 -10    7.96    1.52
  -2 -11 -10    7.35    1.59
  -2 -11 -10    8.75    2.43
   2  11  10    5.87    1.53
   2  11  10    6.21    3.08
  -3 -11 -10    0.45    1.31
  -3 -11 -10   -1.09    2.01
   3  11  10   -1.25    1.26
   3  11  10    1.45    2.67
  -4 -11 -10    5.29    2.43
  -4 -11 -10    2.28    1.50
   4  11  10    7.84    3.19
   4  11  10    2.46    2.81
   4  11  10    4.03    1.54
  -5 -11 -10    0.71    2.24
  -5 -11 -10    3.34    1.65
   5  11  10    6.19    3.35
   5  11  10   -0.69    1.45
   5  11  10    1.53    2.94
  -6 -11 -10   -0.12    1.53
  -6 -11 -10    4.85    2.57
   6  11  10    1.41    3.43
   6  11  10    2.59    1.59
   6  11  10    0.52    2.93
  -7 -11 -10   -1.71    1.60
  -7 -11 -10   -3.95    2.95
  -7 -11 -10    2.62    2.81
   7  11  10    2.98    3.67
   7  11  10    0.39    1.56
  -8 -11 -10    2.81    3.18
  -8 -11 -10   -1.72    1.80
   8  11  10   -1.74    3.68
   8  11  10    2.04    2.10
   8  11  10    7.98    2.68
   0 -12 -10    6.50    3.11
   0  12  10   10.86    2.07
   0  12  10    9.90    4.32
  -1 -12 -10    8.55    3.05
   1  12  10    2.60    1.70
   1  12  10    1.00    3.58
  -2 -12 -10   11.72    3.15
  -2 -12 -10    7.59    1.51
   2  12  10   12.48    1.91
   2  12  10    2.62    3.95
  -3 -12 -10    4.71    1.40
   3  12  10    2.17    3.52
   3  12  10   12.34    4.78
   3  12  10    5.69    1.69
  -4 -12 -10   -0.50    1.39
   4  12  10    0.11    3.54
   4  12  10   -1.88    3.89
   4  12  10    4.72    1.69
  -5 -12 -10   -0.99    1.56
  -5 -12 -10   -0.45    2.33
   5  12  10   -3.04    3.62
   5  12  10   -0.76    1.51
   5  12  10   -1.56    3.19
  -6 -12 -10    3.55    3.92
  -6 -12 -10    2.85    1.74
  -6 -12 -10    2.53    2.82
   6  12  10   -7.14    3.97
   6  12  10    1.50    1.69
   6  12  10    3.60    3.40
  -7 -12 -10   -2.90    1.81
  -7 -12 -10    5.99    3.79
   7  12  10   -1.18    4.31
   7  12  10   -3.19    1.92
   7  12  10    3.76    3.56
  -4 -13 -10    3.82    3.70
   4  13  10   10.30    2.11
   4  13  10    8.15    4.51
   3   4 -11    5.69    3.46
   3   4 -11   15.99    4.93
  -3  -4  11    3.03    2.33
  -3  -4  11    0.86    1.94
   2   4 -11    8.40    4.41
   2   4 -11    8.33    3.47
  -2  -4  11    5.48    2.40
   1   4 -11   22.16    4.85
   1   4 -11   15.20    3.52
  -1  -4  11   15.88    2.52
  -1  -4  11   26.28    4.31
   0   4 -11    7.16    4.32
   0  -4  11    5.92    2.93
   5   3 -11    8.32    3.20
   5   3 -11    8.79    4.98
  -5  -3  11    7.80    2.42
   4   3 -11   -1.92    2.20
   4   3 -11    1.13    2.73
   4   3 -11   -0.64    4.14
  -4  -3  11    4.25    2.09
  -4  -3  11   -0.27    3.95
   3   3 -11    1.34    3.75
   3   3 -11   -0.63    2.71
  -3  -3  11    5.14    2.15
  -3  -3  11    1.06    1.73
  -3  -3  11   13.72    4.57
  -3  -3  11    7.18    5.57
   2   3 -11   15.76    3.20
   2   3 -11   13.59    4.33
  -2  -3  11   17.35    2.38
  -2  -3  11   23.53    3.41
  -2  -3  11   23.83    4.44
   1   3 -11    6.83    3.44
   1   3 -11   -0.97    2.56
  -1  -3  11   -2.23    1.89
  -1  -3  11   -0.79    1.55
   0   3 -11   -0.84    2.70
   0   3 -11    1.45    3.44
   0  -3  11    2.87    2.26
   0  -3  11    0.23    1.66
  -1   3 -11    2.26    3.47
  -1   3 -11    4.15    3.28
   1  -3  11    4.48    1.86
   1  -3  11    4.35    2.31
  -2   3 -11    5.42    3.30
  -2   3 -11    5.74    3.54
   2  -3  11    4.81    2.18
   2  -3  11   11.50    2.97
   6   2 -11    0.15    2.66
  -6  -2  11    1.63    1.93
   5   2 -11    0.82    3.52
   5   2 -11    2.20    2.59
  -5  -2  11    0.88    1.79
  -5  -2  11   -4.32    3.93
   4   2 -11    3.87    1.97
   4   2 -11    4.05    3.69
   4   2 -11    2.96    2.49
  -4  -2  11    5.94    3.42
  -4  -2  11    2.68    1.71
   3   2 -11   -0.46    2.39
   3   2 -11    3.25    1.89
   3   2 -11   -3.81    3.11
  -3  -2  11    0.15    1.53
  -3  -2  11    3.03    3.92
  -3  -2  11    2.54    2.76
   2   2 -11    2.59    2.83
   2   2 -11    7.06    2.13
   2   2 -11    0.59    2.23
  -2  -2  11    1.95    2.46
  -2  -2  11    2.08    1.49
  -2  -2  11    2.33    1.58
  -2  -2  11   -0.22    3.37
   1   2 -11   14.87    3.39
   1   2 -11    9.22    2.64
  -1  -2  11   10.96    1.83
  -1  -2  11   12.71    2.32
  -1  -2  11    8.76    3.25
  -1  -2  11    8.99    2.03
   0   2 -11    2.85    2.29
   0   2 -11    1.83    2.95
   0  -2  11    0.08    1.72
   0  -2  11    2.07    2.37
   0  -2  11    4.93    1.47
  -1   2 -11    2.84    2.82
  -1   2 -11    3.38    2.48
   1  -2  11    0.71    1.48
   1  -2  11    2.14    2.01
  -2   2 -11    1.83    2.87
  -2   2 -11    9.95    3.35
   2  -2  11    4.63    2.31
   2  -2  11    7.05    1.86
  -3   2 -11    4.21    3.31
  -3   2 -11    5.79    3.28
   3  -2  11   10.49    2.18
  -4   2 -11    6.22    3.37
   4  -2  11    5.36    2.27
   6   1 -11    0.63    2.17
   6   1 -11    0.99    1.87
  -6  -1  11    1.73    1.69
   5   1 -11    5.97    3.02
   5   1 -11   -1.51    1.69
   5   1 -11   -3.83    2.06
  -5  -1  11    2.10    1.51
  -5  -1  11    4.51    3.90
   4   1 -11    0.86    2.05
   4   1 -11   -4.91    2.64
  -4  -1  11    0.34    1.50
  -4  -1  11    0.81    2.98
   3   1 -11   14.61    3.42
   3   1 -11   13.03    2.81
  -3  -1  11   16.74    3.97
  -3  -1  11   13.97    3.15
  -3  -1  11   17.26    2.62
   2   1 -11    4.81    2.18
   2   1 -11    7.42    2.96
  -2  -1  11   11.00    3.66
  -2  -1  11   12.97    2.57
  -2  -1  11   10.57    1.92
   1   1 -11    7.65    3.13
   1   1 -11    1.31    2.20
  -1  -1  11    7.75    1.95
  -1  -1  11    4.02    1.49
  -1  -1  11    5.59    1.60
  -1  -1  11    3.12    2.77
   0   1 -11   10.30    3.13
   0   1 -11    8.12    2.66
   0  -1  11    4.83    1.50
   0  -1  11    7.02    1.75
   0  -1  11    6.13    2.61
   0  -1  11    7.22    1.49
  -1   1 -11    0.55    2.32
  -1   1 -11    0.67    2.40
   1  -1  11    4.07    2.00
   1  -1  11    3.31    1.63
   1  -1  11    3.66    1.65
  -2   1 -11   -2.49    2.12
  -2   1 -11    2.14    2.60
   2  -1  11    0.59    1.09
   2  -1  11   -0.04    1.69
   2  -1  11   -0.24    1.37
  -3   1 -11    9.75    2.88
  -3   1 -11    3.29    2.54
   3  -1  11    3.03    1.70
  -4   1 -11   -2.95    2.69
  -4   1 -11   -1.81    2.95
   4  -1  11   -1.14    1.73
  -5   1 -11    2.87    3.51
  -5   1 -11   10.87    3.35
   5  -1  11    0.48    2.27
   7   0 -11    0.46    2.00
   7   0 -11    2.68    4.05
   6   0 -11    0.82    2.08
   6   0 -11   -4.60    3.23
   6   0 -11   -2.92    1.55
  -6   0  11   -2.04    2.58
   5   0 -11    4.59    2.53
   5   0 -11    5.95    1.59
   5   0 -11    5.88    3.15
  -5   0  11    8.99    3.65
   4   0 -11    4.21    2.00
   4   0 -11   -1.14    2.43
   4   0 -11    1.35    1.24
  -4   0  11    7.57    3.05
   3   0 -11    0.34    1.81
   3   0 -11   -0.13    1.13
   3   0 -11    2.53    2.40
  -3   0  11   -1.81    3.17
  -3   0  11    2.00    2.40
  -3   0  11    0.25    1.22
   2   0 -11    3.47    1.80
   2   0 -11    6.17    2.57
  -2   0  11    3.58    1.93
  -2   0  11    8.69    3.06
  -2   0  11    8.24    1.52
   1   0 -11    4.42    2.53
   1   0 -11    0.63    1.75
  -1   0  11    1.37    1.17
  -1   0  11    2.95    1.63
  -1   0  11    3.05    1.36
  -1   0  11   -0.90    2.35
   0   0 -11    5.36    2.35
   0   0 -11    3.58    1.75
   0   0  11    3.80    1.51
   0   0  11    4.07    1.32
   0   0  11    1.13    2.30
   0   0  11    3.69    1.37
  -1   0 -11    3.71    2.08
  -1   0 -11    6.78    2.77
   1   0  11    3.38    1.35
   1   0  11    9.81    2.32
   1   0  11    4.61    1.54
  -2   0 -11   16.35    2.99
  -2   0 -11   20.57    2.88
  -2   0 -11   17.48    3.00
   2   0  11   18.22    2.48
   2   0  11   20.38    2.63
  -3   0 -11    6.50    2.53
  -3   0 -11    4.14    2.69
   3   0  11    9.85    1.88
  -4   0 -11    5.17    2.61
  -4   0 -11    5.45    3.14
   4   0  11    6.09    1.82
  -5   0 -11    1.98    2.76
  -5   0 -11    8.74    3.13
   5   0  11   -1.11    2.02
  -6   0 -11   -1.35    3.33
  -6   0 -11    5.14    3.19
   6   0  11   -0.59    2.20
   7  -1 -11    0.88    1.93
   7  -1 -11    2.50    3.90
   6  -1 -11    3.71    3.28
   6  -1 -11    1.19    1.77
   6  -1 -11   -0.90    1.50
  -6   1  11    1.88    1.28
   5  -1 -11   -0.83    1.75
   5  -1 -11   -0.51    1.28
   5  -1 -11    3.08    2.65
  -5   1  11    1.93    1.11
   4  -1 -11   -0.62    2.41
   4  -1 -11   -1.11    1.74
  -4   1  11    1.95    1.09
   3  -1 -11    6.70    2.83
   3  -1 -11    6.31    1.97
  -3   1  11    8.29    1.46
  -3   1  11    8.93    2.78
  -3   1  11   14.00    3.36
   2  -1 -11   -0.67    1.22
   2  -1 -11    1.94    1.68
   2  -1 -11   -3.44    2.18
  -2   1  11   -0.68    1.01
  -2   1  11   -0.49    1.75
   1  -1 -11    0.80    1.62
   1  -1 -11    0.42    1.45
   1  -1 -11   -0.14    2.26
  -1   1  11    1.46    1.52
  -1   1  11    6.08    2.64
  -1   1  11   -1.06    1.02
   0  -1 -11    4.33    1.72
   0  -1 -11    3.76    2.48
   0   1  11    0.36    1.18
   0   1  11    1.74    1.09
   0   1  11    1.60    2.11
   0   1  11    2.93    1.22
  -1  -1 -11    0.51    1.67
  -1  -1 -11    1.12    1.23
  -1  -1 -11    1.30    2.30
   1   1  11    1.59    1.15
   1   1  11   -1.66    2.10
  -2  -1 -11   10.09    2.63
  -2  -1 -11    9.84    2.38
   2   1  11   12.97    2.42
   2   1  11   11.69    1.94
  -3  -1 -11    7.39    2.32
  -3  -1 -11    6.84    2.62
  -3  -1 -11    4.83    1.67
   3   1  11    6.76    1.50
   3   1  11    6.38    1.51
  -4  -1 -11   34.67    4.43
  -4  -1 -11   28.04    4.24
   4   1  11   34.71    3.45
  -5  -1 -11   -1.70    2.28
  -5  -1 -11   -0.02    2.63
   5   1  11    1.34    1.56
  -6  -1 -11    6.85    3.02
  -6  -1 -11    4.02    2.68
   6   1  11    8.17    2.31
  -7  -1 -11    1.79    3.45
  -7  -1 -11    6.03    3.11
   7   1  11    6.59    2.60
   7  -2 -11   -3.37    2.87
   7  -2 -11    1.90    3.41
   6  -2 -11   13.93    3.30
   6  -2 -11    8.58    3.61
   6  -2 -11   14.13    2.11
  -6   2  11   13.04    1.82
   5  -2 -11    5.48    1.87
   5  -2 -11    6.66    2.96
  -5   2  11    4.80    1.12
   4  -2 -11    1.61    1.67
   4  -2 -11   -0.14    2.46
  -4   2  11    1.20    0.95
   3  -2 -11    0.60    2.38
   3  -2 -11    0.63    1.43
   3  -2 -11   -0.08    1.47
  -3   2  11    1.68    3.06
  -3   2  11    0.86    0.97
   2  -2 -11    0.18    2.11
   2  -2 -11    1.88    1.23
  -2   2  11    1.22    0.97
  -2   2  11    0.67    2.70
   1  -2 -11    0.96    1.51
   1  -2 -11    0.09    1.33
   1  -2 -11    0.99    2.14
  -1   2  11    0.91    1.50
  -1   2  11   -1.51    2.39
  -1   2  11   -0.08    1.08
   0  -2 -11    3.96    1.98
   0  -2 -11   -1.05    1.57
   0   2  11   -0.71    0.94
   0   2  11    0.33    2.28
   0   2  11    0.89    1.09
   0   2  11    0.56    1.17
  -1  -2 -11    3.01    1.14
  -1  -2 -11    5.26    2.10
  -1  -2 -11    4.94    1.76
   1   2  11    2.09    2.05
   1   2  11    5.41    1.34
  -2  -2 -11   -3.76    1.66
  -2  -2 -11   -0.92    1.97
  -2  -2 -11    3.07    1.32
   2   2  11    0.77    1.10
  -3  -2 -11    6.63    2.25
  -3  -2 -11    8.39    1.72
  -3  -2 -11   10.51    2.49
   3   2  11    7.58    1.62
   3   2  11    7.34    1.83
  -4  -2 -11   10.34    2.15
  -4  -2 -11   14.22    2.80
  -4  -2 -11    9.44    2.41
   4   2  11   10.65    1.44
   4   2  11   10.84    2.01
   4   2  11   13.25    1.75
  -5  -2 -11    5.05    2.35
  -5  -2 -11    7.89    2.56
   5   2  11    2.84    1.55
  -6  -2 -11    6.34    2.86
  -6  -2 -11    4.12    2.49
   6   2  11    4.18    1.98
  -7  -2 -11    5.80    3.09
  -7  -2 -11   -0.31    2.47
   7   2  11    6.11    2.34
   7  -3 -11    5.04    2.90
   7  -3 -11    1.79    3.08
   6  -3 -11    6.51    2.95
   5  -3 -11    1.16    1.56
   5  -3 -11    1.36    2.58
   4  -3 -11    5.77    1.80
   4  -3 -11    9.70    1.95
   4  -3 -11    4.23    2.52
   3  -3 -11    9.24    2.03
   3  -3 -11   11.33    1.87
   3  -3 -11    7.92    2.67
  -3   3  11   10.75    3.21
   2  -3 -11    3.31    1.41
   2  -3 -11    4.74    2.46
   2  -3 -11    3.86    1.64
  -2   3  11    3.60    2.66
   1  -3 -11    4.21    2.13
  -1   3  11    4.68    2.20
  -1   3  11    2.65    1.54
   0  -3 -11   25.43    3.97
   0  -3 -11   20.11    3.05
   0   3  11   22.00    2.59
   0   3  11   18.84    3.23
  -1  -3 -11   16.84    2.95
  -1  -3 -11   22.31    2.23
  -1  -3 -11   19.37    2.81
   1   3  11   18.45    1.78
   1   3  11   20.30    2.27
   1   3  11   18.95    1.83
   1   3  11   18.58    3.15
  -2  -3 -11    3.56    1.31
  -2  -3 -11    3.64    1.70
  -2  -3 -11    2.44    2.07
   2   3  11    3.61    2.10
   2   3  11    3.71    1.26
  -3  -3 -11    3.48    1.77
  -3  -3 -11    5.80    2.10
  -3  -3 -11    4.06    1.43
   3   3  11    6.67    1.49
   3   3  11    2.06    2.22
  -4  -3 -11   14.03    2.58
  -4  -3 -11   18.05    2.97
  -4  -3 -11   15.60    2.62
   4   3  11   16.56    2.36
   4   3  11   21.58    3.00
   4   3  11   19.60    2.87
  -5  -3 -11    4.15    2.41
  -5  -3 -11    1.70    1.97
  -5  -3 -11    0.30    2.61
   5   3  11   -1.21    1.33
  -6  -3 -11    0.79    2.38
  -6  -3 -11    0.57    2.12
   6   3  11    5.17    1.86
  -7  -3 -11   17.65    3.70
  -7  -3 -11   11.94    2.83
   7   3  11   10.86    2.35
  -8  -3 -11    8.22    2.85
  -8  -3 -11    4.83    3.68
   8   3  11    1.50    2.71
   8   3  11    0.64    2.48
   6  -4 -11    8.45    2.87
   5  -4 -11    0.64    2.34
   5  -4 -11    0.72    1.47
   5  -4 -11    6.17    1.83
   4  -4 -11   -1.31    1.48
   4  -4 -11   -0.68    1.49
   4  -4 -11   -1.34    2.11
   3  -4 -11    2.54    1.62
   3  -4 -11    1.47    2.09
   3  -4 -11    3.33    1.50
  -3   4  11    4.73    2.21
   2  -4 -11   18.09    2.44
   2  -4 -11   16.14    2.07
   2  -4 -11   15.15    2.67
  -2   4  11   12.94    2.59
  -2   4  11   13.86    3.06
   1  -4 -11    0.92    1.52
   1  -4 -11    2.45    1.18
   1  -4 -11    1.45    1.87
  -1   4  11    0.16    1.59
  -1   4  11    6.49    2.60
   0  -4 -11   13.49    2.37
   0  -4 -11   13.11    2.36
   0   4  11    9.21    1.76
   0   4  11   14.43    2.97
  -1  -4 -11    2.70    1.79
  -1  -4 -11    6.94    1.32
  -1  -4 -11    6.14    2.10
   1   4  11    7.72    1.33
   1   4  11    7.13    2.43
   1   4  11    4.68    1.16
  -2  -4 -11   -0.84    1.42
  -2  -4 -11    1.18    1.09
  -2  -4 -11    3.34    2.01
   2   4  11    1.81    2.18
   2   4  11    0.62    1.01
  -3  -4 -11    0.66    1.11
  -3  -4 -11   -1.37    1.65
  -3  -4 -11   -0.65    1.62
   3   4  11    1.30    1.12
   3   4  11    3.35    1.99
  -4  -4 -11   -1.55    1.86
  -4  -4 -11    0.20    1.87
  -4  -4 -11   -0.82    1.14
   4   4  11    2.22    1.25
   4   4  11   -0.42    1.77
  -5  -4 -11   -3.14    1.71
  -5  -4 -11    1.57    1.32
  -5  -4 -11   -2.82    2.13
   5   4  11    1.69    1.55
   5   4  11   -0.86    1.50
   5   4  11    2.17    1.35
  -6  -4 -11    0.05    2.30
  -6  -4 -11    0.72    2.01
   6   4  11   -0.60    1.42
   6   4  11   -0.03    1.60
  -7  -4 -11    1.38    2.51
  -7  -4 -11    2.16    1.89
   7   4  11    0.76    1.86
   7   4  11    2.45    1.93
  -8  -4 -11    2.16    3.40
  -8  -4 -11    3.80    2.25
   8   4  11    2.19    2.71
   8   4  11    1.18    2.36
   6  -5 -11    0.92    3.42
   6  -5 -11    5.69    2.35
  -6   5  11    4.66    4.33
   5  -5 -11   -2.58    1.72
   5  -5 -11    0.78    1.34
  -5   5  11    4.80    3.23
   4  -5 -11   19.27    3.18
   4  -5 -11   19.47    2.89
   4  -5 -11   28.09    3.01
  -4   5  11   20.01    3.69
   3  -5 -11   19.83    2.99
   3  -5 -11   21.18    2.70
   3  -5 -11   19.54    3.20
  -3   5  11   16.73    3.35
   2  -5 -11   -0.06    1.21
   2  -5 -11    2.81    1.94
   2  -5 -11    2.25    1.51
  -2   5  11    0.63    1.89
  -2   5  11    2.65    2.77
   1  -5 -11   13.53    2.18
   1  -5 -11   16.92    2.16
   1  -5 -11    8.70    2.28
  -1   5  11   14.06    2.41
  -1   5  11   14.00    3.34
   0  -5 -11    6.16    3.13
   0  -5 -11    4.45    2.10
   0   5  11    3.24    1.54
   0   5  11    4.67    2.36
  -1  -5 -11    0.80    0.96
  -1  -5 -11    1.61    1.69
  -1  -5 -11    2.31    1.68
   1   5  11    0.85    1.19
   1   5  11    1.60    1.11
   1   5  11    1.42    1.37
   1   5  11   -3.05    2.22
  -2  -5 -11    1.86    1.66
  -2  -5 -11    2.28    1.71
  -2  -5 -11   -1.37    0.83
   2   5  11    0.43    1.02
   2   5  11    2.71    2.02
   2   5  11   -2.87    1.46
   2   5  11    0.11    0.89
  -3  -5 -11   15.60    2.07
  -3  -5 -11   17.67    2.88
  -3  -5 -11   18.79    2.93
   3   5  11   12.02    2.29
   3   5  11   20.54    2.29
   3   5  11   21.74    3.17
  -4  -5 -11   36.28    3.04
  -4  -5 -11   34.30    3.97
  -4  -5 -11   39.84    4.06
   4   5  11   35.30    3.14
   4   5  11   34.35    4.21
   4   5  11   33.62    3.88
  -5  -5 -11    2.36    2.31
  -5  -5 -11    4.85    1.57
   5   5  11    3.30    1.90
   5   5  11    3.16    1.39
   5   5  11    6.68    1.98
  -6  -5 -11   16.63    2.93
   6   5  11   11.85    1.92
   6   5  11    9.25    1.85
   6   5  11    9.88    1.93
   6   5  11   10.28    1.93
  -7  -5 -11   11.94    2.37
  -7  -5 -11    4.54    2.76
   7   5  11    9.62    2.11
   7   5  11   12.82    2.26
  -8  -5 -11    3.17    3.16
  -8  -5 -11    0.51    2.37
   8   5  11    1.28    2.00
   8   5  11    4.83    2.37
   5  -6 -11    1.76    2.17
   5  -6 -11    3.85    1.76
  -5   6  11   -1.18    3.48
   4  -6 -11    1.29    1.46
   4  -6 -11    2.18    1.57
  -4   6  11    8.40    3.09
   3  -6 -11   14.56    2.30
   3  -6 -11   18.53    2.22
  -3   6  11   14.74    3.38
   2  -6 -11    0.01    1.67
   2  -6 -11   -1.08    1.20
  -2   6  11    2.26    3.42
   1  -6 -11    1.40    1.54
   1  -6 -11    1.92    1.16
   1  -6 -11    1.11    1.71
  -1   6  11   -2.29    1.36
  -1   6  11    2.41    1.78
  -1   6  11   -3.63    2.47
   0  -6 -11   17.09    2.86
   0  -6 -11   14.59    2.65
   0   6  11   15.88    2.59
   0   6  11   15.02    2.31
   0   6  11   15.32    3.30
  -1  -6 -11   -1.22    1.52
  -1  -6 -11    2.15    0.86
  -1  -6 -11    0.35    1.61
   1   6  11   -1.56    2.21
   1   6  11    3.62    1.48
   1   6  11   -1.04    1.41
   1   6  11    0.84    1.03
  -2  -6 -11    1.72    0.97
  -2  -6 -11    0.62    1.69
   2   6  11    2.13    1.25
   2   6  11    4.52    1.68
   2   6  11    2.00    2.15
   2   6  11    2.41    1.01
  -3  -6 -11    4.63    1.09
  -3  -6 -11    3.69    2.02
   3   6  11    1.69    2.22
   3   6  11    3.22    1.02
   3   6  11    3.73    1.81
   3   6  11    5.70    1.37
  -4  -6 -11    3.13    1.18
  -4  -6 -11    2.66    1.98
   4   6  11    2.06    1.27
   4   6  11   -2.01    1.73
   4   6  11    2.52    2.11
  -5  -6 -11   -1.01    2.09
  -5  -6 -11    2.64    1.32
   5   6  11    1.34    2.08
   5   6  11   -0.43    1.20
  -6  -6 -11    1.86    2.29
  -6  -6 -11   -2.33    1.35
   6   6  11    2.04    2.03
   6   6  11    2.09    1.47
   6   6  11    0.15    2.02
   6   6  11   -2.16    1.22
  -7  -6 -11   -2.45    1.57
  -7  -6 -11   -0.74    2.47
   7   6  11    0.56    1.55
   7   6  11   -1.63    1.50
   7   6  11    4.86    1.92
  -8  -6 -11   -0.60    2.15
  -8  -6 -11    2.65    2.85
   8   6  11   -4.27    1.78
   8   6  11    2.29    1.93
  -9  -6 -11    1.53    3.55
   9   6  11    6.27    2.85
   5  -7 -11   -3.17    2.37
  -5   7  11   -1.50    4.30
   4  -7 -11   16.15    2.01
  -4   7  11   14.53    4.06
   3  -7 -11    1.00    1.72
  -3   7  11   -5.59    2.55
   2  -7 -11   10.02    1.67
   2  -7 -11    9.11    2.01
  -2   7  11    8.78    2.90
  -2   7  11    7.09    1.93
   1  -7 -11    7.17    1.56
   1  -7 -11    5.09    2.11
  -1   7  11    4.12    1.69
  -1   7  11    1.69    2.27
   0  -7 -11   -0.35    1.63
   0   7  11    0.09    1.90
   0   7  11   -0.46    1.59
   0   7  11    1.40    2.87
  -1  -7 -11    0.45    0.78
  -1  -7 -11    2.62    1.82
   1   7  11    0.31    1.73
   1   7  11    4.85    2.97
   1   7  11   -0.18    1.57
   1   7  11    1.25    1.17
  -2  -7 -11    1.69    1.74
   2   7  11    0.38    1.65
   2   7  11   -0.40    1.41
   2   7  11   -0.27    1.03
   2   7  11   -3.60    2.31
  -3  -7 -11    2.50    0.97
  -3  -7 -11    0.17    1.66
   3   7  11    1.14    1.28
   3   7  11    1.82    1.13
   3   7  11    2.04    1.70
   3   7  11    0.34    2.47
  -4  -7 -11   17.45    2.18
  -4  -7 -11   21.56    3.40
   4   7  11   20.85    2.98
   4   7  11   11.58    2.93
   4   7  11   19.49    2.58
   4   7  11   20.81    2.08
  -5  -7 -11   26.89    3.87
  -5  -7 -11   22.06    2.49
   5   7  11   22.87    2.84
   5   7  11   19.77    4.12
   5   7  11   17.54    3.27
  -6  -7 -11   17.24    3.08
  -6  -7 -11   14.60    2.41
  -6  -7 -11   16.94    2.62
   6   7  11   18.55    3.33
   6   7  11   15.12    3.28
   6   7  11   15.17    2.38
   6   7  11   16.48    2.12
  -7  -7 -11   10.30    2.95
  -7  -7 -11   12.62    2.26
   7   7  11    8.60    2.53
   7   7  11    9.88    2.02
   7   7  11    9.81    2.19
   7   7  11   15.94    2.84
  -8  -7 -11   -1.61    1.93
  -8  -7 -11    3.03    3.00
   8   7  11    1.41    2.02
   8   7  11   -1.94    1.64
  -9  -7 -11   -2.60    3.78
   9   7  11   -1.09    2.55
   9   7  11    0.65    2.72
   4  -8 -11    5.17    2.66
  -4   8  11   11.23    3.84
   3  -8 -11   17.79    2.12
  -3   8  11   19.66    4.07
  -3   8  11   10.72    2.46
   2  -8 -11   -0.27    1.90
   2  -8 -11    4.06    1.36
  -2   8  11    0.22    2.79
  -2   8  11    0.28    1.88
   1  -8 -11    3.24    1.90
  -1   8  11   -3.43    1.62
  -1   8  11    0.94    2.53
   0  -8 -11    4.38    1.87
   0   8  11    0.98    1.86
   0   8  11    0.18    2.04
  -1  -8 -11    5.07    0.98
  -1  -8 -11    7.57    2.07
   1   8  11   10.70    2.13
   1   8  11    4.50    2.99
   1   8  11    5.06    2.12
   1   8  11    4.66    1.45
  -2  -8 -11    9.98    1.32
  -2  -8 -11    4.70    2.08
   2   8  11   12.20    2.38
   2   8  11    9.48    2.99
   2   8  11   14.80    2.48
   2   8  11    8.48    1.74
  -3  -8 -11    2.91    1.00
  -3  -8 -11   -1.14    1.76
   3   8  11   -2.81    2.64
   3   8  11    1.54    1.34
   3   8  11    1.32    1.70
   3   8  11    5.71    1.93
  -4  -8 -11   13.69    2.70
  -4  -8 -11   11.38    1.73
   4   8  11   12.95    2.13
   4   8  11   15.45    2.09
   4   8  11   14.79    3.42
  -5  -8 -11   30.84    3.35
  -5  -8 -11   30.73    4.27
  -5  -8 -11   34.15    3.12
   5   8  11   40.76    5.36
   5   8  11   40.79    5.26
   5   8  11   41.96    3.48
  -6  -8 -11    9.15    1.91
  -6  -8 -11   10.13    1.96
  -6  -8 -11    8.70    2.79
   6   8  11    1.68    2.87
   6   8  11    7.90    2.00
   6   8  11   11.24    3.15
   6   8  11   10.02    1.61
  -7  -8 -11   29.62    3.66
  -7  -8 -11   32.19    4.73
   7   8  11   25.32    3.16
   7   8  11   33.20    5.00
   7   8  11   34.02    6.02
   7   8  11   29.65    3.55
  -8  -8 -11    1.03    2.90
  -8  -8 -11    1.62    2.04
   8   8  11    0.49    1.74
   8   8  11   -1.69    1.86
   8   8  11   -2.13    2.46
  -9  -8 -11   -2.92    5.38
   9   8  11    3.87    2.58
   3  -9 -11   -0.13    2.58
  -3   9  11   -7.67    3.61
  -2   9  11   11.75    4.09
  -2   9  11    8.61    2.39
   1  -9 -11    0.24    2.07
  -1   9  11    4.88    3.04
  -1   9  11    5.00    2.25
   0  -9 -11    5.91    2.19
   0  -9 -11    5.45    1.43
   0   9  11    7.47    2.22
   0   9  11    4.25    2.69
  -1  -9 -11    4.09    0.75
  -1  -9 -11    2.06    2.02
   1   9  11    5.68    2.33
   1   9  11    2.57    1.31
   1   9  11    4.91    3.05
  -2  -9 -11    4.14    0.96
  -2  -9 -11    3.44    2.30
   2   9  11    3.05    2.36
   2   9  11    4.27    1.40
   2   9  11    3.62    2.23
  -3  -9 -11    6.81    2.13
  -3  -9 -11    1.49    1.11
   3   9  11    3.45    2.09
   3   9  11    6.86    3.76
   3   9  11    0.15    3.12
   3   9  11    4.79    1.39
  -4  -9 -11   22.62    2.95
  -4  -9 -11   25.40    2.57
  -4  -9 -11   25.75    3.44
   4   9  11   23.71    3.82
   4   9  11   34.82    4.97
   4   9  11   20.89    2.85
  -5  -9 -11   17.74    2.66
  -5  -9 -11    7.69    1.79
  -5  -9 -11   11.06    2.83
   5   9  11   12.15    3.76
   5   9  11   14.29    3.53
   5   9  11   13.31    2.26
   5   9  11   10.03    1.87
  -6  -9 -11   -0.87    1.56
  -6  -9 -11    0.24    2.32
  -6  -9 -11   -0.27    1.57
   6   9  11   -6.67    3.06
   6   9  11   -1.12    1.48
   6   9  11   -0.16    1.49
   6   9  11    5.80    2.94
  -7  -9 -11    5.60    1.90
  -7  -9 -11    3.47    2.91
   7   9  11    5.21    3.40
   7   9  11    5.66    2.05
   7   9  11   -0.68    2.88
   7   9  11    0.97    1.83
  -8  -9 -11    2.34    3.45
  -8  -9 -11   -4.73    2.06
   8   9  11   -2.62    2.06
   8   9  11    0.74    2.16
   8   9  11   -1.95    3.00
   2 -10 -11   10.44    3.09
  -2  10  11   11.69    4.23
  -1  10  11    4.40    3.50
   0 -10 -11    3.28    1.45
   0 -10 -11    1.16    2.25
   0  10  11    3.61    1.63
   0  10  11    2.06    2.61
   0  10  11   -0.17    3.22
  -1 -10 -11    1.81    1.45
  -1 -10 -11    2.63    2.19
   1  10  11    8.55    2.84
   1  10  11    0.00    2.96
   1  10  11    3.50    1.56
  -2 -10 -11    4.97    2.34
  -2 -10 -11    3.06    0.96
   2  10  11    3.14    1.43
   2  10  11    4.35    2.83
  -3 -10 -11   -0.29    1.28
  -3 -10 -11   -0.16    0.99
  -3 -10 -11    5.78    2.21
   3  10  11    2.39    2.59
   3  10  11    0.39    1.40
  -4 -10 -11    0.85    1.47
  -4 -10 -11    0.84    1.27
  -4 -10 -11    3.93    2.21
   4  10  11    3.14    1.58
   4  10  11    5.13    2.65
  -5 -10 -11   11.35    2.00
  -5 -10 -11   15.87    3.24
  -5 -10 -11   11.49    1.89
   5  10  11   12.16    2.70
   5  10  11   12.42    2.10
   5  10  11   10.50    3.84
  -6 -10 -11    5.75    1.67
  -6 -10 -11    4.77    1.76
   6  10  11    1.20    1.61
   6  10  11    7.68    2.33
   6  10  11    4.28    1.76
   6  10  11   -0.26    3.26
   6  10  11   11.89    4.33
  -7 -10 -11   22.77    3.10
  -7 -10 -11   20.27    4.28
   7  10  11   31.47    3.81
   7  10  11   26.12    4.65
   7  10  11   19.69    2.87
   7  10  11   24.52    4.87
  -8 -10 -11   -6.23    3.92
  -8 -10 -11   -1.88    2.11
   8  10  11    3.12    2.89
   8  10  11   -0.76    3.61
   8  10  11    1.13    2.12
   1 -11 -11    7.39    3.79
  -1  11  11   15.54    4.86
   0 -11 -11   -0.95    2.73
   0  11  11   -3.02    1.70
   0  11  11    1.06    3.73
  -1 -11 -11    7.08    1.54
   1  11  11    0.99    3.44
   1  11  11    2.63    1.78
  -2 -11 -11    3.10    2.46
  -2 -11 -11    9.33    1.74
   2  11  11    3.87    3.45
   2  11  11    5.52    1.80
  -3 -11 -11    0.09    2.56
  -3 -11 -11   -0.94    1.50
   3  11  11    1.15    3.07
   3  11  11   -0.04    1.55
  -4 -11 -11    8.46    1.91
  -4 -11 -11    8.39    2.97
   4  11  11    7.85    4.24
   4  11  11    4.91    3.42
   4  11  11    6.84    1.93
  -5 -11 -11    3.09    2.47
  -5 -11 -11    5.85    1.65
  -5 -11 -11    1.78    1.71
   5  11  11    4.46    3.90
   5  11  11    0.27    1.74
   5  11  11    0.71    3.37
   5  11  11   -5.04    2.74
  -6 -11 -11   -1.07    2.98
  -6 -11 -11    0.37    1.69
  -6 -11 -11    0.06    1.96
   6  11  11   -1.00    2.73
   6  11  11   -3.18    1.80
   6  11  11    0.89    1.96
   6  11  11   -0.72    3.82
  -7 -11 -11   -1.23    2.04
  -7 -11 -11    3.73    3.95
   7  11  11   -3.16    4.11
   7  11  11    2.91    2.14
   7  11  11   -2.40    2.15
   2  12  11    0.88    4.22
   2  12  11   16.82    2.52
  -3 -12 -11    4.68    1.73
   3  12  11    9.68    2.14
   3  12  11    8.92    4.06
  -4 -12 -11    9.11    1.97
   4  12  11    9.87    4.08
   4  12  11    7.88    4.92
   4  12  11    9.47    2.23
  -5 -12 -11    6.52    3.25
  -5 -12 -11    8.65    2.12
   5  12  11    8.98    3.81
   5  12  11   16.39    4.65
   5  12  11    6.95    2.25
   3   2 -12   -1.17    2.95
   3   2 -12    3.79    3.91
  -3  -2  12   -1.08    1.86
  -3  -2  12    2.33    2.19
   2   2 -12   10.69    4.32
   2   2 -12    7.16    3.32
  -2  -2  12    5.40    2.11
  -2  -2  12    9.02    2.52
   1   2 -12   10.07    3.46
   1   2 -12   16.82    4.52
  -1  -2  12   16.38    2.88
  -1  -2  12   19.39    2.60
   0   2 -12   14.06    4.33
   0  -2  12    3.32    2.47
   0  -2  12    8.88    2.25
  -1   2 -12    1.34    3.66
  -1   2 -12   10.22    3.85
   1  -2  12   -0.19    1.87
   1  -2  12    1.28    2.53
   4   1 -12    2.84    3.93
   4   1 -12    1.64    2.68
  -4  -1  12   -0.61    1.71
   3   1 -12    0.04    2.48
   3   1 -12    6.64    3.59
  -3  -1  12    7.59    2.13
   2   1 -12   16.05    3.28
   2   1 -12   13.11    4.21
  -2  -1  12   20.02    3.12
  -2  -1  12   12.69    4.55
   1   1 -12    7.13    3.66
   1   1 -12    1.28    2.46
  -1  -1  12   11.46    2.15
  -1  -1  12    3.07    3.82
  -1  -1  12   12.54    2.26
   0   1 -12    8.44    3.06
   0   1 -12    9.47    3.67
   0  -1  12   11.21    2.32
   0  -1  12    8.33    2.01
  -1   1 -12    3.69    2.55
  -1   1 -12    8.85    3.55
   1  -1  12    7.56    2.41
   1  -1  12    4.97    1.98
  -2   1 -12   -4.01    2.76
  -2   1 -12   -0.21    3.19
   2  -1  12   -1.78    1.77
  -3   1 -12   -3.00    3.48
   3  -1  12   -5.05    2.06
   5   0 -12    3.66    3.94
   5   0 -12   -1.85    2.56
  -5   0  12    0.34    1.75
   4   0 -12    2.24    3.98
   4   0 -12    3.10    2.60
  -4   0  12    5.17    1.86
  -4   0  12    7.20    3.59
   3   0 -12    1.60    2.34
   3   0 -12   -5.37    2.95
  -3   0  12   -0.57    3.04
  -3   0  12   -0.53    1.62
   2   0 -12   15.15    3.56
   2   0 -12   14.63    2.94
  -2   0  12   29.15    4.65
  -2   0  12   22.56    3.07
  -2   0  12   22.19    3.33
   1   0 -12    6.17    2.44
   1   0 -12   10.70    3.31
  -1   0  12    6.23    1.98
  -1   0  12    6.45    1.82
  -1   0  12    0.55    3.50
   0   0 -12    2.13    2.15
   0   0 -12    3.39    3.12
   0   0  12    3.79    3.11
   0   0  12    2.53    1.48
  -1   0 -12    4.39    2.49
  -1   0 -12   -1.35    2.83
   1   0  12    7.58    2.78
   1   0  12    2.76    1.63
  -2   0 -12    0.58    2.90
  -2   0 -12    1.31    2.52
   2   0  12    1.81    1.85
  -3   0 -12   15.62    3.41
  -3   0 -12    7.30    3.68
   3   0  12   15.72    2.46
  -4   0 -12    4.72    3.48
  -4   0 -12    0.41    3.15
   4   0  12   -0.29    1.90
   5  -1 -12   -4.92    2.27
   5  -1 -12    6.86    3.47
  -5   1  12    1.46    1.61
   4  -1 -12    4.88    2.43
   4  -1 -12    8.63    3.67
  -4   1  12   -1.71    3.43
   3  -1 -12   -2.45    2.28
   3  -1 -12   -0.97    2.91
  -3   1  12    0.75    1.39
  -3   1  12    3.24    2.94
   2  -1 -12    1.04    2.04
   2  -1 -12    2.14    3.26
  -2   1  12   -4.03    3.40
  -2   1  12    1.19    2.40
  -2   1  12    4.07    1.50
   1  -1 -12   -0.67    2.05
   1  -1 -12   -1.72    2.54
  -1   1  12    1.62    1.74
  -1   1  12    1.02    3.33
  -1   1  12   -0.86    1.32
  -1   1  12    1.24    1.39
   0  -1 -12   11.27    3.32
   0  -1 -12   20.01    3.10
   0   1  12   17.95    2.26
   0   1  12   15.88    2.59
   0   1  12   16.16    3.68
   0   1  12   17.51    2.30
   0   1  12   11.08    1.81
  -1  -1 -12   38.34    5.37
  -1  -1 -12   25.49    4.13
   1   1  12   26.99    3.88
   1   1  12   20.37    2.85
  -2  -1 -12   57.89    6.03
  -2  -1 -12   45.19    5.19
   2   1  12   49.68    5.04
   2   1  12   47.01    4.07
  -3  -1 -12    7.70    2.84
  -3  -1 -12    9.42    3.35
   3   1  12    3.57    1.77
  -4  -1 -12   -6.12    2.69
  -4  -1 -12    0.65    3.10
   4   1  12   -1.19    1.87
  -5  -1 -12    4.93    3.59
  -5  -1 -12   -1.97    3.07
   5  -2 -12    0.48    3.30
   5  -2 -12    3.66    2.65
  -5   2  12    1.28    1.27
   4  -2 -12   -1.85    3.08
   4  -2 -12   -1.04    2.10
  -4   2  12    0.47    1.26
   3  -2 -12   -3.56    2.01
   3  -2 -12    2.35    2.76
  -3   2  12    0.04    1.26
   2  -2 -12    3.11    1.99
   2  -2 -12   -2.01    2.56
  -2   2  12   -1.59    4.22
  -2   2  12   -0.63    2.30
  -2   2  12   -1.87    1.18
   1  -2 -12    0.16    2.34
   1  -2 -12   -0.53    2.02
  -1   2  12    1.10    1.79
  -1   2  12   -0.38    1.74
  -1   2  12    5.19    3.24
   0  -2 -12   -1.08    2.35
   0  -2 -12    4.24    2.27
   0   2  12    0.61    1.36
   0   2  12    2.91    2.89
   0   2  12    1.44    1.37
   0   2  12    1.47    1.34
  -1  -2 -12    2.49    1.42
  -1  -2 -12    1.44    2.67
  -1  -2 -12    3.73    2.17
   1   2  12    0.43    1.23
   1   2  12   -3.15    2.45
  -2  -2 -12   -0.10    1.62
  -2  -2 -12    1.64    2.21
  -2  -2 -12    7.36    3.00
   2   2  12    3.90    1.46
   2   2  12   -2.49    2.48
  -3  -2 -12    6.55    3.05
  -3  -2 -12    8.99    2.52
   3   2  12    2.67    2.06
   3   2  12    5.55    1.72
  -4  -2 -12   -5.17    2.71
  -4  -2 -12    0.47    2.62
   4   2  12    3.35    1.73
  -5  -2 -12    3.40    3.02
  -5  -2 -12   -2.62    2.90
   5   2  12    1.68    1.88
  -6  -2 -12   -2.86    2.99
  -6  -2 -12    5.13    3.71
   6   2  12    2.48    2.42
   5  -3 -12   12.40    3.36
   5  -3 -12    5.93    2.13
   4  -3 -12   20.53    3.81
   4  -3 -12   17.44    3.38
   3  -3 -12    3.50    2.11
   3  -3 -12    4.16    3.09
   2  -3 -12    4.50    2.93
   2  -3 -12    7.06    2.22
  -2   3  12    8.89    2.43
   1  -3 -12    4.58    2.07
   1  -3 -12    1.95    2.52
  -1   3  12    1.52    1.87
  -1   3  12    6.22    3.12
   0  -3 -12    1.40    1.99
   0  -3 -12    2.24    2.32
   0   3  12    0.48    1.43
   0   3  12   -0.52    1.33
   0   3  12    3.07    1.47
   0   3  12    4.86    3.21
  -1  -3 -12   20.83    2.62
  -1  -3 -12   29.64    3.91
  -1  -3 -12   20.16    3.63
   1   3  12   22.63    3.74
   1   3  12   25.19    2.90
  -2  -3 -12   10.89    2.95
  -2  -3 -12    7.36    2.52
  -2  -3 -12    7.09    1.61
   2   3  12    3.17    1.47
   2   3  12    9.05    2.90
  -3  -3 -12    6.90    2.83
  -3  -3 -12    7.30    2.75
  -3  -3 -12    5.74    1.81
   3   3  12    2.01    2.27
   3   3  12    3.47    1.59
  -4  -3 -12   18.35    3.40
  -4  -3 -12   11.50    3.16
   4   3  12   14.44    2.23
   4   3  12    9.87    2.15
   4   3  12   12.49    2.37
  -5  -3 -12    6.88    2.93
  -5  -3 -12   13.66    3.18
   5   3  12   15.18    2.59
  -6  -3 -12    3.02    2.81
  -6  -3 -12    0.06    3.39
   6   3  12    4.79    2.28
   5  -4 -12    0.78    2.98
  -5   4  12    2.83    3.74
   4  -4 -12    0.81    2.71
  -4   4  12    1.85    2.99
   3  -4 -12   -1.65    2.39
  -3   4  12    1.34    2.78
   2  -4 -12    0.08    1.92
   2  -4 -12   -3.09    2.37
  -2   4  12    2.08    2.40
   1  -4 -12    3.00    1.84
   1  -4 -12    5.09    2.28
   1  -4 -12    3.88    2.07
  -1   4  12    2.22    1.95
  -1   4  12   -2.63    2.94
   0  -4 -12    3.78    2.01
   0  -4 -12    9.05    2.72
   0   4  12    5.10    1.72
   0   4  12    3.42    1.46
   0   4  12    2.58    3.06
  -1  -4 -12    0.17    1.93
  -1  -4 -12    2.15    2.36
  -1  -4 -12   -0.29    1.10
   1   4  12    0.61    2.46
   1   4  12    1.33    1.06
   1   4  12    0.88    1.10
   1   4  12    0.03    1.22
  -2  -4 -12    0.47    2.05
  -2  -4 -12   -0.99    2.26
  -2  -4 -12   -0.40    1.38
   2   4  12   -2.01    2.50
   2   4  12    0.24    1.28
  -3  -4 -12    0.78    2.39
  -3  -4 -12    1.72    1.51
  -3  -4 -12   -0.62    2.14
   3   4  12   -0.38    1.43
   3   4  12   -2.53    2.44
  -4  -4 -12    0.42    1.65
  -4  -4 -12   -1.75    2.16
  -4  -4 -12   -2.14    2.36
   4   4  12   -1.00    1.32
  -5  -4 -12    0.31    2.29
  -5  -4 -12    1.04    2.66
   5   4  12    5.30    1.92
   5   4  12    0.04    1.73
  -6  -4 -12    3.94    2.90
  -6  -4 -12    5.07    2.66
   6   4  12    2.67    2.00
  -7  -4 -12    0.71    3.56
   7   4  12    0.25    2.28
   5  -5 -12    5.23    3.14
  -5   5  12    2.07    4.05
   4  -5 -12    8.95    2.30
   4  -5 -12   15.65    3.46
  -4   5  12   11.42    3.95
   3  -5 -12    3.89    2.48
   3  -5 -12    8.37    2.29
   3  -5 -12    2.75    2.16
  -3   5  12   12.00    3.23
   2  -5 -12    5.65    2.24
   2  -5 -12    5.67    2.41
   2  -5 -12    4.65    1.85
  -2   5  12    4.13    2.57
   1  -5 -12    2.91    1.65
   1  -5 -12    0.60    1.87
   1  -5 -12    2.10    2.45
  -1   5  12   -1.87    1.96
   0  -5 -12   -0.16    1.77
   0  -5 -12   -1.47    1.93
   0   5  12    0.37    1.19
   0   5  12   -2.82    1.58
  -1  -5 -12   47.55    5.05
  -1  -5 -12   50.54    4.75
  -1  -5 -12   52.07    3.47
   1   5  12   45.42    3.76
   1   5  12   52.69    5.82
   1   5  12   49.05    3.76
  -2  -5 -12    1.83    1.28
  -2  -5 -12    4.53    1.89
  -2  -5 -12   -0.29    2.00
   2   5  12   -1.86    2.50
   2   5  12    1.55    1.24
  -3  -5 -12    6.71    2.51
  -3  -5 -12    7.10    2.46
  -3  -5 -12    6.56    1.64
   3   5  12    7.03    2.79
   3   5  12    7.13    1.89
  -4  -5 -12   14.19    2.21
  -4  -5 -12   15.41    3.18
  -4  -5 -12   14.32    2.93
   4   5  12   17.37    2.72
   4   5  12   12.03    3.13
  -5  -5 -12   11.30    2.99
   5   5  12    8.19    2.49
   5   5  12    9.81    2.15
   5   5  12   10.12    2.56
  -6  -5 -12    0.38    3.00
   6   5  12    3.03    1.79
  -7  -5 -12    6.84    2.47
  -7  -5 -12    8.05    3.74
   7   5  12   11.63    2.52
   4  -6 -12   10.73    2.85
   4  -6 -12    9.41    2.12
  -4   6  12    9.78    3.94
   3  -6 -12    2.01    2.00
   3  -6 -12    0.77    1.97
  -3   6  12    2.70    3.15
   2  -6 -12    2.14    1.69
   2  -6 -12    1.48    2.10
  -2   6  12   -4.10    2.42
   1  -6 -12   -1.48    1.97
   1  -6 -12   -0.64    1.85
   1  -6 -12    2.20    1.61
  -1   6  12   -0.96    2.10
   0  -6 -12   10.64    2.41
   0  -6 -12    6.72    2.50
   0   6  12    8.36    2.28
  -1  -6 -12   10.03    2.64
  -1  -6 -12   13.57    2.67
  -1  -6 -12   11.30    1.84
   1   6  12    9.53    2.01
   1   6  12    6.27    2.34
   1   6  12   12.79    2.29
   1   6  12    8.80    3.24
  -2  -6 -12    8.01    2.40
  -2  -6 -12    7.40    2.33
  -2  -6 -12    8.59    1.55
   2   6  12    3.68    2.98
   2   6  12    8.96    1.82
   2   6  12   10.46    2.43
   2   6  12    7.73    1.60
  -3  -6 -12    3.44    1.42
  -3  -6 -12    4.32    2.36
   3   6  12    3.19    2.91
   3   6  12    3.14    1.46
  -4  -6 -12    0.19    1.39
  -4  -6 -12    1.92    2.40
   4   6  12    5.08    2.86
   4   6  12    2.23    1.46
  -5  -6 -12   -1.84    1.52
  -5  -6 -12    2.87    2.58
   5   6  12   -0.54    1.59
   5   6  12   -3.14    2.48
   5   6  12   -1.60    2.52
  -6  -6 -12    0.26    2.88
   6   6  12    2.46    2.40
   6   6  12    1.01    1.83
  -7  -6 -12   -0.03    2.33
   7   6  12    1.36    2.04
  -4   7  12    4.04    3.90
   3  -7 -12    7.66    2.46
   3  -7 -12    6.33    2.02
  -3   7  12    2.11    3.35
   2  -7 -12    3.94    2.18
   2  -7 -12    7.71    1.93
  -2   7  12    4.20    2.76
   1  -7 -12   -0.45    1.59
   1  -7 -12   -2.28    1.94
  -1   7  12   -2.09    2.70
  -1   7  12   -0.60    1.97
   0  -7 -12    0.78    1.93
   0   7  12   -1.23    2.00
   0   7  12    0.20    2.16
  -1  -7 -12   -0.96    1.97
  -1  -7 -12    0.42    0.96
   1   7  12   -2.21    1.93
   1   7  12   -0.18    1.40
   1   7  12    0.34    1.92
  -2  -7 -12    1.36    1.18
  -2  -7 -12    0.23    1.96
   2   7  12    2.66    1.45
   2   7  12   -3.20    2.13
   2   7  12    0.40    1.67
   2   7  12   -0.64    2.97
  -3  -7 -12   -1.76    1.86
  -3  -7 -12   -0.87    1.20
   3   7  12    8.29    3.01
   3   7  12    2.62    1.38
   3   7  12   -0.01    1.31
  -4  -7 -12   -0.67    2.21
  -4  -7 -12    4.71    1.48
   4   7  12    3.14    1.66
   4   7  12    0.30    2.99
  -5  -7 -12    0.77    1.60
  -5  -7 -12    0.13    2.51
   5   7  12    3.00    2.92
   5   7  12    1.71    1.81
   5   7  12    0.27    2.77
  -6  -7 -12   -1.23    2.67
  -6  -7 -12   -0.32    1.87
   6   7  12   -0.09    1.71
   6   7  12    1.52    2.96
   6   7  12    1.48    4.38
  -7  -7 -12   15.97    2.82
  -7  -7 -12   17.50    3.69
   7   7  12    8.64    2.42
  -3   8  12   -1.60    3.76
   2  -8 -12    8.98    2.56
   2  -8 -12   11.06    2.10
  -2   8  12   16.49    4.04
   1  -8 -12    1.78    2.39
   1  -8 -12    3.47    1.72
  -1   8  12   -1.69    2.22
  -1   8  12    0.36    2.88
   0  -8 -12    1.78    2.25
   0   8  12    4.99    2.37
  -1  -8 -12    7.76    1.10
  -1  -8 -12    3.93    2.26
   1   8  12    4.93    1.73
   1   8  12    6.24    2.50
   1   8  12    9.38    2.57
  -2  -8 -12    2.90    2.40
  -2  -8 -12    9.24    1.39
   2   8  12    8.23    1.72
   2   8  12   10.20    2.51
  -3  -8 -12   10.22    1.65
  -3  -8 -12   10.02    2.59
   3   8  12   10.03    2.22
   3   8  12   11.86    1.99
   3   8  12    2.89    3.39
  -4  -8 -12   17.88    3.05
  -4  -8 -12   17.11    2.52
   4   8  12   17.80    3.88
   4   8  12   14.15    2.22
  -5  -8 -12    7.57    1.98
  -5  -8 -12    9.77    2.16
  -5  -8 -12    8.25    3.03
   5   8  12    7.32    3.48
   5   8  12   12.11    2.29
   5   8  12    9.52    3.56
  -6  -8 -12   -0.33    1.95
  -6  -8 -12    4.78    3.24
   6   8  12    0.24    3.22
   6   8  12    2.84    2.09
   6   8  12    4.08    3.25
  -7  -8 -12   -0.36    2.25
  -7  -8 -12   -3.38    3.11
   7   8  12    1.09    2.27
   7   8  12    4.41    3.89
   2  -9 -12    4.97    2.41
  -2   9  12   -2.39    3.87
   1  -9 -12    1.74    2.54
  -1   9  12    9.07    2.83
  -1   9  12    2.06    3.33
   0  -9 -12    5.42    2.48
   0  -9 -12    3.76    1.65
   0   9  12    6.61    2.58
   0   9  12    0.03    1.64
   0   9  12    2.28    2.99
  -1  -9 -12    0.31    2.41
   1   9  12    0.16    3.10
   1   9  12    1.64    1.48
  -2  -9 -12   -0.98    2.41
   2   9  12    3.99    2.60
   2   9  12    4.43    1.58
  -3  -9 -12    1.16    2.25
  -3  -9 -12    4.15    1.28
   3   9  12    5.61    2.34
   3   9  12    4.97    1.60
  -4  -9 -12    0.84    1.51
  -4  -9 -12    0.64    1.38
  -4  -9 -12    4.96    2.60
   4   9  12    3.64    2.04
  -5  -9 -12   -1.97    1.63
  -5  -9 -12   -0.27    1.85
  -5  -9 -12    0.86    2.65
   5   9  12   -0.83    4.02
   5   9  12    5.96    3.25
   5   9  12    2.49    1.82
  -6  -9 -12    1.61    1.94
  -6  -9 -12    0.58    2.89
   6   9  12    3.89    3.62
   6   9  12   -0.19    2.01
   6   9  12   -7.83    3.52
  -7  -9 -12   10.04    2.53
  -7  -9 -12    3.49    3.56
   7   9  12    7.88    2.20
   7   9  12   -2.60    3.61
  -1  10  12    5.19    4.08
   0 -10 -12    0.26    2.71
   0  10  12    1.65    3.39
   0  10  12   -0.27    1.87
  -1 -10 -12   -2.20    2.46
   1  10  12   -3.47    3.02
   1  10  12    1.12    1.68
  -2 -10 -12    1.71    2.73
  -2 -10 -12    1.01    1.63
   2  10  12    1.83    1.62
   2  10  12   -0.91    3.01
  -3 -10 -12   -0.83    1.73
  -3 -10 -12    8.99    2.79
   3  10  12    0.97    1.74
   3  10  12    4.26    2.96
  -4 -10 -12    0.50    1.74
  -4 -10 -12   -1.42    2.70
   4  10  12    1.35    2.52
   4  10  12    2.23    1.76
  -5 -10 -12    8.41    3.05
  -5 -10 -12    4.52    2.03
  -5 -10 -12    5.34    2.07
   5  10  12    8.18    3.80
   5  10  12    5.84    2.02
  -6 -10 -12    6.94    3.39
  -6 -10 -12   10.19    2.55
   6  10  12    7.04    2.21
   6  10  12    9.03    4.20
  -1 -11 -12    2.91    2.82
  -1 -11 -12    1.14    1.97
   1  11  12   -2.01    3.90
   1  11  12    0.41    2.02
  -2 -11 -12   10.42    2.14
  -2 -11 -12    8.73    3.34
   2  11  12   11.65    2.36
   2  11  12    8.83    4.04
  -3 -11 -12    5.98    3.08
  -3 -11 -12   10.17    2.21
   3  11  12   14.40    3.89
   3  11  12   13.18    2.47
  -4 -11 -12    0.61    3.19
  -4 -11 -12    3.32    1.99
   4  11  12    2.98    4.40
   4  11  12   -2.90    1.81
   4  11  12    2.61    3.08
  -5 -11 -12    1.28    3.23
  -5 -11 -12    4.60    2.10
   5  11  12   -0.35    4.66
   5  11  12    4.03    2.16
   2   0 -13    2.00    3.04
   2   0 -13    0.43    4.69
  -2   0  13    0.19    1.90
   1   0 -13    1.18    4.14
   1   0 -13    0.78    3.10
  -1   0  13   -1.27    1.86
  -1   0  13    3.87    2.24
   0   0 -13    3.64    3.29
   0   0 -13   -2.90    4.16
   0   0  13   -1.28    2.01
   0   0  13   -0.77    2.09
  -1   0 -13    8.83    4.37
  -1   0 -13    5.82    3.38
   1   0  13    4.67    2.17
   3  -1 -13    1.34    2.82
   3  -1 -13    9.70    5.13
  -3   1  13    3.00    1.85
   2  -1 -13    1.86    3.11
   2  -1 -13   -0.85    3.58
  -2   1  13    0.03    1.95
  -2   1  13    2.02    2.11
   1  -1 -13    5.25    4.11
   1  -1 -13   -4.81    2.63
  -1   1  13   -0.59    1.77
   0  -1 -13   17.91    3.89
   0  -1 -13   28.16    5.06
   0   1  13   23.10    4.64
   0   1  13   26.49    3.47
  -1  -1 -13   22.97    3.88
  -1  -1 -13   22.57    4.63
   1   1  13   23.88    3.55
  -2  -1 -13    5.32    3.58
  -2  -1 -13    0.79    3.05
   2   1  13    4.10    2.17
  -3  -1 -13   -0.05    3.79
   3   1  13    2.90    2.17
   3  -2 -13    2.52    4.20
   3  -2 -13    7.26    2.94
   2  -2 -13   -0.47    2.65
   2  -2 -13   -3.61    3.53
  -2   2  13    5.89    2.68
   1  -2 -13   -4.24    3.19
   1  -2 -13    3.49    2.67
  -1   2  13   -1.04    1.59
  -1   2  13   -0.87    2.61
   0  -2 -13   -0.97    2.60
   0   2  13   -2.92    1.61
   0   2  13    2.61    3.80
  -1  -2 -13    2.02    2.87
  -1  -2 -13    3.27    3.35
   1   2  13    5.62    3.55
   1   2  13    2.30    2.02
  -2  -2 -13   -1.49    3.99
  -2  -2 -13    0.70    3.30
   2   2  13    3.02    1.95
  -3  -2 -13    5.12    3.60
  -3  -2 -13    2.57    3.50
   3   2  13   -1.07    1.93
  -4  -2 -13    4.22    5.17
  -4  -2 -13   -2.99    3.30
   4   2  13    3.18    2.27
   4  -3 -13    2.09    2.62
   4  -3 -13    5.09    4.40
   3  -3 -13    3.78    2.76
   3  -3 -13   -1.24    3.60
  -3   3  13    7.66    3.19
   2  -3 -13    1.64    2.61
   2  -3 -13   -4.26    3.19
  -2   3  13   -4.61    2.60
   1  -3 -13   -0.70    3.31
   1  -3 -13    1.21    2.46
  -1   3  13    2.51    2.14
  -1   3  13   -3.28    1.63
   0  -3 -13    4.82    2.61
   0  -3 -13    0.36    3.03
   0   3  13    0.84    1.47
   0   3  13   -6.37    3.70
  -1  -3 -13   20.86    3.55
  -1  -3 -13   22.84    4.15
   1   3  13   18.69    3.03
   1   3  13   24.61    4.32
  -2  -3 -13    5.47    3.27
  -2  -3 -13    2.78    2.76
   2   3  13   -1.96    3.02
   2   3  13    6.29    1.96
  -3  -3 -13    9.52    3.20
  -3  -3 -13    5.37    2.96
   3   3  13    1.88    1.96
  -4  -3 -13    0.03    3.19
  -4  -3 -13    2.79    3.31
   4   3  13    6.24    2.18
  -5  -3 -13    3.47    3.67
   5   3  13    5.70    3.81
   4  -4 -13   -0.40    2.51
   4  -4 -13    1.14    3.49
  -4   4  13    6.27    3.85
   3  -4 -13    0.62    2.58
   3  -4 -13    7.29    3.35
  -3   4  13    0.19    3.47
   2  -4 -13   -1.47    2.42
   2  -4 -13   -0.13    2.95
  -2   4  13    1.27    2.79
   1  -4 -13    4.96    2.56
   1  -4 -13    7.60    3.17
  -1   4  13    2.60    2.30
   0  -4 -13    6.15    3.16
   0  -4 -13    6.16    2.78
  -1  -4 -13    9.55    2.94
  -1  -4 -13    3.62    2.75
   1   4  13    9.96    1.94
   1   4  13    9.85    3.90
  -2  -4 -13    4.32    1.78
  -2  -4 -13    9.26    3.13
  -2  -4 -13    0.96    2.67
   2   4  13    8.58    3.70
   2   4  13    3.65    1.82
  -3  -4 -13    2.24    2.78
  -3  -4 -13   -3.01    2.61
   3   4  13   -2.04    1.77
   3   4  13   10.12    3.41
  -4  -4 -13    0.62    2.93
   4   4  13    5.16    2.70
   4   4  13   -0.63    1.83
  -5  -4 -13    1.62    2.91
  -5  -4 -13    6.89    3.74
   5   4  13    0.72    2.18
   3  -5 -13    9.42    2.72
   3  -5 -13    0.77    2.98
  -3   5  13    9.55    3.80
   2  -5 -13    1.13    2.98
   2  -5 -13    0.44    2.49
  -2   5  13    1.66    2.91
   1  -5 -13   -4.31    2.27
   1  -5 -13    0.47    2.72
  -1   5  13    4.58    2.35
   0  -5 -13    9.29    3.09
   0  -5 -13    4.77    2.46
   0   5  13    8.35    2.24
   0   5  13    6.14    1.86
  -1  -5 -13   18.68    3.39
  -1  -5 -13   20.08    2.54
  -1  -5 -13   16.48    3.22
   1   5  13   12.87    4.25
   1   5  13   12.59    2.26
  -2  -5 -13    5.87    2.99
  -2  -5 -13    7.23    1.92
  -2  -5 -13    8.11    2.93
   2   5  13    3.55    2.01
   2   5  13    2.17    3.71
  -3  -5 -13    2.76    2.02
  -3  -5 -13    6.27    2.85
  -3  -5 -13    0.63    2.76
   3   5  13    4.77    2.05
   3   5  13    5.61    3.42
  -4  -5 -13    5.47    3.36
  -4  -5 -13    2.46    2.59
   4   5  13    7.54    1.99
  -5  -5 -13   13.82    3.90
   5   5  13   11.58    2.44
   3  -6 -13    0.70    2.46
  -3   6  13    0.08    3.53
   2  -6 -13    6.36    2.79
   2  -6 -13   -1.02    2.84
  -2   6  13    3.32    3.19
   1  -6 -13   19.28    3.45
   1  -6 -13   13.40    2.91
  -1   6  13   12.40    3.26
   0  -6 -13    9.77    2.97
   0  -6 -13    8.91    2.70
   0   6  13    4.52    1.86
   0   6  13    6.02    2.42
  -1  -6 -13    8.90    2.88
  -1  -6 -13   14.36    2.32
  -1  -6 -13   14.34    3.21
   1   6  13    8.04    2.13
   1   6  13    9.43    2.23
  -2  -6 -13    1.09    2.86
  -2  -6 -13   -0.48    2.57
  -2  -6 -13    4.94    1.64
   2   6  13    1.76    1.67
   2   6  13    3.14    3.75
  -3  -6 -13    0.81    1.86
  -3  -6 -13    2.01    2.67
   3   6  13    6.92    3.65
   3   6  13    3.18    1.97
  -4  -6 -13    4.06    2.05
  -4  -6 -13    3.61    2.72
   4   6  13    3.04    3.30
   4   6  13    5.14    1.89
  -5  -6 -13    5.87    3.38
   5   6  13    0.65    2.06
   6   6  13    6.10    3.82
   2  -7 -13    2.18    2.79
  -2   7  13   -4.53    3.27
   1  -7 -13   20.58    3.40
  -1   7  13   17.23    3.87
   0  -7 -13   14.42    3.09
   0   7  13   13.07    3.01
   0   7  13    9.12    2.27
  -1  -7 -13   -0.84    2.33
   1   7  13   -2.81    1.44
   1   7  13    0.04    2.03
  -2  -7 -13    1.23    1.48
  -2  -7 -13    2.76    2.73
   2   7  13   -0.14    2.33
   2   7  13    1.90    1.69
  -3  -7 -13    3.85    1.73
  -3  -7 -13    7.75    2.95
   3   7  13    5.51    1.92
  -4  -7 -13    0.87    1.83
  -4  -7 -13   -0.28    2.78
   4   7  13    1.89    3.86
   4   7  13    3.56    1.83
  -5  -7 -13   29.16    4.46
   5   7  13   25.20    4.67
   5   7  13   35.45    4.08
  -6  -7 -13   28.77    4.26
  -6  -7 -13   33.61    7.64
   6   7  13   16.09    3.30
   6   7  13   23.68    5.79
   1  -8 -13   13.34    3.31
  -1   8  13   14.44    3.80
   0  -8 -13    7.97    2.77
   0   8  13    1.90    1.98
   0   8  13    1.50    2.98
  -1  -8 -13   -0.69    2.55
   1   8  13    1.96    2.66
   1   8  13   -0.14    1.92
  -2  -8 -13    4.18    2.83
   2   8  13    2.25    2.39
   2   8  13    3.58    1.89
  -3  -8 -13    1.59    2.79
   3   8  13   -3.66    1.82
  -4  -8 -13    3.86    1.90
  -4  -8 -13    9.65    3.40
   4   8  13    5.99    2.43
  -5  -8 -13   -0.15    3.27
   5   8  13    4.85    2.22
   5   8  13   -2.62    3.65
  -6  -8 -13    0.79    2.46
   6   8  13    0.51    2.76
   6   8  13   11.06    3.79
   0  -9 -13    5.18    2.88
   0   9  13   -3.92    1.92
   0   9  13   -0.07    3.35
  -1  -9 -13    4.95    3.07
   1   9  13    1.99    3.07
  -2  -9 -13    0.62    2.80
   2   9  13    2.29    3.04
   2   9  13    8.27    2.29
  -3  -9 -13   20.06    3.85
   3   9  13   13.84    2.41
  -4  -9 -13    3.18    3.09
   4   9  13    3.87    2.10
  -5  -9 -13    3.74    3.14
  -5  -9 -13    0.73    2.24
   5   9  13    8.03    2.55
   5   9  13   -1.86    4.16
  -2 -10 -13    5.26    3.02
   2  10  13   -1.38    2.01
  -3 -10 -13   -3.87    3.09
  -3 -10 -13    0.93    2.05
   3  10  13    2.66    2.00
  -1  -3 -14   13.18    4.58
   0  -4 -14    2.49    5.60
   0  -4 -14    0.61    3.32
   0   4  14   -4.35    2.28
  -1  -4 -14    2.47    3.98
  -1  -4 -14   13.95    3.75
   1   4  14    8.02    2.63
  -2  -4 -14    0.12    3.78
  -2  -4 -14    3.43    3.71
   0  -5 -14   13.43    3.76
   0   5  14    7.68    3.94
  -1  -5 -14   24.55    4.12
  -1  -5 -14   17.81    4.08
   1   5  14   16.67    2.60
  -2  -5 -14   16.08    3.81
  -2  -5 -14    7.00    3.26
   2   5  14   16.26    3.04
  -3  -5 -14    4.19    3.67
  -3  -5 -14    3.59    3.64
   0  -6 -14    1.55    3.12
  -1  -6 -14    0.48    3.76
  -1  -6 -14    4.94    3.32
   1   6  14   -1.85    2.03
  -2  -6 -14    1.59    3.37
  -2  -6 -14    0.70    3.02
   2   6  14   -1.55    2.21
  -3  -6 -14    6.08    3.47
  -1  -7 -14    2.21    3.26
   2   7  14    4.58    2.66
   0   0   0    0.00    0.00
;
_shelx_hkl_checksum              49370
_olex2_submission_special_instructions 'No special instructions were received'
loop_
_space_group_symop_operation_xyz
'x, y, z'
'-x, -y, -z'
loop_
_atom_site_label
_atom_site_type_symbol
_atom_site_fract_x
_atom_site_fract_y
_atom_site_fract_z
_atom_site_U_iso_or_equiv
_atom_site_adp_type
_atom_site_occupancy
_atom_site_site_symmetry_order
_atom_site_calc_flag
_atom_site_refinement_flags_posn
_atom_site_refinement_flags_adp
_atom_site_refinement_flags_occupancy
_atom_site_disorder_assembly
_atom_site_disorder_group
P1 P 0.05565(6) 0.18760(5) 0.02516(5) 0.01272(12) Uani 1 1 d . . . . .
F1 F -0.08886(14) 0.23889(14) -0.38945(12) 0.0239(3) Uani 1 1 d . . . . .
F2 F -0.21078(14) 0.77583(13) -0.31823(13) 0.0256(3) Uani 1 1 d . . . . .
O1 O 0.17258(15) 0.27812(15) -0.00478(14) 0.0156(3) Uani 1 1 d . . . . .
O2 O -0.06092(15) 0.28456(14) 0.10800(14) 0.0152(3) Uani 1 1 d . . . . .
O3 O 0.11482(15) 0.02359(15) 0.10545(14) 0.0172(3) Uani 1 1 d . . . . .
N1 N -0.02350(19) 0.22597(19) -0.12917(17) 0.0155(3) Uani 1 1 d . . . . .
C1 C 0.2972(2) 0.2645(2) -0.09561(19) 0.0145(4) Uani 1 1 d . . . . .
C2 C 0.3519(2) 0.3855(2) -0.1419(2) 0.0173(4) Uani 1 1 d . . . . .
H2 H 0.303849 0.471283 -0.114480 0.021 Uiso 1 1 calc R U . . .
C3 C 0.4777(2) 0.3806(2) -0.2289(2) 0.0215(4) Uani 1 1 d . . . . .
H3 H 0.515880 0.463640 -0.261962 0.026 Uiso 1 1 calc R U . . .
C4 C 0.5478(2) 0.2550(2) -0.2676(2) 0.0225(5) Uani 1 1 d . . . . .
H4 H 0.633974 0.251582 -0.327294 0.027 Uiso 1 1 calc R U . . .
C5 C 0.4918(2) 0.1345(2) -0.2192(2) 0.0217(4) Uani 1 1 d . . . . .
H5 H 0.540694 0.048125 -0.245493 0.026 Uiso 1 1 calc R U . . .
C6 C 0.3655(2) 0.1375(2) -0.1329(2) 0.0181(4) Uani 1 1 d . . . . .
H6 H 0.326848 0.054771 -0.100249 0.022 Uiso 1 1 calc R U . . .
C7 C -0.0875(2) 0.3692(2) -0.2384(2) 0.0146(4) Uani 1 1 d . . . . .
C8 C -0.1231(2) 0.3745(2) -0.3722(2) 0.0174(4) Uani 1 1 d . . . . .
C9 C -0.1878(2) 0.5076(3) -0.4850(2) 0.0226(5) Uani 1 1 d . . . . .
H9 H -0.211927 0.505342 -0.573992 0.027 Uiso 1 1 calc R U . . .
C10 C -0.2178(2) 0.6456(2) -0.4682(2) 0.0229(5) Uani 1 1 d . . . . .
H10 H -0.262092 0.739731 -0.544645 0.027 Uiso 1 1 calc R U . . .
C11 C -0.1811(2) 0.6409(2) -0.3370(2) 0.0183(4) Uani 1 1 d . . . . .
C12 C -0.1174(2) 0.5081(2) -0.2213(2) 0.0165(4) Uani 1 1 d . . . . .
H12 H -0.094642 0.511183 -0.132341 0.020 Uiso 1 1 calc R U . . .
C13 C -0.1737(2) 0.2289(2) 0.1909(2) 0.0138(4) Uani 1 1 d . . . . .
C14 C -0.1473(2) 0.1623(2) 0.3378(2) 0.0180(4) Uani 1 1 d . . . . .
H14 H -0.052062 0.146304 0.380647 0.022 Uiso 1 1 calc R U . . .
C15 C -0.2637(2) 0.1194(2) 0.4212(2) 0.0208(4) Uani 1 1 d . . . . .
H15 H -0.248018 0.072731 0.522496 0.025 Uiso 1 1 calc R U . . .
C16 C -0.4026(2) 0.1442(2) 0.3575(2) 0.0222(5) Uani 1 1 d . . . . .
H16 H -0.482129 0.115646 0.415449 0.027 Uiso 1 1 calc R U . . .
C17 C -0.4258(2) 0.2103(2) 0.2099(2) 0.0220(5) Uani 1 1 d . . . . .
H17 H -0.520910 0.226223 0.166872 0.026 Uiso 1 1 calc R U . . .
C18 C -0.3108(2) 0.2533(2) 0.1247(2) 0.0194(4) Uani 1 1 d . . . . .
H18 H -0.325618 0.298562 0.023288 0.023 Uiso 1 1 calc R U . . .
H1 H -0.041(3) 0.154(3) -0.138(3) 0.041(8) Uiso 1 1 d . . . . .
loop_
_atom_site_aniso_label
_atom_site_aniso_U_11
_atom_site_aniso_U_22
_atom_site_aniso_U_33
_atom_site_aniso_U_23
_atom_site_aniso_U_13
_atom_site_aniso_U_12
P1 0.0160(2) 0.0133(2) 0.0115(2) -0.00519(19) 0.00137(18) -0.00751(19)
F1 0.0294(7) 0.0338(7) 0.0189(6) -0.0164(5) 0.0037(5) -0.0162(6)
F2 0.0280(7) 0.0163(6) 0.0271(7) -0.0012(5) -0.0032(5) -0.0071(5)
O1 0.0179(7) 0.0184(7) 0.0164(7) -0.0093(6) 0.0036(5) -0.0108(6)
O2 0.0184(7) 0.0162(7) 0.0144(7) -0.0068(6) 0.0045(5) -0.0095(6)
O3 0.0192(7) 0.0156(7) 0.0177(7) -0.0050(6) -0.0003(6) -0.0077(5)
N1 0.0220(9) 0.0149(8) 0.0133(8) -0.0058(7) 0.0000(7) -0.0095(7)
C1 0.0146(9) 0.0186(10) 0.0092(9) -0.0033(8) -0.0020(7) -0.0057(8)
C2 0.0191(10) 0.0146(10) 0.0187(10) -0.0054(8) -0.0021(8) -0.0061(8)
C3 0.0204(10) 0.0251(11) 0.0224(11) -0.0061(9) 0.0009(8) -0.0146(9)
C4 0.0171(10) 0.0320(12) 0.0226(11) -0.0111(9) 0.0043(8) -0.0126(9)
C5 0.0209(10) 0.0236(11) 0.0249(11) -0.0144(9) 0.0036(9) -0.0073(9)
C6 0.0207(10) 0.0167(10) 0.0203(10) -0.0070(8) 0.0017(8) -0.0102(8)
C7 0.0129(9) 0.0210(10) 0.0119(9) -0.0049(8) 0.0021(7) -0.0097(8)
C8 0.0156(9) 0.0256(11) 0.0173(10) -0.0107(9) 0.0045(8) -0.0120(8)
C9 0.0164(10) 0.0386(13) 0.0133(10) -0.0078(9) -0.0004(8) -0.0114(9)
C10 0.0155(10) 0.0275(12) 0.0168(10) 0.0013(9) -0.0018(8) -0.0063(8)
C11 0.0150(9) 0.0184(10) 0.0197(10) -0.0039(8) 0.0008(8) -0.0066(8)
C12 0.0171(9) 0.0206(10) 0.0134(10) -0.0050(8) 0.0002(8) -0.0091(8)
C13 0.0177(9) 0.0113(9) 0.0145(9) -0.0060(7) 0.0045(7) -0.0069(7)
C14 0.0188(10) 0.0174(10) 0.0175(10) -0.0063(8) -0.0008(8) -0.0052(8)
C15 0.0271(11) 0.0173(10) 0.0150(10) -0.0037(8) 0.0044(8) -0.0072(8)
C16 0.0215(10) 0.0185(10) 0.0276(12) -0.0084(9) 0.0096(9) -0.0099(8)
C17 0.0192(10) 0.0221(11) 0.0281(12) -0.0099(9) -0.0004(9) -0.0095(8)
C18 0.0237(10) 0.0206(10) 0.0153(10) -0.0059(8) 0.0000(8) -0.0097(8)
loop_
_atom_type_symbol
_atom_type_description
_atom_type_scat_dispersion_real
_atom_type_scat_dispersion_imag
_atom_type_scat_source
C C 0.0033 0.0016 'International Tables Vol C Tables 4.2.6.8 and 6.1.1.4'
H H 0.0000 0.0000 'International Tables Vol C Tables 4.2.6.8 and 6.1.1.4'
N N 0.0061 0.0033 'International Tables Vol C Tables 4.2.6.8 and 6.1.1.4'
O O 0.0106 0.0060 'International Tables Vol C Tables 4.2.6.8 and 6.1.1.4'
F F 0.0171 0.0103 'International Tables Vol C Tables 4.2.6.8 and 6.1.1.4'
P P 0.1023 0.0942 'International Tables Vol C Tables 4.2.6.8 and 6.1.1.4'
loop_
_geom_angle_atom_site_label_1
_geom_angle_atom_site_label_2
_geom_angle_atom_site_label_3
_geom_angle
_geom_angle_site_symmetry_1
_geom_angle_site_symmetry_3
_geom_angle_publ_flag
O1 P1 O2 95.06(7) . . ?
O1 P1 N1 106.99(8) . . ?
O2 P1 N1 109.50(8) . . ?
O3 P1 O1 117.63(8) . . ?
O3 P1 O2 114.97(8) . . ?
O3 P1 N1 111.38(8) . . ?
C1 O1 P1 125.54(12) . . ?
C13 O2 P1 119.39(11) . . ?
P1 N1 H1 114.9(18) . . ?
C7 N1 P1 128.27(14) . . ?
C7 N1 H1 116.0(18) . . ?
C2 C1 O1 114.97(17) . . ?
C2 C1 C6 121.73(18) . . ?
C6 C1 O1 123.25(17) . . ?
C1 C2 H2 120.4 . . ?
C1 C2 C3 119.23(19) . . ?
C3 C2 H2 120.4 . . ?
C2 C3 H3 120.0 . . ?
C4 C3 C2 120.09(18) . . ?
C4 C3 H3 120.0 . . ?
C3 C4 H4 120.2 . . ?
C3 C4 C5 119.70(19) . . ?
C5 C4 H4 120.2 . . ?
C4 C5 H5 119.4 . . ?
C4 C5 C6 121.16(19) . . ?
C6 C5 H5 119.4 . . ?
C1 C6 C5 118.08(18) . . ?
C1 C6 H6 121.0 . . ?
C5 C6 H6 121.0 . . ?
C8 C7 N1 118.73(17) . . ?
C8 C7 C12 117.28(17) . . ?
C12 C7 N1 123.99(17) . . ?
F1 C8 C7 116.94(17) . . ?
F1 C8 C9 119.64(17) . . ?
C9 C8 C7 123.41(19) . . ?
C8 C9 H9 120.3 . . ?
C8 C9 C10 119.37(19) . . ?
C10 C9 H9 120.3 . . ?
C9 C10 H10 121.3 . . ?
C11 C10 C9 117.41(19) . . ?
C11 C10 H10 121.3 . . ?
F2 C11 C10 118.20(17) . . ?
F2 C11 C12 117.60(17) . . ?
C10 C11 C12 124.20(19) . . ?
C7 C12 H12 120.8 . . ?
C11 C12 C7 118.31(18) . . ?
C11 C12 H12 120.8 . . ?
C14 C13 O2 117.90(16) . . ?
C14 C13 C18 122.47(18) . . ?
C18 C13 O2 119.43(17) . . ?
C13 C14 H14 120.9 . . ?
C13 C14 C15 118.25(18) . . ?
C15 C14 H14 120.9 . . ?
C14 C15 H15 119.8 . . ?
C16 C15 C14 120.36(19) . . ?
C16 C15 H15 119.8 . . ?
C15 C16 H16 119.9 . . ?
C17 C16 C15 120.27(19) . . ?
C17 C16 H16 119.9 . . ?
C16 C17 H17 119.9 . . ?
C16 C17 C18 120.24(19) . . ?
C18 C17 H17 119.9 . . ?
C13 C18 C17 118.41(19) . . ?
C13 C18 H18 120.8 . . ?
C17 C18 H18 120.8 . . ?
loop_
_geom_bond_atom_site_label_1
_geom_bond_atom_site_label_2
_geom_bond_distance
_geom_bond_site_symmetry_2
_geom_bond_publ_flag
P1 O1 1.5773(13) . ?
P1 O2 1.5846(14) . ?
P1 O3 1.4602(14) . ?
P1 N1 1.6287(16) . ?
F1 C8 1.359(2) . ?
F2 C11 1.366(2) . ?
O1 C1 1.403(2) . ?
O2 C13 1.409(2) . ?
N1 C7 1.407(2) . ?
N1 H1 0.82(3) . ?
C1 C2 1.380(3) . ?
C1 C6 1.384(3) . ?
C2 H2 0.9500 . ?
C2 C3 1.386(3) . ?
C3 H3 0.9500 . ?
C3 C4 1.382(3) . ?
C4 H4 0.9500 . ?
C4 C5 1.383(3) . ?
C5 H5 0.9500 . ?
C5 C6 1.386(3) . ?
C6 H6 0.9500 . ?
C7 C8 1.390(3) . ?
C7 C12 1.396(3) . ?
C8 C9 1.370(3) . ?
C9 H9 0.9500 . ?
C9 C10 1.386(3) . ?
C10 H10 0.9500 . ?
C10 C11 1.370(3) . ?
C11 C12 1.381(3) . ?
C12 H12 0.9500 . ?
C13 C14 1.380(3) . ?
C13 C18 1.384(3) . ?
C14 H14 0.9500 . ?
C14 C15 1.388(3) . ?
C15 H15 0.9500 . ?
C15 C16 1.386(3) . ?
C16 H16 0.9500 . ?
C16 C17 1.384(3) . ?
C17 H17 0.9500 . ?
C17 C18 1.386(3) . ?
C18 H18 0.9500 . ?
loop_
_geom_torsion_atom_site_label_1
_geom_torsion_atom_site_label_2
_geom_torsion_atom_site_label_3
_geom_torsion_atom_site_label_4
_geom_torsion
_geom_torsion_site_symmetry_1
_geom_torsion_site_symmetry_2
_geom_torsion_site_symmetry_3
_geom_torsion_site_symmetry_4
_geom_torsion_publ_flag
P1 O1 C1 C2 159.85(13) . . . . ?
P1 O1 C1 C6 -22.4(2) . . . . ?
P1 O2 C13 C14 101.79(17) . . . . ?
P1 O2 C13 C18 -83.35(19) . . . . ?
P1 N1 C7 C8 168.17(14) . . . . ?
P1 N1 C7 C12 -11.6(3) . . . . ?
F1 C8 C9 C10 -177.88(17) . . . . ?
F2 C11 C12 C7 179.54(16) . . . . ?
O1 P1 O2 C13 -164.86(13) . . . . ?
O1 P1 N1 C7 -47.42(18) . . . . ?
O1 C1 C2 C3 178.23(16) . . . . ?
O1 C1 C6 C5 -177.62(17) . . . . ?
O2 P1 O1 C1 -170.05(14) . . . . ?
O2 P1 N1 C7 54.48(18) . . . . ?
O2 C13 C14 C15 174.41(16) . . . . ?
O2 C13 C18 C17 -174.04(17) . . . . ?
O3 P1 O1 C1 68.30(16) . . . . ?
O3 P1 O2 C13 -41.16(15) . . . . ?
O3 P1 N1 C7 -177.24(16) . . . . ?
N1 P1 O1 C1 -57.87(16) . . . . ?
N1 P1 O2 C13 85.11(14) . . . . ?
N1 C7 C8 F1 -1.9(2) . . . . ?
N1 C7 C8 C9 178.97(18) . . . . ?
N1 C7 C12 C11 -179.75(17) . . . . ?
C1 C2 C3 C4 -0.4(3) . . . . ?
C2 C1 C6 C5 -0.1(3) . . . . ?
C2 C3 C4 C5 0.0(3) . . . . ?
C3 C4 C5 C6 0.4(3) . . . . ?
C4 C5 C6 C1 -0.4(3) . . . . ?
C6 C1 C2 C3 0.5(3) . . . . ?
C7 C8 C9 C10 1.2(3) . . . . ?
C8 C7 C12 C11 0.4(3) . . . . ?
C8 C9 C10 C11 -0.3(3) . . . . ?
C9 C10 C11 F2 -179.60(17) . . . . ?
C9 C10 C11 C12 -0.4(3) . . . . ?
C10 C11 C12 C7 0.3(3) . . . . ?
C12 C7 C8 F1 177.86(16) . . . . ?
C12 C7 C8 C9 -1.2(3) . . . . ?
C13 C14 C15 C16 -0.4(3) . . . . ?
C14 C13 C18 C17 0.6(3) . . . . ?
C14 C15 C16 C17 0.8(3) . . . . ?
C15 C16 C17 C18 -0.5(3) . . . . ?
C16 C17 C18 C13 -0.2(3) . . . . ?
C18 C13 C14 C15 -0.3(3) . . . . ?

_cod_database_fobs_code 2108943
