#------------------------------------------------------------------------------
#$Date: 2022-01-01 06:19:30 +0200 (Sat, 01 Jan 2022) $
#$Revision: 271667 $
#$URL: file:///home/coder/svn-repositories/cod/cif/2/10/89/2108923.cif $
#------------------------------------------------------------------------------
#
# This file is available in the Crystallography Open Database (COD),
# http://www.crystallography.net/. The original data for this entry
# were provided by IUCr Journals, http://journals.iucr.org/.
#
# The file may be used within the scientific community so long as
# proper attribution is given to the journal article from which the
# data were obtained.
#
data_2108923
loop_
_publ_author_name
'Rejnhardt, Piotr'
'Drozd, Marek'
'Daszkiewicz, Marek'
_publ_section_title
;
 Low-temperature phase transition and high-pressure phase stability of
 1<i>H</i>-pyrazole-1-carboxamidine nitrate
;
_journal_issue                   6
_journal_name_full               'Acta Crystallographica Section B'
_journal_page_first              996
_journal_page_last               1002
_journal_paper_doi               10.1107/S2052520621010970
_journal_volume                  77
_journal_year                    2021
_chemical_formula_moiety         'C4 H7 N4, N O3'
_chemical_formula_sum            'C4 H7 N5 O3'
_chemical_formula_weight         173.15
_space_group_crystal_system      triclinic
_space_group_IT_number           2
_space_group_name_Hall           '-P 1'
_space_group_name_H-M_alt        'P -1'
_atom_sites_solution_hydrogens   geom
_atom_sites_solution_primary     dual
_audit_creation_date             2021-07-28
_audit_creation_method
;
Olex2 1.2
(compiled 2018.05.29 svn.r3508 for OlexSys, GUI svn.r5506)
;
_cell_angle_alpha                88.714(3)
_cell_angle_beta                 98.962(3)
_cell_angle_gamma                92.480(3)
_cell_formula_units_Z            4
_cell_length_a                   5.0927(2)
_cell_length_b                   10.2465(3)
_cell_length_c                   13.6617(4)
_cell_measurement_reflns_used    2734
_cell_measurement_temperature    100.00(10)
_cell_measurement_theta_max      28.9780
_cell_measurement_theta_min      5.8430
_cell_volume                     703.45(4)
_computing_cell_refinement       'CrysAlisPro 1.171.39.46 (Rigaku OD, 2018)'
_computing_data_collection       'CrysAlisPro 1.171.39.46 (Rigaku OD, 2018)'
_computing_data_reduction        'CrysAlisPro 1.171.39.46 (Rigaku OD, 2018)'
_computing_molecular_graphics    'Olex2 (Dolomanov et al., 2009)'
_computing_publication_material  'Olex2 (Dolomanov et al., 2009)'
_computing_structure_refinement  'ShelXL (Sheldrick, 2015)'
_computing_structure_solution    'ShelXT (Sheldrick, 2015)'
_diffrn_ambient_environment      N~2~
_diffrn_ambient_temperature      100.00(10)
_diffrn_detector                 'CCD plate'
_diffrn_detector_area_resol_mean 10.6249
_diffrn_detector_type            Atlas
_diffrn_measured_fraction_theta_full 0.830
_diffrn_measured_fraction_theta_max 0.719
_diffrn_measurement_details
;
List of Runs (angles in degrees, time in seconds):

  # Type    Start    End  Width  t~exp~   \w     \q     \k     \f   Frames
--------------------------------------------------------------------------
  1  \w    -65.00  45.40   0.80   10.00    --   13.31 -57.00   0.00  138
  2  \w    -65.00  45.40   0.80   10.00    --   13.31 -57.00-120.00  138
  3  \w     35.00 105.40   0.80   10.00    --   13.31 178.00-120.00   88
  4  \w    -78.00 -38.00   0.80   10.00    --   13.31 178.00  60.00   50
  5  \w    -19.00  90.60   0.80   10.00    --   13.31  57.00   0.00  137
;
_diffrn_measurement_device       'four-circle diffractometer'
_diffrn_measurement_device_type  'Xcalibur, Atlas'
_diffrn_measurement_method       '\w scans'
_diffrn_orient_matrix_type
'CrysAlisPro convention (1999,Acta A55,543-557)'
_diffrn_orient_matrix_UB_11      0.0816041000
_diffrn_orient_matrix_UB_12      0.0559751000
_diffrn_orient_matrix_UB_13      -0.0077217000
_diffrn_orient_matrix_UB_21      0.0454957000
_diffrn_orient_matrix_UB_22      0.0029692000
_diffrn_orient_matrix_UB_23      0.0517141000
_diffrn_orient_matrix_UB_31      0.1057552000
_diffrn_orient_matrix_UB_32      -0.0407447000
_diffrn_orient_matrix_UB_33      -0.0054176000
_diffrn_radiation_monochromator  graphite
_diffrn_radiation_probe          x-ray
_diffrn_radiation_type           MoK\a
_diffrn_radiation_wavelength     0.71073
_diffrn_reflns_av_R_equivalents  0.0314
_diffrn_reflns_av_unetI/netI     0.0375
_diffrn_reflns_Laue_measured_fraction_full 0.830
_diffrn_reflns_Laue_measured_fraction_max 0.719
_diffrn_reflns_limit_h_max       6
_diffrn_reflns_limit_h_min       -6
_diffrn_reflns_limit_k_max       13
_diffrn_reflns_limit_k_min       -14
_diffrn_reflns_limit_l_max       18
_diffrn_reflns_limit_l_min       -18
_diffrn_reflns_number            6317
_diffrn_reflns_point_group_measured_fraction_full 0.830
_diffrn_reflns_point_group_measured_fraction_max 0.719
_diffrn_reflns_theta_full        25.242
_diffrn_reflns_theta_max         29.169
_diffrn_reflns_theta_min         2.517
_diffrn_source                   'fine-focus sealed X-ray tube'
_diffrn_source_type              'Enhance (Mo) X-ray Source'
_exptl_absorpt_coefficient_mu    0.140
_exptl_absorpt_correction_T_max  1.00000
_exptl_absorpt_correction_T_min  0.92191
_exptl_absorpt_correction_type   multi-scan
_exptl_absorpt_process_details
;
CrysAlisPro 1.171.39.46 (Rigaku Oxford Diffraction, 2018)
Empirical absorption correction using spherical harmonics,
 implemented in SCALE3 ABSPACK scaling algorithm.
;
_exptl_crystal_colour            colourless
_exptl_crystal_density_diffrn    1.635
_exptl_crystal_description       prism
_exptl_crystal_F_000             360
_exptl_crystal_size_max          0.493
_exptl_crystal_size_mid          0.383
_exptl_crystal_size_min          0.332
_refine_diff_density_max         0.211
_refine_diff_density_min         -0.212
_refine_diff_density_rms         0.046
_refine_ls_extinction_method     none
_refine_ls_goodness_of_fit_ref   0.956
_refine_ls_hydrogen_treatment    constr
_refine_ls_matrix_type           full
_refine_ls_number_parameters     217
_refine_ls_number_reflns         2716
_refine_ls_number_restraints     0
_refine_ls_restrained_S_all      0.956
_refine_ls_R_factor_all          0.0479
_refine_ls_R_factor_gt           0.0340
_refine_ls_shift/su_max          0.000
_refine_ls_shift/su_mean         0.000
_refine_ls_structure_factor_coef Fsqd
_refine_ls_weighting_details
'w=1/[\s^2^(Fo^2^)+(0.0580P)^2^] where P=(Fo^2^+2Fc^2^)/3'
_refine_ls_weighting_scheme      calc
_refine_ls_wR_factor_gt          0.0856
_refine_ls_wR_factor_ref         0.0889
_reflns_Friedel_coverage         0.000
_reflns_number_gt                2045
_reflns_number_total             2716
_reflns_threshold_expression     'I > 2\s(I)'
_twin_special_details
;
Component 2 rotated by 179.9939\% 
 around [-0.02 1.00 0.03] (reciprocal) or [0.00 1.00 -0.00] (direct)
;
_cod_data_source_file            xk5086sup1.cif
_cod_data_source_block           100K
_cod_database_code               2108923
_shelx_shelxl_version_number     2018/3
_chemical_oxdiff_formula         C4N4NO3H7
_shelx_space_group_comment
;
The symmetry employed for this shelxl refinement is uniquely defined
by the following loop, which should always be used as a source of
symmetry information in preference to the above space-group names.
They are only intended as comments.
;
_olex2_refinement_description
;
1. Fixed Uiso
 At 1.2 times of:
  All C(H) groups, All N(H,H) groups
2.a Aromatic/amide H refined with riding coordinates:
 C11(H11), C12(H12), C13(H13), C21(H21), C22(H22), C23(H23)
2.b X=CH2 refined with riding coordinates:
 N13(H13A,H13B), N14(H14A,H14B), N23(H23A,H23B), N24(H24A,H24B)
;
_shelx_res_file
;
TITL abs3_twin1_hklf4_a.res in P-1
    abs3_twin1_hklf4.res
    created by SHELXL-2018/3 at 13:53:28 on 28-Jul-2021
REM Old TITL abs3_twin1_hklf4_a.res in P-1
REM SHELXT solution in P-1: R1 0.152, Rweak 0.007, Alpha 0.032
REM <I/s> 0.000 for 0 systematic absences, Orientation as input
REM Formula found by SHELXT: C15 N O8
CELL 0.71073 5.0927 10.2465 13.6617 88.714 98.962 92.48
ZERR 4 0.0002 0.0003 0.0004 0.003 0.003 0.003
LATT 1
SFAC C H N O
UNIT 16 28 20 12
EQIV $1 +X,-1+Y,+Z
EQIV $2 -1-X,1-Y,-Z
EQIV $3 3-X,-Y,1-Z

L.S. 99 0 0
PLAN  20
HTAB C12 O12_$1
HTAB C12 O13_$1
HTAB C13 O22
HTAB C22 O21_$1
HTAB C23 O11_$1
HTAB N13 O12
HTAB N13 N12_$2
HTAB N14 O11
HTAB N14 O23
HTAB N14 O22
HTAB N23 O21
HTAB N23 N22_$3
HTAB N24 O22
HTAB N24 N1_$1
HTAB N24 O11_$1
BOND
list 4
fmap 2 53
acta
OMIT 0 1 1
OMIT 2 -1 0
OMIT 0 2 3
OMIT -3 8 13
OMIT 1 -1 8
OMIT 1 -1 0
OMIT 1 3 1
OMIT 0 1 2
REM <olex2.extras>
REM <HklSrc "%.\\abs3_twin1_hklf4.hkl">
REM </olex2.extras>

WGHT    0.058000
FVAR       1.13068
C11   1   -0.386119    0.214283    0.039932    11.00000    0.01949    0.01681 =
         0.01906   -0.00130    0.00220   -0.00303
AFIX  43
H11   2   -0.534865    0.171800    0.004444    11.00000   -1.20000
AFIX   0
C12   1   -0.163684    0.149339    0.088334    11.00000    0.02082    0.01698 =
         0.01872    0.00134    0.00327    0.00163
AFIX  43
H12   2   -0.138943    0.059862    0.090650    11.00000   -1.20000
AFIX   0
C13   1    0.008056    0.244722    0.131131    11.00000    0.01577    0.01931 =
         0.01769    0.00440    0.00179    0.00441
AFIX  43
H13   2    0.174993    0.233938    0.168394    11.00000   -1.20000
AFIX   0
C14   1   -0.019073    0.487316    0.129347    11.00000    0.01617    0.01655 =
         0.01599    0.00084    0.00316   -0.00113

C21   1    1.389730   -0.289611    0.464436    11.00000    0.02008    0.01849 =
         0.01837    0.00189    0.00083    0.00048
AFIX  43
H21   2    1.537735   -0.326835    0.501267    11.00000   -1.20000
AFIX   0
C22   1    1.172325   -0.362993    0.413517    11.00000    0.02316    0.01725 =
         0.01876   -0.00043    0.00282   -0.00205
AFIX  43
H22   2    1.150663   -0.453483    0.410612    11.00000   -1.20000
AFIX   0
C23   1    1.000356   -0.272898    0.369378    11.00000    0.01747    0.01932 =
         0.01762   -0.00265    0.00128   -0.00632
AFIX  43
H23   2    0.836362   -0.289373    0.330215    11.00000   -1.20000
AFIX   0
C24   1    1.020456   -0.029089    0.370193    11.00000    0.01402    0.01800 =
         0.01363    0.00106    0.00228   -0.00056

N2    3    0.751672    0.340221    0.322215    11.00000    0.01758    0.02120 =
         0.01543    0.00293    0.00087    0.00002
N11   3   -0.117181    0.360933    0.107708    11.00000    0.01343    0.01650 =
         0.01652    0.00098   -0.00102   -0.00019
N12   3   -0.360754    0.342285    0.050371    11.00000    0.01403    0.01904 =
         0.01735    0.00045   -0.00148   -0.00098
N13   3   -0.163653    0.583615    0.089965    11.00000    0.01669    0.01495 =
         0.02452    0.00025   -0.00587   -0.00314
AFIX  93
H13A  2   -0.107843    0.663193    0.100737    11.00000   -1.20000
H13B  2   -0.314246    0.567169    0.053376    11.00000   -1.20000
AFIX   0
N14   3    0.209441    0.507617    0.185045    11.00000    0.01599    0.01940 =
         0.02130   -0.00007   -0.00229   -0.00134
AFIX  93
H14A  2    0.270361    0.586163    0.197119    11.00000   -1.20000
H14B  2    0.299833    0.442513    0.209853    11.00000   -1.20000
AFIX   0

N21   3    1.119785   -0.152330    0.394793    11.00000    0.01620    0.01592 =
         0.01826   -0.00032    0.00110   -0.00177
N22   3    1.360858   -0.162793    0.454279    11.00000    0.01395    0.01941 =
         0.01799    0.00077   -0.00237   -0.00060
N23   3    1.163069    0.072581    0.408904    11.00000    0.01652    0.01452 =
         0.02430    0.00087   -0.00578   -0.00124
AFIX  93
H23A  2    1.107293    0.150102    0.396243    11.00000   -1.20000
H23B  2    1.312039    0.061497    0.446861    11.00000   -1.20000
AFIX   0
N24   3    0.794738   -0.018908    0.312541    11.00000    0.01641    0.01771 =
         0.02205   -0.00017   -0.00256   -0.00032
AFIX  93
H24A  2    0.731791    0.056853    0.298004    11.00000   -1.20000
H24B  2    0.707797   -0.087907    0.288793    11.00000   -1.20000
AFIX   0

O21   4    0.992440    0.322252    0.355222    11.00000    0.01310    0.02005 =
         0.02548    0.00162   -0.00276    0.00138
O22   4    0.596043    0.244905    0.294483    11.00000    0.01749    0.02616 =
         0.02416   -0.00414   -0.00040   -0.00673
O23   4    0.668000    0.452554    0.316622    11.00000    0.02320    0.02133 =
         0.03980    0.00395   -0.00456    0.00658
N1    3    0.252431    0.865815    0.172300    11.00000    0.01695    0.01873 =
         0.01575   -0.00099   -0.00072   -0.00210
O11   4    0.412436    0.777988    0.205693    11.00000    0.01744    0.01986 =
         0.02514    0.00328   -0.00057    0.00194
O12   4    0.011628    0.834899    0.142912    11.00000    0.01227    0.02095 =
         0.02808   -0.00175   -0.00073   -0.00270
O13   4    0.333400    0.980366    0.168922    11.00000    0.02448    0.01759 =
         0.04991    0.00507   -0.01133   -0.00673
HKLF 4




REM  abs3_twin1_hklf4_a.res in P-1
REM wR2 = 0.0889, GooF = S = 0.956, Restrained GooF = 0.956 for all data
REM R1 = 0.0340 for 2045 Fo > 4sig(Fo) and 0.0479 for all 2716 data
REM 217 parameters refined using 0 restraints

END

WGHT      0.0580      0.0000

REM Highest difference peak  0.211,  deepest hole -0.212,  1-sigma level  0.046
Q1    1   0.9618  0.2039  0.3611  11.00000  0.05    0.21
Q2    1  -0.5838  0.2024 -0.0237  11.00000  0.05    0.20
Q3    1  -0.2357  0.1740  0.0389  11.00000  0.05    0.19
Q4    1   0.1695  1.0424  0.1604  11.00000  0.05    0.19
Q5    1   1.2747 -0.1463  0.4211  11.00000  0.05    0.18
Q6    1   0.1587  0.2643  0.1922  11.00000  0.05    0.18
Q7    1   0.7967  0.1872  0.3202  11.00000  0.05    0.17
Q8    1  -0.4535  0.4125  0.0287  11.00000  0.05    0.17
Q9    1   1.5221 -0.4293  0.4752  11.00000  0.05    0.16
Q10   1   0.6725  0.1521  0.2849  11.00000  0.05    0.16
Q11   1  -0.0292  0.3083  0.1104  11.00000  0.05    0.16
Q12   1   1.0323  0.2670  0.3857  11.00000  0.05    0.16
Q13   1  -0.4919  0.3832  0.0051  11.00000  0.05    0.15
Q14   1   0.5841  0.4604  0.2591  11.00000  0.05    0.15
Q15   1  -0.3011 -0.0472  0.1260  11.00000  0.05    0.15
Q16   1  -0.0821  0.9177  0.1192  11.00000  0.05    0.15
Q17   1   0.7448 -0.0584  0.2578  11.00000  0.05    0.15
Q18   1  -0.3315  0.7274  0.0619  11.00000  0.05    0.15
Q19   1   1.3387 -0.3272  0.4133  11.00000  0.05    0.14
Q20   1   0.7853  0.1251  0.3572  11.00000  0.05    0.14
;
_shelx_res_checksum              90610
_shelx_hkl_file
;
   0  11  -3   43.75    7.24
   1   7  -4    4.48    5.56
  -2  -3   3   17.17    4.03
   1  10  -7   41.44    8.22
   1   6  -3   28.46    4.82
   2   4 -13   22.70    6.58
   2   5 -13   31.87    7.20
  -1  10   2   16.59    4.63
   2   5 -14   16.46    7.55
   2   4 -11   16.88    5.91
   2   3 -14    2.39    5.97
   2   5 -11   22.25    6.68
   2   4 -15   -3.36    7.36
   2   3 -11  409.51    9.85
   2   5 -15    0.67    7.22
   2   6 -13   -1.92    7.06
   0  10  -1    4.05    5.55
   2   6 -12   31.69    7.20
   1  11  -8   46.25    8.78
   2   3 -15   38.00    6.74
   2   6 -14   -4.12    7.27
   2   2 -13  286.66    8.60
   2   6 -11   17.50    6.93
   2   2 -12   33.35    5.42
   2   2 -14    2.51    5.59
   2   4 -16   -2.30    7.70
   2   6 -15    1.30    8.04
  -1  13  -2   23.17    7.82
   2   3 -16    5.76    6.97
  -3   2   7    9.62    3.72
   2   2 -11    3.45    4.79
   2   7 -13   34.37    8.03
   2   2 -15   58.36    6.93
   0   9   0    3.76    4.77
   2   7 -12   33.01    7.76
   2   7 -14    9.13    8.10
   1  11  -7    6.04    7.79
   2   7 -11   45.11    7.99
   2   4 -17   24.03    8.52
   2   2 -16   22.47    6.54
   1  10  -5   52.75    7.61
   2   3 -17   39.77    8.00
   2   2 -10   20.43    4.99
  -1   9   3    1.65    3.65
  -1  -1   2  558.49    5.44
   1  11  -6   47.82    8.08
  -1  -7  -8    8.02    3.60
   2   7  -9   10.46    6.50
   2   2  -9  199.75    6.89
   1   1  -3 3484.55   13.47
   1  -2  -7    5.97    1.81
  -3   3   7  130.17    4.47
   2   7  -8    4.49    6.22
   2   9 -11   62.59    9.14
  -2  -2   3   27.07    3.97
  -1  -2   1  526.73    5.87
  -2  -3   2  136.92    5.14
   0  -5  -7    9.45    1.97
   2   4  -7   23.08    5.53
   1  -1  -5    8.81    2.23
   2   9  -9   48.58    8.38
   0  13  -4   14.34    7.77
   1  11  -4   10.30    6.96
   1  10  -3   25.45    6.61
  -1   7   4   10.14    2.67
   0  11   0   40.97    6.05
   2   7  -6    9.38    5.73
   2   2  -7   57.74    4.58
   0  12  -2   36.66    7.19
   0  13  -3   20.60    7.75
   2  10  -8   23.17    8.04
   0  -4  -5   -0.30    1.62
   1  12  -6   -1.94    7.67
   1  10  -2   21.42    5.92
  -2   2   5  130.32    3.46
   0  13  -2   26.91    7.58
   2   2  -6  301.90    6.46
   2   1  -7 1864.62   14.34
  -2  -3   1  746.67    9.28
   2  10  -6    4.68    6.88
  -3   2   6   22.56    3.60
   2  11  -7   16.75    8.14
   1  13  -4   -1.52    8.09
   0  11   1   18.32    5.43
   1  11  -2   10.08    6.38
   3   5 -14   17.09    7.01
   3   6 -13   19.18    7.33
   3   5 -15   26.24    7.79
  -1  -6  -7    7.30    3.71
  -2  -2   2   28.54    3.93
   3   5 -13   -4.85    6.69
   3   7 -12    0.58    7.40
   3   4 -14    0.78    6.92
   3   5 -12    8.56    6.80
   3   4 -15    4.20    7.10
   3   4 -13   21.55    6.67
   3   4 -16    5.30    7.33
   3   6 -11    4.45    6.52
   2  11  -6   17.64    7.91
  -1  -3  -1   34.85    3.09
   3   4 -12   15.79    6.57
   2  10  -5   36.62    7.55
   3   5 -11    0.20    6.36
   3   8 -11    1.97    7.73
   0  13  -1   31.02    7.85
   3   3 -14   38.19    6.68
   3   3 -15   97.39    7.93
   3   3 -13   50.63    6.48
   3   3 -16   11.22    6.86
   1   1  -2  524.24    5.47
   3   7 -10   14.15    7.24
   3   4 -11    4.92    5.78
   2   9  -4    9.50    6.31
   3   8 -10   55.15    8.34
   3   3 -12   19.00    5.85
   1  -2  -6   19.12    1.62
  -2  -4  -1   16.11    3.93
   2  11  -5   10.56    7.66
   2   2  -5   92.47    4.71
   1  11  -1    6.64    6.11
   3   6  -9   29.57    6.71
   2  10  -4   12.40    6.89
   3   2 -15    2.20    5.70
   3   2 -14   25.90    5.90
  -1  -2   0  323.88    4.87
   2   6  -3   24.59    5.38
   3   2 -16   58.39    7.51
   3   2 -13   24.27    5.71
   2   3  -4   20.00    4.03
  -3   3   6    8.84    3.31
   2   8  -3   15.80    5.78
   3   7  -8    7.20    6.57
   3   6  -8   -0.27    6.06
   3   2 -12   21.78    5.62
   3   3 -10   70.88    6.48
   3   8  -8    7.37    7.13
   2   9  -3    0.89    5.91
   2  11  -4    8.78    7.09
   0  11   2    2.69    4.84
   1  10   0    6.90    5.16
   1  13  -3   45.19    8.60
  -2  -3   0  122.11    4.95
   3   2 -11    0.80    4.97
   1  -1  -4  963.37    5.93
   1  12  -2   16.71    7.20
   3   3  -9  351.40    9.16
   3   7  -7   45.69    7.12
   3   4  -8    8.51    5.63
   3   6  -7    0.88    5.82
   3   8  -7   18.04    7.11
   0   7   3    8.43    3.18
  -2   3   5 1173.42    7.12
   1  11   0   11.94    5.90
   3   2 -10   46.89    5.49
   0  -5  -9    5.76    2.14
  -2  -5  -4   14.16    4.43
   2   8  -2    5.59    5.24
   2  11  -3    5.16    6.60
  -2  -2   1   58.74    4.29
   2   2  -4  197.66    5.32
   2  -2 -13  199.26    5.54
  -4   3   6    8.78    4.56
   3  10  -7   22.73    7.86
   1  13  -2    8.19    7.96
   3   8  -6   18.33    6.85
   3   2  -9   27.66    5.25
   2  -2 -12   52.34    3.59
  -3   2   5    4.45    3.38
   1  12  -1   21.53    7.14
  -1  -3  -2   70.56    3.37
   2  11  -2   15.22    6.78
   3   8  -5   12.35    6.46
   0   5   3    7.39    2.24
   3   9  -5   20.95    7.08
   3   2  -8  166.58    6.69
   2  -2 -11    1.09    2.73
   1  13  -1    9.82    7.30
   1  11   1   34.73    6.01
   0  11   3    6.82    4.47
   4   6 -12    1.27    7.04
   2   9  -1    0.57    5.33
  -2  -3  -1   24.95    3.58
   4   4 -15   10.27    7.19
   4   6 -11   19.34    7.10
   4   4 -14   -0.73    6.76
   0  -5 -10   16.13    2.29
   4   7 -10   27.30    7.67
   4   4 -13    9.94    6.70
   2   2  -3   28.97    3.68
   3   8  -4   -3.13    5.96
   3   7  -4   29.10    6.10
   3   3  -6   73.05    5.59
   4   6 -10    1.26    6.73
   3   2  -7    5.76    4.49
   3   4  -5   23.42    5.44
   3   6  -4   21.05    5.65
  -2   2   4  408.42    4.95
   2  -2 -10    6.69    2.77
   4   3 -15   31.33    6.95
   4   3 -14   15.48    6.71
   1  13   0   58.99    8.02
  -2  -2   0 2938.13   15.76
   4   3 -13   31.32    6.51
   3  11  -4    1.77    7.28
  -1  -2  -1  614.58    6.66
  -3   3   5  118.78    4.27
   4   8  -8    0.52    7.09
   4   3 -12   23.10    5.96
   4   7  -8   17.48    7.06
   2  12  -2    1.55    6.82
   2   9   0    4.43    5.12
   4   5  -9   10.66    6.28
   3   9  -3   10.55    6.28
   2   7   0    9.49    4.98
   1   2   0  302.24    4.34
   1  11   2   10.48    5.24
   4   6  -8    0.52    6.27
   3   3  -5   78.95    5.38
   3   2  -6    2.51    4.26
   4   3 -11   24.36    6.14
   4   2 -15    8.80    6.35
   2  13  -1   65.39    9.20
   4   2 -14   26.13    6.38
   2  11   0    3.27    5.82
   4   4  -9   16.02    5.91
   3  11  -3    2.46    6.89
  -2  -3  -2  173.45    5.12
   4   5  -8    2.92    6.17
   4   2 -13   28.94    6.09
   4   3 -10   36.99    5.88
  -3   2   4  862.73    9.34
   2  -2  -9  245.67    4.53
   4   6  -7   33.51    6.93
  -1  -3  -3  959.67    7.85
   4   2 -12   85.05    6.95
   2  12  -1    5.15    7.00
   4   8  -6    4.35    6.90
   3   8  -2   23.06    6.28
  -1   2   3 1278.23    4.66
   2   2  -2   26.76    3.60
  -4   4   5   -3.49    4.17
   2   1  -3  679.98    8.24
   4   7  -6   51.64    7.23
   3  10  -2    0.99    6.28
   1   3   1   34.50    3.03
   4   2 -11   19.41    5.31
   4   3  -9    2.23    5.02
   1  -2  -5 1554.35    5.21
   3  11  -2    2.34    6.84
   3   2  -5   22.09    4.38
   2   9   1   15.17    5.33
   2   3  -1  734.66    8.65
   1   9   3   -1.01    4.02
   3   4  -3   15.72    5.11
   4   2 -10    0.15    5.05
  -2  -4  -5   22.15    4.36
   1  12   2    1.08    5.40
  -3   4   5   -0.79    3.08
   2  11   1   19.61    5.82
  -2  -2  -1  649.11    8.00
   4   3  -8    1.88    5.11
   2  12   0    0.61    6.77
   3   9  -1   21.98    6.34
  -2  -3  -3    8.01    3.36
   3  10  -1   18.00    6.63
   4   2  -9   25.34    5.16
   3  11  -1    4.88    6.92
   2  13   0   12.22    7.19
   2  -2  -8  247.75    4.23
   4   9  -4   56.17    8.00
   4   8  -4    5.85    6.44
   4   3  -7   23.68    5.08
   3   3  -3    1.33    4.13
   3   2  -4  913.83   10.73
  -3   3   4   35.45    3.48
   4   2  -8  222.33    7.65
  -2   3   4    7.20    2.02
   2   9   2   34.57    5.37
   2  10   2    1.54    5.16
  -1   6   5    6.79    1.26
   2  12   1    8.73    6.61
  -1  -2  -2  122.70    3.39
   2  11   2    1.03    5.75
   5   4 -11   14.16    6.85
   5   3 -14   17.87    6.70
   4   9  -3    7.06    6.80
   2   2  -1   42.74    3.85
  -1  -3  -4  467.20    5.69
   3  10   0    0.20    5.87
   4   4  -5    4.22    5.10
  -3   2   3   81.73    4.35
   4   3  -6   26.46    5.01
   0  -3  -5  505.32    3.85
   3   8   0    6.49    5.65
   5   3 -13    6.59    6.56
   3  11   0    3.06    6.88
   5   5  -9    5.75    6.80
   5   6  -8   32.91    7.65
   2  -3 -12  132.07    3.25
   2   7   2   34.03    5.02
   2   3   0  106.35    4.47
  -2  -3  -4  603.23    8.24
   4   2  -7   24.15    4.95
   5   3 -12    9.36    6.29
   3  12   0    5.16    7.32
  -2  -2  -2 1820.00   12.67
   1  10   4   26.51    4.73
   1   9   4   -0.10    3.74
  -2   2   3   59.67    2.93
   5   3 -11   21.55    7.00
   0   2   2  549.95    3.03
   1  11   4    3.73    4.71
   3   2  -3  261.43    6.48
   3   3  -2   -2.58    3.89
   5   4  -9   -1.26    6.09
   5   6  -7   -3.26    6.76
   4   9  -2   -1.81    6.64
   1   2   1  602.52    6.13
   2   4   1   12.55    3.60
   4   8  -2   44.13    7.18
   5   2 -13   17.41    6.55
   2  -2  -7   88.89    2.92
   5   3 -10   43.31    6.64
   2  12   2   10.38    6.18
   4   2  -6   28.20    5.16
   3  -2 -12   33.42    3.49
   3  10   1   27.89    6.62
   3   9   1   -0.76    5.70
   5   4  -8    1.20    5.93
   5   2 -12   78.08    7.75
   3  11   1   -0.28    6.13
   2  -3 -11  375.30    4.26
   2  10   3    8.74    4.90
   2  11   3    8.12    5.52
  -2  -3  -5   32.72    4.02
   5   3  -9   23.05    6.23
   5   2 -11   -0.63    5.63
   1   3   2   62.30    3.14
   4  10  -1   -0.82    6.85
   3  -2 -11    9.68    3.01
   5   4  -7    6.57    6.04
   4   3  -4   47.67    5.55
   4   4  -3   28.03    5.52
  -1  -3  -5   12.08    2.46
   5   2 -10    6.53    5.74
   5   6  -5    9.32    6.59
  -2  -2  -3 1756.31   13.01
   4   2  -5  557.04   10.71
   5   3  -8    5.65    5.74
  -1  -1  -1 2850.38   10.98
   3   2  -2  571.85    8.58
  -3   3   3    2.21    3.01
   3   3  -1   80.37    5.01
   2   2   0 2789.78   15.09
  -3   2   2  168.93    5.41
  -1  -4  -9    1.60    3.39
   5   7  -4   29.88    7.50
   3  10   2    3.32    5.97
   2   3   1   20.11    3.44
   5   2  -9  269.88    9.60
  -2  -3  -6  213.52    5.98
   3  -2 -10    0.95    3.02
   5   5  -5    8.36    6.10
   3  11   2    5.82    6.33
   3   9   2    8.52    5.53
   4   6  -1   18.48    5.94
   5   3  -7  215.02    8.88
   4  10   0   42.00    7.78
   3  12   2    0.89    7.07
   5   6  -4   -0.35    6.39
   4   9   0   13.31    6.99
  -1  -2  -3 1112.12    7.85
   2  -3 -10   11.40    1.95
   4   3  -3  267.14    8.15
   2   6   3   18.04    4.10
   4   4  -2   -1.31    5.24
   4   2  -4   48.43    5.58
   5   2  -8   27.94    5.99
   1   9   5    2.71    3.74
   2  10   4   10.43    5.06
   2  11   4   -2.67    5.45
   0  -4 -10    4.10    2.42
   5   4  -5    9.60    6.36
   2  -2  -6   52.24    2.79
   2   9   4   21.42    5.00
   5   3  -6   41.00    6.07
  -2  -2  -4  674.02    8.94
   3  -2  -9   35.67    3.43
   5   6  -3   12.08    6.44
  -2  -1  -2    4.25    3.26
  -1  -3  -6  409.42    5.74
  -3   1   0  729.82   12.07
   5   2  -7    1.56    5.25
  -2   1   1  156.67    4.74
   3   2  -1 1452.86   13.41
   3   3   0  207.96    6.59
   4  10   1   21.29    7.34
   2   8   4    0.39    4.35
   3  10   3    0.33    5.74
   3  11   3    4.95    5.85
   4   3  -2  126.85    6.59
   5   7  -2    4.31    6.90
   5   3  -5  227.44    8.72
   4   8   1   16.58    6.18
   4   2  -3   27.60    5.06
   4   4  -1   26.73    5.57
   0  -3  -6   21.47    1.72
  -3   2   1 1486.24   12.21
  -3   4   3   24.91    3.48
   5   2  -6   11.36    5.28
   2   7   4    2.15    3.93
  -3   3   2   20.85    3.66
   5   6  -2    5.41    6.22
   3  -2  -8  279.06    5.62
  -2  -2  -5  407.07    7.10
   2  -3  -9    4.01    1.70
   2   2   1  619.19    7.51
   6   2 -11    5.65    6.58
   5   4  -3   24.03    6.36
  -1  -3  -7    1.39    2.76
   5   3  -4  194.33    8.49
   5   7  -1   15.25    6.99
   2   3   2  165.67    4.82
   4  10   2    0.60    6.50
   4   6   1    1.23    5.35
   2  10   5   31.63    5.30
   6   3  -8   76.48    8.36
  -1  -2  -4 1911.16   10.65
   5   2  -5  210.84    8.33
  -2  -1  -3  312.93    5.77
   6   2 -10    5.07    6.37
   4   3  -1  408.16    9.46
   1   2   2  121.29    3.31
   4   2  -2   50.23    5.32
   2   9   5    0.47    4.42
   3   2   0  162.83    5.95
   3  11   4   15.48    6.67
   3   3   1   40.23    4.41
  -3   6   4   10.75    3.37
   1   1   1 2883.42   10.94
  -2  -2  -6  246.37    6.83
   0   8   6    6.18    2.51
  -1  -1  -2  245.67    3.84
   6   2  -9   65.06    8.06
   2  -2  -5  136.19    3.08
   6   3  -7  225.86   10.43
   3  -2  -7   10.89    2.93
   5   3  -3  583.23   11.99
  -1  -3  -8  336.44    5.98
  -3   2   0  522.80    7.98
   4  -2 -11   10.02    3.65
   1   9   6   -0.77    3.51
   5   5  -1   13.09    6.30
   5   2  -4    4.88    5.21
   4  10   3    0.09    7.31
   1  -2  -4  667.07    3.02
   6   3  -6   -3.25    6.27
  -2   1   0 1201.32   10.67
   4   9   3    5.00    6.25
   5   6   0   -2.58    6.55
   4  -2 -10    8.75    3.66
  -1   1   1   52.67    1.95
  -1  -3  -9   60.11    4.01
   4   3   0  427.65    9.90
   4   2  -1  456.61    9.88
   2   5   4   12.64    3.99
   6   2  -7    2.50    6.20
   4   4   1   14.01    5.39
   5   3  -2    0.25    5.55
   0  -3  -7  244.60    3.37
   2  -3  -8   -0.47    1.53
   3  -3 -11  259.02    4.60
  -1  -3 -10    6.55    3.55
   6   3  -5  244.79   10.37
   5   2  -3    4.80    5.43
  -1  -2  -5  415.94    5.75
   3  -2  -6   18.81    3.12
   5   5   0   30.04    6.43
   4  -2  -9    9.19    3.65
   3  10   5    6.85    6.16
  -1  -3 -11  247.86    6.45
   3   2   1  270.96    6.69
   3   3   2  274.68    7.15
   2   2   2 1741.18   12.40
   3   9   5    4.33    5.58
   6   2  -6  195.75    9.68
  -2   2   1  165.28    4.18
   5   6   1    2.03    6.42
   2   9   6   24.77    4.89
   2   3   3    4.94    3.17
   4  10   4   37.13    7.77
   3  -3 -10    3.58    2.38
   6   3  -4    0.57    6.20
   3   4   3    4.49    4.61
   5   3  -1 1059.67   15.32
   4  -2  -8  269.65    6.56
   4   3   1  792.05   12.73
   4   2   0   52.75    5.58
   5   2  -2  144.23    7.47
   6   2  -5    5.96    5.95
   4   8   4   36.24    6.68
   5   7   2   15.46    6.78
   5   5   1   -0.41    5.95
   0  -2  -4  175.99    2.28
   2  -2  -4  417.01    4.74
  -1  -1  -3    0.56    2.11
  -1  -2  -6 1052.14    8.76
   3  -2  -5    2.33    2.80
   6   3  -3   21.78    6.90
   3  -3  -9  218.79    4.43
   0  -3  -8  462.15    4.92
   4   7   4   13.58    5.74
   4  -2  -7   22.41    3.87
   5   6   2   18.08    6.58
   6   2  -4   21.74    6.59
   5   3   0    0.15    5.42
   5   2  -1   -1.27    5.29
   3   2   2    3.41    3.72
   4  10   5   25.83    7.54
   3   3   3  577.12    9.27
   4   9   5    4.22    6.37
   4   2   1    3.09    4.66
   4   6   4   28.81    5.77
   4   3   2   14.46    5.15
   6   3  -2  118.63    8.32
   5   7   3    7.90    7.00
  -1  -2  -7  354.04    5.77
   5   5   2   -3.02    5.98
   5  -2 -10    6.10    4.41
   0  -3  -9   21.00    2.47
   3  -3  -8   -0.90    2.49
   6   2  -3   -0.72    6.12
   2  -3  -7  948.03    5.49
   4  -2  -6    1.06    3.67
   1   2   3 1122.04    7.68
   5   6   3   32.78    7.12
   3  -2  -4  867.62    9.22
   2   2   3 1586.29   12.06
   5  -2  -9  166.28    7.29
   0  -3 -10  134.79    3.87
  -1  -2  -8  593.05    8.26
   5   3   1   17.35    5.73
   0  -3 -12   29.75    3.23
   5   2   0  122.36    7.59
   1   1   2  234.89    3.68
   4   5   4    6.49    5.14
   0  -3 -11   16.21    2.86
   2   3   4  581.22    7.66
  -3   6   2   18.51    3.84
   6   3  -1   14.55    6.39
   6   2  -2   25.55    6.62
   4  -3 -10    0.76    2.95
  -1  -2  -9  115.97    4.91
  -1  -1  -4  957.00    7.64
   5  -2  -8   48.91    5.18
   4  -2  -5  623.99   10.08
  -1  -2 -10  211.55    6.38
   5   5   3    3.53    6.11
   3  -3  -7  150.03    3.95
   4   2   2    8.09    4.88
   4   3   3 1808.84   18.13
   4   9   6   44.43    8.07
   2  -2  -3   62.86    2.79
   4  -3  -9    1.78    3.05
   2   4   5   22.84    3.57
   4   6   5    0.45    5.79
   1  -1  -1   64.38    2.04
   3   2   3  777.39   10.97
   5  -2  -7   12.09    4.46
   3   9   7   23.07    6.15
   3   3   4  534.94    9.19
   5   6   4    3.80    6.30
   6   3   0   -1.89    6.21
   5   3   2   95.50    7.17
   5   2   1   -1.26    5.20
   6   2  -1   33.68    6.74
   3  -2  -3   80.38    4.50
  -2   1  -3   56.31    4.78
   4  -3  -8    4.98    3.25
   4  -2  -4  145.36    5.71
  -3   7   2    2.76    3.75
   3   4   5   16.92    4.92
  -2   5   3   -2.14    2.31
   4   5   5    4.71    5.35
  -1   1   0 8235.79   62.83
   5  -2  -6   26.53    4.95
  -3   6   1    3.05    3.94
   5   5   4   -0.01    5.97
   3  -3  -6   10.62    2.69
   0  -2  -5 1359.00    6.24
   4  -3  -7   14.59    3.48
   6   2   0   72.32    7.78
   4   2   3    9.91    4.84
   4   3   4   64.13    6.12
   5   2   2  116.32    7.54
  -2   1  -4  879.32   11.39
   5   3   3  147.20    7.99
   5  -2  -5  125.69    6.89
   2   2   4  585.17    7.82
   4  -2  -3    1.32    4.04
   5   4   4   -1.47    5.83
   2   3   5   29.31    3.71
   3   2   4  449.07    9.29
   6  -2  -8   18.78    5.79
   0   4   5   -0.45    1.43
   4  -3  -6    8.48    3.49
   3  -2  -2  156.84    5.42
   3   3   5  408.62    8.64
   3  -3  -5  126.90    3.97
   6   2   1    8.93    6.29
   4   8   7   16.54    6.61
   5   5   5    3.14    6.23
   2  -2  -2   67.05    3.01
   5  -2  -4    5.15    4.53
   6  -2  -7   22.02    6.07
   5  -3  -8    2.71    4.08
   4   5   6    8.58    5.58
  -2   7   4    8.39    2.51
   3   6   7   27.36    5.14
   5   2   3   61.48    6.77
   4   7   7    6.42    5.79
   4   2   4  313.44    8.75
   5   3   4   41.97    6.46
   4  -2  -2   20.53    4.68
   1   2   4 1866.38   10.03
   4  -3  -5   90.82    4.71
   6  -2  -6  105.72    8.17
   5  -3  -7  182.98    6.58
   4   3   5   16.90    5.36
   0  -2  -6    2.40    1.72
   5   4   5    2.15    6.27
   5  -2  -3   28.82    5.22
   1   3   5    9.94    2.39
   0   7   7    7.05    1.97
   6   2   2   26.78    6.79
   1   1   3    1.09    2.06
  -2   2  -3 1177.85   10.72
   4   6   7   13.61    6.06
   6  -2  -5    1.69    5.88
   3  -3  -4   40.97    3.19
   5  -3  -6   34.77    4.84
  -2   6   3    1.11    2.44
   0  -2 -12  244.38    6.81
   3   5   7    0.14    4.52
   3  -2  -1 1578.32   13.30
   5   5   6    5.27    6.80
   3   2   5    4.03    4.36
  -2   3  -1   19.76    3.28
   4  -3  -4   49.77    4.64
   5   2   4   54.35    6.98
   0  -2 -11    0.72    3.15
   4  -2  -1  516.08   10.37
   1   7   8    6.21    3.08
   2  -1   1  159.09    5.48
   2   2   5  408.72    7.02
   5  -2  -2   69.23    6.69
   3   3   6    1.58    4.53
   0  -2  -7 1246.90    7.59
   6  -2  -4   54.00    7.30
   5  -3  -5   56.01    5.78
   4   5   7    7.21    5.47
   5   3   5   30.76    6.70
   4   2   5   -0.49    4.93
   0  -2 -10  224.01    5.10
   0  -2  -8  100.85    3.34
   1  -3 -11   44.29    2.50
   4   7   8    1.54    6.47
   2  -2  -1  163.89    3.95
   5   4   6    1.80    6.18
   0  -2  -9  186.32    4.49
   4   3   6   19.17    5.24
   1  -1   0 8707.73   65.29
   6  -3  -7  362.30   10.17
   4  -4  -9   10.85    3.15
   4  -3  -3  212.06    6.46
   3  -3  -3    1.50    2.83
   6  -2  -3    1.81    5.55
   5  -3  -4  183.48    7.19
   5  -2  -1    3.45    5.05
   3  -2   0  520.69    8.00
   4   6   8   16.78    6.16
   1  -3 -10   77.04    2.45
   6  -3  -6   -3.26    5.33
   4  -2   0   78.05    5.66
   5   2   5    9.02    6.04
   2  -3  -4    4.80    1.85
   5   3   6  146.47    8.24
  -2   7   3   17.80    3.01
   6  -2  -2   45.71    6.68
   5  -3  -3  869.77   13.10
   1  -3  -9  470.87    3.69
   3   5   8   25.97    5.31
   3   2   6   40.79    5.05
   6  -3  -5  111.24    7.72
  -2   3  -3   17.50    3.45
   4  -3  -2  125.27    5.60
   4   2   6  130.52    7.01
   4   5   8    4.73    5.81
   5  -2   0  199.65    8.03
   5   4   7   -2.59    6.62
   3   3   7 1714.77   16.20
   3  -3  -2   23.68    3.06
   5  -4  -7   10.45    4.22
   4   3   7  312.07    9.44
   2  -1   2    3.41    2.97
   3   7   9   19.27    5.44
   6  -3  -4   13.50    5.81
  -2   4  -1    6.94    3.08
   6  -2  -1   23.76    5.92
  -1   1  -2   76.09    3.00
   4   7   9    4.26    6.21
   4  -2   1    7.37    4.44
   5  -3  -2    3.79    4.71
   2   2   6  206.47    5.64
   2  -2   0 2354.06   12.90
   3  -2   1   32.85    4.58
   5   2   6    0.84    5.81
   4  -4  -5   -0.68    3.41
   4   4   8    2.34    5.81
   4  -3  -1  103.39    5.96
   0   6   7    3.73    1.80
   6  -3  -3  138.14    8.18
  -2   8   3    0.33    2.98
   1   1   4  869.42    7.73
   5   3   7    3.00    6.57
   2   3   7  508.62    8.14
   3   6   9   -0.58    4.53
   4   6   9   39.94    6.90
   5  -2   1   -2.43    4.95
   5  -4  -5   21.83    4.61
   6  -2   0   83.24    7.96
   5  -3  -1  559.96   11.52
   3  -3  -1   49.69    3.74
   4   2   7  115.83    7.71
   3   2   7   27.23    4.68
   6  -3  -2   36.07    6.69
   4  -2   2    1.97    4.50
  -1   1  -3    9.68    2.52
   4   5   9    3.26    5.91
   3   5   9    2.59    4.65
   4   3   8  107.01    7.13
   4  -3   0  235.75    7.72
   5   2   7   86.10    8.21
   3  -4  -5    0.54    2.62
   3   3   8  271.96    7.99
   6  -2   1   -1.55    6.16
   5  -2   2  149.39    7.99
   3  -2   2   34.01    4.32
   5  -3   0    5.71    4.95
   6  -3  -1   20.29    6.11
   5   3   8   58.34    7.58
  -1   1  -4  638.98    8.45
   2  -2   1  354.87    5.95
  -1   1  -8  191.17    6.97
  -2   8   2    2.35    3.41
   3  -3   0  351.18    6.68
  -1   1  -5  204.69    5.25
   2   2   7 1088.03   11.20
  -2   6   0    2.90    3.50
   4   6  10    1.77    6.46
   4  -2   3    4.30    4.76
  -1   1  -6   96.95    4.75
   6  -2   2    6.18    6.27
   4  -3   1 1547.50   15.43
  -1   6   5    6.79    1.26
   4   2   8   -0.27    5.23
   6  -3   0   31.14    6.32
   5  -2   3   82.28    7.10
   4  -4  -2    2.60    4.14
   5  -3   1  229.35    8.45
   5   2   8   33.89    7.12
   3   2   8  148.57    6.70
   4   5  10   19.41    6.62
   4   3   9  102.82    7.20
   3  -2   3 1011.56   12.52
  -1   4   3    1.22    1.44
   1  -2 -12   15.67    3.12
   3  -4  -3   21.09    3.14
   0  -1  -4 9491.06   64.00
   6  -3   1    1.56    5.70
   1   2   6 1035.68    8.49
   3   5  10   27.24    5.64
   3  -3   1   22.18    3.75
   3   3   9   10.31    5.07
   4  -4  -1    8.00    4.04
  -2   7   0   -0.89    3.66
   1   1   5   97.59    3.65
   5  -3   2    6.41    5.37
   4  -2   4  258.10    8.97
   5  -2   4   24.15    6.32
   2  -1   4  721.95   11.27
   2  -2   2  819.98    8.47
   4   4  10   -1.33    5.97
   0  -1  -5  982.75    6.12
   6  -4  -1   42.14    7.11
   4   2   9   39.18    6.17
   6  -3   2   63.14    7.56
   6  -5  -5   44.16    6.46
   3  -2   4  687.37   10.84
   1  -1   2   75.98    3.06
   4  -5  -8   19.32    3.11
   2   2   8  618.74    9.56
   5  -3   3  193.04    8.51
   1  -2 -11  400.66    5.87
   6  -4   0    0.14    5.99
   3  -3   2  144.11    5.50
   4   3  10  119.63    7.83
   4  -3   3 1105.54   15.34
   3   2   9   -2.80    4.28
  -1   2  -7  136.81    5.13
   5  -2   5    7.45    5.65
   0   5   7    8.38    1.74
   4   5  11    8.46    6.90
   4  -2   5    2.24    4.94
   3   6  11    2.41    5.09
   6  -5  -3   -2.85    5.95
  -1   2  -5  726.88    8.09
   4  -4   1    4.34    4.67
   6  -4   1    6.19    5.92
   3   3  10    0.32    4.81
   2  -2   3 1162.38   10.43
   2   6  11    5.00    4.30
   4   4  11   21.03    6.47
   3   5  11   12.96    5.42
   5  -3   4   95.17    7.20
   6  -5  -2   13.52    6.19
   4   2  10   31.78    6.61
   4  -3   4  176.88    7.38
   3  -2   5    7.76    4.42
   5  -2   6   11.66    6.13
   3  -3   3  160.49    6.22
   4  -2   6   88.79    7.13
   6  -4   2    6.30    6.34
   1  -2 -10   44.28    2.87
   6  -5  -1   -2.66    6.05
   2   4  10   -1.54    4.12
   1   1   6  184.75    4.57
   4   3  11   -1.40    6.17
  -1   7   5   12.07    1.81
   2  -3   1   20.98    3.17
   3   2  10   21.73    5.41
   5  -3   5   37.65    6.48
   2   2   9    4.99    4.07
   6  -5   0   10.00    6.17
   1  -1   3    5.81    2.45
   4  -3   5  400.82    9.93
   2  -2   4 1379.31   11.99
   5  -2   7  118.04    8.98
   3  -3   4   65.53    5.47
   3  -2   6   62.95    5.75
   3   3  11  275.27    8.89
   4   4  12    6.73    6.39
   4  -2   7  189.73    8.89
   4   2  11   81.20    8.42
   5  -5   1   -0.72    5.41
   6  -5   1   20.93    6.64
   2   3  10   41.16    4.78
  -1   3  -5    1.05    3.29
   5  -4   4    0.55    5.92
   5  -3   6   67.41    7.65
   5  -6  -5    1.40    4.31
   3   5  12    2.25    5.52
   5  -6  -4    8.16    4.53
   2   5  11   13.46    4.49
   1  -2  -9  682.02    6.11
   5  -6  -3   19.19    5.00
   4  -3   6    3.02    5.19
   4   3  12   25.13    7.09
   5  -5   2   -3.70    5.56
   4  -4   4  193.20    7.66
   1  10  -9   84.90    9.53
   1   8  -5  386.32   10.58
   0   3   1  459.05    4.69
   1   4  -3  131.30    5.87
   1  10  -8  210.88   11.26
   0   5   1  390.50    6.07
   1   9  -6  141.46    8.68
   1   3  -3 1323.08   10.89
   1   5  -3   40.98    4.55
   0   8   0  116.44    6.17
  -2  -4   2  150.44    5.83
  -1   8   3  137.57    5.17
  -1  11   1   92.89    6.67
  -1  -5  -2 1329.31   11.20
   2   4 -12   -0.60    5.76
   0   6   1  119.62    4.49
   2   4 -14  155.71    8.95
   2   3 -13  160.68    8.18
   1   9  -5   53.67    6.94
   2   5 -12  284.18   10.46
   2   3 -12   42.04    6.18
   1   8  -4   76.42    7.03
  -1  -6  -4  235.90    5.96
   1   2  -3 1174.51    9.40
  -1  -7  -7  663.87    9.58
   1  10  -6  136.52    9.14
   0  11  -2   68.99    7.30
   2   4 -10    0.80    5.39
   2   5 -10   34.16    6.48
   1   7  -3  140.00    7.08
   2   5 -16  184.59   11.45
   2   3 -10   44.16    6.29
   2   6 -10   36.79    6.90
   0  12  -5    1.75    7.50
   0   7   1   56.93    4.28
   2   4  -9  184.79    8.17
   2   5  -9   55.82    6.83
   1   9  -4  148.10    8.17
   2   3  -9  104.00    6.57
   2   6  -9   69.29    6.88
   2   7 -10   60.03    7.66
  -2  -5   0 1908.55   15.82
  -1  -4  -1    3.42    3.16
   2   8 -12  190.55   11.05
   1   8  -3  969.89   13.97
   1   5  -2  231.87    6.09
   0   2   1 3553.15    8.80
   2   8 -11  407.68   13.20
   1   4  -2 2956.88   16.50
   2   5  -8   16.42    5.86
   2   4  -8   44.97    5.91
   0  12  -4  126.14    9.72
   1   6  -2    0.67    4.25
   2   8 -10   22.61    7.56
   2   6  -8  442.76   11.06
   0  11  -1  568.45   12.38
  -1  12   0  100.42    7.77
   2   3  -8   39.89    5.31
   0   8   1 2192.16   16.45
  -2  -4   1   77.64    4.88
   1  10  -4  114.57    8.41
  -1  11   2   96.09    6.26
  -1  -6  -5  117.37    4.85
   1   3  -2  525.65    7.09
   0  10   0  358.42    9.36
   2   8  -9  319.74   11.57
  -1  -3   0   -1.17    3.10
   0  -3  -3 3045.61    8.88
   1   7  -2   17.52    4.94
   1  11  -5  454.99   13.23
   1   9  -3   61.61    6.56
  -1   5   4   52.61    1.88
   2   5  -7    2.63    5.37
   2   9 -10  237.87   11.61
  -1  -5  -3   -1.16    2.94
   2   6  -7    3.52    5.67
  -1   6   4  576.97    5.17
   2   8  -8   22.51    7.23
   2   2  -8  139.70    5.92
   0  12  -3   65.07    8.08
   2   7  -7  182.18    8.72
   1   8  -2  546.16   10.85
   2   3  -7  625.80   10.30
   0   9   1  135.98    6.20
  -1  10   3   74.77    5.03
   2   9  -8  124.78    9.19
   2   8  -7  125.55    8.45
   2   5  -6  348.87    9.13
  -2  -5  -1  451.14    8.61
   2   6  -6   31.13    6.29
  -3   4   7   24.08    3.27
   2  10  -9   91.05    9.66
   1   2  -2 1090.59    8.59
   2   4  -6  567.17   10.25
   1   9  -2 1746.79   18.57
   2   9  -7    9.25    7.14
   1   6  -1  599.13    9.13
   1   5  -1  114.69    4.89
  -1  -6  -6    0.81    3.64
   0   6   2   33.79    3.21
   2   8  -6  263.34    9.85
   2   3  -6  225.14    6.69
   0   5   2  121.61    3.65
   1   7  -1   48.30    5.19
   1  11  -3   53.89    7.41
   0  10   1   70.34    5.81
   0   7   2   46.20    3.98
   1   4  -1 1164.09   10.45
  -1  -4  -2  646.48    7.51
   2   6  -5   35.84    6.21
  -2  -4   0  561.27    8.77
   2   5  -5  403.23    9.25
   2  10  -7    1.51    7.23
  -1   8   4  123.17    4.28
   2   9  -6 1485.44   20.13
   1   8  -1   93.85    6.50
   2   7  -5   18.47    6.11
  -3   5   7    1.49    2.57
   2   4  -5  334.95    8.02
  -1  -5  -4 3135.33   16.06
   0   8   2  493.97    8.25
   2   8  -5  127.14    8.07
   0  12  -1    2.15    6.43
   0   4   2 2854.51   11.27
   1  12  -5    5.66    7.61
   1   9  -1  390.83    9.54
  -2  -5  -2   10.92    4.18
   0  -2  -2  484.52    3.12
   3   6 -14   82.15    9.41
   1   3  -1 3705.76   16.03
   2   9  -5  354.78   11.15
   2   3  -5 1624.46   14.12
   3   6 -12  120.11    9.31
   2   6  -4   29.57    5.82
   0   9   2  969.99   11.60
  -1   9   4  204.31    5.24
   0  -5  -8 1529.40    7.81
   2   7  -4   81.14    6.56
   2   5  -4 1810.05   16.53
   1  10  -1  165.74    8.06
   3   7 -11  114.19    9.35
   1  12  -4  154.32   10.45
   2   8  -4    2.98    5.75
   1   6   0  253.34    6.30
   1   7   0  461.39    8.61
   3   6 -10   55.13    7.61
   2   4  -4  296.62    7.40
   3   5 -10   79.19    7.39
   1   8   0   19.68    4.94
   0  12   0  103.88    7.85
   0  10   2  132.03    6.19
   1   5   0 2299.57   14.78
   3   4 -10   26.18    5.95
   3   7  -9    0.98    6.64
   1  -3  -8  151.71    2.24
  -1  -6  -8   32.67    3.93
   3   3 -11  161.60    7.77
   1  12  -3   77.50    8.57
   3   8  -9  102.85    9.10
   3   5  -9  264.02    9.70
  -2  -5  -3  229.10    6.65
  -1  10   4  506.06    7.98
   1   9   0   68.80    6.01
  -1  -5  -5  137.97    4.69
   2   7  -3   43.96    6.16
   3   9  -9  210.63   11.35
  -1  -4  -3  235.22    4.95
   3   4  -9   40.74    6.32
   2   5  -3  211.08    7.06
   1   4   0 1397.00   10.86
   1   2  -1  519.24    6.00
   3   5  -8  640.53   12.82
   3   9  -8    8.90    7.64
   0   3   2  729.54    4.90
   2   4  -3   10.52    4.17
  -1  -6  -9   83.15    4.59
   2  10  -3   81.53    8.00
   0  12   1   71.54    6.78
   2  12  -4   61.17    9.06
   0   8   3  113.72    4.98
   3   9  -7    0.70    7.23
   3   5  -7  181.31    8.11
   2   7  -2   61.06    6.28
   0   6   3  677.88    7.02
   2   6  -2  240.50    7.76
   1   7   1   73.16    5.09
   0   9   3  330.66    7.26
   1   8   1    3.52    4.80
  -2  -4  -2  257.98    6.44
   2   9  -2  486.28   11.44
   3   3  -8   41.79    5.70
   3   7  -6   69.25    7.16
   3   4  -7   55.66    6.31
   1   6   1    6.73    3.50
  -1  -5  -6   12.78    3.37
   0  -4  -6  602.01    4.76
   3   6  -6   10.46    5.76
   1   9   1   66.01    5.79
   2   3  -3   16.10    3.78
   2   5  -2  514.82    9.12
   3   9  -6  120.78    8.89
   1   3   0   -1.00    2.73
  -3   4   6   19.12    3.32
   2  10  -2  261.84    9.82
   0  10   3  146.01    6.07
   3   5  -6   51.08    6.41
   3  10  -6  178.75   10.53
   1  10   1   80.81    6.43
   0  -3  -4   40.86    1.85
   1   5   1  115.35    4.46
   3   3  -7   18.75    5.13
   3   7  -5  502.38   11.87
   2   4  -2  139.32    5.47
  -1  -4  -4   60.35    3.37
   3   4  -6   73.36    6.37
   3   6  -5  317.78    9.63
  -2  -5  -5  160.47    6.08
   4   5 -14   10.28    7.54
   2   8  -1   24.38    5.32
   2   7  -1  436.21    9.61
  -4   4   6   92.15    5.42
   3  10  -5  181.18   10.13
   4   5 -13   74.57    8.83
   3   5  -5    0.34    5.33
   2   6  -1  492.82    9.35
   4   5 -12  125.88    8.92
   2  10  -1  297.90   10.01
   1  12   0   65.42    7.42
  -2  -4  -3  152.10    5.44
  -1  -5  -7  107.09    4.46
   2  12  -3   92.26    9.34
   4   5 -11   67.27    7.80
   3   9  -4   66.90    7.60
   1   4   1    0.83    3.19
   2  11  -1   99.33    8.05
   4   4 -12  121.81    8.94
   2   5  -1   16.88    4.07
   3  10  -4   89.28    8.38
   1   8   2    4.63    4.13
  -1   9   5  112.73    3.75
   2   3  -2  125.63    5.08
  -3   5   6  747.14    7.35
   4   7  -9  276.49   11.45
   1   9   2 1020.29   12.66
   4   5 -10    7.50    6.52
   1   7   2   36.79    4.46
   4   4 -11   51.62    7.15
   4   6  -9   75.10    7.59
   1  10   2  181.43    7.10
   3   5  -4  178.84    7.65
   2   8   0    0.59    4.73
   4   4 -10  104.04    8.03
   3   8  -3  105.68    7.75
   1   6   2  737.28    8.93
   3   7  -3    9.95    5.61
   2  10   0   87.75    7.03
  -1  -5  -8  145.20    5.05
   2   4  -1   74.41    4.59
   3  10  -3   92.73    8.40
   1  12   1  128.55    8.05
   0   9   4  106.71    4.68
  -1  -4  -5   36.29    3.13
  -2  -4  -4  780.25   10.16
   3   6  -3   42.93    6.03
   4   8  -7   64.54    8.29
   3   4  -4  859.00   12.33
   2   6   0  158.41    6.28
  -2   4   5  460.29    4.22
   0   8   4   22.24    3.51
   4   7  -7    3.58    6.88
   0  10   4   33.49    4.17
  -1   8   5 1728.51    9.48
   0   4   3  544.48    4.83
   0  -4  -7  106.65    2.66
   3   5  -3  285.81    8.49
   1   5   2 1262.06   10.46
   0   7   4  574.92    6.85
   3   9  -2   67.43    7.36
   4   4  -8  489.10   11.85
   2   5   0 1822.76   15.13
  -1  -5  -9   87.38    4.38
   4   5  -7   43.28    6.66
  -3   6   6  108.07    3.62
   3   7  -2  117.77    7.27
   3   3  -4   14.51    4.64
   4   6  -6  203.26    9.38
   2   8   1   59.44    5.42
   2  10   1  250.42    8.97
   3   6  -2  305.05    9.07
   1  10   3  247.11    7.72
   1   8   3  300.24    7.15
   4   9  -5    8.58    7.27
   4   8  -5  558.33   13.97
   4   4  -7   31.77    5.96
   2   7   1    1.94    4.57
   4   5  -6  290.07   10.01
   4   7  -5    1.77    6.55
  -1  -5 -10  181.11    5.56
   1  11   3  276.40    8.49
   1   7   3  118.91    5.01
  -1  -4  -6   32.52    3.23
   3   5  -2  100.44    6.50
   2   4   0  534.32    8.21
   3   8  -1  920.32   14.78
   4   6  -5  197.64    9.01
   2   6   1    3.82    4.04
   0   6   4  279.11    4.51
   3   7  -1  160.90    7.67
   4   4  -6  462.27   10.92
   1   4   2  594.99    7.02
   4   5  -5   83.74    7.03
   4   7  -4  108.99    8.06
  -2  -4  -6  207.41    6.48
   3   6  -1  133.11    6.92
   1   6   3  138.80    4.65
   5   4 -12  159.41   10.01
   3   4  -2  544.56    9.96
   4   6  -4  253.46    9.49
   5   5 -10  289.92   11.60
   2   5   1  407.37    7.63
   2   8   2   44.42    5.32
   3   9   0   65.94    6.87
   4   8  -3   27.86    6.74
   0  -4  -8   -0.20    1.93
   3   5  -1  219.09    7.67
   4   5  -4   61.95    6.54
   4   7  -3  172.56    8.91
  -1  -4  -7  113.58    4.22
   5   4 -10  195.66    9.73
  -3   5   5   76.95    3.84
   3   7   0   70.61    6.38
   0   9   5  185.12    5.11
   4   6  -3   58.81    6.92
   5   5  -8   12.44    7.00
   3   6   0  508.24   10.44
   2   6   2  150.24    5.88
   4   3  -5   71.19    6.37
   4   4  -4   30.49    5.71
   1   5   3   -0.26    2.85
   3   4  -1   10.63    4.69
   1   8   4    4.24    3.66
   4   5  -3  181.16    8.25
   4   7  -2  111.17    8.07
   5   5  -7   87.78    8.18
  -2   5   5  123.23    2.59
   5   6  -6   79.95    8.21
   3   8   1  136.05    7.50
  -1  -4  -8  746.27    8.71
   2   9   3   90.14    6.11
   3  12   1   67.89    8.68
   3   5   0   55.76    5.63
   4   6  -2  129.05    7.71
  -3   4   4  785.66    8.50
   5   7  -5  221.59   10.83
   2   8   3  885.44   12.15
   0   5   4 1059.25    6.86
   3   7   1  251.78    8.41
   4   9  -1  311.66   11.38
   2   5   2    9.66    3.65
   1   7   4   69.46    4.34
   5   5  -6 1181.81   18.33
   0  -4  -9    3.48    2.29
   4   8  -1    0.25    6.16
   0   8   5  126.19    4.14
   2   7   3  602.41    9.97
  -3   6   5  201.82    4.84
   4   5  -2 2041.20   20.66
   4   7  -1  428.81   11.66
   3   6   1  324.62    8.79
   5   4  -6   73.58    7.59
   3   4   0  312.57    7.99
   3   8   2   82.94    6.75
  -1  -4 -10  242.36    6.01
   1  10   5  290.77    7.45
   1   6   4  222.74    5.26
   4   8   0  126.52    8.50
   1   4   3  224.37    4.60
   3   5   1  203.93    7.34
   2   4   2  241.75    5.88
   5   7  -3   94.22    8.62
   3   7   2  264.37    8.54
   4   5  -1    0.83    5.47
   4   7   0  262.03    9.65
   5   5  -4   20.10    6.49
  -1  -4 -11   68.84    4.53
   0   7   5  121.60    3.65
   0   3   3 3007.50    8.49
  -2   4   4   14.11    1.95
  -3   5   4  456.91    6.91
   4   6   0   71.08    6.88
   3   6   2  253.10    8.12
   4   9   1   49.55    7.32
   0  -4 -11   21.46    2.79
   5   4  -4  122.42    8.34
   3   9   3  547.29   12.13
   2   5   3  211.85    6.01
   3   4   1   68.28    5.35
   5   5  -3  107.49    8.15
  -2   2   2   66.59    3.12
   3   8   3   36.60    6.03
  -2   3   3  313.42    4.52
   1   8   5   23.21    3.74
   4   5   0   80.91    6.74
   4   7   1  147.45    8.18
   0   9   6  882.20    8.41
   1   5   4 2975.40   15.14
   3   5   2 1895.99   17.53
   3   7   3  357.32    9.33
   5   5  -2  454.13   12.37
   4   9   2   -0.21    6.73
   1   7   5   13.20    3.50
  -2   6   5  112.03    2.66
   4   8   2    0.21    6.13
   2   6   4  272.99    6.97
   4   4   0  137.15    7.19
   5   6  -1  182.76    9.46
   3  10   4   49.65    6.86
   3   6   3  105.75    6.20
  -1   8   6  231.44    2.58
   3   9   4    6.64    5.42
   2   4   3  146.79    5.17
   4   5   1  283.20    9.21
   4   7   2    1.89    5.77
   3   4   2   75.40    5.38
   5   4  -2  388.02   11.21
   1   3   3  862.94    7.46
   5   7   0   69.93    8.09
   3   8   4  121.04    7.25
   2   8   5  112.95    5.97
  -3   5   3  341.93    6.55
   4   6   2   99.73    7.17
  -3   3   1   42.40    3.90
   3   5   3    6.93    4.68
  -3   4   2   40.28    3.97
   3   7   4  572.02   11.23
   4   8   3  174.79    9.03
   1   6   5  111.80    4.29
   5   4  -1  102.82    7.84
   2   7   5  408.66    8.35
   5   7   1   13.41    7.25
   1   4   4   58.36    3.17
  -3   7   4   29.50    3.62
   4   5   2 1190.38   16.21
   4   7   3    2.05    5.75
   0   5   5   45.88    2.13
   3   6   4  340.49    8.79
   0   7   6   58.20    2.87
  -2   5   4  235.41    3.80
   4   6   3  108.23    7.23
   4   9   4  112.18    8.60
   5   4   0  442.16   11.98
   2   6   5  357.71    7.78
   3   8   5   80.62    6.61
  -3   3   0  317.32    6.85
   1   8   6   58.79    4.03
   4   4   2  284.91    9.05
  -2   3   2   17.94    2.64
  -3   6   3   48.41    4.13
  -2   4   3   36.17    2.44
   2   4   4  784.54    9.68
   3   5   4   88.66    5.98
  -3   4   1   62.07    4.34
  -3   5   2   15.50    3.79
   4   5   3    2.51    4.96
   3   7   5  101.40    6.51
   1   5   5  138.10    4.19
  -1   2   2  543.19    3.64
   2   8   6   49.11    5.00
  -2   7   5   85.50    2.76
   5   4   1  177.46    8.95
   3   9   6   13.62    5.53
   1   7   6   23.75    3.52
   2   5   5  155.28    5.70
   3   6   5   45.60    5.41
   4   4   3   83.35    6.54
   2   7   6  224.14    6.79
  -3   7   3  227.42    5.94
   3   4   4  218.66    7.12
   4   8   5   65.19    7.49
  -2   2   0 2522.67   13.34
   2   9   7  530.39   10.11
  -3   4   0  903.36   10.76
   3   8   6   16.17    5.25
   1   8   7  284.99    6.06
   1   3   4  410.39    5.49
   5   4   2   42.80    6.61
   4   7   5   39.15    6.27
  -3   5   1   63.07    4.73
   3   5   5  367.25    8.77
   0   6   6  418.09    4.47
  -1   3   3 2366.99    6.14
   3   7   6   -0.51    5.01
   2   6   6  344.48    7.55
   1   6   6   -0.24    2.92
  -2   6   4  321.53    4.55
  -2   3   1 1201.08    9.16
   4   4   4  590.54   12.06
   1   4   5   35.76    2.82
   1   7   7  769.73    8.73
   4   8   6   75.14    7.78
   3   6   6  154.66    7.02
   5   4   3  203.02    9.27
   0   8   7  403.58    4.91
   2   8   7  211.46    7.01
  -2   4   2  351.29    5.11
  -2   2  -1  387.37    6.24
   0   3   4   39.39    1.70
   4   7   6   12.67    6.25
   2   5   6  760.29   10.07
   2  -3  -6    9.82    1.67
   3   8   7  366.80    9.93
   2   7   7   67.50    5.02
   3   5   6 1417.63   15.79
   4   9   7    6.63    6.54
   5   6   5   80.71    8.36
   4   6   6   67.20    6.76
   0   2   3  297.84    2.49
   1   5   6   12.79    2.82
   4   4   5  299.17    9.27
   3   7   7   16.06    4.88
  -2   3   0  376.99    5.93
  -2   2  -2  775.69    8.58
   2   6   7  115.77    5.39
   2   4   6  206.12    6.13
   3   4   6   83.60    5.55
   1   8   8   30.86    3.56
  -2   4   1  100.17    3.72
   4   4   6   42.94    6.15
   2  -3  -5 1173.83    6.68
   3   8   8   90.61    6.96
   2   8   8   54.46    5.04
  -2   5   2 3093.01   14.47
   2   5   7   45.89    4.55
   1  -2  -3 1301.87    4.49
   0   5   6  448.58    4.20
   3   7   8    9.81    5.26
   4   8   8   92.97    8.22
  -2   2  -4 1467.66   13.02
  -1   2   1  162.55    2.84
   1   4   6   36.20    3.00
  -1   1  -1 2241.48    9.86
   2   7   8  354.19    7.97
  -2   8   4   70.79    3.60
   2   3   6  211.72    5.93
   3   4   7   33.15    5.23
   3   6   8   64.46    6.26
  -2   3  -2  280.47    6.06
  -2   4   0  299.38    5.69
   4  -4  -8  616.48    8.25
   4   4   7  313.57    9.92
   5   5   7   55.47    7.76
   2   4   7   39.30    4.59
   2   6   8  419.97    8.64
   4  -4  -7  105.29    4.64
   1   6   8   32.41    3.39
  -2   5   1  183.82    4.70
   1   5   7  112.79    4.21
   5  -4  -8   30.35    4.58
  -2   6   2  242.76    5.11
   3  -4  -9   21.92    2.14
   4  -4  -6  106.62    4.72
   3  -4  -8   16.43    2.27
   3  -4 -10   69.93    2.39
  -2   3  -4  417.53    7.60
   2   5   8  114.24    5.52
   1   2   5  364.59    5.36
   5  -4  -6   34.87    4.90
   3  -4  -7   27.72    2.64
   3   4   8  583.61   11.01
   1   3   6  390.87    5.74
  -2   4  -2   23.08    3.70
  -2   5   0 1542.33   11.92
   2  -3  -3  311.27    4.38
   2   7   9   59.70    5.03
   3  -4  -6   21.59    2.75
  -1   3   2  153.55    2.51
   3   7  10   73.46    6.80
   4  -4  -4  226.78    6.40
   0  -1  -3  103.07    1.86
  -2   7   2  173.57    5.10
  -2   6   1   67.89    3.94
   5  -4  -4    7.80    4.51
  -2   4  -3  107.18    5.04
   6  -4  -6  428.13   11.24
  -1   2   0  546.99    4.97
   2   4   8  197.35    6.47
   1   7   9  461.70    7.08
   1   4   7  105.52    3.92
   2   6   9  152.23    6.10
   1  -1   1 2114.91    9.45
   6  -4  -5   65.33    7.02
  -2   5  -1  484.55    7.74
   4  -4  -3   52.65    4.60
   5  -4  -3   53.96    5.60
   4   4   9   22.85    6.51
   1  -2  -2  546.14    3.63
   6  -4  -4   97.14    7.77
   3   4   9  119.04    6.93
   3  -4  -4  832.77    8.55
   2  -3  -2   16.92    2.53
  -2   5  -2  248.89    6.32
  -2   7   1  184.68    5.68
   5  -4  -2  671.28   12.19
   2   5   9  256.36    7.17
  -1   8   6  231.44    2.58
   3   6  10  106.03    7.24
   6  -4  -3  119.06    8.43
   0   3   5  475.91    3.92
   1   6   9   92.22    4.07
   2   3   8  134.85    5.66
   0   4   6  587.82    4.53
  -2   6  -1  247.58    6.19
   6  -4  -2   73.63    7.78
   5  -4  -1   52.76    6.14
  -1   2  -1 1262.89    8.03
  -2   8   1   54.22    4.45
   5  -5  -6  833.87   11.67
   2  -3  -1 1274.92    9.12
  -1   5   4   52.61    1.88
   2   4   9  110.47    5.39
   1   3   7    3.31    2.64
   5  -5  -5   40.40    5.04
   3  -4  -2   38.72    3.79
   5  -4   0  187.01    8.11
   0   2   4  145.79    2.25
   3   4  10   16.77    5.38
   4  -4   0   12.76    4.43
   4  -5  -7  130.55    4.66
   5  -5  -4  178.11    7.27
   2   6  10   70.65    5.22
   4  -5  -6    8.42    3.27
  -1   3   1 2911.30   10.34
  -1   2  -2  231.69    4.31
   1   5   9   84.44    4.07
   4  -5  -5   12.63    3.48
   6  -5  -4   78.83    7.29
   5  -5  -3   55.05    5.67
   5  -4   1  340.22   10.11
   3  -4  -1   67.71    4.38
   1  -2  -1  149.22    2.59
   0   7   8  231.48    3.20
   1   4   8  745.88    8.32
  -1   2  -3  695.25    7.27
  -1   2  -6  468.92    7.40
   4  -5  -4  464.37    8.16
   2   3   9   14.91    4.00
   2  -3   0  376.93    5.83
   2   5  10  890.88   11.88
  -1   2  -4 1800.98   11.97
   5  -5  -2  667.59   11.91
   4  -5  -3    1.78    3.82
   5  -4   2  198.66    8.61
   3  -4   0  961.61   10.82
   5  -5  -1   52.64    6.01
   4  -5  -2 1062.77   12.50
   4  -4   2  561.86   10.93
   1   2   7  328.22    5.70
  -1   3   0  131.70    3.32
   3   4  11  192.73    8.32
   1   6  10  188.65    5.11
   5  -5   0   54.54    6.31
   5  -4   3  101.76    7.44
   4  -5  -1  114.64    6.00
  -1   4   2 2188.41    9.07
   3  -4   1   37.77    4.54
   1   3   8  333.75    5.99
  -1   3  -6  207.34    5.96
   1  -2   0  539.95    4.86
   4  -4   3   48.87    5.71
  -1   3  -1  178.42    4.11
   4  -5   0  306.59    8.11
  -1   3  -4  852.46    9.13
  -1   3  -2   32.49    3.21
   2  -3   2  295.67    5.96
  -1   8   5 1728.51    9.48
   1   5  10  185.99    5.21
   3  -4   2   53.94    4.83
  -1   3  -3 1721.92   11.75
   6  -6  -3   15.62    6.13
  -1   6   4  576.97    5.17
  -1   5   3  304.71    3.73
   3  -5  -4  472.95    6.73
   3  -5  -5   83.04    3.65
   4  -5   1  234.44    7.77
   0   6   8   98.39    2.52
   1   4   9    2.16    3.11
   3   4  12    5.74    5.84
   2   4  11   17.44    4.63
  -4  -2  -5   -0.41    5.38
  -5  -5  -4   -3.12    7.27
  -4  -5  -4    3.09    6.37
  -5  -3  -5   42.20    7.34
  -3  -9  -1    3.46    6.24
  -6  -2  -5   40.92    8.40
  -4  -3  -5   19.56    6.49
  -3 -11   2   -0.88    6.57
   0   5   3    8.15    3.38
  -5  -6  -4    0.40    7.63
  -3 -10   0    3.49    6.65
  -5  -4  -5    5.28    6.53
   1   1   5  119.60    4.27
  -3  -2  -5    1.75    4.94
  -4  -6  -4   38.29    7.07
  -1  -6  -1    8.00    3.70
  -2  -2  -4  609.88    8.15
  -4  -4  -5  323.75   10.11
  -3 -12   3   17.70    7.08
  -4   3  -5  386.86    7.20
  -2 -11   4    5.57    5.35
  -5  -5  -5    6.53    6.76
  -3  -3  -5  438.38    9.72
   1  -1   5  187.70    3.85
  -3 -11   1    4.23    6.68
  -3  -9  -2   12.62    6.63
  -4  -5  -5   -3.53    6.71
  -3   2  -5    6.63    3.44
  -3 -12   2   -4.40    7.00
  -4  -2  -6  117.90    7.45
  -3 -10  -1   31.21    6.87
  -4  -9  -3    3.23    7.31
  -5  -3  -6  146.82    8.84
  -4  -7  -4   16.26    7.26
   1   2   7  360.81    7.08
   0  -7   3    3.28    2.58
  -3  -4  -5    9.15    5.79
  -2 -11   3    5.47    5.32
  -4  -3  -6   10.82    6.16
  -2  -7  -2   36.37    5.69
   0  -3   0   -0.79    1.87
  -2   2  -4 1382.16    8.30
  -5   2  -6   22.48    5.24
  -5  -4  -6    1.90    6.64
  -1  -8   0   25.79    4.78
   1  -5   9    2.26    2.34
  -4  -6  -5    6.49    6.82
  -3 -11   0    7.12    6.99
  -2  -6  -3   17.89    5.35
  -4  -4  -6   46.17    6.83
   1  -1   6  125.77    3.98
  -3 -12   1   -7.60    7.55
  -4   2  -6   86.69    5.40
  -5  -5  -6   20.12    7.53
  -1  -1  -3    0.10    2.36
  -4  -8  -4   36.26    8.07
  -3 -10  -2    2.96    6.76
  -3  -2  -6   41.00    5.97
  -4  -5  -6   14.29    7.07
  -2  -5  -4   13.51    5.18
  -3  -3  -6   -1.89    5.22
  -3 -11  -1    0.32    7.21
   1  -4  10    2.60    3.12
  -2  -2  -5  404.76    7.25
  -5  -3  -7    5.67    6.97
   1  -3  11  225.63    5.97
  -3 -12   0    2.72    7.01
   1  -4   9    8.14    2.97
   1  -2   7  143.14    3.85
  -2   7   0   -0.62    2.61
  -1   7   4    9.73    4.37
  -4  -2  -7  129.12    8.31
  -1  -8  -1    4.81    4.61
  -2 -12   2    3.63    5.94
  -5  -4  -7   -1.08    7.11
   1  -3  10   19.70    3.82
   1  -2  10  304.75    6.57
  -4  -3  -7  348.61   10.40
   1  -2   8 1382.77   10.17
  -2   8   2    3.59    3.68
   1  -2   9   91.52    4.53
  -3 -10  -3   -3.81    7.03
  -4   3  -6   -0.51    3.82
  -4  -4  -7  334.62   10.30
  -2  -4  -5   18.88    4.86
  -3 -11  -2    9.53    6.80
  -2 -12   1    2.19    6.19
  -4  -5  -7    6.32    6.58
  -2 -11   0   11.78    5.87
  -3   2  -6   64.97    4.45
  -1   1  -3    7.54    1.82
  -3  -2  -7   28.52    5.29
  -5  -3  -8   73.14    8.32
  -3  -9  -5    2.86    6.99
  -1  -8  -2    6.28    5.00
  -2  -7  -4   -0.46    5.28
  -3  -3  -7 1790.36   17.30
  -4  -6  -7   15.91    7.26
  -2   8   3   -1.36    4.08
   0  -9   5   10.26    2.71
  -3 -11  -3    2.27    7.06
  -1 -11   2   13.08    4.87
  -4   2  -7  212.88    7.05
  -2 -12   0   -5.54    6.62
  -3  -4  -7   36.51    6.33
  -4  -3  -8  113.18    7.83
  -2  -2  -6  226.65    6.80
  -2  -3  -6  216.94    6.86
  -4  -4  -8    1.23    6.05
  -2 -11  -1   23.46    6.62
  -4  -7  -7    8.79    7.77
   0   4   5    0.79    3.54
  -3  -5  -7    0.00    6.12
   0  -8   2   13.03    3.36
  -1  -1  -4  815.32    7.44
  -2  -9  -4   22.24    6.32
  -4  -5  -8    7.76    6.56
  -2  -8  -4    2.27    5.36
  -3 -10  -5    7.57    7.41
  -1 -11   1    5.95    4.85
  -2 -12  -1    8.44    6.81
  -3  -6  -7   34.33    6.75
  -2   2  -5   78.18    3.18
  -4  -6  -8   15.67    7.63
  -5  -3  -9  227.55   11.06
  -3  -3  -8  294.09    9.01
  -3   3  -6  110.25    4.28
  -4   3  -7  515.83    8.32
   0  -7   0    4.55    3.03
  -2 -12  -2    5.34    6.70
  -4  -3  -9  107.49    7.68
  -1 -10   0    9.27    4.66
  -2  -9  -5   -0.83    5.90
  -1   5   2    3.43    2.67
  -4  -4  -9   25.86    7.16
  -2 -10  -4   14.61    6.52
  -3  -5  -8   31.51    6.88
  -3  -9  -7   24.64    7.59
  -2  -3  -7  526.74    9.69
  -2  -2  -7 1035.17   12.60
  -1  -8  -4    3.39    4.88
  -2 -11  -3   11.15    6.54
  -3   2  -7    2.76    3.70
  -2 -13  -1   13.17    6.87
  -4   2  -8   11.99    4.63
  -2 -12  -3    1.57    6.71
  -1  -3  -5    9.78    3.55
  -1   6   5    7.57    4.26
  -1  -2  -5  400.57    6.45
  -2 -10  -5   39.14    7.14
  -2  -9  -6   26.31    6.48
  -2 -13  -2    9.07    6.79
  -3  -3  -9   10.64    6.32
  -3  -4  -9  125.19    7.60
  -1  -1  -5   98.31    4.10
  -4  -3 -10  131.22    8.80
  -4  -4 -10    0.21    6.73
  -3  -5  -9    1.38    6.46
   0  -9   1   13.65    3.52
  -2 -12  -4   -2.33    6.93
   0   2   8  102.44    5.11
  -4  -5 -10   37.68    8.07
  -2   7   4    8.71    4.31
  -3  -6  -9    3.90    6.47
  -2   6   0    3.32    2.31
  -2  -3  -8  152.91    7.02
   0   2   6    4.03    3.40
   0 -10   3   15.98    3.30
  -1   1  -4  598.01    5.52
  -2  -2  -8  681.42   11.71
  -2 -11  -5    0.76    7.00
  -3  -7  -9   26.26    7.65
   0  -9   0    4.23    3.66
  -1 -11  -1   35.64    5.69
  -2   2  -6  381.61    5.45
   0  -5  -3    5.88    3.07
  -3  -4 -10   18.68    5.99
  -3  -3 -10   -1.93    5.87
  -1 -12  -2   -5.07    5.70
  -3   3  -7 1262.08   10.13
  -1  -2  -6 1021.54    9.91
  -3  -5 -10   37.02    6.77
  -4  -4 -11   31.25    7.34
  -4  -3 -11   -1.87    7.00
  -2   7   3   18.26    4.10
  -3   2  -8   46.54    4.58
  -2 -10  -7    0.60    6.57
  -2 -11  -6   -0.57    6.86
   0 -10   1    1.42    3.51
  -1 -11  -2    7.96    5.40
  -2  -9  -8    9.67    6.88
   0  -7  -3    9.82    3.92
  -1 -10  -4   28.92    5.87
  -1 -12  -3    0.72    5.99
  -2  -3  -9   15.03    5.44
   0   1   6  188.11    4.63
  -1  -7  -6   27.38    5.51
  -2  -2  -9   -0.63    4.71
   0   1   5 1047.09    8.74
  -2 -10  -8   25.74    7.69
   0   1   4 9999.00   21.56
  -3  -4 -11  214.25    9.11
  -3  -5 -11   13.95    7.02
  -1  -9  -6   -0.07    5.07
  -2  -9  -9   -0.50    6.53
  -1 -12  -4    5.25    6.29
  -3  -3 -11  294.32   10.60
  -3  -6 -11    6.91    6.71
  -4  -3 -12   39.35    7.86
  -1  -6  -7    6.81    5.22
   0  -3  11    5.88    3.95
  -1  -2  -7  334.89    6.73
  -1 -11  -4    0.28    5.88
   0  -2  10   59.83    4.71
  -2  -4 -10    0.88    5.69
   0  -8  -4   25.59    4.90
  -1 -12  -5    9.40    6.84
  -2  -3 -10   42.86    5.96
  -1   1  -5  200.45    3.92
   0  -4  11   24.46    4.09
  -2   2  -7  937.48    8.73
  -3   2  -9    1.27    3.83
  -2  -2 -10   26.03    5.42
  -1 -13  -4    0.22    6.67
  -3  -5 -12   -0.46    6.39
   0  -5  11    7.77    3.47
  -3   3  -8  381.00    6.46
   0 -11  -1   29.12    4.88
  -1  -6  -8   30.46    5.89
  -1  -3  -8  357.99    7.80
  -3  -3 -12   53.88    7.50
  -1 -12  -6   25.30    7.12
   0  -2   9  390.55    6.66
  -1  -7  -8   11.39    5.33
  -1 -13  -5    3.76    7.08
  -1  -9  -8   -0.28    6.19
   0 -11  -2    0.19    4.57
  -1  -2  -8  626.30    9.80
  -2  -5 -11   11.02    6.72
  -2   6   3    0.00    3.30
  -2  -4 -11   24.34    6.28
  -2  -6 -11   16.50    7.00
   0 -10  -4   36.70    5.47
  -1  -8  -8   37.87    6.42
  -2  -3 -11 1128.01   15.67
  -1 -12  -7    6.16    7.44
   0  -4  10    5.16    3.59
   0 -11  -3    6.50    4.85
   0  -8  -6    8.20    4.89
  -1  -4  -9    2.66    5.35
  -1 -10  -8   10.95    6.82
  -3  -4 -13   29.87    7.50
  -1 -11  -7   21.94    6.73
  -1  -9  -9   -1.69    6.08
   0  -3   9    1.60    3.36
  -3  -3 -13   79.66    7.88
   0  -4  -5   -0.44    3.40
   0  -2   8  108.10    4.14
   0 -11  -4   40.40    5.87
  -2  -5 -12   51.69    7.42
  -2  -6 -12   53.63    8.20
  -2   2  -8  923.95    9.46
  -2  -4 -12  398.98   11.10
  -1  -2  -9  117.33    6.09
  -1 -10  -9   24.00    7.52
   0 -12  -3   20.63    5.48
   0  -1   6   41.87    3.31
  -2  -3 -12  367.30   10.31
  -3   3  -9  387.91    6.90
  -1  -7 -10   24.82    6.78
   0 -12  -4   16.08    5.65
  -1  -3 -10    7.62    4.97
  -3  -3 -14   37.43    8.13
   0  -2   7  446.96    5.65
  -2  -6 -13    3.75    7.64
  -2  -5 -13   -0.65    6.87
  -1   3   4    5.10    3.25
  -1   2   7   10.73    3.58
  -2  -4 -13    7.93    6.16
  -1  -2 -10  193.15    7.31
   0  -6  -7    0.42    4.97
   0  -5  -7    9.63    4.31
   0  -1   5  973.71    7.17
  -1  -7 -11    5.82    6.10
   0  -5   9    1.64    3.14
  -2  -3 -13    1.28    6.69
   0  -7  -7   10.95    5.26
  -2   3  -7  253.05    4.49
   0 -12  -6    0.73    6.23
  -2   2  -9   30.01    3.84
  -1  -3 -11  254.09    8.36
   0  -2  -6    4.71    3.37
   0 -13  -5   11.41    6.33
  -1   2   6   17.66    3.54
  -2  -5 -14   27.21    7.58
   0 -12  -7   -1.58    6.22
  -2  -4 -14   15.85    6.64
   0 -13  -6    4.02    6.26
   0  -4  -8    1.05    4.20
  -1  -2 -11  641.32   11.12
   0  -1  -5  926.48    7.88
   0  -2   6   96.30    3.17
   0  -8  -8   15.95    5.49
  -1  -4 -12  121.34    7.41
   0 -11  -6    8.39    5.93
  -2  -3 -14    5.08    6.38
   0 -12  -8    6.85    6.47
   0 -10  -8   -2.51    6.10
   0 -13  -7   49.12    7.58
  -1  -3 -12   -0.32    5.18
   0  -1   4 8293.14   69.53
   0  -5  -9    3.49    5.37
  -1   2   5 1662.48   10.86
  -1  -7 -13   37.65    7.87
   0  -4  -9    4.24    4.57
   0  -1  -6  162.89    4.82
  -2   2 -10   19.51    3.90
  -2   3  -8   17.36    3.05
   0 -11  -8    3.47    6.05
   0  -9 -10   14.08    6.02
  -1  -2 -12  269.53    8.82
   1  -7  -4    9.72    3.89
   1  -9  -3    1.44    3.78
  -2  -3 -15  156.67   10.37
  -1   2  -6  424.29    4.98
   0  -2  -8   99.72    4.86
   0  -3  -9   22.85    4.89
   1  -7  -5   13.76    4.35
  -1  -3 -13   23.79    5.64
   0 -11  -9   17.34    6.59
  -1  -6 -14   14.94    7.03
   0  -4 -10    3.70    5.18
   1  -6  -5    5.21    3.86
  -1   2   4  715.63    6.94
   1 -10  -2   18.98    3.95
   1  -7  -6   15.14    4.77
  -1  -5 -14  470.06   12.17
   1  -5  -2   10.33    2.57
   1 -10  -5   32.36    5.15
   1 -10  -1   13.43    3.57
   0  -6 -11    7.57    5.93
  -2   4  -5    1.50    1.38
   0  -6   8    7.08    2.65
  -1  -4 -14   53.10    7.32
   0  -8 -11   17.96    6.09
   0  -5 -11   36.26    6.11
  -1  -2 -13    5.02    5.44
   0  -2  -9  173.46    6.53
   0  -9 -12   -1.17    6.57
   0  -4 -11   22.62    5.66
   1 -11  -5    4.73    4.87
  -1  -3 -14   39.98    6.85
  -1   2  -7  145.29    3.73
  -2   3   6    9.14    3.56
  -2   3  -9  114.66    4.17
   1 -11  -6    0.38    5.19
  -1  -5 -15   28.00    7.80
   0  -6 -12    0.75    6.05
   0  -1   3  239.81    2.86
   1 -11  -7   36.32    6.48
   0  -2 -10  202.24    7.10
   0  -3 -11   20.20    5.26
  -1  -4 -15   18.31    6.78
  -1  -2   9  736.45    9.52
   1 -12  -5   22.23    5.83
   0  -6 -13    1.79    6.00
  -1  -3 -15  568.40   13.60
   0  -8 -13   12.30    7.31
   1 -12  -7    5.38    6.21
   0  -5 -13   12.17    6.43
  -1   2  -8 1399.26    9.97
   0  -5   7    2.06    2.39
  -2   3   5 1151.52   10.61
   0  -2 -11    2.13    4.70
   0  -3 -12   27.73    5.55
   1 -12  -8    1.04    6.18
   1  -7  -7    1.83    4.53
   0  -4 -13   -3.04    5.32
  -2   3 -10  125.93    4.55
  -1  -2 -15   16.43    6.25
   1 -12  -9   46.54    7.34
   0  -7 -14    2.88    7.13
  -2   4  -6   13.58    1.79
   0  -5 -14   34.13    6.68
  -1  -3 -16  171.95   10.14
  -1  -3   9  331.49    6.62
   0  -2 -12  184.70    8.20
   0  -3 -13   25.22    5.92
  -1   2  -9  101.67    4.47
  -1  -2   8   13.58    3.23
  -2   2   6   48.30    4.10
  -2   3   4    5.31    2.95
   1  -5  -9   11.24    4.94
   1  -8 -10    2.00    5.27
   0  -6   7    2.44    2.42
   1  -9 -11   26.54    6.41
   0  -2 -13   23.99    5.62
   0  -3 -14   23.32    6.26
  -2   3 -11  802.58    9.75
   1 -11  -9   17.68    6.73
   1  -7 -11    2.07    5.56
   1  -4  -9    3.52    4.76
   0  -4 -15   16.16    6.65
  -1   2 -10  314.30    6.45
   1  -6 -11    1.42    5.36
   1  -9 -12    4.03    6.48
   1 -11 -10   33.82    7.25
  -1  -4   9   23.78    4.02
   1  -3  -4    6.52    3.24
   1  -5 -11    3.63    5.10
   1  -5   1    2.63    1.37
   1  -8 -12    5.17    6.26
   0  -2 -14   32.71    6.52
   0  -3 -15   44.81    7.20
   0  -7   7    2.96    2.32
   0  -4 -16   61.88    8.03
  -2   3   3  324.72    5.31
   1  -4 -11    1.73    4.79
  -2   2   5  143.89    4.67
  -1   2 -11  420.09    8.03
  -1  -3   8  235.70    5.55
   1  -7 -13    5.74    6.16
   0   1  -6   52.51    3.52
  -2   3 -12  271.30    6.84
   0   1  -5  950.49    7.16
   1  -6 -13   38.44    6.74
  -2   4  -8  412.79    4.90
  -1  -2   7   -2.11    2.86
   0  -3 -16   12.44    6.38
   1  -4 -12    7.06    5.10
   1  -5 -13   11.37    5.99
   1  -2  -7    5.86    3.19
   0   1  -4 8383.21   70.72
  -3   4   3   25.28    3.80
   1  -7 -14   38.74    7.71
   1  -3 -11   45.61    5.53
   1  -2  -8    0.99    3.69
  -1   2 -12  415.39    8.14
   2  -9  -7    2.55    4.86
   1  -2  -9  681.56   10.32
   2  -8  -7   -1.98    4.46
   1  -4 -13   40.07    6.15
   2 -10  -9   -0.37    6.16
   2  -8  -6   10.34    4.39
   2 -10  -6   -1.50    4.75
   0  -2 -16   68.70    7.82
   1  -2 -10   49.37    5.10
   2 -11  -8   32.70    6.59
   2 -11  -9   35.15    6.94
   1  -6 -15    5.94    7.25
  -2   4  -9   51.76    2.99
   2 -10  -5   32.85    4.77
   2 -11 -10   -5.07    6.40
  -1   3  -5    0.87    1.47
   1  -4 -14    3.20    5.60
   1  -2 -11  404.72    9.16
   1  -3 -13   38.43    5.92
  -2   3   2   19.40    2.67
   1  -5 -15    3.52    6.17
  -1   3  -8   57.03    3.05
  -2   2   4  392.75    6.10
   2 -12  -8   21.87    6.52
   2 -12  -9    8.63    6.46
  -2   4  -1    7.06    1.69
   2 -11  -5   40.25    5.24
   2 -10  -4   13.81    4.21
   0   1  -3  219.31    2.78
   0  -2 -17    9.92    6.59
   1  -2 -12   17.88    5.18
   1  -4 -15    8.67    6.03
  -1   3  -9   70.64    3.56
   1  -3 -14    2.54    5.47
   2 -11  -4    0.47    4.28
   0  -4   5    8.70    1.84
   2  -7  -4    9.36    3.65
  -3   3   4   38.53    3.98
  -2   4 -10    7.82    2.85
  -1  -3   7 1122.51    9.67
   1  -2 -13   94.87    7.13
   2 -10  -3   -1.93    3.61
   2  -8  -3    0.30    3.18
  -1   3 -10   17.99    3.36
   1  -4 -16  250.69   10.34
   1  -3 -15   24.34    6.33
   2  -7  -8    6.59    4.69
   2  -7  -9    1.18    4.96
   1  -1  -5    4.83    3.15
  -1  -2   6   65.40    3.36
   1  -2 -14   58.22    6.44
   2  -7 -11    8.08    5.24
   2  -9 -12   -3.76    6.23
   2  -7  -3   17.15    3.63
   2 -10 -11   15.48    6.47
   2  -7  -6    5.54    4.37
  -1   3 -11  228.75    5.75
   2  -6 -11   44.54    6.26
   1  -3 -16    2.00    6.21
   2  -7 -12   22.24    5.79
   2  -6 -12    2.54    5.79
   1  -2 -15   25.36    5.74
   2  -7 -13   17.24    6.24
  -2   2   3   65.30    3.55
  -2   3   1 1233.15    8.01
   2  -5 -11   21.87    5.58
  -3   3   3    2.71    3.23
   1  -1  -4  930.00    8.69
   2  -6 -13   19.70    6.48
  -1   3 -12   51.16    4.33
   2  -8  -2    2.78    3.11
   1  -3 -17    9.79    7.32
   2  -7 -14   17.47    7.31
   0   2  -8  103.66    3.88
   0   2  -9  392.71    6.54
   1  -2 -16   25.24    6.99
   2  -6 -14   11.70    6.41
   2  -5 -13    2.06    5.89
   0   2 -10   64.79    4.86
   2  -4  -8   10.30    4.66
   2  -4 -11    6.42    4.64
  -1   2   0  539.63    3.51
   0   2  -7  419.35    6.02
   2  -5 -14   11.09    6.60
   2  -4  -7   -2.32    3.82
   0   2 -11   -1.28    3.87
  -1   3 -13    5.24    4.12
   1  -2 -17   11.35    6.69
   2  -4 -13   19.20    6.39
   0   2  -6   97.14    3.22
   2  -5 -15   -0.01    6.50
   0   2 -12  624.97    9.43
   2  -3 -10   15.57    4.94
  -3   2   4  859.99   10.18
   2  -3 -11  371.90    9.30
   2  -3 -12  144.14    7.10
  -2  -2   7   66.49    4.60
   2  -3  -8   -1.48    4.38
  -1  -3   6  112.06    3.79
  -1   3 -14   49.97    5.24
   0  -5   5    3.83    1.90
   1  -1  -3 2980.36   13.79
  -4   4   1    7.88    3.95
   0   2 -13   62.05    5.26
   2  -4 -15    3.28    6.07
   2  -3 -13  175.98    8.39
  -3   3   2   19.77    3.27
   3 -10 -10    4.85    6.34
   2  -3 -14   28.18    6.44
   0   1  -2   20.23    1.12
   2  -4 -16   12.00    7.38
   3 -10  -9    3.63    6.36
   3 -11 -10   23.19    6.78
   2  -6  -3   -0.28    3.17
   0   2 -14   55.55    5.47
  -1  -2   5 1065.10    8.47
  -2   2   2   63.67    3.34
   3 -11  -9    2.10    6.18
   0   2  -5 1792.76    8.48
   2  -3 -15   12.58    6.21
   2  -2 -11   -0.38    4.79
   2  -2 -10    8.26    4.90
   2  -2 -12   40.20    5.91
  -2   3   0  373.75    4.42
   2  -2  -9  205.72    7.08
   3 -11  -8   -0.66    5.73
   2  -2 -13  178.83    8.78
   0   2 -15  189.27    8.01
   2  -3 -16   23.15    6.76
   2  -2  -8  233.69    6.80
   3 -10  -7   10.24    5.19
   2  -2 -14   43.16    6.45
   2  -2 -15   81.63    7.76
  -3   2   3   78.32    4.34
   2  -2  -7   81.64    4.57
   0   2 -16   68.48    6.83
   2  -2 -16   33.42    7.09
   3  -8 -10    0.71    6.14
   3  -7 -12    4.14    6.19
   3  -7 -13   26.48    6.93
  -3   3   1   44.16    3.34
   3  -7 -10    4.99    5.66
  -1   4 -10    0.71    2.75
  -1   4 -11   47.40    3.61
  -2  -2   6  306.24    6.30
   3  -6 -11    7.43    5.23
   0   2 -17   29.36    6.08
  -1   4  -9    8.98    2.65
   3  -6 -13   41.71    7.09
   2  -2 -17   39.60    8.20
   2  -2  -6   53.00    4.04
   0   3 -11    3.75    3.50
   0   3 -10    7.72    3.40
  -1  -7   7   10.65    3.50
  -1   4 -12  387.13    6.93
   0   3 -12    1.15    3.77
   3  -8  -8   23.49    5.45
   1  -1  -2  112.53    3.67
   0   3  -9    5.00    3.03
   3  -6  -9   -1.73    4.74
   3  -9  -5   -0.63    4.24
   3  -5 -12    8.98    5.50
   3 -10  -5    1.09    4.39
   3  -7  -8    3.42    4.59
   3  -5 -13   28.92    6.59
   3  -5 -11    8.48    5.30
   0   3 -13   14.19    4.26
   2  -3  -4    9.12    3.11
  -1   4  -8  796.15    6.49
  -4   4  -1    7.07    3.56
   0   2  -4  314.17    3.55
   3  -8  -7   27.43    5.13
   0   3 -14   22.08    4.77
   0   3  -8  327.74    5.41
   3  -7  -7   -2.13    4.64
   3  -4 -12   -2.04    5.73
   3  -4 -13   40.74    6.95
  -1  -3   5  316.26    5.11
   2  -2  -5  132.04    4.62
   3  -4 -11   -0.52    5.23
   3  -4 -14    6.03    6.03
  -2   2   1  158.25    3.77
   3  -4 -15   -0.85    7.00
   0   3 -15   84.20    6.30
   3  -6  -7   19.42    4.81
   1   2 -12   22.71    4.57
  -3   2   2  177.89    5.13
   1   2 -11  162.84    6.48
   1   2 -13  122.34    6.37
   3  -8  -6    4.69    4.37
   1   2 -10    2.52    4.09
   3  -4  -9   26.24    5.38
   1   2 -14   20.30    5.41
   3  -3 -13    6.77    5.78
   3  -3 -12   10.86    5.66
   3  -3 -14    2.50    5.69
  -2   3  -1   20.26    1.96
   0   3  -7  438.82    5.43
  -2  -3   6  224.36    5.69
   3  -3 -11  251.09    8.37
   1   2 -15   13.33    5.41
   3  -3 -15   84.03    8.03
   1   2  -9  732.57    9.51
  -1  -2   4  456.05    5.97
  -3   3   0  322.25    5.59
   3  -4  -8   16.59    4.95
   3  -3 -10    7.02    4.87
   1   2 -16  113.33    7.49
   3  -8  -5    8.59    4.24
   2  -2  -4  412.18    6.19
   3  -3  -9  218.99    7.30
   1   2  -8   13.33    3.35
   3  -2 -13   27.92    6.00
   3  -2 -14   26.72    6.48
   1   2 -17   12.02    6.36
  -2  -2   5  100.66    4.53
   4 -10 -10   55.57    7.62
   3  -2 -12   33.12    6.21
   4  -9 -10    7.10    6.39
   3  -2 -15    1.65    6.48
   2  -7   0    1.70    2.24
   4  -6 -13   19.18    7.03
   3  -3  -8    1.10    4.72
   1   2 -18    5.21    6.47
   4  -9  -9   18.34    6.62
   4 -10  -9    4.75    6.26
   3  -2 -10    2.14    4.84
   3  -9  -3   18.53    3.87
   0   3  -6  127.92    3.22
   1   2  -7    2.50    2.88
  -3   2   1 1474.34   11.65
   3  -2  -9   40.41    5.38
   3  -8  -4   13.76    4.00
  -1   2  -1 1352.95    4.42
   0   4 -13   -1.94    4.03
   4  -9  -8   23.49    6.27
  -1  -7   6    7.19    3.64
   4  -7 -12    0.03    6.19
   0   4 -14    0.12    4.19
   4  -8 -11   17.97    6.86
   1   3 -13   34.69    4.97
   1   3 -14    3.35    4.64
   1   3 -12   51.74    4.93
   4  -7 -11    2.37    6.22
   4  -6 -12    1.01    6.64
   1   3 -15    3.64    4.91
   4  -4 -14   -1.30    6.77
   3  -2  -8  273.52    7.75
   1   3 -11   71.90    5.05
   4  -8 -10    5.23    6.54
   4  -9 -11   42.93    7.56
  -4   3  -1 1447.66   12.68
   4  -5 -13   43.49    7.34
   4  -6 -11    9.75    6.38
   0   4 -10    6.46    3.35
   3  -6  -4    8.73    3.85
  -3   3  -1   22.26    2.93
   1   3 -16    8.16    5.64
   4  -7 -10    4.47    6.00
   2  -2  -3   62.92    3.57
   4  -9  -7   13.62    5.54
   1   3 -10   29.42    4.31
   4  -6 -10   28.09    6.55
  -2  -3   5 1636.21   12.83
   3  -4  -5    0.58    3.91
   1   3 -17   -0.22    5.80
   4  -8  -9   -2.53    5.99
  -2   2   0 2482.90   11.36
   1   2  -6   68.24    3.37
   4  -4 -13    0.77    6.75
   1  -1  -1   65.14    2.21
   2   2 -14    6.56    5.47
   2   2 -13  300.16    8.93
   2   2 -15   74.17    7.17
   0  -2   2  613.71    3.47
   3  -2  -7    8.66    4.36
   2   2 -16   33.02    6.62
   2   2 -12   32.00    5.16
  -1  -3   4   15.76    2.71
   1   3  -9  299.72    6.43
   0   2  -3    7.84    1.58
   4  -4 -11   40.48    6.64
   2   2 -17   49.00    7.50
   4  -8  -8    1.03    5.44
   1  -2   0  559.16    3.61
   2   2 -11    5.58    4.29
   4  -7  -8   28.71    5.79
   4  -3 -13    9.38    6.08
   4  -5  -9   32.12    5.78
  -2  -2   4  171.45    5.29
  -1   5 -11    1.04    2.88
   4  -3 -12    6.52    5.87
   2   2 -10   15.72    4.83
   3  -3  -5  124.12    5.12
   0   3  -5   89.02    2.63
  -3   2   0  524.76    6.99
  -4   3  -2    4.65    3.69
   3  -2  -6   19.20    4.01
   4  -3 -11   67.21    6.91
   4  -8  -7    4.78    5.06
   1   3  -8  228.94    5.48
   4  -2 -14    0.86    6.38
  -2   3  -2  277.19    3.43
   4  -4  -9   18.73    5.48
   4  -5  -8   18.43    5.42
   4  -2 -13   10.08    6.47
   2   2  -9  194.30    6.56
   4  -3 -10   -2.67    5.29
   4  -2 -12  122.84    8.09
  -1  -2   3 1082.64    8.38
   4  -6  -7    1.03    4.95
   1   4 -14    1.49    4.71
   1   4 -15   19.67    5.62
   1   2  -5  995.96    8.30
   1   4 -16  181.21    8.46
   4  -9  -5   17.80    4.84
   4  -2 -11   12.54    5.73
  -3   3  -2  143.14    4.13
   1   4 -12    3.20    4.31
   2   3 -15   32.26    5.97
   2   3 -14    2.48    5.08
   2   3 -16    8.02    6.04
   4  -3  -9    5.59    4.81
   2  -2  -2   68.74    3.35
   4  -8  -6    4.48    4.86
   2   3 -13  160.17    7.38
   2   3 -17   33.27    7.19
   4  -7  -6    7.86    4.89
   3  -2  -5    4.09    3.79
   2   2  -8  148.00    5.72
   1   4 -11   -0.26    4.01
   1   3  -7 1163.42   10.04
   2   3 -12   47.84    5.58
   5  -8 -10   10.65    7.09
   4  -2 -10    7.85    5.38
   3  -3  -4   40.37    3.93
   3  -8  -2    3.59    3.19
   0   5 -13    9.40    4.19
   5  -6 -11    1.72    6.52
  -2  -3   4   13.92    3.36
  -4   3  -3 1289.94   11.42
   4  -3  -8    6.63    5.08
   2   3 -11  421.14    8.97
   3   2 -16   56.01    8.01
   3   2 -15    2.66    6.26
   4  -2  -9   11.51    5.36
   3   2 -14   27.24    6.35
   3   2 -13   22.50    5.97
   0   5 -11   11.62    3.50
   2   3 -10   46.65    5.08
   2   2  -7   63.41    4.23
  -3   2  -1   36.68    3.56
   3   2 -12   20.92    5.63
   4  -3  -7   16.62    4.94
   1  -3   1  180.40    1.73
  -2  -2   3   28.37    3.37
  -2   2  -1  380.32    4.75
   0   3   1  461.93    4.90
  -1   8   3  141.22    5.90
  -1 -10   5   53.89    4.82
  -3  -4  -4  220.30    8.12
  -4  -8  -2   -0.12    7.05
  -3  -6  -3  123.50    7.33
   1   2   5  383.26    6.72
  -4  -7  -3    0.33    6.52
  -1  -7   0  457.19    7.99
   1   3   6  409.42    7.76
  -4  -9  -2    2.18    6.82
   0   4   2 2951.92   13.65
  -2 -10   2  269.67    8.84
  -2  -6  -2  154.74    6.61
  -1  -8   1   91.02    5.42
   0  -2   0  746.87    4.23
  -1  -3  -2   62.27    3.94
  -3  -5  -4  100.03    7.26
  -1   7   2   59.66    3.99
  -2  -9   0    4.09    4.86
   1   2   6 1055.50   10.67
  -3   4  -4  148.98    3.95
  -1  -5  -1  112.87    4.41
  -3  -8  -2  100.79    7.67
  -2  -5  -3  208.56    7.06
   1  -2   5  636.16    5.52
   0  -6   2  137.83    3.57
  -1  -9   3   67.54    4.93
   0  -8   5  161.64    3.92
  -3  -7  -3  368.55   10.47
  -4  -8  -3  183.79   10.14
  -2  -3  -4  586.60    9.14
   1  -5   8  193.99    3.33
  -2 -10   1  306.46    9.44
  -1   6   1  287.68    4.94
   0  -5   1  799.51    6.56
   0   6   4  292.75    6.83
  -3  -6  -4  363.86   10.25
  -2   8   1   57.16    3.90
  -2  -8  -1   58.51    6.12
  -1  -4  -2  598.38    7.62
  -1  -7  -1   75.89    5.28
  -2  -4  -4  787.91   10.94
  -2  -9  -1   18.88    5.66
  -1   4  -1   85.57    1.84
  -1   5   0  266.89    3.81
  -1   7   3  328.23    6.85
   0   2   1 3459.99   10.39
   1  -3   6  183.74    3.37
  -4   4  -5  341.94    6.66
  -3  -9  -3  620.55   13.95
  -3  -8  -3   38.42    6.58
  -3  -5  -5  377.37   10.05
  -1  -9   2 1765.51   15.19
   1  -4   7   43.85    2.46
   1  -2   6  426.95    5.27
   0   3   2  729.95    6.65
  -3  -7  -4  597.14   12.80
  -2 -11   2   20.81    5.85
  -2 -10   0  109.03    7.34
   1  -4  11   46.99    4.12
  -1  -2  -3 1113.51    9.03
   0  -8   4  346.60    5.35
  -4  -7  -5   48.04    7.53
  -3   3  -5  980.60    9.08
   0  -4   0  236.41    4.02
   1  -4   8  775.08    6.92
  -1  -5  -2 1281.37   11.63
  -3  -6  -5   57.38    7.15
  -2  -8  -2   51.22    6.14
   1  -3   7   69.46    3.08
   0   5   4 1156.10   10.98
  -2  -9  -2   42.37    6.24
  -2  -7  -3  636.86   11.51
  -1  -3  -3  870.73    8.85
  -2  -3  -5   34.70    4.91
  -3  -4  -6   75.84    6.45
  -2   4  -3  107.83    1.95
  -4  -6  -6   73.12    7.98
   0  -6   1   48.49    2.98
   0  -7   2   34.14    3.08
  -3  -9  -4    8.47    6.66
  -2 -11   1  116.96    7.55
   1  -3   8   49.69    3.40
  -1  -7  -2   37.85    4.99
  -1   6   2  545.64    6.99
   1  -3   9   64.60    4.07
  -3  -8  -4  131.94    8.70
  -1  -9   1  406.90    8.50
  -4  -8  -5   71.32    8.94
  -2 -10  -1  255.59    9.09
  -2  -6  -4  299.55    8.80
   0   5   5   48.02    4.51
   0   4   3  572.23    7.16
  -3  -5  -6 1524.12   18.20
  -3  -7  -5  121.26    7.89
  -1  -4  -3  230.18    5.70
  -4  -7  -6   20.71    7.51
  -1 -11   3   55.90    5.35
   0  -5   0   79.82    3.28
   0  -8   3 1739.77   11.08
  -1  -6  -2  741.00    9.66
  -2  -8  -3  917.76   13.87
  -2  -9  -3   93.79    7.20
  -2  -5  -5  167.50    7.41
  -3  -6  -6  158.66    8.53
  -3 -10  -4   64.26    7.56
  -2 -10  -2    2.39    6.02
  -1  -9   0   65.34    5.31
  -1   6   3  250.36    5.66
  -3  -8  -5   86.21    8.16
  -2   3  -4  384.89    4.31
   0   4   4 1022.50    9.65
  -1 -10   2   18.38    4.50
  -1  -5  -3    0.43    3.67
  -1  -7  -3  121.85    6.21
   0  -7   1  278.11    5.33
  -1   5   1   26.59    2.64
  -2  -6  -5  368.11    9.74
  -3  -7  -6    1.95    6.60
   0  -6   0 1600.54   10.64
  -1  -2  -4 1815.33   12.32
   0  -3  -1  451.61    4.83
  -2   6  -1  242.23    3.22
  -1  -3  -4  410.55    6.82
  -2  -4  -6  213.83    7.41
  -2   7   1  185.85    4.71
   0  -4  -1  384.80    5.19
   0  -9   4  931.46    8.36
   0   4   6  613.83    9.05
  -3  -9  -6   11.63    7.36
  -1 -10   1  176.31    6.95
  -2 -10  -3   11.77    6.18
   0   3   3 3136.62   14.18
  -1  -6  -3  138.68    5.75
  -1  -9  -1   67.63    5.65
  -3   4  -5   24.00    2.94
  -1  -8  -3  300.89    8.17
   0  -2  -1 3466.14   10.28
  -2  -7  -5  421.91   10.24
  -1  -4  -4   56.36    4.18
  -3  -8  -6   14.71    6.84
  -3   5  -4  238.72    3.44
  -2  -5  -6  763.44   12.16
   0  -5  -1  403.49    5.74
  -2 -11  -2    3.84    6.28
  -3  -7  -7   13.75    6.51
  -3  -4  -8  622.62   12.41
   0  -9   3  319.57    5.73
   0   3   4   41.45    3.57
  -1  -5  -4 3042.88   18.87
  -2  -6  -6  360.05    9.90
   0  -8   1  414.01    6.70
   0   2   2  536.82    5.25
  -2  -8  -5  124.46    7.85
   0  -6  -1  120.98    4.26
  -1  -9  -2 1040.33   13.45
   0   3   5  497.83    7.17
  -2   7   2  181.73    5.22
   0   3   6   21.06    3.72
  -3  -8  -7  396.71   12.20
   0   3   7  225.92    6.39
  -2  -4  -7   42.93    6.21
  -3  -6  -8   60.68    7.52
  -2  -7  -6  236.29    8.97
  -1  -6  -4  238.21    6.97
  -1   6   4  616.60    8.59
   0  -9   2   47.97    3.68
  -1   4   0   40.68    2.19
  -2  -5  -7   46.42    6.15
  -1 -10  -1   88.99    6.14
  -1  -4  -5   34.64    4.14
   0  -4  -2 2863.22   13.53
  -3  -7  -8   12.45    6.85
   0  -8   0  127.19    5.06
   0  -7  -1   58.93    4.08
   0  -5  -2  122.92    4.26
   0   2   3  317.50    4.69
  -2  -6  -7  123.10    7.49
  -1  -9  -3   -0.52    4.95
  -2 -11  -4    1.65    6.69
   0  -3  -2  716.42    6.48
  -2  -8  -6   57.26    7.06
  -1  -7  -4   69.19    6.08
  -1 -12   0   78.09    6.53
  -1  -5  -5  136.12    5.93
  -3  -8  -8  102.59    8.66
   0  -6  -2   35.84    3.56
  -1 -10  -2  184.02    7.67
  -2  -7  -7   67.30    7.05
   0   2   4  168.97    4.37
   0   2   7 1258.94   11.42
  -1  -6  -5  116.52    6.14
  -2  -4  -8  197.21    7.83
   0   2   5 1377.79   10.40
  -2 -10  -6   -1.43    6.58
   0  -8  -1 2236.82   15.35
  -2  -9  -7  590.01   13.52
  -2  -5  -8  116.34    7.21
  -1  -9  -4    0.50    4.96
   0  -7  -2   51.14    4.24
  -2  -8  -7  232.75    9.80
  -1 -10  -3  254.48    8.64
   0 -10   2  127.08    4.81
  -2  -6  -8  422.03   10.82
  -1  -3  -6  393.01    7.54
  -1  -7  -5   15.20    5.20
  -1  -4  -6   41.88    4.76
  -1   5   3  344.23    5.86
   0  -4  -3  542.70    6.91
  -1  -5  -6   14.22    4.63
  -1   4   1 1167.58    7.34
  -2   3  -5   72.55    2.73
   0  -6  -3  683.28    8.70
   0  -1  -1  543.11    3.44
  -2  -7  -8  368.59   10.72
  -1   5   4   51.22    3.90
   0  -8  -2  483.25    8.37
  -1   5   5  351.23    6.93
  -3  -6 -10  116.30    9.20
  -1   2  -3  657.32    3.89
   0  -9  -1  140.68    5.62
   0   1   2   89.25    2.34
  -1  -6  -6    1.63    5.05
  -1  -9  -5    0.87    5.38
  -1  -8  -5   21.99    5.07
  -3   4  -6  171.70    4.08
  -2   6   1   66.74    3.26
  -2  -4  -9  104.01    6.75
  -3  -7 -10   78.84    9.08
  -2  -5  -9  273.69    9.26
  -2  -8  -8   61.46    7.63
   0 -10   0  381.53    7.50
  -2  -6  -9  162.11    8.60
  -1   4   2 2229.73   11.16
   0   1   3  110.73    3.20
  -1 -11  -3  286.95    9.65
   0  -9  -2  967.69   11.62
   0  -2  -2  522.05    5.12
   0  -8  -3  106.06    5.69
   0  -5  -4 1101.91   10.73
  -1  -4  -7  110.19    5.71
   0  -6  -4  282.09    6.68
  -1  -5  -7  104.00    6.32
  -1  -3  -7    2.45    3.77
  -2  -7  -9   69.73    7.23
  -2   6   2  247.24    5.28
  -1 -10  -5  281.35    9.62
   0 -10  -1   70.11    5.04
  -1  -8  -6   56.50    5.95
   0  -7  -4  581.67    9.40
  -3   7   0   28.03    3.07
  -2  -8  -9  103.67    8.39
   0 -11   1  616.52    9.35
   0  -9  -3  328.71    8.10
  -1 -13  -3  105.82    8.20
  -1  -7  -7  761.69   12.43
  -2  -5 -10  978.98   15.62
   0 -10  -2  139.78    6.34
   0  -3  -3 3009.24   13.54
  -2  -6 -10   72.83    7.87
  -1   4   6  639.18    8.80
   0 -11   0   44.82    4.76
  -1 -10  -6   21.10    6.52
  -1  -9  -7  212.16    9.05
   0  -6  -5   57.97    4.98
  -2  -7 -10   13.79    6.71
  -1 -11  -5   50.45    7.05
  -1  -8  -7  294.05    9.43
  -1  -4  -8  769.13   11.58
   0  -7  -5  118.35    5.98
  -1  -5  -8  156.14    7.31
  -1   4   5  493.89    7.58
  -3   7   1  178.53    4.91
   0 -10  -3  146.51    6.58
  -1   4   4  121.62    4.45
   0  -3  10    6.06    3.81
  -2  -8 -10   22.42    7.12
   0  -8  -5  122.00    6.36
   0  -2  -3  301.20    4.57
  -1   4   3    0.96    2.89
   0  -1  -2   91.95    2.38
  -1 -10  -7   59.75    7.56
   0  -4  -4 1013.97    9.69
  -2   6   4  319.38    6.85
  -1 -11  -6   14.62    6.48
  -3   7   3  213.55    6.26
   0  -3  -4   35.12    3.75
   0  -7  -6   62.09    5.78
  -2   3  -6    9.06    2.42
  -2  -7 -11   16.88    7.01
  -1  -5  -9   82.44    6.78
  -1   3   7 1254.78   11.97
  -1  -6  -9   89.31    6.98
  -2  -8 -11  280.53   11.69
  -3   4  -7   92.51    3.59
  -1  -7  -9  499.96   11.69
  -1  -3  -9   50.80    5.65
   0  -5  -5   45.51    4.34
  -2   4  -4 1339.34    4.99
  -3   5  -5  414.29    3.66
   0  -5  10  288.53    6.06
   0 -12  -2   72.13    6.06
   0  -2  -4  161.94    4.29
  -1   3   6  220.25    5.56
  -1  -8  -9   37.96    6.84
  -1   2  -4 1750.48    7.44
   0  -9  -4  113.58    6.29
  -3   7   2    2.65    3.49
   0  -8  -7  427.40    9.93
  -2   5  -1  459.32    4.10
   0  -3  -5  497.04    7.18
  -2  -7 -12   57.80    8.25
  -1 -11  -8   -2.16    6.91
   0  -1  -3  105.57    2.99
  -1   3  -1  172.58    1.80
   0 -11  -5   53.19    6.31
  -1  -5 -10  182.72    8.20
  -1  -6 -10  192.73    8.66
  -1  -9 -10    8.12    6.44
  -1  -4 -10  254.20    8.69
   0  -5  -6  483.35    8.59
  -1   3   5   20.50    3.55
   0  -9  -5  186.55    7.30
   0  -6  -6  425.21    8.56
   0  -4   9   51.69    3.84
   0  -4  -6  619.30    8.91
  -1  -8 -10   -1.50    5.96
  -2   5   0 1475.44    8.18
  -1 -10 -10    1.79    7.23
  -2   5   5  122.61    5.24
   0  -2  -5 1305.83   10.40
   0  -3   8  338.18    5.73
   0  -9  -6  902.23   13.69
   0 -12  -5  116.24    8.11
   0  -3  -6   20.52    3.63
  -1  -9 -11  240.38   11.05
  -1   3   0  132.95    2.36
  -1   3   1 2943.44   10.39
  -1  -6 -11  101.32    7.85
   0 -10  -5    4.41    5.11
  -1  -5 -11   86.33    7.34
   0  -1  -4 9550.79   22.30
  -2   5   4  239.38    5.87
  -1  -4 -11   74.00    6.95
   0  -4  -7  102.83    5.49
  -1  -8 -11  309.07   11.34
   0  -9  -7    6.17    5.41
  -1   3   3 2534.17   12.28
   0 -10  -6   19.88    5.79
  -2   5   3    1.59    3.18
   0  -6   9   93.81    3.84
   0  -3  -7  219.49    5.98
   0  -6  -8  107.59    6.88
  -2   4   6  632.94    9.31
  -3   6  -2 1010.24    6.09
   0  -5  -8 1636.00   16.06
  -1   2  -5  665.43    5.49
  -3   4  -8  163.86    4.41
   0  -7  -8  276.07    8.76
  -1  -6 -12  220.90    9.88
   0  -9  -8    1.93    5.65
  -1  -5 -12  110.85    7.71
   0 -10  -7  152.68    8.19
  -1  -7 -12   58.78    7.63
   0  -4   8   28.79    3.09
  -2   5   2 3122.11   14.72
  -1   3   2  162.01    3.63
  -1  -8 -12   25.66    7.68
  -2   5   1  183.18    4.04
   0  -3   7  419.91    5.52
  -3   6  -1  433.85    5.22
   0  -6  -9  103.04    6.85
   0  -9  -9    5.16    5.79
   0  -2  -7 1186.01   10.99
   0  -3  -8  424.80    8.21
   0  -7  -9    0.73    5.27
   0 -11  -7  240.27    9.97
  -3   6   3   48.44    4.45
  -1  -6 -13  120.97    8.68
   0  -8  -9   48.39    6.50
   1  -7  -2   55.93    3.81
  -1  -5 -13  140.07    8.73
   1  -8  -2   34.82    4.01
   1  -7  -3  313.91    6.43
   1  -8  -3  138.81    5.43
   1  -7  -1   39.15    3.20
   0 -10  -9  132.61    8.51
   1  -8  -1 1150.07   10.03
  -1  -4 -13   84.14    7.17
  -2   4   5  473.09    7.49
   0  -5   8  695.92    7.21
   1  -8  -4  124.01    5.62
   1  -6  -2  548.94    6.83
  -3   6   2   24.06    3.78
   1  -6  -3  241.79    5.39
   1  -9  -2   57.40    4.36
   0  -6 -10   29.18    5.77
   0  -7 -10   79.56    6.71
   1  -6  -1  286.28    4.69
   0  -5 -10   12.63    5.49
   1  -9  -4  199.98    6.59
   1  -9  -1  416.10    6.96
   1  -6  -4  594.63    8.27
   1  -8  -5 1794.23   15.86
   1  -7   0  105.06    3.41
   1  -8   0  179.98    4.45
   0  -8 -10   58.01    6.91
   0 -10 -10    8.99    6.35
  -3   6   1    3.41    3.22
   1  -9  -5  115.52    6.09
   1 -10  -3   75.71    5.17
   0  -9 -11  222.37   10.37
   1  -8  -6  282.62    7.98
   1 -10  -4  526.52    9.81
   1  -9   0 1941.01   12.34
   1  -5  -3  335.50    5.65
  -3   6   0    0.70    2.76
   1  -9  -6  300.56    8.43
   1  -6   0  641.59    5.78
  -2   4   4   13.15    3.30
   1  -5  -4   47.38    3.69
   0  -7 -11  594.33   12.73
   0  -2   5 1660.55    8.86
   0  -4   7   24.50    2.65
   0 -11 -10   12.03    7.34
   1  -8  -7  102.89    6.14
   0 -10 -11   85.75    8.84
   0  -3 -10  133.16    6.54
   1 -10  -6  142.53    7.10
   1  -5  -1   27.44    2.39
   1 -11  -3  370.32    8.55
   1 -11  -4   68.20    5.71
   1  -8   1   85.45    3.17
   1 -11  -2  104.90    5.45
   0  -3   6  123.76    3.28
   1 -10   0   52.91    3.68
   1  -7   1   40.09    2.43
   1 -10  -7   45.31    6.02
  -3   5   4  459.75    8.19
   0  -7 -12    3.27    6.11
  -3   5  -6 1585.52    6.14
   0  -7   8  103.99    3.48
   1  -9   1   92.00    3.45
   1 -11  -1  100.77    4.95
   0  -8 -12  121.79    8.61
  -2   4   3   38.33    3.26
   0  -5 -12  134.78    8.03
  -1   2   3 1361.95    8.70
   1 -12  -4   45.48    5.71
   0  -4 -12  522.40   11.40
   1 -11  -8   64.15    7.20
   1 -12  -6  107.16    7.61
   1  -4  -2 2226.75   11.13
   1  -5   0  271.22    3.64
   0  -7 -13  285.98   11.11
   1  -6   1  160.91    2.85
   1 -10   1   44.25    3.20
   1  -6  -6  121.40    5.75
   1  -5  -5  330.21    6.65
  -3   5   3  350.50    6.88
  -2   4   2  351.19    5.29
   1  -6  -7  177.13    6.66
   1  -5  -6  520.37    8.48
   1  -9  -7  101.61    6.63
   1  -4  -1 1185.12    7.25
   0  -6 -14   57.74    7.33
   1  -7  -8  188.64    7.39
   1  -9  -8   36.07    5.77
   1  -5  -7   34.29    4.53
   1  -8  -8   10.42    5.29
   1  -6  -8   45.72    5.65
   1  -4  -5  475.86    7.27
   1  -4  -4  112.07    4.10
   1  -9  -9  143.92    8.23
   1  -8   2   64.31    2.40
   1  -4  -6  601.11    8.53
   1  -7  -9   65.12    6.30
   1  -5  -8  443.80    9.11
  -1   2   2  557.44    5.16
   1 -10  -8  120.84    7.93
   1  -8  -9  129.08    7.32
   1  -6  -9   87.57    6.34
  -3   5   2   20.01    3.47
   1  -4  -3    4.33    2.78
   0  -4 -14  171.03    8.50
   1  -9   2  332.24    4.23
   0  -4   6 1784.54    9.35
   1  -4  -7   10.28    3.96
   0  -2   4  314.50    3.65
   1  -9 -10  449.11   11.70
   1 -10  -9    4.51    6.03
   0  -6 -15   89.11    8.91
  -2   4   1   99.14    3.17
   1  -7 -10   53.33    6.33
   1  -4  -8  316.56    7.51
   1  -6 -10   77.93    6.48
   0  -5 -15   69.43    7.72
   1 -10 -10    5.05    6.11
   0  -3   5   79.61    2.64
   1  -7   2  539.47    4.04
   1  -5 -10   11.72    4.94
   1  -8 -11  212.44    9.20
   1  -3  -5   19.17    3.52
   1  -3  -6  214.01    5.53
   1 -10 -11   85.49    8.34
  -3   5   1   64.72    3.81
  -2   4  -7  105.93    2.90
   1  -3  -7 1232.76   11.92
  -3   4   4  806.32    9.92
   1  -4 -10  290.77    8.59
   1  -3  -8  150.29    5.76
   1  -7 -12  201.73    9.20
   1  -4   0   44.25    2.07
   1  -6 -12   47.08    6.56
   1  -3  -3 2488.00   12.24
   1  -3  -9  463.35    8.90
  -2   4   0  300.35    4.06
   1  -5 -12  661.96   12.87
   1  -8 -13   48.01    7.71
  -3   5   0  146.18    4.18
   1  -3 -10   78.08    6.08
  -1  -5   9   39.54    4.25
   1  -2  -6   14.17    3.49
  -1   2   1  155.08    2.85
   0  -5   6 1197.77    7.71
   1  -2  -5 1530.23   10.98
   1  -6 -14   21.53    6.89
   1  -3  -2  164.60    3.57
   0  -1   2   27.60    1.28
   1  -3  -1 2993.74   10.28
   2  -9  -8  482.49   10.88
   2 -10  -8  299.13    9.64
   2 -10  -7   65.01    6.21
   2  -9  -6   78.59    5.85
   1  -5 -14    4.05    6.13
   1  -3 -12  136.74    7.02
   1  -2  -4  665.18    7.08
  -1   3  -6  191.68    3.25
  -1  -6   9   63.38    4.41
   2  -9  -5  255.40    7.48
   2 -11  -7  115.33    7.30
  -1   3  -7   76.90    2.92
  -3   5  -1    2.96    2.58
   2  -8  -5  404.31    8.30
   2 -11  -6   64.26    6.07
  -1  -4   8   15.33    3.59
   2  -7  -5   87.76    5.14
  -4   5   1  102.23    5.07
   2  -9  -4 1558.09   14.21
   1  -6   2  406.98    2.87
   2  -8  -4   77.26    4.74
  -3   4   2   40.89    3.72
   1  -2  -3 1342.61    8.53
   2  -9  -3  112.63    4.99
  -3   5  -2  730.70    6.28
   0  -6   6  259.03    4.11
   2  -8  -8   97.21    6.70
   2  -8  -9  889.20   14.07
  -4   5   0  278.63    6.29
   2  -9  -9   58.56    6.83
   2  -9 -10   74.19    7.16
   2  -8 -10  137.43    7.99
  -1  -5   8  508.92    7.85
   2  -7 -10    2.06    5.16
   2  -7  -7  149.75    6.40
   2  -9 -11    3.91    6.04
   2  -8 -11   34.96    6.41
   2  -6  -9   24.85    4.95
   2  -6  -8  115.53    6.20
   2 -10 -10   56.55    7.35
   2  -6 -10  180.10    7.76
  -1   3  -4  820.39    3.72
   2  -6  -7   75.95    5.39
   0  -2   3    9.16    1.41
   2  -8 -12    0.17    5.93
   0  -3   4  442.13    4.10
  -3   4   1   61.73    3.71
   2  -6  -6  489.06    8.85
   2  -5  -9   97.23    6.23
   2  -8 -13   56.21    7.76
   2  -5  -8   75.04    5.67
   2  -5 -10  234.07    8.06
   2  -9  -2  349.26    6.55
   1  -2  -2  551.98    5.12
   2  -5  -7   61.60    5.29
   2 -10  -2   43.20    3.96
  -4   5  -1  224.43    5.72
   2  -5 -12  212.56    8.84
  -1  -6   8  218.01    5.81
   2  -6  -5  109.92    5.11
  -3   5  -3  207.61    3.46
   2  -5  -6  256.71    6.73
  -2   4  -2   23.06    1.51
   2  -4  -9  251.56    7.82
   0  -7   6  549.35    5.65
   2  -4 -10   68.19    6.10
  -1  -4   7   93.36    4.15
   2  -4 -12  103.05    7.13
   2  -7  -2  195.45    5.02
   2  -5  -5  125.31    4.98
   2  -6  -4  327.56    6.55
   1  -3   0  139.27    2.32
  -1  -7   8   38.78    4.09
   2  -4  -6  666.30    9.34
  -3   4   0  924.78    8.52
   2  -4 -14  130.45    8.52
   2  -3  -9    4.12    4.47
   0  -8   6  132.09    3.51
   1  -4   1   97.46    1.76
   2  -5  -4  244.69    5.77
   2  -6  -2  261.96    5.12
   2  -3  -7 1007.56   11.61
   2  -9  -1   78.16    3.76
   2  -4  -5  495.65    7.79
  -1  -5   7   -0.05    3.09
   3  -9  -9   86.22    7.41
   2  -8  -1   70.43    3.53
   3  -9  -8  755.08   13.25
   3 -10  -8   62.63    6.74
   2  -3  -6   10.32    3.58
   3  -9  -7   90.03    6.37
   2  -4  -4   12.43    3.21
   2  -7  -1  195.31    4.40
   2  -5  -3    0.93    2.83
  -4   4   0   16.09    3.91
  -3   4  -1   31.18    2.97
   1  -2  -1  153.98    2.78
  -1  -6   7   13.52    3.46
  -2   4  -3  107.83    1.95
   2  -3  -5 1208.18   10.98
   3  -9  -6  101.01    6.14
   3 -10  -6   84.95    6.10
   3  -8 -12   60.42    7.90
   3  -8 -11   50.93    7.20
   3  -9 -12  442.69   13.23
  -1  -4   6   67.78    3.64
   3  -7 -11   59.17    6.86
   3  -9 -11    3.90    6.37
   3  -8  -9   97.36    7.07
   3  -9 -10   48.38    7.23
   3  -6 -12   19.20    5.83
   3  -7  -9  104.54    7.08
   0  -6   5  260.61    3.95
   3  -6 -10  175.15    8.18
   3  -6 -14  105.76    8.93
   0  -4   4    4.03    1.68
  -3   5  -5  414.29    3.66
   2  -6  -1   69.85    3.13
   2  -4  -3   35.36    3.17
   3  -5 -14   69.57    7.84
   3  -5 -10  210.81    8.40
  -1  -8   7 1121.70   11.34
   3  -6  -8   70.38    5.83
   3  -5  -9   91.63    6.51
   2  -5  -2 3089.40   14.61
   2  -9   0  194.02    4.03
   3  -4 -10   72.31    6.51
   3  -5  -8  211.79    7.68
  -1  -5   6  177.42    4.90
  -3   4  -2   54.00    3.13
   3  -9  -4   49.57    4.73
   3  -7  -6   48.01    4.93
   2  -8   0   53.96    2.83
   0  -7   5   48.99    2.81
  -1   4  -7   46.13    2.29
   3  -5  -7   -1.33    4.62
   3  -6  -6  114.51    5.85
  -4   4  -2  546.11    8.05
   2  -3  -3  304.34    5.36
   2  -4  -2  356.01    5.35
   3  -7  -5  224.32    6.74
  -4   3   0  257.87    6.88
   0  -3   3 2612.53    8.39
   3  -5  -6  790.52   11.06
   3  -4  -7   24.61    4.88
  -1  -6   6    0.45    3.32
   3  -6  -5  208.16    6.53
  -1  -4   5  522.42    6.69
  -2  -4   6  584.24    8.93
   3  -4  -6   19.17    4.68
   2  -5  -1  193.28    3.96
   3  -3  -7  140.23    6.19
   0   4 -12  385.54    7.78
   3  -5  -5   78.04    5.18
   0  -5   4  528.54    4.85
  -4   4  -3   44.91    3.97
   3  -7  -4   40.62    4.23
   0   4 -11   30.20    3.88
  -3   4  -3   30.09    2.82
  -1  -8   6   10.44    3.63
   4  -5 -12  100.01    8.49
   2  -3  -2   15.99    2.77
   3  -3  -6    9.67    4.11
   4  -5 -11    5.55    5.99
  -1   4  -6   71.69    1.98
   4  -7  -9  195.56    9.11
   4  -4 -12   53.60    6.88
   0   4  -9   52.40    3.70
   4  -5 -10   92.19    7.51
   3  -5  -4  482.28    8.22
   4  -6  -9  116.60    7.58
   3  -8  -3    1.73    3.45
  -1  -5   5  444.78    6.61
   3  -7  -3  245.96    6.20
   4  -9  -6  114.89    7.02
   2  -4  -1  100.30    3.19
   3  -9  -2   75.28    4.30
   4  -4 -10    3.32    5.23
   4  -6  -8   42.08    5.75
   3  -6  -3   52.75    4.27
   2  -6   0    1.91    2.04
   3  -4  -4  814.94   10.04
   0   4  -8   29.44    3.02
   4  -7  -7  145.55    7.43
  -2  -4   5  338.54    7.06
  -1   5 -10  113.94    3.68
   0  -6   4  586.96    5.52
  -2   5  -8   40.80    1.28
   1   4 -13   44.04    5.39
  -1  -6   5   45.88    3.75
   3  -5  -3  365.99    6.90
   4  -4  -8  576.79   11.48
   4  -5  -7  118.65    6.73
   4  -6  -6  110.24    6.41
  -2  -5   5  395.10    7.83
  -1  -4   4    5.50    2.67
   3  -7  -2    3.21    3.12
  -1  -7   5   72.64    4.38
   2  -5   0 1552.54    8.49
   4  -4  -7  111.92    6.53
   0   5 -12  202.98    6.02
  -1   5  -9    2.16    2.27
   0   4  -7   27.14    2.63
   2  -3  -1 1255.26    8.61
   1   4 -10  586.19    9.15
   3  -4  -3   28.41    3.81
   4  -5  -6    8.15    4.80
   3  -6  -2   22.96    3.52
  -1  -8   5  386.93    7.32
   0  -7   4  104.94    3.40
   0  -4   3  547.54    4.54
   4  -8  -5  451.35    9.76
   0  -9   4  931.46    8.36
   4  -7  -5   65.45    5.60
   5  -7 -10   -2.65    6.91
   5  -5 -11   48.62    7.55
   4  -6  -5   13.67    4.63
   4  -4  -6   97.84    6.22
   5  -6 -10  115.25    8.82
   3  -5  -2   18.39    3.46
   0  -8   4  346.60    5.35
   5  -8  -9  198.68   10.14
   5  -4 -11   80.68    8.13
   5  -5 -10   28.50    7.10
   5  -7  -9   10.31    6.77
  -2  -4   4  306.64    6.58
   4  -5  -5   17.00    4.60
   5  -6  -9   39.61    7.26
  -1  -5   4  188.86    4.59
   4  -8  -4   45.77    5.08
  -1  -3  17   -1.22    7.94
   0  -2  12  556.93   10.54
  -1  -6  -1    3.97    3.48
   0  -4   8   29.75    5.70
  -3 -11   3   -0.58    7.99
   0  -3  11    6.00    5.71
  -2 -10   6    1.44    7.43
  -2 -10   8   21.76    8.69
  -1  -5  16  108.20   10.30
  -1  -4  17    4.73    7.79
  -2 -10   9   68.97    9.99
  -2 -10   5   47.09    7.96
  -1  -7  13   17.82    8.10
  -3 -11   2   -3.18    7.45
  -1  -6  15   -3.50    7.95
   0  -4  10    9.87    6.28
  -2 -10   4   13.82    7.23
  -1  -3  18    3.89    8.25
   0  -2  13   49.84    6.04
   0  -3  12    0.67    5.27
  -3 -12   4   -3.52    8.26
   0  -4  11   25.51    6.08
  -1  -7  14   12.15    8.33
  -3 -12   3   16.96    8.30
   0  -5   7    2.09    5.39
  -3 -11   1   11.30    7.19
   0  -3  13   14.57    5.97
  -1  -8  12    0.63    8.23
   0  -5   9    4.71    6.13
   0  -4  12  396.84   10.06
   0  -5   5    1.79    4.41
  -1   1  -4  673.08    6.75
  -2 -11   7   14.18    8.35
  -2 -11   6   10.64    8.30
   0  -5  11    7.50    6.16
   0  -3  14   21.84    5.99
  -2   2  -6  394.02    7.63
  -2 -11   5    8.95    7.35
  -1  -9  10   29.38    8.25
   0   5   7    9.49    1.93
  -2 -11   4    9.61    6.83
   0  -6   7    1.00    5.90
  -1  -8   0   24.49    5.05
  -2 -12   5   40.89    8.97
   0  -4  14    0.29    6.43
   0  -3  15   89.02    7.60
   0  -5  13   12.62    7.03
  -2 -11   3    5.35    7.01
  -1  -1  -4  821.95    4.73
   0  -5   3    9.49    4.03
   0  -3   0   -0.08    2.44
   0  -6  11    7.08    6.44
  -2 -12   4   60.88    8.89
  -2  -7  -4    0.69    3.05
   0  -6  12   19.86    7.15
  -1  -5  -3   -0.30    2.22
   0  -4  15   10.96    6.76
   0  -5  14   21.38    7.52
  -2 -11   2   18.94    6.80
  -1 -10  10   22.17    8.67
   0  -3  16   41.76    6.90
   0  -6  13   27.46    7.14
   0  -7   7    5.42    6.04
  -2  -1  -6   64.57    3.28
   0  -7  10    3.51    6.31
  -1   7   4    6.39    4.39
  -1  -8  -1    7.33    4.43
   0  -5  15    8.80    7.34
   0  -4  16  234.64   10.55
  -2 -12   2    2.36    6.60
   0  -3  17   27.58    7.30
  -2   2  -5   93.21    4.88
   0  -5  16    0.24    7.47
   0  -8   8   25.57    6.79
  -1 -11   8   38.94    8.00
  -1   7   5   12.69    4.24
   0  -4  17   37.82    7.72
   0  -8  11   -0.84    6.41
   0  -7  14   39.80    8.13
  -2 -12   1    1.20    6.56
  -1 -11   6   45.73    8.29
  -1 -12   6    4.94    7.04
  -2 -11   0   10.82    5.75
  -2 -13   3   -7.18    7.85
   0  -5  17   98.86    9.14
  -3  -2  -7   28.01    3.51
   0  -8  13    3.75    7.54
   0  -8   2   15.25    5.58
   0  -7   3    6.34    5.08
  -1   7   6   14.75    4.24
  -1   1  -3    7.98    2.56
  -1 -11   4    6.25    6.92
   0   4   5    0.64    1.63
  -2  -8  -4    0.44    3.12
   0  -9   9    0.32    6.70
  -1  -8  -2    4.46    4.09
   0  -9  11    9.73    7.01
  -1 -11   3   49.77    7.23
  -1   7   7    5.26    3.78
   1  -2   9   95.86    5.24
  -2 -11  -1   21.71    5.70
   1  -2   8 1346.33   11.97
   1  -2  10  296.48    7.45
   1  -3  10   23.58    4.82
   1  -2  11  392.30    8.82
   1  -4   9    6.30    5.03
   1  -3  11  212.90    7.26
   0  -7   0    3.19    4.10
   0 -10  10    9.87    8.05
  -1 -12   2   18.03    6.72
   0 -10   7    0.26    6.67
  -1 -10   0    8.63    5.26
   1  -3  12   61.17    5.68
   1  -2  12  339.01    8.49
  -1 -13   4   -1.36    7.54
   1  -2   6  536.37    7.05
  -2   2  -4 1393.24   11.37
   1  -4  12  420.24   10.08
   1  -3  13    6.77    5.19
  -1 -13   3   44.21    8.50
   1  -6   8   31.97    6.17
  -1 -12   1   23.27    6.56
   1  -3   5    1.12    3.36
   0 -11   8    8.76    7.47
   0 -12   6   -1.85    7.63
   1  -3  14   43.98    5.98
   1  -4   5    0.06    3.75
  -2   3  -3   20.23    3.96
   1  -6   7    6.82    5.33
   1  -4  14    4.87    5.64
   0 -11   7    2.86    6.72
  -1   6   5    7.51    3.57
   1  -7  10    1.98    6.47
   1  -7  11   10.30    6.22
  -1 -13   2    7.95    7.26
   0 -10   3    7.61    6.01
   1  -7   8   28.94    6.33
  -2  -1  -5   73.76    3.02
   1  -7  12    6.50    7.12
   1  -3  15  501.67   11.74
   1  -4  15   66.42    7.34
   0 -11   5   -2.25    6.23
   1  -6  14   34.02    7.97
   1  -1   5  194.83    4.48
   1  -5  15    2.31    6.74
   1  -7  13   13.69    7.57
   1  -7   6    6.36    5.74
   0 -11   4   19.02    6.68
   1  -6  15    1.14    6.70
   1  -8   8   29.77    6.75
   1  -4  16   81.96    8.07
  -1 -13   1    6.02    6.70
   1  -5  16   -0.96    6.64
   1  -9   8   18.15    7.05
  -3  -2  -6   36.08    3.67
  -1 -11  -1   35.58    5.71
   1  -9  11   30.63    8.04
  -2   2  -3 1168.75   10.35
   1  -9   7   21.74    6.59
  -1   1  -2   83.80    2.97
   0 -12   2   36.57    6.57
  -2   4  -1    7.27    3.68
   1  -1   4  608.29    6.46
   1  -9   5   23.67    5.91
   0 -13   3   29.26    7.68
   1   1   8  119.49    3.82
   1 -10   8   -0.81    6.39
   1 -10   7   33.06    7.29
   0 -13   2   19.29    7.51
  -1 -11  -2    4.81    4.68
   1 -12   5   13.31    7.17
   1   1   7    2.73    1.87
  -1  -8  -4    2.66    2.95
   1 -11   6   27.51    7.06
   0 -13   1   26.88    7.08
   0 -11   0   38.57    6.25
   2  -9  10   -0.63    6.60
   1 -10   3   41.39    6.23
   1  -1   3    5.73    2.22
  -2   3  -1   20.92    3.73
   1 -11   4   -1.58    6.31
   2  -5  11   25.97    5.75
   2  -6  11    4.73    5.75
   2 -10   8    0.19    6.69
   2  -5  12    1.68    5.83
   2  -6  12   19.58    6.68
   2  -4  10   12.49    4.90
   2  -4  11  125.14    6.60
   2  -7   9    3.46    5.54
   2  -6  13   -0.56    6.30
   2  -5  13   10.73    6.09
   0 -13   0    5.78    6.41
   1 -11   3    6.73    6.31
   2  -7  13   11.09    7.04
   0 -14   1   -3.49    7.36
   2  -4  13    0.11    5.32
   1 -12   2   12.88    6.49
   2  -3  10  137.82    6.14
   2  -3  11  831.60   11.64
   0 -11  -1   19.59    5.29
   2  -5  14   53.76    7.49
   1   1   6  176.59    3.00
   0  -7  -3    6.05    3.17
   2  -3  12  243.49    8.00
  -2  -1  -4  678.85    7.58
   2  -8   8   35.40    6.60
   2  -4  14   46.64    6.28
   2  -3  13  132.83    6.85
   2  -9   8   31.80    7.00
   2  -5  15   -2.89    6.04
   2 -11   6   -3.30    6.74
  -3  -2  -5    0.35    3.09
   2  -3  14   15.53    5.08
   2  -2  11   19.93    4.30
   2  -2  10   19.44    4.13
  -1 -10  -4   24.59    4.09
   1 -12   1    1.00    5.92
   1 -13   2   36.35    6.81
   2  -8   6   35.24    6.02
   0  -5  -3    6.74    2.18
   2  -2   9   28.70    4.24
   0 -13  -1   32.87    6.57
   2 -10   7    2.27    6.69
   2  -2   8  914.99   10.76
   2  -9   5   49.96    6.87
   1 -11   1   37.94    6.52
  -1   1  -1 2207.58    9.03
   2 -10   6    1.99    6.49
   2  -4   5    0.80    4.03
   1   2  11  714.76    5.56
   1 -13   1   -1.48    7.01
   2  -2   7  934.39   10.10
   2  -7   4    3.59    5.04
   1   2  12  311.13    4.26
   1   2  10  204.48    3.24
  -2   2  -1  380.53    6.26
   2  -8   4   33.58    5.73
   2 -10   4    6.20    5.96
   1 -11   0    2.50    5.53
   2 -11   5   -3.21    6.51
   2  -2   6  386.38    6.76
   2 -12   3   10.28    6.97
   1 -13   0   12.66    7.07
   2  -6   3    6.60    4.85
   1 -10  -1   11.00    5.14
   2 -11   4    4.08    6.20
   2 -10   3   38.22    6.40
   3  -9   8   39.92    7.22
   1   1   5  111.82    2.47
   0 -12  -3   17.18    5.33
   2 -12   2   -0.67    7.07
  -1  -7  -5   14.30    2.37
   2  -7   2   -0.14    4.90
   3 -10   6   18.12    7.06
   1 -13  -1   44.91    7.08
  -2  -2  -4  575.90    5.24
   2  -9   1   33.00    6.10
   2 -12   1    0.80    5.92
   2 -11   2   17.67    6.13
   3  -7  11    2.07    6.87
   3 -10   5   -2.14    6.62
   3  -8  10    0.71    6.74
   3  -6  11    1.78    6.00
   1  -5  -2    4.14    2.94
   3  -6   9   11.92    6.02
   3  -6  13    6.86    6.33
   2  -3   3   22.08    3.37
   3  -5  11   14.90    6.26
   3  -5  10   45.12    6.39
   3  -6   8    8.59    5.66
   3  -9   7   27.96    7.38
  -2   2   0 2630.42   13.88
   3  -5  12    3.77    6.36
   2  -2   4 1398.43   10.84
  -3  -2  -4  448.78    6.67
   3  -5   9   28.73    5.96
   2  -8   1   12.95    5.11
   3  -5  13    5.31    6.22
   3  -9   6    2.14    6.41
   3  -6   7    3.02    5.33
   3  -5   8   17.81    5.50
   1 -13  -2   15.07    6.23
  -1   5   9   12.25    3.21
   3  -4  12    3.56    5.18
  -3  -4  -5   16.38    2.83
   3  -4   9  103.28    6.03
   3  -4  13   78.43    6.97
   3 -11   3    4.31    7.07
   2 -13   0   20.56    7.49
  -2   3   2   20.27    3.47
   2 -11   0    1.36    5.97
   3  -9   4    2.96    6.19
   1 -12  -3    5.43    5.56
   3 -10   4    4.76    5.78
   3  -3  11  437.54    9.73
   2  -7   0    3.36    4.75
   3 -11   2    2.21    6.64
   3  -3  12    5.89    4.98
   2  -2   3 1136.40    9.71
   3  -3   9  382.05    8.75
   2  -4   1    8.51    3.36
  -1   5  11    4.27    2.87
   3 -10   3    3.85    6.22
  -1   1   0 6789.78   16.09
   3  -3   8  348.60    8.32
   1 -13  -3   16.45    6.07
   2 -11  -1   18.18    5.75
   2  -8  -2    3.46    4.57
   3  -3   7 1250.18   13.04
   2  -1   4  916.64    8.84
   3  -4   5   22.10    5.01
   3 -10   2    1.56    5.84
  -2   2   1  155.80    4.70
   2 -12  -2   24.92    6.25
   4  -8   7   23.17    6.91
   3  -2  10    0.46    4.08
   3  -3   6  109.49    5.64
   1   1   4  784.86    4.40
   3  -2   9    0.99    3.99
  -2   3   3  323.54    5.90
   3  -9   1    0.58    5.75
   2 -13  -2   51.06    8.02
   2  -3   1   18.81    3.33
   3 -10   1    4.27    6.15
   1  -7  -4    8.58    3.64
   3  -2   8   41.24    5.21
   3 -11   1    4.55    5.86
   4  -9   4   40.56    7.91
  -1   3   4    5.30    2.61
  -3  -2  -3  756.05    8.80
   3  -2   7    0.91    4.05
  -1   2   2  561.58    5.50
   4  -7   9   14.51    6.40
   3  -9   0   15.33    6.08
   2 -12  -3   -1.55    6.11
   3 -10   0   27.48    6.36
   4  -7   8   -1.28    6.68
   4  -6  10   -4.46    6.75
   3  -4   3   30.59    5.08
   4  -6   9    4.09    6.48
   3 -11   0   -0.48    6.41
   3 -12  -1   24.40    7.46
   4  -7   7   -2.72    6.29
   2 -13  -3    8.10    6.95
   3  -2   6   69.45    4.99
   4  -6   8   19.93    6.07
   3  -3   4   64.12    5.02
  -1  -1  -2  221.96    2.56
  -2   3   4    7.66    3.35
   4  -6   7   15.75    6.28
   4  -5  11   28.98    7.05
   4  -5  10    1.01    6.64
  -2   4   7    0.94    3.70
   4  -5   9    8.86    6.49
  -2   2   2   61.93    3.94
   4  -5   8    5.83    6.30
   1 -11  -5    4.62    4.90
   3 -11  -1   11.83    6.78
  -2  -2  -3 1595.23    8.76
   3  -2   5    6.97    4.08
   4  -9   3    6.90    6.44
   4  -5   7   15.53    6.12
   3 -12  -2    4.17    7.23
   4  -8   4   49.31    7.12
   4 -10   1   20.71    7.38
   4  -6   5   33.51    6.73
   4  -4  10    5.28    5.92
   4  -4  11   15.86    6.43
   1  -1   0 8120.63   68.88
  -2   4   8    9.78    4.07
   4  -5   6   21.72    6.15
   2 -13  -4   10.56    6.93
  -1   4   9    2.38    2.98
   4  -9   2   24.65    7.01
   4  -4   8    2.72    5.60
   2  -8  -3    0.44    4.28
   2 -11  -4    2.57    5.53
   4  -6   4    3.98    5.79
   2  -1   2    6.05    3.19
   3  -2   4  692.81   10.00
   3 -11  -2    4.74    6.26
   4  -5   5   12.87    5.48
  -2   3   5 1321.13   10.80
   4 -10   0    1.81    7.18
   1  -7  -5   17.95    3.85
   2  -7  -3   23.76    4.71
   3 -12  -3    0.24    6.72
  -3  -3  -3  516.29    6.95
   4  -3  10   38.99    6.05
  -1   1   1   60.09    2.53
   4  -3  11    1.96    5.49
   0  -8  -6    9.36    2.95
   4  -3   9   63.53    6.53
  -2   2   3   60.05    3.87
  -3  -2  -2    3.22    3.21
  -1   4  11    0.08    3.16
   4  -3   8   56.04    6.07
   2  -6  -3   -1.05    4.00
   4 -10  -1   43.01    7.45
  -1   2   3 1319.93    8.02
   3  -9  -3   15.60    5.89
   3  -2   3 1102.15   11.55
   4  -9   0   -5.77    6.26
   3 -11  -3   21.27    6.42
   4  -3   7  502.84   10.37
   2 -10  -5   34.91    5.62
   3  -8  -2    5.69    5.63
   2 -11  -5   40.22    6.33
  -2   3   6   11.54    3.51
  -1   3   6  204.09    4.16
   4  -3   6    0.85    4.70
   3  -3   1   23.44    4.30
   5  -7   4    7.82    6.70
   4  -2  10   83.71    6.44
   4  -3   5  391.16    9.11
   2  -1   1  183.73    5.21
   4  -6   1   12.70    5.62
   0   4   2 2894.34   11.95
   0   3   1  497.25    5.06
  -1  -7   1   44.01    5.44
  -1  -5  -2 1319.61    9.14
  -2  -7  -3  620.07    8.04
  -1  -6  14  116.48    9.79
  -1  -7  12   20.39    8.03
  -2 -10   7    1.58    7.57
   0  -4   9   49.01    6.34
  -2  -8  -2   48.08    4.72
  -1  -4  -3  229.05    3.34
  -1  -8   8  335.07   10.97
  -1  -8   7 1065.14   16.63
   0  -3   1 1655.51    9.88
  -1   3  -4  858.21    9.54
   0   5   5   36.03    2.61
  -1  -8   2  501.18   10.12
  -1  -7   0  420.83    8.02
  -1  -8   9   69.44    8.63
  -1   5  -3   83.17    5.42
  -1  -8   6   -1.16    6.51
   0  -4   4   -0.51    4.23
  -1  -8  10   76.93    8.76
   0  -3   2  335.61    5.57
  -1  -8   5  399.00   10.43
  -2 -10   3   79.33    8.10
  -2  -9   0    3.41    5.22
  -1  -8  11    4.89    7.55
   0   4   3  531.39    5.21
  -1   2  -4 1887.00   12.26
  -1  -8   4   70.64    6.92
   0  -5   8  739.42   12.49
  -1   8   4  121.62    6.61
   0  -5   6 1161.35   13.49
   0  -4   3  546.47    8.01
  -1  -8   1   99.68    6.47
  -2 -10   2  252.86    9.57
   0   5   6  442.09    4.45
   0  -5  10  263.37    9.13
  -1   4  -3  234.74    6.26
  -1  -8  13  224.07   11.77
  -1  -8   3  919.24   13.38
   0  -4   1  263.98    5.52
   0  -5   2  266.48    6.30
   0  -2   0  763.82    5.13
  -1   8   5 1695.28   14.83
  -1   7   2   51.94    5.18
  -1  -9   7  132.00    9.03
  -1  -9   8  122.91    9.34
  -1  -9   6  132.09    8.81
  -1  -7  -1   73.66    4.86
  -1  -9   9   19.33    7.76
  -1  -6  -2  719.90    7.84
   0  -5   4  506.43    8.61
  -2  -9  -1   17.45    4.80
   0   2   1 3474.14    9.03
  -1   5  -2 3859.37   20.66
  -1  -9   5   55.30    6.75
  -1   6  -1  157.71    6.35
  -2 -10   1  248.43    9.10
   0   3   2  700.36    5.08
   0  -5  12  183.97    8.81
   0  -6   8    7.81    5.73
  -1   8   6  257.58    7.16
   0  -4   2 1405.94   11.03
   0  -6   9   91.87    7.37
  -1  -9   4  148.02    7.73
  -1  -9  11   68.10    9.01
  -2  -8  -3  902.03    9.87
   0  -6   6  245.70    8.15
   0  -6  10  291.02    9.85
  -1   3  -3 1706.53   12.26
  -1   8   7  107.72    5.48
  -1   7   3  309.67    7.49
  -1  -9   3   57.41    6.78
   0  -6   5  255.48    7.91
   0  -5   1  787.79    8.84
  -2 -10   0   99.34    6.92
   0  -6   2  127.68    5.58
   0   4   4  941.21    6.00
  -1 -10   8  231.17   11.25
  -1 -10   7   38.62    7.88
  -1 -10   9   91.76    9.13
  -2 -12   3   86.54    8.87
   0  -6   4  557.95    9.67
  -1 -10   6  125.78    8.68
  -1  -9   2 1638.51   17.46
   0  -7   8   98.84    7.55
  -2   3  -5   82.78    5.55
   0  -7   9   78.41    7.54
  -1   6   0  680.11    9.73
  -1   4  -2 1978.82   13.82
  -2  -9  -2   43.16    4.90
  -1 -10   5   46.28    7.24
  -1   5  -1    3.64    3.90
   0  -4   0  234.75    4.93
   0  -7  11  160.21    9.06
   0  -7   6  521.89   11.36
  -2  -3  -6  182.20    2.71
  -1 -10   4  109.74    7.82
  -1   2  -3  743.12    7.67
   0  -6  14  115.36    9.39
  -1  -7  -2   36.04    4.01
  -2  -2  -6  206.43    3.80
   0  -7  12   80.88    8.04
  -2 -11   1  102.53    7.66
   0  -6   3   87.35    5.46
   0  -7   5   46.42    6.40
   0  -6   1   50.54    4.30
  -1   6   2  550.50    8.29
  -2 -10  -1  261.68    8.24
  -1  -9   1  391.36    9.40
   0  -7   2   35.92    4.83
   0  -7  13  668.84   15.63
  -1 -10   3   20.42    6.47
   0  -6  15   22.77    8.08
   0  -8   9  331.20   10.98
   0  -8  10   79.04    8.30
   0  -8   3 1645.51   17.07
  -1 -11   7   10.44    7.32
   0  -7   4  102.65    6.73
   0  -5   0   73.36    4.06
   0  -8   7    8.52    6.12
  -1   6   1  296.45    6.99
   0  -8  12   30.79    7.71
   0  -8   6  116.64    7.52
  -1 -10   2   17.52    6.08
  -1 -11   5  424.86   12.77
  -1 -12   5    5.40    7.17
  -1  -6  -3  130.69    3.91
  -1   3  -2   35.18    3.95
  -1  -9   0   77.99    5.88
   0  -7   1  267.22    7.20
   0  -8   5  150.11    7.59
  -1   5   0  295.20    6.31
  -1   6   3  244.91    6.00
  -3  -3  -7 1544.83    9.98
  -2  -9  -3   93.25    5.10
  -1   4  -1  103.94    4.71
  -1 -12   4  171.81   10.05
   0  -9   8  721.69   14.72
  -2   3  -4  436.48    8.13
   0  -6   0 1583.05   12.62
   0  -9   7  212.32    9.77
  -2 -10  -2    1.20    4.67
   0  -9  10   35.67    7.71
  -2  -6  -5  343.98    3.93
   0   3   3 3038.92    8.98
   0  -9   6   99.24    7.66
  -1 -10   1  168.06    7.71
   0  -8   4  329.89    9.58
  -1 -12   3   78.45    7.89
   0  -9   5    8.49    6.16
  -2   4  -3  126.17    5.63
   1  -3   9   64.74    5.65
   1  -3   8   57.67    5.27
   0  -8   1  419.45    9.16
   0  -3  -1  483.24    4.71
   0  -4  -1  357.71    5.09
   1  -2   7  140.96    5.14
  -1  -9  -1   66.43    5.30
   0  -9   4  896.23   14.09
   1  -3   7   75.77    4.95
  -1 -11   2    8.72    6.06
   1  -4  10    0.47    5.16
   1  -4   8  796.03   11.54
  -1   7   8  154.91    5.21
   0 -10   9  154.88   10.00
   0 -10   8    4.27    7.09
  -1   6   4  609.19    8.17
  -1  -7  -3  120.63    4.45
   1  -4  11   48.66    6.04
   1  -4   7   44.88    5.28
   0  -5  -1  409.71    6.07
   0 -10   6   24.45    7.05
   1  -3   6  194.23    5.92
   1  -5   9    2.99    5.14
   1  -5  10  108.05    7.27
  -1   5   1   25.89    3.61
   0  -9   3  300.74    9.02
   1  -5   8  200.96    7.77
  -1   7   9   52.01    3.99
  -1   2  -2  246.64    4.76
   1  -5  11   -2.85    5.30
   1  -4   6   67.64    5.18
   0 -10   5  123.00    8.40
   1  -5   7   11.39    5.39
   1  -5  12   -1.99    5.48
  -1 -11   1    5.30    5.62
   1  -4  13   50.84    6.69
   1  -6   9   87.77    7.08
   1  -6  10  483.61   11.56
   0  -6  -1  119.03    4.59
   0  -2  -1 3468.80    8.95
   0  -8   0  124.78    6.31
  -1   4   0   53.68    4.14
   1  -6  11   18.77    6.35
   1  -5   6  489.49    9.67
   0 -10   4  213.45    9.28
   1  -5  13  193.04    9.20
  -1   3  -1  165.62    4.58
   0  -9   2   50.29    5.98
   1  -2   5  660.58    7.90
   1  -6  12   32.42    6.73
  -2   4  -2   22.67    4.23
   0 -12   5   -0.51    7.38
  -1 -10  -1   69.24    5.86
   0 -11   6    9.88    6.71
   1  -5  14  521.38   13.43
   1  -6  13  101.70    8.37
  -1  -9  -2 1018.85   11.85
   1  -7   9  661.74   13.28
  -1  -8  -3  304.18    6.39
   0   4   6  583.82    4.12
   1  -5   5  115.01    5.86
   1  -6   6  245.84    8.06
   0   2   2  513.53    3.22
   0  -7  -1   57.09    4.38
  -2   5   0 1642.11   14.38
  -1 -11   0   13.78    5.61
   1  -7   7  290.97    9.34
   0 -12   4  133.29    8.89
   1  -3   4  835.95    9.11
  -2  -7  -5  390.50    4.63
   0  -9   1   13.21    5.09
   1  -4   4    6.83    3.82
  -1 -12   0   72.03    7.17
   1  -6   5  240.11    7.88
  -1   5   2    4.99    3.33
   1  -8  10   63.13    7.78
   1  -8   9  115.08    8.41
   1  -8  11  268.75   11.08
   0 -10   2  111.59    7.22
   1  -2   4 1818.75   11.69
   1  -7  14  125.67    9.64
   1  -5   4 1470.39   13.78
   1  -8  12   85.15    8.61
  -1   6   6  119.46    4.55
   0 -12   3   69.92    7.89
   0  -8  -1 2187.22   16.52
   1  -8   7   34.47    6.43
   1  -7   5  183.60    7.79
   1  -6   4    9.46    4.56
   0 -11   3   52.40    6.92
   1  -8   3   94.04    6.54
   1  -9   9  114.87    8.79
  -1  -5  -4 2971.35    9.72
   1  -8   6  149.24    8.03
   1  -9  10    3.11    7.20
  -1 -10  -2  183.09    6.85
   0  -9   0    4.19    4.62
   1  -4   3  223.34    5.83
   0 -10   1    7.11    5.32
  -1   4   1 1256.33   10.05
   1  -7   2  521.21    9.46
   1  -3   3 1710.10   12.03
  -1  -6  -4  225.13    3.92
   1  -5   3   76.13    4.79
   1  -9   6   43.23    6.53
   0  -5  -2  121.06    3.73
  -1 -12  -1  140.87    7.69
   1  -7   4  110.17    6.72
   1  -8   5  159.85    7.65
  -1   6   7  178.94    5.07
  -2   3  -2  290.31    6.28
   0  -6  -2   35.11    3.23
   0 -11   2   71.10    7.29
  -1  -9  -3   -1.20    3.65
   0   3   4   43.71    1.77
   1 -10   9  164.03   10.20
   1  -8   2   61.13    6.12
   1  -6   3   -0.87    4.40
  -1  -4  -4   55.76    1.49
   0  -4  -2 2888.28   11.58
  -1   5   3  339.90    5.98
  -1   3   0  139.56    4.12
  -2  -2  -5  354.96    4.39
   0  -7  -2   51.11    4.02
   1  -2   3  703.35    7.26
  -1   2  -1 1392.11    8.90
  -1  -7  -4   68.78    3.45
   1  -8   4   88.44    6.79
   1  -6   1  159.26    5.56
   0 -12   1    1.07    6.13
   1 -10   6   56.63    7.41
   1  -9   4  597.41   12.18
   1  -7   3   84.26    5.95
   0 -10   0  377.89    9.42
   0 -11   1  558.23   12.00
   1  -7   1   35.34    4.99
  -3  -3  -6    0.56    2.87
  -1   6   8   43.76    3.72
   0   4   7   85.66    1.94
   0  -9  -1  134.05    6.25
  -2   5   1  191.28    6.20
   1 -10   5  516.69   12.82
   0  -8  -2  487.71    8.31
   1  -5   2 3773.04   19.82
   1  -4   2 1916.32   13.17
   1  -8   1   81.93    5.97
   1 -11   7  101.54    8.69
   1  -9   3  253.09    8.81
   1  -6   2  402.44    7.92
   1 -10   4   75.44    7.12
  -1 -10  -3  242.94    6.76
   1  -3   2   35.11    3.63
  -1   6   9   79.83    4.04
   0 -12   0  109.32    7.46
   1 -12   4    1.64    6.42
  -2   4   0  312.75    6.74
   1 -11   5  166.31    9.09
  -1   4   2 2342.98   12.82
  -1   5   4   52.89    3.46
   0 -10  -1   66.05    5.71
   1  -9   2  316.24    9.06
   0  -3  -2  696.57    4.81
   1  -6   0  642.64    8.87
  -1   6  10   74.26    3.78
   1  -7   0  108.44    5.37
   1 -12   3   83.61    7.73
  -2   2  -2  768.51    8.44
  -3  -4  -6   79.21    3.17
   2  -5  10 1100.11   15.15
   1  -5   0  273.54    5.97
   2  -6  10    4.27    5.67
   1  -8   0  158.75    6.76
   2  -5   9  324.17    8.96
  -2   5   2 3174.10   18.63
   2  -6   9  153.69    7.72
   0  -9  -2  927.94   11.43
   1  -2   2  232.61    4.34
   1  -5   1    0.81    3.24
  -1  -9  -4    1.03    3.24
   2  -7  10  329.85   10.39
   2  -7  11  131.52    8.31
   2  -4   9   52.36    5.29
   2  -5   8   50.63    5.82
   2  -4  12  162.32    7.84
   2  -6   8  149.96    7.43
   2  -7  12   52.95    7.47
   1 -10   2   23.33    5.92
   1  -4   1   85.58    4.16
   1  -9   1   78.21    6.30
   2  -4   8  394.89    9.00
   0 -12  -1   67.14    6.56
   2  -7   8   18.64    6.06
   2  -8  11    1.26    6.57
   2  -8  10   92.21    7.99
   2  -6   7   -0.48    4.83
   2  -5   7   96.66    6.44
   2  -8   9    8.86    5.96
   2  -6  14  280.42   11.03
   2  -3   9  117.44    5.92
  -1   3   1 3055.97   13.30
   2  -7   7  194.93    8.25
   0  -6  -3  681.15    7.17
   2  -4   7  109.80    6.16
   2  -9   9  185.59    9.44
   2  -3   8   16.29    4.73
   0  -8  -3  112.37    5.07
  -2  -3  -5   31.20    1.96
   0 -10  -2  128.36    6.26
   2  -6   6 1023.35   13.88
  -1   5   5  322.51    5.52
   2  -8   7  469.11   11.48
   2  -5   6  371.36    8.84
   1 -11   2   44.59    6.67
   1 -10   1   38.54    5.82
  -2   4   1  101.84    4.75
   2  -7   6  112.64    7.10
   1  -3   1  171.03    4.41
   2  -9   7   57.75    7.00
   2  -4   6    8.94    4.35
   2  -3   7  243.74    6.90
   1  -7  -1   38.45    4.21
   2  -9   6   75.03    7.07
   1  -9   0 1841.51   17.48
  -2   5   3    0.40    3.52
   1  -8  -1 1130.23   13.02
  -1   4   3    2.59    2.89
   2  -6   5  281.32    8.24
   1  -6  -1  276.53    6.26
  -1   2   0  548.57    5.73
   2  -5   5    4.54    4.81
   2  -7   5  447.33   10.16
   0 -12  -2   62.67    6.35
   2  -8   5  235.45    9.00
   2  -3   6    8.09    4.08
   0  -9  -3  308.63    7.12
   0 -11  -2    0.90    4.74
  -2   3   0  380.73    6.69
   1 -10   0   51.00    5.99
   1  -5  -1   25.26    3.50
   2  -6   4   17.18    5.01
   2  -9   4   73.32    6.65
   2 -10   5   95.71    8.03
   1 -12   0  116.28    7.80
  -1   5   6  497.52    6.44
   2  -5   4   31.95    4.58
   1  -1   2   72.16    2.62
   1  -4   0   44.35    3.54
   1  -9  -1  409.23    9.28
   0 -10  -3  140.54    6.14
   2  -3   5   75.09    4.47
  -2   5   4  256.81    6.48
   1  -2   1 1359.48    8.63
   0   3   5  484.09    3.40
  -2   4   2  344.33    6.68
   2  -9   3   54.22    6.24
   2  -4   4 1436.97   13.36
   2  -7   3  313.44    8.68
   1  -8  -2   40.62    4.86
   0  -4  -3  554.88    5.04
   2  -8   3  329.47    9.39
  -3  -3  -5  383.47    6.17
   1  -7  -2   53.18    4.53
   2  -5   3   54.09    4.79
   1   2   9  113.04    2.57
  -1   3   2  165.23    4.00
   1 -12  -1  108.29    7.93
  -1   4   4  110.52    3.73
  -1  -8  -5   23.18    2.87
   2  -9   2    1.05    5.53
   0 -11  -3    6.87    4.83
  -1   5   7   36.70    3.25
   2  -3   4  410.57    7.31
   1  -3   0  132.98    3.98
   1  -6  -2  553.65    7.93
   0  -8  -4   28.01    3.82
  -1  -9  -5    1.36    2.95
   2 -11   3   84.52    7.89
   1 -11  -1   93.03    7.18
   2  -2   5   91.08    4.31
   2  -4   3  117.41    5.17
   2 -10   2  160.55    8.56
  -2   5   5  136.79    5.39
   0  -7  -4  586.90    7.29
  -2   3   1 1295.46   11.17
   1  -9  -2   53.16    5.37
   2  -8   2   76.59    6.11
   0  -9  -4  120.25    5.14
   2  -6   2   40.95    5.06
   0   2   3  223.37    2.08
  -2   4   3   36.38    3.77
   2  -5   2  253.10    6.96
   3  -7  10   96.10    8.14
   1 -10  -2   20.18    5.15
   3  -7   9   55.18    7.47
   3  -6  10  329.89   10.84
   3  -8   9  395.40   12.30
  -1   5   8  427.25    6.30
   3  -6  12   68.50    7.92
   0 -10  -4   40.54    4.67
   2 -10   1  618.67   12.89
   1 -12  -2  109.14    7.39
   0  -6  -4  280.84    4.72
   3  -7   8  101.04    7.48
   3  -8   8   48.09    7.48
   1  -4  -1 1195.77    9.54
  -2   5   6  262.99    6.57
   2  -7   1  245.80    8.00
   1 -11  -2   90.12    6.65
   3  -7   7  156.02    8.36
   3  -8   7   26.67    6.81
   2  -4   2   27.49    3.87
   2 -11   1   97.83    7.93
  -1   2   1  171.80    3.72
   1  -8  -3  149.61    5.96
   0  -2  -2  519.63    3.15
   2  -9   0  185.63    7.65
   2  -6   1  273.70    7.54
   1   2   8  625.11    4.15
   2 -12   0    4.65    6.29
  -1  -6  -5  116.21    2.49
  -2  -4  -5   22.41    1.64
  -1   4   5  483.27    5.98
   0 -11  -4   44.02    5.01
  -2   5   7   56.86    4.60
   3  -8   6  164.16    8.85
   3  -4  11  142.96    7.57
   3  -7   6  357.99   10.31
   3  -4  10  141.61    7.38
   1  -7  -3  314.61    6.82
   2 -10   0  157.64    8.14
   3  -9   5  325.20   10.75
   3  -5   7   54.47    6.12
   2  -8  -1   70.76    5.59
   1  -9  -3    5.13    4.22
   3  -6   6   21.23    5.28
   2  -5   1  484.07    8.42
   3  -4   8  172.27    7.37
   3  -8   5   76.20    6.78
  -2   4   4   10.83    3.26
   3  -7   5   -0.15    5.62
   1 -10  -3   63.01    5.61
   1  -2   0  533.18    5.55
   1  -1   1 2115.93    9.15
  -1   3   3 2513.98   11.75
   3  -5   6 1686.01   17.53
  -1   5  10   13.60    3.04
   3  -6   5  127.15    7.19
   2  -8   0   53.67    5.48
   3  -4   7   97.97    6.02
   1  -6  -3  237.10    5.52
   2  -3   2  283.59    6.01
  -2   5   8   80.91    4.98
   2 -12  -1  115.45    8.05
   2  -9  -1   75.78    6.30
   3  -8   4   -1.80    5.87
   1 -11  -3  344.50    9.32
   0  -5  -4 1079.86    7.23
   3  -9   3   89.08    7.79
   3  -7   4   85.51    6.83
   2 -10  -1   20.84    5.45
   2  -6   0    3.02    3.91
   3  -5   5  417.99    9.75
   3  -4   6  178.02    7.22
   1  -3  -1 3015.12   13.12
   2 -13  -1    2.86    6.27
   3  -6   4  197.18    7.88
   0  -9  -5  185.70    5.23
  -1   4   6  587.45    6.50
   0 -10  -5    6.97    3.61
  -2   5   9   89.48    5.12
   3  -8   3  375.55   10.55
   3  -9   2  109.87    7.56
   0  -8  -5  122.07    4.31
   2  -5   0 1585.55   13.77
   3  -7   3  497.93   11.20
  -2   4   5  454.92    7.20
   3  -5   4  234.28    7.95
   1  -9  -4  200.27    6.47
   1  -8  -4  124.04    5.48
   0   3   6   21.97    1.37
   2  -9  -2  333.08    8.79
   3  -6   3    3.79    4.84
  -3  -3  -4  443.56    6.48
   1 -10  -4  501.77    9.67
   2  -7  -1  192.84    6.75
   0  -3  -3 3032.06    8.67
   2 -10  -2   49.97    6.00
   1 -12  -4   44.54    6.08
   3  -8   2    7.36    5.41
   1  -4  -2 2276.11   12.40
  -3  -5  -5  328.68    5.06
   0  -7  -5  117.99    3.94
   2 -11  -2   34.29    5.96
   3  -7   2  461.89   10.06
   1 -11  -4   68.47    5.86
   2  -2   2  799.17    8.50
   3  -4   4  144.82    6.41
   3  -5   3  218.44    7.51
   2  -6  -1   64.72    4.70
   2  -4   0  305.98    6.35
   3  -3   5  988.89   12.28
  -1   4   7    5.71    2.56
   3  -6   2 1062.69   13.86
  -2   4   6  654.64    8.79
  -2  -3  -4  559.16    5.06
   3  -8   1  181.07    7.80
   1   2   7  318.32    2.59
   2  -9  -3  107.71    6.41
   4  -6  11  161.42    9.73
   2  -5  -1  182.11    5.59
   3  -7   1  189.10    7.66
   2 -10  -3    0.48    5.18
   3  -5   2  799.14   12.03
   1  -6  -4  621.82    8.02
   4  -8   6    3.79    6.56
   2 -11  -3   70.99    6.86
   2  -7  -2  193.93    6.67
   1  -5  -3  318.74    5.53
   4  -7   6  125.42    8.33
   3  -6   1  476.28   10.06
   1 -10  -5   32.86    4.99
   1  -9  -5  121.78    5.64
  -1   4   8  317.60    5.43
  -1  -2  -3 1088.93    4.09
   4  -8   5  240.51   10.70
   3  -9  -1   47.04    6.42
   3 -10  -1   54.67    7.26
   3  -8   0   46.31    6.09
   0  -6  -5   65.22    3.00
   2  -3   0  377.12    6.73
   1  -2  -1  151.88    3.48
   4  -6   6  142.56    7.99
   4  -7   5   84.23    7.82
   2  -6  -2  254.33    6.97
   2  -2   1  392.46    6.37
   3  -4   2   57.56    5.09
   3  -7   0   31.96    5.85
   1  -8  -5 1853.62   14.85
   2  -4  -1  105.30    4.66
   3  -5   1    3.88    4.74
   2 -12  -4   79.27    7.74
   3  -3   3  160.52    6.39
  -3  -4  -4  200.52    5.05
   1  -3  -2  161.37    4.02
   0  -4  -4 1029.21    6.05
   4  -7   4   47.09    6.81
   4  -4   9  121.30    7.81
   2  -9  -4 1619.25   16.98
   2 -10  -4   12.63    5.27
   3  -6   0   -0.08    5.19
  -1  -8  -6   63.88    2.66
  -1   3   5   20.79    2.79
   0  -9  -6  968.99    9.75
   4  -8   3   34.99    7.07
   3  -9  -2   73.30    7.18
   3 -10  -2  159.45    8.50
   2  -5  -2 3169.11   18.91
   3  -8  -1  642.17   12.35
   4  -4   7  141.31    7.89
  -2   4   9  228.32    6.62
   4  -7   3  109.58    7.82
   3  -4   1   37.37    4.98
  -2  -5  -5  147.31    2.50
   4  -9   1  275.60   11.26
   3  -7  -1  191.60    7.87
   1  -4  -3    3.32    2.74
  -1   4  10  277.98    5.70
   4  -4   6  243.26    8.86
   3  -3   2  160.44    6.00
   3  -5   0  164.37    6.89
   4  -8   2  189.92    9.24
   4  -6   3   10.15    5.95
   4  -5   4   46.52    6.22
   4  -7   2  129.64    8.40
   4  -4   5  355.19    9.76
   3  -6  -1    2.29    5.12
   2 -12  -5  155.56    8.44
   3 -10  -3  298.85   10.03
   2  -3  -1 1267.32   10.98
   1 -10  -6  140.90    6.23
   2  -2   0 2556.98   14.18
   2  -9  -5  247.94    8.01
   4  -8   1   71.88    7.71
   4  -5   3   53.21    6.12
   4  -6   2   38.22    6.47
   2  -4  -2  362.74    6.82
   1  -9  -6  301.01    7.23
   4  -4   4  179.12    7.81
   2  -8  -4   77.60    5.60
   3  -4   0  936.33   11.77
   4  -7   1    0.47    5.75
   3 -12  -4    1.43    6.98
   3  -7  -2    3.86    5.21
   0   3   7  218.97    2.80
   1  -5  -4   54.19    3.37
   3  -5  -1   67.53    5.48
   4  -9  -1   58.86    7.31
   2  -5  -3   -1.34    3.63
   4  -5   2 1571.84   17.89
  -3  -5  -4   91.82    4.04
   2  -7  -4    9.39    4.45
   4  -8   0   14.57    6.20
   3 -10  -4  100.38    7.89
   0  -5  -5   45.28    2.30
   4  -4   3   40.89    5.93
   3 -11  -4    4.45    6.24
   3  -9  -4   45.45    6.54
   3  -6  -2   22.53    5.28
   4  -7   0  105.88    7.57
   3  -8  -3    2.04    4.85
   4 -10  -2    4.53    7.12
   5  -6   6    4.12    7.20
   4  -9  -2   41.61    7.25
   4  -5   1  238.47    8.66
   2  -6  -4  341.78    7.47
   5  -5   8   21.97    7.18
   3  -4  -1   70.16    5.50
   4  -8  -1  104.82    7.73
   3  -7  -3  238.80    8.03
   4  -6   0   74.93    6.75
   5  -6   5   11.58    6.95
   3  -5  -2   23.01    4.80
   1  -3  -3 2538.56   11.83
   1  -6  -5    5.83    3.11
   4  -7  -1  537.35   11.98
   2  -8  -5  415.67    8.97
  -5   6   7   48.60    7.65
   0  -5  -3    6.91    3.08
  -3   7  10    4.36    6.41
   2  -4   2   21.92    3.89
  -1   6  11    1.67    4.58
  -4   4   2    5.89    5.27
  -2   7  14   15.64    6.37
  -2   7  13    9.03    6.07
  -2   7  15   -1.33    6.69
  -2   7  12   18.79    6.17
  -5   2   0  183.22    7.49
   0  -7  -3    5.03    4.15
   2  -3   3   20.55    3.29
  -5   3   1  542.22   11.38
  -6   2   1   20.02    6.36
  -4   7   8   28.19    7.19
  -2   7  11    3.46    5.77
  -6   5   5   26.35    8.11
  -1  -8  -4    3.41    4.35
  -6   3   2   18.88    6.92
  -3   7   8    1.79    6.13
  -2   7  10    2.02    5.49
   0   5  10   16.74    3.68
  -3   8  14   35.91    8.35
  -3   2  -1   40.63    4.41
  -5   6   5   -2.10    6.24
  -3   3   0  306.17    6.67
  -4   3   0  233.90    7.62
  -2   7   9   -3.04    5.33
  -4   2  -1    7.68    4.43
  -3   8  12   44.83    8.11
  -3   7   7   -0.73    5.75
  -5   7   7    2.87    7.21
  -6   5   4   62.87    8.69
  -4   8  10    8.26    7.04
  -4   4   1    6.81    5.12
  -3   8  11   41.46    7.70
   0   5   9    8.14    3.61
  -4   7   6    8.36    6.20
  -2   7   8    4.78    5.22
  -3   6   4   10.94    5.77
  -4   8   9   -5.72    7.48
  -3   8  10   -0.36    6.75
  -6   3   1   11.64    6.61
  -5   6   4    8.68    6.38
  -6   2   0   65.74    7.18
  -5   3   0    3.87    5.10
  -3   7   6   39.97    6.22
  -5   2  -1    1.71    4.64
  -4   8   8   -3.67    6.56
  -1   7  13    6.00    5.08
  -2   8  14    5.75    6.55
  -6   5   3    1.39    7.05
  -2   8  13   54.12    7.38
  -2   2  -1  375.28    5.55
  -2  -8  -4    1.06    3.82
  -1   7  11   -3.36    4.91
  -3   8   8   20.82    6.82
  -4   8   7    0.88    6.45
   0   4   5    1.35    2.49
  -5   6   3   18.38    6.76
  -2  -7  -4   -0.37    3.40
  -4   3  -1 1422.36   13.77
  -2   7   6   12.97    5.62
  -6   4   1   19.12    7.55
  -3   8   7   21.73    6.84
  -6   3   0   35.64    6.51
  -3   3  -1   24.45    4.14
  -6   5   2    5.92    7.16
  -4   8   6    1.56    7.07
  -5   7   4   23.27    7.63
  -1   1  -1 2014.38    7.99
   0   5   7   10.64    3.38
  -4   2  -2    1.47    4.31
  -5   5   1   46.22    7.22
   0   6  12   -0.31    3.94
  -6   6   3    3.27    7.58
  -5   3  -1  209.85    7.80
  -3   7   4   32.50    6.38
   1  -1   2   76.15    2.35
  -3   2  -2   26.22    3.70
   2  -4   5    1.03    3.93
   2  -2   6  364.58    5.69
  -2  -5  -4    9.87    2.46
   0   6  11   10.93    3.94
  -5   6   2   18.17    6.49
  -3   8   6    2.81    5.91
  -2  -1  -3  220.12    2.50
  -2   6   3    1.58    4.79
  -4   9   8   20.41    7.97
  -1  -5  -3    1.87    2.64
  -1   6   5   10.06    4.28
  -5   8   5   16.28    7.36
  -5   2  -2  128.43    6.67
  -5   7   3   -1.20    7.06
  -6   5   1    4.98    7.13
  -2   9  12    0.46    6.60
  -6   4   0   -0.60    6.88
  -3   8   5    8.71    6.37
  -4   9   7    7.99    7.46
  -6   6   2   -3.84    8.02
  -1   7   7    1.55    5.00
  -4   4  -1    2.61    5.45
  -1   8  12    2.88    5.49
  -4   6   1    3.10    6.01
  -6   3  -1   -1.04    6.03
  -2   3  -1   19.74    3.73
  -4   8   4   37.62    7.74
  -5   8   4    8.80    7.38
   2  -2   7  861.39    8.57
  -5   4  -1  298.56    9.29
  -4   3  -2    3.32    4.62
  -5   7   2   16.63    7.06
  -3  10  10   -0.68    7.97
  -3   8   4    7.53    6.31
  -1   7   6   17.41    5.18
  -5   3  -2    7.37    5.17
   1   3   7    1.63    1.63
  -3   3  -2  143.79    5.29
  -6   6   1   45.86    8.81
  -6   5   0   -0.49    7.54
  -2   2  -2  863.76    7.32
  -5   8   3    9.23    7.49
  -3  10   9    4.66    7.20
  -4  -2  -4  252.24    4.05
  -4   9   5    9.73    7.72
   2  -2   8  896.70    8.83
  -6   4  -1    0.89    6.66
  -2   7   3   15.94    5.66
  -4   2  -3    2.31    4.25
  -3  10   8   61.36    8.84
  -5   6   0    3.09    6.67
  -5   5  -1    1.85    6.18
  -3   9   5   -4.52    6.63
  -5   7   1   40.34    7.52
   0   6   7    2.48    3.83
  -4   4  -2  559.82   10.00
  -5   2  -3   81.07    6.02
  -2  10  11    7.45    7.59
   2  -2   9   31.14    3.85
  -4   8   2    2.14    6.75
  -4   9   4    3.89    7.32
  -5   4  -2  179.17    7.99
  -3   2  -3 1069.36   10.29
  -2   4  -1    6.91    4.04
  -2  10  10   47.52    8.13
  -6   6   0   14.00    8.16
  -1   9  12    5.15    6.16
  -1   9  11   19.40    6.39
   2  -2  10   20.72    3.86
   1   4   9   -0.14    2.31
  -6   5  -1   14.09    7.72
  -3   9   4   51.35    7.84
  -2  10   9    1.18    6.55
  -4   3  -3 1145.14   12.97
  -2  -6  -3   19.30    3.68
  -3   8   2    4.71    6.37
  -1   7   4    8.41    5.10
  -5   7   0    1.92    6.57
  -4   6  -1    6.12    5.76
  -4   9   3    3.11    6.96
  -5   6  -1   30.17    7.10
  -5   3  -3  192.73    7.54
  -6   4  -2    5.78    6.93
  -5   8   1    6.67    7.45
  -2   8   3    0.89    5.71
  -4  10   4   14.28    8.47
  -5   5  -2    2.92    6.20
  -3  10   5   -0.50    7.60
   1  -1   3    5.71    1.96
  -3   9   3   12.65    7.30
  -3   3  -3  162.70    5.78
  -3  -1  -4  152.12    3.33
  -6   6  -1   21.74    8.65
  -3   7   0   21.54    6.39
  -3  11   7   20.99    8.09
  -2  11  11   25.61    8.53
  -4   4  -3   51.27    5.72
  -5   4  -3   96.24    7.18
  -6   5  -2    2.06    7.27
  -4  10   3   10.69    8.05
  -2  10   6    1.00    6.86
  -5   8   0   26.79    8.48
  -2   8   2    5.37    6.10
   0   7   7    6.44    4.51
  -3  11   6    3.91    7.47
  -4   2  -4  275.35    7.01
  -2  11   9   42.01    7.90
  -5   6  -2   12.99    7.07
   0  -3   0    0.79    2.70
  -1  -6  -1    5.75    3.58
  -5   2  -4   26.72    5.18
  -1  10  10    2.21    6.39
  -2  11   8   30.51    8.37
  -3   4  -3   27.76    5.45
  -2  10   5   27.74    7.19
  -2   2  -3 1139.77    8.66
   0   5   3    8.90    3.33
  -3  11   5    1.21    7.76
  -4   9   1   57.16    8.38
  -4  10   2    3.07    7.80
  -5   5  -3    5.27    6.16
  -3   8   0   44.70    7.23
  -6   6  -2   13.26    8.15
  -2   7   0    0.41    5.96
  -4   3  -4  150.69    6.19
  -5   3  -4   82.45    6.49
  -1   1  -2   72.20    2.60
  -3   9   1   42.10    7.80
  -3   2  -4  656.80    8.39
  -2  10   4    8.77    7.24
  -5   7  -2   24.24    7.88
  -3  11   4    7.87    8.06
   1  -4   5   -0.07    3.94
   0   8   8   11.58    4.84
  -4  10   1   29.51    8.93
  -2   3  -3   14.87    3.75
  -4   9   0    0.01    7.69
  -5   6  -3   46.22    7.63
  -5   4  -4   -1.97    5.69
  -4   4  -4  185.92    7.23
  -3  11   3    9.55    7.77
  -3   3  -4   72.38    5.06
  -2  11   5   32.85    7.98
  -3   9   0   11.17    7.20
   1  -1   4  578.72    5.54
   1  -3   5    0.36    3.36
  -2   8   0   44.83    6.81
  -1  11  10   29.53    7.97
  -5   8  -2   11.64    7.93
  -3  10   1   52.13    8.47
  -4  10   0   10.09    7.97
  -1  11   9    3.70    7.30
  -5   5  -4   -1.62    6.33
   0   9  10   15.00    5.44
  -4   5  -4   33.20    6.21
  -5   7  -3    2.23    7.21
   0   8   6    6.70    4.92
  -2  11   4   -2.04    7.64
  -3  11   2   -0.53    7.97
  -3   8  -2    9.34    7.00
  -2  12   8   15.63    8.95
  -3  10   0   29.87    7.99
  -1  11   7   36.34    7.90
  -3   9  -1   -4.05    7.24
  -5   6  -4    1.93    6.85
  -1  -4  -1    2.89    3.04
  -4   6  -4    1.26    6.26
  -4  10  -1   18.34    8.92
  -4   3  -5  364.58    7.99
  -2   8  -1   14.38    6.80
  -3  11   1   17.57    8.32
  -2  -5  -2    9.49    3.31
  -2  12   7   24.94    8.48
   0  -5   3    6.95    3.94
  -2  10   1   17.87    7.72
  -2   7  -2    2.85    6.58
  -5   4  -5   52.71    6.48
   0   7   3    4.12    4.60
  -3  -5  -3    2.54    3.35
   1  -4  -1 1248.52   10.27
  -3   5   4  434.68    9.56
  -4   5   4  397.50    9.94
  -1   6  12   43.50    5.46
  -1   4   4  106.00    4.22
  -4   6   6  114.77    8.09
  -3   4   2   47.47    5.14
  -6   4   4   79.43    8.77
  -2   3   1 1225.70   10.51
  -3   6   6  107.22    6.89
  -4   7   9  175.96    9.58
  -1  -5  -4 3058.80   13.27
  -2   6   7   67.29    6.24
  -1   3   2  150.85    4.36
  -3   7   9  105.39    7.73
   0  -6  -3  630.94    8.76
  -5   5   4  155.20    8.76
  -1   5   6  501.31    7.96
  -1   6  10   78.20    5.51
   0   5  12  130.21    5.22
  -5   6   6  202.86   10.01
   1  -5  -1   27.25    3.90
  -2   5   4  261.92    6.93
   0   5  11   37.43    4.05
  -1  -6  -4  220.58    5.21
   0   3   4   46.25    2.89
   2  -2   4 1349.55    9.54
  -4   6   5   12.03    6.27
  -1  -7  -4   71.13    4.72
  -4   5   3    0.38    5.81
   1  -6  -1  309.26    7.15
   0  -3  -2  730.14    6.00
  -5   4   2  616.31   12.62
  -3   5   3  342.82    8.51
  -1   6   9   78.70    5.65
  -3   6   5  201.93    7.88
  -2   4   2  335.53    6.73
   1  -3   0  132.49    3.94
  -2   6   6  466.83    9.50
  -6   4   3  106.69    8.98
  -4   7   7  137.99    8.87
   0   4   6  615.72    6.72
  -3   8  13  219.30   11.90
  -5   5   3   57.50    7.57
   2  -4   3  123.40    5.02
  -1   6   8   46.11    5.08
  -1   5   5  334.78    6.60
  -3   4   1   64.25    5.34
  -1   4   3    0.79    3.55
  -4   6   4    0.49    6.07
  -2   5   3   -1.29    4.42
  -2   6   5  109.05    6.43
   1  -4   0   50.62    4.04
  -4   5   2  995.72   14.07
  -5   7   6  191.11   10.13
  -6   4   2   64.59    8.19
   2  -3   4  409.43    6.55
  -5   4   1   51.75    6.70
  -3   5   2   24.03    5.50
   0  -4  -2 2928.95   13.23
  -1   6   7  169.63    6.40
  -3   8   9   92.28    7.90
   1  -2   1 1307.53    7.91
  -2   3   0  359.69    6.23
   0   2   2  520.43    4.19
   1  -5   0  297.98    6.31
  -1   7  12  183.24    7.53
  -5   5   2  622.57   13.04
   2  -2   5   81.08    3.57
  -2   7   7  139.27    7.33
  -4   7   5   65.05    7.29
  -2   8  12   -0.19    6.16
   0   5   8 1588.27   11.73
   1  -6   0  663.22    9.32
   0  -7  -2   35.03    4.73
  -4   6   3  248.31    8.83
  -1   2   0  541.47    5.49
  -2   8  11   34.09    6.68
  -2   4   1   95.15    4.79
  -5   7   5  323.08   11.67
   2  -4   4 1434.09   12.17
  -3   7   5  217.61    8.26
   1   3   8  328.80    3.64
  -1   5   4   45.80    3.93
  -3   6   3   50.93    6.25
  -1   3   1 3003.00   13.50
  -2   6   4  318.08    8.02
  -1   7  10   50.98    5.48
  -1  -3  -3  837.80    4.99
  -2   8  10  122.17    7.93
  -4   4   0   17.55    5.59
  -1   6   6  116.97    5.51
  -3   9  12  393.17   13.21
  -4   5   1  103.43    7.16
  -3   4   0  923.25   11.29
  -4   7   4    9.02    6.42
  -2   5   2 3065.70   18.75
  -3   9  11    7.21    7.09
   2  -3   5   77.45    4.22
  -2   8   9  850.24   13.74
  -1   7   9   51.24    5.49
  -1  -7  -3  129.40    5.37
  -5   4   0  172.94    8.35
  -1   4   2 2295.43   13.63
  -3   5   1   68.95    6.09
  -2  -6  -4  270.12    5.11
   0   3   3 3062.87   11.61
   1  -3   1  185.69    4.52
  -4   6   2  579.73   11.82
  -3   9  10   51.93    8.09
  -2  -4  -4  746.52    4.57
  -1  -6  -3  132.54    4.70
  -2   8   8   93.38    7.15
  -1   7   8  179.64    6.83
  -2   7   5   85.62    6.84
  -1  -4  -3  232.96    3.88
  -3   6   2   22.44    6.15
  -3   9   9   85.84    8.85
   1  -4   1  100.37    4.75
  -4   8   5  425.28   12.20
   1  -5   1    0.78    3.59
  -4   7   3   33.24    6.77
   0   6  10   26.91    3.99
  -1   5   3  339.49    6.73
  -2   9  13   68.82    8.34
  -2   8   7    1.36    5.36
  -3   9   8  704.05   14.63
   2  -3   6    9.60    3.63
  -4   5   0  292.09    9.05
  -2   4   0  306.98    6.64
  -3   7   3  209.94    8.31
  -2   9  11    6.60    6.47
   0   5   6  480.67    6.80
   2  -4   6   11.79    4.38
   0   6   9  100.51    4.89
   0   4   4  949.09    7.99
   0  -6  -1  129.06    5.09
  -2   5   1  173.55    6.27
  -5   5   0   52.52    7.25
  -1   8  11  203.14    7.94
  -2   7   4   11.14    5.50
  -2   9  10   73.08    7.56
  -5   6   1   40.96    6.83
  -3   9   7   86.92    8.11
  -2  -8  -3  899.64   10.93
  -3   5   0  151.98    6.78
  -3   4  -1   35.46    5.01
  -2   8   6   12.03    5.97
   1   4  11   62.64    2.93
   0  -3  -1  477.84    5.25
  -4  -3  -4   44.63    2.48
  -4   7   2  426.39   11.39
   0  -5  -1  418.36    6.72
  -1   8  10    2.97    5.29
  -4   9   6  105.94    9.31
  -3   6   1    2.24    5.49
  -1   6   4  605.88    8.97
  -2   6   2  265.18    7.52
  -2   9   9   56.26    7.14
   0  -4  -1  398.35    5.84
   2  -3   7  250.03    6.32
   1  -2   2  225.53    4.10
   0   6   8  106.90    5.06
  -3   9   6   95.05    8.39
  -1   4   1 1187.88   10.09
  -1   8   9  135.27    6.90
   1  -5   2 3876.34   19.53
  -4   8   3  132.14    8.68
  -3   7   2    3.65    5.61
  -1  -7  -2   45.52    4.50
  -1   3   0  121.42    3.93
  -2   9   8  455.11   11.37
  -2   8   5  396.03   10.16
   1   4  10  234.22    3.90
   1  -3   2   33.94    3.62
   1  -4   2 1935.95   12.95
  -3  -6  -4  351.84    5.18
  -1   5   2    4.29    3.66
  -4   6   0   71.35    6.65
   0   5   5   40.93    3.54
  -2  -7  -3  622.44    8.51
  -4   5  -1  218.45    8.01
  -3  -2  -4  381.13    3.37
  -1   8   8    3.54    5.06
   2  -3   8   16.12    4.10
  -4   7   1  500.11   12.04
  -3   8   3    3.27    5.73
  -2   9   7    7.35    6.13
  -1   7   5   17.49    4.96
  -2  10  12  123.77    9.78
  -2   5   0 1551.67   13.75
  -1   6   3  239.76    6.54
  -1  -6  -2  762.89    8.72
   0   7  11  559.01    9.27
  -5   8   2   81.61    8.95
  -3  10   7   14.78    7.77
  -3   6   0    0.90    5.83
  -3   5  -1    5.41    5.43
   2  -3   9  105.67    5.35
  -2   6   1   71.99    5.96
  -1   2  -1 1349.45    8.28
   0  -6   0 1669.95   13.50
   0   3   2  706.17    5.98
  -2   8   4   69.83    6.95
  -1   8   7  118.33    6.81
  -3   7   1  192.76    8.07
  -2   9   6  104.06    7.89
   0   7  10   72.70    5.13
   0   4   3  537.77    6.35
   1  -5   3   82.55    4.94
  -3   4  -2   59.44    5.51
  -2   7   2  190.11    7.64
  -3  10   6   89.04    9.10
  -1   9  10  417.10   10.60
   0   6   6  422.35    7.27
   0   7   9    0.68    4.07
  -4   7   0   94.70    7.77
  -1   8   6  258.56    8.16
   0  -5   0   81.21    4.22
   0   2   1 3486.73   10.13
  -1  -5  -2 1299.28    9.72
  -2   3  -2  277.00    5.81
  -3  -5  -4   89.92    2.99
  -2  10   8  269.41   10.79
   1  -4   3  233.05    5.79
   0   5   4 1096.58    9.55
  -2   9   5  247.35    9.51
  -4   8   1   90.72    7.93
  -1   9   9  128.91    7.77
  -4   5  -2 1471.91   16.39
  -1   5   1   27.71    4.11
  -1  -7  -1   75.64    5.25
  -1   4   0   43.58    4.15
   1  -3   3 1716.37   11.29
  -1   6   2  533.15    8.56
   0   7   8  273.38    6.91
  -2  10   7   67.04    8.12
  -1   9   8   30.99    6.26
  -3   6  -1  487.77   10.74
   1  -2   3  698.70    6.61
  -2   6   0    5.21    4.75
   0  -4   0  250.13    5.26
   1  -5   4 1521.39   13.39
  -1   8   5 1755.76   16.85
  -2   7   1  202.99    8.31
  -3   8   1  620.69   12.95
  -2   5  -1  486.42    8.76
  -4   9   2   43.56    8.19
   0  -6   1   51.51    4.78
  -2   9   4 1494.41   18.26
  -3   5  -2  783.36   11.91
  -1   7   3  311.96    8.05
   0   6   5   56.19    4.48
   1   4   8  719.35    5.70
  -3  10   4   98.15    9.01
  -1  -4  -2  612.17    6.17
  -2  11  10    1.87    7.58
  -2  -7  -2   36.63    4.85
  -1   9   7   99.84    7.24
  -5   7  -1   64.87    8.73
  -2  -5  -3  206.13    4.45
  -4   7  -1    0.93    6.49
  -1   3  -1  166.27    4.46
  -4   8   0   11.64    6.71
  -3   9   2   61.27    7.59
  -4   6  -2   34.67    6.75
   1  -4   4    6.75    3.77
  -2   4  -2   21.37    4.25
  -1  10  11   62.98    7.83
   1   3   6  378.37    3.31
  -1   8   4  123.71    7.34
  -2   9   3  108.63    7.88
  -1   9   6  282.33    9.16
   0   4   2 2830.40   13.42
  -3  10   3  271.54   11.04
   0  -5   1  832.69    9.25
  -3   7  -1  188.91    8.55
  -1   6   1  290.16    7.26
  -4   5  -3   55.72    6.53
  -1  10   9    5.32    6.44
   0   7   6   61.67    5.26
  -1   5   0  297.47    6.51
   0   8   9   43.63    5.22
   1  -3   4  834.30    8.45
   0  -2   0  768.99    5.31
  -2  11   7   95.79    9.18
  -1   7   2   58.30    5.81
  -3   6  -2 1063.89   14.20
  -2   6  -1  241.59    7.79
   0   6   4  275.67    6.32
  -5   8  -1   78.27    9.41
   0  -6   2  126.37    5.69
  -2   8   1   68.43    6.94
  -1  -3  -2   60.17    2.58
  -1  10   8  116.92    8.01
  -4   8  -1   56.91    7.90
  -1   9   5  112.84    7.40
   0   3   1  477.65    5.43
  -4   7  -2  111.77    8.46
  -3  10   2  145.39    9.60
  -1   8   3  143.59    7.28
  -3  -6  -3  110.34    4.50
   1   5  10  171.57    3.95
  -2  11   6   70.36    8.65
  -2   9   2  343.97   10.47
  -2   5  -2  249.63    7.24
  -1   4  -1   95.03    5.00
  -2  -6  -2  142.98    5.12
   1  -2   4 1775.06   10.47
  -3   5  -3  221.28    8.15
   1   4   7  103.96    2.95
  -1  -5  -1  105.62    4.22
  -1  10   7   42.15    6.88
   0   7   5  110.09    5.86
  -4   6  -3    6.90    6.11
   0  -4   1  286.75    5.86
  -2  -4  -3  142.33    3.27
  -3   8  -1  175.88    8.61
   0   8   7  390.16    8.62
  -2  10   3   -1.83    6.72
  -1   9   4  207.55    8.42
  -2  -7  -1    3.48    4.75
  -3   7  -2  490.57   11.53
   1   5   9   80.36    3.38
  -1   2  -2  232.61    4.45
  -1  10   6  118.26    8.21
  -1  -6   0  269.29    6.65
  -1   7   1   37.22    5.43
  -3  -7  -2  272.69    6.93
   1  -4   6   70.22    5.04
  -1   6   0  644.51    9.69
  -2   7  -1  252.12    8.83
   0  -5   2  273.24    6.45
   0   5   2  125.34    4.72
   0   6   3  677.13    8.87
  -4   8  -2  176.84    9.89
  -2   9   1   75.11    7.52
  -1   8   2   46.74    6.73
  -2   4  -3  117.34    5.29
  -3   6  -3    6.38    6.27
  -2   6  -2   35.13    6.09
  -3   4  -4  144.42    6.89
  -4   9  -1  263.21   11.51
  -4   7  -3   89.34    8.09
   0   7   4  560.13    9.28
  -1   5  -1   -0.35    3.98
  -1  10   5   25.45    6.70
  -2  10   2   55.51    8.01
   0   9   9    6.38    5.36
  -1  11   8   69.87    8.09
  -1   9   3    2.76    6.22
   1  -4   7   48.45    5.06
   0   4   1  389.60    6.09
   1   5   8  144.63    3.97
  -1   3  -2   28.57    3.64
   0   9   8    2.16    5.41
   1  -2   5  652.63    7.12
   0  -3   1 1734.18   10.11
   1  -3   6  206.69    5.63
  -2  11   3   67.66    8.67
   0   8   5  127.05    6.63
  -2   9   0  179.40    9.19
  -2   5  -3   52.92    5.68
  -1  10   4  476.84   11.89
  -3   5  -4  227.52    8.20
  -5   8  -3  112.58   10.31
  -1   8   1 1092.13   14.26
  -1   7   0  110.85    6.42
  -1  -2  -2   82.53    1.53
  -3   7  -3  478.69   11.08
   1   4   6   32.37    2.43
   0   9   7   11.62    5.62
  -4   8  -3   37.36    8.00
  -1  11   6   -4.74    7.24
   0  -4   2 1504.32   11.36
  -1   9   2   65.13    7.02
   0   6   2   29.24    4.32
   0   2   0  751.97    5.39
  -1  -6   1  592.68    8.94
  -4   9  -2   21.58    8.22
  -2  -6  -1    1.47    4.04
  -2  12   6   84.82   10.08
  -2  12   5  144.43   11.03
  -3  11   5    5.16    5.28
   0   2  13   22.57    5.40
  -3  12   7    7.52    6.38
  -3  11   7   18.76    6.40
   1  -1  -2  109.80    3.93
  -3  10   5    4.34    4.86
  -3  11   8    0.15    6.38
  -3  10   7   10.04    5.86
   0   5  -9    2.49    3.29
   2  -2  -2   75.98    3.18
  -1   4  13   38.40    6.38
   0   4  16   63.95    7.26
  -1   2   9  730.48   10.41
   0   3  15   57.26    6.91
  -3   9   5    3.64    4.67
   1   2  -8   11.06    3.37
   3  -2  -4  885.40   10.15
   1   3  17    3.26    6.69
  -2   7  14    9.59    6.91
  -1   3  12  141.08    7.01
  -2   6  11   44.03    6.61
   4  -3  -1  107.39    4.71
   0   2  14   26.71    5.89
  -1   5  15    4.95    6.62
  -1   2  10   54.24    5.19
   1   3  -9  331.97    6.65
   3  -3   1   21.34    2.37
  -3   9   3   12.38    4.37
  -1   4  14    0.87    5.57
  -3   8   5    3.86    4.42
  -2   7  13    5.68    6.37
   0   2  -5 1750.47    8.60
  -2   6  12    1.29    6.18
  -2   4   7    1.10    3.96
   0   1  -3  242.56    2.83
  -3   8   4    9.79    4.35
   0   3  16   12.46    5.88
  -1   3  13   41.16    5.68
  -2   4   8    8.11    4.53
   4  -3   0  253.00    5.77
  -2   5  11   22.11    5.88
  -1   2  11  442.59    9.42
   2  -2  -1  168.73    3.56
   3  -2  -3  103.06    4.40
   2  -2   9   28.97    2.66
   0   2  15  291.56   10.13
   3  -3   2  147.09    3.10
  -2   6  13   15.46    6.58
  -1   4  15    1.66    5.87
  -3   8   3    2.49    3.84
  -1   1   4  985.47    8.80
  -1   3  14    7.00    5.54
  -1   2  12   20.78    4.94
   4  -3   1 1463.77   10.80
  -3  10   9   12.14    6.66
  -2   6  14    6.08    6.71
   0   3  17   43.58    7.09
  -3  10  10   -3.51    7.01
   1  -1  -1   68.99    2.07
  -2   4  11    4.21    5.15
  -2   5  13    2.56    5.99
  -3   8   2    3.73    3.56
  -1   4  16  237.65   10.35
   3  -3   3  145.82    2.79
   1   2  -7    0.59    2.90
   0   2  16   90.93    7.76
  -1   1   3 3085.76   13.66
  -3   8   7   21.51    5.41
  -3   8   8   16.72    5.94
  -1   2  13  103.87    6.56
  -3   8   6    1.60    4.66
   4  -3   2    4.26    2.75
  -1   3  15   26.12    5.97
  -2   3   8    1.38    4.21
   3  -2  -2  172.84    5.03
   1   4  -9   23.38    4.27
  -2   5  14   13.91    6.42
   1   3  -8  234.79    5.83
  -3   8  10   -2.96    6.05
  -2   3   9    2.43    4.54
  -3   7   8    2.03    4.95
  -3   7   7    0.37    4.73
  -3   8  11   48.46    7.53
   2  -2   0 2668.23   10.27
  -2   3  10   15.01    5.12
  -2   4  13   13.84    5.75
   4  -3   3 1206.28    8.68
  -1   2  14   69.47    6.71
  -2   3   4    6.71    3.04
  -3   7  10    4.00    5.94
   0   2  17    5.19    6.47
  -2   5  15    6.19    6.71
   4  -2  -2   16.34    4.33
  -2   3  11  361.55    9.28
  -3   7   2    6.76    3.51
  -3   7  12    0.65    6.56
  -2   3  12  135.33    6.93
  -1   1   2   85.46    2.83
  -3   6   9   -0.49    5.32
  -3   6   7   19.43    4.91
  -3   7   4   28.67    4.40
  -1   2  15   30.19    6.05
   3  -2  -1 1508.69   10.90
  -1   3  17   15.31    6.38
  -3   6  11    1.81    5.65
  -3   7  13   24.81    7.12
  -2   4  15    3.56    5.95
  -2   3  13  177.39    7.98
   1  -2   7  155.02    3.55
   1  -2   6  473.70    4.74
  -2   2   8  245.22    6.66
   4  -2  -1  498.16    8.21
  -4  10   9    3.54    6.45
  -2   2   9  225.84    7.19
  -2   2   7   89.42    4.87
  -4  10   8   30.43    6.92
  -1   2  16   25.57    6.74
   1  -2   8 1484.17    9.21
  -2   2  10    6.51    4.75
   1   2  -6   64.68    3.43
  -2   3  14   25.88    5.85
  -4  10   7   39.20    6.71
  -3   6  13   31.08    7.24
  -2   2   6   51.13    3.88
  -2   4  16    2.32    6.88
   0   2  -4  318.01    3.72
  -3   6   4   12.15    4.10
  -3   5  11    6.79    5.84
  -4   9   8   20.39    6.40
   1  -2   9  106.64    3.89
   1   3  -7 1231.41   10.42
   1  -2   5  707.53    4.33
  -4   9   7    6.76    5.60
  -3   5  12    6.84    6.24
  -2   2   5  137.15    4.62
  -2   2  12   45.80    5.46
  -2   3  15   11.94    6.11
  -1   2  17   21.04    6.93
   2  -2   1  358.57    4.03
  -3   5  13   43.45    7.07
  -4   8  11   18.47    6.81
   1  -2  10  313.33    5.90
   3  -2   0  524.13    6.14
   4  -2   0   69.65    4.21
  -2   2  13  181.43    8.52
  -2   3  16   16.97    6.65
   0   5  -7    3.46    2.77
  -3   4   9   25.05    5.39
  -3   4   8   16.67    4.97
  -2   2   4  388.90    6.04
  -3   4  11    3.79    5.55
  -2   2  14   46.56    6.06
  -4   9   5   15.72    5.09
   1  -2  11  376.45    7.51
  -3   4   7   23.62    5.14
  -3   4  12   -1.14    5.48
   0   3  -5   93.12    2.81
  -4   7  12    0.65    7.06
  -2   2  15  102.34    7.85
  -4   9  10    1.24    6.73
  -1   1   1   53.07    2.01
  -3   4  14    8.74    6.23
   1  -2  12  376.46    7.44
  -4   9   4    0.56    4.63
  -4   8  10    0.56    6.44
  -4   8   9   -0.62    5.90
  -2   2  16   35.52    6.77
  -3   4   5   -0.16    4.04
  -3   4  15    1.56    6.80
  -4   8   8    2.60    5.33
  -3   3  10    5.54    5.09
  -2   2   3   64.99    3.53
  -3   3  11  253.25    8.42
  -3   3   9  198.97    7.42
   3  -2   1   40.18    3.16
  -3   3  12   12.52    5.92
  -3   3   8    1.72    4.78
  -4   7  11    3.14    6.61
  -4   7  10   -1.20    6.10
  -4   8   7    4.20    5.26
   2   2  -6  285.76    6.19
   1   2  -5  967.56    8.83
  -3   3  13    2.53    5.44
   1  -2  13   41.54    4.17
  -3   3   7  139.80    6.17
  -4   7   8   32.96    6.11
  -3   3  14    0.65    5.62
   1  -2   4 1830.88    5.38
  -4   8   6    3.61    5.05
   1   3  -6  109.21    4.06
   4  -2   2    3.22    2.95
  -4   6  11   11.58    6.10
  -4   6  10   27.92    6.21
  -4   6  12   -0.24    6.36
  -3   3  15   69.51    7.84
  -1   7  -6    5.41    2.24
   0   6  -7    0.36    3.13
   1  -2  14   -1.97    3.91
   0  -2   9  388.57    6.44
   0  -2  10   65.52    4.63
  -4   6   8   35.90    5.80
  -4   7   6    4.97    4.86
  -3   2  11    4.18    5.10
   0  -2  11   -0.34    3.50
   0  -2   8  107.40    3.89
  -3   2  10   -0.18    4.94
  -3   2  12   31.71    6.06
   2  -2   2  780.49    5.16
  -3   2   9   42.73    5.75
  -3   2  13   22.94    5.96
  -4   5  11    3.50    5.97
  -4   6   7    1.84    5.01
   0  -2  12  596.54    8.93
  -2   2   2   65.20    3.21
  -4   5  13   39.44    7.88
  -3   2  14   26.78    6.53
  -3   2   8  262.14    7.89
  -4   5   9   20.84    5.81
   0  -2   7  406.78    6.29
  -3   4   3   22.70    3.66
   4  -2   3    7.07    2.93
   3  -2   2   29.41    2.50
   0  -2  13   63.73    4.90
  -3   2  15   -0.10    6.43
  -4   5   8   17.27    5.70
  -3   2   7    9.78    4.26
   0  -2  14   50.33    5.16
  -4   4  13    6.80    6.14
   2   2  -5   99.55    4.51
   2   3  -6  227.69    6.06
   1   5  -7   -0.23    3.60
   0  -2   6   97.73    3.21
  -2   4  -1    8.12    1.62
  -3   2   6   16.61    4.03
  -4   4   9   11.70    5.44
   0  -2  15  125.83    7.48
   0   7  -7    4.66    3.29
  -5   7  10    0.13    6.64
   4  -2   4  255.73    5.54
   0   2  -3    4.73    1.94
   0   4  -5    8.69    2.25
  -4   3  12    8.43    6.22
  -4   3  13   12.64    6.25
  -4   3  11   67.67    6.58
   0  -2  16   49.37    6.24
   1   2  -4  420.60    5.97
  -5   6  11    4.30    7.13
  -3   2   5    2.10    3.80
  -4   3  10   -1.72    5.64
   1   3  -5  303.52    5.30
  -1  -2  11  146.05    6.56
   2  -3  10  136.32    3.19
  -1  -2  12   17.98    4.55
  -1  -2  10    1.19    4.13
   0   3  -4  441.86    4.54
  -3   3   3    2.75    3.05
  -1  -2  13  124.34    6.43
  -4   3   9    4.78    5.40
   1  -3  10   24.50    2.99
   1  -3  11  246.65    5.14
  -1  -2   9  796.52   10.01
   3  -2   3 1062.04    7.70
   2  -3   9  113.87    2.65
  -1  -2  14   17.65    5.35
   1  -3  12   55.34    3.83
  -2   2   1  157.06    3.65
   1  -3   9   69.79    3.17
   0  -2   5 1705.06    9.02
  -4   3   8    4.63    4.88
  -5   8   8   17.28    6.58
   0   8  -7   10.73    3.67
  -5   7   9    6.11    6.88
  -1  -2  15   10.97    5.32
   1  -3  13    5.71    3.49
  -4   2  13   20.05    6.64
  -1  -2   8   16.41    3.40
  -4   2  12  138.93    8.52
  -4   2  14   -0.91    6.80
  -4   2  11    7.71    6.20
  -3   2   4  864.04   10.21
  -1  -2  16  110.04    7.54
  -5   7   8   12.60    6.31
   2   2  -4  195.20    5.31
  -4   3   7   12.63    5.08
  -4   2  10   11.68    5.89
   2   3  -5 1688.19   13.25
   1  -3   8   62.28    2.81
  -5   6   9   37.04    7.23
  -4   4   5    1.82    4.51
  -5   5  11   40.78    8.02
   0  -3  11    7.58    3.59
   0  -3  12    1.34    3.68
  -4   2   9    9.54    5.82
  -1  -2   7    4.54    3.20
  -1  -2  17   16.72    6.63
   0  -3  13    7.52    4.18
   0  -3  10    8.31    3.65
  -5   7   7    4.63    5.65
   2  -3   8   15.43    1.70
  -5   6   8    2.61    6.00
   0  -3  14   22.45    4.82
  -4   3   6   10.86    4.65
  -3   3   2   24.34    3.27
  -4   2   8  236.58    8.35
   0  -3   9    4.14    2.96
  -5   5   9    0.03    6.75
  -1  -2  18    0.66    6.32
   0  -3  15   91.17    6.07
  -2  -2  13  276.37    8.94
  -2  -2  12   25.31    5.31
  -2  -2  14    0.73    5.30
  -2  -2  11    6.84    5.00
  -3   2   3   82.24    4.55
   2  -2   3 1017.69    5.31
  -2  -2  15   72.45    7.42
  -1  -2   6   59.29    3.49
  -4   2   7   18.53    5.10
  -2  -2  10   19.10    5.00
  -2  -2  16   22.53    7.01
   0  -3   8  339.86    5.66
   3  -2   4  705.64    6.12
  -5   4   9   -0.40    6.24
   1  -3   7   81.58    2.51
  -1  -3  13   29.10    4.99
  -1  -3  12   47.54    5.02
  -2  -2  17   44.25    7.46
  -1  -3  14    4.63    4.72
  -2  -2   9  197.12    6.90
  -1  -3  11   79.38    5.21
  -5   3  11   20.98    7.11
  -5   5   7    1.80    5.96
   0  -2   4  317.02    3.90
  -1  -3  15    2.61    4.94
  -2  -2  18   11.57    7.39
  -1  -3  10   34.31    4.52
  -4   2   6    0.00    4.58
   1   3  -4   17.85    2.96
  -5   4   8   29.12    6.20
  -5   3  10   21.91    6.53
  -1  -3  16    8.64    5.46
   1   2  -3 1155.77    8.25
   2   3  -4   18.12    3.48
  -2  -2   8  145.34    5.94
   2   2  -3   30.48    3.55
   0  -3   7  438.36    5.66
  -1  -3   9  285.30    6.82
  -1  -3  17    5.70    5.94
  -5   3   9   46.55    6.77
  -5   2  12   69.83    8.14
  -4   3   4   46.83    5.02
  -1  -2   5  927.67    8.84
  -5   4   7    6.56    5.73
  -5   6   5    1.06    5.04
  -5   2  11   -0.14    6.42
  -2   2   0 2424.23   10.51
  -3   3   1   43.13    3.24
  -3  -2  14   27.54    6.21
  -3  -2  15    0.65    6.27
  -3  -2  13   19.24    6.17
  -4   2   5  613.17   10.66
  -3   2   2  160.27    5.08
  -5   3   8    2.61    5.51
  -2  -2   7   69.16    4.77
  -3  -2  16   50.07    8.14
  -3  -2  12   17.35    5.95
  -5   2  10   14.18    5.99
  -2   3  -1   19.90    1.73
  -2  -3  14    1.92    5.51
  -2  -3  13  160.43    7.46
  -1  -3   8  244.36    5.95
  -2  -3  15   20.44    6.15
  -2  -3  12   41.93    5.57
   3   2  -2  547.77    8.33
  -2  -3  16    5.62    6.55
  -5   4   6   28.48    5.86
  -2  -3  11  403.05    9.31
  -5   5   5   35.60    5.73
  -5   2   9  178.35    9.23
  -2  -3  17   40.05    7.43
  -4   6   1    5.73    3.41
  -6   6   8   -2.08    7.04
  -3  -2  10   50.11    5.93
  -5   3   7  181.58    8.34
  -6   5   9   18.59    7.51
   0  -4  13    0.48    3.99
  -5   6   4    5.08    4.83
   3  -2   5    5.75    2.13
  -2  -3  10   39.18    5.33
  -2  -3  18   13.92    7.03
  -4   3   3  224.46    6.54
  -2  -2   6  291.74    6.33
  -1  -3   7 1168.57   10.63
  -5   2   8   48.53    6.95
   0  -4  11   26.48    3.92
  -3  -2   9   30.74    5.78
  -4   2   4  153.05    6.42
  -4   4   2    2.26    3.77
   0  -3   6  128.95    3.45
  -1  -4  14   -0.64    5.03
  -2  -3   9  106.16    5.69
  -1  -4  15   18.53    5.67
  -5   4   5   11.85    5.49
  -1  -4  12    0.26    4.35
  -5   3   6   36.89    6.07
  -1  -2   4  421.80    6.07
   0  -4  10    8.34    3.57
  -3  -3  15   81.47    8.22
  -3  -3  14   39.92    7.14
  -1  -4  11   -0.01    4.03
  -3  -2   8  144.33    6.96
  -3  -3  16   13.07    7.00
  -5   2   7   10.96    5.59
  -3  -3  13   47.73    6.49
  -4  -2  14   31.03    7.00
   2   2  -2   29.83    3.67
  -2  -3   8   39.47    4.85
  -3  -3  12   18.23    5.86
  -4  -2  13   33.71    7.05
  -6   4   9    3.59    7.22
   3   2  -1 1614.52   13.35
  -4  -2  12   94.78    8.00
  -5   6   3   14.63    4.89
  -2  -2   5   94.03    4.70
  -3  -3  11  161.06    7.79
  -2  -4  15    2.06    6.16
  -3   2   1 1438.30   11.19
  -1  -3   6  108.81    4.23
  -2  -4  16    1.75    6.48
  -2  -4  13   22.32    5.82
  -5   3   5   49.70    5.86
  -3  -2   7    2.78    4.93
  -4  -2  11   16.34    6.46
  -2  -4  17   13.14    7.31
  -4   2   3    0.93    4.11
  -5   2   6   25.84    5.76
  -6   4   8    7.96    7.28
  -6   5   7    3.39    7.03
  -3  -3  10   76.77    6.21
  -4   3   2  112.19    5.24
  -3   3   0  302.89    5.06
  -1  -4   9   18.82    4.36
  -2  -4  11   20.32    5.20
  -4  -2  10    3.47    5.45
  -3  -3   9  321.86    8.76
   3  -2   6   58.16    2.79
  -4   4   1    6.88    3.58
   0  -2   3   10.42    1.70
  -6   4   7   37.57    7.70
  -6   3   8   57.13    8.09
   2   4  -3    7.24    3.58
  -4  -2   9   20.70    5.82
  -4  -3  14   21.02    7.01
  -3  -2   6    0.90    4.33
   1   1  -1    7.93    2.36
  -3  -4  15    1.02    6.53
  -3  -4  16   10.85    7.13
  -3  -4  14   -3.53    6.48
  -4  -3  13   33.16    7.48
  -5   2   5  135.78    7.58
  -6   2   9   26.52    7.79
  -5   3   4  189.86    7.30
  -3  -4  13   20.85    6.60
   0   2  -2  619.63    3.96
  -2  -2   4  171.19    5.23
  -4  -3  12   19.25    6.79
  -3  -3   8   37.35    5.86
  -2  -3   6  227.00    6.21
   2  -2   4  977.41    4.60
  -3  -4  12   19.18    6.39
  -1  -5  15    8.44    5.47
   3   2   0  139.72    5.44
  -4  -2   8  223.58    8.55
  -1  -3   5  307.62    5.48
  -6   3   7  313.73   11.29
  -1  -5  13   -1.04    4.74
  -4  -3  11   25.91    6.72
  -1  -2   3 1128.68    8.52
  -6   2   8   21.53    6.70
  -3  -4  11   -0.33    5.59
  -4   2   2   24.47    4.48
   1  -4   9    8.38    2.48
  -2  -5  15   -1.27    6.82
  -2  -5  14   16.32    6.28
  -3  -2   5   27.64    4.24
   0  -5  13   14.64    4.19
  -4  -3  10   34.86    6.30
   2   1   0 1684.45   10.84
  -2  -5  13   29.81    6.25
  -5  -2  11    1.14    6.97
  -5   2   4    0.07    4.81
  -4  -2   7   25.32    5.68
  -4   3   1  117.89    5.13
  -1  -5  11   11.81    4.57
  -6   2   7   20.80    7.03
  -6   3   6   -0.64    6.38
  -5   3   3  883.37   12.37
  -5  -2  10    6.15    6.18
  -4  -3   9    3.84    5.52
  -4  -4  13   10.27    7.07
  -2  -3   5 1625.97   13.35
  -3  -4   9   34.78    6.02
  -2  -5  11   25.81    5.57
  -3   2   0  499.95    6.49
  -3  -5  15   25.82    7.69
  -3  -5  14   16.12    6.83
  -2   2  -1  366.83    4.11
   3  -2   7    0.09    2.27
  -2  -4   7   22.19    4.95
  -3  -3   6   67.71    5.69
  -3  -5  13   -1.92    6.54
  -5  -2   9  257.60   10.26
  -4  -2   6   31.04    5.31
  -4  -3   8    1.47    5.63
  -2  -2   3   24.69    3.51
   3   2   1  282.25    6.46
  -4  -4  11   41.90    7.56
  -6   2   6   96.55    8.61
  -3  -2   4  865.70   11.10
  -3  -5  12    0.61    6.26
  -3  -4   8    7.84    4.94
  -6   3   5   87.78    7.85
  -5  -3  11   31.71    7.71
  -5   2   3   22.53    5.22
   1  -3   5    0.25    1.20
  -1  -3   4   17.06    3.42
  -3  -5  11   -1.37    5.67
  -5  -2   8   22.62    6.74
  -4   2   1  479.47    8.45
  -4  -3   7   20.12    5.61
  -5  -3  10   37.13    7.27
  -1  -1   1    1.44    2.30
  -2  -6  15    3.78    6.80
  -4  -2   5  605.12   11.54
  -3  -3   5   67.97    5.32
  -2  -6  14   -1.21    6.32
  -4  -4   9    7.63    6.36
  -6   2   5    3.87    6.00
  -2  -3   4   17.99    3.58
  -3   3  -1   20.76    2.55
  -2  -6  13    6.91    5.92
  -5  -2   7    1.89    6.01
  -5  -3   9   25.80    6.91
  -3  -6  15   12.80    7.59
   2   2   0 2804.64   14.46
  -2  -6  12   30.38    6.18
   0  -5   9    0.56    3.41
  -4   3   0  259.94    6.04
  -4  -3   6   22.13    5.84
   3  -2   8   46.69    3.11
  -3  -2   3  269.88    6.81
  -1  -2   2 1099.29    7.72
   3   2   2    2.73    3.87
  -3  -6  13   19.40    6.94
   2   1   1  300.88    5.37
  -5  -3   8   15.67    6.78
  -2  -6  11   11.16    5.56
  -5   2   2   64.27    6.01
  -5  -2   6   21.15    5.98
  -4  -2   4   49.27    6.09
   0   5  -3    7.81    2.70
  -6   2   4   44.63    6.81
  -1  -6  11    4.32    4.55
  -2  -2   2   26.16    3.56
  -3  -3   4   11.97    4.67
  -3  -6  11    2.27    6.50
  -1   6  -3    1.03    2.29
  -4  -3   5   73.27    6.18
  -5  -3   7  210.39    9.49
  -5  -4   9    5.92    6.99
  -1  -5   7   -0.64    3.96
  -4  -5   9    9.53    6.85
  -6   3   3  114.35    7.53
  -1   1  -1 2074.80    5.70
  -5   3   1  588.93   10.06
  -2  -3   3   18.11    3.72
  -4  -6  12    4.51    7.60
  -5  -2   5  232.55    9.09
   1   1   0 7100.77   65.47
  -4   2   0   65.73    4.70
  -3  -4   5   19.77    5.57
  -5  -4   8    1.87    6.88
  -2  -7  14   14.08    6.59
  -4  -5   8    3.28    6.05
   3   2   3  835.39   10.31
  -3   2  -1   37.87    3.20
  -4  -6  11   13.89    6.96
   0  -6  12   24.26    4.24
  -5  -3   6   35.14    6.67
  -4  -2   3   34.35    5.33
  -3  -7  14   38.29    7.88
  -3  -2   2  535.89    8.40
  -6   2   3    2.15    5.69
  -3  -6   9   24.46    6.18
  -2  -7  13   20.41    6.45
   0   7  -3    3.02    3.62
   1  -5  11    0.27    2.70
  -3  -7  13    0.82    6.64
   2  -2   5   85.03    2.03
  -4  -3   4   50.37    6.19
  -4   4  -1    5.05    3.11
  -5   2   1   10.71    4.50
  -3  -3   3    4.64    4.03
  -4  -6  10    2.25    6.96
  -2  -7  12   24.41    6.18
  -3  -7  12   -3.31    6.58
  -5  -4   7    6.49    6.75
   0  -6  11   12.45    3.82
  -5  -2   4   -1.32    5.76
  -5  -5   9    7.82    7.69
  -6  -2   6  185.92    9.79
  -4  -4   5    1.23    5.45
  -5  -3   5  221.89    9.30
  -1  -7  13   13.62    5.39
  -2  -7  11   42.53    6.40
   0  -4   5    9.40    2.46
   0   8  -2   17.30    4.66
   2   1   2    2.64    2.80
   1  -5   9    1.88    2.28
   3   2   4  478.47    8.27
   0  -5   7    2.71    3.04
  -4   3  -1 1483.71   11.42
  -2  -2   1   51.47    4.03
  -3  -7  10   16.86    6.74
  -4  -2   2   48.53    5.85
  -4  -6   8    4.52    6.24
  -4  -7  11   30.46    7.81
  -6   2   2   46.55    6.32
  -4  -3   3  248.87    8.19
  -2  -3   2  130.55    4.75
  -6  -2   5    2.17    6.79
  -5   3   0    8.19    4.11
  -3  -6   7    1.58    5.64
  -5  -2   3    0.99    5.50
  -6  -3   6    9.28    7.22
  -1  -7  11    2.99    4.69
  -5  -3   4  208.85    9.16
  -4  -7  10   25.49    8.02
  -3  -2   1 1470.09   13.29
  -3  -3   2    0.24    3.98
  -5  -4   5   13.43    7.28
  -2  -7   9   13.33    5.27
  -4  -6   7   31.64    7.22
  -3  -4   3   15.93    5.00
  -5   2   0  197.34    6.93
  -4   2  -1    8.69    3.78
  -2  -8  13   12.02    6.94
  -3  -8  12    9.91    7.26
  -6  -2   4   14.81    6.92
   2   4   1   12.38    3.82
  -1  -1   0 7174.78   69.09
  -6  -3   5  227.19   11.04
  -3  -7   8    8.79    6.18
   2   2   2 1801.24   11.94
  -3  -8  11    1.04    7.19
  -2  -7   8   -0.46    5.30
  -4  -3   2  122.17    6.91
  -5  -3   3  564.17   12.75
  -5  -2   2  149.79    7.80
  -4  -4   3   33.97    6.46
  -4  -2   1  463.11    9.94
  -4  -7   8   12.75    6.75
  -5  -6   7    3.91    7.72
  -3  -8  10   41.30    7.52
  -5  -5   5    8.48    7.29
  -3  -7   7   42.68    6.79
  -6  -3   4    0.89    6.88
   2   1   3  250.40    5.11
  -6  -2   3   -3.24    6.46
  -3  -3   1   79.06    5.32
   0  -5   5    3.17    2.71
  -3  -2   0  154.09    6.11
  -4  -8   9   29.81    8.38
  -2  -2   0 2803.74   15.22
  -3  -9  12   50.76    8.95
  -5  -4   3   21.69    6.63
  -5  -3   2   11.64    5.82
  -5   3  -1  225.08    6.61
  -4  -4   2   -1.57    5.80
  -3   2  -2   29.22    2.83
  -2   2  -2  778.51    4.83
  -4  -3   1  433.79    9.81
  -5  -2   1    6.72    5.40
  -2  -9  12   -5.73    6.78
  -6  -3   3   24.62    7.33
  -4  -7   6   47.31    7.60
  -3  -8   8   15.42    6.95
   1   1   1 2314.96    9.61
  -3  -6   4   15.74    5.89
  -4  -8   8    4.03    7.10
  -5  -6   5   10.56    7.42
  -5   2  -1    1.55    4.05
  -6  -2   2   18.06    6.90
  -2  -7   6    6.81    5.11
  -4  -2   0   55.38    5.77
  -4   3  -2    7.37    3.08
  -1  -7   7    9.40    4.49
  -3  -8   7   12.17    6.25
   2   3   3    6.50    3.74
  -5  -3   1  990.84   15.01
  -2   7  -2    3.52    2.57
  -5  -6   4   -1.70    7.14
  -6  -3   2  122.41    8.83
  -4   2  -2    2.26    3.39
  -3  -3   0  213.53    6.59
   2   1   4  800.35    9.51
  -4  -4   1   29.60    6.22
   0   7   0    0.46    3.84
  -5  -2   0  135.07    7.58
  -6  -2   1   31.26    6.84
  -4  -3   0  455.39   10.02
  -2   1  -2   10.70    2.19
  -4  -8   6    0.41    6.96
  -3  -8   6   14.23    6.01
  -3  -2  -1  276.98    6.63
  -3  -7   4   31.34    6.05
  -2  -6   3   22.77    5.06
  -1  -7   6    8.94    4.48
  -5  -6   3   14.59    6.95
  -6  -4   2   17.54    8.01
  -3 -10  10   22.38    8.05
  -4  -2  -1    3.08    4.87
  -1  -9  10   29.26    5.66
   1  -5   7   10.15    1.99
  -5  -7   4   27.04    7.97
  -6  -3   1    4.97    7.23
  -5  -3   0    2.97    5.94
  -3  -8   5    8.28    6.23
  -2  -2  -1  612.04    7.62
  -3 -10   9   -4.88    7.61
   0  -7   7    2.96    3.48
   2  -2   7  887.83    6.35
  -4  -9   6   18.82    8.15
  -5   2  -2  141.27    6.01
  -6  -2   0   72.65    8.01
   2   1   5   79.78    3.78
  -5  -2  -1    0.45    5.41
  -3 -10   8   16.43    7.75
  -5  -6   2    6.20    6.92
  -5  -5   1    3.42    6.51
  -3  -3  -1   49.18    4.89
  -6  -4   1   36.99    8.30
  -4  -3  -1  808.67   12.67
  -4  -8   4   11.70    6.72
  -2   8  -1   10.87    3.54
  -3  -8   4   -0.82    6.26
   2   2   5  421.22    6.98
  -6  -3   0    3.82    6.78
  -1  -1  -1 2319.97    9.78
  -3 -10   7   22.84    7.57
  -4  -6   1   17.58    6.52
  -5  -3  -1   17.71    5.98
  -4  -2  -2    4.41    4.90
  -2  -3  -1   24.77    3.62
   0  -5   3    7.25    2.64
  -3  -2  -2    0.31    3.88
  -2 -10   8   20.64    6.54
  -5  -7   2    1.55    7.05
  -4  -9   4   50.04    7.89
  -4  -4  -1   17.98    5.64
   1   1   2  233.55    3.77
   0  -8   8   25.98    4.04
  -5  -5   0   24.31    7.10
  -6  -2  -1    6.16    6.21
  -6  -4   0    2.23    7.12
   2  -2   8  933.56    7.02
  -1  -7   4    8.80    4.52
   2   2   6  256.01    6.07
   0   3   0    0.36    2.34
  -4   2  -3    9.46    3.29
  -5  -2  -2  109.92    7.13
   1  -4   5    1.10    1.22
  -1   5  -1    2.69    2.24
  -6  -3  -1    2.52    6.94
  -4  -3  -2   19.46    5.30
  -3   2  -3 1060.88    7.54
  -4  -9   3    6.94    6.86
  -4  -8   2   49.46    7.24
  -3  -3  -2  271.37    7.03
  -3  -9   3   12.79    6.61
  -4   3  -3 1293.27    9.03
  -5  -7   1   15.84    7.40
  -5  -6   0    1.39    6.68
   0  -8   7    6.08    3.58
  -2  -2  -2 1759.43   12.01
  -5  -3  -2   97.26    6.99
  -3  -8   2   19.03    6.55
   2   2   7 1023.12   11.38
  -2  -4  -1   15.03    3.83
  -2  -8   3   20.20    5.27
  -5  -5  -1    5.39    6.73
  -6  -4  -1    2.35    6.75
   2  -2   9   28.97    2.66
  -4  -4  -2  306.16    8.89
  -4  -9   2    5.29    7.35
  -6  -2  -2   24.81    6.78
  -3 -11   6    1.78    7.12
  -4  -2  -3    5.22    4.72
  -2 -11   8   -1.00    6.90
  -2 -10   5   41.61    6.52
  -4  -6  -1    0.49    6.26
  -6  -3  -2   41.23    7.36
  -5  -6  -1    2.90    6.99
  -3  -2  -3  767.25   10.53
  -5  -2  -3   53.26    6.43
  -3 -11   5   12.83    7.80
  -2 -11   7   19.55    6.87
  -2  -8   2    7.56    5.44
  -4  -3  -3 1872.42   17.59
  -5  -5  -2   -1.93    6.62
  -2 -10   4   17.93    6.18
  -6  -4  -2    6.19    6.93
   1  -1   3    8.50    1.21
  -5  -3  -3  149.95    7.82
  -3 -11   4    1.41    6.82
  -3  -3  -3  550.48    9.29
   1   1   3   -0.51    2.31
  -6  -2  -3   50.62    7.59
  -4  -4  -3   76.54    6.29
  -2   1  -3   95.75    3.16
  -2   8  13   54.71    8.13
  -1   3  11   40.92    5.48
  -3  10   6   62.62    6.56
   4  -3  -2  102.53    5.22
  -3  10   4   91.66    6.37
   0   4  -8   30.04    3.25
  -3  10   8   55.33    7.48
  -3   9   6   84.83    6.61
  -3   9   7   65.77    6.82
  -3  10   3  241.27    7.88
  -2   5   0 1473.45    8.93
  -2   5   9   82.04    6.54
  -3   9   4   40.21    5.04
  -2   5  10  232.24    8.26
  -2   4   6  647.81    9.39
  -2   4   5  497.97    7.74
  -2   4   4   14.59    3.31
  -3   9   2   63.06    4.84
  -1   5  16   66.61    8.19
  -2   4   9  230.36    7.60
  -1   2   0  537.24    3.69
  -2   4   3   35.12    3.28
  -2   5  12  202.45    9.00
  -2   6  -2   35.89    2.07
  -2   4  10   65.12    6.16
   0   6  -9   91.33    4.43
  -3   9   8  689.89   13.41
  -3   9   9   70.89    7.93
  -3   9  10   50.97    7.77
  -3   9   1   35.33    4.17
  -2   4   2  325.55    5.26
   0   3  -6  132.24    3.49
  -3   9  11    2.97    7.21
  -1   7  -7  282.46    4.04
  -2   3   7  966.85   11.21
   0   5  -8  726.25    8.01
  -3   8   9   92.35    7.59
  -2   3   6    6.85    3.43
  -2   4  12   95.03    7.15
  -2   5  -1  458.93    4.51
  -2   3   5 1194.04   11.03
   0   4  -7   28.00    2.83
  -3   7   9   91.85    7.20
  -3   7   6   40.13    5.09
  -3   8  12   52.73    8.29
  -3   8   1  574.73    8.14
  -3   7   5  204.07    6.91
  -3   7  11   46.18    7.30
  -2   4  14  134.40    8.29
  -2   4   1   97.59    3.21
  -3   6   8   63.95    6.10
  -3   6  10  168.04    8.35
  -3   6   6  103.61    6.07
  -2   3   3  315.01    5.47
  -3   6  14   98.95    8.98
  -1   6  -6  267.55    3.57
  -3   6   5  192.90    6.72
  -3   6  12   17.38    6.35
  -3   7   3  212.54    6.27
  -3   5   9   77.38    6.58
  -3   5   8  199.38    7.60
  -3   5  10  209.28    8.55
  -3   5   7    0.17    4.72
   0   6  -8    4.69    3.28
  -3   7   1  176.00    5.01
   1   4  -8   15.80    3.72
  -3   5   6  736.66   10.79
  -3   8   0   44.28    3.49
  -2   3   2   15.43    2.66
  -4   9   6  101.39    7.07
  -3   5   5   72.59    5.27
  -1   5  -5  119.36    2.24
  -1   4  -4    9.63    1.07
  -3   6   3   49.13    4.40
  -3   5  14   60.45    7.94
  -3   4  10   67.22    6.19
  -2   4   0  294.23    4.01
  -3   5   4  438.12    7.98
   0   4  -6 1832.82   10.43
  -3   4  13   45.58    6.65
  -3   4   6   18.62    4.65
   0   7  -8  103.33    4.59
  -4   9   9    0.66    6.37
  -3   6   2   18.39    3.58
  -3   7   0   24.93    3.05
   1   5  -8  552.03    8.66
  -3   5   3  339.49    6.77
  -2   3   1 1215.07    8.11
  -4   7   9  174.35    8.92
   1   4  -7   96.69    4.59
  -3   4   4  784.60    9.68
  -4   7   7  132.54    7.40
  -3   3   6   11.22    4.27
  -4   6   9  106.66    7.70
  -3   8  -1  161.31    4.04
  -4   8   5  400.50    9.59
  -3   6   1    1.22    3.07
  -2   5  -2  245.18    2.68
  -3   5   2   20.92    3.39
  -4   5  12   81.20    8.47
  -4   5  10   73.90    7.48
  -3   3   5  121.23    5.33
  -4   7   5   59.16    5.65
  -4   8   4   41.79    5.13
  -4   6   6  103.35    6.41
   0   5  -6 1202.07    9.16
  -4   4  12   50.40    7.25
  -4   4  11   43.33    6.67
  -4   5   7  117.96    6.63
  -4   4  10    0.40    5.54
  -3   3   4   48.37    4.20
  -4   6   5   10.13    4.65
  -4   7   4   15.97    4.59
  -4   5   6    8.60    4.68
  -4   4   8  570.17   11.42
  -2   3   0  365.13    4.29
  -4   8   3  124.16    5.97
  -3   5   1   64.15    3.65
  -3   4   2   42.67    3.62
   1   4  -6   75.35    4.07
  -3   7  -1  170.19    3.84
  -5   8   7   96.29    7.97
  -4   4   7   95.48    6.58
  -1   6  -5  259.66    3.63
  -3   6   0    1.62    2.76
  -4   6   4   -0.40    4.25
  -4   5   5   12.85    4.74
  -4   7   3   37.89    4.58
  -5   8   9  156.19   10.05
  -4   4   6   96.83    6.12
  -5   6  10   98.62    9.04
  -4   5   4  433.46    8.72
   0   6  -6  271.28    5.52
  -4   6   3  259.44    6.93
  -5   4  12  251.50   12.11
  -5   5  10   29.30    7.50
  -3   4   1   69.72    3.65
  -4   7   2  412.18    7.77
   1   5  -6  183.58    5.74
  -3   5   0  146.79    4.03
  -5   4  11   81.27    8.41
  -5   6   7   63.10    7.30
  -5   7   6  197.28    9.04
  -4   5   3    2.60    3.98
  -4   4   4  227.74    7.08
  -5   4  10   48.25    7.47
  -5   5   8  307.73   10.76
   1   4  -5  521.93    7.37
  -4   3   5   85.81    5.91
  -4   6   2  621.34    9.22
   0   7  -6  550.80    7.83
  -5   6   6  194.47    8.67
   0   5  -5    4.57    2.57
  -5   7   5  315.62    9.70
   1   6  -6    0.01    3.91
  -1   7  -5  194.71    4.03
  -3   6  -1  454.22    5.37
  -1   5  -4 1496.74    6.62
  -4   4   3   45.92    4.63
  -4   7   1  471.95    7.62
  -5   5   6  747.23   13.34
  -4   5   2 1029.52   11.10
   0   8  -6  129.11    5.26
  -3   4   0  931.37    7.95
   1   5  -5  474.77    7.45
   0   4  -4    4.37    2.28
   0  -4  14   -1.89    4.44
   0  -4  12  387.58    7.79
  -1   8  -5  161.05    4.22
   0   6  -5  265.44    5.38
   2   4  -4  297.95    6.82
  -1  -4  13   48.43    5.65
   1  -4  12  408.00    6.61
  -1  -4  16  190.03    8.76
   1   4  -4    3.72    3.05
  -5   5   4  169.18    7.29
   2   3  -3   15.38    3.65
  -3   5  -1    4.91    2.33
   1   6  -5   45.17    4.35
  -4   5   1  108.40    4.81
   1  -3   6  203.18    2.83
  -6   5   8   67.41    8.85
   1  -4  11   51.53    3.51
  -1  -4  10  597.53    9.58
   0   3  -3 2619.27   10.08
  -2  -4  14  133.11    8.12
   0   7  -5   53.35    4.17
   0  -4   9   57.32    3.95
  -2  -4  12    2.07    5.26
  -5   4   4   11.08    5.10
   1   3  -3 1254.81    9.47
   1  -4  10   -0.25    2.59
  -2  -3   7  617.48    9.82
  -5   5   3   53.50    5.70
  -2   4  -2   24.74    1.26
   0   8  -5  165.13    5.74
   1   2  -2 1067.64    7.78
  -3   7  -2  408.15    3.60
  -2  -4  10    1.06    4.77
  -4   6   0   68.26    3.91
   1   5  -4  190.97    5.25
   0   5  -4  526.82    6.17
  -6   5   6  103.15    8.51
   0  -4   8   31.13    3.22
  -1   6  -4    9.56    2.16
  -1  -4   8   14.36    3.97
   0  -3   5   83.84    3.05
  -2  -4   9  164.59    7.20
  -5   4   3   50.66    5.62
  -1  -5  14  113.39    6.82
   2   3  -2  134.60    4.87
  -6   4   6  387.00   11.89
  -3   4  -1   36.43    2.67
  -1  -5  12  397.64    9.01
  -2  -5  16  172.37    9.93
   2   2  -1   54.19    3.76
   1   6  -4 1317.01   12.35
  -4   5   0  309.46    5.90
  -2  -4   8   41.13    5.09
  -3  -3   7   18.06    5.58
  -3  -4  10   21.65    6.10
  -5   5   2  673.47   10.54
  -1  -4   7   91.02    4.66
   1   4  -3  192.79    5.01
  -2  -5  12  271.36    9.00
   0  -5  12  204.64    6.29
   0   6  -4  578.56    7.23
  -6   4   5   60.16    7.34
   0  -4   7   27.53    3.02
  -1  -5  10  191.52    6.62
   0  -5  11   12.64    3.70
  -4  -4  12  121.04    9.15
  -1   7  -4  111.30    3.69
  -5   4   2  679.85   10.74
   2   4  -2  147.72    5.43
  -2  -5  10   36.44    5.57
  -4   4   0   18.28    3.53
   0   4  -3  552.07    5.67
   0   7  -4  110.42    4.83
  -1   8  -4   93.52    4.06
  -1  -5   9   45.32    4.81
  -4  -4  10  106.73    8.22
   0  -5  10  309.62    6.40
   1   3  -2  555.00    6.64
  -1  -4   6   69.37    4.09
   1   5  -3   44.14    3.64
  -6   4   4   87.15    7.75
  -2  -5   9   55.91    5.80
   0   8  -4  356.11    7.42
   2   3  -1  741.52    9.01
  -3   6  -2  945.50    4.96
  -3  -5  10   77.61    7.00
  -2  -4   6  559.21    9.46
  -3  -4   7   52.86    5.87
   1  -4   8  815.63    6.22
  -4  -5  13   75.29    9.21
  -1  -6  14  153.08    7.53
  -1   5  -3   81.12    2.38
  -4  -5  12  117.24    9.34
  -1  -6  13   44.35    5.70
  -1  -5   8  534.17    8.80
   0  -3   4  427.09    4.73
   1   6  -3   28.51    4.13
   0  -1   1  553.29    2.70
  -2  -5   8   18.31    5.31
  -3  -5   9  263.51    8.82
  -3  -6  14   74.24    8.32
   0  -4   6 1820.52   10.63
  -4  -4   8  485.32   12.16
  -4  -5  11   62.33    7.82
  -1  -6  12    5.06    4.96
   1   2  -1  502.68    5.66
  -5   4   1   50.93    4.98
  -3  -4   6   69.82    6.50
  -3  -6  12  121.50    8.53
   2   4  -1   76.14    4.73
   1  -4   7   48.87    2.22
  -5  -4  10  206.81   11.06
  -4  -5  10    9.54    6.93
  -3  -5   8  618.59   12.22
  -2   7  -3  293.02    3.62
  -1  -4   5  521.71    7.34
  -2  -4   5  328.00    7.39
  -1   9  -3  259.05    6.37
   1   4  -2 3030.65   15.54
  -4  -4   7   25.83    6.59
  -2  -5   7    3.57    4.99
  -2  -6  10   31.39    5.59
  -4   5  -1  238.20    4.94
  -1   8  -3   90.05    4.38
  -1   7  -3   77.45    3.70
  -1  -6  10   53.49    5.20
  -3  -6  10   52.20    6.74
  -1  -3   3 1259.77    9.76
   0  -5   8  751.56    8.35
  -3  -5   7  178.66    8.02
   2   3   0  117.48    4.85
   0   6  -3   83.34    3.88
  -2  -6   9   60.65    6.02
  -4  -4   6  469.29   11.44
   0   3  -2  345.31    4.05
   1   5  -2  232.96    5.58
   0   8  -3 1779.52   14.58
  -2  -5   6  332.53    8.17
  -3   5  -2  765.69    4.91
  -1  -6   9   62.39    5.10
   0   4  -2 1440.54    8.88
  -2  -4   4  283.51    6.98
   2   2   1  613.17    7.70
   1   6  -2    0.55    3.77
  -3  -5   6   53.53    5.95
  -2  -6   8  437.17    9.66
  -4  -5   7   45.18    7.08
  -1  -5   6  168.35    5.53
   1   3  -1 3811.97   15.73
   2   4   0  552.51    8.37
  -3  -6   8    1.14    5.64
  -5   4   0  179.39    6.23
  -1  -4   4    3.71    3.13
  -4  -6   9   63.36    7.80
  -3  -4   4  818.78   12.09
   0  -2   2  560.31    4.04
  -3  -7  11   98.39    8.51
   0   5  -2  273.22    5.04
  -5  -5   8   14.78    7.38
   0   7  -2   36.90    4.04
  -1  -6   8  221.45    6.75
  -1  -7  12   18.03    4.96
  -5  -4   6   72.20    7.95
   0   6  -2  138.73    4.53
  -4  -5   6  284.36    9.99
  -2  -5   5  376.98    8.23
  -2   3  -2  265.77    2.48
  -2  -7  10   56.21    6.46
   0  -6  10  339.97    6.79
  -2  -6   7    5.18    5.09
  -3  -5   5   -0.71    5.42
   2   3   1   24.76    3.77
  -1   9  -2  305.22    7.07
  -5  -5   7   92.90    9.07
  -4  -4   4   27.95    6.07
  -3   4  -2   51.25    2.39
   1   4  -1 1196.07   10.21
  -3  -7   9    3.52    6.26
  -2  -4   3    9.08    3.96
  -1  -2   1  513.97    5.68
  -3  -8  13  236.56   11.43
  -1  -5   5  455.75    7.46
  -4  -5   5   85.69    7.13
  -1  -3   2  531.20    6.71
  -1  -6   7   14.86    4.51
   0   2  -1 2471.56    8.06
  -4  -7   9  275.76   11.71
  -1  -7  10  172.40    6.87
   0  -3   3 2572.39   10.05
  -3  -6   6   12.26    5.35
   1   2   0  261.23    4.62
   1   5  -1  116.85    4.88
  -2  -6   6   22.22    5.44
  -5  -5   6 1222.41   19.55
  -1   8  -2   55.27    4.40
   0  -6   9   95.38    4.55
  -2  -8  12  181.11    9.17
   1   6  -1  630.85    9.05
  -3  -5   4  178.41    7.60
  -2  -5   4 1792.43   15.71
  -4  -6   6  231.23   10.08
   1  -4   6   69.57    2.00
  -5  -4   4  118.48    8.56
  -1  -4   3  188.42    5.00
  -2  -8  11  361.69   10.78
  -3   3  -2  153.06    3.54
  -1  -7   9   54.78    5.35
  -1   7  -2  516.10    7.02
   0  -5   6 1186.12    9.41
  -4  -5   4   57.69    6.99
  -3  -6   5  318.04    9.64
   1  -5   8  207.25    3.59
  -1  -6   6   -1.17    4.23
   0   7  -1  284.35    6.82
  -2  -6   5   31.67    5.62
   2   3   2  156.27    5.19
  -2  -8  10   22.61    6.23
  -4  -7   7    9.31    7.19
  -3  -4   2  579.48   10.40
  -2  -3   1  733.45    9.01
  -2  -7   7  179.55    7.61
  -5  -6   6   86.34    9.16
  -4  -6   5  206.75    9.51
  -3  -8   9   95.56    8.33
  -2  -4   2  138.11    5.62
  -1   6  -2  393.37    5.41
   1   3   0    0.37    2.91
   0  -6   8    5.56    3.45
  -2   8  -2   73.19    3.77
  -1  -5   4  177.26    5.33
   0  -4   4    5.66    2.43
  -3  -5   3  294.36    8.86
  -1  -7   8   40.17    4.91
   0   6  -1   52.03    3.85
   0   3  -1 1767.49    8.62
   2   4   2  255.24    6.90
   2  -2   6  364.25    3.98
  -1   9  -1   87.18    5.49
  -3  -7   6   72.28    7.33
  -5  -5   4   25.82    6.84
  -2  -5   3  216.83    6.79
  -2  -8   9  322.76   10.10
  -1   5  -2 3836.36   12.98
  -3  -9  11    1.28    7.57
  -1   4  -2 1907.91    7.40
  -4  -5   3  184.55    8.42
  -6  -4   4  273.91   11.65
   0   5  -1  819.35    8.06
   1   4   0 1416.19   11.19
  -1  -8  11    7.97    5.21
   0   4  -1  260.54    4.62
   0  -7  11  141.29    5.72
   2   2   3 1725.58   12.66
   1   6   0  276.02    6.84
   0  -7   9   84.41    4.54
  -3  -9  10  673.37   15.05
  -4  -6   4  256.50    9.94
   1   5   0 2364.59   15.86
  -4   4  -2  571.38    6.59
  -2  -6   4   27.61    5.04
  -2  -9  11   55.79    7.48
  -4   5  -2 1406.57    8.62
  -2  -8   8   19.80    5.91
  -1  -6   5   46.15    4.74
  -3  -7   5  461.17   10.97
  -1  -8  10   85.91    6.29
  -5  -4   2  363.32   11.56
  -4  -8   7   62.10    8.05
  -5  -5   3  101.70    8.66
  -3  -9   9  209.33   10.20
   0  -3   2  329.76    3.98
  -4  -7   5    8.54    6.82
  -3  -4   1   12.48    4.97
  -1   8  -1   82.64    4.98
   0  -6   6  262.36    5.52
  -2  -9  10  221.00    9.58
  -1  -3   1 3735.78   15.58
  -3  -5   2   95.11    6.46
  -6  -4   3   49.49    8.77
   0  -4   3  534.08    5.75
  -1  -4   2 2917.15   15.33
   0  -7  10    2.92    3.79
  -4  -5   2 2113.42   21.36
   2   4   3  139.57    5.70
  -3  -6   3   49.72    5.89
   0  -7   8  112.97    4.73
  -2  -7   5   16.08    5.21
  -2  -4   1   78.51    4.84
  -3  -9   8    9.06    6.69
  -4  -6   3   61.58    7.23
  -2  -8   7  124.59    7.42
  -5  -7   5  249.90   11.33
  -2  -9   9   47.33    6.74
  -1  -5   3   38.50    3.71
  -2  -5   2  533.34    9.01
  -1  -8   9   62.56    5.74
  -1  -2   0  269.07    4.49
  -2  -3   0  116.68    4.75
   0  -5   4  517.84    6.24
   1   2   1  578.35    6.29
  -4  -7   4  111.64    8.51
  -5  -5   2  503.98   13.15
   2   2   4  605.74    8.18
  -5  -4   1  107.10    8.02
  -3  -9   7    5.45    6.91
  -2  -9   8  121.44    7.89
   1   6   1    6.71    4.11
  -1   7  -1   34.84    3.82
   0  -2   1 2453.98    7.98
   0   6   0 1647.85   12.85
  -1  -6   4 1287.73   12.36
  -4  -8   5  575.97   14.36
  -2  -8   6  259.86    8.84
   1   3   1   31.01    3.31
  -1  -8   8  378.68    8.93
   1   5   1  114.94    4.99
   2   3   4  622.27    9.05
  -3  -5   1  233.14    8.32
  -4  -5   1    0.70    5.98
   1   4   1    1.22    3.50
  -2  -7   4   81.12    6.55
  -4  -6   2  125.09    8.58
  -3  -6   2  319.36    9.54
  -3  -4   0  325.88    8.26
   0  -6   5  260.03    5.47
  -4  -4   0  153.94    7.47
  -3  -9   6  116.67    8.63
  -2  -9   7   10.43    6.10
  -4  -7   3  185.90    9.69
  -3  -7   3    9.88    5.68
  -2   6  -2   35.89    2.07
   0   5   0   88.15    4.08
  -2 -10  10   66.47    8.10
  -5  -7   3  106.38    9.70
  -1  -7   5   74.74    5.47
  -2  -5   1   15.69    4.51
  -1   8   0  174.27    6.32
   0   7   1   61.26    4.88
   1  -6   9   75.98    2.86
  -1  -8   7 1138.83   13.64
  -5  -4   0  476.02   12.10
  -2  -8   5  125.28    7.21
  -2  -6   2  240.11    7.82
  -1   6  -1  161.32    4.37
   0  -8   9  345.34    7.39
  -4  -9   5   11.97    7.16
  -2  -4   0  551.21    8.70
  -1  -9   9   19.28    5.40
  -3  -9   5   23.55    6.56
  -2  -9   6 1485.48   18.05
  -1  -5   2  225.23    5.81
  -1  -4   1 1171.94   10.16
  -2 -10   9   84.60    8.29
   2   3   5   35.84    4.41
  -2  -7   3   47.31    5.77
   0   4   0  227.16    4.66
  -4  -7   2  120.34    8.47
  -4  -5   0   83.42    7.22
  -3  -6   1  134.33    7.79
   0  -7   6  528.96    7.73
  -1  -6   3   27.19    4.23
  -3  -5   0   56.78    5.88
  -3  -7   2  129.72    7.34
  -1  -3   0    0.67    3.26
  -1  -9   8  125.98    6.81
   1   5   2 1338.18   12.41
  -5  -6   1  176.44    9.56
  -4  -8   3   31.16    7.15
   0  -4   2 1439.29    8.80
  -3 -10   6  166.77    9.69
  -3  -9   4   63.60    7.61
  -2  -9   5  347.68    9.95
   0   6   1  120.57    4.96
  -3  -4  -1   72.07    5.96
  -1  -8   6    4.83    4.73
  -2  -8   4    4.38    4.94
  -3  -8   3  112.53    7.88
   0  -6   4  566.22    7.13
   1   4   2  635.59    8.30
  -5  -4  -1  188.90    9.01
  -2 -10   7   -3.48    6.23
  -1   7   0  106.57    4.65
   1   2   2  109.98    3.68
   1   3   2   69.77    4.16
  -1  -9   7  149.99    6.95
  -2  -6   1  493.93    9.56
  -4  -7   1  446.47   12.09
  -1 -10   9   89.79    6.77
  -3 -10   5  173.21    9.65
  -4  -6   0   62.62    7.22
  -2  -5   0 1846.65   15.46
  -2 -11   9  237.59   10.63
  -2  -7   2   70.25    6.30
  -2  -9   4    7.31    5.72
  -1   8   1 1154.93   12.58
  -4  -5  -1  297.80   10.00
  -3  -7   1  166.33    8.06
  -3  -6   0  529.68   11.01
   0  -7   5   51.24    4.15
   0  -3   1 1721.77    8.45
  -2   7  -1  229.80    5.04
  -2 -10   6    5.38    6.25
   0   2   0  684.13    4.79
  -1  -8   5  384.80    8.59
   0   5   1  429.35    6.73
   1  -6   8   40.94    2.36
  -3  -5  -1  202.28    7.55
   1   5   3    1.75    3.70
  -1  -5   1  110.29    4.70
  -1  -2  -1  585.96    6.06
  -1  -6   2    0.45    3.59
  -1  -9   6  143.57    6.93
  -3 -10   4  104.21    8.45
  -2   5  -2  245.18    2.68
  -3   3  -3  159.68    3.17
  -1  -7   3  139.85    6.00
  -1  -4   0 1322.63   11.00
  -3  -9   2   61.27    7.28
  -4  -7   0  287.34   10.76
  -2   8   0   43.99    4.32
   0   6   2   35.12    4.04
   1  -5   6  497.03    4.02
  -4  -8   1    0.31    6.94
  -2  -9   3   -0.92    5.41
  -5  -4  -2   44.26    7.06
  -3  -4  -2   71.24    6.18
   1   4   3  234.70    6.02
  -5  -7   0   79.57    8.76
   0  -8   6  131.33    5.10
   0  -6   3   82.29    3.94
  -2  -7   1  455.32   10.01
  -1   6   0  615.98    7.51
  -2  -6   0  164.17    6.65
  -3 -10   3  106.02    8.46
   0  -5   2  268.18    4.91
  -2  -3  -2  158.75    5.27
  -3  -7   0   75.63    6.77
  -1 -10   8  236.31    8.47
  -1  -9   5   53.10    5.55
  -3  -8   1  935.46   15.54
  -1  -8   4   72.75    5.82
  -3  -6  -1  336.41    9.32
  -4  -5  -2 1219.07   16.23
  -4   4  -3   45.27    2.70
   1   3   3  885.90    9.11
  -4  -9   1  352.33   12.19
   0   4   1  402.26    5.98
   0  -7   4  108.04    4.64
  -2  -5  -1  425.61    8.65
  -1   7   1   37.19    4.17
   0  -9   8  763.13   10.22
  -3  -9   1   28.20    6.38
  -1   4  -1   89.53    2.75
  -2  -9   2  533.81   11.57
  -1 -10   7   44.14    5.89
   1   2   3 1142.04    9.08
  -1  -3  -1   27.40    3.37
  -3  -5  -2 1938.42   18.18
  -4  -8   0  137.13    9.25
  -2 -11   6   16.31    7.16
  -4  -7  -1  155.86    8.69
  -3 -10   2    3.21    6.54
  -5  -7  -1   17.12    7.67
   0  -4   1  259.88    4.57
  -1  -6   1  592.34    8.95
  -1  -7   2   17.37    4.62
   1   4   4   57.32    4.27
  -1  -9   4  142.38    6.79
   0  -8   5  170.20    5.68
  -2  -4  -2  257.19    6.51
  -4  -6  -2   94.77    7.93
  -1  -5   0 2228.01   14.90
  -5  -6  -2   16.05    6.99
  -3  -8   0   11.21    6.43
  -2 -10   3   86.90    7.73
  -2  -7   0    8.70    5.20
  -3  -7  -1  264.32    9.06
  -1 -10   6  138.99    7.13
  -2  -8   1   18.29    5.49
  -1  -8   3  965.07   12.42
  -2 -11   5   13.76    6.61
  -3  -4  -3    0.76    5.27
  -2  -6  -1   -0.50    4.63
  -3  -6  -2  272.19    9.28
   1   3   4  433.07    7.19
  -1  -4  -1    1.20    3.69
   1   4   5   40.46    4.48
  -1  -7   1   49.86    5.24
   0   6   3  713.66    9.84
   0   5   2  126.38    4.87
  -1  -8   2  557.99   10.27
   0   0   0    0.00    0.00


_computing_structure_solution     'SHELXT 2018/2 (Sheldrick, 2018)'
_computing_structure_solution     'SHELXT 2018/2 (Sheldrick, 2018)'
;
_shelx_hkl_checksum              32791
_olex2_submission_special_instructions 'No special instructions were received'
_oxdiff_exptl_absorpt_empirical_details
;
Empirical correction (ABSPACK) includes:
- Absorption correction using spherical harmonics
- Frame scaling
;
_oxdiff_exptl_absorpt_empirical_full_max 1.126
_oxdiff_exptl_absorpt_empirical_full_min 0.895
_oxdiff_twin_integration_method  simultaneous
_oxdiff_twin_items               2
loop_
_space_group_symop_operation_xyz
'x, y, z'
'-x, -y, -z'
loop_
_atom_site_label
_atom_site_type_symbol
_atom_site_fract_x
_atom_site_fract_y
_atom_site_fract_z
_atom_site_U_iso_or_equiv
_atom_site_adp_type
_atom_site_occupancy
_atom_site_site_symmetry_order
_atom_site_calc_flag
_atom_site_refinement_flags_posn
_atom_site_refinement_flags_adp
_atom_site_refinement_flags_occupancy
_atom_site_disorder_assembly
_atom_site_disorder_group
C11 C -0.3861(3) 0.21428(12) 0.03993(11) 0.0186(3) Uani 1 1 d . . . . .
H11 H -0.534865 0.171800 0.004444 0.022 Uiso 1 1 calc R . . . .
C12 C -0.1637(3) 0.14934(12) 0.08833(11) 0.0188(3) Uani 1 1 d . . . . .
H12 H -0.138943 0.059862 0.090650 0.023 Uiso 1 1 calc R . . . .
C13 C 0.0081(3) 0.24472(12) 0.13113(11) 0.0176(3) Uani 1 1 d . . . . .
H13 H 0.174993 0.233938 0.168394 0.021 Uiso 1 1 calc R . . . .
C14 C -0.0191(3) 0.48732(12) 0.12935(10) 0.0162(3) Uani 1 1 d . . . . .
C21 C 1.3897(3) -0.28961(12) 0.46444(11) 0.0193(3) Uani 1 1 d . . . . .
H21 H 1.537735 -0.326835 0.501267 0.023 Uiso 1 1 calc R . . . .
C22 C 1.1723(3) -0.36299(12) 0.41352(11) 0.0198(3) Uani 1 1 d . . . . .
H22 H 1.150663 -0.453483 0.410612 0.024 Uiso 1 1 calc R . . . .
C23 C 1.0004(3) -0.27290(12) 0.36938(11) 0.0185(3) Uani 1 1 d . . . . .
H23 H 0.836362 -0.289373 0.330215 0.022 Uiso 1 1 calc R . . . .
C24 C 1.0205(3) -0.02909(12) 0.37019(10) 0.0153(3) Uani 1 1 d . . . . .
N2 N 0.7517(3) 0.34022(10) 0.32221(9) 0.0183(3) Uani 1 1 d . . . . .
N11 N -0.1172(3) 0.36093(10) 0.10771(9) 0.0159(3) Uani 1 1 d . . . . .
N12 N -0.3608(2) 0.34228(10) 0.05037(9) 0.0173(3) Uani 1 1 d . . . . .
N13 N -0.1637(3) 0.58361(10) 0.08997(9) 0.0198(3) Uani 1 1 d . . . . .
H13A H -0.107843 0.663193 0.100737 0.024 Uiso 1 1 calc R . . . .
H13B H -0.314246 0.567169 0.053376 0.024 Uiso 1 1 calc R . . . .
N14 N 0.2094(2) 0.50762(10) 0.18505(9) 0.0195(3) Uani 1 1 d . . . . .
H14A H 0.270361 0.586163 0.197119 0.023 Uiso 1 1 calc R . . . .
H14B H 0.299833 0.442513 0.209853 0.023 Uiso 1 1 calc R . . . .
N21 N 1.1198(3) -0.15233(10) 0.39479(9) 0.0170(3) Uani 1 1 d . . . . .
N22 N 1.3609(2) -0.16279(10) 0.45428(9) 0.0177(3) Uani 1 1 d . . . . .
N23 N 1.1631(3) 0.07258(10) 0.40890(9) 0.0195(3) Uani 1 1 d . . . . .
H23A H 1.107293 0.150102 0.396243 0.023 Uiso 1 1 calc R . . . .
H23B H 1.312039 0.061497 0.446861 0.023 Uiso 1 1 calc R . . . .
N24 N 0.7947(2) -0.01891(10) 0.31254(9) 0.0193(3) Uani 1 1 d . . . . .
H24A H 0.731791 0.056853 0.298004 0.023 Uiso 1 1 calc R . . . .
H24B H 0.707797 -0.087907 0.288793 0.023 Uiso 1 1 calc R . . . .
O21 O 0.99244(19) 0.32225(8) 0.35522(7) 0.0202(2) Uani 1 1 d . . . . .
O22 O 0.5960(2) 0.24491(9) 0.29448(8) 0.0232(3) Uani 1 1 d . . . . .
O23 O 0.6680(2) 0.45255(9) 0.31662(9) 0.0290(3) Uani 1 1 d . . . . .
N1 N 0.2524(3) 0.86582(10) 0.17230(9) 0.0176(3) Uani 1 1 d . . . . .
O11 O 0.4124(2) 0.77799(8) 0.20569(8) 0.0212(2) Uani 1 1 d . . . . .
O12 O 0.01163(19) 0.83490(8) 0.14291(8) 0.0209(2) Uani 1 1 d . . . . .
O13 O 0.3334(2) 0.98037(9) 0.16892(10) 0.0328(3) Uani 1 1 d . . . . .
loop_
_atom_site_aniso_label
_atom_site_aniso_U_11
_atom_site_aniso_U_22
_atom_site_aniso_U_33
_atom_site_aniso_U_23
_atom_site_aniso_U_13
_atom_site_aniso_U_12
C11 0.0195(8) 0.0168(6) 0.0191(8) -0.0013(5) 0.0022(6) -0.0030(5)
C12 0.0208(8) 0.0170(6) 0.0187(8) 0.0013(5) 0.0033(6) 0.0016(5)
C13 0.0158(8) 0.0193(6) 0.0177(8) 0.0044(5) 0.0018(6) 0.0044(5)
C14 0.0162(8) 0.0166(6) 0.0160(8) 0.0008(5) 0.0032(6) -0.0011(5)
C21 0.0201(8) 0.0185(6) 0.0184(8) 0.0019(5) 0.0008(6) 0.0005(5)
C22 0.0232(9) 0.0172(6) 0.0188(8) -0.0004(5) 0.0028(7) -0.0020(5)
C23 0.0175(8) 0.0193(6) 0.0176(8) -0.0027(5) 0.0013(6) -0.0063(5)
C24 0.0140(8) 0.0180(6) 0.0136(7) 0.0011(5) 0.0023(6) -0.0006(5)
N2 0.0176(7) 0.0212(6) 0.0154(7) 0.0029(4) 0.0009(5) 0.0000(4)
N11 0.0134(7) 0.0165(5) 0.0165(7) 0.0010(4) -0.0010(5) -0.0002(4)
N12 0.0140(7) 0.0190(5) 0.0174(7) 0.0004(4) -0.0015(5) -0.0010(4)
N13 0.0167(7) 0.0150(5) 0.0245(7) 0.0003(4) -0.0059(5) -0.0031(4)
N14 0.0160(7) 0.0194(6) 0.0213(7) -0.0001(4) -0.0023(5) -0.0013(4)
N21 0.0162(7) 0.0159(6) 0.0183(7) -0.0003(4) 0.0011(5) -0.0018(4)
N22 0.0139(7) 0.0194(5) 0.0180(7) 0.0008(4) -0.0024(5) -0.0006(4)
N23 0.0165(7) 0.0145(5) 0.0243(7) 0.0009(4) -0.0058(5) -0.0012(4)
N24 0.0164(7) 0.0177(6) 0.0220(7) -0.0002(4) -0.0026(5) -0.0003(4)
O21 0.0131(5) 0.0201(5) 0.0255(6) 0.0016(4) -0.0028(4) 0.0014(4)
O22 0.0175(6) 0.0262(5) 0.0242(6) -0.0041(4) -0.0004(5) -0.0067(4)
O23 0.0232(7) 0.0213(5) 0.0398(7) 0.0039(4) -0.0046(5) 0.0066(4)
N1 0.0170(7) 0.0187(5) 0.0158(6) -0.0010(4) -0.0007(5) -0.0021(4)
O11 0.0174(6) 0.0199(5) 0.0251(6) 0.0033(4) -0.0006(5) 0.0019(4)
O12 0.0123(6) 0.0210(5) 0.0281(6) -0.0017(4) -0.0007(4) -0.0027(4)
O13 0.0245(7) 0.0176(5) 0.0499(8) 0.0051(4) -0.0113(6) -0.0067(4)
loop_
_atom_type_symbol
_atom_type_description
_atom_type_scat_dispersion_real
_atom_type_scat_dispersion_imag
_atom_type_scat_source
C C 0.0033 0.0016 'International Tables Vol C Tables 4.2.6.8 and 6.1.1.4'
H H 0.0000 0.0000 'International Tables Vol C Tables 4.2.6.8 and 6.1.1.4'
N N 0.0061 0.0033 'International Tables Vol C Tables 4.2.6.8 and 6.1.1.4'
O O 0.0106 0.0060 'International Tables Vol C Tables 4.2.6.8 and 6.1.1.4'
loop_
_exptl_crystal_face_index_h
_exptl_crystal_face_index_k
_exptl_crystal_face_index_l
_exptl_crystal_face_perp_dist
6 -5 5 0.1323
1 11 12 0.2225
2 6 -17 0.1432
3 -3 -18 0.1479
-1 -12 10 0.1473
2 -10 12 0.1564
5 -1 -16 0.1042
-6 9 4 0.1756
-6 7 1 0.1666
-4 -11 -3 0.2253
7 0 -2 0.0988
-6 -4 12 0.2597
1 -13 7 0.1488
6 1 -12 0.1113
1 12 -9 0.1863
5 -7 6 0.1414
-3 6 17 0.2370
-1 14 5 0.2315
3 -6 -17 0.1654
6 1 6 0.1318
6 -5 4 0.1301
-5 0 17 0.2443
-1 9 15 0.2332
-6 2 -9 0.2695
1 -9 -16 0.1979
loop_
_geom_angle_atom_site_label_1
_geom_angle_atom_site_label_2
_geom_angle_atom_site_label_3
_geom_angle
_geom_angle_site_symmetry_1
_geom_angle_site_symmetry_3
_geom_angle_publ_flag
N12 C11 C12 112.61(13) . . ?
C13 C12 C11 105.67(11) . . ?
C12 C13 N11 105.75(14) . . ?
N13 C14 N11 117.36(15) . . ?
N14 C14 N11 120.54(12) . . ?
N14 C14 N13 122.08(12) . . ?
N22 C21 C22 112.78(12) . . ?
C23 C22 C21 105.30(12) . . ?
C22 C23 N21 105.89(14) . . ?
N23 C24 N21 117.23(14) . . ?
N24 C24 N21 119.79(12) . . ?
N24 C24 N23 122.97(12) . . ?
O22 N2 O21 120.26(11) . . ?
O23 N2 O21 119.82(12) . . ?
O23 N2 O22 119.92(13) . . ?
C13 N11 C14 128.35(15) . . ?
N12 N11 C13 112.16(11) . . ?
N12 N11 C14 119.33(11) . . ?
C11 N12 N11 103.81(10) . . ?
C23 N21 C24 128.13(15) . . ?
N22 N21 C23 112.12(11) . . ?
N22 N21 C24 119.70(11) . . ?
C21 N22 N21 103.91(10) . . ?
O12 N1 O11 119.68(11) . . ?
O13 N1 O11 119.87(13) . . ?
O13 N1 O12 120.46(11) . . ?
loop_
_geom_bond_atom_site_label_1
_geom_bond_atom_site_label_2
_geom_bond_distance
_geom_bond_site_symmetry_2
_geom_bond_publ_flag
C11 C12 1.405(2) . ?
C11 N12 1.3211(16) . ?
C12 C13 1.362(2) . ?
C13 N11 1.3828(17) . ?
C14 N11 1.3889(17) . ?
C14 N13 1.3118(18) . ?
C14 N14 1.2988(18) . ?
C21 C22 1.409(2) . ?
C21 N22 1.3159(16) . ?
C22 C23 1.365(2) . ?
C23 N21 1.3803(17) . ?
C24 N21 1.3953(17) . ?
C24 N23 1.3161(18) . ?
C24 N24 1.2951(18) . ?
N2 O21 1.2587(16) . ?
N2 O22 1.2576(16) . ?
N2 O23 1.2412(13) . ?
N11 N12 1.3683(17) . ?
N21 N22 1.3696(17) . ?
N1 O11 1.2693(15) . ?
N1 O12 1.2586(16) . ?
N1 O13 1.2294(14) . ?
loop_
_geom_hbond_atom_site_label_D
_geom_hbond_atom_site_label_H
_geom_hbond_atom_site_label_A
_geom_hbond_distance_DH
_geom_hbond_distance_HA
_geom_hbond_distance_DA
_geom_hbond_angle_DHA
_geom_hbond_site_symmetry_A
_geom_hbond_publ_flag
N13 H13A O12 0.86 1.91 2.7628(14) 172.3 . yes
N13 H13B N12 0.86 2.23 2.9607(17) 143.4 2_465 yes
N14 H14A O11 0.86 2.06 2.9188(15) 172.3 . yes
N14 H14B O22 0.86 2.71 3.5663(15) 177.4 . yes
N14 H14B O23 0.86 2.19 2.7864(16) 126.4 . yes
N23 H23A O21 0.86 1.93 2.7834(13) 174.4 . yes
N23 H23B N22 0.86 2.21 2.9493(18) 143.8 2_856 yes
N24 H24A O22 0.86 2.07 2.9191(13) 168.1 . yes
N24 H24B O11 0.86 2.19 3.0253(15) 163.6 1_545 yes
loop_
_twin_individual_id
_twin_individual_mass_fraction_refined
_oxdiff_twin_reflns_isolated
_oxdiff_twin_reflns_overlapped
_twin_individual_twin_lattice_type
_twin_individual_twin_matrix_11
_twin_individual_twin_matrix_12
_twin_individual_twin_matrix_13
_twin_individual_twin_matrix_21
_twin_individual_twin_matrix_22
_twin_individual_twin_matrix_23
_twin_individual_twin_matrix_31
_twin_individual_twin_matrix_32
_twin_individual_twin_matrix_33
1 0.5915 4722 3088 ref 1.0000 0.0000 0.0000 0.0000 1.0000 0.0000 0.0000 0.0000
1.0000
2 0.4085 4703 3088 nmt -1.0000 -0.0426 0.0001 0.0004 1.0002 -0.0001 -0.0003
0.0591 -1.0004
loop_
_exptl_oxdiff_crystal_face_indexfrac_h
_exptl_oxdiff_crystal_face_indexfrac_k
_exptl_oxdiff_crystal_face_indexfrac_l
_exptl_oxdiff_crystal_face_x
_exptl_oxdiff_crystal_face_y
_exptl_oxdiff_crystal_face_z
6.0008 -4.9938 4.9996 0.1716 0.5167 0.8110
0.9986 10.9996 11.9974 0.6046 0.6985 -0.4076
2.0030 6.0001 -16.9992 0.6306 -0.7702 0.0595
3.0034 -2.9976 -17.9981 0.2163 -0.8030 0.5373
-1.0018 -11.9985 10.0005 -0.8306 0.4360 0.3288
1.9987 -9.9962 11.9999 -0.4891 0.6818 0.5537
5.0036 -0.9961 -15.9987 0.4761 -0.6027 0.6564
-6.0021 8.9935 3.9990 -0.0173 -0.0396 -1.0229
-6.0017 6.9937 0.9995 -0.1060 -0.2006 -0.9251
-4.0007 -11.0018 -2.9981 -0.9192 -0.3697 0.0414
7.0022 0.0060 -2.0004 0.5872 0.2151 0.7511
-6.0034 -4.0041 11.9998 -0.8067 0.3355 -0.5368
0.9991 -12.9968 7.0008 -0.7000 0.3689 0.5973
6.0033 1.0046 -11.9994 0.6388 -0.3444 0.6590
1.0017 11.9986 -9.0007 0.8229 -0.3843 -0.3342
5.0004 -6.9943 5.9999 -0.0298 0.5170 0.7813
-3.0032 5.9971 16.9978 -0.0406 0.7602 -0.6540
-1.0009 13.9971 4.9979 0.6632 0.2545 -0.7032
3.0032 -5.9971 -16.9978 0.0406 -0.7602 0.6540
6.0007 1.0053 5.9988 0.4996 0.5862 0.5612
6.0010 -4.9938 3.9997 0.1793 0.4650 0.8164
-5.0038 -0.0037 16.9987 -0.5398 0.6514 -0.6211
-1.0023 8.9983 14.9975 0.3061 0.7567 -0.5539
-6.0003 1.9941 -8.9989 -0.3085 -0.7324 -0.6671
1.0025 -8.9983 -15.9974 -0.2983 -0.8084 0.5593

_cod_database_fobs_code 2108923
