#------------------------------------------------------------------------------
#$Date: 2022-01-01 06:19:30 +0200 (Sat, 01 Jan 2022) $
#$Revision: 271667 $
#$URL: file:///home/coder/svn-repositories/cod/cif/2/10/89/2108913.cif $
#------------------------------------------------------------------------------
#
# This file is available in the Crystallography Open Database (COD),
# http://www.crystallography.net/. The original data for this entry
# were provided by IUCr Journals, http://journals.iucr.org/.
#
# The file may be used within the scientific community so long as
# proper attribution is given to the journal article from which the
# data were obtained.
#
data_2108913
loop_
_publ_author_name
'Rejnhardt, Piotr'
'Drozd, Marek'
'Daszkiewicz, Marek'
_publ_section_title
;
 Low-temperature phase transition and high-pressure phase stability of
 1<i>H</i>-pyrazole-1-carboxamidine nitrate
;
_journal_issue                   6
_journal_name_full               'Acta Crystallographica Section B'
_journal_page_first              996
_journal_page_last               1002
_journal_paper_doi               10.1107/S2052520621010970
_journal_volume                  77
_journal_year                    2021
_chemical_formula_moiety         'C4 H7 N4, N O3'
_chemical_formula_sum            'C4 H7 N5 O3'
_chemical_formula_weight         173.15
_space_group_crystal_system      monoclinic
_space_group_IT_number           14
_space_group_name_Hall           '-P 2ybc'
_space_group_name_H-M_alt        'P 1 21/c 1'
_atom_sites_solution_hydrogens   geom
_atom_sites_solution_primary     direct
_audit_creation_date             2021-05-04
_audit_creation_method
;
Olex2 1.2
(compiled 2018.05.29 svn.r3508 for OlexSys, GUI svn.r5506)
;
_cell_angle_alpha                90
_cell_angle_beta                 98.86(3)
_cell_angle_gamma                90
_cell_formula_units_Z            4
_cell_length_a                   5.0897(19)
_cell_length_b                   10.213(11)
_cell_length_c                   13.789(5)
_cell_measurement_reflns_used    424
_cell_measurement_temperature    293(2)
_cell_measurement_theta_max      20.0470
_cell_measurement_theta_min      3.5520
_cell_volume                     708.2(8)
_computing_cell_refinement       'CrysAlisPro 1.171.39.46 (Rigaku OD, 2018)'
_computing_data_collection       'CrysAlisPro 1.171.39.46 (Rigaku OD, 2018)'
_computing_data_reduction        'CrysAlisPro 1.171.39.46 (Rigaku OD, 2018)'
_computing_molecular_graphics    'Olex2 (Dolomanov et al., 2009)'
_computing_publication_material  'Olex2 (Dolomanov et al., 2009)'
_computing_structure_refinement  'ShelXL (Sheldrick, 2015)'
_computing_structure_solution    'ShelXS (Sheldrick, 2008)'
_diffrn_ambient_temperature      293(2)
_diffrn_detector                 'CCD plate'
_diffrn_detector_area_resol_mean 8.2214
_diffrn_detector_type            'Sapphire2, large Be window'
_diffrn_measured_fraction_theta_full 0.414
_diffrn_measured_fraction_theta_max 0.414
_diffrn_measurement_details
;
List of Runs (angles in degrees, time in seconds):

  # Type    Start    End  Width  t~exp~   \w     \q     \k     \f   Frames
--------------------------------------------------------------------------
  1  \w    -20.00  32.00   0.50   40.00    --   25.00   0.00   0.00  104
  2  \w    -20.00  36.00   0.50   40.00    --   25.00   0.00 180.00  112
  3  \w     -3.00  47.00   0.50   40.00    --   25.00 -40.00-170.00  100
  4  \w     -3.00  47.00   0.50   40.00    --   25.00 -40.00  10.00  100
  5  \w      8.00  65.00   0.50   40.00    --   25.00 -82.00  30.00  114
  6  \w      8.00  65.00   0.50   40.00    --   25.00 -82.00-150.00  114
  7  \w     32.50  89.00   0.50   40.00    --   25.00-135.00-122.00  113
  8  \w     32.00  89.00   0.50   40.00    --   25.00-135.00  58.00  114
  9  \w     25.00  47.00   0.50   40.00    --  -25.00-135.00  58.00   44
 10  \w     25.00  47.00   0.50   40.00    --  -25.00-135.00-122.00   44
 11  \w      0.00  23.00   0.50   40.00    --  -25.00 -82.00-150.00   46
 12  \w      0.00  23.00   0.50   40.00    --  -25.00 -82.00  30.00   46
 13  \w    -19.00  17.00   0.50   40.00    --  -25.00 -40.00  10.00   72
 14  \w    -19.00  17.00   0.50   40.00    --  -25.00 -40.00-170.00   72
 15  \w    -33.00  22.00   0.50   40.00    --  -25.00   0.00 180.00  110
 16  \w    -33.00  22.00   0.50   40.00    --  -25.00   0.00   0.00  110
;
_diffrn_measurement_device       'four-circle diffractometer'
_diffrn_measurement_device_type  'Xcalibur, Sapphire2, large Be window'
_diffrn_measurement_method       '\w scans'
_diffrn_orient_matrix_type
'CrysAlisPro convention (1999,Acta A55,543-557)'
_diffrn_orient_matrix_UB_11      -0.0626009000
_diffrn_orient_matrix_UB_12      -0.0609471000
_diffrn_orient_matrix_UB_13      0.0049242000
_diffrn_orient_matrix_UB_21      -0.0006510000
_diffrn_orient_matrix_UB_22      -0.0127650000
_diffrn_orient_matrix_UB_23      -0.0506539000
_diffrn_orient_matrix_UB_31      0.1264911000
_diffrn_orient_matrix_UB_32      -0.0305580000
_diffrn_orient_matrix_UB_33      0.0110681000
_diffrn_radiation_monochromator  graphite
_diffrn_radiation_probe          x-ray
_diffrn_radiation_type           MoK\a
_diffrn_radiation_wavelength     0.71073
_diffrn_reflns_av_R_equivalents  0.0641
_diffrn_reflns_av_unetI/netI     0.0324
_diffrn_reflns_Laue_measured_fraction_full 0.414
_diffrn_reflns_Laue_measured_fraction_max 0.414
_diffrn_reflns_limit_h_max       5
_diffrn_reflns_limit_h_min       -5
_diffrn_reflns_limit_k_max       6
_diffrn_reflns_limit_k_min       -6
_diffrn_reflns_limit_l_max       16
_diffrn_reflns_limit_l_min       -16
_diffrn_reflns_number            3763
_diffrn_reflns_point_group_measured_fraction_full 0.414
_diffrn_reflns_point_group_measured_fraction_max 0.414
_diffrn_reflns_theta_full        25.029
_diffrn_reflns_theta_max         25.029
_diffrn_reflns_theta_min         2.990
_diffrn_source                   'fine-focus sealed X-ray tube'
_diffrn_source_type              'Enhance (Mo) X-ray Source'
_exptl_absorpt_coefficient_mu    0.139
_exptl_absorpt_correction_T_max  1.00000
_exptl_absorpt_correction_T_min  0.22572
_exptl_absorpt_correction_type   multi-scan
_exptl_absorpt_process_details
;
CrysAlisPro 1.171.39.46 (Rigaku Oxford Diffraction, 2018)
Empirical absorption correction using spherical harmonics,
 implemented in SCALE3 ABSPACK scaling algorithm.
;
_exptl_crystal_colour            colourless
_exptl_crystal_density_diffrn    1.624
_exptl_crystal_description       prism
_exptl_crystal_F_000             360
_refine_diff_density_max         0.178
_refine_diff_density_min         -0.204
_refine_diff_density_rms         0.056
_refine_ls_extinction_method     none
_refine_ls_goodness_of_fit_ref   1.052
_refine_ls_hydrogen_treatment    constr
_refine_ls_matrix_type           full
_refine_ls_number_parameters     109
_refine_ls_number_reflns         516
_refine_ls_number_restraints     0
_refine_ls_restrained_S_all      1.052
_refine_ls_R_factor_all          0.1206
_refine_ls_R_factor_gt           0.0671
_refine_ls_shift/su_max          0.000
_refine_ls_shift/su_mean         0.000
_refine_ls_structure_factor_coef Fsqd
_refine_ls_weighting_details
'w=1/[\s^2^(Fo^2^)+(0.1251P)^2^+0.5955P] where P=(Fo^2^+2Fc^2^)/3'
_refine_ls_weighting_scheme      calc
_refine_ls_wR_factor_gt          0.1789
_refine_ls_wR_factor_ref         0.2277
_reflns_Friedel_coverage         0.000
_reflns_number_gt                284
_reflns_number_total             516
_reflns_threshold_expression     'I > 2\s(I)'
_cod_data_source_file            xk5086sup1.cif
_cod_data_source_block           0.39GPa
_cod_database_code               2108913
_shelx_shelxl_version_number     2018/3
_chemical_oxdiff_formula         C4N4NO3H7
_shelx_space_group_comment
;
The symmetry employed for this shelxl refinement is uniquely defined
by the following loop, which should always be used as a source of
symmetry information in preference to the above space-group names.
They are only intended as comments.
;
_reflns_odcompleteness_completeness 41.11
_reflns_odcompleteness_iscentric 1
_reflns_odcompleteness_theta     24.97
_olex2_refinement_description
;
1. Fixed Uiso
 At 1.2 times of:
  All C(H) groups, All N(H,H) groups
2.a Aromatic/amide H refined with riding coordinates:
 C1(H1), C2(H2), C3(H3)
2.b X=CH2 refined with riding coordinates:
 N3(H3A,H3B), N4(H4A,H4B)
;
_shelx_res_file
;
TITL monoclinic in P21/c #14
    monoclinic.res
    created by SHELXL-2018/3 at 16:37:22 on 04-May-2021
REM reset to P21/c #14
CELL 0.71073 5.089655 10.2131 13.789463 90 98.8582 90
ZERR 4 0.001896 0.010845 0.004881 0 0.0308 0
LATT 1
SYMM -X,0.5+Y,0.5-Z
SFAC C H N O
UNIT 16 28 20 12

L.S. 99
PLAN  20
BOND
htab
fmap 2 53
acta
OMIT 2 4 4
OMIT 3 4 5
OMIT -1 3 9
OMIT -2 2 12
REM <olex2.extras>
REM <HklSrc "%.\\monoclinic.hkl">
REM </olex2.extras>

WGHT    0.125100    0.595500
FVAR       2.03022
C1    1    0.107000    0.786022    0.539982    11.00000    0.05378    0.11587 =
         0.08533   -0.02280   -0.00331    0.02565
AFIX  43
H1    2   -0.046830    0.824594    0.507050    11.00000   -1.20000
AFIX   0
C2    1    0.326096    0.859769    0.586979    11.00000    0.07280    0.03137 =
         0.07990   -0.00729   -0.01302   -0.00918
AFIX  43
H2    2    0.347978    0.950188    0.588426    11.00000   -1.20000
AFIX   0
C3    1    0.493032    0.768352    0.628557    11.00000    0.04606    0.07376 =
         0.06964   -0.00369   -0.00768   -0.00313
AFIX  43
H3    2    0.657274    0.783750    0.666714    11.00000   -1.20000
AFIX   0
C4    1    0.475328    0.519332    0.629745    11.00000    0.02678    0.09699 =
         0.06515    0.01109    0.00175    0.00822
N1    3    0.381107    0.646326    0.605467    11.00000    0.03970    0.06573 =
         0.06910   -0.01470   -0.00502   -0.01322
N2    3    0.138215    0.663702    0.546583    11.00000    0.02719    0.12075 =
         0.08293   -0.01592   -0.01025    0.00704
N3    3    0.335641    0.424119    0.591326    11.00000    0.05266    0.08521 =
         0.09082   -0.00239   -0.02742    0.00296
AFIX  93
H3A   2    0.392617    0.345174    0.600808    11.00000   -1.20000
H3B   2    0.184156    0.438647    0.555852    11.00000   -1.20000
AFIX   0
N4    3    0.706154    0.508756    0.684407    11.00000    0.05900    0.05581 =
         0.08619   -0.01674   -0.01794    0.00303
AFIX  93
H4A   2    0.775709    0.432730    0.697051    11.00000   -1.20000
H4B   2    0.789422    0.577779    0.707953    11.00000   -1.20000
AFIX   0
N5    3    0.245774    0.648301    0.826771    11.00000    0.04455    0.08686 =
         0.07456   -0.01033   -0.00262   -0.00146
O1    4    0.483737    0.673554    0.857543    11.00000    0.03354    0.09824 =
         0.10146   -0.00897   -0.01225   -0.00591
O2    4    0.166090    0.532730    0.824045    11.00000    0.06520    0.10305 =
         0.13319   -0.01082   -0.01836   -0.01187
O3    4    0.086761    0.736402    0.793970    11.00000    0.04280    0.11677 =
         0.09195    0.01222   -0.00721    0.01023
HKLF 4




REM  monoclinic in P21/c #14
REM wR2 = 0.2277, GooF = S = 1.052, Restrained GooF = 1.052 for all data
REM R1 = 0.0671 for 284 Fo > 4sig(Fo) and 0.1206 for all 516 data
REM 109 parameters refined using 0 restraints

END

WGHT      0.1232      0.6030

REM Instructions for potential hydrogen bonds
EQIV $1 -x+1, y+1/2, -z+3/2
HTAB C2 O1_$1
EQIV $2 x+1, y, z
HTAB C3 O3_$2
EQIV $3 -x+1, y-1/2, -z+3/2
HTAB N3 O1_$3
EQIV $4 -x, -y+1, -z+1
HTAB N3 N2_$4
HTAB N4 O3_$3
HTAB N4 O2_$2
HTAB N4 O3_$2

REM Highest difference peak  0.178,  deepest hole -0.204,  1-sigma level  0.056
Q1    1   0.2438  0.5873  0.7414  11.00000  0.05    0.18
Q2    1  -0.0777  0.7759  0.7407  11.00000  0.05    0.17
Q3    1   0.2695  0.5245  0.7239  11.00000  0.05    0.17
Q4    1   0.0216  0.8418  0.4422  11.00000  0.05    0.16
Q5    1   0.8750  0.5091  0.7180  11.00000  0.05    0.16
Q6    1   0.4271  0.5333  0.5136  11.00000  0.05    0.16
Q7    1   0.0913  0.7398  0.7667  11.00000  0.05    0.15
Q8    1  -0.0246  0.8345  0.7560  11.00000  0.05    0.14
Q9    1   0.1500  0.9526  0.4641  11.00000  0.05    0.14
Q10   1   0.0357  0.6109  0.5053  11.00000  0.05    0.14
Q11   1   0.7630  0.8927  0.7230  11.00000  0.05    0.14
Q12   1   0.2999  0.6521  0.5209  11.00000  0.05    0.14
Q13   1   0.7430  0.3581  0.6020  11.00000  0.05    0.13
Q14   1   0.2621  1.0165  0.5338  11.00000  0.05    0.13
Q15   1   0.6813  0.6252  0.8888  11.00000  0.05    0.13
Q16   1   0.0180  0.7725  0.5422  11.00000  0.05    0.13
Q17   1   0.1216  0.5131  0.7595  11.00000  0.05    0.12
Q18   1   0.7992  0.6216  0.7475  11.00000  0.05    0.12
Q19   1   0.1593  0.7344  0.4324  11.00000  0.05    0.12
Q20   1   0.1637  0.4974  0.5004  11.00000  0.05    0.12
;
_shelx_res_checksum              10894
_shelx_hkl_file
;
   0   0  -2 1046.23 48.9896   1
   0   0   2 980.140 47.5341   3
   0   0  -2 1020.61 40.2437   6
   0   0  -2 950.760 42.9279  15
   0   0   2 992.499 48.3208   2
   0   0   2 1010.92 47.5323  16
   0   0   2 969.210 38.9865   6
   0   0  -3 4.80129 5.35911  15
   0   0   3 4.45018 4.97209  16
   0   0   3 3.84472 7.13412   2
   0   0   3 11.2292 9.43526   3
   0   0  -3-7.13116 8.15591   1
   0   0   3-1.31625 3.76569   6
   0   0  -3 1.30286 5.41093   4
   0   0  -4 20637.0 319.054   1
   0   0   4 21169.9 263.219   6
   0   0  -4 21009.6 288.363  15
   0   0  -4 21353.9 286.245   4
   0   0   4 21043.1 266.964  13
   0   0   4 20943.2 306.238  16
   0   0   4 21298.9 315.363   3
   0   0   4 21504.0 318.492   2
   0   0  -4 21183.1 320.968  14
   0   0   5 19.5858 11.9777   6
   0   0  -5 11.3383 11.0405  15
   0   0   5 0.19807 8.43516   2
   0   0   5 13.3630 10.2583  16
   0   0  -5 16.9443 15.3749  14
   0   0  -5-5.39822 11.4773   4
   0   0   5-5.75926 7.63669  13
   0   0   5 1.38963 7.01704   3
   0   0   5 14.1477 5.79184  12
   0   0  -5-5.72171 12.6094   1
   0   0   6 829.649 81.0235   3
   0   0   6 864.645 77.5848  16
   0   0  -6 907.044 66.2588  11
   0   0  -6 873.650 81.9701  14
   0   0  -6 883.316 74.6136  15
   0   0  -6 783.720 78.3307   1
   0   0   6 849.817 67.1449  13
   0   0  -6 829.863 73.6065   4
   0   0   6 900.299 33.8334   8
   0   0   6 952.662 72.4774   6
   0   0   6 800.416 43.7028  12
   0   0   6 849.588 79.1563   2
   0   0  -7-27.4977 21.4457  15
   0   0   7-28.7449 20.5189  16
   0   0  -7 3.28124 12.6599  14
   0   0   7-3.03655 14.1560   6
   0   0  -7-24.6075 17.5421  11
   0   0   7 3.35845 11.5794   2
   0   0   7-37.1350 21.5203  13
   0   0  -7-33.8650 27.8198   1
   0   0   7-15.9864 17.4026   3
   0   0  -7-34.9082 23.8293   4
   0   0   7-26.4663 12.8388  12
   0   0  -8 749.633 87.8416  14
   0   0   8 763.636 74.7503  13
   0   0   8 726.367 83.2017   2
   0   0   8 880.529 84.5979   6
   0   0  -8 777.610 81.6035  15
   0   0   8 783.470 86.1692  16
   0   0   8 748.203 87.9056   3
   0   0  -8 863.352 78.6855  11
   0   0  -8 707.212 88.6125   1
   0   0   9 9.95105 21.5603   3
   0   0  -9-33.6868 27.5684   1
   0   0   9 3.02167 15.7195  16
   0   0   9-10.7120 17.4971  13
   0   0   9-26.7973 22.5143   2
   0   0  -9 3.21919 21.1085  11
   0   0  -9-4.83396 24.0901   4
   0   0  -9-27.4522 20.5724  15
   0   0   9-19.2473 23.0396   6
   0   0  -9 21.9185 19.7881  14
   0   0  10 124.936 37.1283  13
   0   0 -10 181.209 47.0285  11
   0   0 -10 124.178 42.8319  14
   0   0 -10 96.2933 35.6636  15
   0   0  10 100.958 42.1877   3
   0   0  10 150.731 48.2533   2
   0   0  10 132.582 45.3930   6
   0   0 -10 82.1547 41.9325   1
   0   0 -10 33.8618 45.6829   4
   0   0  10 86.8192 36.8558  16
   0   0 -11-28.7465 37.9987   1
   0   0  11 4.84025 31.2365   3
   0   0  11-9.59583 21.1302   6
   0   0 -11 59.2973 36.1335  15
   0   0 -11-14.8776 20.8395  14
   0   0  11 15.6823 18.0875   2
   0   0  11 73.3850 39.0641  16
   0   0 -11 3.64006 24.5304  11
   0   0  11-3.39361 20.7633  13
   0   0  12 170.107 62.1855   3
   0   0  12 34.5896 56.7892   2
   0   0 -12 62.9937 43.8684   1
   0   0 -12 116.520 45.7688  14
   0   0  12 36.7704 67.9517  13
   0   0  12 102.134 45.7087  16
   0   0 -12 14.1929 47.0288  15
   0   0 -12 85.3108 89.6273  11
   0   0  13-7.92854 50.9658  13
   0   0 -13 9.03315 30.5442  14
   0   0 -13-42.2969 42.4728   1
   0   0  13-8.10630 41.0316   3
   0   0  13-26.7989 28.4877   2
   0   0  13-28.4218 33.7429  16
   0   0 -13 0.09927 35.0295  15
   0   0  14 69.7664 42.6049  16
   0   0 -14 81.9699 59.4446  14
   0   0  14 15.2703 50.3679   3
   0   0  14 15.6743 46.5653   2
   0   0 -14 34.3235 68.4744  15
   0   0 -14 17.0145 46.6160   1
   0   0  15 9.59769 33.0180   3
   0   0 -15-28.8279 64.3946   1
   0   0  15-54.2221 46.7207  16
   0   0 -15-19.3919 62.5712  14
   0   0 -15 3.50689 63.7524  15
   0   0  15-7.58604 47.9728   2
   0   0 -16-210.191 105.223  14
   0   0 -16-11.8160 104.948  15
   0   0 -16 95.9114 88.4489   1
   0   0  16 27.8156 60.4290   2
   0   0  16 17.9164 41.6408  16
   0   1   2 226.348 26.7062  16
   0  -1  -2 225.584 25.5382  15
   0   1   2 242.420 27.9521  13
   0   1   3 337.545 38.2044   2
   0  -1  -3 328.717 37.0039   4
   0  -1  -3 328.396 38.2244   1
   0   1   3 338.420 37.7866  16
   0  -1  -3 376.534 38.6453  15
   0   1   3 340.525 36.6140   3
   0   1   3 345.221 35.9013  13
   0  -1  -3 330.542 36.2034  14
   0  -1  -4 22595.4 264.083   5
   0  -1  -4 23501.0 330.706  15
   0  -1   4 22999.2 361.851  16
   0   1   4 23185.5 340.977   3
   0   1   4 23388.9 265.373   6
   0   1   4 23617.7 345.016  16
   0  -1  -4 22973.8 331.343   4
   0  -1  -4 23595.9 341.502   1
   0   1   4 23259.0 352.642   2
   0  -1   4 23590.2 371.641   3
   0   1  -4 23249.8 331.075  15
   0   1  -4 23431.1 403.899   1
   0  -1  -4 23433.9 337.940  14
   0  -1   4 23399.0 436.012   2
   0   1   4 23576.1 320.724  13
   0   1  -5 1904.11 103.465  15
   0  -1  -5 1813.98 108.861   1
   0  -1   5 2319.24 135.391   2
   0   1  -5 1991.90 124.904   1
   0  -1  -5 1987.12 106.912  15
   0   1   5 2037.40 116.311   2
   0  -1  -5 1765.93 72.2268   5
   0   1   5 1957.68 110.578  16
   0   1   5 1970.42 101.078  13
   0   1   5 1920.55 85.6208   6
   0   1   5 1882.51 108.554   3
   0  -1   5 1993.92 113.039  16
   0  -1  -5 2005.08 111.401  14
   0  -1   5 1960.98 116.972   3
   0  -1  -5 1841.36 102.924   4
   0   1  -6 123.080 37.7499   1
   0   1   6 166.276 37.7089   2
   0   1   6 150.226 34.5959  16
   0  -1   6 103.995 21.0217   8
   0  -1  -6 133.357 29.6508  15
   0  -1  -6 132.976 33.8001   1
   0   1  -6 122.095 29.4474  15
   0   1   6 152.691 31.3211  13
   0  -1   6 149.107 37.1853   3
   0  -1   6 191.710 43.2060   2
   0   1   6 161.187 28.1992   6
   0  -1  -6 132.738 29.7294   4
   0  -1  -6 148.968 34.0430  14
   0  -1   6 144.336 34.1681  16
   0  -1  -6 207.505 32.3214  11
   0   1   6 144.892 36.1823   3
   0  -1  -6 141.856 21.7091   5
   0  -1   7 285.038 55.9159   2
   0  -1  -7 349.952 56.8425  14
   0  -1   7 258.621 48.2046  16
   0   1  -7 276.696 47.4946  15
   0   1   7 274.381 46.9811  13
   0  -1  -7 279.476 40.7290  11
   0   1   7 286.696 52.0074   3
   0   1  -7 237.147 49.2021   1
   0  -1   7 343.019 34.5265   8
   0   1   7 280.040 50.8260  16
   0  -1  -7 255.926 45.7186   4
   0  -1   7 295.574 57.6305   3
   0  -1  -7 297.160 49.0979  15
   0   1   7 268.287 40.7036   6
   0  -1  -7 231.282 45.5062   1
   0   1   7 263.333 50.2599   2
   0  -1  -7 250.727 30.6422   5
   0   1  -8 26.2282 22.1688  15
   0   1   8 7.99168 13.6626  13
   0  -1   8 51.4013 24.7427  16
   0   1   8 24.9970 21.6194   3
   0  -1  -8 34.2859 21.0062  14
   0  -1  -8-0.38357 11.0478   5
   0  -1  -8-3.59944 17.6951   1
   0  -1  -8 6.41206 18.2452  11
   0  -1   8 15.8990 7.67351   8
   0  -1   8 37.5861 27.6071   2
   0   1   8 33.1593 23.5973   2
   0  -1  -8 9.76482 13.5799   4
   0   1   8-29.0844 20.2162   6
   0  -1  -8 16.6425 20.8078  15
   0   1   8 26.8329 22.5927  16
   0  -1   8 42.9144 26.7867   3
   0   1  -8-19.4920 24.4068   1
   0   1   9 412.439 68.1274  16
   0   1  -9 402.499 80.7627   1
   0  -1  -9 385.769 68.2476  14
   0   1   9 494.304 77.8664   3
   0   1  -9 416.419 69.5192  15
   0  -1   9 533.303 87.9971   2
   0   1   9 477.667 75.8904   2
   0  -1  -9 373.312 69.7062   1
   0  -1   9 447.863 81.5046   3
   0  -1   9 414.763 59.1301  13
   0   1  -9 322.021 67.3780  14
   0  -1  -9 420.447 67.0668  15
   0   1   9 531.417 65.4907   6
   0   1   9 457.563 67.1910  13
   0  -1  -9 262.996 64.7086   4
   0  -1   9 465.112 72.7700  16
   0   1 -10 381.583 73.5415  15
   0  -1  10 283.547 62.4200  16
   0   1 -10 230.163 63.1460  14
   0  -1  10 247.903 50.8467  13
   0  -1 -10 285.620 59.1296  15
   0   1 -10 225.785 64.3684   1
   0  -1  10 403.132 82.9881   2
   0   1  10 230.910 56.4559   2
   0  -1  10 346.501 79.2660   3
   0  -1 -10 260.620 59.5011  14
   0   1  10 382.305 62.2976   6
   0   1  10 336.927 72.9500   3
   0   1  10 312.559 61.8796  13
   0   1  10 316.907 62.8462  16
   0  -1  11 88.9546 51.1286   2
   0  -1  11-64.6117 38.5941  16
   0   1 -11 33.5475 36.4297  15
   0   1  11-54.3975 37.5922  13
   0   1  11-69.3294 39.1449  16
   0  -1 -11-42.5066 32.0542  15
   0  -1 -11 35.8689 26.5162  14
   0   1 -11 30.6187 39.9420   1
   0  -1 -11-16.1353 36.2840   4
   0   1 -11-16.4884 26.2482  11
   0   1  11 1.32158 19.6782   6
   0  -1  11-9.05130 19.8954  13
   0   1  11-12.3195 23.3640   2
   0   1  11-7.89036 30.1052   3
   0   1 -11-55.2885 41.3763  14
   0  -1  11 19.0332 30.4906   3
   0  -1 -11-0.17694 24.0703   1
   0  -1  12-20.7950 29.8664   3
   0   1  12 2.18081 28.0411  13
   0  -1  12 1.42380 32.1328  16
   0   1  12-9.87529 20.2116   2
   0  -1 -12-65.4378 48.5091  14
   0   1 -12-51.9806 51.3680   1
   0  -1 -12-0.08302 24.5361  15
   0  -1  12 2.27443 23.9940   2
   0   1 -12-41.0393 65.9842  11
   0   1  12-10.6775 22.2643  16
   0  -1  12-43.8815 31.6800  13
   0   1  12-7.79969 27.4966   3
   0   1 -12-23.0455 47.0843  15
   0  -1 -12 9.38136 36.1411   1
   0  -1 -12 24.1913 28.7650   4
   0   1 -12 29.7107 41.8293  14
   0   1  13 12.4556 56.4093   2
   0   1  13 63.6209 41.0509  16
   0  -1 -13 114.595 70.6367   1
   0   1  13 0.94913 26.5943  13
   0  -1  13-5.71830 60.1222   2
   0  -1 -13 76.8195 50.2009  14
   0  -1  13 52.9878 40.1310  13
   0   1 -13-30.7700 66.5851  15
   0   1 -13-11.1223 46.1571  14
   0  -1 -13 28.8495 48.5151  15
   0  -1 -13 68.3228 55.8212   4
   0   1  13 6.26817 64.0592   3
   0  -1  13-19.6101 31.3612  16
   0   1  14 0.24269 31.8037   3
   0   1  14 9.23220 36.7365  13
   0   1  14-17.3866 26.2934  16
   0   1  14 11.0353 45.3562   2
   0  -1 -14 21.9353 62.8887  15
   0  -1  14 66.0607 57.7916  16
   0   1 -14 56.0800 77.4053  15
   0   1 -14 77.2967 74.2679  14
   0  -1 -14 58.1760 51.7859  14
   0  -1 -14 32.8995 40.1086   1
   0   1  15 27.4075 28.4717   2
   0  -1 -15-8.56835 51.2503  15
   0   1  15-5.22120 35.0512  16
   0  -1 -15 7.88359 48.5329   1
   0   1  15-2.10626 35.8434   3
   0  -1 -16-11.9156 52.1988   1
   0   1  16 9.26213 55.1944   3
   0  -1 -16-46.7999 67.7951  14
   0   1  16 9.95190 43.5562  16
   0  -1 -16 14.2619 60.2815  15
   0   1  16 6.68458 65.7929   2
   0   2   4 549.518 60.2005   2
   0  -2  -5 3066.27 167.592  14
   0   2   5 3513.84 159.932   3
   0   2   5 3316.59 158.614   2
   0  -2  -5 3323.67 156.735   1
   0   2   5 3278.69 153.301  16
   0  -2  -5 3181.39 151.499   4
   0  -2  -5 3432.75 155.073  15
   0   2   5 3125.17 145.076  13
   0  -2  -6 164.098 43.6333  14
   0   2   6 95.0203 33.0249   2
   0   2   6 110.135 37.7089   3
   0  -2  -6 152.920 38.4139   5
   0  -2  -6 178.146 44.7822   4
   0   2   6 134.352 36.3168  16
   0  -2  -6 250.835 48.8930  15
   0   2   6 128.069 34.1833   6
   0  -2  -6 185.045 45.6831   1
   0   2   6 94.8841 32.0861  13
   0  -2  -7 1361.53 112.846   1
   0   2   7 1353.46 90.0081   6
   0   2   7 1236.51 102.252  13
   0   2   7 1254.70 111.350   2
   0  -2  -7 1173.81 82.4735   5
   0  -2  -7 1319.02 116.742  14
   0  -2  -7 1419.81 114.428  15
   0   2   7 1281.73 111.116   3
   0   2   7 1269.74 109.759  16
   0  -2  -8 163.189 43.7994  15
   0   2   8 96.7492 28.0173   6
   0   2   8 135.634 40.7012  16
   0  -2  -8 182.491 32.8907   5
   0   2   8 95.3510 32.5146  13
   0   2   8 117.180 38.6722   3
   0  -2  -8 131.148 41.4181  14
   0   2   8 94.8052 34.7628   2
   0  -2  -8 129.647 39.5216   1
   0  -2  -8 71.7404 37.1324   4
   0   2   9 212.603 55.7613   2
   0   2   9 241.515 55.7328  16
   0   2   9 239.848 52.4426  13
   0  -2  -9 236.840 40.2264   5
   0   2   9 310.839 48.5406   6
   0  -2  -9 226.686 58.2065   4
   0  -2  -9 212.024 59.1214   1
   0  -2  -9 369.505 70.2060  14
   0   2   9 304.443 62.9095   3
   0  -2  -9 361.307 69.0177  15
   0  -2 -10 84.7962 43.6933   4
   0   2  10 157.912 38.0129   6
   0   2  10 94.0567 42.1361   2
   0  -2 -10 110.385 41.5140  15
   0  -2 -10 105.321 46.1487  14
   0  -2 -10 105.004 48.4113   1
   0   2  10 113.152 43.4550  16
   0   2  10 76.9454 38.1536   3
   0   2  10 153.359 44.3356  13
   0   2  11-1.42688 20.2639  16
   0   2  11-69.0147 38.2028  13
   0  -2 -11-18.8769 32.0687  15
   0   2  11 48.7286 36.2075   2
   0  -2 -11-11.1474 31.1446   4
   0   2  11-39.8512 31.5147   3
   0  -2 -11-40.7412 42.2059   1
   0  -2 -11-5.31547 29.8939  14
   0  -2 -12 98.3445 75.4725  15
   0  -2 -12 190.230 64.9415  14
   0   2  12 27.2664 55.3708  13
   0  -2 -12 126.795 66.9646   1
   0   2  12 34.1504 68.5923   2
   0   2  12 1.68870 60.5357   3
   0   2  12 189.607 60.0807  16
   0  -2 -12 88.9824 60.9421   4
   0  -2 -13 1.38717 41.6815  15
   0   2  13 5.95465 32.6280  13
   0  -2 -13 70.7910 49.7103   1
   0   2  13 1.07014 43.0612   2
   0   2  13 1.87561 40.7080   3
   0   2  13-12.4302 33.4575  16
   0  -2 -13-66.7432 51.1618  14
   0  -2 -13 35.8431 65.7953   4
   0  -2 -14-68.6105 38.4656  14
   0  -2 -14-3.38640 55.0108  15
   0  -2 -14 25.1210 57.3881   4
   0   2  14-20.3737 48.3949   2
   0  -2 -14 22.6767 45.0594   1
   0   2  14-5.35630 35.7205  16
   0   2  14 4.67895 40.6034   3
   0   2  15 38.5431 43.6297  16
   0  -2 -15 38.3242 65.3149   1
   0   2  15-31.8937 41.1774   2
   0  -2 -15 120.617 71.8654  14
   0  -2 -15 7.27515 58.4734  15
   0   2  15-11.4969 31.6609   3
   0   2  16-19.3474 45.6013  16
   0  -2 -16 37.8339 55.5866   1
   0  -3  -8 344.672 68.1626   1
   0   3   8 413.295 70.9700   3
   0  -3  -8 251.758 62.6375   4
   0   3   8 398.862 71.4252   2
   0  -3  -9 22.3942 25.5598  15
   0   3   9 12.5823 21.7834   3
   0  -3  -9 44.2357 27.4750   1
   0  -3  -9-11.7076 25.0952   4
   0   3   9 27.4445 18.7805   6
   0  -3  -9 10.9675 16.4298   5
   0   3   9-65.3308 34.1894  16
   0   3   9 22.0389 24.7584   2
   0   3  10 42.9751 29.3133   3
   0   3  10 22.9666 22.7111   2
   0   3  10-7.81595 25.1971  16
   0  -3 -10-3.09255 25.2846  15
   0  -3 -10-18.8951 36.3666   1
   0   3  10 42.9918 25.6525   6
   0  -3 -10-1.37093 34.5533   4
   0  -3 -11 13.8349 33.9373  15
   0   3  11-34.4849 33.2246  16
   0   3  11-48.7348 32.4489   2
   0  -3 -11 41.8975 47.2115   1
   0  -3 -11 29.0409 40.9637   4
   0   3  11-0.50930 27.9243   3
   0  -3 -12-9.40798 59.2611  15
   0   3  12 12.0027 26.0422   3
   0  -3 -12 53.7742 62.9300   4
   0   3  12 79.0246 45.7399  16
   0   3  12 9.70281 29.9781   2
   0  -3 -12-53.5257 43.5571   1
   0   3  13-21.0489 31.8690  16
   0  -3 -13 55.6173 58.7333   1
   0  -3 -13-1.98761 32.5207  15
   0   3  13 13.4742 38.0963   3
   0   3  13 6.36993 37.2146   2
   0  -3 -13-47.2365 63.0055   4
   0  -3 -14 17.1794 45.1249   1
   0   3  14 2.35571 26.2969   3
   0   3  14-5.96385 44.7765   2
   0  -3 -15-60.6157 62.1685   1
   0   3  15-20.5532 29.1894   2
  -1   0  14 20.1978 56.0318   2
   1   0 -14-14.0046 56.5092  15
  -1   0  14-89.8172 78.2871  16
   1   0 -13-7.01249 54.1629  14
   1   0 -13 5.60965 52.3683  15
  -1   0  13-104.301 58.4784  16
  -1   0  13 2.14272 53.6473  13
  -1   0  13 11.8176 80.1402   2
   1   0 -13 58.0488 52.6027   1
  -1   0  12 3.25082 40.0606   2
   1   0 -12-4.10725 35.0693  14
  -1   0  12 112.887 60.2875  16
   1   0 -12-5.76228 37.9308   1
   1   0 -12 34.8224 60.2021  15
  -1   0  12 10.3960 77.0062  13
   1   0 -11 9.01369 26.7810  14
   1   0 -11-83.6266 61.8189   1
  -1   0  11 6.64810 30.7082  13
  -1   0  11 2.46172 36.3990  16
  -1   0  11-17.3720 16.5909  12
   1   0 -11 62.9479 47.7704  15
  -1   0  11-47.3967 42.9468   2
  -1   0  10 338.209 77.5369  16
  -1   0  10 167.602 52.0388  13
   1   0 -10 164.545 54.7866  14
  -1   0  10 226.649 62.0368   2
   1   0 -10 292.249 54.0601  11
   1   0 -10 120.364 54.7093   1
   1   0 -10 238.975 57.5140  15
  -1   0   9-12.6815 20.9595   2
  -1   0   9 1.68213 23.2591  13
  -1   0   9-5.12063 18.4584  16
   1   0  -9 29.2486 26.6860   1
   1   0  -9-12.7939 22.9224  15
   1   0  -9-14.6691 20.8534  14
   1   0  -8 7576.96 128.171   7
  -1   0   8 7688.91 119.462   8
   1   0  -8 8887.01 307.130  15
   1   0  -8 8841.58 354.098   4
  -1   0   8 9302.07 332.745  16
  -1   0   8 8723.46 315.048   2
   1   0  -8 6644.37 292.086   1
   1   0  -7 11.8592 18.8051   4
  -1   0   7-25.5614 20.9213   2
   1   0  -7-7.04878 18.8812   1
  -1   0   7-27.3806 19.3699  16
   1   0  -7-32.2464 20.8667  15
   1   0  -6 366.113 61.2404   4
  -1   0   6 448.099 65.8583  16
   1   0  -6 274.413 52.9938   1
  -1   0   6 432.218 61.0206   2
   1   0  -6 435.500 58.7813  15
   1   0  -5-17.8642 16.2327   4
   1   0  -5 1.96689 8.81313  15
  -1   0   5-14.6107 8.36971   2
   1   0  -5-7.76863 14.2014   1
  -1   0   5 23.4032 16.4941  16
   1   0  -4 182051. 1115.76   4
   1   0  -4 182230. 1019.41  15
   1   0  -3 2.01541 8.54732  15
   1   0  -3 11.2538 14.3630   4
   1   0  -2 21.2846 11.1721   5
   1   0   0 7399.89 192.123   7
   1   0   0 7083.13 180.266   8
  -1   0   0 7245.68 170.452  10
  -1   0  -1 16.7650 10.5017  11
   1   0   1 17.5082 12.6817   7
  -1   0  -1 2.86382 6.70061  10
   1   0   1 13.6984 8.03804   6
   1   0   1 5.69905 8.18534   8
  -1   0  -2 121.643 22.9489  10
   1   0   2 101.374 23.2164   3
  -1   0  -2 94.4386 21.1807  14
   1   0   2 92.9977 21.6881   6
  -1   0  -2 102.807 21.3743  11
   1   0   2 94.8666 19.9645   8
   1   0   2 104.224 21.9793   7
   1   0   3 11.6969 11.9905   6
  -1   0  -3 0.41265 7.20968  15
   1   0   3-4.54473 6.65822   8
  -1   0  -3-1.34764 8.02402  14
   1   0   3 2.97685 6.19496   7
   1   0   3-1.69618 9.94390   3
  -1   0  -3-5.20232 8.25837  10
  -1   0  -3-10.7157 10.9541  11
   1   0   3 6.55320 7.21609  16
   1   0   3-9.94515 8.60874   2
  -1   0  -3-6.64910 7.77360   1
  -1   0  -4 2310.06 108.652  15
   1   0   4 2163.67 116.313   6
   1   0   4 2159.19 120.638   3
  -1   0  -4 1847.98 65.9226   4
  -1   0  -4 2173.85 120.643  14
  -1   0  -4 1993.76 53.6933   5
  -1   0  -4 2234.62 115.165  11
  -1   0  -4 2287.10 106.772  10
   1   0   4 2287.91 100.769   7
  -1   0  -4 2145.33 100.850   1
   1   0   4 2274.20 106.861  16
   1   0   4 2240.55 94.9059   8
   1   0   4 2128.15 101.714   2
   1   0   5-10.2390 12.1952   2
  -1   0  -5-8.97316 11.4783  11
   1   0   5 16.2005 12.2634  16
   1   0   5 3.66953 8.45091   7
  -1   0  -5-6.16371 16.4132  15
   1   0   5-18.9989 18.0081   6
  -1   0  -5-6.33363 9.40984   4
  -1   0  -5-16.2301 13.0582  10
  -1   0  -5-20.4139 15.8138   1
  -1   0  -5-4.62429 13.0819  14
   1   0   5-6.70046 14.7736   3
   1   0   5-19.7376 17.1839   8
   1   0   6 3282.55 130.118   7
   1   0   6 2952.55 145.565  16
   1   0   6 3146.29 168.653   3
   1   0   6 2960.23 149.191   2
  -1   0  -6 3155.50 156.443  11
  -1   0  -6 3037.03 167.577  14
   1   0   6 2990.71 151.917   6
  -1   0  -6 3080.69 146.998  15
  -1   0  -6 3094.29 154.768   1
  -1   0  -6 2522.37 102.167   4
   1   0   7-9.80881 12.5679   7
   1   0   7 0.51330 12.0602  13
  -1   0  -7-28.3932 25.8012  15
   1   0   7 1.44549 11.7851   2
   1   0   7-8.88753 13.9752  16
  -1   0  -7-3.30961 20.9046   1
  -1   0  -7 3.55244 15.6087  11
   1   0   7 1.02453 14.5695   6
   1   0   7 0.46377 14.9979   3
  -1   0  -7 28.6468 24.0468  14
  -1   0  -7 19.1722 13.6901   4
  -1   0  -7-22.2053 16.5044   9
  -1   0  -8 890.024 98.3730   1
  -1   0  -8 987.565 74.4424   9
   1   0   8 891.438 94.5868  16
  -1   0  -8 957.432 95.3280  15
   1   0   8 869.010 104.966   3
   1   0   8 961.587 76.5279   7
   1   0   8 927.031 96.3709   6
  -1   0  -8 812.839 98.9295  14
   1   0   8 780.421 69.6063  13
   1   0   8 788.253 89.0160   2
  -1   0  -8 1017.91 101.508  11
   1   0   9-29.2894 17.9749   7
  -1   0  -9-5.63256 21.6304  11
  -1   0  -9-28.1211 21.7170  15
   1   0   9-8.02551 27.0904   3
   1   0   9 33.4482 27.2003  16
   1   0   9-20.6930 15.2787  13
  -1   0  -9 1.56436 18.9443   4
  -1   0  -9 16.5381 16.5956  14
  -1   0  -9-5.94531 30.5066   1
   1   0   9-10.3971 24.8349   6
   1   0   9 5.42629 17.1294   2
   1   0  10 669.580 95.4435   6
  -1   0 -10 485.031 85.7795  14
  -1   0 -10 718.099 102.025  11
  -1   0 -10 573.418 116.852   4
   1   0  10 626.836 98.9650   3
  -1   0 -10 554.959 92.9479   1
   1   0  10 477.257 62.9221  13
   1   0  10 468.816 77.5305   2
  -1   0 -10 565.431 87.5451  15
   1   0  10 501.490 90.7964  16
   1   0  11 32.0279 34.0324   3
  -1   0 -11 31.4795 33.3154  14
   1   0  11 22.5619 21.7937   2
  -1   0 -11 8.25273 32.5644   1
   1   0  11-107.201 49.9572   6
   1   0  11 32.2266 37.9889  16
  -1   0 -11-19.6497 31.4492  15
  -1   0 -11 0.44894 26.5480  11
  -1   0 -12-11.7472 26.0775  14
   1   0  12-48.2632 38.7093   2
   1   0  12-26.1061 32.7183   6
   1   0  12 30.2873 42.2185  16
   1   0  12-14.6065 22.9711   3
  -1   0 -12-13.8108 57.0014  11
  -1   0 -12 40.2942 34.0669  15
  -1   0 -12-40.3989 40.2876   1
   1   0  13 24.6296 26.6382   2
  -1   0 -13-25.7517 36.3095   1
   1   0  13 10.6898 36.8253   3
   1   0  13 28.5668 52.4950  16
  -1   0 -13-29.7918 44.9480  14
   1   0  13 66.9245 40.1522   6
  -1   0 -13 23.4187 53.9868  15
   1   0  14 4.01466 45.6369   2
  -1   0 -14 44.2960 59.1189   1
   1   0  14-1.13846 37.8976  16
  -1   0 -14 36.2147 74.1346  15
   1   0  14 43.2835 48.2901   3
  -1   0 -14 31.1138 40.4051  14
   1   0  15-4.29213 47.7547   2
  -1   0 -15 42.2194 49.5914  14
  -1   0 -15-90.2204 68.3313   1
  -1   0 -15 2.60902 86.2623  15
   1   0  15-185.510 75.5437  16
   1   0  15 7.64223 39.4986   3
  -1   1  16 5.51538 104.691  13
  -1   1  16-51.5741 66.0845  16
   1  -1 -16-7.21186 69.6950  15
  -1   1  16-26.2360 87.1295   2
   1  -1 -16 136.737 83.5512  14
   1  -1 -16 80.5772 103.727   1
   1  -1 -15 1.62608 83.5125  15
  -1   1  15 106.024 69.8226  16
  -1   1  15 15.2566 76.8944   2
  -1   1  15 32.1203 66.8261  13
   1  -1 -15-81.3829 86.6957   1
   1  -1 -15-194.725 126.516  14
   1  -1 -14 99.1914 68.3418  14
  -1   1  14 12.0637 47.3218  13
   1  -1 -14 79.3098 54.1865  15
  -1   1  14 37.0843 60.8718   2
   1  -1 -14 69.4608 68.9117   1
  -1   1  14 49.1531 48.7053  16
  -1   1  13 20.5314 29.5306   3
  -1   1  13 101.040 48.8386  16
   1  -1 -13 125.676 59.3712  14
   1  -1 -13 118.605 67.7974   1
   1  -1 -13 61.1391 51.5725   4
  -1   1  13 41.6220 64.1765   2
   1  -1 -13 21.4518 50.0492  15
  -1   1  13 32.6636 64.2372  13
   1  -1 -12-7.31968 31.0589  15
  -1   1  12 86.8104 49.6831  16
  -1   1  12 5.16382 33.2804   3
   1  -1 -12-0.22527 29.2467   1
   1  -1 -12 6.91358 34.0134  14
  -1   1  12-11.2780 23.2398   2
  -1   1  12 49.0325 33.2405  13
   1  -1 -12-29.4203 47.5301   4
  -1   1  11 106.399 40.4956  13
  -1   1  11 94.8345 44.1072   2
   1  -1 -11 60.7759 54.4667   4
  -1   1  11 3.80055 27.8447   3
  -1   1  11-2.99021 23.2205  16
  -1   1  11 41.8945 26.4071  12
   1  -1 -11 104.200 42.5803  15
   1  -1 -11 30.2932 31.0583  14
   1  -1 -11 34.5899 40.5212   1
   1  -1 -10 26.1333 29.3712   4
  -1   1  10 26.6603 27.8894   3
  -1   1  10-13.8459 27.5597  16
  -1   1  10 29.8432 24.6939  12
   1  -1 -10 0.08172 23.6268   1
   1  -1 -10 1.10302 26.0445  14
  -1   1  10 56.3958 22.6758  13
  -1   1  10 1.33346 19.7700   2
   1  -1 -10-3.34963 32.2528  15
  -1   1   9 52.5338 22.2739  12
  -1   1   9 34.7974 26.3485   2
   1  -1  -9 85.0653 34.8991  15
  -1   1   9 43.7941 28.5070   3
  -1   1   9 83.1264 31.6811  13
   1  -1  -9 12.6290 10.0516  11
   1  -1  -9 34.6553 24.8436   5
   1  -1  -9 56.2729 34.6235   1
   1  -1  -9 26.4079 27.9694   4
   1  -1  -9 51.7202 27.1961  14
  -1   1   9 50.3843 25.5490  16
  -1   1   8 3833.24 195.781   2
  -1   1   8 4376.41 196.635   3
   1  -1  -8 4463.87 203.544  15
   1  -1  -8 4079.64 123.762  11
   1  -1  -8 4637.47 193.539   5
  -1   1   8 3813.19 157.754  12
   1  -1  -8 4108.09 211.890   4
   1  -1  -8 3877.58 190.619  14
  -1   1   8 4100.13 194.368  13
  -1   1   8 4203.02 202.693  16
   1  -1  -8 3720.97 201.877   1
   1  -1  -7 17.8453 8.54046  11
  -1   1   7 27.8719 13.3182  12
   1  -1  -7-11.0376 17.6264   5
   1  -1  -7 13.1164 13.7820  14
  -1   1   7 42.6291 20.0703   3
  -1   1   7 26.7709 21.7482  13
  -1   1   7 25.0961 16.5158   2
   1  -1  -7 13.6367 14.8511  15
  -1   1   7 22.6407 18.3993  16
   1  -1  -7 7.48528 18.2282   4
   1  -1  -7 6.32523 15.8433   1
   1  -1  -6 4.64505 15.7867  15
  -1   1   6 6.55540 7.80022   9
  -1   1   6 14.1397 10.6265  13
  -1   1   6 19.6427 10.3341   3
   1  -1  -6 6.94539 16.6938   1
   1  -1  -6 17.7811 14.5198   4
   1  -1  -6 30.1153 15.2215  14
   1  -1  -6 18.2418 12.8969   5
  -1   1   6 22.3409 13.0404   2
  -1   1   6 21.2596 13.3188  16
  -1   1   6 21.5702 11.5800  12
   1  -1  -6 8.39147 7.58757   7
   1  -1  -5 64.0591 22.2273   4
   1  -1  -5 75.5920 21.5089  15
   1  -1  -5 66.0129 18.7566  14
   1  -1  -5 77.2141 23.0885   5
  -1   1   5 57.6574 18.8234   2
  -1   1   5 52.8172 20.5411  16
   1  -1  -5 38.4352 17.4285   1
   1  -1  -5 91.4742 14.9081   7
  -1   1   5 43.9923 15.5290   3
  -1   1   5 58.6555 21.5985  13
  -1   1   4 2867.69 124.989  13
   1  -1  -4 2789.24 119.095   1
  -1   1   4 2736.60 115.427   2
   1  -1  -4 2977.08 123.799   5
  -1   1   4 2719.54 87.7916  10
  -1   1   4 2871.67 100.212   3
   1  -1  -4 2876.52 97.6450  14
   1  -1  -4 2925.94 91.0407   7
   1  -1  -4 2809.95 111.910  15
   1  -1  -4 3058.92 92.9287   8
  -1   1   4 2865.35 117.177  16
   1  -1  -3 7681.64 159.491  15
   1  -1  -3 7747.91 155.943   7
  -1   1   3 7657.14 164.241   3
  -1   1   3 7810.60 192.846  13
   1  -1  -3 8133.54 201.474   4
   1  -1  -3 7986.62 176.570   1
  -1   1   3 7795.63 168.373  16
   1  -1  -3 7915.11 191.519   5
  -1   1   3 7551.88 166.900   2
   1  -1  -3 7893.03 146.692   8
   1  -1  -3 7640.42 123.377  14
  -1   1   3 7743.12 153.571  10
   1  -1  -2 965.796 62.8598   4
   1  -1  -2 885.977 62.0460   5
   1  -1  -2 951.631 50.2175   1
   1  -1  -2 837.584 34.5065   6
  -1   1   2 925.917 60.0168  13
   1  -1  -2 847.856 43.7382  15
  -1   1   2 884.487 35.4685  11
   1  -1  -2 960.532 58.0442   7
  -1   1   2 885.954 47.0631   2
   1  -1  -2 937.892 54.0986   8
  -1   1   2 917.047 48.1933  16
  -1   1   1 64.8747 12.4273  11
   1  -1  -1 58.6330 8.65995  15
   1  -1  -1 69.7259 15.9966   4
  -1   1   1 58.5944 13.7982  13
  -1   1   1 43.3881 9.15985   1
   1  -1  -1 67.7406 10.2517   1
  -1   1   1 51.4454 8.77064  16
   1  -1  -1 56.4348 11.6562   6
   1  -1  -1 55.9001 14.5856   8
  -1   1   1 62.3287 9.32394   2
   1  -1  -1 67.8145 15.8979   5
   1  -1  -1 60.3935 9.35656   2
   1  -1  -1 61.5539 15.6287   7
  -1   1   0 23959.7 208.071   3
  -1   1   0 23937.0 221.837  13
   1  -1   0 23803.9 268.087   6
   1  -1   0 24050.0 282.704   5
   1  -1   0 24190.4 305.526   7
  -1   1   0 23906.5 205.265  14
   1  -1   0 23933.0 196.625   3
   1  -1   0 23805.7 285.838   8
  -1   1  -1 6498.85 137.407  14
  -1   1  -1 6254.76 136.894  12
   1  -1   1 6462.44 134.604   3
   1  -1   1 5201.16 151.539   7
  -1   1  -1 6419.43 92.4309  13
   1  -1   1 6588.03 139.822   5
   1  -1   1 6473.93 158.774   6
   1  -1   1 6290.59 154.742   8
   1  -1   2 367.391 42.4373   6
  -1   1  -2 349.576 38.0737  14
   1  -1   2 349.390 30.2575   5
   1  -1   2 329.914 39.6916   7
   1  -1   2 351.262 26.8378   2
  -1   1  -2 335.129 24.0434  15
  -1   1  -2 339.756 30.9038  12
   1  -1   2 339.883 38.4637   3
   1  -1   2 335.285 36.8147   8
  -1   1  -2 385.182 28.3630   1
   1  -1   2 337.919 25.6252  16
   1  -1   3-4.10661 8.61226   8
   1  -1   3 1.18572 4.73279   2
  -1   1  -3-3.51104 5.90044  15
  -1   1  -3-8.63743 11.5620  14
  -1   1  -3-0.67373 5.23532  12
   1  -1   3-14.3804 9.90719   6
   1  -1   3 8.39434 9.72390   7
   1  -1   3-11.6840 9.85159   3
   1  -1   3-0.24978 4.57571  16
   1  -1   3 1.42048 3.87962   5
  -1   1  -3-5.23935 8.24581   1
  -1   1  -3-7.69337 8.68028   9
   1   1   4 1481.34 104.607   2
   1  -1   4 1488.21 80.4973  16
  -1   1  -4 1481.09 75.1721  15
   1  -1   4 1386.44 42.9981  13
  -1  -1  -4 1695.41 124.826  14
   1  -1   4 1628.49 84.7938   8
   1   1   4 1506.36 119.852   3
  -1   1  -4 1599.86 102.186  14
   1  -1   4 1698.84 95.1643   7
   1  -1   4 1422.49 79.2129   2
   1   1   4 1513.94 112.581   6
   1  -1   4 1523.53 98.3835   6
   1  -1   4 1446.59 50.9576   5
  -1   1  -4 1657.97 87.8342   1
   1  -1   4 1572.26 101.087   3
  -1   1  -4 1547.75 83.0425   9
   1   1   5 275.145 48.0580   2
   1  -1   5 326.401 43.5991  16
   1  -1   5 263.016 37.6437   2
  -1  -1  -5 560.120 73.4564  14
   1   1   5 295.667 44.6108   7
  -1   1  -5 309.946 50.7097  14
   1  -1   5 268.330 25.2357  13
   1  -1   5 299.952 48.2142   6
  -1   1  -5 278.148 37.3291  15
  -1   1  -5 302.967 42.7947   1
   1   1   5 325.816 50.4137   6
  -1  -1  -5 294.316 50.2970   1
  -1  -1  -5 211.123 37.0784  15
   1   1   5 290.102 55.1848   3
  -1   1  -5 305.468 38.9932   9
   1  -1   5 341.419 44.6893   7
   1  -1   5 303.202 37.2450   8
  -1  -1  -5 247.324 37.4290   4
   1  -1   5 243.480 45.1296   3
   1  -1   6 276.006 44.0183   2
  -1   1  -6 296.863 43.1717  15
  -1  -1  -6 220.738 35.7340   4
   1   1   6 303.382 57.4922   3
   1   1   6 290.805 49.0243  16
  -1   1  -6 285.935 43.9023   1
  -1   1  -6 307.479 42.0665  10
   1  -1   6 278.014 42.0586   7
  -1  -1  -6 252.490 51.4944  14
   1  -1   6 304.594 51.6922   6
   1  -1   6 301.098 56.2558   3
   1  -1   6 299.831 38.4352   8
   1   1   6 307.964 52.1375   2
  -1   1  -6 306.637 54.4313  14
   1   1   6 342.760 55.7588   6
  -1   1  -6 299.745 48.9712  11
   1   1   6 323.916 43.4657   7
  -1   1  -6 305.959 41.2414   9
  -1  -1  -6 327.399 53.3735  15
   1  -1   6 288.426 31.4552  13
   1  -1   6 312.002 46.5607  16
  -1  -1  -6 309.709 53.3993   1
   1  -1   7-22.9148 16.6853   8
   1  -1   7 12.5762 14.9237   2
  -1   1  -7-2.58285 14.8194  14
   1   1   7-13.2710 15.8160  16
   1  -1   7-19.6290 21.9161   3
   1   1   7 9.32494 14.5787   7
   1  -1   7 4.24062 11.4715  16
  -1   1  -7-0.91773 13.9418   1
   1   1   7 39.3251 24.8732   2
   1  -1   7 0.15950 17.8172   6
   1  -1   7 13.2207 11.8088  13
  -1  -1  -7 4.01647 19.7773   1
  -1   1  -7-18.0356 18.2562  15
   1  -1   7 14.6632 14.5321   7
  -1  -1  -7 8.62551 13.9999   4
  -1   1  -7-17.9762 12.8229  10
  -1  -1  -7-25.2968 27.1559  15
   1   1   7-4.26406 18.8664   6
  -1  -1  -7 8.66298 16.3922  14
  -1   1  -7 6.99908 13.0727   9
   1   1   7-54.4885 27.7633   3
  -1   1  -7-8.03723 17.6366  11
  -1   1  -8 308.334 55.2426  11
   1  -1   8 414.511 53.1993   8
   1   1   8 340.585 59.0010   6
   1   1   8 313.530 41.2491   7
   1  -1   8 328.041 64.3833   3
  -1  -1  -8 314.952 67.8871  14
  -1  -1  -8 235.917 45.3616   4
   1   1   8 356.340 70.7466   3
  -1   1  -8 340.860 57.0139  15
  -1  -1  -8 322.023 59.9671  15
   1  -1   8 258.138 50.7798   2
  -1  -1  -8 320.155 62.3071   1
  -1   1  -8 405.779 55.9298  10
   1  -1   8 310.049 57.2914  16
   1   1   8 301.621 57.2386  16
  -1   1  -8 304.466 62.0890  14
   1  -1   8 298.291 59.0902   6
   1  -1   8 272.815 39.8427  13
  -1   1  -8 319.374 59.4057   1
   1   1   8 333.212 63.6331   2
  -1  -1  -9 148.797 47.1261  14
   1  -1   9 196.603 49.6491   2
  -1  -1  -9 200.431 50.4984  15
  -1   1  -9 287.037 56.6522  10
  -1   1  -9 133.445 45.5449  14
   1  -1   9 209.069 53.0089   6
   1  -1   9 184.333 51.5121   3
  -1   1  -9 197.646 50.9621  11
  -1   1  -9 247.261 55.7828  15
  -1   1  -9 193.325 54.0782   1
   1  -1   9 182.187 50.9796  16
  -1  -1  -9 51.2377 32.3986   4
   1   1   9 359.720 72.8685  16
   1  -1   9 149.725 33.0657  13
   1   1   9 430.529 88.1079   3
  -1  -1  -9 174.374 46.9409   1
   1  -1   9 357.118 63.2671   8
  -1   1 -10-31.5984 28.2067  15
   1  -1  10-4.89895 21.5410  16
   1  -1  10 4.48430 21.8376   2
   1   1  10-4.34003 24.3023   3
  -1  -1 -10 58.9324 39.8720  14
   1   1  10 49.0578 30.9820   2
   1  -1  10-6.70176 31.1916   3
   1  -1  10-41.2878 22.9694  13
   1  -1  10-5.98403 23.1391   6
   1   1  10-70.0590 33.5920   6
  -1   1 -10-42.8020 31.6639  14
  -1   1 -10 13.3192 22.9624  11
  -1   1 -10 53.5948 43.6290   1
  -1  -1 -10 29.1913 32.0304   1
  -1  -1 -10-22.9298 32.7108   4
  -1  -1 -10-39.6652 27.9916  15
   1   1  10-48.3556 35.0285  16
   1  -1  11-7.71920 29.4416   3
  -1   1 -11-11.0150 28.0742  15
  -1  -1 -11 63.4299 29.8791  15
   1  -1  11-1.40083 27.5696  16
   1   1  11 22.0499 26.9164   2
  -1   1 -11-83.4206 55.0594   1
   1   1  11-99.0038 43.1463  16
   1   1  11 0.28881 22.5665   6
  -1   1 -11-22.3656 30.7108  14
  -1  -1 -11-7.34134 33.0220  14
   1  -1  11 9.55310 26.1573   6
  -1   1 -11 6.80850 27.7714  11
   1   1  11 28.8585 26.9992   3
  -1  -1 -11-37.7439 41.3960   1
   1  -1  11-3.72529 30.7409   2
  -1   1 -12 126.581 51.3634  14
  -1   1 -12 69.0889 57.5500   1
   1  -1  12 88.0664 48.5031   2
   1  -1  12 261.835 78.1749   6
   1  -1  12 199.121 65.1688   3
   1   1  12 84.5931 53.1286  16
  -1   1 -12 52.7309 75.6412  11
   1  -1  12 73.6692 59.3945  16
   1   1  12 166.672 62.6016   3
  -1  -1 -12 93.2015 55.0496   1
  -1  -1 -12 166.868 68.2845  14
   1   1  12 27.7200 50.9457   2
  -1   1 -12 267.850 82.9219  15
   1   1  12 239.458 60.9548   6
  -1  -1 -12 83.4293 55.5326  15
   1  -1  13 65.5917 50.9189   3
   1   1  13-33.1778 44.2148  16
   1  -1  13 52.7614 54.8646   2
  -1  -1 -13 57.6335 50.3764   1
  -1  -1 -13 25.7276 36.1598  14
   1   1  13-12.6530 55.6323   2
   1   1  13 33.2337 33.7322   6
   1  -1  13 59.4593 47.5570   6
  -1   1 -13 32.4696 55.0377  11
   1   1  13 26.3762 27.0886   3
  -1   1 -13 26.8763 42.7403   1
  -1   1 -13 4.71587 30.7641  14
   1  -1  13 28.0516 50.2235  16
  -1   1 -13-52.5300 46.8885  15
  -1  -1 -13-12.8280 42.9968  15
   1   1  14 45.4284 37.6462  16
  -1   1 -14-118.207 69.4641  14
  -1  -1 -14-44.5745 53.7237  14
   1   1  14 12.7328 34.2829   2
   1   1  14 6.25426 31.9458   3
   1  -1  14-24.8776 43.9787   2
  -1   1 -14 6.87200 82.3715   1
  -1   1 -14 19.2025 88.1355  15
  -1  -1 -14 10.8377 44.4625   1
   1  -1  14 12.4459 41.5149  16
  -1  -1 -14 60.9273 70.5426  15
   1  -1  14 35.5702 44.9141   3
  -1  -1 -15-11.2565 59.5329  15
   1   1  15 21.6645 38.1018  16
  -1   1 -15-60.6458 60.0078  14
   1  -1  15 5.69134 51.5897  16
   1   1  15 14.4453 64.4769   2
  -1  -1 -15-20.8188 41.9493  14
   1   1  15 5.57058 34.2772   3
  -1   1 -15 173.026 185.896  15
   1  -1  15-1.89933 47.5035   3
  -1  -1 -15-160.404 107.025   1
   1  -2 -15 333.477 122.174  14
   1  -2 -15 58.2866 128.709   4
   1  -2 -14 8.44771 38.0713   4
  -1   2  14 3.59914 32.0507  16
   1  -2 -14 33.6789 42.0071   1
   1  -2 -14-6.76730 40.5915  14
   1  -2 -14 5.99569 62.1823  15
  -1   2  14 0.74873 40.3963   3
  -1   2  14-19.9319 30.0272   2
  -1   2  14-17.0050 37.1775  13
  -1   2  13 1.01784 29.0886  13
  -1   2  13-64.8319 50.9234  16
  -1   2  13 13.7573 29.1667   2
  -1   2  13 10.6609 40.2222   3
   1  -2 -13 8.55928 36.6050   4
   1  -2 -13 53.0433 40.1321  14
   1  -2 -13 2.17304 44.2220  15
   1  -2 -13 52.1819 57.0625   1
  -1   2  12 18.4413 33.1849  16
   1  -2 -12 39.6214 40.3573   1
  -1   2  12 8.56890 24.1989  13
  -1   2  12 1.24218 24.2899   3
  -1   2  12-4.99870 34.8181   2
   1  -2 -12 5.41891 29.0784  15
   1  -2 -12-12.2163 37.6110   4
   1  -2 -12 65.1978 48.3310  14
  -1   2  11 16.7558 32.3597  13
  -1   2  11 0.61815 44.3218   3
   1  -2 -11 96.3370 30.8723  14
  -1   2  11 139.616 46.2119  16
   1  -2 -11 43.1077 40.2334   1
   1  -2 -11 95.2642 39.6192  15
  -1   2  11 150.106 52.6654   2
   1  -2 -11 67.8277 39.5105   4
  -1   2  10-8.39318 27.3203  13
   1  -2 -10 65.6229 38.8910   1
  -1   2  10 7.34131 24.2238   3
  -1   2  10-30.9614 31.9847   2
   1  -2 -10 42.9192 31.2270   5
  -1   2  10 3.32047 20.8169  16
   1  -2  -9 724.814 100.151   1
   1  -2  -9 722.565 91.3540  15
  -1   2   9 850.529 91.9071  12
  -1   2   9 730.700 92.9935  13
   1  -2  -9 641.868 82.6583  14
  -1   2   9 784.462 91.7036   3
  -1   2   9 836.777 99.5707  16
  -1   2   9 771.206 100.693   2
   1  -2  -9 839.020 85.0344   5
   1  -2  -8 21.0304 25.4934   1
   1  -2  -8 22.3647 23.8170   4
   1  -2  -8-24.1506 22.0737  15
  -1   2   8 14.0131 17.4430   2
  -1   2   8-26.0007 23.1771  13
  -1   2   8-32.6291 21.9109  12
  -1   2   8-0.19333 12.2088   3
   1  -2  -8-2.71265 15.3463  14
   1  -2  -8-2.19150 15.1099   5
  -1   2   8-18.2375 22.3208  16
   1  -2  -7-5.76333 16.6209   1
   1  -2  -7 27.1208 24.4913  15
   1  -2  -7-8.44505 13.9592  14
  -1   2   7 50.3925 24.5492  13
  -1   2   7 5.37383 10.4231   3
  -1   2   7 18.1143 20.2883  12
  -1   2   7-2.72511 11.9964   2
  -1   2   7-10.6762 12.0137  10
   1  -2  -7 7.32859 20.1661   4
   1  -2  -7 35.8113 23.3489   5
   1  -2  -7 8.41030 13.9942   8
   1  -2  -6 109.845 19.6527   8
  -1   2   6 73.3975 17.1550  10
   1  -2  -6 57.2380 23.4450  15
   1  -2  -6 108.892 40.9268   4
  -1   2   6 100.589 31.3253  13
   1  -2  -6 74.4786 21.2727  14
  -1   2   6 103.570 31.8085  12
   1  -2  -6 116.398 38.0632   1
  -1   2   6 86.9264 25.9517   3
  -1   2   6 90.9529 29.9687  16
  -1   2   6 86.2976 28.8204   2
   1  -2  -6 120.053 31.9821   5
  -1   2   5 2356.30 134.978  13
  -1   2   5 2343.73 124.788  16
   1  -2  -5 2313.98 144.537   4
   1  -2  -5 2115.21 122.009   1
  -1   2   5 2310.82 102.873   3
   1  -2  -5 2472.54 88.2660   8
  -1   2   5 2426.75 125.909  12
   1  -2  -5 2207.41 122.788   5
   1  -2  -5 2245.71 118.274  15
   1  -2  -5 2411.93 111.055  14
  -1   2   5 2447.55 133.385   2
   1  -2  -4 1465.64 70.5321   8
  -1   2   4 1430.95 88.6704  16
   1  -2  -4 1378.68 90.0236   1
  -1   2   4 1443.88 100.899  13
  -1   2   4 1443.72 94.2605  12
  -1   2   4 1412.93 68.3736   3
   1  -2  -4 1264.18 90.3046   5
   1  -2  -4 1270.15 79.9985  15
   1  -2  -4 1574.46 106.876   4
  -1   2   4 1405.84 91.3787   2
   1  -2  -3 3973.12 131.905   1
  -1   2   3 3905.61 93.2876   3
   1  -2  -3 3727.50 123.108  15
  -1   2   3 4086.44 152.102  13
   1  -2  -3 4251.60 135.727   7
   1  -2  -3 4209.80 161.228   5
  -1   2   3 3938.37 151.064  12
  -1   2   3 4007.42 132.588  16
  -1   2   3 3983.17 129.580   9
  -1   2   3 4008.49 85.0420   6
   1  -2  -3 4013.11 122.066   8
   1  -2  -3 4233.14 165.182   4
  -1   2   3 4111.73 138.714   2
  -1   2   2 2075.94 86.5247   2
   1  -2  -2 2022.59 96.3019   7
  -1   2   2 1967.76 90.9337   9
  -1   2   2 1968.64 100.033  13
  -1   2   2 1927.19 101.817  12
   1  -2  -2 2020.03 110.438   5
   1  -2  -2 1933.66 88.0776   8
   1  -2  -2 2254.06 111.470   4
   1  -2  -1 1234.92 72.6015   8
  -1   2   1 1247.81 73.8133  13
  -1   2   1 1313.87 81.6920  12
   1  -2  -1 1442.08 91.6891   5
  -1   2   1 1330.68 75.5649   9
   1  -2  -1 1306.94 78.5074   7
   1  -2  -1 1431.35 85.1911   4
  -1   2   0 1430.04 83.6249  12
   1  -2   0 1613.42 94.2873   5
   1  -2   0 1318.52 80.7501   6
   1  -2   0 1381.02 79.2864   8
  -1   2   0 1408.33 79.8111   9
   1  -2   0 1440.24 85.2543   7
   1  -2   1 2853.72 124.009   7
   1  -2   1 3135.01 125.525   5
  -1   2  -1 2754.50 115.301   9
   1  -2   1 2876.39 121.896   6
   1  -2   1 2658.21 113.582   8
   1  -2   2 393.608 48.7956   6
   1  -2   2 413.575 48.6191   7
   1  -2   2 427.862 44.3527   5
   1  -2   2 305.285 41.2616   3
  -1   2  -2 397.612 45.0650   9
   1  -2   2 372.002 44.9892   8
   1  -2   3 2530.02 98.8570  16
  -1   2  -3 2561.13 94.7081  15
   1  -2   3 2510.80 122.759   3
   1  -2   3 2697.22 104.047   5
   1  -2   3 2481.60 127.895   6
  -1   2  -3 2437.34 117.910   9
   1  -2   3 2513.14 124.313   7
   1  -2   3 2472.65 117.644   8
   1  -2   4 4632.29 151.354  16
   1  -2   4 4575.13 186.098   6
   1  -2   4 4631.32 181.692   3
  -1   2  -4 4617.97 143.707  15
   1  -2   4 4313.26 167.629   7
   1  -2   4 4771.34 132.256   5
  -1   2  -4 4775.62 172.616   9
   1  -2   4 4858.11 171.567   8
  -1   2  -5 1013.57 79.2759  15
   1  -2   5 953.850 91.4355   3
   1  -2   5 1051.50 60.0100   5
   1  -2   5 949.664 78.0193  16
   1  -2   5 1066.27 84.9844   8
   1  -2   5 1009.70 98.0722   6
   1  -2   6 1278.40 113.722   6
   1  -2   6 1305.59 114.231   3
   1  -2   6 1295.46 60.1692   5
   1  -2   6 1279.18 97.7365  16
   1  -2   6 1435.58 99.9012   8
  -1   2  -6 1358.75 98.5249  15
  -1   2  -7 359.640 73.5245  14
   1  -2   7 413.517 70.3001   6
   1  -2   7 404.497 70.1186   3
  -1   2  -7 353.650 55.1197  15
   1  -2   7 325.837 57.7470  16
   1  -2   7 449.285 57.3922   8
  -1   2  -8 1399.08 154.181  14
  -1  -2  -8 1034.73 125.943   1
   1  -2   8 1256.14 83.4637  13
   1  -2   8 1635.32 146.745   6
   1  -2   8 1502.21 141.999   3
   1   2   8 1180.39 139.932   3
  -1  -2  -8 1082.68 143.992  14
  -1   2  -8 1757.30 138.716  15
   1  -2   8 1419.30 128.847  16
   1  -2   8 495.968 108.928   2
   1  -2   8 1565.01 105.195   8
   1   2   8 1197.10 132.638   2
   1  -2   9 27.1781 35.3423  16
  -1  -2  -9 65.4193 43.8501  14
   1  -2   9 95.4373 31.0332  13
  -1   2  -9 42.9685 38.6145  15
   1  -2   9 45.9246 38.0139   6
   1  -2   9 19.3581 15.8781   8
  -1   2  -9 69.8738 41.9207  14
  -1  -2  -9 29.7053 29.6231   1
   1   2   9 100.556 44.1671   3
   1   2   9 65.9052 33.1490   6
   1  -2   9 97.6159 37.8228   3
   1   2   9 76.4371 44.6818   2
  -1  -2  -9 17.7500 32.8956   4
   1  -2  10 72.5535 23.0554   8
  -1  -2 -10 63.0241 45.0425   4
  -1  -2 -10 314.487 83.3123  14
   1  -2  10 126.907 52.4780   6
   1  -2  10 138.654 54.2829   3
  -1   2 -10 238.600 71.4739  15
   1   2  10 226.180 59.3308   6
  -1   2 -10 232.851 64.2580  11
  -1   2 -10 197.488 71.6834  14
  -1   2 -10 186.876 46.2927  10
   1  -2  10 99.2478 45.0811  16
   1   2  10 222.480 64.5384   2
   1   2  10 244.776 70.5826   3
  -1  -2 -10 54.1572 39.4524   1
  -1  -2 -11 396.817 104.351   1
  -1   2 -11 570.727 127.365  14
   1  -2  11 600.092 110.899   3
  -1  -2 -11 493.466 111.511  14
  -1   2 -11 112.166 112.995  11
   1   2  11 413.532 77.1371   6
  -1  -2 -11 119.675 58.8433   4
  -1   2 -11 617.256 123.289  15
   1   2  11 85.1253 96.1992   2
   1   2  11 508.908 105.571   3
   1  -2  12 131.829 60.8695  16
  -1   2 -12 298.412 106.759  15
  -1   2 -12 362.711 114.826  14
  -1   2 -12 53.3490 81.2428  11
  -1  -2 -12 140.149 60.2882   1
   1  -2  12 121.481 64.2798   3
   1   2  12 155.653 50.3689   6
   1   2  12 50.4729 75.5256   2
   1   2  12 207.216 72.7834   3
  -1  -2 -12 264.289 91.6891  14
  -1  -2 -13-32.7924 45.3071  14
  -1   2 -13-46.2548 102.287  15
   1   2  13 46.0057 55.7731   2
   1   2  13 1.13189 53.6614   3
   1  -2  13-0.78923 61.6129  16
  -1   2 -13-29.8458 88.4479  14
  -1  -2 -13 38.4755 55.2784   1
   1   2  14 22.9528 72.8272   2
  -1  -2 -14-74.4967 80.8147   1
   1   2  14 12.7688 30.2118   3
  -1   3  15 123.690 80.9566  16
   1  -3 -15-54.8303 81.6781   4
   1  -3 -15-56.2069 51.1822  15
  -1   3  15 13.2964 44.4607   2
   1  -3 -15 162.353 88.1042   1
  -1   3  15 0.59736 53.8902  13
  -1   3  15-5.96808 38.7623   3
   1  -3 -14 0.13706 55.9903   1
   1  -3 -14-3.28327 37.6861  15
  -1   3  14 11.6990 45.4426  13
   1  -3 -14-53.9421 45.3720   4
  -1   3  14 8.12326 50.6373   3
  -1   3  14-13.8541 32.1160   2
   1  -3 -14-53.2375 56.8877  14
  -1   3  14 49.1500 41.0222  16
   1  -3 -13-14.2845 45.7003   4
  -1   3  13 41.7241 34.3834  16
   1  -3 -13 15.5595 58.1350  15
   1  -3 -13 102.266 50.6540  14
  -1   3  13-4.58151 38.5559  13
  -1   3  13 14.6878 24.5098   2
   1  -3 -13-19.5555 39.5207   1
  -1   3  13 17.3112 37.8859   3
   1  -3 -12 89.0314 50.2203  14
  -1   3  12-12.5046 36.3568  13
   1  -3 -12 30.9951 42.5818  15
  -1   3  12 27.1730 45.3403   2
   1  -3 -12 33.1813 53.8997   4
  -1   3  12 7.54421 40.1237   3
   1  -3 -12 76.3672 50.5807   1
  -1   3  12 78.4054 45.2307  16
  -1   3  11 117.267 47.1875  16
   1  -3 -11 109.948 60.9839   4
   1  -3 -11 6.02801 41.3646  15
   1  -3 -11 59.6318 45.9455  14
  -1   3  11 10.8380 41.2015  13
   1  -3 -11 70.8850 49.3855   1
  -1   3  11 61.4228 53.3456   2
  -1   3  11 3.61615 42.2887   3
  -1   3  10 66.1509 37.7453   2
   1  -3 -10-1.97947 35.1791  15
  -1   3  10 108.421 46.3233  16
   1  -3 -10 28.3887 28.8968   1
   1  -3 -10 12.4334 28.8612   4
  -1   3  10 88.3609 35.6047   3
  -1   3  10 55.1369 33.3341  13
   1  -3 -10 109.197 39.4084   5
   1  -3 -10 74.8396 34.8587  14
   1  -3  -9 483.272 87.5087  14
   1  -3  -9 671.517 94.2351   4
   1  -3  -9 479.870 79.0167   1
  -1   3   9 571.035 95.5073   2
   1  -3  -8 372.634 71.5056   1
  -1   3   8 320.826 60.3972  16
   1  -3  -8 322.894 67.0192   4
  -1   3   8 318.588 57.0753   3
  -1   3   8 296.645 59.2887  13
  -1   3   8 332.632 64.6320   2
   1  -3  -8 311.078 53.5459   5
   1  -3  -8 346.116 33.3988   8
   1  -3  -8 359.618 65.5458  15
  -1   3   7 2264.24 150.098  16
  -1   3   7 2340.04 159.770   2
  -1   3   7 2241.84 154.536  13
  -1   3   7 2310.58 134.538   3
   1  -3  -7 2249.33 146.011  15
   1  -3  -7 2313.47 149.382   5
   1  -3  -7 2255.56 153.594   1
   1  -3  -7 2424.27 96.9299   8
   1  -3  -7 2400.29 172.729   4
  -1   3   7 1914.11 66.5145   6
   1  -3  -6 146.623 38.2782  15
   1  -3  -6 157.259 28.3265   8
   1  -3  -6 140.761 40.5488   1
  -1   3   6 138.703 37.8001  13
   1  -3  -6 203.358 48.5078   5
  -1   3   6 135.215 33.1427  16
  -1   3   6 151.227 32.0720   3
  -1   3   6 153.774 40.3921   2
   1  -3  -6 144.959 44.2258   4
  -1   3   5 478.006 65.0237   2
  -1   3   5 521.720 66.2159  16
  -1   3   5 430.092 49.4112   3
  -1   3   5 490.165 68.6639  13
   1  -3  -5 401.165 56.7790  15
   1  -3  -5 459.986 69.3475   1
   1  -3  -5 540.560 75.3449   5
   1  -3  -5 558.701 56.0708   8
   1  -3  -5 597.761 84.6310   4
   1  -3  -4 12.8453 20.8955   8
   1  -3  -4 28.7396 42.5112   1
  -1   3   4 37.3052 30.7830  13
   1  -3  -4 160.496 61.4098   5
   1  -3  -4 118.385 58.0341   4
  -1   3   3 4089.29 171.641  13
   1  -3  -3 3754.24 187.752   5
   1  -3  -3 3983.33 189.534   4
   1  -4 -15-7.29119 48.1742   1
  -1   4  15 15.8531 45.4160   2
  -1   4  14 21.1057 38.2425   2
   1  -4 -14-15.8768 50.1943   1
   1  -4 -14-38.0148 54.5869   4
   1  -4 -13-25.8761 46.0877   1
  -1   4  13-2.06322 22.9287  16
  -1   4  13-9.41748 29.8770   2
   1  -4 -13 65.9585 61.7543   4
  -1   4  12 14.8052 25.7369  16
   1  -4 -12 19.4361 30.5192   1
  -1   4  12-19.2707 36.3681  13
  -1   4  12 11.9910 23.8295   2
  -1   4  12 23.4441 30.4694   3
   1  -4 -12-15.4811 48.6026  15
   1  -4 -12-28.9705 48.5993   4
  -1   4  11-8.10434 19.6273  16
   1  -4 -11-20.3001 44.8266  15
   1  -4 -11-47.1269 39.6805   4
  -1   4  11 7.12850 34.3086  13
  -1   4  11-4.65019 30.7258   2
  -1   4  11 4.29717 33.0272   3
   1  -4 -11-11.3000 22.3627   5
   1  -4 -11-8.29968 30.6388   1
   1  -4 -10 129.962 54.8130   4
   1  -4 -10 237.353 62.5696   1
  -1   4  10 24.7173 69.8089  13
  -1   4  10 299.718 67.2546  16
  -1   4  10 403.889 81.6080   2
  -1   4  10 56.8789 66.2203   3
   1  -4 -10 334.339 61.0894   5
  -1   4   9-25.1954 27.3925   2
  -1   4   9 17.8649 27.8202  13
   1  -4  -9 22.6994 39.5898   4
  -1   4   9 19.2041 26.1188   3
   1  -4  -9 11.0616 18.4884   5
   1  -4  -9 25.6218 27.6111   1
   1  -4  -8-5.13410 27.4851   5
   1  -4  -8 49.9999 33.1491   1
   1  -4  -8 64.2576 29.4393   4
  -1   4   8 49.0687 29.4889  13
  -1   4   8 65.6510 27.4591   3
  -1   4   8 37.6117 29.8949   2
   1  -4  -7 37.1463 26.5055   1
  -1   4   7 40.8785 22.0517  13
   1  -4  -7 47.2556 29.5917   4
   1  -4  -7 52.5413 31.6282   5
   2   0   2 8632.83 326.253   7
   2   0   2 8781.18 315.504   6
   2   0   3 87.6399 38.5829   6
   2   0   3 93.2352 47.2648   7
   2   0   3 93.4042 39.3791   3
   2   0   4 3145.48 142.861   2
  -2   0  -4 3418.37 144.926   1
   2   0   4 3428.05 195.827   6
   2   0   4 3391.66 188.962   3
   2   0   4 3778.67 200.054   7
  -2   0  -4 3161.89 194.732  14
  -2   0  -5 9.27153 16.5042  14
  -2   0  -5 0.23001 13.3482   1
   2   0   5 5.09807 14.6833   6
   2   0   5-24.9458 27.3514   7
  -2   0  -5-4.60074 9.12778   4
   2   0   5 21.5371 22.5809   3
   2   0   5 25.1972 17.1443   2
  -2   0  -5 0.94511 23.1399  11
   2   0   6 1470.63 120.385   7
  -2   0  -6 932.749 50.5325   4
  -2   0  -6 1453.75 110.928   1
  -2   0  -6 1411.81 135.506  14
   2   0   6 1364.20 130.234   6
  -2   0  -6 1504.00 137.046  11
   2   0   6 1394.26 130.920   3
   2   0   6 1359.03 108.198   2
  -2   0  -7 26.1220 30.1327   1
   2   0   7 32.7670 29.8312   6
  -2   0  -7 28.5129 27.7222  11
   2   0   7 19.9888 20.8097   2
   2   0   7-6.68690 21.2661   3
  -2   0  -7 22.5520 21.8218  14
   2   0   7-16.3745 22.6241   7
   2   0   8-19.4813 21.0606   7
   2   0   8-3.80389 18.9370   2
   2   0   8 45.9376 28.3345   3
   2   0   8-19.2841 25.3529   6
  -2   0  -8 26.5875 24.3805  11
  -2   0  -8-74.3819 36.9300   1
  -2   0  -8-6.49548 20.6682  14
   2   0   9-21.7233 26.7463   7
  -2   0  -9-45.7795 37.5367  14
   2   0   9-24.3166 39.7526   6
   2   0   9-60.2808 29.2370   2
   2   0   9-25.3431 33.9678   3
  -2   0  -9 9.22705 21.3514   9
  -2   0  -9 5.15729 28.8815   1
   2   0  10 427.172 82.0729   2
   2   0  10 430.280 94.4739   3
  -2   0 -10 371.159 75.5424   1
  -2   0 -10 430.993 96.0666  14
   2   0  10 445.794 87.0113   6
  -2   0 -11-127.648 56.6967  14
   2   0  11-36.5633 30.2712   2
   2   0  11-17.3691 27.6894   6
  -2   0 -11 22.7382 41.9348   1
   2   0  11-93.6364 49.2740   3
  -2   0 -12 171.573 70.9367   1
  -2   0 -12 180.180 69.0177  14
   2   0  12 124.703 55.7593   2
   2   0  12 37.8549 34.6109   6
   2   0  12 73.0785 60.2326   3
  -2   0 -13 41.2404 38.9580  14
   2   0  13-13.2117 38.7371   2
   2   0  13-13.0165 37.4075   6
   2   0  13 31.3072 45.9359   3
  -2   0 -13-16.3887 43.8398   1
   2   0  14 295.429 98.9070   2
  -2   0 -14 348.623 109.418  14
   2   0  14 490.504 125.108   3
  -2   0 -14 289.083 105.764   1
   2   0  14 326.289 87.5327   6
  -2   1  13-187.258 136.763  16
  -2   1  13-19.5095 47.1368   2
   2  -1 -13-16.6603 55.9007  14
  -2   1  13-38.6845 111.169  13
   2  -1 -13-32.2872 54.3042  15
   2  -1 -12 302.097 145.261  15
   2  -1 -12 224.595 79.8646  14
  -2   1  12-24.1095 32.8091  12
  -2   1  12 44.7113 150.906  13
  -2   1  12 3.02811 68.1468   2
   2  -1 -11 128.321 58.7248  14
  -2   1  11 232.635 87.6550  13
  -2   1  11 71.6515 51.7607   2
  -2   1  11 80.2164 46.0624  12
   2  -1 -11 95.2492 66.6892   1
  -2   1  11 172.687 76.9593  16
   2  -1 -11 74.1672 67.5712  15
   2  -1 -11 56.7616 57.4576   4
  -2   1  10 40.0909 32.6811   2
   2  -1 -10-14.6021 36.4778  15
  -2   1  10 207.334 72.3857  16
  -2   1  10 175.352 63.7667  12
   2  -1 -10 74.3706 45.9327   1
  -2   1  10 147.466 57.6512  13
   2  -1 -10 114.035 49.2121  14
   2  -1 -10 88.0674 45.7306   4
  -2   1   9 14.4606 30.1146  16
   2  -1  -9 11.3780 25.6209  15
   2  -1  -9 13.8152 24.0609  14
  -2   1   9 71.1399 39.0392   2
  -2   1   9 61.2530 42.7534  13
   2  -1  -9 4.02841 28.0079   1
   2  -1  -9 1.01049 17.4393   7
   2  -1  -9 14.1050 30.4974   4
   2  -1  -8 1517.55 138.523  15
  -2   1   8 1524.83 144.224  16
   2  -1  -8 1062.66 105.150  14
  -2   1   8 1293.03 133.810   2
   2  -1  -8 1285.69 144.667   4
   2  -1  -8 1144.34 133.924   1
  -2   1   7 2608.37 169.244  16
   2  -1  -7 2415.58 167.408   5
   2  -1  -7 2639.73 166.815  15
  -2   1   7 2287.90 170.780   2
   2  -1  -7 2242.68 176.401   1
   2  -1  -7 2082.90 165.127   4
   2  -1  -6 590.268 72.9762  15
   2  -1  -6 473.626 71.8416   5
   2  -1  -6 560.751 84.3056   4
  -2   1   6 505.405 68.2475  16
  -2   1   6 405.191 71.8401   2
   2  -1  -6 475.756 78.4416   1
   2  -1  -5 27.3628 18.4153   4
  -2   1   5-13.6418 19.0901   2
   2  -1  -5 54.9303 18.3950  15
   2  -1  -5 52.9760 13.4389   6
  -2   1   5 63.6708 20.3044  16
   2  -1  -5 90.3554 31.1344   5
   2  -1  -5 57.2599 16.6800   7
  -2   1   4 2272.78 115.545  16
   2  -1  -4 2275.78 128.486   7
   2  -1  -4 2313.11 113.940  15
   2  -1  -4 2216.80 84.0327   6
   2  -1  -4 2283.25 143.402   5
   2  -1  -4 1810.51 135.592   8
   2  -1  -4 2390.69 148.483   4
   2  -1  -3 1230.53 98.2546   7
   2  -1  -3 1197.02 71.0601  15
   2  -1  -3 1187.56 68.0338   6
  -2   1   3 1259.08 76.5031  16
   2  -1  -3 1192.96 99.7201   5
   2  -1  -3 1288.84 99.4364   8
   2  -1  -3 1341.93 105.469   4
  -2   1   3 1173.66 89.7378  10
  -2   1   2 22.2815 10.3542  16
   2  -1  -2 39.0729 13.2559  15
   2  -1  -2 9.30642 10.9769   5
   2  -1  -2 12.1622 8.65467   6
  -2   1   2 18.4853 14.7651  10
   2  -1  -2 32.1035 19.4832   7
   2  -1  -2 4.78832 11.7903   8
   2  -1  -2 18.5252 12.5111   4
   2  -1  -1 395.647 55.4527   7
   2  -1  -1 410.762 50.5772   6
   2  -1  -1 466.656 58.3543   5
  -2   1   1 427.023 56.3926  10
   2  -1  -1 437.516 54.6625   8
   2  -1   0 2966.65 139.893   5
   2  -1   0 3147.04 115.496   3
   2  -1   0 3138.48 140.798   6
  -2   1   0 3057.23 137.518  11
  -2   1   0 3110.13 151.782  10
   2  -1   0 3300.96 159.119   7
   2  -1   0 3056.75 144.079   8
   2  -1   1 505.900 63.5919   7
   2  -1   1 467.614 56.7104   6
   2  -1   1 470.667 48.9570   3
   2  -1   1 459.477 53.1399   5
  -2   1  -1 473.697 56.8924  11
  -2   1  -1 457.304 58.4386  10
   2  -1   1 443.574 56.2831   8
   2  -1   2-17.5426 18.8236   7
  -2   1  -2 6.09497 15.6220  14
  -2   1  -2-18.6006 7.83038  13
   2  -1   2-17.5799 16.7312   6
  -2   1  -2-9.52321 13.1299  11
   2  -1   2-27.1273 19.0265   5
  -2   1  -2-19.7293 20.9352  10
  -2   1  -2-15.9810 8.11421   1
   2  -1   2-21.4105 16.9522   3
   2  -1   2 4.33447 6.21237   2
   2  -1   2-30.5056 22.9452   8
  -2   1  -3 593.923 45.7043   1
   2  -1   3 519.716 67.5477   7
  -2   1  -3 515.916 66.5849  14
   2  -1   3 504.557 67.7028   6
   2  -1   3 473.760 58.7817   3
   2  -1   3 319.470 58.2597   5
  -2   1  -3 459.069 63.0304  11
  -2   1  -3 540.807 68.2491  10
   2  -1   3 457.830 60.7973   8
   2  -1   3 448.346 38.5935   2
  -2   1  -4 2339.27 102.335   1
   2  -1   4 2075.49 132.882   7
   2  -1   4 2106.47 140.620   6
   2  -1   4 2176.97 135.209   3
  -2   1  -4 2073.02 100.171  12
  -2   1  -4 2089.07 137.175  11
  -2   1  -4 2223.56 136.912  10
  -2   1  -4 2133.79 138.978  14
   2  -1   4 2051.61 124.039   8
   2  -1   4 1982.53 93.9785   2
   2  -1   5 1.77034 12.0410   2
  -2   1  -5 45.0707 25.7008  14
  -2   1  -5 48.1638 17.9287  12
   2  -1   5 47.1015 26.0072   6
  -2   1  -5 6.94383 13.1575  15
  -2   1  -5 35.4029 23.0739  11
   2  -1   5 25.7435 15.4728   7
  -2   1  -5 45.3914 25.6579  10
   2  -1   5 35.6037 23.3262   3
  -2   1  -5 37.1025 19.0785   1
   2  -1   5 45.0268 24.7264   8
   2  -1   6 10.4586 17.2298   3
  -2   1  -6 47.3368 26.0081  14
   2  -1   6 25.7021 18.7687   2
   2  -1   6 23.1237 18.8800   6
  -2   1  -6 2.30962 10.6024  12
  -2   1  -6 21.3107 19.2154  11
   2  -1   6 33.4470 22.8539  16
  -2   1  -6 34.0807 18.6019   1
  -2   1  -6 53.6412 24.3670  10
  -2   1  -6-23.5550 17.4972  15
   2  -1   6 15.9155 16.4289   7
   2  -1   6 31.2207 19.6158   8
   2  -1   7 599.888 75.3315  16
   2  -1   7 892.436 96.2036   7
  -2   1  -7 767.998 97.4926  11
  -2   1  -7 856.379 88.0118  15
   2  -1   7 775.654 99.9628   6
   2  -1   7 817.792 101.703   3
  -2   1  -7 952.536 101.177  10
  -2   1  -7 913.643 91.3475   9
   2  -1   7 912.901 94.5487   8
   2  -1   7 751.889 80.2347   2
  -2   1  -7 771.467 100.269  14
  -2   1  -7 891.396 89.5067   1
  -2  -1  -8 355.509 77.3727   1
  -2   1  -8 429.462 82.9598  14
   2   1   8 343.727 66.6070   7
   2  -1   8 315.219 56.5995   2
   2  -1   8 466.133 80.5418   6
   2   1   8 404.139 85.5871   6
  -2   1  -8 373.079 72.4706  11
  -2   1  -8 503.466 75.0632  15
   2  -1   8 474.189 73.1495   7
  -2   1  -8 541.454 85.2313  10
   2  -1   8 368.982 72.3697   3
  -2   1  -8 557.309 77.5547   9
   2   1   8 306.687 66.9816   2
   2   1   8 302.648 79.5974   3
  -2  -1  -8 326.648 86.1852  14
  -2   1  -8 472.024 78.5712   1
   2  -1   9-4.08680 25.2066  16
  -2   1  -9 9.12347 27.1518  15
  -2   1  -9-2.18328 22.5483  14
   2  -1   9 14.8205 26.9939   2
  -2  -1  -9-59.9143 36.0813  14
  -2  -1  -9-32.5054 36.0012   1
   2   1   9 49.6947 43.4028   6
  -2   1  -9 10.8096 46.0846  11
   2  -1   9-15.7976 18.6931   7
  -2   1  -9-58.6536 42.1838   1
   2  -1   9-25.6053 36.0711   3
   2   1   9-16.5098 32.8928   2
   2   1   9 53.8934 38.6400   3
  -2   1  -9 12.5284 25.6021   9
   2  -1   9-9.45553 31.2217   6
   2  -1  10-3.06589 34.8591  16
   2  -1  10 111.443 45.1773   2
  -2   1 -10 87.9447 43.8043  14
  -2  -1 -10 166.843 68.5797  14
   2  -1  10 116.551 51.1054   6
   2   1  10 86.0773 42.6981   6
  -2   1 -10 25.2183 54.0818  11
   2  -1  10 65.1793 39.3714   3
   2   1  10 54.0161 42.7438   2
  -2  -1 -10 88.9543 52.4726   1
   2   1  10 47.5593 36.0530   3
  -2   1 -10 106.602 57.2384  15
  -2   1 -10 121.155 49.9888   1
   2  -1  11 10.0304 36.8933  16
   2  -1  11-39.3352 40.0301   2
  -2   1 -11 101.254 52.7336  14
  -2  -1 -11 0.42903 39.5059  14
   2  -1  11 39.2724 38.8926   6
   2   1  11-38.8133 47.4649   6
   2   1  11-12.7704 34.0888   2
   2  -1  11 32.0196 33.7975   3
  -2   1 -11-11.4901 38.7125  11
  -2  -1 -11-2.67081 37.4385   1
  -2   1 -11-14.2134 47.6483   1
  -2   1 -11-50.2349 42.7266  15
   2   1  11 41.0853 44.6530   3
   2  -1  12-124.626 50.4361  16
  -2   1 -12 209.220 131.017  15
  -2  -1 -12 37.3992 39.9695  14
   2  -1  12 6.99756 35.5324   6
  -2   1 -12-64.5835 67.7878   1
   2  -1  12 43.3563 46.5476   3
  -2   1 -12 8.12595 87.9613  11
   2   1  12-43.2254 50.0788   3
  -2   1 -12 199.179 107.588  14
   2  -1  12 91.3038 51.7154   2
  -2  -1 -12 20.8649 57.7524   1
   2  -1  13-4.03493 47.3223  16
   2  -1  13-57.5897 58.0356   2
  -2   1 -13 57.4630 146.875  14
  -2  -1 -13 16.5247 31.8340  14
   2  -1  13 63.0360 50.6326   6
  -2   1 -13 24.6732 57.1973   1
   2  -1  13 16.7790 33.9302   3
   2   1  13 76.3785 64.9052   3
   2  -1  14-14.6911 53.4912  16
   2  -1  14-23.3139 63.6553   2
  -2   1 -14 13.1745 56.6753  14
  -2   1 -14 86.2403 83.7859   1
   2  -1  14-37.6399 57.2598   6
   2  -1  14 41.1780 39.3590   3
  -2   1 -14-69.9661 63.2593  15
  -2   2  15-3.02081 80.2303  16
  -2   2  15-61.5719 65.4114   2
   2  -2 -15 3.93765 71.6626  15
  -2   2  15 4.83929 71.0200  13
   2  -2 -15-85.4991 73.5645   1
  -2   2  14 42.7403 57.0243  16
  -2   2  14-2.50059 42.0764   2
   2  -2 -14-19.8695 62.5729  15
   2  -2 -14 73.6644 67.6388   1
  -2   2  14-38.8237 49.4886  13
   2  -2 -14 37.9412 60.2276   4
  -2   2  13 26.7555 60.3303   2
   2  -2 -13-12.4651 54.3372  15
   2  -2 -13 66.8320 53.1031   1
  -2   2  13 137.132 68.9284  16
  -2   2  13 14.5650 64.5610  13
   2  -2 -13 147.063 79.9087   4
   2  -2 -12 81.0582 64.9136   4
  -2   2  12 343.462 110.912  16
  -2   2  12 159.311 67.7971   2
   2  -2 -12 275.862 86.7673   1
   2  -2 -11 15.8338 37.7152   4
  -2   2  11-43.5382 43.8187  16
   2  -2 -11-4.41862 48.3439  15
  -2   2  11-3.10024 28.5557   2
   2  -2 -11 105.663 46.5683  14
  -2   2  11-38.6429 40.7206  13
  -2   2  11-33.4166 32.8765  12
   2  -2 -11-11.7992 44.7433   1
   2  -2 -11 4.20223 27.2939   5
  -2   2  10 55.7014 35.9628  16
  -2   2  10 63.3570 37.8150   2
   2  -2 -10 48.4407 26.3350  14
   2  -2 -10 55.2983 39.4532  15
  -2   2  10-29.1224 28.6814  13
  -2   2  10 87.1288 43.3537  12
   2  -2 -10 4.22848 27.5621   4
   2  -2 -10 7.36702 25.9517   5
   2  -2 -10 35.9559 31.9759   1
   2  -2  -9 188.766 50.4457  15
   2  -2  -9 120.602 34.5341  14
  -2   2   9 150.673 45.6920   2
  -2   2   9 195.191 55.1882  13
  -2   2   9 172.806 49.0672  12
  -2   2   9 148.281 44.1088  16
   2  -2  -9 31.9879 53.8487   5
   2  -2  -9 170.358 48.3631   1
   2  -2  -9 193.757 60.3593   4
  -2   2   8 137.379 39.3505  16
   2  -2  -8 35.7044 46.2111   7
   2  -2  -8 244.931 62.5742   4
  -2   2   8 248.290 41.8266   9
   2  -2  -8 243.940 54.1568  15
   2  -2  -8 148.646 33.3549  14
  -2   2   8 187.148 47.0844   2
  -2   2   8 248.900 55.7302  13
   2  -2  -8 41.9036 51.2187   5
  -2   2   8 219.134 52.7629  12
   2  -2  -8 195.387 49.8084   1
  -2   2   7 158.362 37.1481  16
   2  -2  -7 161.095 50.6044   4
   2  -2  -7 157.901 36.0351  15
  -2   2   7 184.665 43.1481   2
  -2   2   7 11.9800 45.4940  13
   2  -2  -7 27.4257 33.4765   7
  -2   2   7 144.015 39.1131  12
   2  -2  -7 174.752 44.5423   5
   2  -2  -7 136.857 25.9854  14
  -2   2   7 117.547 28.9293   9
   2  -2  -7 87.8045 32.8726   1
  -2   2   6 144.211 34.1274  16
   2  -2  -6 171.138 35.4817  15
   2  -2  -6 154.812 44.5303   4
   2  -2  -6 48.1646 37.6727   7
  -2   2   6 121.438 36.4550  13
   2  -2  -6 129.843 23.2213  14
  -2   2   6 123.264 30.8968   2
  -2   2   6 153.222 39.9673  12
  -2   2   6 149.033 34.8296  10
   2  -2  -6 145.745 41.9661   5
  -2   2   6 135.369 30.0969   9
   2  -2  -6 179.953 40.4025   1
   2  -2  -6 238.965 41.6851   8
  -2   2   5 168.720 33.6618  16
   2  -2  -5 174.026 31.8440  15
   2  -2  -5 190.488 24.5445  14
  -2   2   5 181.405 40.3897  13
  -2   2   5 188.414 42.2249  12
  -2   2   5 208.649 40.4640  10
   2  -2  -5 245.455 50.3655   4
  -2   2   5 189.917 34.1848   9
   2  -2  -5 204.101 44.9967   5
  -2   2   5 195.820 38.0042   2
   2  -2  -5 201.112 39.4328   1
   2  -2  -5 15.2974 37.4420   7
   2  -2  -5 174.033 32.5707   8
   2  -2  -4 697.797 74.4006   7
   2  -2  -4 602.734 52.7112  15
  -2   2   4 676.904 58.1305  16
   2  -2  -4 670.785 46.2372   6
  -2   2   4 687.147 73.0100  13
  -2   2   4 582.711 71.8661  12
   2  -2  -4 656.865 76.9527   5
  -2   2   4 629.776 68.5480  10
  -2   2   4 616.996 58.2876   2
   2  -2  -4 693.527 67.6390   8
   2  -2  -4 668.823 75.3157   4
   2  -2  -4 658.692 63.0090   1
   2  -2  -3 80.8057 21.4555   8
  -2   2   3 104.194 20.5738  16
   2  -2  -3 86.5106 25.3181   4
   2  -2  -3 98.0836 18.8055  15
  -2   2   3 78.3431 23.7052  12
   2  -2  -3 107.539 30.0843   7
  -2   2   3 75.7929 21.5292  13
   2  -2  -3 83.8720 16.3954   6
  -2   2   3 79.9748 18.6676   2
   2  -2  -3 125.860 26.8970   1
  -2   2   3 115.649 21.6084  11
  -2   2   3 80.6812 26.0602  10
   2  -2  -3 116.016 29.7965   5
   2  -2  -2 46.6190 19.3371   8
  -2   2   2 128.536 27.6347   2
   2  -2  -2 59.4455 16.4636   6
   2  -2  -2 81.7337 24.2925   4
  -2   2   2 71.1773 23.1012  13
  -2   2   2 78.5746 20.1979  11
  -2   2   2 40.1091 15.3527  10
   2  -2  -2 49.3491 10.6555  15
   2  -2  -2 80.9933 28.1340   7
  -2   2   2 54.6265 10.1001  16
  -2   2   2 73.8314 24.7454  12
   2  -2  -2 56.2691 21.7155   5
  -2   2   1 238.875 41.9382  12
   2  -2  -1 201.026 41.5863   7
   2  -2  -1 227.350 35.4722   6
  -2   2   1 215.046 35.5914  13
  -2   2   1 203.204 33.8959  11
   2  -2  -1 213.356 40.4015   5
   2  -2  -1 220.472 23.0604   3
  -2   2   1 194.794 39.4120  10
   2  -2  -1 211.521 39.7221   8
   2  -2  -1 224.712 33.8838   4
  -2   2   0 6776.18 166.066  14
   2  -2   0 6831.04 206.694   6
   2  -2   0 6741.85 153.523   3
  -2   2   0 6641.30 172.789  13
  -2   2   0 7045.38 225.551  12
  -2   2   0 6751.49 200.989  11
   2  -2   0 7244.22 222.071   5
   2  -2   0 7317.87 245.506   7
   2  -2   0 6822.82 218.904   8
   2  -2   0 6787.68 176.175   4
  -2   2  -1 973.226 71.8466  14
   2  -2   1 920.884 80.9678   6
   2  -2   1 900.734 65.3629   3
  -2   2  -1 946.335 61.0994  13
  -2   2  -1 1064.14 85.6375  12
   2  -2   1 1028.53 94.0093   7
  -2   2  -1 916.489 78.4145  11
   2  -2   1 990.191 80.5669   5
   2  -2   1 866.423 54.0992   4
   2  -2   1 945.291 83.2231   8
   2  -2   2 3326.61 173.490   7
  -2   2  -2 3076.74 140.904  14
   2  -2   2 3078.02 156.750   6
   2  -2   2 2991.29 131.975   3
  -2   2  -2 3161.80 145.360  12
  -2   2  -2 2970.86 152.246  11
   2  -2   2 3125.46 138.898   5
  -2   2  -2 2950.16 150.566   9
   2  -2   2 3203.97 91.9674   4
   2  -2   2 3040.74 154.041   8
  -2   2  -3 2876.97 92.2123  15
   2  -2   3 2861.16 126.686   5
   2  -2   3 2911.62 160.198   6
   2  -2   3 2975.43 143.759   3
  -2   2  -3 3078.50 141.367  12
  -2   2  -3 2753.91 153.763  11
  -2   2  -3 3026.25 153.490   9
  -2   2  -3 2993.67 149.623  14
   2  -2   3 2964.61 154.220   8
   2  -2   3 3063.98 166.937   7
   2  -2   4 1597.03 83.2281  16
  -2   2  -4 1685.64 84.1262  15
   2  -2   4 1830.64 134.544   6
   2  -2   4 1776.11 121.306   3
  -2   2  -4 1958.26 110.771  12
  -2   2  -4 1882.32 129.932  14
  -2   2  -4 1736.85 129.280  11
   2  -2   4 1696.33 93.5438   5
  -2   2  -4 1792.62 128.684  10
   2  -2   4 1853.92 134.426   7
  -2   2  -4 1789.23 121.591   9
   2  -2   4 1773.08 121.224   8
   2  -2   5 261.314 47.2368   8
   2  -2   5 175.043 50.3006   2
   2  -2   5 217.100 33.8730  16
  -2   2  -5 246.212 38.1625  15
   2  -2   5 244.566 52.4553   7
  -2   2  -5 235.037 50.7589  14
   2  -2   5 254.374 37.5787   5
  -2   2  -5 268.878 54.2328  11
   2  -2   5 253.594 50.4879   3
  -2   2  -5 262.676 49.8391  10
  -2   2  -5 246.062 48.1345   9
  -2   2  -5 245.273 40.4220   1
   2  -2   5 240.571 53.3776   6
   2  -2   6 357.224 51.7509  16
   2  -2   6 478.459 72.3689   7
   2  -2   6 446.575 71.8907   3
  -2   2  -6 429.897 54.4727  15
  -2   2  -6 398.337 72.3754  14
  -2   2  -6 390.365 68.3608  11
  -2   2  -6 439.840 68.1733  10
  -2   2  -6 485.543 73.0128   9
   2  -2   6 369.493 65.1144   2
   2  -2   6 454.996 62.7159   8
  -2   2  -6 470.072 60.2227   1
   2  -2   6 485.607 76.4053   6
  -2   2  -7 1360.68 108.259  15
  -2   2  -7 1361.83 136.569  14
   2  -2   7 1307.70 132.331   6
   2  -2   7 1242.92 125.866   3
   2  -2   7 1417.24 127.736   7
  -2   2  -7 1383.30 132.874  11
  -2   2  -7 1344.50 116.579  10
   2  -2   7 1229.63 100.292  16
  -2   2  -7 1542.46 127.529   9
   2  -2   7 1201.69 123.855   2
   2  -2   7 1299.98 108.041   8
  -2   2  -7 1332.52 111.979   1
   2  -2   8 1161.51 120.737   7
  -2   2  -8 1053.05 103.266  15
  -2   2  -8 1054.73 129.913  14
   2  -2   8 1068.05 127.984   6
   2  -2   8 980.866 120.089   3
  -2   2  -8 984.338 119.459  11
  -2   2  -8 1044.45 107.913  10
  -2   2  -8 1112.10 115.417   9
   2  -2   8 802.425 114.965   2
   2  -2   8 979.236 96.2799   8
  -2   2  -8 1094.11 114.800   1
   2  -2   8 759.024 86.6035  16
   2  -2   9 140.006 58.3454   2
   2  -2   9 123.830 40.3291  16
   2  -2   9 118.214 43.1297   7
  -2   2  -9 71.1766 36.5613  15
  -2   2  -9 47.3065 22.9721   1
   2  -2   9 79.1191 44.1510   6
  -2   2  -9 122.536 52.9603  14
   2  -2   9 110.631 48.3173   3
  -2   2  -9 70.7060 40.5357  11
  -2   2  -9 76.7046 39.8721  10
   2  -2   9 47.5048 30.0396   8
   2  -2  10 84.0359 60.1876   2
   2  -2  10 3.94759 24.7863  16
  -2   2 -10-1.64902 33.6374  14
   2  -2  10 42.4268 29.3266   6
  -2   2 -10-67.6998 42.5866  15
   2  -2  10 30.5089 36.6610   3
  -2   2 -10 1.04874 26.7510  11
  -2   2 -10-15.6339 34.4596   1
  -2   2 -10 67.3904 44.7809  10
   2  -2  10 29.4893 30.5632   8
   2  -2  11-1.26986 28.6271  16
  -2   2 -11-10.9844 36.5463  15
  -2   2 -11 57.8072 37.8922  14
   2  -2  11 93.1305 59.5770   6
   2  -2  11-74.7231 44.4817   3
  -2   2 -11 23.4307 47.7596  11
  -2   2 -12-2.91242 41.1444  15
  -2   2 -12 57.7937 55.6762  14
   2  -2  12-147.091 79.7750   6
   2  -2  12-0.39212 25.2992  16
   2  -2  12-79.6814 59.5145   3
  -2   2 -12 5.27029 52.3433  11
   2  -2  13-18.0104 38.1160  16
  -2   2 -13-31.1000 57.9771  14
   2  -2  13-35.1905 44.1828   6
   2  -2  13-126.241 76.0725   3
  -2   2 -13 4.77137 62.6122  11
  -2   2 -14-154.939 105.100  14
   2  -2  14-71.6603 42.6134   6
   2  -2  14-106.379 74.6211   3
  -2   2 -14-8.73709 59.1102  11
   2  -3 -15-31.1816 62.7354  15
  -2   3  15-18.1588 41.7984  16
  -2   3  15 8.71331 63.1981  13
   2  -3 -15 95.2647 58.7207   1
  -2   3  15-56.2856 85.1670   2
   2  -3 -15-22.7546 78.7966   4
   2  -3 -14 9.86636 68.7722   4
  -2   3  14-5.94974 44.1664  16
   2  -3 -14 5.35718 56.3202  15
  -2   3  14 9.01978 40.4253  13
  -2   3  14 24.3100 47.6097   2
   2  -3 -14 35.3308 64.1518   1
   2  -3 -13-1.91840 56.3995   4
  -2   3  13 28.0210 36.2123  16
   2  -3 -13 80.0221 60.7690  15
  -2   3  13 10.8140 54.6939   2
  -2   3  13 15.9679 40.7578  13
   2  -3 -13 55.1050 43.4138   1
   2  -3 -12 0.24140 36.3873   4
   2  -3 -12 18.2835 46.1074  15
  -2   3  12 23.6330 45.0512   2
  -2   3  12-21.8217 33.2604  13
   2  -3 -12 46.3624 30.7527   5
   2  -3 -12 19.1592 32.7564   1
   2  -3 -11 99.0161 72.4541  15
  -2   3  11 189.771 58.2277  16
   2  -3 -11 6.47795 73.9434   4
   2  -3 -11 191.048 73.2578   1
  -2   3  11 39.3598 64.2685   2
  -2   3  11 140.792 82.7199  13
  -2   3  11 318.114 69.6738  12
   2  -3 -11 350.161 73.3307   5
  -2   3  10-31.2017 31.3355  16
   2  -3 -10-20.6551 26.9028   4
   2  -3 -10-52.2904 36.7426  15
   2  -3 -10 12.7088 21.2840  14
   2  -3 -10-34.6202 40.2652   1
  -2   3  10-36.3061 35.4523  13
  -2   3  10 0.74827 25.9298   2
  -2   3  10-16.0515 25.4846  12
   2  -3 -10-1.37006 27.7133   5
  -2   3   9 63.1490 40.7761  16
   2  -3  -9 0.90752 49.1682   4
   2  -3  -9 148.881 64.3317  14
  -2   3   9 14.5810 36.6116  13
  -2   3   9 10.1404 15.1636   3
  -2   3   9 9.63956 41.7242   2
  -2   3   9 86.7435 39.4299  12
   2  -3  -9 59.8841 30.3389  15
   2  -3  -9 17.4534 41.8061   5
   2  -3  -9 106.823 54.8607   1
   2  -3  -8-1.14935 25.6277   4
  -2   3   8 4.18127 23.5348  13
  -2   3   8 23.3872 14.8159   3
  -2   3   8 13.5613 22.1612  12
  -2   3   8-5.35417 18.0861   2
   2  -3  -8 44.7255 32.4213   1
  -2   3   8 7.03142 13.0910  10
   2  -3  -8-10.3833 39.1050   5
   2  -3  -8 11.3586 21.1910  15
  -2   3   8 18.4930 20.0991  16
   2  -3  -8-2.20904 14.4524   8
   2  -3  -7 839.767 91.8316   1
  -2   3   7 758.955 86.2736  16
   2  -3  -7 818.079 87.4106  15
  -2   3   7 808.174 96.4100  12
  -2   3   7 765.166 75.7175  10
   2  -3  -7 870.878 76.1546   8
   2  -3  -6 56.0729 25.6307   8
   2  -3  -6-1.75545 19.9660   7
   2  -3  -6 3.84965 29.6319   4
   2  -3  -6 82.8295 29.6769  15
  -2   3   6 3.75400 23.9776  13
  -2   3   6 50.5242 25.0030  16
  -2   3   6 94.0282 34.4214  12
  -2   3   6 76.8278 28.3131   2
  -2   3   6 51.8054 23.1798  10
   2  -3  -6 74.9961 34.5854   5
  -2   3   6 22.1501 21.9233   9
   2  -3  -6 32.9977 20.8441   1
  -2   3   5 2576.54 164.768  12
   2  -3  -5 2678.44 168.863   5
   2  -3  -5 2704.08 139.774   1
   2  -3  -5 2415.44 128.626  15
  -2   3   5 2418.72 130.883   9
  -2   3   5 2515.28 136.631  16
   2  -3  -5 2818.94 143.764   8
   2  -3  -5 2629.27 168.548   4
  -2   3   4 14.4469 13.9695  16
   2  -3  -4 16.1231 15.2684   7
   2  -3  -4 0.99475 18.3360   4
   2  -3  -4-8.28208 13.7406   1
  -2   3   4-8.14102 16.4747  13
  -2   3   4 4.03263 15.3633  12
  -2   3   4 14.6468 12.1344  11
  -2   3   4 22.6239 15.5088   2
   2  -3  -4 19.8747 17.7076  15
   2  -3  -4 11.5507 13.4666   8
  -2   3   4-5.56201 14.7620   9
   2  -3  -4-4.99959 15.4897   5
   2  -3  -3 87.9418 23.8056   8
   2  -3  -3 131.495 33.5892   7
   2  -3  -3 101.924 29.0119   4
   2  -3  -3 108.547 22.5580   1
  -2   3   3 118.217 33.7511  13
  -2   3   3 122.673 39.0043  12
  -2   3   3 106.312 23.1654   2
  -2   3   3 108.568 28.7813   9
   2  -3  -3 99.6430 30.8253   5
  -2   3   2 155.227 34.8016  13
   2  -3  -2 133.812 32.8106   8
   2  -3  -2 156.646 35.0471   4
   2  -3  -2 129.591 34.3000   7
  -2   3   2 91.1188 26.8544  12
   2  -3  -2 119.063 18.8059   1
  -2   3   2 130.722 21.9494   2
  -2   3   2 96.1584 25.4560   9
   2  -3  -2 126.078 35.7920   5
   2  -3  -1 2442.71 147.778   7
  -2   3   1 2254.86 74.8391  14
   2  -3  -1 2614.60 134.298   6
  -2   3   1 2240.76 124.124  13
  -2   3   1 2297.04 144.807  12
   2  -3  -1 2453.25 149.808   5
   2  -3  -1 2307.46 67.1494   1
  -2   3   1 2314.56 135.918   9
   2  -3  -1 2369.19 136.816   8
   2  -3  -1 2506.86 129.281   4
  -2   3   1 2361.51 71.5720   2
   2  -3   0 367.739 60.3435   7
  -2   3   0 306.759 36.5208  14
   2  -3   0 336.479 51.6969   6
  -2   3   0 318.690 49.7044  12
   2  -3   0 314.892 52.8985   5
  -2   3   0 321.689 53.1445   9
   2  -3   0 336.756 51.3806   8
   2  -3   0 354.980 47.1950   4
   2  -3   1 54.1610 19.5380   8
   2  -3   1 63.5361 24.8282   7
  -2   3  -1 46.5785 14.4114  14
   2  -3   1 48.6306 9.68454   4
   2  -3   1 40.4633 18.5857   6
  -2   3  -1 41.6545 16.1666  12
  -2   3  -1 22.9700 16.2428   9
   2  -3   1 50.0123 17.0356   5
   2  -3   2 253.630 17.6167  16
   2  -3   2 376.742 61.8157   7
  -2   3  -2 307.315 20.3410  15
  -2   3  -2 401.610 53.5640  14
   2  -3   2 412.082 63.4183   6
  -2   3  -2 369.862 56.4271  12
   2  -3   2 454.118 59.8175   5
  -2   3  -2 370.843 58.3675   9
   2  -3   2 370.803 57.0768   8
   2  -3   2 367.525 35.5984   4
   2  -3   3 5.58289 14.7757   8
   2  -3   3 5.12996 5.60095  16
  -2   3  -3 1.54307 10.1400  15
   2  -3   3 7.30411 16.9104   7
   2  -3   3 9.84774 9.86530   4
  -2   3  -3 31.2197 21.0574  14
   2  -3   3 3.99798 16.5065   6
   2  -3   3 3.04247 14.2515   3
  -2   3  -3-15.1092 28.6162   9
   2  -3   3 36.6848 18.8327   5
   2  -3   4 1221.43 116.101   7
  -2   3  -4 1107.10 64.9080  15
  -2   3  -4 1270.11 116.722  14
   2  -3   4 1293.81 115.137   3
   2  -3   4 1285.24 122.217   6
   2  -3   4 1284.99 95.1148   5
  -2   3  -4 1344.89 116.418   9
   2  -3   4 967.317 60.4581  16
   2  -3   4 1322.05 117.485   8
   2  -3   5 109.971 35.5893   8
   2  -3   5 95.2150 24.5261  16
   2  -3   5 82.0113 37.7590   7
  -2   3  -5 99.4535 25.4930  15
  -2   3  -5 163.486 47.7902  14
   2  -3   5 122.686 43.0346   6
   2  -3   5 58.4989 30.2068   3
   2  -3   5 104.764 30.6982   5
  -2   3  -5 112.231 40.3741   9
   2  -3   6 170.308 50.4488   8
   2  -3   6 57.9227 27.0142  16
   2  -3   6 117.674 41.5037   7
  -2   3  -6 100.182 32.7460  15
  -2   3  -6 86.0067 42.0564  14
   2  -3   6 106.453 38.4705   3
   2  -3   6 115.572 46.0539   6
   2  -3   6 94.2042 26.3538   5
  -2   3  -6 124.748 39.9779   9
   2  -3   7 465.462 64.2909  16
   2  -3   7 605.403 96.5198   3
   2  -3   7 568.810 93.2569   6
  -2   3  -7 562.334 98.9487  14
   2  -3   7 269.637 59.7262   7
  -2   3  -7 604.348 75.6052  15
   2  -3   7 572.818 84.2195   8
   2  -3   8-57.1710 38.9232   8
  -2   3  -8-16.0799 41.6105  14
   2  -3   8 17.1131 33.6070   6
   2  -3   8 20.2305 27.6561   3
   2  -3   8 5.47250 21.4987  16
  -2   3  -8 24.7980 37.1482  11
   2  -3   9 168.535 45.2077   8
   2  -3   9 121.372 40.9082  16
  -2   3  -9 162.403 52.4259  15
  -2   3  -9 186.940 72.6858  14
   2  -3   9 16.0297 27.3360   3
   2  -3   9 176.902 60.9082   6
  -2   3  -9 46.4132 63.4126  11
  -2   3  -9 202.130 67.2474  10
   2  -3  10 21.2443 24.6898   8
   2  -3  10-1.14408 29.8945  16
  -2   3 -10 0.09281 42.1321  15
  -2   3 -10-17.8205 51.2426  14
   2  -3  10 75.3018 44.1206   6
   2  -3  10-5.48541 26.0381   3
  -2   3 -10 13.9043 38.6414  11
  -2   3 -10-35.3497 45.7128  10
   2  -3  11 532.010 120.963   3
   2  -3  11 352.829 103.193   6
  -2   3 -12 263.402 135.653  14
  -2   3 -12 12.0443 102.186  11
   2  -4 -15-27.6647 65.3934   4
  -2   4  15-34.8899 71.3177   2
   2  -4 -15-51.7167 68.7120  15
  -2   4  15 18.8643 61.7150  13
   2  -4 -15 111.066 67.4926   1
  -2   4  15-59.4489 57.6138  16
   2  -4 -14 36.9306 64.1338   1
   2  -4 -14-6.64210 54.9099   4
  -2   4  14 15.3805 35.3250  16
   2  -4 -14-0.93723 36.6817  15
  -2   4  14 14.7325 34.1841   2
  -2   4  14 19.8190 35.0176  13
   2  -4 -13-33.5463 42.7367   4
   2  -4 -13 46.6706 47.5674   1
  -2   4  13 2.15940 30.2578   2
   2  -4 -13 22.8565 58.6310  15
  -2   4  13-16.2735 28.0505  13
  -2   4  13-41.5836 35.8313  16
   2  -4 -12 33.8636 35.1876   1
  -2   4  12 50.6123 40.2945  16
   2  -4 -12 12.7222 63.0457   4
  -2   4  12 20.3992 32.4356  13
  -2   4  12 0.11001 45.5981   2
   2  -4 -12 125.785 49.5931   5
   2  -4 -12-1.12621 46.3200  15
  -2   4  11-66.3653 37.0027  16
   2  -4 -11-0.35100 50.7462   4
   2  -4 -11-18.7264 26.3414  15
  -2   4  11 13.7576 48.9660  13
  -2   4  11 2.80630 30.6955   2
   2  -4 -11 35.5534 32.4117   1
   2  -4 -11-11.1320 32.6594   5
  -2   4  10 24.0739 34.3718  16
   2  -4 -10-1.74569 34.6248   4
   2  -4 -10 19.1225 34.4143  15
  -2   4  10 20.5255 38.0013  13
  -2   4  10 7.56411 22.3400   2
   2  -4 -10 9.05798 23.8897   5
   2  -4 -10 63.9391 48.7408   1
   2  -4  -9 117.755 45.0579  15
   2  -4  -9 140.226 48.6016   1
  -2   4   9 116.716 47.0043  16
   2  -4  -9-11.0555 36.5487   4
  -2   4   9 16.6154 52.3019   2
  -2   4   9 3.36334 47.4908  13
   2  -4  -9 25.9636 45.6349   5
   2  -4  -8-23.7620 15.9183   8
  -2   4   8-50.0371 29.0495  16
   2  -4  -8 4.11980 24.6931   4
  -2   4   8-0.08067 26.9351  13
   2  -4  -8-18.2197 35.1989   1
  -2   4   8 2.37743 14.6861  10
  -2   4   8-7.41040 33.3653   2
   2  -4  -8 22.0677 24.4819  15
   2  -4  -8-5.36357 26.4658   5
  -2   4   7 22.0925 25.9194  16
   2  -4  -7 7.01910 15.7356  15
   2  -4  -7 11.5128 43.1586   4
  -2   4   7 14.1293 26.4020  13
  -2   4   7 47.9893 31.1316  12
  -2   4   7-13.3901 19.6699   2
   2  -4  -7 1.42335 28.7547   5
   2  -4  -7 3.35602 23.0027   1
   2  -4  -7 30.2303 20.5022   8
   2  -4  -6 923.339 96.9441   1
  -2   4   6 593.598 46.9920   3
  -2   4   6 756.004 96.3996  12
   2  -4  -6 885.652 89.8291   8
   2  -4  -5 470.205 64.7269   1
  -2   4   5 324.286 29.3306   3
  -2   4   5 187.121 73.2345  13
  -2   4   5 498.869 80.1039  12
   2  -4  -5 490.582 82.1424   5
   2  -4  -5 567.379 72.3557   8
   2  -4  -5 55.2730 83.9227   4
   2  -4  -4 106.134 34.4698   8
   2  -4  -4 127.978 48.3673   4
  -2   4   4 7.73755 31.3456  13
  -2   4   4 53.5806 26.9290  12
   2  -4  -4 120.189 31.0376   1
  -2   4   4 6.14389 31.0181   2
   2  -4  -4 12.7580 49.0506   5
   2  -4  -3 91.5453 32.1270   8
   2  -4  -3 16.0219 15.5300   7
  -2   4   3 59.2858 23.4130  13
  -2   4   3 94.5423 39.4320  12
   2  -4  -3 106.740 35.4143   4
  -2   4   3 98.3867 26.1163   2
   2  -4  -3 89.9686 25.8669   1
   2  -4  -3 114.130 42.5582   5
  -2   4   2 353.805 40.8455   2
   2  -4  -2 255.460 48.0380   7
   2  -4  -2 438.104 45.8581   1
   2  -4  -2 409.645 71.4699   5
  -2   4   2 341.718 57.9622   9
   2  -4  -2 314.826 52.6171   8
   2  -4  -2 489.429 69.7213   4
   2  -4  -1 91.5216 31.5255   7
   2  -4  -1 145.321 41.5154   4
  -2   4   1 186.955 47.9282   9
   2  -4  -1 151.575 43.6928   5
   2  -4  -1 134.199 38.5701   8
   2  -4   0 899.041 94.4159   7
   2  -4   0 1177.85 110.108   5
  -2   4   0 1163.10 106.762   9
   2  -4   0 964.770 93.2574   8
   2  -4   0 853.806 80.1496   4
   2  -4   1-1.02523 19.9985   8
   2  -4   1 14.7714 20.0080   7
  -2   4  -1-1.19981 17.3166   9
   2  -4   1 5.92631 13.9202   5
   2  -4   2 27.7926 14.6427   8
   2  -4   2 27.1217 17.0306   7
  -2   4  -2 21.0505 26.3783   9
   2  -4   2 51.4297 25.7575   5
   2  -4   3 207.764 47.4404   8
   2  -4   3 145.606 41.4490   7
   2  -4   3 74.6009 36.7882   6
   2  -4   3 231.226 46.1358   5
  -2   4  -4 573.667 71.4824  15
   2  -4   4 545.691 92.8865   6
   2  -4   4 741.033 78.1610   5
   2  -4   4 695.504 88.6440   8
   2  -4   5 21.9672 16.9181  16
   2  -4   5-1.21505 21.7048   8
   2  -4   5-5.92937 24.3182   6
   2  -4   5 19.8110 21.8420   5
   2  -4   6 16.8550 23.2213   8
  -2   4  -6 10.9296 30.3792  15
   2  -4   6 55.5801 28.8267  16
  -2   4  -6 102.779 54.4256  14
   2  -4   6 36.8937 41.0064   6
   2  -4   6 18.3924 18.5385   5
  -2   4  -7 65.0942 25.1373  15
  -2   4  -7 130.114 65.0568  14
   2  -5 -14-27.3424 42.2733   4
   2  -5 -13-0.91714 47.1620   4
  -2   5  13 18.0655 63.8275  13
  -2   5  13-14.4893 43.3229   2
   2  -5 -13-14.1566 42.6852   1
   2  -5 -12 13.2830 56.0460   4
  -2   5  12 13.4742 57.8105  13
  -2   5  12 8.31588 54.7802   2
   2  -5 -12 26.5199 49.0304   5
   2  -5 -12 33.3031 42.9680   1
   2  -5 -11-16.2528 40.2666   4
   2  -5 -11 22.2316 52.8884   1
  -2   5  11 3.64503 35.5478  13
  -2   5  11 17.3023 40.7953   2
   2  -5 -11 5.55279 34.1635   5
   2  -5 -10-6.20837 30.2854   4
  -2   5  10-7.69496 36.2675  13
   2  -5 -10 4.15544 43.4095   1
  -2   5  10 7.82589 37.0046   2
   2  -5 -10-4.04702 52.1312   5
   2  -5  -9 1.13292 40.7869   4
  -2   5   9 2.56981 34.7024  13
  -2   5   9 3.28377 31.6656   2
   2  -5  -9 6.65082 39.4912   5
   2  -5  -9 51.9314 42.1376   1
   2  -5  -8 5.70402 21.1997   8
   2  -5  -8 3.43155 30.0557   4
   2  -5  -8-11.4885 28.1377   1
  -2   5   8 16.8121 31.7188  13
  -2   5   8-9.92892 27.6112   2
   2  -5  -8 5.89560 42.2570   5
   2  -5  -7-18.4168 24.8961   8
   2  -5  -7 26.0282 37.8302   1
   2  -5  -7-1.71416 31.9543   4
  -2   5   7-73.5873 35.9871  13
  -2   5   7 9.28800 21.2299   2
   2  -5  -7-4.28254 24.5855   5
   2  -5  -6 4.51108 56.2005   4
  -2   5   6 28.8747 59.0815   2
   2  -5  -6 53.7536 60.1907   5
   2  -5  -6 139.502 48.5880   1
   3  -1  -3 239.465 59.2876   7
   3  -1  -3 189.059 52.8198   5
   3  -1  -2 8.49855 21.7812   7
   3  -1  -2 3.20252 21.3874   6
   3  -1  -1 1200.65 134.515   7
   3  -1  -1 1176.80 120.555   6
  -3   1   1 1126.35 120.040  10
   3  -1  -1 1146.18 132.572   8
   3  -1   0 2647.00 201.230   7
   3  -1   0 2499.13 181.160   6
   3  -1   0 1915.75 139.032   3
  -3   1   0 2474.29 175.106  10
   3  -1   0 2607.36 192.895   8
   3  -1   1 11.7574 21.4510   7
   3  -1   1 34.5940 23.8665   6
  -3   1  -1 0.56665 25.9726  10
   3  -1   1-6.47603 24.6814   3
   3  -1   1 18.3394 31.2255   8
  -3   1  -2 245.315 29.5081   1
   3  -1   2 272.755 71.6094   7
   3  -1   2 346.404 64.6437   3
   3  -1   2 312.379 69.8031   6
  -3   1  -2 252.987 57.0993  10
   3  -1   2 212.748 56.3942   8
   3  -1   2 227.844 27.4446   2
   3  -1   3 2804.11 209.853   7
   3  -1   3 2575.86 198.669   6
   3  -1   3 2622.69 176.270   3
  -3   1  -3 2519.14 185.138  10
  -3   1  -3 2734.72 111.292   1
   3  -1   3 2364.17 181.978   8
   3  -1   3 2428.49 102.677   2
  -3   1  -4 315.853 44.5971   1
   3  -1   4 285.156 71.4046   7
   3  -1   4 325.190 73.6422   6
   3  -1   4 256.969 39.9980   2
  -3   1  -4 213.839 56.8199  11
  -3   1  -4 290.967 63.3469  10
   3  -1   4 270.591 57.2631   3
   3  -1   4 221.724 58.6704   8
   3  -1   5 194.646 58.2870   7
  -3   1  -5 66.8234 34.6454  14
  -3   1  -5 181.670 42.6454  12
   3  -1   5 157.430 52.0152   6
   3  -1   5 155.033 36.0859   2
  -3   1  -5 166.669 53.3433  11
  -3   1  -5 133.727 47.7451  10
   3  -1   5 203.739 56.5038   3
   3  -1   5 116.163 33.6380   8
   3  -1   6 440.292 87.0132   7
  -3   1  -6 346.915 82.5535  14
   3  -1   6 305.010 51.4467   2
   3  -1   6 400.954 84.0238   6
  -3   1  -6 343.381 78.1826  11
   3  -1   6 389.109 81.7371   3
   3  -1   7 112.044 52.5428   7
  -3   1  -7 72.9229 48.7887  14
   3  -1   7 36.3699 24.4376   2
   3  -1   7 60.2161 49.6035   6
  -3   1  -7 110.801 54.7721  11
   3  -1   7 82.3920 48.7116   3
   3  -1   8 67.0085 40.9353   7
  -3   1  -8 46.4575 34.4100  14
   3  -1   8 70.0409 42.4040   6
  -3   1  -8 18.3943 34.3735  11
   3  -1   8-18.8943 33.9183   3
  -3   1  -8 53.3537 34.5162   9
   3  -1   9-69.2073 49.2944   7
   3  -1   9 17.3244 32.4718   6
   3  -1   9-10.3578 33.3448   3
  -3   1  -9-36.9876 39.2188   9
  -3   1 -10 94.8850 57.2226  14
   3  -1  10-46.2699 32.7270   6
   3  -1  10 78.8466 56.8989   3
  -3   1 -11 105.853 64.8949  14
   3  -1  11 98.6534 60.0928   6
   3  -1  11 48.3237 46.5452   3
  -3   1 -12 117.665 77.6747  14
   3  -1  12 85.3476 69.6289   6
   3  -1  12 145.881 73.7939   3
  -3   2  12 46.6848 52.6088  16
   3  -2 -12 3.28411 54.5142  15
  -3   2  12-12.7484 129.034  13
  -3   2  11-8.37109 34.6773  16
   3  -2 -11 24.3878 51.7204  15
  -3   2  11-24.4195 65.6721  13
  -3   2  11-115.875 90.6534  12
   3  -2 -11 9.17319 37.1437   4
  -3   2  10 44.9689 37.8029  16
  -3   2  10 15.7011 64.5559  13
   3  -2 -10 9.67295 38.7208  15
   3  -2 -10 18.0650 31.9456   4
  -3   2   9 46.2452 42.8919  16
   3  -2  -9 18.7908 26.7686  15
   3  -2  -9-1.52024 52.1063   7
  -3   2   9 46.4605 53.1149  13
  -3   2   9 69.6119 54.3372  12
   3  -2  -9 5.47298 49.4520   5
  -3   2   9 65.0664 56.9957   9
   3  -2  -9 6.13405 49.0871   4
  -3   2   8 140.904 43.8779  16
   3  -2  -8 269.155 61.4438  15
  -3   2   8 37.7345 59.9662  13
  -3   2   8 262.714 74.5187  12
   3  -2  -8 14.1600 75.5861   7
   3  -2  -8 52.5930 77.1727   5
   3  -2  -8-2.43681 62.6419   4
  -3   2   7 38.1821 22.7306  16
   3  -2  -7 102.558 53.0070  15
  -3   2   7 10.1076 56.2791  13
   3  -2  -7 171.810 52.9335   5
   3  -2  -7 138.943 80.3605   4
   3  -2  -6-8.41901 23.1826   4
  -3   2   6 49.0091 24.0729  16
   3  -2  -6-8.07989 16.8580  15
   3  -2  -6-0.07308 24.5009   7
  -3   2   6 4.42794 16.1098  13
   3  -2  -6-40.0136 25.3182   6
   3  -2  -6-1.47287 24.5920   5
   3  -2  -5 0.07870 41.0573   4
  -3   2   5 22.6182 20.3724  16
   3  -2  -5 101.062 30.9915  15
   3  -2  -5 5.78296 21.8359   7
  -3   2   5 2.04258 18.0134  13
   3  -2  -5 77.0451 24.0261   6
   3  -2  -5-0.65533 29.8042   5
  -3   2   5 63.7724 39.6442  10
   3  -2  -5 28.3631 27.6695   8
   3  -2  -4 1560.30 134.475   7
   3  -2  -4 1268.71 78.5241  15
   3  -2  -4 1650.50 104.616   6
   3  -2  -4 1652.74 138.675   8
  -3   2   3 128.373 24.8179  16
   3  -2  -3 221.710 28.8519  15
   3  -2  -3 213.009 52.3800   7
  -3   2   3 65.1689 40.3389  13
   3  -2  -3 213.577 38.9503   6
   3  -2  -3 184.431 50.2469   5
  -3   2   3 234.946 54.1415  10
   3  -2  -3 231.054 51.4240   8
   3  -2  -3 251.401 57.6539   4
  -3   2   2 459.953 38.1684  16
   3  -2  -2 485.589 75.6232   7
   3  -2  -2 486.660 36.6088  15
   3  -2  -2 577.931 68.6449   6
  -3   2   2 487.692 62.1569  13
   3  -2  -2 409.790 31.1181   3
   3  -2  -2 545.862 82.0996   5
  -3   2   2 541.232 79.5790  10
   3  -2  -2 545.777 78.8470   8
   3  -2  -2 595.632 88.6287   4
   3  -2  -1 2532.47 172.153   7
   3  -2  -1 2360.85 141.459   6
  -3   2   1 2478.97 134.215  13
   3  -2  -1 2253.28 92.1490   3
   3  -2  -1 2430.20 164.626   5
  -3   2   1 2632.89 173.004  10
   3  -2  -1 2431.37 160.572   8
   3  -2   0 518.231 82.7692   7
   3  -2   0 469.063 68.2011   6
  -3   2   0 486.254 59.1416  13
   3  -2   0 474.450 49.2671   3
   3  -2   0 451.334 70.3551   5
  -3   2   0 546.464 77.3808  11
  -3   2   0 511.434 78.2969  10
   3  -2   0 451.203 73.4419   8
   3  -2   1 169.310 48.5587   7
  -3   2  -1 192.849 35.1029  13
   3  -2   1 203.825 49.5528   6
  -3   2  -1 177.783 46.3116  11
   3  -2   1 148.394 37.7120   5
  -3   2  -1 179.407 47.1094  10
   3  -2   1 156.996 33.4038   3
   3  -2   1 101.982 29.2079   8
   3  -2   2-36.0911 28.5741   7
  -3   2  -2-1.79890 12.8314  13
  -3   2  -2 42.0868 27.6518  12
   3  -2   2 44.3170 27.1098   6
  -3   2  -2 50.1385 29.2191  11
   3  -2   2 15.3674 17.3221   5
  -3   2  -2 25.5833 18.2398  10
   3  -2   2 20.1875 19.2307   3
   3  -2   2 5.89896 19.0198   8
   3  -2   3 1437.85 140.294   7
  -3   2  -3 1590.23 147.888  14
   3  -2   3 1308.17 126.564   6
   3  -2   3 1295.53 109.805   3
  -3   2  -3 1498.94 122.268  12
   3  -2   3 1155.65 107.578   5
  -3   2  -3 1310.16 126.874  11
  -3   2  -3 1262.58 125.042  10
   3  -2   3 1271.06 121.568   8
   3  -2   4 944.876 118.014   7
  -3   2  -4 955.743 113.689  14
   3  -2   4 867.817 108.049   6
   3  -2   4 866.455 94.3144   3
  -3   2  -4 949.444 96.4868  12
  -3   2  -4 894.034 107.956  11
  -3   2  -4 873.975 105.408  10
   3  -2   4 871.371 103.080   8
   3  -2   5 20.3341 27.7736   7
  -3   2  -5-27.5014 33.5067  14
   3  -2   5-13.1627 25.8649   6
  -3   2  -5 7.52130 20.6535  12
  -3   2  -5 22.5808 27.7264  11
   3  -2   5-32.4850 25.8563   3
  -3   2  -5-17.6270 19.2622  10
  -3   2  -5 4.08511 23.7159   9
   3  -2   5 24.5910 26.5583   8
   3  -2   6-6.24008 33.4859   7
  -3   2  -6 73.2135 37.6212  14
   3  -2   6 70.9300 37.2503   6
  -3   2  -6 29.2498 26.6481  11
   3  -2   6-15.0520 23.8519   3
  -3   2  -6 24.4594 25.6905  10
  -3   2  -6 5.87963 31.7693   9
   3  -2   6 19.7555 24.0854   8
   3  -2   7-6.13588 27.0353   7
   3  -2   7 44.5931 32.7211   6
  -3   2  -7-20.7221 35.0213  11
   3  -2   7-30.3252 35.2352   3
  -3   2  -7 28.7314 32.5830  10
  -3   2  -7-43.5175 35.6455  14
  -3   2  -7-31.4347 41.4638   9
   3  -2   7-16.0376 28.9038   8
   3  -2   8 12.3545 28.7724   7
  -3   2  -8 49.8244 39.6125  14
   3  -2   8 61.9690 46.2320   6
  -3   2  -8 67.7658 46.3404  11
   3  -2   8 33.1100 31.6529   3
  -3   2  -8 89.6547 39.8088  10
  -3   2  -8 5.53346 29.6530   9
   3  -2   8 41.9371 28.7397   8
   3  -2   9 14.3998 27.5999   7
  -3   2  -9-11.7450 34.7049  14
   3  -2   9 1.87334 34.5728   6
   3  -2   9 25.2859 30.3183   3
  -3   2  -9 53.8232 42.0793  11
  -3   2  -9 110.592 47.0270  10
  -3   2  -9 50.3015 44.9876   9
   3  -2   9-1.42020 44.9730   8
  -3   2 -10 112.126 70.3514  14
   3  -2  10-33.8469 35.2832   6
   3  -2  10 15.2506 36.0470   3
  -3   2 -10 9.18530 61.5331  11
  -3   2 -11 135.517 66.3599  14
   3  -2  11 308.309 95.3021   6
   3  -2  11 310.233 92.9312   3
  -3   2 -11 81.0420 103.842  11
  -3   2 -12 70.1504 57.6754  14
   3  -2  12 15.8318 40.6398   6
   3  -2  12 93.6772 65.1291   3
  -3   2 -12 2.72050 59.9669  11
  -3   3  14-0.89537 100.978   2
  -3   3  14 126.831 70.9874  16
   3  -3 -14-79.8165 68.6567  15
  -3   3  14 23.7716 107.564  13
   3  -3 -14-7.06458 55.1276   4
  -3   3  13 65.0025 86.7574   2
  -3   3  13-140.858 71.3127  16
   3  -3 -13-32.6320 80.2610  15
  -3   3  13 20.1039 60.5047  13
  -3   3  13 107.354 83.3922  12
   3  -3 -13 15.0890 63.6113   4
   3  -3 -12-30.9153 41.1114   4
  -3   3  12-4.07872 67.7794   2
  -3   3  12-22.2779 35.7597  16
   3  -3 -12 13.6547 34.4961  15
   3  -3 -12 88.5809 64.4351   1
  -3   3  12 13.9801 65.5393  13
  -3   3  12 21.0305 46.8780  12
   3  -3 -12-3.34802 26.5952   5
   3  -3 -11 8.88709 66.7241   4
  -3   3  11 28.4163 33.7019  16
  -3   3  11 11.8059 50.8677   2
   3  -3 -11 69.4066 51.1294  15
   3  -3 -11 211.824 86.5585   1
  -3   3  11 5.08732 56.7016  13
  -3   3  11 109.210 62.8911  12
   3  -3 -11 32.6831 70.5811   5
   3  -3 -10-1.30612 33.6469   4
  -3   3  10-2.30163 33.4842  16
  -3   3  10 7.72549 34.1293   2
   3  -3 -10-59.5836 39.3627  15
   3  -3 -10 20.8152 42.8861   1
  -3   3  10-7.38929 41.4534  13
  -3   3  10-16.1262 33.3233  12
   3  -3 -10-2.04689 37.8746   5
   3  -3  -9 10.6686 61.6139   4
  -3   3   9 93.5549 41.8068  16
  -3   3   9 4.39152 56.4939   2
   3  -3  -9 203.454 65.7610   1
  -3   3   9 12.2931 49.7844  13
  -3   3   9 136.319 51.4465  12
   3  -3  -9 181.325 47.4568  15
   3  -3  -9-0.47426 42.5282   5
   3  -3  -8-0.66777 35.3884   4
  -3   3   8-26.3392 30.2325  16
  -3   3   8-10.2118 23.3281   2
   3  -3  -8-13.9204 24.1066  15
   3  -3  -8-5.55794 35.3991   7
   3  -3  -8 42.9194 33.5874   1
  -3   3   8 0.97922 24.5674  13
  -3   3   8-32.5767 33.4940  12
   3  -3  -8-7.11406 40.6198   5
  -3   3   8 42.2489 23.8476   9
  -3   3   6 8.32356 19.0156   2
   3  -3  -6-8.57392 39.5300   4
  -3   3   6 21.0917 18.7794  16
   3  -3  -6-40.4014 28.3043  15
   3  -3  -6 0.49317 22.4153   7
  -3   3   6 13.0123 34.8513  13
  -3   3   6 5.49796 23.1738  12
  -3   3   6 10.4585 19.7797  10
   3  -3  -6-27.7064 55.0844   5
  -3   3   6 17.8163 23.1833   9
   3  -3  -6 2.69892 20.9160   8
  -3   3   5 51.1360 83.0467   2
   3  -3  -5 8.93872 39.3298   4
  -3   3   5 112.268 34.2697  16
   3  -3  -5 95.7398 30.3830  15
   3  -3  -5 2.43977 47.4175   7
  -3   3   5 16.7363 40.5010  13
  -3   3   5 83.4970 39.3075  12
  -3   3   5 36.4974 33.7537  10
   3  -3  -5 3.88891 32.7462   5
  -3   3   5 128.851 40.1263   9
   3  -3  -5 114.020 38.3511   8
   3  -3  -4-3.40567 26.9478   4
  -3   3   4 59.4186 27.6951  16
   3  -3  -4 96.6123 30.1643  15
   3  -3  -4 4.68350 24.0718   7
  -3   3   4 4.36358 21.2230  13
   3  -3  -4 65.5180 30.8343   6
  -3   3   4 39.4918 26.7441  12
  -3   3   4 6.41988 25.9478  10
   3  -3  -4 6.90733 40.0955   5
  -3   3   4 16.9947 22.4715   9
   3  -3  -4 41.2758 25.4701   8
   3  -3  -3-7.80610 26.7742   8
   3  -3  -3-38.1487 32.5650   4
   3  -3  -3-1.36789 20.8619   7
  -3   3   3 6.00114 18.1757  13
   3  -3  -3 7.91553 18.0386   6
  -3   3   3-8.50488 16.4065  12
  -3   3   3-13.4910 23.5146  11
  -3   3   3 26.2035 27.4111  10
   3  -3  -3 26.4126 21.4283   5
  -3   3   3-10.7546 20.6762   9
   3  -3  -2 9.26240 18.2862   8
   3  -3  -2-38.2432 28.9815   4
   3  -3  -2-34.0582 31.1390   7
  -3   3   2-14.0882 27.4807  13
   3  -3  -2 37.6063 25.4091   6
  -3   3   2-22.4848 26.7252  12
  -3   3   2 20.7781 17.2451  11
  -3   3   2-4.92031 17.8141  10
   3  -3  -2-26.1547 25.6416   5
  -3   3   2 8.18168 15.1790   9
   3  -3  -1 32.4368 23.6621   8
   3  -3  -1 42.8083 23.7986   4
   3  -3  -1 55.1832 32.0124   7
  -3   3   1 40.0359 28.7085  13
   3  -3  -1 28.9705 23.1513   6
  -3   3   1 10.9174 22.1791  12
  -3   3   1 62.3346 30.5423  11
  -3   3   1 18.9691 18.3610  10
   3  -3  -1 38.2034 27.7899   5
  -3   3   1 30.6769 23.9661   9
   3  -3   0 506.103 80.7261   7
   3  -3   0 520.157 74.9061   6
  -3   3   0 553.076 64.6359  13
  -3   3   0 582.315 84.8248  12
  -3   3   0 548.469 77.8195  11
   3  -3   0 570.810 81.6433   5
  -3   3   0 510.927 79.6375  10
  -3   3   0 516.760 75.1032   9
   3  -3   0 450.896 71.9077   8
   3  -3   0 594.863 68.9314   4
   3  -3   0 682.501 87.4226   3
   3  -3   1 80.8516 37.8582   8
   3  -3   1 46.3402 29.2653   7
  -3   3  -1 42.0986 22.4433  14
   3  -3   1 94.6002 36.6404   6
  -3   3  -1 28.6840 22.2566  12
   3  -3   1 80.1151 27.7227   3
  -3   3  -1 33.7202 26.4221  11
  -3   3  -1 51.5883 31.2328  10
   3  -3   1 93.3983 39.7911   5
  -3   3  -1 61.8499 34.0086   9
   3  -3   1 85.4610 28.5854   4
   3  -3   2 292.483 60.8387   8
   3  -3   2 294.087 59.0150   7
  -3   3  -2 295.674 53.3467  14
   3  -3   2 329.779 55.8923   3
   3  -3   2 291.239 62.2977   6
  -3   3  -2 329.898 62.8729  12
  -3   3  -2 303.688 60.6589  11
  -3   3  -2 305.258 64.4832  10
   3  -3   2 321.419 61.6762   5
  -3   3  -2 296.582 65.6097   9
   3  -3   3 688.552 97.9379   7
  -3   3  -3 646.483 81.9878  14
   3  -3   3 596.388 87.2990   6
   3  -3   3 553.096 71.3059   3
  -3   3  -3 614.297 82.2985  12
  -3   3  -3 580.021 85.4794  11
   3  -3   3 564.678 73.9623   5
  -3   3  -3 627.104 94.7444  10
  -3   3  -3 614.876 89.5856   9
   3  -3   3 596.794 86.3839   8
   3  -3   4 310.523 67.2769   8
   3  -3   4 383.634 76.2776   7
  -3   3  -4 370.015 64.4996  14
   3  -3   4 320.573 69.1519   6
  -3   3  -4 363.012 65.5540  12
   3  -3   4 298.400 56.7198   3
   3  -3   4 382.660 65.1414   5
  -3   3  -4 385.103 76.8646  11
  -3   3  -4 302.980 67.4474  10
  -3   3  -4 339.559 67.9129   9
   3  -3   5 1104.76 128.385   7
  -3   3  -5 1208.29 128.823  14
   3  -3   5 1046.10 125.513   6
   3  -3   5 1094.44 113.552   3
   3  -3   5 1133.10 106.460   5
  -3   3  -5 1208.39 136.320  11
  -3   3  -5 1201.18 136.214  10
  -3   3  -5 1116.07 124.903   9
   3  -3   5 1127.77 123.274   8
   3  -3   6 65.2409 49.3711   8
   3  -3   6 45.0872 34.5173   7
  -3   3  -6 32.0635 33.7625  14
   3  -3   6 63.6581 42.3058   6
   3  -3   6 65.8203 40.4187   3
  -3   3  -6 64.4271 48.3425  11
  -3   3  -6 41.5736 39.1384  10
  -3   3  -6 49.5129 41.7497   9
   3  -3   7 1761.64 169.101   7
  -3   3  -7 1800.25 176.095  14
   3  -3   7 1695.30 179.406   6
   3  -3   7 1533.30 154.173   3
  -3   3  -7 1855.67 187.849  11
  -3   3  -7 1758.24 172.699  10
  -3   3  -7 1814.67 169.434   9
   3  -3   7 1709.93 158.210   8
   3  -3   8 323.624 77.2165   7
  -3   3  -8 342.635 82.9095  14
   3  -3   8 216.155 72.2677   6
   3  -3   8 209.628 60.5001   3
  -3   3  -8 280.471 75.4095  11
  -3   3  -8 239.781 68.6612  10
  -3   3  -8 247.973 61.5764   9
   3  -3   8 215.761 62.6448   8
   3  -3   9 82.7719 41.0069   7
  -3   3  -9 116.382 54.0713  14
   3  -3   9 157.777 65.9650   6
   3  -3   9 164.551 60.0820   3
  -3   3  -9 223.173 81.4752  11
  -3   3  -9 171.419 69.0814  10
  -3   3  -9 155.714 51.9356   9
   3  -3   9 148.440 56.1821   8
  -3   3 -10 11.3379 46.7226  14
   3  -3  10 47.7468 44.1770   6
   3  -3  10 44.9329 38.0686   3
  -3   3 -10-31.4918 49.5261  11
  -3   3 -10 89.5326 60.4430  10
   3  -3  10 26.0045 33.2117   8
  -3   3 -11 203.969 87.5859  14
   3  -3  11 156.280 62.9375   6
   3  -3  11 162.153 73.4046   3
  -3   3 -11 58.0608 121.049  11
  -3   3 -12-13.6284 77.6876  14
   3  -3  12-23.0914 58.5096   6
   3  -3  12 7.41533 39.1648   3
  -3   3 -12-39.9293 62.4771  11
   3  -4 -14-5.28147 59.6524   4
  -3   4  14-83.0133 56.7407  16
  -3   4  14 19.2512 52.9635   2
   3  -4 -14 16.4404 49.2798  15
   3  -4 -14 13.1119 77.8576   1
  -3   4  14-29.9152 72.5825  13
   3  -4 -13 26.8186 43.3410   4
  -3   4  13-19.2758 37.5425  16
  -3   4  13 9.62105 41.6591   2
   3  -4 -13-1.48430 44.7420  15
  -3   4  13 1.18124 53.1062  13
   3  -4 -13 28.0037 61.1732   1
   3  -4 -13 3.59531 49.7900   5
   3  -4 -12-7.57351 52.2296   4
  -3   4  12 29.0923 26.0795  16
  -3   4  12-7.50195 36.6427   2
   3  -4 -12-25.8834 61.6068  15
  -3   4  12-5.06507 69.3450  13
   3  -4 -12-38.4570 41.7733   1
  -3   4  12-8.90468 35.8911  12
   3  -4 -12 13.2221 47.8890   5
   3  -4 -11-3.51819 46.1043   4
  -3   4  11 85.3383 36.2177  16
  -3   4  11 0.10378 51.2744   2
   3  -4 -11 20.1140 35.8566  15
  -3   4  11 1.97819 41.6543  13
  -3   4  11 44.4121 47.6649  12
   3  -4 -11-36.2053 70.0277   1
   3  -4 -11-9.78164 46.5021   5
   3  -4 -10-6.04146 37.9548   4
  -3   4  10-115.149 41.7375  16
   3  -4 -10-47.3246 48.6535  15
  -3   4  10 11.5227 28.8805   2
  -3   4  10-4.70336 25.9974  13
  -3   4  10 43.7920 38.0872  12
   3  -4 -10-87.0131 57.4235   1
   3  -4 -10-16.0508 67.0122   5
   3  -4  -9-2.59283 57.1039   4
  -3   4   9-7.95200 28.0887  16
   3  -4  -9-11.1581 40.0963  15
  -3   4   9 4.36178 42.7154   2
  -3   4   9-5.28153 44.6712  13
  -3   4   9-6.43188 29.5607  12
   3  -4  -9-105.428 55.6686   1
   3  -4  -9-4.89529 56.2478   5
  -3   4   8-16.6485 29.3217  16
   3  -4  -8 4.36983 46.0175   4
   3  -4  -8 0.29461 22.1235   7
   3  -4  -8-3.47940 32.3377  15
  -3   4   8 7.48678 24.7350   2
  -3   4   8 0.91959 29.6560  13
  -3   4   8 39.4350 33.0429  12
  -3   4   8 55.7593 28.5199  10
   3  -4  -8 4.61803 26.1888   1
   3  -4  -8 4.01174 38.2640   5
   3  -4  -8-66.5016 40.0779   8
   3  -4  -7-18.2987 31.4729   4
   3  -4  -7-0.41112 27.6451   7
   3  -4  -7 75.7756 36.6365  15
  -3   4   7 3.69684 28.2171   2
  -3   4   7 29.1105 44.7415  13
  -3   4   7 98.8034 42.3217  12
  -3   4   7 19.8586 30.4692  10
   3  -4  -7 15.7675 26.6627   1
   3  -4  -7 16.2632 27.0121   5
  -3   4   7 73.7990 33.5535   9
   3  -4  -7 5.72550 23.1505   8
   3  -4  -6 86.2600 42.4364   8
  -3   4   6-11.1064 19.5865  16
   3  -4  -6 12.7471 36.9267   4
   3  -4  -6 3.17082 24.7988   7
  -3   4   6 2.61939 26.2989   2
  -3   4   6-1.14937 30.6947  13
  -3   4   6 25.4401 29.0576  12
  -3   4   6 0.07160 20.4156  10
   3  -4  -6-18.7034 30.3639   1
   3  -4  -6-19.2711 36.9319   5
  -3   4   6 84.9101 39.3871   9
   3  -4  -5-19.9951 28.1551   8
   3  -4  -5-1.50823 38.0278   4
   3  -4  -5 0.56804 25.1749   7
  -3   4   5 3.18908 21.4420   2
  -3   4   5-8.13648 23.7828  13
  -3   4   5 22.8425 25.1551  12
   3  -4  -5-40.4655 25.4221   1
  -3   4   5 17.4650 38.5124  10
   3  -4  -5 5.16479 31.0001   5
  -3   4   5-20.9306 29.5885   9
  -3   4   4 1296.19 144.130  12
  -3   4   4 1284.95 97.2546  11
  -3   4   4 1305.37 121.385   9
   3  -4  -4 1358.97 126.679   8
   3  -4  -4 936.226 83.0855   1
   3  -4  -3 30.9833 24.4509   8
   3  -4  -3-0.67212 29.9675   4
   3  -4  -3 25.4153 27.2160   7
  -3   4   3 9.30999 19.5449  13
  -3   4   3 38.4152 34.9421  12
  -3   4   3 45.7058 24.4222  11
  -3   4   3 64.2027 38.3392  10
   3  -4  -3 32.9143 31.1077   5
  -3   4   3 31.5948 19.3466   9
   3  -4  -2 279.653 56.9507   8
   3  -4  -2 310.076 65.7563   7
   3  -4  -2 152.360 43.2907   6
  -3   4   2 63.0210 55.4410  13
  -3   4   2 304.016 72.3350  12
  -3   4   2 338.269 57.5382  11
  -3   4   2 285.748 58.2870   9
   3  -4  -2 247.387 59.5201   5
   3  -4  -2 371.181 63.5333   4
   3  -4  -1 60.5702 26.2325   8
   3  -4  -1 77.3566 30.8937   4
   3  -4  -1 94.4190 36.2323   7
   3  -4  -1 130.533 43.5338   6
  -3   4   1 51.5671 24.9281  13
  -3   4   1 88.1030 38.5965  12
  -3   4   1 89.3709 30.9242  11
  -3   4   1 38.5557 18.8818   9
   3  -4  -1 97.1926 38.3230   5
   3  -4   0 812.688 106.781   7
   3  -4   0 988.021 113.061   6
  -3   4   0 832.465 107.622  12
  -3   4   0 764.078 92.0171  11
   3  -4   0 776.907 96.2358   5
  -3   4   0 843.521 104.593   9
   3  -4   0 759.853 99.1862   8
   3  -4   0 766.456 79.0294   4
   3  -4   1 48.3274 28.1611   8
   3  -4   1 62.9760 22.0876   4
   3  -4   1 77.5502 35.4435   7
  -3   4  -1 113.636 32.6736  14
   3  -4   1 87.2311 37.2855   6
  -3   4  -1 103.543 42.8966  12
  -3   4  -1 63.4212 34.2652  11
   3  -4   1 69.7867 31.8121   5
  -3   4  -1 75.5410 38.7643   9
   3  -4   2 43.1659 31.5968   8
   3  -4   2 5.10204 23.8406   4
   3  -4   2 31.3913 31.1967   7
  -3   4  -2 40.5570 20.7538  14
   3  -4   2 80.1254 40.0788   6
  -3   4  -2-21.8942 28.6318  12
  -3   4  -2 19.3519 27.6149  11
   3  -4   2 53.2524 26.0912   5
  -3   4  -2 11.3437 28.6114   9
   3  -4   3 37.6559 26.9465   8
   3  -4   3 75.7167 47.9458   7
  -3   4  -3 40.7084 27.0916  14
   3  -4   3 117.667 46.8122   6
  -3   4  -3 71.9710 44.6312  11
   3  -4   3 32.9552 27.2498   5
  -3   4  -3 85.8943 43.2374   9
   3  -4   4 283.851 69.7462   8
   3  -4   4 277.502 71.1874   7
  -3   4  -4 175.934 49.3829  14
   3  -4   4 241.311 67.2210   6
  -3   4  -4 257.303 67.4246  11
   3  -4   4 300.875 66.1423   5
  -3   4  -4 219.148 62.6914   9
   3  -4   5 90.1731 45.4056   8
   3  -4   5 105.606 46.6752   7
  -3   4  -5 131.414 54.7941  14
   3  -4   5 124.245 60.7735   6
  -3   4  -5 91.4373 49.9819  11
  -3   4  -5 143.513 62.4422  10
   3  -4   5 87.5643 47.6031   5
  -3   4  -5 103.646 49.7988   9
   3  -4   6 285.765 79.3193   8
   3  -4   6 186.223 57.5217   7
  -3   4  -6 233.861 68.6260  14
   3  -4   6 216.501 64.1081   6
  -3   4  -6 283.690 80.9539  11
  -3   4  -6 308.568 88.4593  10
  -3   4  -6 258.166 69.5812   9
   3  -4   7 246.930 77.1639   8
   3  -4   7 97.5313 46.3300   7
  -3   4  -7 154.115 57.3410  14
   3  -4   7 192.876 66.1431   6
  -3   4  -7 214.517 77.5921  11
  -3   4  -7 279.010 95.0522  10
  -3   4  -7 234.520 70.7517   9
   3  -4   8 445.955 104.165   8
  -3   4  -8 468.666 107.002  14
   3  -4   8 446.767 105.233   6
  -3   4  -8 546.750 128.348  11
  -3   4  -8 606.014 147.576  10
  -3   4  -9 111.058 57.3820  14
   3  -4   9-13.2752 51.6266   6
  -3   4  -9 97.8884 63.2181  11
  -3   4  -9 235.186 116.962  10
   3  -4   9 100.198 74.2108   8
  -3   4 -10-7.85406 41.2053  14
   3  -4  10 15.2793 27.8205   6
  -3   4 -10 20.0181 112.245  11
   3  -4  11 48.3251 37.9780   6
   3  -5 -13 13.7144 66.8621   4
  -3   5  13-25.7619 27.8349   2
  -3   5  13-9.27392 57.2901  13
   3  -5 -13-16.4068 50.0365   5
   3  -5 -13 15.2794 56.1001   1
   3  -5 -12 10.9979 94.2101   4
  -3   5  12-18.0668 49.2119   2
  -3   5  12 3.55043 34.6242  13
   3  -5 -12-1.55108 60.2033   5
   3  -5 -12-119.059 78.1258   1
   3  -5 -11 3.65423 51.6266   4
  -3   5  11 3.71329 23.3907   2
  -3   5  11-7.85180 66.2291  13
   3  -5 -11-11.8785 44.1836   5
   3  -5 -11-110.510 66.5009   1
   3  -5 -10 84.7853 30.7369   1
   3  -5 -10 7.73446 67.4382   4
  -3   5  10-11.3384 27.2778   2
  -3   5  10 7.32254 64.4182  13
   3  -5 -10 3.22272 43.4753   5
   3  -5  -9-0.51648 46.3009   4
   3  -5  -9-11.8715 39.2132   1
  -3   5   9 6.86672 37.5817   2
  -3   5   9-2.17813 36.6413  13
   3  -5  -9-4.34604 52.9540   5
   3  -5  -8 16.8535 92.2389   4
   3  -5  -8 362.630 75.4920   1
  -3   5   8 19.2604 58.1537   2
  -3   5   8 90.3276 95.1188  13
  -3   5   8 307.882 76.0009  10
   3  -5  -8 29.2288 97.5481   5
   3  -5  -7 60.2687 41.0139   8
   3  -5  -7 14.5800 45.8468   4
   3  -5  -7 3.91012 25.4304   1
  -3   5   7-3.36295 30.2480  13
  -3   5   7-3.55875 25.0092   2
  -3   5   7 59.8415 40.6664  12
  -3   5   7 41.0186 40.9330  10
   3  -5  -7-17.4835 51.9231   5
   3  -5  -6 256.508 63.4483   8
   3  -5  -6 33.0644 88.4924   4
  -3   5   6 36.0240 71.4140  13
   3  -5  -6 278.240 56.9882   1
  -3   5   6 17.6591 50.5103   2
  -3   5   6 339.856 82.7280  12
   3  -5  -6 55.8079 84.2824   5
   3  -5  -5-68.3610 37.6396   8
   3  -5  -5-2.57270 27.2908   4
  -3   5   5 3.04425 25.7679  13
   3  -5  -5 26.6014 23.9239   1
  -3   5   5-15.3383 28.5279  12
   3  -5  -5 9.85351 26.5949   5
   3  -5  -4 226.419 56.8285   8
   3  -5  -4-0.59304 43.8699   7
   3  -5  -4 17.7815 75.3424   4
  -3   5   4 54.9740 53.7260  13
  -3   5   4 300.814 71.7288  12
   3  -5  -4 33.2313 80.6541   5
   3  -5  -3 406.283 78.0561   7
  -3   5   3 441.582 87.0620  12
  -3   5   3 551.803 71.3025  11
  -3   5   3 491.175 83.1336   9
   3  -5  -3 475.947 90.3019   5
   3  -5  -3 497.142 84.6343   8
   3  -5  -2 66.6421 40.3578   8
   3  -5  -2 59.8467 26.9051   7
   3  -5  -2 54.8650 32.2514   4
   3  -5  -2 91.7545 45.6385   5
  -3   5   2 50.2945 31.7420   9
   3  -5  -1 244.860 60.5727   8
   3  -5  -1 269.867 66.5132   7
   3  -5  -1 242.808 52.1224   4
   3  -5  -1 252.007 62.6704   5
  -3   5   1 208.608 56.4275   9
   3  -5   0 203.427 57.7892   8
   3  -5   0 228.261 60.1846   7
   3  -5   0 264.951 53.9579   4
   3  -5   0 177.670 52.1803   5
  -3   5   0 218.248 56.8792   9
   3  -5   1 51.2884 40.3665   8
   3  -5   1 23.0234 24.5008   7
   3  -5   1 27.9598 16.2288   4
   3  -5   1 49.5569 25.0001   5
  -3   5  -1 80.8812 45.9323   9
   3  -5   2 1765.59 165.400   7
  -3   5  -2 1646.82 128.334  14
   3  -5   2 1523.54 135.396   5
   3  -5   2 1464.89 140.316   8
   3  -5   3 37.5564 25.2433   8
   3  -5   3-8.50587 43.1577   7
  -3   5  -3 66.7691 34.7274  14
   3  -5   3 113.234 41.7882   5
  -3   5  -3 65.8407 36.4381   9
   3  -5   4 38.9968 38.9827   8
   3  -5   4-15.6993 30.8341   7
  -3   5  -4 67.8409 37.1178  14
   3  -5   4 18.2441 34.3903   5
   3  -5   5 121.968 54.4374   8
  -3   5  -5 183.099 54.8858  14
   3  -6 -11-3.44269 48.6390   4
   3  -6 -10-9.21143 40.6089   4
   3  -6 -10-0.12719 50.4186   5
   3  -6  -9 8.37176 45.7305   4
   3  -6  -9-5.29267 37.9155   5
   3  -6  -8 6.59892 52.7338   4
   3  -6  -8-8.79240 36.7076   5
   3  -6  -7-11.3235 43.5539   4
   3  -6  -7 3.44993 49.5056   5
   3  -6  -6 0.82206 31.3375   5
   4  -2  -4 21.7617 30.6522   7
  -4   2   4 23.9754 29.6063  13
   4  -2  -3 14.9970 32.9091   7
  -4   2   3 6.55833 32.0015  13
   4  -2  -3 15.2603 20.5264   6
   4  -2  -3 41.2187 31.4065   5
   4  -2  -2-34.9495 37.3668   7
  -4   2   2 36.9051 23.1451  13
   4  -2  -2 6.09005 22.4704   6
   4  -2  -2 60.8464 56.1391   8
   4  -2  -1 409.679 93.0511   7
  -4   2   1 389.594 68.2884  13
   4  -2  -1 411.723 80.4013   6
  -4   2   1 498.751 98.0722  10
   4  -2  -1 577.026 118.960   8
   4  -2   0 69.5350 33.9698   7
   4  -2   0 107.391 44.0750   6
  -4   2   0 125.337 50.8019  10
   4  -2   0 204.648 67.6195   8
   4  -2   1 31.5097 43.4185   7
   4  -2   1-107.363 56.5478   6
  -4   2  -1-44.4039 44.5065  10
   4  -2   1 12.6171 17.5008   3
   4  -2   1-101.723 60.4013   8
   4  -2   2 11.1102 35.6449   7
  -4   2  -2-15.2135 39.1709  12
   4  -2   2 87.3980 58.7441   6
  -4   2  -2 32.9852 39.1119  10
   4  -2   2 21.4650 21.8111   3
   4  -2   2 53.1905 41.3705   8
   4  -2   3 112.867 60.1484   7
  -4   2  -3 11.2924 31.3803  12
   4  -2   3 110.364 62.9554   6
   4  -2   3 69.1833 33.9459   3
  -4   2  -3 43.9399 38.8426  10
   4  -2   3 148.208 75.9752   8
   4  -2   4 356.015 98.1258   7
  -4   2  -4 239.288 62.2875  12
   4  -2   4 292.294 94.6061   6
   4  -2   4 352.539 83.0151   3
  -4   2  -4 268.217 80.1890  10
   4  -2   4 204.199 61.0715   8
   4  -2   5 111.312 70.1011   7
   4  -2   5-59.0916 55.1742   6
   4  -2   5 31.7596 32.2802   3
  -4   2  -5-75.2245 59.3628   9
   4  -2   5-102.573 70.1571   8
   4  -2   6 202.425 81.2019   7
   4  -2   6 111.998 64.1297   6
   4  -2   6 120.615 64.1471   3
  -4   2  -6 216.817 76.1192   9
   4  -2   7 214.140 75.4282   7
   4  -2   7 223.351 86.7299   6
   4  -2   7 112.547 59.3849   3
  -4   2  -7 281.489 86.5401   9
   4  -2   8 54.7247 59.3452   7
   4  -2   8-58.4083 58.9520   6
   4  -2   8 25.6690 56.0218   3
  -4   2  -8-39.3172 41.3641   9
   4  -2   9-74.2711 62.8337   7
   4  -2   9-46.6971 63.4699   6
   4  -2   9 40.6239 52.5130   3
  -4   2  -9-190.643 83.6406   9
   4  -2  10 168.403 76.6015   6
   4  -2  10-92.0539 68.3805   3
  -4   3  11 30.5603 63.5196  13
  -4   3  10 0.11460 34.9760  13
  -4   3  10-19.1638 86.1685  12
  -4   3   9 2.45527 40.1998  13
  -4   3   9 17.7462 43.3922  12
   4  -3  -9-21.3762 52.9967   5
   4  -3  -8 1.56437 77.6281   7
  -4   3   8 3.95784 39.8324  13
  -4   3   8-6.97206 32.7266  12
   4  -3  -8-6.07179 38.1291   5
  -4   3   8-4.63368 63.0210   9
   4  -3  -8-24.4164 46.1246   4
   4  -3  -7-0.76936 41.9392   7
  -4   3   7 21.6797 40.4162  13
  -4   3   7 35.9660 23.7592  12
   4  -3  -7 8.84107 28.1902   5
  -4   3   7 29.9110 49.7106   9
   4  -3  -7-2.73370 35.8333   4
   4  -3  -6 2.22906 50.9275   7
  -4   3   6-3.10680 20.9784  13
  -4   3   6-42.1900 37.4174  12
   4  -3  -6-1.28181 27.7392   5
  -4   3   6 30.9744 33.7722   9
   4  -3  -6 24.5032 38.6625   4
   4  -3  -5-0.52256 32.6363   7
  -4   3   5 10.4953 30.4025  13
  -4   3   5 10.6591 26.7315  12
   4  -3  -5 6.97312 36.6757   5
  -4   3   5-6.55831 35.6460  10
  -4   3   5 12.5316 23.9097   9
   4  -3  -5-48.2740 37.6554   8
   4  -3  -4-0.79192 43.3093   7
  -4   3   4 8.27498 24.0748  13
   4  -3  -4 48.2694 26.0372   6
  -4   3   4 60.7906 35.7282  12
   4  -3  -4 17.1472 50.5611   5
  -4   3   4 64.1511 62.6934  10
  -4   3   4 20.9637 22.3834   9
   4  -3  -4 20.8793 33.6920   8
   4  -3  -3 379.454 87.6769   7
  -4   3   3 78.1036 75.1662  13
   4  -3  -3 398.039 72.9455   6
  -4   3   3 290.784 68.5721  12
   4  -3  -3 358.485 79.8003   5
  -4   3   3 436.089 94.2793  10
   4  -3  -3 372.120 82.7797   8
   4  -3  -2 108.754 52.0024   7
  -4   3   2 110.154 33.8814  13
   4  -3  -2 137.497 46.3762   6
  -4   3   2 110.374 46.6210  12
   4  -3  -2 105.889 45.8797   5
  -4   3   2 174.510 66.7550  10
   4  -3  -2 134.444 62.0572   8
   4  -3  -1 455.111 95.3778   7
   4  -3  -1 448.750 81.7347   6
  -4   3   1 509.220 87.3141  13
  -4   3   1 482.821 90.1529  12
   4  -3  -1 434.475 87.9255   5
  -4   3   1 388.606 86.8335  10
  -4   3   1 410.387 77.2272   9
   4  -3  -1 436.050 86.9179   8
   4  -3   0 461.331 96.9671   7
   4  -3   0 486.321 85.9316   6
  -4   3   0 444.198 87.8398  12
   4  -3   0 455.301 87.5815   5
  -4   3   0 472.655 86.8224  10
  -4   3   0 442.648 81.8134   9
   4  -3   0 429.133 85.0479   8
   4  -3   1 1567.24 172.484   7
   4  -3   1 1367.57 143.825   6
  -4   3  -1 1773.80 171.475  12
   4  -3   1 1596.30 161.718   5
  -4   3  -1 1712.45 169.014  11
  -4   3  -1 1478.84 158.598  10
  -4   3  -1 1428.80 146.138   9
   4  -3   1 1503.11 154.569   8
   4  -3   2-29.2371 43.7128   7
   4  -3   2-23.3413 37.7841   6
  -4   3  -2-45.0588 40.3894  12
  -4   3  -2 85.5703 46.2344  11
   4  -3   2 2.80414 30.2289   5
  -4   3  -2-41.6075 38.0983  10
  -4   3  -2-75.8177 50.9622   9
   4  -3   2 7.36958 28.1614   8
   4  -3   3 1702.58 187.573   7
   4  -3   3 1549.13 163.134   6
   4  -3   3 1450.04 130.671   3
  -4   3  -3 1859.08 176.350  12
  -4   3  -3 1790.62 179.823  11
  -4   3  -3 1688.29 174.112  10
  -4   3  -3 1841.56 176.740   9
   4  -3   3 1619.48 172.148   8
   4  -3   4 53.2348 45.0128   7
   4  -3   4 16.3952 40.8335   6
  -4   3  -4 15.9915 34.6463  12
   4  -3   4 73.5102 37.8850   3
  -4   3  -4-19.1097 45.1153  11
  -4   3  -4 65.5939 43.9463  10
  -4   3  -4-65.1484 50.4418   9
   4  -3   4 97.5748 49.2239   8
   4  -3   5 213.245 67.5803   7
   4  -3   5 171.651 69.7073   6
   4  -3   5 93.1757 30.9764   3
  -4   3  -5 165.895 59.4195  11
  -4   3  -5 220.327 74.7190  10
  -4   3  -5 192.172 66.6830   9
   4  -3   5 171.671 66.8946   8
   4  -3   6-31.1031 33.6975   7
  -4   3  -6 72.7837 43.3897  14
   4  -3   6-55.3916 40.7719   6
   4  -3   6 105.637 47.8760   3
  -4   3  -6 73.7182 47.7353  11
  -4   3  -6-37.0850 40.1064  10
  -4   3  -6-46.0499 48.7111   9
   4  -3   6-3.68300 35.0084   8
   4  -3   7 216.557 77.1059   7
  -4   3  -7 285.543 87.5727  14
   4  -3   7 290.887 87.6408   6
   4  -3   7 229.836 74.3189   3
  -4   3  -7 402.332 108.192  11
  -4   3  -7 263.291 87.2724  10
  -4   3  -7 314.245 80.4224   9
   4  -3   7 257.223 83.3796   8
   4  -3   8 65.6854 48.3107   7
  -4   3  -8 83.4075 56.2984  14
   4  -3   8-0.29707 46.1075   6
   4  -3   8 43.7619 35.8789   3
  -4   3  -8 141.832 73.0212  11
  -4   3  -8 15.2617 40.1199  10
  -4   3  -8 39.8391 44.3145   9
   4  -3   8 87.4913 61.4259   8
   4  -3   9 151.085 57.5887   7
  -4   3  -9-71.5313 73.6648  14
   4  -3   9 10.1235 52.2994   6
   4  -3   9 46.3201 47.7653   3
  -4   3  -9-47.1411 64.9384  11
  -4   3  -9 109.623 71.7417   9
   4  -3   9-46.1266 59.9911   8
  -4   4  12-4.02805 38.8021  13
  -4   4  12 98.4124 125.349  12
   4  -4 -12-37.5814 39.6921   5
   4  -4 -12 24.4335 72.6905   4
  -4   4  11 1.07916 29.9825  13
  -4   4  11 61.6527 80.2635  12
   4  -4 -11-5.46095 52.1844   5
   4  -4 -11 13.7157 65.2600   4
  -4   4  10-2.77385 29.4558  13
  -4   4  10 154.734 85.9557  12
   4  -4 -10 6.19402 37.6506   5
   4  -4 -10 11.8975 79.4327   4
   4  -4  -9-3.02531 71.8690   4
  -4   4   9-54.6082 37.6554  13
  -4   4   9 24.5993 35.2764  12
   4  -4  -9 2.14862 53.1505   5
   4  -4  -8 11.3794 92.0395   4
   4  -4  -8-3.75534 124.129   7
  -4   4   8 43.4413 76.1371  13
  -4   4   8 360.136 92.0680  12
   4  -4  -8 60.2600 94.7045   5
   4  -4  -7-7.96390 58.7716   4
   4  -4  -7-1.79539 46.6560   7
  -4   4   7 2.72223 32.3015  13
  -4   4   7-33.0138 35.9330  12
   4  -4  -7 7.33526 53.0151   5
  -4   4   7 55.4368 65.2170  10
  -4   4   7-43.5934 52.7454   9
   4  -4  -7 94.4939 59.0900   8
   4  -4  -6-0.10595 65.8875   4
   4  -4  -6 4.53680 56.8650   7
  -4   4   6 12.8738 53.6314  13
  -4   4   6 78.3646 41.4466  12
   4  -4  -6 12.3586 70.9690   5
  -4   4   6 76.6950 60.1665  10
  -4   4   6 149.261 60.2061   9
   4  -4  -6 214.468 74.1852   8
   4  -4  -5 6.43504 39.5654   4
   4  -4  -5 1.40079 29.9268   7
  -4   4   5 3.17871 27.3461  13
  -4   4   5 47.4362 36.3347  12
  -4   4   5-10.9522 30.0735  10
   4  -4  -5 14.1961 29.2570   5
  -4   4   5 13.9735 37.0067   9
   4  -4  -5 27.6292 35.2550   8
   4  -4  -4-10.1178 49.4389   4
   4  -4  -4 10.9226 57.8810   7
  -4   4   4-8.49695 32.3128  13
  -4   4   4 89.8332 48.7261  12
  -4   4   4 61.3800 44.7693  10
   4  -4  -4 19.0987 45.6237   5
  -4   4   4 34.2433 22.0325   9
   4  -4  -4 62.4537 40.8053   8
   4  -4  -3 15.0293 37.2533   4
   4  -4  -3-42.8244 38.3474   7
   4  -4  -3 7.43450 38.0442   6
  -4   4   3-192.418 53.6069  12
  -4   4   3-15.1475 34.0104  10
   4  -4  -3-2.39302 27.6514   5
  -4   4   3 153.570 77.7276   9
   4  -4  -3-8.54474 36.9235   8
   4  -4  -2-47.7972 49.6294   7
   4  -4  -2 15.5353 27.0786   6
  -4   4   2 17.9363 32.2054  13
  -4   4   2-89.4081 52.0020  12
  -4   4   2-48.7267 36.9706  11
  -4   4   2-20.7843 35.8977  10
   4  -4  -2-50.7153 41.4639   5
  -4   4   2-0.95729 32.8311   9
   4  -4  -2-71.3570 59.1196   4
   4  -4  -2-3.77028 30.2384   8
   4  -4  -1-9.04640 27.4146   7
   4  -4  -1-43.8056 32.2055   6
  -4   4   1 23.8568 31.1599  12
  -4   4   1 1.93300 24.7772  11
  -4   4   1-31.8644 33.8921  10
   4  -4  -1-8.13063 31.7392   5
  -4   4   1 9.55880 28.1424   9
   4  -4  -1-56.5420 62.5737   4
   4  -4  -1 6.22044 24.5690   8
   4  -4   0 92.7211 50.8569   7
   4  -4   0 77.4957 38.4689   6
  -4   4   0 69.9208 42.0390  12
  -4   4   0 32.1787 35.2578  11
  -4   4   0 52.8297 43.2712  10
   4  -4   0 81.1524 43.9496   5
  -4   4   0 78.0998 39.4004   9
   4  -4   0 127.004 56.9006   8
   4  -4   1 35.8402 37.5267   7
   4  -4   1 40.2891 34.9324   6
  -4   4  -1 42.7135 44.9092  12
  -4   4  -1 31.1382 37.7912  11
  -4   4  -1 27.9967 35.3792  10
   4  -4   1 33.1768 43.5176   5
  -4   4  -1 54.4563 34.3575   9
   4  -4   1 25.2168 26.6068   8
   4  -4   2 668.467 113.889   7
   4  -4   2 590.796 101.212   6
  -4   4  -2 636.192 105.522  12
  -4   4  -2 638.726 105.840  11
   4  -4   2 640.826 106.198   5
  -4   4  -2 586.921 111.289  10
  -4   4  -2 658.934 110.371   9
   4  -4   2 498.197 99.3607   8
   4  -4   3 240.908 72.9076   7
   4  -4   3 197.851 64.7020   6
  -4   4  -3 215.424 61.4224  12
  -4   4  -3 269.176 69.4546  11
   4  -4   3 190.030 62.2041   5
  -4   4  -3 233.177 73.5743  10
  -4   4  -3 210.458 66.4730   9
   4  -4   3 193.976 59.7494   8
   4  -4   4 486.211 109.228   7
   4  -4   4 431.745 96.5348   6
  -4   4  -4 470.745 99.6460  11
   4  -4   4 316.293 74.6301   5
  -4   4  -4 332.209 87.9433  10
  -4   4  -4 478.376 104.809   9
   4  -4   4 395.740 92.4171   8
   4  -4   5 366.333 90.9872   7
   4  -4   5 347.885 89.8233   6
  -4   4  -5 347.502 91.9723  11
  -4   4  -5 396.537 102.726  10
  -4   4  -5 295.746 76.6246   9
   4  -4   5 369.719 92.1330   8
   4  -4   6 66.2089 52.0003   7
   4  -4   6 109.638 43.4676   6
   4  -4   6 64.3529 39.0493   3
  -4   4  -6 108.837 48.1682  11
  -4   4  -6 109.677 64.4277  10
  -4   4  -6 70.5022 55.0262   9
   4  -4   6 282.577 90.9573   8
   4  -4   7 292.598 85.6448   7
  -4   4  -7 214.257 79.9761  14
   4  -4   7 283.582 87.8611   6
   4  -4   7 74.3011 53.5047   3
  -4   4  -7 338.800 98.4832  11
  -4   4  -7 381.184 120.083  10
  -4   4  -7 236.329 82.9412   9
   4  -4   7 304.538 89.8980   8
   4  -4   8-18.6304 32.7467   7
  -4   4  -8-3.18633 32.2053  14
   4  -4   8-30.6406 58.8439   6
  -4   4  -8-130.297 84.0343  10
  -4   4  -8 78.3249 64.0471   9
   4  -4   8 9.40460 39.6199   8
   4  -4   9-0.81302 21.4540   7
  -4   4  -9 7.16946 51.7453  14
   4  -4   9 87.8307 71.9531   6
  -4   4  -9 64.1387 108.642  11
  -4   4  -9-32.5163 94.1740  10
   4  -4   9 0.74489 74.0192   8
   4  -5 -11-14.9228 59.6320   4
  -4   5  11 4.71262 31.7773  13
  -4   5  11-9.45530 54.9763  12
   4  -5 -11 7.74380 67.3811   5
   4  -5 -10-8.30858 67.4023   4
  -4   5  10-85.1699 46.8960  13
  -4   5  10 36.8399 55.7215  12
   4  -5 -10 4.10299 56.9846   5
   4  -5  -9-5.99513 46.1424   4
  -4   5   9-0.30248 39.4771  13
  -4   5   9-66.6213 54.5629  12
   4  -5  -9 0.58012 40.6927   5
   4  -5  -8 15.7094 91.5092   4
   4  -5  -8 50.2870 40.1053   7
  -4   5   8 0.69489 38.1316  13
  -4   5   8-67.9553 51.6287  12
   4  -5  -8-13.0151 65.5400   5
   4  -5  -7-7.90474 41.8686   4
   4  -5  -7 0.12017 52.2754   7
  -4   5   7-20.8977 31.5070  13
  -4   5   7 76.8023 44.3428  12
  -4   5   7-4.86310 33.7350  10
   4  -5  -7 1.03247 67.9826   5
  -4   5   7 54.9100 47.4796   9
   4  -5  -7 9.89704 32.9942   8
   4  -5  -6 15.1027 67.0941   4
   4  -5  -6 2.66533 81.5959   7
  -4   5   6 11.2698 63.6260  13
  -4   5   6 35.3828 38.4359  12
  -4   5   6 47.8472 43.1081  10
   4  -5  -6 15.7967 61.7932   5
  -4   5   6 122.862 57.8396   9
   4  -5  -6 33.9652 31.6396   8
   4  -5  -5 0.95305 30.5713   4
   4  -5  -5 7.76332 34.5468   7
  -4   5   5 11.9883 50.3728  13
  -4   5   5 73.6879 52.6868  12
  -4   5   5-16.6261 42.2519  10
   4  -5  -5 3.21380 38.3995   5
  -4   5   5 43.0777 30.0512   9
   4  -5  -5 96.4314 51.4865   8
   4  -5  -4 274.087 75.6190   8
   4  -5  -4-3.40435 61.3520   4
   4  -5  -4 2.96496 75.7851   7
  -4   5   4 67.0379 66.1676  13
  -4   5   4 314.647 79.0403  12
  -4   5   4 27.3055 47.2128  10
   4  -5  -4 33.4734 71.6842   5
  -4   5   4 127.504 50.2309   9
   4  -5  -3-13.1411 34.3276   8
   4  -5  -3 42.8675 35.5501   4
   4  -5  -3 40.3781 37.6560   7
  -4   5   3 0.63815 22.6030  13
  -4   5   3-0.20963 32.1444  12
  -4   5   3 16.3899 36.5262  10
   4  -5  -3 62.7879 48.1034   5
  -4   5   3 14.9536 33.3974   9
   4  -5  -2 2016.45 199.286   7
  -4   5   2 1844.37 189.000  12
  -4   5   2 1849.07 160.888  11
   4  -5  -2 1794.66 184.475   5
  -4   5   2 1907.66 194.268  10
  -4   5   2 1732.38 167.433   9
   4  -5  -2 1865.73 179.253   8
   4  -5  -2 1784.28 159.269   4
   4  -5  -1 59.5883 37.7222   8
   4  -5  -1 49.8875 39.2233   7
   4  -5  -1 72.4097 42.8954   6
  -4   5   1 55.1733 38.9810  12
  -4   5   1 31.4904 27.8099  11
  -4   5   1 99.2265 56.6656  10
   4  -5  -1 64.8906 44.8780   5
  -4   5   1 113.743 57.1067   9
   4  -5   0-52.5957 40.2890   8
   4  -5   0 6.39226 30.9831   7
   4  -5   0 67.2541 47.6054   6
  -4   5   0 60.4547 47.4170  12
  -4   5   0-2.44855 30.9375  11
  -4   5   0-13.2353 34.0107  10
   4  -5   0 27.1129 34.3871   5
  -4   5   0 39.2093 37.0234   9
   4  -5   1 292.791 78.4931   8
   4  -5   1 235.430 74.8950   7
   4  -5   1 233.323 71.7640   6
  -4   5  -1 197.065 54.0067  11
  -4   5  -1 238.278 72.5006  10
   4  -5   1 176.647 53.7837   5
  -4   5  -1 270.485 71.5180   9
   4  -5   2 1500.92 175.826   7
   4  -5   2 1541.06 178.575   6
  -4   5  -2 1370.46 157.135  11
   4  -5   2 1728.22 177.616   5
  -4   5  -2 1605.44 188.417  10
  -4   5  -2 1324.69 158.603   9
   4  -5   2 1264.64 151.309   8
   4  -5   3-125.669 53.2298   8
   4  -5   3-10.1873 35.1248   7
   4  -5   3-43.9505 38.9989   6
  -4   5  -3 32.1642 30.2474  11
  -4   5  -3-38.0221 60.8113  10
   4  -5   3-122.575 68.6027   5
  -4   5  -3 3.60303 58.7018   9
   4  -5   4-60.4047 48.0735   8
   4  -5   4-41.5659 47.6709   7
   4  -5   4-2.14032 28.3141   6
  -4   5  -4 0.35498 40.6486  11
  -4   5  -4 57.7876 39.7978  10
   4  -5   4-41.7378 57.9850   5
  -4   5  -4 82.6209 59.9339   9
   4  -5   5-4.26002 43.7371   8
   4  -5   5 14.2859 32.2313   7
   4  -5   5 54.2718 43.3101   6
  -4   5  -5 87.6779 49.2114  11
  -4   5  -5-5.16178 46.1203  10
  -4   5  -5 87.6608 53.7588   9
   4  -5   6 26.8156 39.6054   8
   4  -5   6-33.4481 50.9770   7
   4  -5   6 52.5883 56.9021   6
  -4   5  -6 91.1046 64.6907  11
  -4   5  -6 201.641 98.6281  10
  -4   5  -6 5.19419 41.1325   9
   4  -5   7-47.2347 46.7936   6
  -4   5  -7-132.837 79.4474  11
  -4   5  -7-192.169 96.4622  10
   4  -5   7-98.6499 69.5344   8
   4  -5   8-61.6241 40.4890   6
  -4   5  -8 87.6061 78.6402  11
   4  -6 -10-2.74300 50.9895   4
  -4   6  10 4.18072 30.2636  13
   4  -6 -10-5.38177 64.4273   5
   4  -6  -9 12.7621 77.2501   4
  -4   6   9-18.0723 37.1752  13
   4  -6  -9-13.8639 51.7052   5
   4  -6  -8 8.15484 46.1246   4
  -4   6   8-10.8878 76.9134  13
   4  -6  -8-11.0247 51.3805   5
   4  -6  -7-7.68905 35.4850   4
  -4   6   7-5.88180 27.6368  13
  -4   6   7-21.5755 45.5011  10
   4  -6  -7-2.32788 41.7398   5
   4  -6  -7-7.48268 36.8399   8
   4  -6  -6 166.818 68.9979   8
   4  -6  -6 4.85087 64.6554   4
  -4   6   6 1.87656 45.6552  10
   4  -6  -6 5.70229 54.9424   5
   4  -6  -5-61.3927 55.0915   8
   4  -6  -5 0.41595 41.6843   4
  -4   6   5 4.85334 35.9825  10
   4  -6  -5 12.9476 53.5605   5
   4  -6  -4 92.3563 48.6119   8
   4  -6  -4 2.70825 50.7496   4
  -4   6   4 55.2896 52.9038  10
   4  -6  -4 30.5224 42.3841   5
   4  -6  -3 203.449 72.1818   8
   4  -6  -3 87.4967 45.4831   7
   4  -6  -3 115.916 43.3382   4
  -4   6   3 186.834 78.4472  10
   4  -6  -3 19.3538 57.0460   5
   4  -6  -2 295.696 80.3942   8
   4  -6  -2 85.7204 39.0250   7
   4  -6  -2 67.6456 32.0643   4
  -4   6   2 298.978 80.4275  10
   4  -6  -2 228.507 72.1952   5
  -4   6   2 308.590 80.8972   9
   4  -6  -1 33.0739 33.5845   8
   4  -6  -1-14.9217 26.6169   7
  -4   6   1 54.0023 31.0526  11
  -4   6   1-15.6217 32.2010  10
   4  -6  -1 119.594 53.8264   5
  -4   6   1 56.7507 44.4004   9
   4  -6   0-47.8193 37.4404   8
   4  -6   0-4.93935 35.2597   7
  -4   6   0 31.4076 24.6732  11
  -4   6   0 42.4181 47.6937  10
   4  -6   0 27.3784 30.6317   5
  -4   6   0 85.8466 44.6197   9
   4  -6   1-87.5308 54.5902   8
   4  -6   1 31.7820 30.7291   7
  -4   6  -1-39.7238 48.5317  11
   4  -6   1-18.0061 35.8423   5
   4  -6   2 2.06707 33.8176   8
   4  -6   2 67.2940 39.5437   7
  -4   6  -2 69.0371 42.8505  11
  -4   6  -2 147.043 69.0874  10
   4  -6   3-31.8974 37.7299   8
  -4   6  -3 114.336 60.0484  10
   5  -3   0-13.5352 55.4722   7
  -5   3   0 45.7841 44.2469   9
   5  -3   1 82.0387 46.9278   7
  -5   3  -1 146.805 67.1295   9
   5  -3   2-173.185 94.9918   7
  -5   3  -2 38.0099 44.0234   9
   5  -3   3 148.217 91.0706   7
  -5   3  -3 155.920 81.3199   9
   5  -3   4 179.381 112.765   7
  -5   3  -4 137.200 81.5952   9
   5  -3   5 34.5997 54.5804   7
  -5   3  -5 177.094 99.5429   9
  -5   4   8-15.9729 30.5306  12
   5  -4  -8 16.5669 37.4750   5
  -5   4   7 18.0284 37.4853  12
   5  -4  -7 1.51035 56.6775   5
   5  -4  -6 0.16984 40.4741   7
  -5   4   6-37.8572 59.8406  12
   5  -4  -6-18.9009 35.2525   5
  -5   4   6-33.1937 36.4873   9
   5  -4  -5-103.468 73.0229   7
  -5   4   5-69.6252 50.4820  12
   5  -4  -5-12.0158 53.0210   5
  -5   4   5 13.3722 44.2360   9
   5  -4  -4 7.63159 43.1290   7
  -5   4   4 84.0899 50.0916  12
   5  -4  -4 11.6301 42.4765   5
  -5   4   4-9.63792 32.6726  10
  -5   4   4 27.8918 25.8201   9
   5  -4  -4 74.7029 87.2742   8
   5  -4  -3 3.79303 40.7378   7
  -5   4   3 145.641 74.5984  12
   5  -4  -3-4.10366 52.0362   5
  -5   4   3-62.3234 65.5521  10
  -5   4   3 32.9639 39.2803   9
   5  -4  -3 12.6448 39.3204   8
   5  -4  -2 874.460 161.421   7
  -5   4   2 602.177 122.008  12
   5  -4  -2 535.319 120.939   5
  -5   4   2 751.846 148.948  10
  -5   4   2 391.861 85.5744   9
   5  -4  -2 684.862 132.191   8
   5  -4  -1 214.440 74.6413   7
   5  -4  -1 53.6866 50.9939   6
  -5   4   1 297.184 102.318  12
   5  -4  -1 187.551 80.4650   5
  -5   4   1 207.776 77.6984  10
  -5   4   1 137.564 61.4288   9
   5  -4  -1 222.238 76.3543   8
   5  -4   0 257.458 84.3817   7
   5  -4   0 336.163 96.6563   6
  -5   4   0 192.514 74.6432  12
   5  -4   0 233.422 78.8203   5
  -5   4   0 187.940 78.3453  10
  -5   4   0 189.556 63.1348   9
   5  -4   0 254.898 82.3805   8
   5  -4   1 300.358 109.630   7
   5  -4   1 334.633 91.0486   6
  -5   4  -1 457.599 121.645  12
  -5   4  -1 291.118 98.8284  10
  -5   4  -1 361.333 98.0049   9
   5  -4   1 199.079 84.3960   8
   5  -4   2 100.706 48.4283   7
   5  -4   2 179.656 87.5607   6
  -5   4  -2 57.8331 40.7359  12
  -5   4  -2 97.0033 55.1687  10
  -5   4  -2-11.0848 52.9690   9
   5  -4   2 139.534 77.6160   8
   5  -4   3 43.1663 59.6716   7
   5  -4   3 83.6581 69.3360   6
  -5   4  -3 47.2371 47.1195  10
  -5   4  -3 37.8856 49.0922   9
   5  -4   3 206.740 90.7779   8
   5  -4   4-43.4202 50.8202   7
   5  -4   4-19.1340 40.5464   6
  -5   4  -4-27.6559 55.6725  10
  -5   4  -4-73.8236 66.8740   9
   5  -4   4-4.01594 53.1841   8
   5  -4   5-34.5457 53.6081   6
  -5   4  -5 98.1903 63.1195  10
  -5   4  -5-103.483 61.3400   9
   5  -4   5-44.8584 52.4693   8
  -5   5   8 16.3655 54.7431  13
  -5   5   8 48.0549 34.2438  12
   5  -5  -8 4.84751 51.1672   5
   5  -5  -7 10.3335 91.9983   7
  -5   5   7-3.05756 51.4025  13
  -5   5   7-40.5444 40.1243  12
   5  -5  -7 49.8060 45.1709   5
  -5   5   7-31.5536 77.7856   9
   5  -5  -7-36.5339 58.0168   8
   5  -5  -6 4.23754 155.703   7
  -5   5   6 52.0228 104.601  13
  -5   5   6 169.307 50.2230  12
   5  -5  -6 73.3585 122.533   5
  -5   5   6 419.224 131.194  10
  -5   5   6 632.745 141.800   9
   5  -5  -6 958.616 188.223   8
   5  -5  -5-4.70263 37.5555   7
  -5   5   5 36.7293 43.6476  12
   5  -5  -5 5.17161 58.6684   5
  -5   5   5-58.4116 66.8202  10
  -5   5   5-31.9821 45.1945   9
   5  -5  -5 16.0040 77.0328   8
   5  -5  -4-49.1883 55.3045   7
  -5   5   4 21.3516 51.5653  12
   5  -5  -4-5.09596 52.9419   5
  -5   5   4-9.07349 40.9871  10
  -5   5   4 0.82177 33.1721   9
   5  -5  -4 97.8835 69.8054   8
   5  -5  -3 25.4659 50.8117   7
  -5   5   3 125.198 59.3333  12
   5  -5  -3-7.76443 41.0173   5
  -5   5   3-42.3576 47.6959  10
  -5   5   3-17.5326 42.4643   9
   5  -5  -3 104.209 65.9096   8
   5  -5  -2 394.688 107.327   7
  -5   5   2 369.532 100.448  12
   5  -5  -2 347.910 90.9401   5
  -5   5   2 301.675 99.2675  10
  -5   5   2 278.529 73.1763   9
   5  -5  -2 412.821 100.418   8
   5  -5  -1 102.128 49.2326   7
  -5   5   1-2.64876 46.7752  12
   5  -5  -1-14.6036 52.5079   5
  -5   5   1-39.9413 53.7730  10
  -5   5   1 23.0516 28.4979   9
   5  -5  -1 85.4922 48.0619   8
   5  -5   0-10.1182 44.7041   7
   5  -5   0 86.6761 59.1433   6
  -5   5   0 23.3140 55.1152  12
   5  -5   0 4.51803 51.4324   5
  -5   5   0 93.7042 69.5875  10
  -5   5   0 40.9909 52.4357   9
   5  -5   0 107.321 62.6526   8
   5  -5   1-24.9852 55.5340   7
   5  -5   1-9.44190 35.4893   6
   5  -5   1 22.5220 44.0466   5
  -5   5  -1 17.0341 46.4511  10
  -5   5  -1-77.5305 65.3753   9
   5  -5   1-16.1107 53.6971   8
   5  -5   2 6.45072 43.2040   7
   5  -5   2-27.9610 39.0289   6
  -5   5  -2-83.2549 52.7121  11
   5  -5   2-134.008 78.7196   5
  -5   5  -2-35.1496 58.6083  10
   5  -5   2-14.1609 52.9217   8
   5  -5   3-63.3302 55.1797   7
   5  -5   3 76.3292 56.4013   6
  -5   5  -3-119.267 76.0255  10
  -5   5  -3-112.519 73.2073   9
   5  -5   3 49.3789 53.9540   8
   5  -5   4 10.7056 54.2089   7
   5  -5   4-10.8346 47.4351   6
  -5   5  -4 216.820 94.6618  11
  -5   5  -4 85.4192 104.531  10
  -5   5  -4-34.0036 51.1677   9
   5  -5   4-73.5722 71.5185   8
   5  -6  -6 2.31728 40.2922   7
  -5   6   6 39.6069 35.2184  12
   5  -6  -6-9.94493 42.8294   5
  -5   6   6 61.2456 38.2415  10
   5  -6  -6 134.826 67.1946   8
   5  -6  -6 9.86740 55.0049   4
   5  -6  -5 43.5128 62.6341   7
  -5   6   5-152.349 70.8400  12
   5  -6  -5 33.1034 56.1436   5
  -5   6   5 57.2295 48.5261  10
  -5   6   5 49.3008 54.7025   9
   5  -6  -4-13.0797 39.0630   7
  -5   6   4-35.7050 47.9291  12
  -5   6   4-55.6891 61.8530  10
   5  -6  -4-1.43344 68.0629   5
  -5   6   4-75.8262 33.2331   9
   5  -6  -4-104.085 67.3547   8
   5  -6  -3 7.91799 31.8478   7
  -5   6   3 3.69863 36.6134  10
   5  -6  -3-29.6894 66.0504   5
  -5   6   3 121.373 60.5775   9
   5  -6  -3-79.8781 64.7568   8
   5  -6  -2 68.1189 57.8290   7
  -5   6   2 60.9765 42.3871  10
   5  -6  -2 14.4859 41.1507   5
  -5   6   2 18.0443 41.0570   9
   5  -6  -2-58.6545 51.8325   8
   5  -6  -1 48.1575 57.7183   7
  -5   6   1 132.676 61.4006  10
   5  -6  -1 76.1744 53.2895   5
  -5   6   1 123.386 65.5826   9
   5  -6  -1 53.4379 52.0070   8
   5  -6   0 25.1064 40.7531   7
  -5   6   0 78.5161 44.9163  10
   5  -6   0-14.0966 41.8809   5
  -5   6   0 34.8352 39.4943   9
   5  -6   0-55.5663 46.2651   8
   5  -6   1 3.64745 30.1069   7
  -5   6  -1 104.785 64.4038  11
  -5   6  -1-110.433 75.9846  10
   5  -6   1 18.7157 46.9481   5
  -5   6  -1-13.7610 39.1783   9
   5  -6   1 42.5112 53.7911   8
   5  -6   2 61.4499 51.7036   7
  -5   6  -2 27.4735 43.4523  11
  -5   6  -2 30.8346 41.2370  10
  -5   6  -2 76.9436 55.4038   9
   5  -6   2-108.729 74.8633   8
   0   0   0    0.00    0.00   0

TITL monoclinic in P2(1)/c
REM P2(1)/c (#14 in standard setting)
CELL 0.71073   5.089655  10.213100  13.789463  90.0000  98.8582  90.0000
ZERR    4.00   0.001896   0.010845   0.004881   0.0000   0.0308   0.0000
LATT  1
SYMM -x, y+1/2,-z+1/2
SFAC C H N O
UNIT 16.00 28.00 20.00 12.00
TREF
HKLF 4
END
;
_shelx_hkl_checksum              5321
_olex2_submission_special_instructions 'No special instructions were received'
_oxdiff_exptl_absorpt_empirical_details
;
Empirical correction (ABSPACK) includes:
- Absorption correction using spherical harmonics
- Frame scaling
;
_oxdiff_exptl_absorpt_empirical_full_max 3.248
_oxdiff_exptl_absorpt_empirical_full_min 0.664
loop_
_space_group_symop_operation_xyz
'x, y, z'
'-x, y+1/2, -z+1/2'
'-x, -y, -z'
'x, -y-1/2, z-1/2'
loop_
_atom_site_label
_atom_site_type_symbol
_atom_site_fract_x
_atom_site_fract_y
_atom_site_fract_z
_atom_site_U_iso_or_equiv
_atom_site_adp_type
_atom_site_occupancy
_atom_site_site_symmetry_order
_atom_site_calc_flag
_atom_site_refinement_flags_posn
_atom_site_refinement_flags_adp
_atom_site_refinement_flags_occupancy
_atom_site_disorder_assembly
_atom_site_disorder_group
C1 C 0.107(2) 0.786(2) 0.5400(8) 0.086(9) Uani 1 1 d . . . . .
H1 H -0.046830 0.824594 0.507050 0.104 Uiso 1 1 calc R . . . .
C2 C 0.3261(18) 0.8598(17) 0.5870(6) 0.064(7) Uani 1 1 d . . . . .
H2 H 0.347978 0.950188 0.588426 0.077 Uiso 1 1 calc R . . . .
C3 C 0.4930(19) 0.7684(19) 0.6286(6) 0.065(7) Uani 1 1 d . . . . .
H3 H 0.657274 0.783750 0.666714 0.078 Uiso 1 1 calc R . . . .
C4 C 0.4753(18) 0.519(2) 0.6297(6) 0.064(7) Uani 1 1 d . . . . .
N1 N 0.3811(17) 0.6463(16) 0.6055(5) 0.060(7) Uani 1 1 d . . . . .
N2 N 0.1382(15) 0.6637(16) 0.5466(6) 0.079(7) Uani 1 1 d . . . . .
N3 N 0.3356(14) 0.4241(13) 0.5913(5) 0.080(6) Uani 1 1 d . . . . .
H3A H 0.392617 0.345174 0.600808 0.096 Uiso 1 1 calc R . . . .
H3B H 0.184156 0.438647 0.555852 0.096 Uiso 1 1 calc R . . . .
N4 N 0.7062(11) 0.5088(10) 0.6844(4) 0.070(4) Uani 1 1 d . . . . .
H4A H 0.775709 0.432730 0.697051 0.084 Uiso 1 1 calc R . . . .
H4B H 0.789422 0.577779 0.707953 0.084 Uiso 1 1 calc R . . . .
N5 N 0.2458(19) 0.648(2) 0.8268(6) 0.070(7) Uani 1 1 d . . . . .
O1 O 0.4837(9) 0.6736(8) 0.8575(4) 0.080(4) Uani 1 1 d . . . . .
O2 O 0.166(2) 0.5327(17) 0.8240(6) 0.104(7) Uani 1 1 d . . . . .
O3 O 0.0868(12) 0.7364(11) 0.7940(4) 0.086(5) Uani 1 1 d . . . . .
loop_
_atom_site_aniso_label
_atom_site_aniso_U_11
_atom_site_aniso_U_22
_atom_site_aniso_U_33
_atom_site_aniso_U_23
_atom_site_aniso_U_13
_atom_site_aniso_U_12
C1 0.054(7) 0.12(3) 0.085(6) -0.023(10) -0.003(5) 0.026(9)
C2 0.073(9) 0.03(3) 0.080(5) -0.007(7) -0.013(5) -0.009(5)
C3 0.046(7) 0.07(3) 0.070(5) -0.004(7) -0.008(4) -0.003(6)
C4 0.027(7) 0.10(3) 0.065(5) 0.011(8) 0.002(4) 0.008(5)
N1 0.040(7) 0.07(3) 0.069(4) -0.015(7) -0.005(4) -0.013(5)
N2 0.027(6) 0.12(3) 0.083(5) -0.016(7) -0.010(4) 0.007(6)
N3 0.053(6) 0.09(2) 0.091(5) -0.002(6) -0.027(4) 0.003(5)
N4 0.059(6) 0.056(16) 0.086(4) -0.017(5) -0.018(3) 0.003(3)
N5 0.045(8) 0.09(3) 0.075(5) -0.010(6) -0.003(4) -0.001(5)
O1 0.034(4) 0.098(13) 0.101(4) -0.009(4) -0.012(3) -0.006(3)
O2 0.065(6) 0.10(2) 0.133(6) -0.011(7) -0.018(4) -0.012(6)
O3 0.043(5) 0.117(16) 0.092(4) 0.012(5) -0.007(3) 0.010(4)
loop_
_atom_type_symbol
_atom_type_description
_atom_type_scat_dispersion_real
_atom_type_scat_dispersion_imag
_atom_type_scat_source
C C 0.0033 0.0016 'International Tables Vol C Tables 4.2.6.8 and 6.1.1.4'
H H 0.0000 0.0000 'International Tables Vol C Tables 4.2.6.8 and 6.1.1.4'
N N 0.0061 0.0033 'International Tables Vol C Tables 4.2.6.8 and 6.1.1.4'
O O 0.0106 0.0060 'International Tables Vol C Tables 4.2.6.8 and 6.1.1.4'
loop_
_geom_angle_atom_site_label_1
_geom_angle_atom_site_label_2
_geom_angle_atom_site_label_3
_geom_angle
_geom_angle_site_symmetry_1
_geom_angle_site_symmetry_3
_geom_angle_publ_flag
N2 C1 C2 114.3(11) . . ?
C3 C2 C1 103.3(17) . . ?
C2 C3 N1 108.6(9) . . ?
N3 C4 N1 117.3(10) . . ?
N3 C4 N4 125.2(18) . . ?
N4 C4 N1 117.4(17) . . ?
C3 N1 C4 131.4(15) . . ?
N2 N1 C3 108.6(17) . . ?
N2 N1 C4 120.0(13) . . ?
C1 N2 N1 105.1(15) . . ?
O1 N5 O3 121.1(19) . . ?
O2 N5 O1 120(2) . . ?
O2 N5 O3 118.8(11) . . ?
loop_
_geom_bond_atom_site_label_1
_geom_bond_atom_site_label_2
_geom_bond_distance
_geom_bond_site_symmetry_2
_geom_bond_publ_flag
C1 C2 1.42(2) . ?
C1 N2 1.26(2) . ?
C2 C3 1.33(2) . ?
C3 N1 1.39(2) . ?
C4 N1 1.41(2) . ?
C4 N3 1.27(2) . ?
C4 N4 1.299(10) . ?
N1 N2 1.382(12) . ?
N5 O1 1.247(10) . ?
N5 O2 1.25(2) . ?
N5 O3 1.25(2) . ?

_cod_database_fobs_code 2108913
