#------------------------------------------------------------------------------
#$Date: 2022-01-01 06:19:30 +0200 (Sat, 01 Jan 2022) $
#$Revision: 271667 $
#$URL: file:///home/coder/svn-repositories/cod/cif/2/10/89/2108912.cif $
#------------------------------------------------------------------------------
#
# This file is available in the Crystallography Open Database (COD),
# http://www.crystallography.net/. The original data for this entry
# were provided by IUCr Journals, http://journals.iucr.org/.
#
# The file may be used within the scientific community so long as
# proper attribution is given to the journal article from which the
# data were obtained.
#
data_2108912
loop_
_publ_author_name
'Rejnhardt, Piotr'
'Drozd, Marek'
'Daszkiewicz, Marek'
_publ_section_title
;
 Low-temperature phase transition and high-pressure phase stability of
 1<i>H</i>-pyrazole-1-carboxamidine nitrate
;
_journal_issue                   6
_journal_name_full               'Acta Crystallographica Section B'
_journal_page_first              996
_journal_page_last               1002
_journal_paper_doi               10.1107/S2052520621010970
_journal_volume                  77
_journal_year                    2021
_chemical_formula_moiety         'C4 H7 N4, N O3'
_chemical_formula_sum            'C4 H7 N5 O3'
_chemical_formula_weight         173.15
_space_group_crystal_system      monoclinic
_space_group_IT_number           14
_space_group_name_Hall           '-P 2ybc'
_space_group_name_H-M_alt        'P 1 21/c 1'
_atom_sites_solution_hydrogens   geom
_atom_sites_solution_primary     direct
_audit_creation_date             2021-07-12
_audit_creation_method
;
Olex2 1.2
(compiled 2018.05.29 svn.r3508 for OlexSys, GUI svn.r5506)
;
_cell_angle_alpha                90
_cell_angle_beta                 99.36(4)
_cell_angle_gamma                90
_cell_formula_units_Z            4
_cell_length_a                   5.1064(10)
_cell_length_b                   10.1978(9)
_cell_length_c                   13.867(8)
_cell_measurement_reflns_used    1262
_cell_measurement_temperature    293(2)
_cell_measurement_theta_max      22.3870
_cell_measurement_theta_min      3.9850
_cell_volume                     712.5(4)
_computing_cell_refinement       'CrysAlisPro 1.171.39.46 (Rigaku OD, 2018)'
_computing_data_collection       'CrysAlisPro 1.171.39.46 (Rigaku OD, 2018)'
_computing_data_reduction        'CrysAlisPro 1.171.39.46 (Rigaku OD, 2018)'
_computing_molecular_graphics    'Olex2 (Dolomanov et al., 2009)'
_computing_publication_material  'Olex2 (Dolomanov et al., 2009)'
_computing_structure_refinement  'ShelXL (Sheldrick, 2015)'
_computing_structure_solution    'ShelXS (Sheldrick, 2008)'
_diffrn_ambient_temperature      293(2)
_diffrn_detector                 'CCD plate'
_diffrn_detector_area_resol_mean 8.2214
_diffrn_detector_type            'Sapphire2, large Be window'
_diffrn_measured_fraction_theta_full 0.357
_diffrn_measured_fraction_theta_max 0.357
_diffrn_measurement_details
;
List of Runs (angles in degrees, time in seconds):

  # Type    Start    End  Width  t~exp~   \w     \q     \k     \f   Frames
--------------------------------------------------------------------------
  1  \w    -20.00  31.60   0.60   30.00    --   25.00   0.00   0.00   86
  2  \w    -20.00  35.80   0.60   30.00    --   25.00   0.00 180.00   93
  3  \w     -3.00  46.80   0.60   30.00    --   25.00 -40.00-170.00   83
  4  \w     -3.00  46.80   0.60   30.00    --   25.00 -40.00  10.00   83
  5  \w      8.00  65.00   0.60   30.00    --   25.00 -82.00  30.00   95
  6  \w      8.00  65.00   0.60   30.00    --   25.00 -82.00-150.00   95
  7  \w     32.50  88.90   0.60   30.00    --   25.00-135.00-122.00   94
  8  \w     32.00  89.00   0.60   30.00    --   25.00-135.00  58.00   95
  9  \w     25.00  46.60   0.60   30.00    --  -25.00-135.00  58.00   36
 10  \w     25.00  46.60   0.60   30.00    --  -25.00-135.00-122.00   36
 11  \w      0.00  22.80   0.60   30.00    --  -25.00 -82.00-150.00   38
 12  \w      0.00  22.80   0.60   30.00    --  -25.00 -82.00  30.00   38
 13  \w    -19.00  17.00   0.60   30.00    --  -25.00 -40.00  10.00   60
 14  \w    -19.00  17.00   0.60   30.00    --  -25.00 -40.00-170.00   60
 15  \w    -33.00  21.60   0.60   30.00    --  -25.00   0.00 180.00   91
 16  \w    -33.00  21.60   0.60   30.00    --  -25.00   0.00   0.00   91
;
_diffrn_measurement_device       'four-circle diffractometer'
_diffrn_measurement_device_type  'Xcalibur, Sapphire2, large Be window'
_diffrn_measurement_method       '\w scans'
_diffrn_orient_matrix_type
'CrysAlisPro convention (1999,Acta A55,543-557)'
_diffrn_orient_matrix_UB_11      -0.0587061000
_diffrn_orient_matrix_UB_12      -0.0153740000
_diffrn_orient_matrix_UB_13      0.0415729000
_diffrn_orient_matrix_UB_21      -0.1278457000
_diffrn_orient_matrix_UB_22      0.0041275000
_diffrn_orient_matrix_UB_23      -0.0288639000
_diffrn_orient_matrix_UB_31      0.0055787000
_diffrn_orient_matrix_UB_32      -0.0676977000
_diffrn_orient_matrix_UB_33      -0.0112402000
_diffrn_radiation_monochromator  graphite
_diffrn_radiation_probe          x-ray
_diffrn_radiation_type           MoK\a
_diffrn_radiation_wavelength     0.71073
_diffrn_reflns_av_R_equivalents  0.0514
_diffrn_reflns_av_unetI/netI     0.0362
_diffrn_reflns_Laue_measured_fraction_full 0.357
_diffrn_reflns_Laue_measured_fraction_max 0.357
_diffrn_reflns_limit_h_max       5
_diffrn_reflns_limit_h_min       -5
_diffrn_reflns_limit_k_max       12
_diffrn_reflns_limit_k_min       -12
_diffrn_reflns_limit_l_max       9
_diffrn_reflns_limit_l_min       -9
_diffrn_reflns_number            3886
_diffrn_reflns_point_group_measured_fraction_full 0.357
_diffrn_reflns_point_group_measured_fraction_max 0.357
_diffrn_reflns_theta_full        24.966
_diffrn_reflns_theta_max         24.966
_diffrn_reflns_theta_min         3.996
_diffrn_source                   'fine-focus sealed X-ray tube'
_diffrn_source_type              'Enhance (Mo) X-ray Source'
_exptl_absorpt_coefficient_mu    0.138
_exptl_absorpt_correction_T_max  1.00000
_exptl_absorpt_correction_T_min  0.05836
_exptl_absorpt_correction_type   multi-scan
_exptl_absorpt_process_details
;
CrysAlisPro 1.171.39.46 (Rigaku Oxford Diffraction, 2018)
Empirical absorption correction using spherical harmonics,
 implemented in SCALE3 ABSPACK scaling algorithm.
;
_exptl_crystal_colour            colourless
_exptl_crystal_density_diffrn    1.614
_exptl_crystal_description       prism
_exptl_crystal_F_000             360
_refine_diff_density_max         0.114
_refine_diff_density_min         -0.113
_refine_diff_density_rms         0.028
_refine_ls_extinction_coef       0.027(11)
_refine_ls_extinction_expression Fc^*^=kFc[1+0.001xFc^2^\l^3^/sin(2\q)]^-1/4^
_refine_ls_extinction_method     'SHELXL-2018/3 (Sheldrick 2018)'
_refine_ls_goodness_of_fit_ref   1.051
_refine_ls_hydrogen_treatment    constr
_refine_ls_matrix_type           full
_refine_ls_number_parameters     110
_refine_ls_number_reflns         445
_refine_ls_number_restraints     0
_refine_ls_restrained_S_all      1.051
_refine_ls_R_factor_all          0.0710
_refine_ls_R_factor_gt           0.0411
_refine_ls_shift/su_max          0.000
_refine_ls_shift/su_mean         0.000
_refine_ls_structure_factor_coef Fsqd
_refine_ls_weighting_details
'w=1/[\s^2^(Fo^2^)+(0.0575P)^2^+0.3399P] where P=(Fo^2^+2Fc^2^)/3'
_refine_ls_weighting_scheme      calc
_refine_ls_wR_factor_gt          0.0927
_refine_ls_wR_factor_ref         0.1102
_reflns_Friedel_coverage         0.000
_reflns_number_gt                320
_reflns_number_total             445
_reflns_threshold_expression     'I > 2\s(I)'
_cod_data_source_file            xk5086sup1.cif
_cod_data_source_block           0.32GPa
_cod_database_code               2108912
_shelx_shelxl_version_number     2018/3
_chemical_oxdiff_formula         C4N4NO3H7
_shelx_space_group_comment
;
The symmetry employed for this shelxl refinement is uniquely defined
by the following loop, which should always be used as a source of
symmetry information in preference to the above space-group names.
They are only intended as comments.
;
_reflns_odcompleteness_completeness 35.14
_reflns_odcompleteness_iscentric 1
_reflns_odcompleteness_theta     24.92
_olex2_refinement_description
;
1. Fixed Uiso
 At 1.2 times of:
  All C(H) groups, All N(H,H) groups
2.a Aromatic/amide H refined with riding coordinates:
 C1(H1), C2(H2), C3(H3)
2.b X=CH2 refined with riding coordinates:
 N3(H3A,H3B), N4(H4A,H4B)
;
_shelx_res_file
;
TITL instrument in P21/c #14
    instrument.res
    created by SHELXL-2018/3 at 12:55:28 on 12-Jul-2021
REM reset to P21/c #14
CELL 0.71073 5.106416 10.197751 13.867069 90 99.365 90
ZERR 4 0.000953 0.000878 0.007935 0 0.0363 0
LATT 1
SYMM -X,0.5+Y,0.5-Z
SFAC C H N O
UNIT 16 28 20 12

L.S. 99
PLAN  20
BOND
fmap 2 53
ACTA
OMIT 2 7 8
OMIT 3 1 4
OMIT 4 3 1
OMIT -1 8 5
OMIT 2 2 7
OMIT 1 0 4
REM <olex2.extras>
REM <HklSrc "%.\\instrument.hkl">
REM </olex2.extras>

WGHT    0.057500    0.339900
EXTI    0.026675
FVAR       2.28390
C1    1    0.106629    0.789416    0.538119    11.00000    0.04954    0.04507 =
         0.06820   -0.00046   -0.00189    0.00341
AFIX  43
H1    2   -0.041746    0.829014    0.501960    11.00000   -1.20000
AFIX   0
C2    1    0.324387    0.858710    0.587786    11.00000    0.05614    0.04152 =
         0.07319   -0.00488    0.00365   -0.00437
AFIX  43
H2    2    0.346449    0.949237    0.590378    11.00000   -1.20000
AFIX   0
C3    1    0.495236    0.767745    0.631000    11.00000    0.05306    0.04515 =
         0.07466   -0.01030   -0.00571   -0.01079
AFIX  43
H3    2    0.658594    0.782716    0.670008    11.00000   -1.20000
AFIX   0
C4    1    0.477030    0.523271    0.629108    11.00000    0.02972    0.04489 =
         0.04171   -0.00151    0.01237   -0.00113
N1    3    0.379103    0.647787    0.605749    11.00000    0.04141    0.03929 =
         0.06100    0.00344   -0.00962   -0.00185
N2    3    0.136390    0.661577    0.548574    11.00000    0.04167    0.04169 =
         0.08185    0.00159   -0.01044    0.00086
N3    3    0.338485    0.424319    0.591047    11.00000    0.04811    0.03899 =
         0.08456   -0.00180   -0.01478    0.00191
AFIX  93
H3A   2    0.397206    0.345840    0.602326    11.00000   -1.20000
H3B   2    0.187725    0.437060    0.554482    11.00000   -1.20000
AFIX   0
N4    3    0.706493    0.509565    0.684990    11.00000    0.04560    0.05664 =
         0.05689    0.00206   -0.01053    0.00078
AFIX  93
H4A   2    0.771354    0.432516    0.697837    11.00000   -1.20000
H4B   2    0.793095    0.577566    0.709029    11.00000   -1.20000
AFIX   0
N5    3    0.247553    0.647525    0.824579    11.00000    0.04355    0.05283 =
         0.06496   -0.00194   -0.00130   -0.00195
O1    4    0.484292    0.673554    0.856571    11.00000    0.04130    0.04777 =
         0.09483   -0.00731   -0.01107   -0.00420
O2    4    0.167393    0.534184    0.823629    11.00000    0.06248    0.04740 =
         0.14758   -0.00431   -0.02314   -0.01684
O3    4    0.087515    0.737758    0.792865    11.00000    0.05444    0.06075 =
         0.10558    0.01017   -0.01754    0.00888
HKLF 4




REM  instrument in P21/c #14
REM wR2 = 0.1102, GooF = S = 1.051, Restrained GooF = 1.051 for all data
REM R1 = 0.0411 for 320 Fo > 4sig(Fo) and 0.0710 for all 445 data
REM 110 parameters refined using 0 restraints

END

WGHT      0.0572      0.3418

REM Highest difference peak  0.114,  deepest hole -0.113,  1-sigma level  0.028
Q1    1   0.3441  0.7568  0.8973  11.00000  0.05    0.11
Q2    1   0.3817  0.7052  0.7451  11.00000  0.05    0.11
Q3    1   0.1124  0.4201  0.6116  11.00000  0.05    0.10
Q4    1   0.7126  0.3215  0.7555  11.00000  0.05    0.09
Q5    1   0.6437  0.3773  0.6228  11.00000  0.05    0.09
Q6    1   0.1775  0.7852  0.8596  11.00000  0.05    0.08
Q7    1  -0.0882  0.6256  0.8570  11.00000  0.05    0.08
Q8    1   0.1718  0.4455  0.8360  11.00000  0.05    0.08
Q9    1   0.0647  0.5583  0.5023  11.00000  0.05    0.08
Q10   1   0.1125  0.8344  0.6740  11.00000  0.05    0.07
Q11   1   0.1353  0.6339  0.4732  11.00000  0.05    0.07
Q12   1   0.3939  0.7144  0.6187  11.00000  0.05    0.07
Q13   1   0.9632  0.7551  0.6600  11.00000  0.05    0.07
Q14   1   0.6976  0.7142  0.7172  11.00000  0.05    0.07
Q15   1   0.7611  0.3671  0.5813  11.00000  0.05    0.07
Q16   1   0.2646  0.6450  0.5654  11.00000  0.05    0.07
Q17   1   0.9331  0.4965  0.7127  11.00000  0.05    0.07
Q18   1   0.8771  0.6416  0.7175  11.00000  0.05    0.07
Q19   1  -0.1356  0.8203  0.4801  11.00000  0.05    0.07
Q20   1   0.4148  0.9140  0.5185  11.00000  0.05    0.06
;
_shelx_res_checksum              65271
_shelx_hkl_file
;
   0   2   0 3161.77 80.2625  12
   0   2   0 3293.96 89.0847   9
   0  -2   0 3270.01 72.0768   3
   0  -2   0 3275.59 89.6394   7
   0  -2   0 3191.21 84.7386   6
   0  -2   0 3235.36 80.2437   5
   0  -2   0 3289.72 90.5762   8
   0   2   1 11570.7 131.301  13
   0   2   1 11612.8 148.498  11
   0  -2  -1 11473.4 160.757   5
   0  -2  -1 11617.2 165.858   7
   0   2   1 11406.8 104.492  14
   0  -2  -1 11543.7 164.138   8
   0  -2  -1 11370.4 101.320   3
   0  -2  -1 11604.3 133.937   4
   0  -2  -1 11650.3 149.494   6
   0  -2  -2 1937.85 74.0676   8
   0  -2  -2 2003.42 76.2157   5
   0  -2  -2 2020.31 65.1228   6
   0   2   2 2144.25 77.7170  10
   0  -2  -2 1862.74 68.7231   4
   0  -2  -2 1938.96 73.6263   7
   0  -3   0-10.1367 14.3293   7
   0  -3   0 1.88078 7.18862   5
   0   3   0 2.54545 7.52810  12
   0  -3   0-8.50977 9.07361   8
   0   3   0-9.66091 12.0800   9
   0  -3   0 2.28804 5.53384   4
   0  -3   0-3.33926 8.30327   6
   0   3   1 4003.37 113.988  12
   0  -3   1 3798.59 246.508   6
   0  -3  -1 3918.13 90.5702   4
   0   3   1 3874.06 77.5524  14
   0  -3  -1 4116.87 120.805   8
   0  -3  -1 3976.39 112.148   6
   0  -3  -1 3928.90 113.922   5
   0   3  -1 3672.15 136.024   9
   0  -3  -1 4012.97 81.5719   3
   0  -3   1 3834.67 156.160   7
   0  -3   1 3642.51 151.092   8
   0   3   1 4000.52 88.9935  13
   0  -3  -1 3927.40 117.703   7
   0  -3  -2 1501.18 36.1938   2
   0  -3  -2 1471.77 75.8135   7
   0  -3  -2 1486.13 64.8540   4
   0   3   2 1469.72 36.9619  16
   0  -3  -2 1512.89 36.1141  15
   0   3   2 1494.60 75.6587  10
   0   3   2 1493.23 66.5610  11
   0   3   2 1519.98 37.4818   1
   0  -3  -2 1420.20 74.5172   8
   0  -3  -2 1443.45 74.2939   5
   0  -3  -2 1409.87 66.1965   6
   0  -3  -2 1445.08 44.3158   3
   0  -3  -3 9977.17 179.774   6
   0  -3  -3 10336.9 209.170   8
   0  -3  -3 10177.8 222.405   5
   0   3   3 10159.0 213.321  10
   0  -3  -3 9782.55 205.436   7
   0  -4   0 972.850 62.9858   5
   0  -4   0 925.785 47.8346   4
   0   4   0 967.606 63.1513  12
   0   4   0 952.117 67.9166   9
   0  -4   0 934.939 67.2886   7
   0  -4   0 925.154 67.5693   8
   0  -4   0 874.368 63.3989   6
   0  -4   1 937.915 80.6436   5
   0   4  -1 1219.39 87.9227   9
   0  -4  -1 965.456 69.3053   7
   0   4   1 1020.22 66.4421  12
   0  -4  -1 1036.00 72.6124   8
   0  -4  -1 1038.76 67.4129   5
   0  -4  -1 993.940 52.5961   4
   0   4   1 1026.78 51.9194  13
   0   4   1 990.599 71.4490   9
   0  -4   1 1084.61 89.2945   8
   0  -4  -1 980.529 66.6414   6
   0   4   1 999.125 47.5151  14
   0  -4   1 1035.82 86.4618   7
   0  -4  -1 925.125 45.9161   3
   0  -4   1 881.645 119.931   6
   0  -4  -2 7058.96 116.027   3
   0   4   2 7220.16 192.994  10
   0  -4  -2 7140.90 183.094   5
   0  -4  -2 7190.58 155.344   4
   0   4   2 7223.33 168.986  11
   0  -4  -2 7255.39 189.767   8
   0  -4  -2 7162.91 172.109   6
   0   4   2 7125.84 146.437  13
   0  -4  -2 6944.44 185.435   7
   0  -4  -3 1684.53 55.0585   3
   0  -4  -3 1760.20 48.5685  15
   0   4   3 1685.58 84.1485  11
   0   4   3 1819.73 52.1626  16
   0  -4  -3 1701.72 95.2585   8
   0  -4  -3 1752.80 87.6540   4
   0  -4  -3 1746.94 97.3722   5
   0  -4  -3 1722.33 95.5568   7
   0   4   3 1706.84 95.3855  10
   0  -4  -3 1654.62 82.0353   6
   0   4   4 598.749 63.2636  10
   0  -4  -4 678.041 73.7884   5
   0  -4  -4 575.209 61.3109   8
   0  -4  -4 661.843 55.7830   6
   0  -4  -4 639.077 63.4989   7
   0  -5   0 6.35588 19.3641   8
   0   5   0 6.56952 19.1995  12
   0  -5   0 32.2868 26.4080   6
   0   5   0 4.59749 17.7446   9
   0  -5   0 30.1787 26.4636   7
   0  -5   0 24.6319 12.9049   4
   0  -5   0 35.5063 21.1605   5
   0  -5  -1 1760.23 99.1460   5
   0   5   1 1727.97 104.878   9
   0   5   1 1782.80 71.9546  14
   0   5   1 1716.65 96.0467  12
   0  -5   1 1690.10 116.780   5
   0  -5   1 1750.59 129.506   7
   0  -5  -1 1674.41 103.008   8
   0   5  -1 1779.40 118.842   9
   0  -5  -1 1676.88 74.1667   4
   0  -5  -1 1670.38 97.1179   6
   0  -5  -1 1661.67 100.910   7
   0  -5   1 1702.25 127.431   8
   0  -5  -2 712.176 62.8825   6
   0  -5  -2 630.337 39.7773   3
   0   5   2 686.079 68.5654  10
   0  -5  -2 660.994 65.8671   8
   0  -5  -2 742.994 67.8706   5
   0   5   2 641.360 58.6007  11
   0  -5  -2 679.762 51.2789   4
   0   5   2 677.074 50.2611  13
   0  -5  -2 662.623 67.9286   7
   0   5   2 697.210 46.9135  14
   0   5   2 668.376 62.8688  12
   0  -5  -3 83.0963 26.0000   5
   0   5   3 37.4387 19.3865  10
   0  -5  -3 57.7243 17.7082   4
   0  -5  -3 65.6012 20.1071   7
   0   5   3 52.7846 17.7103  13
   0  -5  -3 50.7280 11.7655   3
   0  -5  -3 77.8707 22.7177   6
   0   5   3 39.2144 15.8425  11
   0  -5  -3 105.099 32.2916   8
   0   5   4 2277.81 126.719  10
   0  -5  -4 2387.25 73.5659   3
   0  -5  -4 2308.72 125.891   7
   0   5   4 2416.83 109.076  13
   0  -5  -4 2225.61 125.767   8
   0  -5  -4 2358.34 64.1169  15
   0  -5  -4 2310.35 109.494   6
   0   5   4 2365.97 68.2811  16
   0  -5  -4 2446.34 134.612   5
   0  -5  -5 39.4383 24.6454   8
   0  -5  -5 6.25242 18.4038   7
   0  -5  -5 37.5906 28.2261   5
   0  -5  -5 50.3127 24.5089   6
   0  -6   0 4460.08 168.251   5
   0  -6   0 4922.44 200.298   6
   0   6   0 4598.73 188.034   9
   0  -6   0 4559.76 127.423   4
   0  -6   0 4507.23 184.210   7
   0  -6   0 4590.01 185.569   8
   0   6   0 4498.85 138.261  14
   0  -6  -1 491.615 58.7166   6
   0  -6  -1 464.302 42.2126   4
   0  -6  -1 459.669 57.1498   5
   0  -6   1 398.192 80.6075   8
   0  -6   1 452.776 72.4844   5
   0   6  -1 436.250 67.5277   9
   0  -6   1 359.258 71.0419   7
   0   6   1 437.195 60.3986   9
   0   6   1 464.275 42.2883  14
   0   6   1 459.679 57.3376  12
   0  -6  -1 494.464 63.4548   7
   0  -6  -1 469.887 61.3272   8
   0  -6  -2 43.4516 17.2387   4
   0  -6  -2 37.6182 20.9824   3
   0  -6  -2 66.6767 29.6888   6
   0   6   2 48.6522 24.0837  11
   0   6   2 62.0915 28.1432   9
   0   6   2 47.0089 24.2343  12
   0   6   2 71.0501 22.6692  13
   0  -6  -2 37.7341 20.9833   5
   0   6   2 46.0756 29.8152  10
   0   6   2 58.1421 16.9304  14
   0  -6  -2 76.8643 33.6511   8
   0  -6  -2 55.3200 24.8727   7
   0  -6  -3 808.772 82.8134   8
   0   6   3 857.136 84.6997  10
   0   6   3 739.761 58.8414  13
   0  -6  -3 777.967 48.3253   3
   0  -6  -3 762.823 78.3277   5
   0   6   3 695.565 73.8896  12
   0  -6  -3 761.914 63.9028   4
   0   6   3 832.995 75.2655  11
   0  -6  -3 854.243 76.8220   6
   0  -6  -3 788.424 80.5667   7
   0  -6  -4 1015.40 91.1261   8
   0  -6  -4 998.349 90.3412   7
   0   6   4 998.601 74.2231  13
   0  -6  -4 1018.15 81.3267   6
   0  -6  -4 1032.60 53.7543   3
   0   6   4 994.350 92.7843  10
   0  -6  -4 943.503 92.3429   5
   0  -6  -5 376.973 32.4632   3
   0   6   5 379.542 64.6677  10
   0  -6  -5 409.210 58.0131   6
   0   6   5 375.562 52.8730  13
   0  -6  -5 413.133 71.5297   5
   0  -6  -5 409.890 63.3807   8
   0  -6  -5 355.298 59.2413   7
   0  -6  -5 401.717 29.1810  15
   0   7   0 44.9973 26.1073   9
   0  -7   0 20.8109 29.4160   8
   0  -7   0-33.6772 43.5077   6
   0  -7   0 54.3743 35.6703   7
   0  -7   0 3.67252 20.9276   5
   0   7   0 12.3421 17.2796  14
   0  -7   0 26.9422 18.1833   4
   0   7   1 353.241 53.5048  11
   0   7   1 375.240 58.7259  12
   0  -7  -1 382.140 59.1586   6
   0  -7   1 368.236 92.4595   5
   0   7   1 389.716 63.7035   9
   0   7   1 377.507 42.9651  14
   0  -7  -1 388.177 41.8883   4
   0  -7   1 265.485 104.504   8
   0  -7  -1 419.811 66.6282   8
   0  -7  -1 291.438 46.9063   5
   0  -7  -1 408.271 64.7018   7
   0  -7  -2 63.9293 30.3401   8
   0   7   2 43.4514 31.1503  12
   0   7   2 112.970 35.1397  11
   0  -7  -2 79.7316 22.5206   4
   0   7   2 96.8572 43.1149  10
   0  -7  -2 77.4272 31.1601   6
   0  -7  -2 77.0727 37.9808   7
   0  -7  -2 88.7065 32.6601   5
   0   7   2 69.0037 27.8285   9
   0   7   3-31.2819 24.1558  12
   0  -7  -3-6.69111 16.2339   4
   0   7   3-25.4432 27.1880   9
   0  -7  -3 19.5361 28.2035   5
   0  -7  -3 4.16616 24.3324   8
   0  -7  -3-22.6470 32.1334   7
   0   7   3 5.69169 26.2519  11
   0   7   3-9.84420 16.8554  13
   0   7   3 21.9229 22.7635  10
   0  -7  -3 9.76901 20.5950   6
   0  -7  -4 529.408 75.1280   8
   0  -7  -4 657.305 81.1972   7
   0   7   4 559.849 65.4555  11
   0   7   4 579.041 79.1249  12
   0   7   4 622.103 80.6931  10
   0  -7  -4 612.220 70.9413   6
   0   7   4 607.855 62.4524  13
   0  -7  -4 563.833 79.2910   5
   0  -7  -5 119.828 40.6160   8
   0  -7  -5 147.062 44.5442   5
   0  -7  -5 162.727 49.8545   7
   0  -7  -5 201.633 49.1228   6
   0   7   5 152.007 38.1217  13
   0   7   5 144.983 48.6792  10
   0  -7  -6 388.770 64.9006   6
   0   7   6 307.619 54.5808  13
   0  -7  -6 294.907 65.4693   8
   0  -7  -6 332.237 72.5238   7
   0  -8   0 119.561 45.9066   8
   0  -8   0 118.977 43.9671   7
   0  -8   0 228.327 45.5500   4
   0   8   0 164.818 55.4573   9
   0   8   0 143.305 35.2956  14
   0  -8   0 177.125 47.6897   5
   0  -8  -1 3023.52 169.733   5
   0  -8  -1 3120.04 195.104   6
   0  -8  -1 2831.30 174.930   7
   0   8   1 2939.83 183.923   9
   0   8   1 2935.19 163.232  11
   0  -8  -1 2818.91 173.633   8
   0  -8  -1 3160.78 131.116   4
   0   8   2 431.375 64.7905  12
   0  -8  -2 479.825 78.1926   7
   0   8   2 471.340 76.0216  10
   0  -8  -2 450.430 67.2551   6
   0  -8  -2 440.311 51.0555   4
   0   8   2 409.113 69.3438   9
   0  -8  -2 462.068 69.1855   5
   0  -8  -2 472.433 75.8955   8
   0   8   2 447.311 64.6609  11
   0  -8  -3 1606.19 137.409   8
   0   8   3 1683.79 130.627  12
   0  -8  -3 1793.46 118.230   4
   0  -8  -3 1616.79 129.752   5
   0  -8  -3 1587.94 121.256   6
   0  -8  -3 1576.80 135.431   7
   0   8   3 1717.68 141.222   9
   0   8   3 1697.24 141.587  10
   0   8   3 1571.32 119.352  11
   0   8   4 111.545 49.2025  10
   0   8   4 37.5184 36.6488   9
   0   8   4 16.9518 24.6830  13
   0  -8  -4 54.8159 43.7274   7
   0   8   4 58.5644 34.8367  11
   0   8   4-25.3041 31.0472  12
   0  -8  -4 35.8870 40.0190   6
   0  -8  -4 37.0606 38.2523   5
   0  -8  -4 65.1936 32.7117   8
   0   8   5 447.224 80.5247  12
   0  -8  -5 465.346 79.4296   8
   0   8   5 343.546 50.5578  13
   0  -8  -5 487.642 84.5132   5
   0  -8  -5 377.073 69.1832   7
   0  -8  -5 508.911 77.5122   6
   0   8   5 455.921 77.9548  10
   0  -8  -6-37.5542 44.1136   6
   0  -8  -6 40.4591 50.2454   5
   0  -8  -6 70.2189 47.1244   7
   0   8   6 19.2268 27.8634  13
   0   8   6-19.5974 38.4273  12
   0   8   6-22.1024 31.1879  10
   0  -8  -6 85.6748 42.5687   8
   0  -9   0-180.109 98.9269   5
   0  -9   0 11.7405 56.7123   8
   0  -9   0-38.8789 55.1694   7
   0   9   1 174.860 52.1476  11
   0  -9  -1 163.873 66.4358   6
   0  -9  -1 192.177 59.4958   8
   0   9   1 152.388 54.6479   9
   0  -9  -1 259.377 65.5779   7
   0  -9  -1 238.530 57.5042   5
   0  -9  -2 583.284 87.5684   6
   0  -9  -2 659.502 86.8523   5
   0   9   2 652.212 89.6346  12
   0  -9  -2 628.479 87.9582   8
   0   9   2 604.976 88.0199  10
   0  -9  -2 624.386 93.9191   7
   0   9   2 583.955 85.4851   9
   0   9   2 584.946 83.2597  11
   0   9   3 507.908 83.7727   9
   0  -9  -3 484.015 76.7191   5
   0  -9  -3 497.658 84.9179   8
   0  -9  -3 505.615 80.4396   6
   0  -9  -3 468.660 85.0957   7
   0   9   3 500.808 80.0924  12
   0   9   3 483.148 87.3134  10
   0   9   3 481.099 76.0476  11
   0   9   4 782.703 99.9890  12
   0  -9  -4 719.581 95.4689   5
   0   9   4 773.312 108.441  10
   0  -9  -4 684.472 90.0289   6
   0  -9  -4 705.249 95.9438   7
   0   9   4 776.658 93.0096  11
   0  -9  -4 837.808 106.656   8
   0   9   4 698.896 99.8280   9
   0  -9  -5 126.618 54.1007   6
   0  -9  -5 92.4982 58.3026   7
   0   9   5 82.3151 42.3555  12
   0   9   5 90.0240 40.6323  10
   0  -9  -5 110.152 54.9145   5
   0   9   5 74.4233 38.3831   9
   0  -9  -5 106.807 53.7980   8
   0  -9  -6 586.042 119.472   5
   0   9   6 708.048 119.009   9
   0  -9  -6 431.654 105.223   6
   0  -9  -6 772.106 110.990   8
   0  -9  -6 781.023 118.817   7
   0   9   6 809.103 111.491  12
   0   9   6 671.905 104.931  10
   0 -10  -1 119.291 65.9455   7
   0 -10  -1-13.7523 55.0770   8
   0  10   1 116.742 68.9825  10
   0 -10  -1 95.3975 54.0016   5
   0  10   1 121.251 59.8042  11
   0  10   1 145.410 57.1572   9
   0 -10  -2-7.90835 39.7862   7
   0  10   2 16.4472 33.9255  10
   0 -10  -2-49.9846 48.0822   5
   0  10   2 30.1887 34.2387   9
   0  10   2-70.8303 52.0233  11
   0 -10  -2 102.363 115.052   6
   0 -10  -2-47.5911 45.5437   8
   0 -10  -3 103.345 45.7978   7
   0  10   3 3.90018 33.2221   9
   0 -10  -3 170.267 57.5880   5
   0 -10  -3 109.427 46.0395   8
   0  10   3 71.6393 33.6217  10
   0  10   3 51.7876 35.7983  11
   0 -10  -3 73.0956 52.4214   6
   0  10   3 79.3500 41.4020  12
   0 -10  -4 219.940 65.4262   6
   0  10   4 263.462 74.0423  12
   0 -10  -4 209.298 58.3079   5
   0 -10  -4 184.467 60.5359   8
   0  10   4 260.379 59.0831  11
   0 -10  -4 218.851 63.3652   7
   0  10   4 191.654 57.6551   9
   0  10   4 252.173 68.9762  10
   0  10   5 27.0150 38.7808  10
   0  10   5-2.90307 39.4568  12
   0 -10  -5 37.0612 51.7002   7
   0  10   5 89.3274 61.0637   9
   0 -10  -5 0.98358 47.1592   8
   0 -10  -5 76.1273 43.7326   5
   0 -10  -5 15.8535 43.4291   6
   0  10   6 69.0837 52.6877  12
   0 -10  -6-36.0362 41.0753   8
   0 -10  -6-32.2904 69.0388   7
   0 -10  -6-95.1796 57.7077   5
   0  10   6-79.7188 52.7843  10
   0  10   6 30.6405 53.8081   9
   0 -11  -2 171.415 101.767   5
   0 -11  -2 15.7786 45.4849   7
   0  11   2-69.1460 69.1076   9
   0  11   2 73.0861 60.4465  10
   0  11   2 9.88859 43.6665  11
   0 -11  -2 18.9347 57.2805   8
   0  11   3 112.539 42.3721  11
   0 -11  -3 9.57595 52.8752   5
   0 -11  -3 89.9034 67.4385   7
   0  11   3 139.189 66.2892   9
   0 -11  -3 112.148 60.3257   8
   0 -11  -4-14.8082 43.1804   8
   0  11   4 72.5725 38.1239  12
   0  11   4-32.8342 38.9173   9
   0  11   4 126.980 66.7933  10
   0 -11  -4-8.82084 65.8541   6
   0 -11  -4 58.6399 51.8196   7
   0 -11  -4 19.0554 38.1012   5
   0 -11  -5 32.6580 45.5434   8
   0 -11  -5 17.1876 42.4189   5
   0  11   5 123.833 68.5762   9
   0 -11  -5 14.8727 41.4801   7
   0  11   5 62.6073 48.9437  12
   0 -11  -6-6.19265 50.3016   8
   0  11   6 8.37757 37.2551  10
   0  11   6-0.85000 43.7753  12
   0 -11  -6-90.5368 72.5595   7
   0  11   6-82.0700 64.1472   9
   0  12   2-84.3501 91.8260  10
   0 -12  -2-81.2109 124.762   8
   1   0   0 9173.88 152.164  16
  -1   0   0 8581.35 154.470  14
  -1   0   0 8855.91 149.197  15
   1   0   1 9.46635 8.14310   3
  -1   0  -1 6.50642 5.80323  15
  -1   0  -1 10.6213 6.67509   4
   1   0   1 9.67464 3.27490  12
  -1   0  -1 21.5596 11.5635   1
   1   0   1 21.3065 10.1215   2
  -1   0  -1 18.3448 5.93517  11
  -1   0  -1 10.1475 6.98926  14
   1   0   1 7.20300 4.88949   6
   1   0   1 17.7183 7.78099  13
   1   0   1 19.1588 7.43490  16
  -1   0  -1 12.9253 6.31097   5
  -1   0  -2 87.1739 17.3681  15
   1   0   2 96.6587 13.8587   6
   1   0   2 62.6506 15.7720  16
  -1   0  -2 92.3614 13.7052   5
   1   0   2 102.805 18.9034   2
  -1   0  -2 75.4039 15.1643   4
  -1   0  -2 91.7407 18.0601   1
   1   0   2 93.8530 17.1554   3
   1   0   3-4.04326 9.74322   3
   1   0   3-6.63990 7.57983  16
   1   0   3 6.53925 11.4889   2
  -1   0  -3 5.01254 9.12560  15
  -1   0  -3 4.79490 9.21453   1
  -1   0  -3-12.2221 14.7139   4
  -1   0  -4 2238.54 123.703  15
   1  -1   0 28170.2 248.564   6
  -1   1   0 28246.2 256.775  11
  -1   1   0 27848.2 272.843  14
   1  -1   0 27878.5 253.484   2
   1  -1   0 28605.2 274.056   3
  -1   1   0 27865.1 252.067  15
  -1   1   0 28010.6 253.935   1
   1  -1   0 27883.7 256.368  16
  -1   1  -1 8017.67 91.0059  10
   1  -1   1 8015.35 144.170  16
   1   1   1 8317.52 144.884  16
   1  -1   1 8099.11 133.674   6
  -1   1  -1 8239.76 92.5341   8
  -1   1  -1 8213.77 121.419   4
   1   1   1 8166.92 142.525   2
   1  -1   1 8308.27 149.830   3
  -1   1  -1 8122.06 90.0873   7
  -1  -1  -1 8152.73 141.791   5
   1  -1   1 8162.54 118.949  13
   1   1   1 8136.77 113.901   3
  -1  -1  -1 8114.96 106.861   8
   1   1   1 8264.14 143.147  12
   1  -1   1 8163.04 90.6659   7
  -1  -1  -1 8196.08 116.899  14
  -1   1  -1 8097.03 144.456  15
  -1  -1  -1 8150.34 144.933  15
   1   1   1 8173.73 151.463  13
  -1  -1  -1 7986.41 144.815   1
  -1  -1  -1 8328.75 154.361   4
  -1   1  -1 8218.27 136.122  11
   1  -1   1 8017.44 90.8618   8
   1  -1   1 8003.72 141.078   2
  -1   1  -1 8162.64 145.806   1
  -1   1  -1 7975.46 151.283  14
  -1  -1  -2 466.324 30.7948  14
   1  -1   2 433.752 32.9368   6
   1  -1   2 466.491 39.0448   2
   1  -1   2 443.387 39.2458   3
   1  -1   2 458.706 22.1109   5
  -1  -1  -2 477.383 26.9342   7
  -1  -1  -2 429.652 36.7050   1
   1  -1   2 407.557 20.9240   8
  -1   1  -2 467.963 35.2208   4
   1  -1   2 432.448 40.1457  16
  -1   1  -2 431.106 21.8334   7
  -1  -1  -2 478.701 25.6313   8
   1   1   2 465.311 39.6336  13
  -1  -1  -2 457.752 36.2268   5
  -1  -1  -2 472.673 40.3942   4
  -1   1  -2 464.518 40.1598   1
   1   1   2 468.303 25.8399  10
  -1  -1  -2 473.403 37.6290  15
   1   1   2 462.134 37.0495   2
   1   1   2 483.293 39.9038  16
  -1   1  -2 464.812 40.3672  15
   1   1   2 463.641 30.9143   3
   1   1   3 0.93829 7.88753  16
  -1  -1  -3 1.02672 9.12454   4
   1  -1   3 15.8266 10.7433   2
  -1   1  -3 8.16891 14.7791  15
   1   1   3 5.39063 9.54097   2
  -1  -1  -3-6.15839 9.15117  15
   1  -1   3-3.06862 8.91766  16
  -1   1  -3 6.05229 9.66767   1
  -1  -1  -3 8.08052 10.3340   5
  -1  -1  -3 3.08259 11.0997   1
  -1  -1  -3 10.8006 6.61682   7
   1  -1   3 7.66830 10.3206   3
  -1  -1  -4 2070.55 115.581   1
  -1  -1  -4 2388.16 113.731   4
   1   1   4 1886.50 112.684   2
   1   1   4 2370.95 110.771  16
  -1  -1  -4 2220.19 103.977  15
   1  -2  -1 1456.41 68.8822   3
   1  -2  -1 1466.64 70.2774   6
   1  -2  -1 1512.81 66.9484   7
  -1   2   1 1348.32 68.3129  11
  -1   2   1 1576.30 75.7999  14
  -1   2   0 1665.01 61.5025   1
   1  -2   0 1591.87 71.4273   6
  -1   2   0 1552.54 39.5323   5
  -1   2   0 1511.87 70.7019  14
   1  -2   0 1565.16 60.4731  16
  -1   2   0 1572.80 62.3097  10
   1  -2   0 1522.92 69.0324   3
   1  -2   0 1612.84 61.6501   7
   1  -2   0 1571.62 58.6345   2
  -1   2   0 1502.95 69.5166  11
   1  -2   0 1575.80 62.2043   8
  -1   2   0 1581.23 60.5893  15
  -1   2  -1 3282.51 93.6976  15
  -1   2  -1 3314.02 97.8261   1
   1  -2   1 3312.08 85.1689   8
   1  -2   1 3273.58 106.767   3
   1   2   1 3400.91 92.3800   2
   1   2   1 3372.71 100.720   9
  -1   2  -1 3304.35 86.8039   9
   1  -2   1 3454.56 87.4395   7
  -1  -2  -1 3289.32 107.176   4
  -1  -2  -1 3306.38 92.9303   8
   1   2   1 3373.09 108.234  12
   1   2   1 3341.38 107.563  13
  -1  -2  -1 3358.60 93.5900   1
   1  -2   1 3258.02 95.8949  16
  -1   2  -1 3379.82 108.828  14
   1  -2   1 3323.81 95.4863   2
   1  -2   1 3456.75 107.279   6
  -1  -2  -1 3330.13 94.4751  15
   1  -2   1 3321.05 64.6864  13
  -1   2  -1 3304.94 75.6958   4
  -1  -2  -1 3350.35 106.618   5
   1   2   1 3225.37 92.2953  16
  -1  -2  -1 3446.21 102.737   7
  -1  -2  -2 607.655 40.8533   7
   1  -2   2 534.782 45.2500   6
  -1   2  -2 562.504 47.3373   1
   1  -2   2 562.475 44.4120   2
  -1  -2  -2 554.454 46.3684   4
  -1  -2  -2 569.139 38.4636   8
   1   2   2 581.317 41.3966   9
   1  -2   2 526.738 43.7942  16
   1   2   2 563.562 40.3761   2
  -1  -2  -2 584.567 41.6705  15
  -1   2  -2 563.706 44.4962  15
  -1  -2  -2 562.144 46.4630   5
  -1  -2  -2 553.664 41.3077   1
  -1  -2  -2 547.002 25.2559  14
   1   2   2 546.095 46.1200  13
   1   2   2 565.571 40.8518  16
   1   2   2 552.109 26.1555   3
   1  -2   2 553.454 47.7385   3
   1  -2   2 521.507 34.2415   8
   1   2   2 506.818 45.8078  12
   1   2   3 3115.94 106.102  16
  -1  -2  -3 3123.77 104.362  15
   1   2   3 3288.00 120.115  13
   1  -2   3 3274.08 155.072  16
  -1  -2  -3 3241.64 116.971   5
  -1  -2  -3 3132.30 92.9772   7
   1   2   3 3245.22 106.070   2
  -1   2  -3 3472.84 142.820  15
  -1  -2  -3 3139.61 92.6691   8
   1   2   3 3295.31 95.9944  10
   1  -2   3 3245.21 147.474   3
  -1  -2  -3 3241.09 111.452   1
  -1  -2  -3 3157.53 117.832   4
  -1  -2  -4 6106.66 177.265   5
   1   2   4 5914.50 162.236  16
  -1  -2  -4 6135.57 144.347   7
   1   2   4 6330.08 184.190   2
  -1  -2  -4 6021.34 180.100   4
  -1  -2  -4 6168.02 186.428   1
  -1  -2  -4 5961.05 159.053  15
  -1  -2  -5 847.442 69.7679  15
  -1  -2  -5 980.938 82.1446   4
   1  -3  -2 549.528 51.0946   8
  -1   3   2 495.539 50.1393  10
   1  -3  -2 693.165 58.0129   7
   1  -3  -2 697.624 57.5698   6
   1  -3  -1 11784.0 222.060   6
  -1   3   1 11624.5 205.750  14
  -1   3   1 11514.0 222.926  11
   1  -3  -1 11188.8 198.341   3
   1  -3  -1 11813.8 212.091   7
   1  -3  -1 12032.3 215.986   8
  -1   3   1 11776.5 216.212  10
  -1   3   1 11674.5 153.902   1
   1  -3  -1 11500.7 151.261   2
  -1   3   0 186.689 27.6751  10
   1  -3   0 168.122 20.4059  16
   1  -3   0 189.811 26.3242   7
  -1   3   0 153.808 26.0981  11
   1  -3   0 161.487 26.4524   6
   1  -3   0 172.790 26.5755   3
  -1   3   0 163.838 19.1745  15
   1  -3   0 165.276 18.0335   5
   1  -3   0 180.707 21.7376   2
  -1   3   0 163.741 19.8226   1
  -1   3   0 167.249 26.4945  14
  -1  -3   0 177.880 39.7584   5
  -1   3   0 172.157 18.0066  12
   1  -3   0 177.599 25.7473   8
  -1  -3  -1 21.6059 14.0917   8
   1  -3   1 27.1687 12.2396   7
   1  -3   1 20.9977 7.29367   5
   1  -3   1 27.1493 10.7710   2
   1   3   1 27.1187 14.0785  13
  -1   3  -1 34.1956 16.4326  14
  -1   3  -1 19.9649 9.76505  15
   1   3   1 15.0886 10.5192  12
   1  -3   1 36.7693 13.2428  16
  -1  -3  -1 28.6553 10.5103   1
  -1   3  -1 28.4544 10.5366   9
  -1  -3  -1 19.0583 11.8118   5
   1  -3   1 19.4568 10.7475   3
  -1   3  -1 30.3592 11.4317   1
   1  -3   1 28.6902 12.6079   8
   1   3   1 24.3052 12.9276   9
   1   3   1 35.0641 12.9706   2
  -1  -3  -1 20.2554 12.4615   4
   1  -3   1 31.4129 15.0153   6
  -1  -3  -1 26.1482 13.7645   7
   1  -3   2 10.2928 10.0927  16
   1  -3   2-4.75902 7.58904   8
  -1  -3  -2 16.7011 8.83978   1
   1   3   2 4.96102 8.32732   2
  -1   3  -2 20.2234 14.6462   1
  -1  -3  -2 11.5689 12.0369   4
   1   3   2 2.66527 7.93236  16
   1  -3   2-1.54149 13.5012   6
   1  -3   2 1.46855 17.7487   7
   1  -3   2-5.26881 18.3872   2
  -1  -3  -2 11.0021 11.1133   8
  -1  -3  -2 5.21033 9.97072   7
   1  -3   2 1.31159 11.1846   3
  -1  -3  -2 5.22927 10.4264   5
   1   3   2 11.4136 8.83352  11
   1   3   2 9.31888 8.81570   9
   1   3   2 12.5796 13.7592  13
  -1  -3  -2-3.49664 8.88161  15
   1   3   2 5.86160 11.3123  12
  -1   3  -2 19.6586 11.4270  15
   1  -3   3 3774.41 322.581  16
  -1  -3  -3 4179.27 118.717  15
  -1  -3  -3 4121.16 142.993   4
   1   3   3 4217.43 144.840  13
  -1  -3  -3 4138.61 128.254   7
   1   3   3 4147.80 119.149  16
  -1   3  -3 3965.78 197.317  15
   1  -3   3 3780.50 204.619   3
  -1  -3  -3 3992.32 82.8108   6
  -1  -3  -3 4123.88 147.522   5
   1   3   3 4257.00 130.053  10
  -1  -3  -3 4128.07 123.373   1
  -1  -3  -3 4206.40 128.009   8
   1   3   3 4151.93 117.731   2
  -1  -3  -4 1538.15 81.8207   7
  -1  -3  -4 1638.79 81.6771  15
   1   3   4 1636.76 82.4451  16
  -1  -3  -4 1526.99 81.6969   8
   1   3   4 1608.78 97.2669  13
  -1  -3  -4 1554.58 51.8623   6
   1   3   4 1748.50 89.3146  10
  -1  -3  -4 1668.25 95.7002   1
  -1  -3  -4 1711.28 99.6798   5
   1   3   4 1657.27 95.7355   2
  -1  -3  -4 1532.47 93.5881   4
  -1  -3  -5 32.2312 14.4451  15
  -1  -3  -5 19.5329 13.4994   4
  -1  -3  -5 40.9876 12.8753   6
  -1  -3  -5 13.0919 20.7708   5
   1   3   5 22.0537 14.6046  16
  -1  -3  -5 46.9057 17.5899   7
   1  -4  -3 201.652 42.1984   6
   1  -4  -3 177.536 40.0560   8
   1  -4  -3 184.766 39.5105   7
  -1   4   2 7644.22 206.468  10
   1  -4  -2 7459.62 199.873   6
   1  -4  -2 7474.34 172.076   3
   1  -4  -2 7911.91 124.005   2
   1  -4  -2 7553.12 201.332   7
   1  -4  -2 7729.95 206.881   8
  -1   4   2 7767.32 203.262  11
  -1   4   1 3664.61 125.123  14
   1  -4  -1 3872.31 119.405   5
   1  -4  -1 3755.17 140.068   6
  -1   4   1 3813.49 85.5828   1
  -1   4   1 3638.99 137.960  11
   1  -4  -1 3767.46 83.8211   2
  -1   4   1 3899.79 141.512  10
   1  -4  -1 3888.34 140.577   8
   1  -4  -1 3742.96 123.648   3
   1  -4  -1 3714.19 134.357   7
  -1   4   0 1311.38 84.7592  11
   1  -4   0 1228.92 53.5583  16
   1  -4   0 1293.29 84.2992   6
   1  -4   0 1203.46 76.1252   7
   1  -4   0 1257.51 60.4016   5
  -1   4   0 1274.48 60.3803  12
   1  -4   0 1300.72 77.7495   3
  -1   4   0 1327.14 79.0029  14
  -1   4   0 1243.47 54.1047  15
   1  -4   0 1239.74 53.8997   2
  -1   4   0 1223.84 54.7622   1
   1  -4   0 1244.97 79.7576   8
  -1  -4   0 1244.12 117.841   5
   1   4   1 106.504 20.8821  13
  -1  -4  -1 153.216 31.9818   8
  -1  -4  -1 154.999 30.3123   4
  -1  -4  -1 91.8113 25.4374   7
   1  -4   1 133.737 29.8175   3
  -1   4  -1 137.494 21.0757  15
   1  -4   1 89.3411 33.6800   2
   1  -4   1 128.379 26.1387   7
  -1  -4  -1 133.656 28.9371   5
   1   4   1 133.995 30.5840  12
   1   4   1 109.976 26.4789   9
   1  -4   1 156.178 30.6402   6
  -1   4  -1 123.171 23.8100   1
   1   4   1 144.834 19.4090   2
   1  -4   1 154.927 20.2141   5
  -1   4  -1 155.361 28.0446  14
  -1   4  -1 138.192 28.2196   9
   1  -4   1 116.216 19.8960  16
  -1  -4  -1 149.408 20.8493   1
   1  -4   1 153.517 31.9576   8
   1   4   2 3339.56 95.6250   2
   1  -4   2 3306.95 156.342   7
  -1  -4  -2 3324.60 139.628   5
   1  -4   2 3278.73 139.932   3
  -1  -4  -2 3456.10 135.094   7
   1   4   2 3180.80 106.218  16
   1  -4   2 3103.73 136.160   6
   1  -4   2 3185.84 110.305  16
   1   4   2 3314.61 138.776  12
   1  -4   2 3421.53 94.2158   5
   1   4   2 3421.82 131.570  13
  -1   4  -2 3175.77 111.599  15
  -1  -4  -2 3358.50 100.164   1
  -1   4  -2 3569.55 147.710   9
   1   4   2 3350.91 133.772   9
  -1  -4  -2 3348.66 131.305   4
  -1  -4  -2 3385.29 132.207   8
   1  -4   2 3088.23 119.844   8
   1   4   3 802.831 47.1210  11
   1   4   3 815.753 69.1547  10
   1   4   3 827.980 51.3199  16
  -1  -4  -3 807.288 67.5991   7
   1   4   3 782.430 49.9816   2
   1   4   3 790.238 67.6520   9
  -1  -4  -3 745.834 50.9763   1
   1  -4   3 494.395 123.257   6
  -1  -4  -3 769.899 50.5969  15
  -1  -4  -3 812.261 65.4406   8
  -1  -4  -3 738.826 45.6044   6
   1   4   3 841.136 68.4036  13
  -1  -4  -3 820.746 72.3792   5
  -1  -4  -3 802.648 68.7214   4
  -1  -4  -4 64.5563 20.4310   4
  -1  -4  -4 37.9219 11.9474   1
  -1  -4  -4 64.1054 20.5853   7
   1   4   4 62.7487 19.1643  16
  -1  -4  -4 68.4161 15.2485   6
  -1  -4  -4 72.7819 20.0102  15
   1   4   4 93.1683 25.3763  10
   1   4   4 56.9765 21.7379   2
   1   4   4 44.1084 22.2537  13
  -1  -4  -4 78.9720 27.2441   5
  -1  -4  -4 65.5006 20.3300   8
  -1  -4  -5-0.38586 15.4470   7
   1   4   5-27.8839 22.8615  13
   1   4   5 1.92341 13.0481  16
  -1  -4  -5 22.6344 19.0878   4
  -1  -4  -5 24.7864 17.9434  15
   1   4   5-4.06404 20.0279  10
  -1  -4  -5 8.45914 9.06200   6
  -1  -4  -5 0.85664 15.9159   5
  -1  -4  -5 12.8609 14.1994   8
  -1  -4  -6-11.9230 12.5068   6
  -1  -4  -6-21.8600 26.1588   5
  -1  -4  -6 3.64402 23.6642   7
  -1  -4  -6 31.4974 18.5929  15
   1  -5  -3 456.503 48.8853   3
  -1   5   3 393.962 54.5094  10
   1  -5  -3 409.703 55.1199   6
   1  -5  -3 454.188 58.5820   7
   1  -5  -3 397.547 53.9414   8
  -1   5   2 302.045 44.7425  14
  -1   5   2 274.515 20.8976   1
   1  -5  -2 260.052 41.4105   6
  -1   5   2 255.982 44.1362  10
  -1   5   2 262.929 45.3163  11
   1  -5  -2 229.773 40.0627   7
   1  -5  -2 243.141 35.4288   3
   1  -5  -2 292.791 42.9223   5
  -1   5   2 238.192 21.2427  13
   1  -5  -2 281.672 44.6261   8
   1  -5  -2 273.131 19.5276   2
   1  -5  -1 62.9933 14.7703   2
   1  -5  -1 52.1468 23.2967   7
   1  -5  -1 41.4257 22.2802   6
  -1   5   1 67.2500 28.2242  10
  -1   5   1 48.4093 17.7120  12
  -1   5   1 26.2344 19.2999  14
  -1   5   1 3.67972 15.6255  11
   1  -5  -1 58.0674 24.2587   8
   1  -5  -1 40.5694 20.0074   5
   1  -5  -1 49.5576 16.4593   3
  -1   5   1 45.0267 12.0693   1
  -1   5   0 3473.72 151.286  11
  -1   5   0 3557.75 118.112  12
   1  -5   0 3554.06 140.598   3
  -1   5   0 3520.97 91.6528  15
   1  -5   0 3600.24 93.7516  16
   1  -5   0 3747.92 159.655   6
   1  -5   0 3548.25 119.252   5
   1  -5   0 3624.12 150.471   8
  -1  -5   0 3133.88 223.424   5
  -1   5   0 3490.58 149.881   9
   1  -5   0 3397.66 145.456   7
  -1   5   0 3628.96 139.684  14
   1  -5   1-23.0068 20.1582   7
   1  -5   1 20.8345 16.1141   8
  -1   5  -1 30.2956 14.0319  15
  -1   5  -1 28.4652 18.7792  14
  -1  -5  -1 41.9075 25.1907   8
  -1  -5  -1 6.47098 25.4840   7
   1  -5   1 21.5654 20.1806   3
   1  -5   1 32.0006 26.6448   6
   1  -5   1 17.4659 9.37457  16
  -1  -5  -1 51.7861 28.6360   5
  -1  -5  -1 11.0932 13.6652   4
   1   5   1 61.4124 23.2336   9
   1   5   1 42.1539 25.3094  12
  -1   5  -1 38.6399 19.9387   9
   1  -5   1 21.8013 12.5231   5
   1   5   1 38.7827 14.3196   2
  -1  -5  -1 26.2699 11.9294   1
   1  -5   2 7076.53 170.358  16
  -1   5  -2 6929.45 168.226  15
   1   5   2 6915.01 214.484   9
   1   5   2 7020.20 202.624  13
  -1  -5  -2 7003.86 140.039   1
   1  -5   2 7101.36 229.670   6
   1  -5   2 7202.57 248.318   3
  -1  -5  -2 6729.65 209.013   7
  -1  -5  -2 6702.11 215.261   5
   1  -5   2 6985.85 157.889   5
   1   5   2 6940.89 135.820   2
   1  -5   2 6884.75 256.160   7
  -1   5  -2 6960.83 232.502   9
   1  -5   2 6827.25 203.929   8
  -1  -5  -2 6969.26 209.996   8
  -1  -5  -2 6664.05 195.317   4
  -1  -5  -3-0.24837 14.4008   4
   1   5   3-9.57442 18.4041   9
   1   5   3 37.5785 25.9849  10
  -1  -5  -3 5.18758 14.2636   6
   1   5   3 7.00097 25.9798  12
  -1  -5  -3 8.19536 17.2845   8
   1   5   3-1.01598 17.5362  13
   1   5   3 26.0266 16.2340  11
   1   5   3 9.19226 10.9622   2
  -1  -5  -3 18.1255 21.1485   7
   1   5   3 30.7329 16.4170  16
  -1  -5  -3-4.04218 19.0573   5
  -1  -5  -3 17.2309 13.0056   1
  -1  -5  -4 5864.31 147.668  15
  -1  -5  -4 6071.05 152.287   6
  -1  -5  -4 5939.31 202.486   7
   1   5   4 5903.13 205.833   9
  -1  -5  -4 5826.68 215.305   5
   1   5   4 5949.04 200.301  10
  -1  -5  -4 6149.04 205.340   8
  -1  -5  -4 5917.67 207.219   4
   1   5   5 123.387 60.3440  13
  -1  -5  -5 439.699 59.0010   7
  -1  -5  -5 456.655 63.2525   5
   1   5   5 492.447 61.5164  10
  -1  -5  -5 436.578 45.5047  15
  -1  -5  -5 463.006 66.1011   4
  -1  -5  -5 483.910 45.2161   6
  -1  -5  -5 418.784 56.8631   8
   1   5   5 283.057 44.5035  16
  -1  -5  -6 340.500 48.3365  15
  -1  -5  -6 403.809 44.0315   6
  -1  -5  -6 332.710 57.6030   7
  -1  -5  -6 266.452 57.2151   4
   1   5   6 100.635 49.8981  16
   1   5   6 74.9855 66.1503  13
  -1  -5  -6 264.911 60.5259   5
   1  -6  -4 2378.38 117.918   3
   1  -6  -4 2342.80 148.334   8
   1  -6  -4 2493.68 147.679   6
   1  -6  -4 2388.00 150.136   7
  -1   6   4 2014.22 139.199  10
   1  -6  -3 374.579 57.5438   7
  -1   6   3 362.671 57.8100  11
   1  -6  -3 198.079 48.9376   5
  -1   6   3 381.785 59.7429  10
  -1   6   3 379.194 33.9247  13
   1  -6  -3 362.009 42.0931   3
   1  -6  -3 393.745 55.0174   6
   1  -6  -3 324.212 53.3319   8
   1  -6  -2 379.505 55.6430   7
   1  -6  -2 406.961 54.0267   5
  -1   6   2 469.233 56.6836  14
   1  -6  -2 408.762 46.4589   3
   1  -6  -2 330.941 53.0458   6
   1  -6  -2 356.211 53.2458   8
  -1   6   2 335.993 54.8884  10
  -1   6   2 358.981 55.7281  11
  -1   6   2 353.978 48.9791  12
  -1   6   1 1257.54 85.7846  14
   1  -6  -1 1168.91 97.6326   6
  -1   6   1 1219.15 98.9290  10
  -1   6   1 1183.73 81.2301  12
   1  -6  -1 1170.58 83.7150   3
   1  -6  -1 1248.36 83.8978   5
  -1   6   1 1131.24 96.9969   9
   1  -6  -1 1178.17 97.8903   8
   1  -6  -1 1180.51 95.9352   7
  -1   6   1 1148.50 94.4255  11
  -1   6   0 1258.54 99.2165   9
  -1   6   0 1209.70 86.6917  14
  -1   6   0 1215.42 54.2660  15
   1  -6   0 1246.52 88.1474   3
  -1   6   0 1206.79 99.3682  11
   1  -6   0 1246.53 79.3526   5
  -1   6   0 1273.80 81.5933  12
   1  -6   0 1181.87 63.1429  16
   1  -6   0 1276.17 99.8114   7
   1  -6   0 1346.68 105.282   6
   1  -6   0 1239.15 98.8498   8
   1  -6   1 67.0374 30.0291   3
  -1  -6  -1 64.0730 31.8826   7
   1  -6   1 50.0919 15.0856  16
  -1  -6  -1 61.0915 15.8235   1
   1  -6   1 82.8817 32.8364   6
  -1  -6  -1 69.4064 27.7004   8
  -1   6  -1 55.9770 18.1308  15
   1   6   1 90.3753 19.4679   2
   1  -6   1 62.6047 29.8389   8
  -1  -6  -1 48.8765 26.2156   4
   1   6   1 49.6942 22.3469  12
  -1  -6  -1 64.0138 24.8930   5
   1   6   1 51.2061 27.8415   9
  -1   6  -1 56.8648 21.7990   9
   1  -6   1 60.2043 18.0695   5
  -1   6  -1 89.5484 29.0370  14
   1  -6   1 69.1020 28.4765   7
   1   6   2 1605.85 115.708   9
   1  -6   2 1481.56 147.710   7
  -1  -6  -2 1779.17 70.6852   1
  -1   6  -2 1698.67 85.5712  15
  -1  -6  -2 1661.95 116.713   5
   1  -6   2 1709.21 89.1583  16
   1  -6   2 1757.31 130.531   6
   1   6   2 1694.45 67.4388   2
   1   6   2 1688.90 118.773  12
   1  -6   2 1652.92 118.516   8
  -1  -6  -2 1632.58 115.113   7
   1  -6   2 1715.87 92.9068   5
  -1  -6  -2 1543.76 111.857   8
  -1  -6  -2 1616.32 102.733   4
  -1  -6  -3 18.9541 20.7449   8
   1   6   3 45.9534 17.4550   2
   1   6   3 36.1507 20.4833  12
   1   6   3 20.0009 15.7874  11
   1   6   3 13.7260 25.7112  13
   1   6   3 20.6904 19.7128  10
   1   6   3 55.8333 28.5560   9
  -1  -6  -3 31.3294 29.9182   6
  -1  -6  -3 14.6549 22.2067   5
  -1  -6  -3 13.9283 18.5859   4
  -1  -6  -3 24.2893 20.6482   7
   1   6   4 37.7687 40.4588  13
  -1  -6  -4 115.341 36.3489   4
  -1  -6  -4 108.556 30.9805   7
  -1  -6  -4 160.398 33.9766   6
  -1  -6  -4 98.8823 33.7152   5
   1   6   4 135.509 40.8984  12
   1   6   4 80.2595 31.1588   9
   1   6   4 108.318 39.9515  10
   1   6   4 57.5200 19.1810  16
  -1  -6  -4 147.353 37.5035   8
  -1  -6  -5 368.805 61.3924   5
  -1  -6  -5 365.444 40.8508  15
   1   6   5 71.9459 52.3553  13
  -1  -6  -5 311.245 42.1263   6
   1   6   5 75.0092 60.9894  12
   1   6   5 190.802 41.6423  16
  -1  -6  -5 387.886 63.7387   7
  -1  -6  -5 348.497 57.0482   4
   1   6   5 365.521 67.6553   9
   1   6   5 339.621 56.7812  10
  -1  -6  -5 387.661 61.7104   8
  -1  -6  -6 136.304 42.1252   4
  -1  -6  -6 128.546 49.9279   5
   1   6   6 124.276 34.4283  10
  -1  -6  -6 175.643 37.6231   6
   1   6   6 28.4173 35.4166  13
  -1  -6  -6 143.976 43.5352   8
  -1  -6  -6 124.077 37.1201   7
  -1  -6  -6 166.372 34.7715  15
  -1  -6  -7 23.1438 33.6998   7
  -1  -6  -7 9.49319 24.7388  15
  -1  -6  -7 22.7116 33.1768   5
   1   6   7 1.96202 30.8869  13
   1  -7  -4 74.8690 38.5828   7
   1  -7  -4 33.0450 27.5855   6
   1  -7  -4 83.9799 29.1737   3
  -1   7   4 57.5293 33.6356  10
   1  -7  -4 20.4510 29.5046   8
  -1   7   3 466.397 62.9299  12
  -1   7   3 445.934 69.2864  10
   1  -7  -3 429.240 63.6770   6
   1  -7  -3 432.094 71.4853   5
  -1   7   3 414.219 66.4233  11
   1  -7  -3 389.040 64.5592   8
   1  -7  -3 408.739 49.6072   3
   1  -7  -3 389.527 60.7972   7
   1  -7  -2 73.2478 35.8255   6
   1  -7  -2 55.8654 31.1974   7
  -1   7   2 32.0101 23.9605  11
   1  -7  -2 62.6188 28.5007   5
   1  -7  -2 52.3664 26.3967   3
  -1   7   2 37.9260 25.2939   9
  -1   7   2 54.1285 26.4799  14
  -1   7   2 64.7937 33.8555  10
  -1   7   2 39.4599 26.2749  12
   1  -7  -2 60.2418 33.2216   8
   1  -7  -1 38.4051 26.1310   6
  -1   7   1 76.7998 33.1089  10
   1  -7  -1 124.081 44.2804   7
  -1   7   1 98.8620 31.3857  14
  -1   7   1 65.3515 28.8788  12
   1  -7  -1 99.0440 29.0487   5
  -1   7   1 86.9617 28.6706  11
   1  -7  -1 49.8195 24.3389   3
  -1   7   1 98.3554 38.1665   9
   1  -7  -1 110.521 35.5612   8
   1  -7   0 610.847 61.3710   5
  -1   7   0 696.099 82.6279   9
   1  -7   0 719.725 75.3039   3
  -1   7   0 713.242 82.4172  11
  -1   7   0 615.323 66.5508  14
   1  -7   0 640.768 83.1193   6
   1  -7   0 617.021 76.2092   7
   1  -7   0 613.565 77.5485   8
  -1  -7  -1 152.467 35.1327   4
   1  -7   1 99.2441 33.1861   7
  -1  -7  -1 164.857 69.2362   7
  -1  -7  -1 99.8978 37.4114   8
   1  -7   1 68.7683 37.2131   6
   1  -7   1 115.996 21.8679  16
  -1   7  -1 120.981 39.0860  14
  -1   7  -1 101.090 40.9377   9
   1  -7   1 120.230 29.4553   5
   1   7   1 126.917 46.8317   9
  -1  -7  -1 95.6502 34.3989   5
   1  -7   1 121.166 39.5088   8
  -1   7  -2 432.384 60.3428  14
   1  -7   2 393.194 48.9212  16
  -1  -7  -2 369.371 64.4529   8
  -1  -7  -2 446.424 58.6113   4
   1   7   2 357.783 58.6317  12
  -1  -7  -2 443.853 73.7403   7
   1  -7   2 447.610 85.2566   8
   1   7   2 422.544 56.8611  11
   1   7   2 410.791 67.1478   9
   1  -7   2 446.210 66.0174   5
  -1  -7  -2 430.197 65.7013   5
   1  -7   2 422.914 88.8223   6
  -1   7  -2 437.809 48.4142  15
  -1  -7  -3 261.970 55.2913   8
   1   7   3 309.891 60.4418  12
   1   7   3 301.654 51.1130  13
   1   7   3 297.904 43.3396  11
  -1  -7  -3 322.513 53.7637   4
   1   7   3 276.843 58.9339   9
  -1  -7  -3 277.785 54.3014   7
   1   7   3 300.369 59.5566  10
  -1  -7  -3 225.881 48.3932   5
  -1  -7  -4 192.118 41.8835   6
  -1  -7  -4 150.514 43.8237   8
   1   7   4 198.736 53.7599  12
   1   7   4 198.801 47.4776  13
  -1  -7  -4 125.681 38.1307   7
  -1  -7  -4 155.158 38.3961   4
   1   7   4 132.364 28.2112  11
   1   7   4 99.5864 43.6702   9
   1   7   4 213.774 51.2858  10
  -1  -7  -4 156.543 46.3327   5
  -1  -7  -5 216.667 55.6707   7
   1   7   5 58.0176 53.1724  13
  -1  -7  -5 188.515 35.3565   6
  -1  -7  -5 174.229 45.3832   4
  -1  -7  -5 166.013 48.2461   5
   1   7   5 233.900 53.5069   9
   1   7   5 93.5219 58.9748  12
   1   7   5 206.632 55.3423  10
  -1  -7  -5 194.299 50.1430   8
   1   7   6 95.0019 43.9129  10
  -1  -7  -6 129.324 54.7363   7
   1   7   6 25.8916 57.7225  12
   1   7   6 16.2287 42.0020  13
  -1  -7  -6 101.648 41.8653   4
  -1  -7  -6 50.7764 30.3327   5
   1   7   6 83.3599 45.1427   9
  -1  -7  -6 83.3487 37.6457   8
  -1  -7  -7 1133.64 136.368   5
  -1  -7  -7 983.393 124.707   7
   1   7   7 333.772 135.094  12
   1  -8  -5 1053.82 114.132   6
   1  -8  -5 1177.96 132.613   7
   1  -8  -5 1087.52 124.536   8
   1  -8  -4 163.311 46.9029   6
   1  -8  -4 109.249 49.8293   7
  -1   8   4 194.389 55.3644  12
  -1   8   4 181.852 57.7461  10
   1  -8  -4 215.408 44.9775   3
   1  -8  -4 203.050 56.0437   8
   1  -8  -3 1347.80 100.065   3
   1  -8  -3 1266.98 119.494   6
   1  -8  -3 1229.35 120.947   7
  -1   8   3 1239.67 104.859  12
   1  -8  -3 1325.57 127.963   5
  -1   8   3 1197.97 116.349  11
  -1   8   3 1184.12 119.038  10
  -1   8   3 1266.29 125.726   9
   1  -8  -3 1176.20 118.466   8
   1  -8  -2 548.251 85.3035   7
   1  -8  -2 560.584 65.8336   3
  -1   8   2 514.625 68.0525  14
  -1   8   2 515.184 66.0219  12
   1  -8  -2 470.087 73.2980   6
  -1   8   2 519.256 81.8515  11
  -1   8   2 453.639 76.7996  10
   1  -8  -2 491.404 67.4891   5
  -1   8   2 510.129 78.8685   9
   1  -8  -2 454.219 74.3738   8
  -1   8   1 997.797 88.2316  14
   1  -8  -1 966.966 104.710   7
   1  -8  -1 1059.38 93.6981   3
  -1   8   1 1005.90 90.2429  12
  -1   8   1 922.467 106.383  11
   1  -8  -1 912.175 82.6828   5
  -1   8   1 1002.95 105.033   9
  -1   8   1 951.165 107.160  10
   1  -8  -1 1002.30 109.693   6
   1  -8  -1 886.589 96.6527   8
   1  -8   0-3.38427 26.9474   8
  -1   8   0 8.01552 36.3232  11
   1  -8   0 18.5809 25.6634   6
  -1   8   0 18.4668 23.7913  14
   1  -8   0-25.7219 32.0077   7
  -1   8   0-10.6585 38.2259  10
   1  -8   0 31.6818 18.8552   5
  -1   8   0 34.6093 26.1466   9
  -1   8  -1 162.310 31.5767  14
  -1  -8  -1 184.497 59.5554   4
   1  -8   1 235.479 65.2246   7
   1  -8   1 161.953 46.5699   8
   1  -8   1 197.489 48.3832   5
  -1  -8  -1 257.215 81.0604   8
  -1   8  -1 133.344 47.4653  11
   1  -8   1 160.864 58.7132   6
  -1   8  -1 187.616 57.6587   9
  -1  -8  -1 95.2752 37.2767   5
  -1  -8  -2 8.39986 31.9912   8
   1   8   2-33.8398 44.2961   9
  -1  -8  -2-7.72770 25.8090   4
  -1  -8  -2-20.7308 35.1097   7
   1   8   2 6.59243 22.7221  11
   1   8   2 15.4521 37.8797  12
   1  -8   2-102.664 150.695   6
   1  -8   2-120.428 104.119   8
  -1  -8  -2 67.1995 37.0859   5
   1  -8   2-0.99567 96.2591   5
  -1   8  -2-49.4363 31.3679  14
  -1  -8  -3 479.566 77.9521   7
   1   8   3 491.149 82.0201  12
   1   8   3 491.348 65.9186  11
  -1  -8  -3 413.447 75.1500   5
   1   8   3 422.287 77.9075   9
   1   8   3 505.075 78.7192  10
  -1  -8  -3 447.709 66.0002   4
  -1  -8  -3 453.095 76.8558   8
  -1  -8  -4 17.6917 24.2187   4
  -1  -8  -4 4.72912 36.4626   7
   1   8   4 29.1925 40.1894   9
   1   8   4 58.7924 38.3104  10
   1   8   4 17.9701 26.9454  12
   1   8   4 16.7910 31.0704  13
  -1  -8  -4 9.71970 30.0103   8
  -1  -8  -4 69.9096 40.3393   5
   1   8   5 63.6503 35.4831  13
   1   8   5 3.99003 37.9010  12
  -1  -8  -5 60.9017 35.1049   4
  -1  -8  -5 140.049 53.7879   7
   1   8   5 31.9551 40.4074  10
  -1  -8  -5 15.8422 34.5907   5
   1   8   5 5.50402 27.7732   9
  -1  -8  -5 54.4249 36.4568   8
  -1  -8  -6 204.166 64.8252   7
  -1  -8  -6 224.849 58.5650   8
  -1  -8  -6 112.639 22.6139   4
   1   8   6 31.5976 62.3776  12
   1   8   6 198.828 47.6064  10
   1   8   6 221.855 53.6686  13
  -1  -8  -6 223.870 61.1243   5
   1   8   6 210.155 60.3955   9
   1   8   7 18.6455 43.1670  12
  -1  -8  -7 322.039 87.6737   5
   1   8   7 83.0534 70.3680  13
  -1  -8  -7 354.313 87.2258   7
   1   8   7 305.384 77.9549   9
   1  -9  -5 100.763 52.4249   7
  -1   9   5 55.8922 31.3325  12
   1  -9  -5 78.9091 52.0519   6
  -1   9   5 52.8257 36.2492  10
   1  -9  -5 90.2519 51.3147   8
   1  -9  -4 375.374 73.2460   7
   1  -9  -4 337.424 75.2099   8
  -1   9   4 320.372 63.6594  12
   1  -9  -4 418.642 78.3975   6
  -1   9   4 347.439 76.5692   9
  -1   9   4 456.196 83.1338  10
   1  -9  -3 149.035 53.1991   7
  -1   9   3 150.519 41.7773  12
   1  -9  -3 212.586 55.0766   6
   1  -9  -3 199.000 59.1763   5
  -1   9   3 220.530 63.9631  10
  -1   9   3 233.218 65.5575   9
  -1   9   3 170.318 54.4178  11
   1  -9  -3 122.297 42.5596   8
   1  -9  -2 1145.57 122.177   6
  -1   9   2 1271.55 128.564  10
  -1   9   2 1290.44 115.486  12
  -1   9   2 1184.08 124.899  11
   1  -9  -2 1213.37 112.304   5
   1  -9  -2 1229.06 129.283   7
  -1   9   2 1194.27 125.880   9
   1  -9  -2 1065.73 120.049   8
   1  -9  -1 760.255 88.3314   5
   1  -9  -1 745.613 96.7979   6
  -1   9   1 649.733 89.8472  11
  -1   9   1 850.375 108.705  10
  -1   9   1 786.964 102.373   9
   1  -9  -1 687.109 96.2238   7
   1  -9  -1 669.159 94.4802   8
   1  -9   0 1450.03 142.719   6
  -1   9   0 1396.47 136.969   9
   1  -9   0 1246.79 120.806   5
   1  -9   0 1369.00 137.829   7
  -1   9   0 1335.43 137.461  11
  -1   9   0 1426.99 141.247  10
   1  -9   0 1320.23 134.474   8
  -1   9   0 1421.17 122.216  14
   1  -9   1 27.4100 51.6927   8
  -1   9  -1-10.1675 35.7947  14
  -1   9  -1 23.3292 45.0372  11
   1  -9   1-11.1181 41.8936   7
   1  -9   1 70.2590 72.6709   5
   1  -9   1 48.1532 45.7254   6
  -1   9  -1-1.41562 29.2967   9
  -1  -9  -2 1564.20 176.208   7
   1   9   2 1294.16 112.451  11
  -1  -9  -2 1770.93 172.001   8
   1   9   2 1481.53 157.912   9
  -1  -9  -2 1661.53 164.831   5
  -1  -9  -2 1264.02 136.951   4
   1   9   3 266.767 67.6118  12
   1   9   3 208.161 55.3910  10
  -1  -9  -3 124.535 39.4360   7
  -1  -9  -3 239.324 67.1781   5
  -1  -9  -3 169.214 55.6358   4
   1   9   3 111.670 54.9170   9
  -1  -9  -3 227.257 64.7566   8
  -1  -9  -4 253.026 65.9841   7
   1   9   4 88.3598 27.0975  13
   1   9   4 228.337 59.3209  12
  -1  -9  -4 209.355 52.2013   4
   1   9   4 233.711 60.2277  10
  -1  -9  -4 174.829 56.2866   5
   1   9   4 180.036 66.8861   9
  -1  -9  -4 219.856 60.2290   8
  -1  -9  -5 71.2825 43.6945   4
   1   9   5 49.4219 37.8111  10
   1   9   5 29.5663 47.9071  12
  -1  -9  -5 104.205 52.9961   7
   1   9   5 57.2852 28.9264  13
  -1  -9  -5 44.1656 40.7312   5
   1   9   5 140.354 59.7851   9
  -1  -9  -5-4.35666 32.4129   8
   1   9   6-33.1416 42.0409  13
   1   9   6-12.6856 35.7699  12
  -1  -9  -6-4.43564 41.7013   7
  -1  -9  -6-3.05697 35.5240   5
   1   9   6-1.79673 33.7368  10
   1   9   6-21.1905 42.7042   9
  -1  -9  -6 21.0057 40.4807   8
   1   9   7 23.7715 74.7488  12
  -1  -9  -7 267.450 91.2611   7
  -1  -9  -7 237.549 89.7386   5
   1   9   7 12.6278 64.7563   9
  -1  -9  -7 148.055 55.9343   8
   1 -10  -5-18.0427 47.8582   7
   1 -10  -5-33.3411 42.7758   6
  -1  10   5 95.1649 51.0421  12
  -1  10   5-28.2423 37.9247  10
  -1  10   5-58.5396 45.3759   9
   1 -10  -5 63.0316 34.1975   8
   1 -10  -4 489.873 92.4223   7
   1 -10  -4 510.644 99.3938   8
   1 -10  -4 567.010 97.2341   6
  -1  10   4 440.678 79.9180  12
  -1  10   4 437.508 86.0681  10
  -1  10   4 582.766 100.606   9
   1 -10  -3 171.883 66.1221   5
   1 -10  -3 115.936 47.7217   6
  -1  10   3 67.6752 40.0525  12
  -1  10   3 77.5688 41.4566  11
  -1  10   3 222.153 68.7288  10
  -1  10   3 164.559 65.6808   9
   1 -10  -3 126.005 63.8261   8
  -1  10   2-59.9420 57.8310  11
   1 -10  -2 14.3055 42.1767   7
   1 -10  -2-27.4753 37.5449   5
  -1  10   2-40.0244 50.6941  10
  -1  10   2-38.0540 51.1174   9
   1 -10  -2 44.9181 43.0576   8
   1 -10  -2 23.7358 33.0044   6
   1 -10  -1 194.324 52.9972   6
   1 -10  -1 190.782 64.3066   7
  -1  10   1 201.833 70.7264  11
  -1  10   1 247.731 66.3317  10
   1 -10  -1 123.412 51.2946   5
  -1  10   1 276.822 69.8945   9
   1 -10  -1 223.296 65.5918   8
   1 -10   0 1.59598 40.2436   7
   1 -10   0-22.2148 38.7495   8
  -1  10   0 35.7201 44.1923  10
  -1  10   0-98.7028 45.9110  11
   1 -10   0-39.7734 51.8150   6
  -1  10   0 56.2233 44.6625   9
  -1  10  -1-35.8766 46.5439  11
  -1 -10  -2 182.845 106.115   8
   1  10   2 96.6915 60.6603  10
  -1 -10  -2 143.464 112.992   5
   1  10   3-16.1212 45.7554  10
  -1 -10  -3-26.2199 58.5123   7
  -1 -10  -3 28.1236 58.8775   5
   1  10   3-48.6855 49.0745   9
  -1 -10  -3 53.8256 60.1221   8
  -1 -10  -4 77.8783 51.0459   7
   1  10   4-30.4920 39.6281  12
   1  10   4 110.437 61.9578  10
  -1 -10  -4-28.3454 47.0408   5
   1  10   4 29.1415 35.6403   9
  -1 -10  -4 7.46650 37.2766   8
  -1 -10  -5 658.232 109.387   7
   1  10   5 646.608 105.663  10
  -1 -10  -5 542.302 98.4231   5
   1  10   5 590.233 103.948   9
  -1 -10  -5 678.215 111.397   8
  -1 -10  -6 53.2922 45.4645   7
  -1 -10  -6 100.927 48.0380   8
   1  10   6 37.9142 64.4333  12
  -1 -10  -6 136.118 61.1213   5
   1  10   6 109.602 48.0476  10
   1  10   6 122.043 71.5887   9
  -1 -10  -7-5.34745 53.3662   5
  -1 -10  -7-0.59990 49.5003   7
   1  10   7 35.3305 50.0210   9
   1  10   7-7.39419 47.4229  12
  -1 -10  -7 0.46792 39.5085   8
   1 -11  -5 101.914 44.4949   7
  -1  11   5 75.8462 46.0329  10
  -1  11   5 190.703 79.5621   9
   1 -11  -5 143.245 62.9040   8
   1 -11  -4 8.55772 41.4163   7
   1 -11  -4-27.4249 38.8291   6
  -1  11   4-49.4703 37.3655  12
  -1  11   4-50.6572 54.2366  10
  -1  11   4-44.5779 55.4918   9
   1 -11  -4 40.3526 61.6284   8
   1 -11  -3-48.3984 50.9654   7
   1 -11  -3-19.5822 54.2205   6
  -1  11   3-7.51429 36.9079  11
  -1  11   3-22.2215 52.3423  10
  -1  11   3 83.4590 52.7196   9
   1 -11  -3 60.9858 58.3851   8
   1 -11  -2 102.338 48.6981   7
   1 -11  -2 97.1270 59.5323   6
  -1  11   2 128.833 67.6037  11
  -1  11   2 102.133 44.3603  10
  -1  11   2 32.8448 53.2434   9
   1 -11  -2 90.8022 44.0377   8
  -1  11   1-4.45464 41.7628   9
   1 -11  -1 92.9334 51.4863   7
   1 -11  -1 22.1552 56.3091   6
  -1  11   1 153.433 61.6567  11
  -1  11   1-5.63559 55.5362  10
   1 -11  -1 33.1377 43.2788   8
  -1  11   0-46.0253 65.0023  11
  -1  11   0 25.9037 44.6430  10
   1 -11   0 22.9887 103.456   8
   1  11   3 295.437 94.9152  10
  -1 -11  -3 215.529 120.003   5
  -1 -11  -3 372.568 123.447   8
  -1 -11  -4-32.9861 55.0238   7
  -1 -11  -4 12.0349 48.5417   5
   1  11   4-5.56834 40.2038   9
   1  11   4 18.2611 59.0426  10
  -1 -11  -4 5.62633 61.6628   8
  -1 -11  -5-30.5160 47.3922   5
   1  11   5 12.1230 51.6898  12
   1  11   5-10.2289 41.7432  10
  -1 -11  -5 90.9397 71.1926   7
   1  11   5-95.1580 67.8592   9
  -1 -11  -5 30.4328 56.2658   8
  -2   0  -1 5.06493 13.4686  15
  -2   0  -1 2.35564 11.5347  14
  -2   0  -1-5.52973 13.7482   4
   2   0   1 13.4913 11.7497  13
   2   0   1-3.23475 9.64516   6
  -2   0  -1 6.94619 12.7133   1
   2   0   1 35.7210 17.6752  16
   2   0   1-17.9202 11.4654   2
   2   0   1-1.74628 10.7899   3
  -2   0  -1 3.85985 7.45806   5
  -2   0  -2 10623.2 219.917  14
   2   0   2 10545.8 234.118  16
   2   0   2 10440.4 157.570   6
   2   0   2 10460.4 211.495   3
  -2   0  -2 10395.1 234.609   1
  -2   0  -2 10451.3 169.574   5
   2   0   2 10143.7 218.243  13
   2   0   2 10525.8 230.528   2
  -2   0  -2 10582.9 235.266  15
  -2   0  -2 10441.8 221.230   4
  -2   0  -3 23.9777 20.8350   1
   2   0   3 40.4118 25.9238   2
   2   0   3 23.6866 19.9215  16
  -2   0  -3 37.3716 24.2929  15
  -2   0  -3 15.5363 23.4612  14
  -2   0  -3 38.3976 20.8109   4
   2   0   3 26.3728 15.3548  12
   2   0   3 36.1644 19.6138  13
   2   0   3 63.3275 16.9656   6
  -2   0  -3 43.4269 14.2554  11
   2   0   3 76.6214 30.6221   3
  -2   0  -3 12.5429 13.7540   5
  -2   0  -4 4146.69 165.400   1
   2   0   4 4305.73 158.631  13
  -2   0  -4 4370.89 168.558  15
  -2   0  -4 4288.16 107.502  11
   2   0   4 4296.27 152.165   3
  -2   0  -4 4352.15 152.715  14
   2   0   4 4364.52 167.294  16
  -2   0  -4 4099.63 147.192   5
   2   0   4 4223.22 125.757  12
  -2   0  -4 4426.70 162.454   4
   2   0   4 4304.00 163.831   2
  -2   0  -5-22.4024 20.6648  15
   2   0   5-3.67200 17.6816   2
  -2   0  -5-7.41197 22.2950   4
   2   0   5-23.1332 24.0123  16
  -2   0  -5-28.4274 28.8816   1
   2   0   6 1453.19 142.504  16
  -2   0  -6 1850.55 134.603  15
  -2   0  -6 1673.27 138.615   1
   2   0   6 1428.60 141.093   2
  -2   1   0 3800.02 123.987   4
  -2   1   0 3976.42 142.064  15
   2  -1   0 3982.71 140.768   2
  -2   1   0 4299.51 154.475  14
   2  -1   0 3589.70 144.886   6
   2  -1   0 3841.07 144.684  16
  -2   1   0 3977.80 139.829   1
   2  -1   0 4112.67 143.915   3
   2   1   1 572.095 47.6835   3
  -2  -1  -1 571.557 53.8069  15
   2  -1   1 575.158 28.6570   7
   2  -1   1 533.185 51.9396  16
   2  -1   1 563.818 49.6762  13
   2  -1   1 562.587 45.2874   6
  -2  -1  -1 550.455 55.9600   1
  -2   1  -1 584.442 57.9981  14
  -2   1  -1 558.195 54.2498  15
   2  -1   1 570.634 53.6245   2
   2   1   1 592.497 56.1226   2
   2   1   1 549.504 55.1690  16
   2   1   1 504.995 52.1641  13
  -2   1  -1 532.590 53.2904   1
   2  -1   1 579.927 54.1414   3
  -2   1  -1 576.412 32.3454   5
  -2  -1  -1 585.921 48.7266   5
  -2   1  -1 540.988 44.6796   4
  -2  -1  -1 600.303 57.3852   4
   2  -1   2 7.63995 12.0250  16
  -2  -1  -2-13.7640 20.5784  15
  -2   1  -2-5.99696 12.8822   4
  -2  -1  -2-7.29287 16.3415  14
   2  -1   2 1.30318 11.0216  13
   2   1   2 7.73891 12.8210  13
  -2   1  -2-4.02647 16.5078  15
   2  -1   2-6.38690 10.1850   6
   2   1   2-14.8874 14.6081  12
   2   1   2 7.45746 5.14072   6
  -2   1  -2 7.92416 11.8368  11
  -2  -1  -2-2.17680 5.13079   8
  -2   1  -2 0.34477 13.4844   1
   2  -1   2-14.8349 19.4812   2
  -2   1  -2-6.31461 6.62649   5
  -2   1  -2 10.6949 15.4713  14
  -2  -1  -2-9.16848 14.7354   4
   2  -1   2-8.41220 13.2084   3
   2   1   2-4.15631 17.4103   2
   2   1   2-9.20904 13.4183   3
  -2  -1  -2-30.1120 17.2107   5
   2   1   2-4.26869 14.3043  16
  -2  -1  -2-3.06361 16.4931   1
   2  -1   3 573.834 36.2647  12
  -2  -1  -3 630.831 62.7842  15
  -2  -1  -3 657.569 54.6400   5
   2   1   3 660.467 63.1062   2
   2  -1   3 652.867 58.8456  13
  -2   1  -3 660.875 64.2404  14
   2   1   3 589.845 59.4170  13
   2   1   3 662.595 56.0487   3
  -2   1  -3 685.905 66.3601  15
   2   1   3 606.435 54.2013  12
   2  -1   3 614.815 62.3679  16
  -2  -1  -3 589.764 62.8451   1
   2  -1   3 620.961 61.7110   3
  -2   1  -3 658.796 50.9615  11
  -2   1  -3 560.745 63.5306   1
  -2  -1  -3 667.305 55.1742  14
   2   1   3 612.292 61.2501  16
   2  -1   3 630.875 48.7997   6
  -2   1  -3 675.291 59.0910   4
  -2  -1  -3 679.968 66.1896   4
   2  -1   3 604.183 60.3356   2
   2   1   4 2816.63 133.771  16
  -2  -1  -4 2791.13 132.817  15
  -2  -1  -4 2613.39 134.246   1
  -2   1  -4 2799.60 132.043  14
  -2  -1  -4 2848.34 115.329  14
  -2   1  -4 2819.17 135.835  15
   2   1   4 2803.53 114.914   3
   2  -1   4 2821.32 132.314   3
   2  -1   4 2665.35 119.453  13
   2   1   4 2730.87 118.745  12
  -2  -1  -4 2801.67 113.736   5
   2  -1   4 2715.32 135.533  16
   2   1   4 2847.68 135.600  13
  -2   1  -4 2869.73 129.661   4
   2  -1   4 2674.79 129.474   2
  -2  -1  -4 2820.20 136.951   4
   2   1   4 2873.93 134.198   2
  -2   1  -4 2756.74 136.669   1
  -2  -1  -5 38.2810 22.0471   1
   2   1   5 81.8082 32.6468  16
  -2   1  -5 36.6394 10.9563   7
  -2  -1  -5 50.9575 20.8066   4
  -2   1  -5 72.4002 28.2567  15
  -2  -1  -5 29.6225 16.8235  14
   2  -1   5 68.7011 24.4802  16
   2  -1   5 147.982 40.5962   8
   2   1   5 70.0748 26.1562   2
   2   1   5 58.0656 28.3606  13
   2  -1   5 16.6154 27.4218   3
  -2  -1  -5 39.9356 10.0632  11
   2  -1   5 80.8045 34.5908   2
  -2  -1  -5 65.5662 27.8139   5
  -2   1  -5 56.0354 25.2593   1
  -2  -1  -5 66.7664 14.0297   7
  -2  -1  -5 14.9487 23.1821  15
   2   1   6 65.7867 28.8234  16
  -2   1  -6 56.9961 39.6154  15
  -2  -1  -6 48.3064 32.6637  15
  -2  -1  -6 52.9021 30.6281   1
  -2  -1  -6 50.6229 15.5711   7
  -2  -1  -6 41.1956 19.0110   4
   2   1   6 11.1775 25.4281   2
  -2   2   0 8634.63 158.711   4
  -2   2   0 8465.27 198.804   1
   2  -2   0 8519.06 197.581   2
   2  -2   0 8947.60 164.734   7
  -2   2   0 8710.56 215.414  14
   2  -2   0 8646.85 200.625   6
   2  -2   0 8431.46 210.128   3
   2  -2   0 8645.54 211.134  16
  -2   2   0 8741.63 207.805  15
  -2  -2  -1 1255.20 87.3768   4
   2  -2   1 1184.86 80.5804   3
   2  -2   1 1210.15 78.4406  16
   2   2   1 1280.33 83.0889   2
  -2   2  -1 1184.14 79.7537  14
   2  -2   1 1331.13 77.7452   6
   2  -2   1 1178.83 62.5754  13
  -2  -2  -1 1336.57 87.1819   1
   2   2   1 1126.07 65.6163   3
   2  -2   1 1225.80 76.6989   2
   2   2   1 1189.82 83.0654  13
   2  -2   1 1250.05 53.3204   7
  -2   2  -1 1258.10 78.3489  11
  -2  -2  -1 1173.49 80.8620   5
  -2   2  -1 1260.73 78.8721   1
   2   2   1 943.241 74.4666  16
  -2   2  -1 1269.26 63.4531   4
  -2   2  -1 1285.41 80.5200  15
   2  -2   2 3842.17 143.644   2
   2  -2   2 3723.78 144.604  16
   2  -2   2 3744.52 87.9927   7
   2   2   2 3683.28 149.715  13
  -2  -2  -2 3780.82 143.817  15
  -2   2  -2 3826.88 146.074  15
  -2   2  -2 3782.21 150.627  14
   2   2   2 3817.48 109.838   3
   2  -2   2 3787.33 133.750   6
   2   2   2 3607.79 136.707   2
  -2  -2  -2 3652.92 140.720   1
   2  -2   2 3888.24 152.606   3
   2   2   2 3920.12 144.863  16
   2   2   2 3815.45 143.917  12
  -2   2  -2 3638.50 131.590  11
  -2  -2  -2 3762.71 137.717   5
  -2   2  -2 3846.03 146.522   1
   2  -2   2 3726.86 118.721  13
  -2  -2  -2 3778.60 102.027   8
  -2   2  -2 3745.30 117.315   4
  -2   2  -2 3673.60 90.3951   9
  -2  -2  -2 3675.49 149.628   4
   2  -2   3 4059.41 159.730  16
  -2  -2  -3 4013.09 155.127   1
  -2  -2  -3 4024.32 153.314  15
  -2   2  -3 3977.51 161.620  14
   2  -2   3 4013.91 161.459   3
  -2  -2  -3 4019.66 119.118  14
   2   2   3 4077.21 150.929   2
  -2   2  -3 3860.42 157.662   1
   2  -2   3 3988.44 131.240  13
   2   2   3 3996.45 159.557  13
   2   2   3 3948.99 149.362  12
   2   2   3 4013.27 151.215  16
  -2   2  -3 3903.00 137.540  11
  -2  -2  -3 4091.30 146.862   5
   2   2   3 4049.06 104.837  10
  -2   2  -3 3933.07 84.7619  10
  -2   2  -3 4077.09 156.562  15
   2  -2   3 3768.96 135.091   6
   2  -2   3 4044.27 85.3013   8
  -2  -2  -3 3996.71 100.937   8
  -2   2  -3 3829.39 132.443   4
   2  -2   3 3776.00 149.153   2
   2   2   3 4068.51 120.818   3
  -2  -2  -3 3952.80 160.217   4
   2   2   4 2535.53 127.177  16
  -2   2  -4 2488.65 131.611  14
  -2   2  -4 2490.03 130.735  15
   2  -2   4 2454.94 131.055  16
  -2  -2  -4 2632.79 101.838  14
   2  -2   4 2128.10 189.585   6
  -2  -2  -4 2664.49 135.251   1
   2   2   4 2585.76 107.059   3
   2  -2   4 2463.24 129.746   3
   2   2   4 2504.56 133.311  13
   2   2   4 2495.56 122.879  12
  -2  -2  -4 2399.07 118.942   5
  -2  -2  -4 2512.85 87.3527   7
   2   2   4 2570.53 90.4848   9
  -2  -2  -4 2606.58 128.067  15
   2  -2   4 2380.61 64.4802   8
   2  -2   4 2442.01 126.928   2
  -2  -2  -4 2446.57 134.500   4
  -2   2  -4 2569.46 134.932   1
   2   2   4 2631.93 128.448   2
   2  -2   5 241.830 39.4998   8
   2  -2   5 356.323 65.0235  16
  -2  -2  -5 356.744 35.2947   7
  -2  -2  -5 427.675 60.2928  15
   2  -2   5 308.928 60.4854   2
   2   2   5 352.666 55.0215  16
  -2  -2  -5 384.640 42.0926  14
   2   2   5 396.662 55.6171   2
  -2  -2  -5 365.390 55.9352   1
   2   2   5 387.853 57.3147  13
   2   2   5 334.777 48.7969  12
   2  -2   5 329.375 84.8809   3
  -2   2  -5 370.172 62.2595   1
  -2  -2  -5 357.578 51.4574   5
  -2   2  -5 407.700 65.6468  15
   2   2   5 341.630 34.4988   9
  -2  -2  -5 443.434 59.7073   4
   2   2   6 767.599 80.7782  16
  -2  -2  -6 614.375 47.9303   7
  -2  -2  -6 655.256 75.8649  15
  -2  -2  -6 674.106 61.9824  14
   2   2   6 649.427 77.3946  13
  -2  -2  -6 501.969 73.5351   5
   2   2   6 744.080 85.6778   2
  -2  -2  -6 607.461 77.8879   4
  -2  -2  -6 739.772 90.4703   1
  -2  -2  -7 1198.77 105.145  15
  -2  -2  -7 1226.58 71.5967   7
   2  -3  -1 3377.47 148.609   6
   2  -3  -1 3161.85 129.919   2
   2  -3  -1 2770.80 121.252   7
  -2   3   1 3313.62 152.074  14
  -2   3   1 3318.05 132.275   1
   2  -3  -1 3243.53 147.494   3
   2  -3   0 404.417 46.7914  16
  -2   3   0 481.889 51.8329  15
   2  -3   0 474.412 43.1715   7
  -2   3   0 468.984 55.3636  14
   2  -3   0 405.231 49.8611   6
  -2   3   0 393.292 44.5560   1
   2  -3   0 412.700 51.4333   3
  -2   3   0 444.935 53.0219  11
   2  -3   0 449.277 47.1694   2
  -2   3   0 446.881 31.8653   4
  -2   3  -1 77.6270 13.8165   4
  -2   3  -1 88.1285 23.8258   1
   2  -3   1 45.2034 14.1959  16
  -2   3  -1 84.8659 23.7332  15
   2  -3   1 94.4194 18.5215   7
   2   3   1 43.4503 18.2285  13
   2  -3   1 59.5641 20.8975   6
  -2   3  -1 61.1677 17.7710  11
  -2   3  -1 83.8991 20.3914  10
  -2  -3  -1 75.5286 24.7335   4
  -2  -3  -1 41.0937 17.5287   1
   2  -3   1 65.6107 16.0572   2
  -2   3  -1 56.2037 22.8403  14
   2  -3   1 91.0477 22.2464   3
  -2  -3  -1 76.9498 27.1779   5
   2   3   1 60.1011 16.8110   2
   2  -3   1 55.3133 12.6614   8
   2   3   2 567.189 58.7545  16
  -2   3  -2 549.829 58.8491  11
   2  -3   2 586.602 60.4098  16
  -2   3  -2 543.617 57.7342   1
  -2   3  -2 512.368 55.2353  15
  -2   3  -2 586.637 64.0865  14
   2   3   2 581.167 57.8116   2
   2  -3   2 536.838 58.5875   6
  -2  -3  -2 516.606 54.3838   1
   2  -3   2 561.576 42.5909  13
   2   3   2 576.273 63.7542  13
  -2  -3  -2 567.792 56.9425  15
   2   3   2 570.610 39.1484   3
   2  -3   2 544.865 43.1346   7
   2   3   2 571.480 64.0436  12
  -2  -3  -2 522.351 60.8727   5
  -2   3  -2 501.911 39.9978  10
  -2   3  -2 553.583 43.9339   9
   2  -3   2 551.756 43.0141   8
  -2   3  -2 550.203 45.4627   4
  -2  -3  -2 527.165 48.4743   8
   2  -3   2 526.051 61.3947   3
   2  -3   2 526.495 55.1211   2
  -2  -3  -2 492.393 58.5137   4
  -2  -3  -3-2.16316 10.7826   8
   2  -3   3-0.48335 17.9589  16
  -2  -3  -3 41.2568 19.8774  15
  -2  -3  -3-3.32683 19.7266   4
  -2   3  -3-50.2634 29.0737  14
   2  -3   3 21.6192 14.9641  13
   2   3   3 23.1813 24.0716  13
   2  -3   3 32.6450 23.3308   2
  -2   3  -3 11.6176 17.2626  15
   2  -3   3 7.55751 15.8807   6
   2   3   3-6.34009 15.7052  12
   2   3   3 18.7633 16.6309  16
   2  -3   3 24.6250 17.9209   3
   2   3   3 51.7422 16.1382   3
  -2   3  -3 11.6335 13.8985   1
  -2  -3  -3 27.0110 20.7073   1
   2   3   3 0.85557 16.1254   2
  -2  -3  -3 13.6341 19.8830   5
   2  -3   3 17.3757 10.2373   8
   2   3   4 1753.93 105.828  16
  -2  -3  -4 1600.25 101.922  15
   2  -3   4 1620.32 142.785   6
  -2   3  -4 1658.49 116.150  14
  -2   3  -4 1600.81 108.006  15
  -2  -3  -4 1733.46 74.9064  14
  -2  -3  -4 1633.30 83.8658   7
   2  -3   4 1611.20 113.451   3
   2  -3   4 1636.26 109.400  16
  -2  -3  -4 1685.76 108.572   5
  -2  -3  -4 1516.46 103.254   1
   2   3   4 1699.70 83.4478  10
   2   3   4 1639.44 85.4599   9
  -2  -3  -4 1641.29 79.9014   8
   2  -3   4 1865.98 122.757   2
   2  -3   4 1640.73 72.3923   8
  -2   3  -4 1764.40 120.228   1
  -2  -3  -4 1525.05 110.365   4
   2   3   4 1708.59 103.033   2
   2  -3   5-7.44957 36.8691   8
   2  -3   5 130.269 64.7054  16
   2   3   5 124.693 34.0666  16
  -2  -3  -5 108.462 32.8433   4
   2   3   5 29.7018 40.6212  13
  -2  -3  -5 128.428 29.0926   7
  -2  -3  -5 155.779 28.4447  14
   2   3   5 117.497 31.9208   2
  -2  -3  -5 129.546 30.3540  15
   2   3   5 31.8460 37.0587  12
  -2   3  -5 106.599 36.8411  15
  -2  -3  -5 174.592 42.1749   1
  -2  -3  -5 167.680 40.0039   5
   2   3   5 101.484 24.0223   9
  -2  -3  -6 146.299 44.0995   4
  -2  -3  -6 199.035 47.6901   5
  -2  -3  -6 187.654 46.5177  15
   2   3   6 179.019 44.1363  16
   2   3   6 159.189 47.2066   2
  -2  -3  -6 193.593 36.1336   7
  -2  -3  -6 171.450 42.6671   1
   2   3   6 12.7844 39.7280  13
  -2  -3  -6 175.256 28.2712  14
   2   3   7 716.828 86.4285  16
  -2  -3  -7 772.526 89.4338  15
  -2  -3  -7 783.346 67.5174  14
  -2  -3  -7 757.957 64.6490   7
  -2  -3  -7 695.182 91.7595   4
   2  -4  -2 335.566 63.5364   6
  -2   4   1 179.853 29.9105   1
  -2   4   1 168.013 39.1367  14
   2  -4  -1 169.232 37.2108   6
   2  -4  -1 174.396 33.1920   7
  -2   4   1 198.688 41.3185  11
   2  -4  -1 182.785 30.8656   2
   2  -4  -1 187.584 38.7311   3
  -2   4   1 185.965 17.2457   4
   2  -4   0 1382.93 79.3882   2
  -2   4   0 1432.27 86.0236  15
   2  -4   0 1424.17 83.7885   7
   2  -4   0 1357.66 85.8844  16
  -2   4   0 1480.97 100.638  14
  -2   4   0 1477.58 83.9526   1
   2  -4   0 1345.47 95.3008   6
   2  -4   0 1340.03 93.2067   3
  -2   4   0 1403.48 50.4481  12
  -2   4   0 1394.17 99.0887  11
  -2   4   0 1426.34 88.4886  10
   2  -4   0 1469.58 88.4926   8
  -2   4   0 1466.61 44.9617   4
  -2   4  -1 30.8983 19.3497  14
   2  -4   1 50.5525 20.4833  16
  -2   4  -1 4.80367 15.9689  15
   2  -4   1 26.2752 13.7079   7
  -2  -4  -1-6.41932 17.4864   4
  -2   4  -1 12.0032 14.2102   1
   2  -4   1 13.1147 16.4665   6
  -2   4  -1 46.5239 26.7074  11
   2  -4   1 31.7563 15.4147   2
  -2   4  -1 60.7500 23.6134  10
  -2   4  -1 24.8740 17.0946   9
   2  -4   1 13.3510 19.1013   3
  -2  -4  -1 26.1787 23.0152   5
   2  -4   1 14.5087 11.0351   8
  -2   4  -2 96.0088 25.0977  15
   2  -4   2 73.7460 28.8546   6
  -2   4  -2 32.2288 20.0261  10
   2  -4   2 64.4730 19.1870   7
  -2  -4  -2 83.9758 24.8665   1
  -2  -4  -2 82.0693 32.6325   4
   2  -4   2 81.9239 15.6314  13
   2   4   2 15.2955 26.8943  13
  -2   4  -2 78.8308 23.8459   1
   2  -4   2 76.4572 25.1156   2
   2  -4   2 54.0239 19.0155  16
  -2  -4  -2 88.7505 25.6932   8
   2   4   2 21.1357 31.0986  12
  -2   4  -2 85.7199 31.7194  11
  -2   4  -2 118.434 36.2348  14
   2  -4   2 67.8429 25.6525   3
  -2   4  -2 59.9483 26.0898   9
   2   4   2 71.1273 26.4815   2
   2   4   2 36.6050 8.46821   3
  -2  -4  -2 52.1146 26.6385   5
   2  -4   2 78.5616 21.5226   8
   2  -4   3 504.837 59.3747  16
   2   4   3 612.325 61.0834   2
  -2  -4  -3 414.075 65.6162   7
  -2   4  -3 506.204 58.2008  15
  -2  -4  -3 584.748 60.8390  15
  -2  -4  -3 564.978 60.2745   1
  -2   4  -3 531.992 67.8903  14
   2  -4   3 511.278 63.7715   6
   2   4   3 342.813 30.8161   3
   2  -4   3 474.019 62.2097   3
   2  -4   3 510.919 39.4606  13
   2   4   3 182.807 66.8152  13
   2   4   3 265.406 65.1181  12
  -2  -4  -3 559.446 69.0010   5
   2   4   3 413.081 54.5678   9
   2  -4   3 549.674 50.4272   8
  -2  -4  -3 571.013 56.5738   8
   2  -4   3 589.072 67.1679   2
  -2   4  -3 585.365 67.0974   1
  -2  -4  -3 469.624 62.3934   4
   2  -4   4 2694.96 145.719  16
  -2  -4  -4 2489.30 128.607   1
  -2   4  -4 2616.24 141.499  15
  -2   4  -4 2814.18 159.430  14
   2  -4   4 2583.80 154.350   3
   2  -4   4 2455.45 192.731   6
  -2  -4  -4 2514.97 126.558  15
  -2  -4  -4 2534.60 143.907   5
  -2  -4  -4 2369.38 114.406   7
   2   4   4 2566.37 119.173  10
   2   4   4 2435.35 120.633   9
  -2  -4  -4 2620.07 118.497   8
  -2   4  -4 1906.44 153.560   1
   2  -4   4 2588.63 112.875   8
  -2  -4  -4 2576.68 149.826   4
   2   4   4 2701.51 130.128   2
  -2  -4  -5-5.63347 22.6488  15
  -2  -4  -5 17.1620 22.2775   7
   2   4   5-8.85162 26.7839   2
   2   4   5 4.52944 21.7105  13
   2   4   5-0.54321 31.4799  12
   2   4   5-0.76684 19.5195  16
   2   4   5-5.80389 17.4264  10
  -2  -4  -5 12.7395 22.0637   5
  -2  -4  -5 1.04192 31.5277   4
   2   4   5 4.08649 20.0705   9
  -2  -4  -5 14.8453 15.2781   8
  -2  -4  -5 49.7399 30.1870   1
   2   4   6 124.241 36.7445   2
  -2  -4  -6 185.837 48.9723   4
   2   4   6 30.6715 43.5621  13
  -2  -4  -6 96.3245 39.7109  15
   2   4   6 13.8630 37.9175  12
   2   4   6 51.3190 47.5407  16
  -2  -4  -6 172.451 48.4458   1
  -2  -4  -6 111.887 30.1318   7
  -2  -4  -6 132.041 38.3385   5
   2   4   6 177.906 37.9983   9
   2   4   7 18.7205 67.3840  13
  -2  -4  -7 317.037 68.2973  15
  -2  -4  -7 326.708 50.2058   7
   2   4   7 71.3772 60.9303  12
   2   4   7 73.1999 60.8457  16
  -2  -4  -7 305.316 64.3484   5
  -2  -4  -7 223.482 51.2675   4
   2  -5  -2 3776.94 168.889   7
   2  -5  -2 3795.05 180.794   6
   2  -5  -2 3919.85 135.272   2
   2  -5  -2 3902.26 173.147   3
  -2   5   2 3825.23 133.615   1
  -2   5   1 66.8723 28.8644  14
   2  -5  -1 82.9603 30.7405   6
  -2   5   1 79.9905 17.7439   1
  -2   5   1 60.1266 30.0332  11
  -2   5   1 110.991 34.2400  10
   2  -5  -1 71.3222 23.2858   7
   2  -5  -1 81.4315 25.8088   2
   2  -5  -1 56.7840 22.3069   3
   2  -5  -1 116.371 34.1277   8
   2  -5   0 4776.63 165.645  16
   2  -5   0 4741.25 171.150   7
  -2   5   0 4704.19 158.039  15
  -2   5   0 4666.53 188.416  14
   2  -5   0 4613.28 191.178   6
   2  -5   0 4409.45 180.456   3
  -2   5   0 4534.06 109.665  12
  -2   5   0 4485.07 191.392  11
  -2   5   0 4623.88 150.728   1
  -2   5   0 4557.32 171.400  10
   2  -5   0 4400.25 166.616   8
   2  -5   0 4562.55 147.804   2
   2  -5   1 1190.69 80.8802  16
  -2   5  -1 1068.71 70.8406  15
  -2   5  -1 1314.64 103.333  14
   2  -5   1 1229.16 102.745   6
   2  -5   1 1235.76 100.545   3
  -2   5  -1 1120.97 99.6447  11
  -2   5  -1 1180.74 85.6516  10
   2  -5   1 1225.98 88.9744   7
  -2   5  -1 1213.76 86.4694   9
   2  -5   1 1186.53 84.9383   8
   2  -5   1 1182.92 79.0197   2
  -2   5  -1 1171.77 80.0085   1
  -2  -5  -2 108.910 32.1253   8
  -2   5  -2 176.738 38.9438  15
   2  -5   2 145.680 33.1637   7
   2  -5   2 165.048 35.0616   2
  -2   5  -2 116.227 32.4135  14
   2   5   2 28.2875 37.7504  13
   2  -5   2 105.824 35.4983   6
  -2   5  -2 115.652 35.6285  11
   2  -5   2 121.453 29.2733  16
   2  -5   2 195.169 44.6176   3
  -2   5  -2 147.244 34.4296  10
  -2   5  -2 139.710 35.5632   1
   2   5   2 108.945 29.7087   2
  -2   5  -2 106.800 31.0504   9
  -2  -5  -2 147.687 32.4859   1
  -2  -5  -2 83.7008 30.3359   5
  -2  -5  -2 180.938 45.6325   4
   2  -5   2 124.206 30.2605   8
  -2  -5  -3 375.740 54.8004   8
   2  -5   3 413.230 54.4220  16
  -2  -5  -3 355.803 67.8045   7
  -2  -5  -3 359.855 57.5385   4
  -2   5  -3 403.019 61.7324  14
  -2   5  -3 441.007 59.4251  15
   2  -5   3 402.011 32.4332  13
   2  -5   3 385.022 60.6144   6
   2   5   3 49.0905 66.1888  13
   2   5   3 171.558 66.1214  12
  -2  -5  -3 387.783 50.8938   1
   2  -5   3 404.049 59.4747   3
   2   5   3 407.106 49.9301   2
   2   5   3 433.252 67.7064   9
  -2  -5  -3 383.984 63.9021   5
   2  -5   3 419.138 52.5676   8
   2  -5   4 16.1616 22.8372   8
   2  -5   4-61.0675 38.6366  16
   2  -5   4-1.61390 45.0290   6
  -2   5  -4 32.1684 26.9596  15
  -2  -5  -4-8.13004 23.1607   7
  -2  -5  -4 2.57168 24.8472   4
  -2   5  -4 18.9800 26.6566  14
  -2  -5  -4-20.9973 28.5564  15
   2   5   4-5.19269 16.6679  16
   2   5   4-11.6885 34.6587  12
   2  -5   4 48.2047 35.5698   3
   2   5   4 6.02904 17.1340   2
  -2  -5  -4 3.77007 17.6013   1
   2   5   4 4.24953 17.5320  10
  -2  -5  -4 33.5718 32.7692   5
   2   5   4-2.06016 24.2990   9
   2   5   4 2.64776 28.0271  13
  -2  -5  -4 31.3969 25.2631   8
   2   5   5 103.709 34.1088   2
  -2  -5  -5 59.8825 34.6569   7
  -2  -5  -5 183.603 62.7885   4
   2   5   5 46.8992 35.5871  10
  -2  -5  -5 163.611 45.2870   1
  -2  -5  -5 156.023 45.4548   8
  -2  -5  -6 1294.23 103.567  15
  -2  -5  -6 1422.45 105.737   7
  -2  -5  -6 1420.20 124.248   5
   2   5   6 1310.89 106.956   9
  -2  -5  -6 1004.48 90.6614   8
  -2  -5  -6 1342.52 122.964   4
  -2  -5  -7 19.9629 30.3598   4
  -2  -5  -7 20.0236 26.7379   7
   2   5   7 0.32135 36.7501  13
  -2  -5  -7-22.0420 35.0302  15
   2   5   7 6.40744 31.2372  12
   2   5   7-25.0434 32.4592  16
  -2  -5  -7-5.55803 27.3738   5
   2   5   7 3.38722 30.0321   9
  -2  -5  -8-38.3188 42.0521  15
   2   5   8-8.57758 46.0263  13
   2   5   8-19.9837 45.7472  12
   2   5   8-7.02917 38.1116  16
   2  -6  -3 42.7308 39.3192   7
   2  -6  -3-12.8725 36.6477   6
  -2   6   2 880.050 60.6535   1
   2  -6  -2 917.750 92.8340   6
   2  -6  -2 846.593 81.8394   3
  -2   6   2 820.099 90.3881  11
   2  -6  -2 903.610 87.0033   7
  -2   6   2 586.903 77.7636  10
   2  -6  -2 872.597 61.7285   2
   2  -6  -2 659.548 78.5454   8
  -2   6   1 482.165 48.2749   1
   2  -6  -1 446.315 60.4601   7
  -2   6   1 497.048 66.6794  14
   2  -6  -1 515.537 67.7715   3
  -2   6   1 477.148 48.1618  12
   2  -6  -1 482.157 73.5262   6
  -2   6   1 531.342 77.7997  11
  -2   6   1 519.891 69.0722  10
   2  -6  -1 462.394 61.8468   8
   2  -6  -1 457.556 46.0099   2
  -2   6   0 172.645 35.0256   1
   2  -6   0 174.905 42.5464   7
  -2   6   0 156.364 41.9605  14
   2  -6   0 147.371 32.0973   2
   2  -6   0 115.561 40.1163   6
  -2   6   0 154.935 26.2505  12
  -2   6   0 66.7003 26.4177  11
  -2   6   0 173.145 41.4125  10
   2  -6   0 127.002 34.5814   3
  -2   6   0 176.129 40.4874   9
   2  -6   0 121.987 37.1248   8
   2  -6   1 174.021 35.3399  16
   2  -6   1 166.994 35.0530   2
   2  -6   1 110.799 35.0868   7
  -2   6  -1 92.6659 23.2995  15
   2  -6   1 99.1284 33.5517   6
  -2   6  -1 195.521 48.0880  14
  -2   6  -1 117.049 35.3115  11
  -2   6  -1 106.191 32.9922  10
  -2   6  -1 128.748 30.3157   1
   2  -6   1 104.940 33.9951   3
  -2   6  -1 140.980 39.7966   9
   2  -6   1 121.404 35.9100   8
  -2  -6  -2 7.06470 26.7711   8
   2  -6   2 45.0427 24.8572  16
   2  -6   2 1.23359 20.9707   7
  -2   6  -2 78.5893 38.1515  14
  -2   6  -2 17.2511 20.9161  15
   2  -6   2 52.3813 38.0875   6
  -2   6  -2 62.9825 32.9220  11
   2  -6   2-18.7595 24.9493   3
  -2  -6  -2 38.0349 29.0075   4
  -2   6  -2 43.1220 31.2812  10
  -2  -6  -2-14.6144 22.3444   1
   2   6   2 25.9659 15.7545   2
  -2   6  -2 39.1258 27.0024   9
  -2  -6  -2-2.93732 32.3418   5
   2  -6   2 33.5641 20.2897   8
   2  -6   3 24.0057 24.4964   8
  -2  -6  -3 65.0111 32.0120   8
   2  -6   3 44.6561 25.6557  16
  -2   6  -3-34.8402 25.1822  15
  -2  -6  -3-27.5304 25.5319   4
  -2   6  -3 14.3361 24.9919  14
  -2  -6  -3 37.8810 24.3473   1
   2  -6   3 17.0275 29.4794   6
   2   6   3-2.12670 27.0379  13
   2   6   3 11.8904 36.9277  12
   2  -6   3 22.9258 30.3533   3
   2   6   3 18.0825 21.0510   2
  -2  -6  -3 11.4539 32.7549   5
   2  -6   4 93.4327 65.0226  16
  -2   6  -4 44.0472 29.9793  15
  -2   6  -4 97.3030 56.6529  14
  -2  -6  -4 34.9302 23.0289   1
   2  -6   4 55.1159 53.8564   8
   2  -6   4 104.807 87.4308   6
  -2  -6  -4 77.8281 31.7975   4
   2   6   4 19.6921 31.0378  13
   2   6   4 77.4228 29.7831   2
   2   6   4 27.6364 48.1040  12
   2   6   4 68.3816 34.2177  10
  -2  -6  -4 47.9329 24.1609   7
  -2  -6  -4 23.4493 29.6274   5
   2   6   4 114.585 37.4992   9
  -2  -6  -4 72.4574 22.0973   8
   2   6   5 100.847 81.9693  13
   2   6   5 108.368 88.2759  12
  -2  -6  -5 670.395 67.4996  15
  -2  -6  -5 739.683 93.6975   5
   2   6   5 731.564 79.9080  10
  -2  -6  -5 667.867 78.7995   7
   2   6   5 648.191 78.6736   9
  -2  -6  -5 685.530 78.6740   8
   2   6   5 782.278 80.2079   2
  -2  -6  -5 949.734 97.9609   1
  -2  -6  -5 723.907 91.5668   4
  -2  -6  -6 1610.32 137.094   5
  -2  -6  -6 1386.05 115.224   7
  -2  -6  -6 1509.50 110.975  15
   2   6   6 1445.02 118.922  10
  -2  -6  -6 1485.60 116.647   8
  -2  -6  -6 1503.25 133.751   4
  -2  -6  -7 73.0790 39.3511   4
  -2  -6  -7 54.6029 34.0212  15
  -2  -6  -7 75.9189 41.2223   7
   2   6   7 8.28763 38.8612  13
   2   6   7 1.92118 33.4866  12
  -2  -6  -7 2.95323 29.3605   5
   2   6   7-19.8980 30.8421   9
   2   6   8 114.596 117.784  13
   2   6   8 64.9850 118.486  12
  -2  -6  -8 240.490 74.4353   5
   2  -7  -3-45.2141 29.8974   7
   2  -7  -3 27.1010 39.4097   6
   2  -7  -3 44.4853 30.9669   3
  -2   7   2 217.759 44.4184  12
   2  -7  -2 152.936 41.1261   6
   2  -7  -2 255.814 55.3832   7
  -2   7   2 141.634 54.2561  11
  -2   7   2 211.451 60.3892  10
   2  -7  -2 228.975 49.9062   3
   2  -7  -2 219.411 49.0829   8
  -2   7   1 741.541 86.4373  14
   2  -7  -1 718.442 84.3380   7
   2  -7  -1 737.417 83.9860   3
  -2   7   1 739.957 91.4705  11
   2  -7  -1 797.521 97.8203   6
  -2   7   1 701.806 90.2850  10
  -2   7   1 702.016 87.2150   9
   2  -7  -1 774.281 89.6591   8
   2  -7   0-5.36013 22.4541   7
  -2   7   0-6.68074 37.3665  14
   2  -7   0 17.7535 35.0972   6
  -2   7   0 25.5246 28.4613  11
  -2   7   0 60.0434 33.6427  10
   2  -7   0 34.2762 27.1613   3
  -2   7   0 32.7446 30.9204   9
   2  -7   0 40.3446 33.9474   8
   2  -7   1 306.719 51.6862  16
   2  -7   1 362.472 61.6564   7
  -2   7  -1 280.425 56.6306  14
   2  -7   1 299.925 61.9554   6
  -2   7  -1 312.104 64.9821  11
   2  -7   1 331.811 58.5455   3
  -2   7  -1 341.919 61.0919  10
  -2   7  -1 301.407 55.1166   9
   2  -7   1 291.684 55.6551   8
  -2  -7  -2-72.1375 50.1748   8
  -2  -7  -2 13.1616 31.9360   1
   2  -7   2 15.9659 34.6940   7
  -2  -7  -2-36.5683 44.6587   4
   2  -7   2-55.0006 44.2111   6
  -2   7  -2-30.7853 28.3133  15
   2  -7   2-14.5293 27.6773  16
   2  -7   2-22.4171 34.5063   3
  -2   7  -2-33.9893 33.9609  11
  -2   7  -2-34.5960 28.6268  10
  -2   7  -2 38.1008 33.8229   9
  -2  -7  -2-105.625 61.9191   5
  -2   7  -2 71.6765 43.6853  14
   2  -7   2 0.91057 25.8865   8
   2  -7   3 1254.33 117.884  16
  -2   7  -3 983.455 91.1583  15
  -2   7  -3 1126.41 122.150  14
   2  -7   3 1111.45 128.507   6
   2  -7   3 1020.49 143.740   3
  -2   7  -3 984.297 114.040  11
  -2  -7  -3 1317.26 135.089   5
   2  -7   3 928.762 109.121   8
  -2  -7  -3 1131.61 111.841   8
  -2  -7  -3 1110.54 116.212   4
  -2  -7  -4 10.7763 31.7771   7
   2   7   4-7.12624 36.7085  13
   2   7   4-7.55079 29.1154  12
   2   7   4 21.0812 33.8108  10
  -2  -7  -4 35.9854 31.2972   4
  -2  -7  -4 31.1522 30.3249   5
   2   7   4 46.3264 35.8417   9
  -2  -7  -4-4.09544 22.7999   8
  -2  -7  -5 730.421 90.0369   7
   2   7   5 132.256 91.0224  13
   2   7   5 220.162 100.353  12
  -2  -7  -5 686.884 97.1181   5
   2   7   5 649.352 85.7872  10
   2   7   5 597.703 87.0581   9
  -2  -7  -5 709.226 86.3007   8
  -2  -7  -5 690.863 93.0701   4
   2   7   6 19.2711 63.2931  13
   2   7   6 65.9323 62.1894  12
  -2  -7  -6 259.298 57.6983   7
   2   7   6 309.112 61.5162  10
  -2  -7  -6 266.008 64.8417   5
   2   7   6 307.143 72.8625   9
  -2  -7  -6 254.443 62.1569   4
  -2  -7  -6 344.053 64.4059   8
  -2  -7  -7 299.162 73.9871   4
  -2  -7  -7 246.408 59.4215   7
   2   7   7 29.0526 78.6836  13
   2   7   7 44.5327 87.0451  12
  -2  -7  -7 306.338 72.9034   5
   2   7   7 75.8393 55.0494   9
   2   7   8 24.4366 64.5929  13
   2   7   8 81.6793 65.4593  12
   2  -8  -3 14.3427 29.1607   7
  -2   8   3 7.27435 19.9022  12
   2  -8  -3 38.1496 32.8391   6
   2  -8  -3 34.0330 40.6883   3
   2  -8  -3-57.7024 36.3246   8
   2  -8  -2-38.4418 36.0519   7
   2  -8  -2 63.3498 45.1564   6
  -2   8   2-29.1283 44.2242  11
  -2   8   2 26.3659 33.3518  10
   2  -8  -2-5.90210 28.5440   3
  -2   8   2-38.4638 37.5203   9
   2  -8  -2 9.33215 25.6981   8
   2  -8  -1 111.441 40.4397   7
  -2   8   1 81.6308 33.2866  14
   2  -8  -1 63.1780 37.0912   6
  -2   8   1 99.9636 43.9927  11
   2  -8  -1 72.2392 28.8916   3
  -2   8   1 42.5549 33.8662  10
  -2   8   1 2.27306 29.3667   9
   2  -8  -1 119.627 44.7956   8
   2  -8   0 23.3875 33.1846   6
   2  -8   0 9.23718 26.1207   7
  -2   8   0 60.3841 31.7092  14
  -2   8   0 75.0717 43.5416  11
   2  -8   0 92.4895 49.1472   3
  -2   8   0 58.4363 43.6570  10
  -2   8   0 49.7328 29.1424   9
   2  -8   0 60.5784 36.0319   8
   2  -8   1 3.99717 27.5475   7
  -2   8  -1-77.5023 47.4150  14
   2  -8   1-36.8444 37.7008   6
   2  -8   1-2.88202 33.2093   3
  -2   8  -1-7.54409 35.5086  11
  -2   8  -1 46.8202 34.3463  10
  -2   8  -1 15.6104 32.8950   9
   2  -8   1 21.4605 24.8643   8
   2  -8   2 170.066 88.1385   7
  -2   8  -2 116.165 40.6836  14
   2  -8   2 112.301 46.2558   6
   2  -8   2 65.2474 39.9019   3
  -2   8  -2 120.398 50.2461  11
  -2   8  -2 111.755 40.6552  10
   2  -8   2 75.5667 36.6217   8
   2  -8   3 1022.77 209.666   8
  -2   8  -3 1134.00 123.680  14
   2  -8   3 1026.12 163.949   6
  -2   8  -3 1067.24 133.443  11
  -2  -8  -3 1610.11 170.664   5
  -2  -8  -3 1552.52 150.076   8
  -2  -8  -3 1610.15 156.819   4
  -2  -8  -4 29.6340 44.0479   7
  -2  -8  -4 71.2337 43.7295   4
   2   8   4 10.8888 24.4634  13
   2   8   4 10.2679 43.5134  12
   2   8   4 41.9512 41.1705  10
  -2  -8  -4 86.5804 48.4906   5
   2   8   4 54.5146 46.8338   9
  -2  -8  -4-16.1801 30.6519   8
  -2  -8  -5 17.8706 33.8867   7
   2   8   5 2.35595 42.0060  13
   2   8   5 2.48417 42.2457  12
   2   8   5 38.5285 40.5614  10
  -2  -8  -5 117.667 53.9667   5
   2   8   5 150.063 51.4441   9
  -2  -8  -5 56.1040 40.3767   4
  -2  -8  -5 43.0451 33.5851   8
  -2  -8  -6-11.2905 32.3970   4
  -2  -8  -6-12.2613 39.9499   7
   2   8   6 10.4790 31.2746  13
   2   8   6 1.30712 41.2424  12
   2   8   6-4.88785 35.0623  10
  -2  -8  -6 32.9737 37.5541   5
   2   8   6 41.8080 44.8503   9
  -2  -8  -6 33.0222 33.8697   8
  -2  -8  -7 777.618 116.680   4
  -2  -8  -7 635.716 96.0562   7
   2   8   7 123.514 109.086  13
   2   8   7 112.173 114.110  12
  -2  -8  -7 600.551 106.050   5
   2   8   7 394.693 84.6385   9
  -2  -8  -7 428.049 84.8567   8
   2   8   8-0.23343 59.0732  13
   2   8   8 44.0566 50.9396  12
  -2  -8  -8 68.3903 57.9349   5
   2  -9  -3 17.3638 40.4200   7
   2  -9  -3 25.0811 41.3871   6
  -2   9   3-60.5547 47.6631  10
   2  -9  -3-14.8497 32.5968   3
  -2   9   3 37.9605 41.0884   9
   2  -9  -3 47.2906 44.3376   8
   2  -9  -2 870.639 112.370   7
   2  -9  -2 871.372 121.467   6
   2  -9  -2 891.544 98.9054   3
  -2   9   2 772.781 109.905  11
  -2   9   2 870.202 113.563  10
  -2   9   2 941.805 118.864   9
   2  -9  -2 866.850 114.382   8
   2  -9  -1-4.36304 30.8964   7
  -2   9   1 2.42304 39.4820  14
   2  -9  -1 1.77206 38.2188   6
   2  -9  -1 74.5851 39.0821   3
  -2   9   1 19.8280 39.1037  11
  -2   9   1 28.3750 32.3825  10
  -2   9   1-39.0099 42.5910   9
   2  -9  -1-26.3351 30.1851   8
   2  -9   0 107.158 53.6339   7
  -2   9   0 66.7342 44.3877  14
   2  -9   0 88.7478 59.3721   6
   2  -9   0 33.3665 26.5413   3
  -2   9   0 64.1665 45.8464  11
  -2   9   0-2.35118 32.5275  10
  -2   9   0 75.9909 34.1671   9
   2  -9   0 56.1573 36.7083   8
   2  -9   1 95.1759 49.7841   7
  -2   9  -1 18.0268 35.9048  14
   2  -9   1 6.79251 34.8471   6
   2  -9   1 93.0902 53.7854   3
  -2   9  -1-39.8880 44.0920  11
  -2   9  -1 36.0184 43.6973  10
  -2   9  -1 14.6829 36.7617   9
   2  -9   1 45.8752 37.5381   8
  -2   9  -2 77.7902 54.9552  14
   2  -9   2 7.23377 52.5673   6
  -2   9  -2 69.8858 48.0262  11
  -2   9  -2-55.5375 62.9020  10
   2  -9   2 98.0098 84.6521   8
  -2  -9  -3 89.4456 81.2013   8
  -2  -9  -3-27.9944 91.1309   4
   2   9   3 70.2669 46.2657  10
  -2  -9  -3 167.754 86.0017   5
  -2  -9  -4-66.3150 37.3338   4
   2   9   4-44.6320 37.9682  10
  -2  -9  -4 35.3980 46.7314   8
  -2  -9  -5-3.78596 35.3219   4
  -2  -9  -5 24.0768 49.9441   7
   2   9   5 10.9146 40.4934  13
   2   9   5-25.3352 41.6479  12
   2   9   5 15.9794 33.4558  10
  -2  -9  -5-27.2901 38.1785   5
   2   9   5-17.7039 50.2947   9
  -2  -9  -5-10.1869 37.5820   8
  -2  -9  -6 69.1355 54.6602   7
   2   9   6-1.80743 57.2021  13
  -2  -9  -6 64.0839 34.4954   4
   2   9   6 3.33106 61.2130  12
   2   9   6 98.3175 39.5028  10
  -2  -9  -6 137.210 59.2962   5
   2   9   6 82.0052 54.8242   9
  -2  -9  -6 21.8490 39.5754   8
  -2  -9  -7 352.473 87.4483   4
  -2  -9  -7 287.582 72.6580   7
   2   9   7 62.4190 75.4122  13
   2   9   7 50.0925 71.8189  12
  -2  -9  -7 314.339 86.8608   5
   2   9   7 224.313 54.8810  10
   2   9   7 160.186 83.1347   9
  -2  -9  -7 340.597 81.3834   8
   2   9   8 9.23412 45.4874  13
   2   9   8 0.28729 57.7057  12
  -2  -9  -8-23.1409 53.3262   5
   2 -10  -3 19.8888 42.5680   6
  -2  10   3-38.1304 39.2187  10
  -2  10   3-33.2328 42.2473   9
   2 -10  -3 46.7146 37.3914   8
   2 -10  -2 315.733 75.5592   7
   2 -10  -2 366.403 85.9199   6
  -2  10   2 258.397 72.1632  11
  -2  10   2 320.058 78.5581  10
  -2  10   2 374.885 85.5400   9
   2 -10  -2 335.610 81.6517   8
   2 -10  -1 29.2087 42.8925   7
   2 -10  -1 32.3394 38.0040   6
   2 -10  -1-27.3076 34.3538   3
  -2  10   1 39.3287 47.3511  11
  -2  10   1 49.9208 47.6242  10
  -2  10   1-17.3092 52.2406   9
   2 -10  -1 10.7491 33.6735   8
   2 -10   0 11.1735 41.4315   7
  -2  10   0-39.4263 44.7044  14
   2 -10   0 43.0015 34.9430   6
   2 -10   0-127.860 94.9060   3
  -2  10   0-36.8057 46.3562  11
  -2  10   0-7.68668 40.0104  10
  -2  10   0-46.9924 46.2305   9
   2 -10   0 11.8335 35.2807   8
   2 -10   1 563.547 121.392   7
  -2  10  -1 551.721 98.5885  14
   2 -10   1 568.270 102.986   6
  -2  10  -1 622.927 105.059  11
  -2  10  -1 555.384 98.9989  10
  -2  10  -1 594.223 105.363   9
   2 -10   1 583.403 113.025   8
   2 -10   2 175.054 121.177   6
  -2  10  -2 98.1603 72.9696  11
   2  10   4 25.2423 35.8938  10
  -2 -10  -4 68.6755 92.3653   5
  -2 -10  -4 91.3680 73.6195   8
  -2 -10  -5 27.2444 61.7291   4
   2  10   5 115.064 49.5750  10
  -2 -10  -5 144.028 71.3973   5
  -2 -10  -5 53.3508 61.8022   8
  -2 -10  -6-39.5061 59.0395   4
  -2 -10  -6-6.87550 51.3146   7
   2  10   6 21.4795 33.1886  13
   2  10   6-7.52572 43.5756  12
   2  10   6 3.27601 51.4975  10
  -2 -10  -6 2.00980 42.5581   5
   2  10   6 2.90869 53.6545   9
  -2 -10  -6 11.6043 37.7628   8
   2 -11  -3 90.4094 53.7809   6
   2 -11  -3 64.3932 55.9433   7
  -2  11   3-2.78056 36.9412  10
  -2  11   3 74.0575 41.4392   9
   2 -11  -3 93.1844 52.3185   8
   2 -11  -2-4.21443 38.2272   7
   2 -11  -2-19.9579 53.5660   6
  -2  11   2 10.8198 48.3303  11
  -2  11   2 20.2507 44.4280  10
  -2  11   2 32.6832 44.8871   9
   2 -11  -2 41.6545 33.4931   8
   2 -11  -1 106.319 52.3398   7
   2 -11  -1 149.802 65.3135   6
  -2  11   1 126.965 57.8523  11
  -2  11   1 187.192 81.7580  10
  -2  11   1 23.0869 39.2260   9
   2 -11  -1 86.6288 49.6615   8
   2 -11   0 26.4970 54.4013   7
   2 -11   0 44.7172 69.0633   6
  -2  11   0-26.3665 57.6505  11
  -2  11   0-13.6276 50.8759  10
  -2  11   0-48.9922 40.5543   9
   2 -11   0 56.1218 50.4445   8
   2 -11   1 51.1998 122.435   6
  -2  11  -1-18.4881 52.3869  11
   3   0   1 0.87524 19.2837  16
  -3   0  -1-43.7009 34.8439  15
  -3   0  -1 5.03223 17.7454   4
  -3   0  -1-11.1089 21.0240   1
   3   0   1 2.01846 26.2810   2
   3   0   1 4.32002 18.7430   3
   3   0   2 1171.40 99.5875  16
  -3   0  -2 1232.99 101.526  15
   3   0   2 1164.63 95.9624   2
  -3   0  -2 1349.03 103.036  14
  -3   0  -2 1126.58 96.1780   1
   3   0   2 1160.64 66.6850   6
   3   0   2 1105.24 93.8996  13
   3   0   2 1144.33 91.6348   3
  -3   0  -2 1071.40 67.8594   5
  -3   0  -2 1279.45 93.8671   4
  -3   0  -3-21.0272 23.6282  14
  -3   0  -3 10.4905 28.2583  15
  -3   0  -3 25.4568 26.1422   4
   3   0   3 26.1934 20.5942  13
   3   0   3-37.9158 18.1223   6
   3   0   3 9.97105 22.0892   2
   3   0   3-9.32696 23.1023   3
  -3   0  -3-19.8450 16.3896   5
  -3   0  -3-13.0586 21.3678   1
   3   0   3 14.6611 22.3144  16
  -3   0  -4 38.1154 32.6545   1
  -3   0  -4 41.3421 27.0169   4
  -3   0  -4 46.4081 28.4095  14
   3   0   4 72.6482 34.1217  16
   3   0   4 51.9762 22.5142   6
   3   0   4 35.7736 25.5088  13
  -3   0  -4 29.1196 25.9585  15
   3   0   4 11.2231 26.7712   2
   3   0   4 59.1104 33.9478   3
  -3   0  -4 34.0833 14.5309   5
   3   0   5 25.3810 29.2846  16
  -3   0  -5 25.5462 24.1302   4
  -3   0  -5 95.0775 44.0637  15
  -3   0  -5-38.5951 30.2526  14
   3   0   5 18.2367 23.6738  13
   3   0   5-3.42805 29.0871   2
   3   0   5-63.7667 25.1917  12
  -3   0  -5-1.14516 27.4738   1
   3   0   5-61.9660 35.1940   3
   3   0   6 2078.72 147.474  16
  -3   0  -6 2153.09 154.025  15
  -3   0  -6 2069.03 137.078  14
   3   0   6 1760.77 173.503   3
   3   0   6 2186.95 149.026  13
   3   0   6 1886.38 119.547  12
  -3   0  -6 1979.62 147.384   4
   3   0   6 2126.84 145.417   2
  -3   0  -6 2062.10 154.545   1
   3   0   7 114.176 61.3264   2
  -3   0  -7 42.6061 42.8556  14
  -3   0  -7 77.3917 45.6530  15
   3   0   7 48.5947 40.4243  13
   3   0   7-24.9368 49.3073  12
   3   0   7-4.24374 33.6552  16
  -3   0  -7-14.0963 28.3742   1
   3  -1   1 54.7641 29.6753  16
  -3   1  -1-15.8338 24.9671  15
  -3   1  -1 15.2134 18.7223   4
  -3   1  -1 50.2425 26.0584  14
   3  -1   1-8.70326 15.2463   6
   3  -1   1 17.4526 20.5133   2
   3  -1   1 12.0631 19.8463   3
  -3   1  -1 11.3490 9.87825   5
  -3   1  -1 16.2638 23.6851   1
   3   1   2 384.377 72.4816  16
   3   1   2 478.319 76.9025   2
   3  -1   2 253.384 48.4238  16
  -3  -1  -2 388.439 64.4612   1
  -3   1  -2 341.034 58.8068  15
  -3  -1  -2 470.886 65.5692  15
  -3   1  -2 298.152 47.9316   4
  -3  -1  -2 400.306 65.2416   4
  -3   1  -2 321.288 55.5221  14
   3  -1   2 384.373 45.3792   6
   3  -1   2 322.262 49.5635  13
   3   1   2 342.714 58.2553  13
  -3   1  -2 346.960 57.0499   1
  -3   1  -2 292.034 28.6929   5
   3  -1   2 343.606 55.8797   2
   3  -1   2 330.195 49.3035   3
   3  -1   3 3056.32 161.251   2
   3  -1   3 3233.67 166.723  16
   3   1   3 3332.95 168.084  16
   3   1   3 3308.87 164.285   2
  -3   1  -3 3270.02 168.599  15
  -3  -1  -3 3305.57 167.925  15
  -3  -1  -3 3371.22 154.068  14
  -3   1  -3 3167.72 168.153   1
  -3   1  -3 3220.19 161.481  14
  -3  -1  -3 3077.02 165.593   1
   3   1   3 3247.28 93.0710   6
   3  -1   3 3347.42 130.409   6
   3  -1   3 3380.85 157.639  13
   3   1   3 3173.27 162.597  13
   3  -1   3 3275.30 160.885   3
   3   1   3 3250.53 146.692   3
  -3   1  -3 3278.76 100.596   5
  -3  -1  -3 3238.65 133.788   5
  -3   1  -3 3213.46 147.654   4
  -3  -1  -3 3109.70 161.273   4
   3   1   4 393.149 62.8057  16
  -3   1  -4 407.842 56.3173   4
  -3   1  -4 417.363 68.7195  15
  -3  -1  -4 342.993 60.3096  15
  -3  -1  -4 447.418 66.1054   4
   3  -1   4 476.739 63.3102  13
  -3   1  -4 384.669 57.6001  14
   3  -1   4 492.669 54.5759   6
  -3  -1  -4 395.457 66.4980   1
  -3  -1  -4 412.863 54.7195  14
   3   1   4 527.765 72.5836  13
   3  -1   4 395.770 64.9766  16
  -3   1  -4 484.749 54.5840  11
   3  -1   4 384.016 61.4417   2
  -3  -1  -4 413.579 50.1534   5
   3   1   4 455.915 65.4847   2
   3  -1   4 442.232 64.4959   3
   3   1   4 440.026 57.8030   3
  -3   1  -4 325.494 59.8528   1
   3   1   5 230.983 58.1357  16
  -3   1  -5 266.359 51.2108   4
  -3  -1  -5 217.711 47.6640   4
  -3   1  -5 254.675 60.3305  15
  -3  -1  -5 254.704 57.8314  15
  -3   1  -5 267.697 52.6759  14
  -3  -1  -5 245.423 48.3105  14
  -3   1  -5 199.310 50.9073   1
   3  -1   5 223.510 48.5662  13
   3   1   5 171.941 49.0841  13
   3  -1   5 333.372 59.8956   2
   3  -1   5 192.750 42.9252  16
   3   1   5 202.370 40.4093  12
   3   1   5 238.568 47.8325   3
   3  -1   5 241.442 51.9107   3
  -3   1  -5 272.886 42.8003  11
  -3  -1  -5 211.608 48.8967   1
  -3  -1  -5 208.711 39.8075   5
   3   1   5 271.592 99.4370   2
   3   1   6 708.388 88.6531  16
   3  -1   6 625.545 87.6910  16
  -3  -1  -6 602.029 87.8606   1
  -3   1  -6 578.789 72.6128  15
  -3  -1  -6 618.980 88.0496  15
  -3  -1  -6 640.308 76.0764  14
   3  -1   6 559.465 78.4895   2
   3  -1   6 637.353 80.6050  13
   3   1   6 612.656 82.3326  13
   3   1   6 630.142 79.7207   2
   3   1   6 611.896 69.9245  12
   3  -1   6 445.329 77.6233   3
  -3   1  -6 633.975 81.6388  14
  -3   1  -6 540.857 54.6713  11
  -3   1  -6 593.436 86.1107   1
  -3  -1  -6 587.262 85.5552   4
   3  -1   7 80.8176 69.4847  16
   3   1   7 57.4880 36.0444  16
   3  -1   7-61.9228 57.1062   2
  -3   1  -7 21.3906 40.4399  15
  -3  -1  -7 105.124 47.5031  15
   3   1   7 22.3748 37.4876   2
  -3   1  -7 93.5824 62.9585  14
  -3  -1  -7 70.5578 40.9148  14
   3  -1   7-52.6160 48.8575  13
   3   1   7 18.3330 35.1487  13
  -3  -1  -7 25.1577 39.7020   4
   3   1   7 81.7330 45.8649  12
  -3   1  -7 40.1167 30.8713   1
  -3  -1  -7 61.3649 39.4207   1
   3   1   8 0.47826 54.2749  16
  -3  -1  -8-14.5373 41.4161  15
  -3  -1  -8 51.0978 41.9490  14
   3   1   8 26.1952 58.7749  13
   3  -2   0 454.891 71.1602   3
  -3   2  -1 241.651 45.2479   1
   3  -2   1 217.513 48.0862  16
   3  -2   1 245.033 27.9387   7
  -3   2  -1 270.020 52.5232  15
  -3   2  -1 294.099 41.7061   4
  -3   2  -1 219.435 46.3501  14
   3  -2   1 234.986 40.3695   6
  -3   2  -1 225.370 21.2824   5
   3  -2   1 219.143 44.2984   2
   3  -2   1 254.431 46.7241   3
  -3  -2  -2 44.8992 13.5714   8
  -3   2  -2 49.7899 27.6755   1
   3  -2   2 37.6939 9.14636   7
  -3   2  -2 40.1374 34.4945  15
  -3   2  -2 46.0589 20.0854   4
  -3  -2  -2 68.5495 32.0367  15
  -3  -2  -2 24.4137 25.5300   4
   3  -2   2 18.2559 20.0166  16
  -3   2  -2 29.5352 23.1856  14
  -3  -2  -2 60.4070 30.2657   1
   3  -2   2 23.4774 13.0982  13
   3   2   2-4.80280 24.5459  13
   3  -2   2 48.2555 27.0149   6
   3   2   2 49.3375 31.5047  16
   3   2   2 38.4840 13.8351   6
   3  -2   2 36.2545 22.2994   2
   3  -2   2 63.6862 26.8402   3
   3   2   2 108.305 34.7465   2
   3   2   2 35.2441 22.1139   3
  -3  -2  -2 4.97028 16.2853   5
   3  -2   3 1955.22 133.533  16
   3   2   3 1713.31 125.513  16
   3   2   3 1960.94 129.330   2
  -3   2  -3 2037.79 135.521  15
  -3  -2  -3 2121.42 137.166  15
  -3   2  -3 1832.74 132.475   1
  -3   2  -3 1876.91 129.868  14
  -3  -2  -3 1832.42 129.534   1
   3  -2   3 1950.10 111.958   6
   3  -2   3 1843.81 111.093  13
   3   2   3 1919.00 133.134  13
   3  -2   3 1981.37 132.598   3
   3   2   3 1948.69 108.186   3
  -3   2  -3 1933.10 112.536  11
  -3  -2  -3 2066.22 119.662   5
  -3   2  -3 1860.38 110.330   4
  -3  -2  -3 1906.65 132.461   4
   3  -2   3 1901.78 128.614   2
   3  -2   4 1379.39 116.541  16
   3   2   4 1399.38 114.847  16
  -3   2  -4 1328.14 115.525   1
  -3   2  -4 1387.68 115.553  15
  -3  -2  -4 1303.50 111.352  15
  -3  -2  -4 1364.99 113.642   1
  -3   2  -4 1297.70 111.761  14
  -3  -2  -4 1453.58 98.5257  14
   3  -2   4 1347.05 93.1276   6
   3  -2   4 1228.12 108.511   3
   3  -2   4 1300.29 97.0609  13
   3   2   4 1293.20 91.8512   3
   3   2   4 1306.00 115.028  13
   3   2   4 1202.41 96.6429  12
  -3   2  -4 1255.69 89.5109  11
  -3  -2  -4 1342.86 97.8370   5
  -3   2  -4 1350.90 101.647   4
   3  -2   4 1366.43 113.194   2
  -3  -2  -4 1312.41 113.767   4
   3   2   4 1324.05 105.015   2
  -3   2  -5-20.1852 25.1146   4
   3  -2   5-27.0965 34.2940  16
   3   2   5 36.2224 22.9166  16
  -3   2  -5 4.27673 26.4223   1
  -3   2  -5-4.95173 28.7480  15
  -3  -2  -5-8.10092 24.8698   4
  -3  -2  -5-18.0120 32.7937  15
  -3   2  -5-32.1595 33.1717  14
  -3  -2  -5-37.0306 25.5243  14
   3  -2   5-4.69169 25.0826   2
   3  -2   5-37.4271 30.0026  13
   3   2   5-27.1412 25.6216  13
   3   2   5 61.9033 31.9238  12
   3   2   5-48.1993 35.4288   2
   3   2   5 4.41683 18.4747   3
   3  -2   5-28.1532 31.6361   3
  -3   2  -5 5.40784 17.8329  11
  -3  -2  -5-5.44296 23.7749   1
  -3  -2  -5 27.3798 27.4731   5
   3  -2   6 125.762 49.8172  16
   3   2   6 80.6729 39.0610  16
  -3  -2  -6 46.6568 31.0045   4
  -3  -2  -6 81.4621 40.0764   1
  -3   2  -6 30.7027 35.1267  15
  -3  -2  -6 72.7305 35.9412  15
   3  -2   6 139.854 50.2701   2
  -3   2  -6 19.0598 34.1967  14
  -3  -2  -6 83.0185 27.7135  14
   3  -2   6 72.9660 30.9075  13
   3   2   6 23.4359 28.1048  13
   3   2   6 80.3952 36.6995   2
   3   2   6 61.4702 30.3408  12
  -3   2  -6 82.0622 31.1037  11
  -3  -2  -6 101.832 45.2013   5
  -3   2  -6 99.7301 45.3018   1
  -3  -2  -7 85.4763 46.8444   4
  -3   2  -7 33.1168 68.3139  15
  -3  -2  -7 49.6346 38.8359  15
   3   2   7 57.2706 40.0056   2
  -3   2  -7-42.8499 64.6923  14
  -3  -2  -7 31.0699 29.5821  14
   3   2   7-39.3970 41.5005  16
   3  -2   7 17.9814 104.000  13
   3   2   7 86.1771 36.2899  13
   3   2   7 56.9960 32.4344  12
  -3  -2  -7 38.7109 28.1698   1
   3   2   8 9.97915 31.1477  16
   3   2   8-98.8350 102.415   2
  -3  -2  -8 80.0952 36.5125  15
  -3  -2  -8 54.0785 32.1503  14
   3   2   8 65.8847 51.5575  13
   3   2   8-8.72763 69.9056  12
   3  -3   0 836.854 70.2864   7
  -3   3   0 798.622 91.7696  14
   3  -3   0 917.670 90.4354   6
  -3   3   0 739.872 83.0331   1
   3  -3   0 775.797 84.2961   3
   3  -3   0 787.442 83.3228   2
  -3   3   0 820.593 65.1070   4
   3  -3   1 70.6441 28.5760  16
  -3   3  -1 58.4911 27.8273  15
  -3   3  -1 68.1312 22.1905   4
   3  -3   1 35.1790 14.9457   7
  -3   3  -1 73.1386 34.9552  14
   3  -3   1 47.2803 25.0796   6
  -3   3  -1 100.298 36.5403   1
   3  -3   1 66.8084 34.3747   2
   3  -3   1 51.9831 28.3303   3
   3  -3   2 406.547 37.5705   7
   3  -3   2 459.663 66.0188  16
  -3  -3  -2 317.358 52.7787   4
  -3   3  -2 409.419 66.4030  14
   3  -3   2 493.167 62.3815   6
   3   3   2 289.200 48.7041  13
  -3   3  -2 429.374 62.7651  11
  -3   3  -2 391.718 61.0783   1
   3  -3   2 473.867 65.4772   2
  -3   3  -2 423.209 65.4681  15
   3  -3   2 403.788 63.1512   3
  -3  -3  -2 357.391 52.8528   1
   3   3   2 259.030 45.8193   2
   3   3   2 283.089 37.1879   3
  -3  -3  -2 288.796 47.4563   5
  -3  -3  -2 307.697 37.3930   8
  -3   3  -2 396.050 47.1085   4
   3  -3   3 847.950 89.4003  16
   3   3   3 888.420 91.0211  16
   3   3   3 939.275 90.4165   2
  -3   3  -3 983.477 95.6345   1
  -3   3  -3 846.371 87.0904  15
  -3  -3  -3 878.439 87.7657  15
  -3   3  -3 905.412 95.6421  14
  -3  -3  -3 841.859 87.3603   1
   3  -3   3 929.211 87.0621   6
   3  -3   3 945.482 75.3965  13
   3   3   3 936.946 96.7480  13
   3  -3   3 906.334 98.7926   3
   3   3   3 836.441 67.2531   3
  -3   3  -3 907.954 82.7207  11
  -3  -3  -3 876.835 86.7579   5
  -3  -3  -3 965.368 64.1722   8
  -3   3  -3 878.978 74.8464   4
   3  -3   3 886.893 90.0306   2
  -3  -3  -3 893.389 97.2854   4
   3  -3   4 441.051 66.6469  16
  -3   3  -4 485.287 69.3414  15
  -3  -3  -4 547.250 76.4814  15
  -3  -3  -4 511.379 76.8574   4
  -3   3  -4 546.847 80.0617  14
  -3   3  -4 469.309 74.4286   1
   3   3   4 543.707 74.2824  16
   3   3   4 542.527 55.8655   3
   3  -3   4 509.809 59.3745  13
  -3  -3  -4 553.370 75.9463   1
   3  -3   4 496.201 64.0047   6
   3   3   4 524.617 74.5293  13
   3  -3   4 490.351 70.7575   2
   3   3   4 214.945 71.1334  12
  -3   3  -4 564.353 67.5028  11
  -3  -3  -4 597.556 75.5855   5
   3  -3   4 533.281 77.3853   3
   3   3   4 493.682 72.2506   2
   3  -3   5 1758.27 136.944  16
   3   3   5 1760.88 128.930  16
  -3  -3  -5 1640.78 130.637   1
  -3   3  -5 1647.50 133.198  15
  -3  -3  -5 1751.12 133.320  15
  -3   3  -5 1681.75 137.875  14
  -3  -3  -5 1919.48 122.888  14
   3  -3   5 1664.76 132.908   3
   3  -3   5 1638.23 109.473  13
   3   3   5 1715.36 136.410  13
  -3   3  -5 1722.67 121.021  11
  -3  -3  -5 1688.01 122.827   5
   3  -3   5 1705.49 133.292   2
  -3  -3  -5 1656.44 135.660   4
  -3   3  -5 1683.89 137.442   1
   3   3   5 1734.33 129.428   2
   3  -3   6 50.2882 53.0158  16
   3   3   6 7.44419 30.0951  16
  -3  -3  -6 93.0146 48.8161   4
  -3  -3  -6 60.5941 39.0971   1
   3  -3   6 34.2713 54.7603   2
  -3   3  -6 23.9023 39.8886  15
  -3  -3  -6 79.2770 50.3176  15
  -3   3  -6 88.7457 48.3272  14
   3  -3   6 48.1581 39.0480  13
   3   3   6 16.3427 27.6992  13
   3   3   6-11.2091 30.3395   2
   3  -3   6 51.1791 49.9129   3
   3   3   6 66.8194 36.0615  12
  -3   3  -6-10.8228 37.1587   1
  -3   3  -6 12.5514 28.0091  11
  -3  -3  -6 45.1807 30.3925   5
   3   3   7 3146.96 192.327  16
  -3  -3  -7 2906.93 187.711  15
   3   3   7 2793.82 187.878  13
   3   3   7 2954.22 183.107  12
  -3  -3  -7 2743.87 190.188   5
   3   3   7 3080.98 191.504   2
  -3  -3  -7 2652.47 187.057   4
  -3  -3  -7 2764.08 189.241   1
  -3  -3  -8 438.721 93.2607   4
   3   3   8 339.860 75.5013  16
   3   3   8 70.9471 70.8993   2
  -3  -3  -8 387.482 80.1126  15
   3   3   8 48.7344 81.7290  13
   3   3   8 173.652 69.5068  12
   3  -4   0 1128.62 93.0951   2
   3  -4   0 1117.90 80.6605   7
  -3   4   0 1135.53 110.025  14
  -3   4   0 1212.64 101.377   1
   3  -4   0 1141.69 102.129   6
   3  -4   0 1101.56 105.642   3
  -3   4   0 1151.68 67.1813   4
   3  -4   1 113.461 36.9650  16
  -3   4  -1 121.377 25.0861   4
  -3   4  -1 127.364 40.4033  15
   3  -4   1 144.790 31.1076   7
  -3   4  -1 118.951 44.6547  14
   3  -4   1 170.190 42.0866   6
  -3   4  -1 107.654 37.1007  11
   3  -4   1 130.220 39.1416   2
  -3   4  -1 129.085 34.6732   1
  -3   4  -1 126.969 30.0730   9
   3  -4   1 122.423 43.5126   3
  -3   4  -2 50.1566 19.4639   4
  -3   4  -2 95.4854 39.4962   1
   3  -4   2 33.4089 20.9558  16
   3  -4   2 87.8689 27.3632   7
  -3   4  -2 85.1314 37.8064  15
  -3   4  -2 87.8527 33.2145  14
   3  -4   2 72.2188 37.4401   6
   3  -4   2 35.7025 26.5428   2
  -3   4  -2 66.7910 29.8520  11
   3  -4   2 100.355 41.0921   3
  -3   4  -2 54.7662 21.9041   9
  -3  -4  -3 77.5723 28.2590   8
  -3   4  -3 50.3145 24.6410  15
   3  -4   3 80.6069 28.6176  16
  -3  -4  -3 97.5105 45.4712   4
  -3   4  -3 55.8037 28.1895  14
   3  -4   3 139.446 35.4397  13
   3   4   3 15.5317 34.9339  13
   3  -4   3 77.1073 32.6424   6
  -3  -4  -3 97.6813 36.8731   1
   3  -4   3 65.1267 36.0638   2
  -3   4  -3 51.3850 29.2021   1
  -3   4  -3 44.8414 32.5450  11
   3  -4   3 60.9098 36.8946   3
   3   4   3 40.4681 35.9489   2
  -3  -4  -3 108.042 42.9335   5
   3  -4   4 360.887 64.2457  16
  -3   4  -4 319.747 61.8689  15
  -3  -4  -4 385.854 76.5863  15
  -3   4  -4 388.492 68.9419  14
   3  -4   4 409.790 69.5493   2
   3  -4   4 439.300 53.4368  13
   3  -4   4 389.888 62.3894   6
  -3   4  -4 410.535 67.9705  11
  -3  -4  -4 1254.59 125.584   5
   3  -4   4 374.199 66.7125   3
   3   4   4 456.865 70.6092   2
  -3  -4  -4 1164.70 127.570   4
  -3   4  -4 426.345 67.2219   1
   3  -4   5 72.8404 42.8427  16
   3   4   5 84.5443 35.5166  16
  -3   4  -5 104.117 47.7501  15
  -3  -4  -5 111.046 47.9324   4
   3  -4   5 82.4122 56.1855   2
  -3  -4  -5 108.371 51.6779  15
  -3   4  -5 101.601 54.0044  14
   3  -4   5 78.5246 34.7072  13
   3   4   5 4.41806 37.5916  13
   3   4   5-12.9973 27.3447  12
   3   4   5 60.4968 35.4150   2
   3  -4   5 156.485 59.9053   3
  -3   4  -5 102.104 44.4924  11
  -3   4  -5 122.430 50.7277   1
  -3  -4  -5 26.8613 31.8057   1
  -3  -4  -5 83.6108 35.2802   5
   3  -4   6 120.733 61.2548  16
  -3  -4  -6 324.265 63.7275   1
   3   4   6 349.415 64.4052  16
  -3  -4  -6 263.725 59.8221   4
  -3   4  -6 406.897 88.1866  15
  -3  -4  -6 293.171 67.9259  15
  -3   4  -6 473.972 107.014  14
   3   4   6 342.820 63.7009   2
   3  -4   6 259.895 122.960  13
   3   4   6 21.7050 67.8499  13
   3   4   6 56.1173 66.1931  12
  -3   4  -6 353.606 77.1873  11
  -3  -4  -6 312.510 60.7934   5
   3   4   7 314.256 67.8867  16
  -3  -4  -7 329.913 75.3235   4
  -3  -4  -7 296.372 68.2640  15
   3   4   7 320.117 66.2975   2
   3   4   7 34.9755 76.5114  13
   3   4   7 27.8266 64.5788  12
  -3  -4  -7 369.900 79.1591   1
  -3  -4  -7 285.721 64.3811   5
   3   4   8 637.230 98.0431  16
  -3  -4  -8 677.986 106.561  15
   3   4   8 94.3380 110.103  13
   3   4   8 72.5860 90.9448  12
  -3  -4  -8 794.012 119.577   4
   3  -5  -1 352.148 58.2075   7
  -3   5   1 271.322 65.7770  14
   3  -5  -1 384.393 78.9804   6
  -3   5   1 321.712 56.6543   1
   3  -5  -1 373.390 63.2603   2
   3  -5  -1 353.184 75.2078   3
   3  -5   0 334.804 52.2785   7
  -3   5   0 292.471 58.9517  14
   3  -5   0 404.950 67.2889   6
   3  -5   0 283.828 46.0195   2
   3  -5   0 373.373 69.7283   3
  -3   5   0 324.989 56.1379   1
   3  -5   1 55.3924 27.9079  16
  -3   5  -1 50.9391 33.8480   1
   3  -5   1 63.7750 28.0684   7
  -3   5  -1 81.7443 36.0161  15
  -3   5  -1 49.1414 35.4443  14
   3  -5   1 89.0551 39.8294   6
  -3   5  -1 48.7014 33.0906  11
   3  -5   1-4.58758 28.6245   2
   3  -5   1 40.9143 32.4515   3
  -3   5  -1 72.4104 29.9376   9
  -3   5  -2 3216.87 167.986   1
   3  -5   2 2978.75 162.590  16
   3  -5   2 3223.56 141.829   7
  -3   5  -2 3114.50 164.707  15
  -3   5  -2 3237.83 186.836  14
   3  -5   2 3195.91 180.852   6
   3  -5   2 3002.06 184.413   3
  -3   5  -2 3023.96 174.235  11
  -3   5  -2 3223.19 148.681   9
   3  -5   2 2960.90 156.177   2
  -3  -5  -3 135.015 30.8321   8
  -3   5  -3 124.319 44.6716   1
  -3  -5  -3 149.367 48.5383   1
  -3   5  -3 115.164 37.1077  15
  -3  -5  -3 57.1387 29.7680   4
  -3   5  -3 98.8806 31.6714  14
   3  -5   3 121.447 38.3488   2
   3   5   3-1.13854 29.8899  13
   3  -5   3 168.706 48.6595   6
  -3   5  -3 111.130 39.9294  11
   3  -5   3 160.922 56.3091   3
   3  -5   3 62.4608 31.5939  16
   3   5   3 104.690 37.1765   2
  -3  -5  -3 86.7767 37.3529   5
   3  -5   4 46.5098 25.8445  16
  -3   5  -4 84.9714 45.3708  15
  -3  -5  -4 5.26773 34.3834   4
   3  -5   4 43.8046 41.6475   2
  -3  -5  -4-55.6451 41.5440   1
  -3   5  -4-33.8190 43.9222  14
   3  -5   4 26.4323 31.6008   6
   3   5   4 12.1151 36.8899  13
  -3   5  -4 26.9901 36.8205  11
   3  -5   4 16.0591 28.4063   3
   3   5   4 61.5964 32.5868   2
  -3   5  -4-4.66139 24.7812   1
  -3  -5  -4 14.1397 26.8330   5
  -3  -5  -5 822.139 95.3785   1
   3   5   5 187.380 90.3206  16
   3  -5   5 657.110 103.129  16
  -3  -5  -5 757.104 97.5489  15
  -3   5  -5 783.394 106.018  15
  -3  -5  -5 688.975 96.7004   4
  -3   5  -5 784.305 108.714  14
   3   5   5 115.172 93.1770  13
   3   5   5 143.794 94.4204  12
   3  -5   5 625.560 102.269   3
   3   5   5 652.851 81.7042   2
  -3   5  -5 696.754 97.1727  11
  -3  -5  -5 709.577 93.0704   5
  -3  -5  -6 2898.65 181.548  15
  -3  -5  -6 2854.63 184.525   5
   3   5   6 2852.63 168.196   2
  -3  -5  -6 2952.29 198.064   4
  -3  -5  -6 2944.57 180.376   1
   3   5   7 92.3562 45.9658  16
  -3  -5  -7 26.6022 41.9262  15
   3   5   7 40.4031 42.0591   2
   3   5   7 3.45167 32.9009  13
   3   5   7 4.85314 32.5953  12
  -3  -5  -7 29.1669 30.5378   1
  -3  -5  -7 20.4997 34.1960   5
  -3  -5  -7 67.2400 46.7640   4
  -3  -5  -8 86.6470 50.0495   4
   3   5   8-11.6054 39.9604  16
  -3  -5  -8 40.0985 62.3006  15
   3   5   8 7.35494 64.9043  13
   3   5   8 38.4917 50.9729  12
  -3  -5  -8 27.9373 46.8710   5
   3   5   9-2.77093 57.0338  13
   3  -6  -1 81.3429 39.3686   7
  -3   6   1 9.47516 35.2959  14
   3  -6  -1 72.0085 41.8885   6
   3  -6  -1 79.2611 31.5858   2
  -3   6   1 86.7073 30.3919   1
   3  -6  -1 14.3711 32.2052   3
  -3   6   0 216.096 46.4909   1
   3  -6   0 289.396 51.9260   7
  -3   6   0 215.569 58.6159  14
   3  -6   0 275.055 63.3668   6
   3  -6   0 264.858 51.9975   2
  -3   6   0 294.884 63.1750  11
  -3   6   0 294.688 57.7910   9
   3  -6   0 267.507 61.9630   3
  -3   6  -1 920.823 91.9865   1
   3  -6   1 871.005 92.7055  16
   3  -6   1 936.005 87.4762   7
  -3   6  -1 960.401 96.3936  15
  -3   6  -1 944.039 108.000  14
   3  -6   1 988.901 109.127   6
   3  -6   1 869.664 102.588   3
  -3   6  -1 932.771 109.109  11
  -3   6  -1 905.572 85.4505   9
   3  -6   1 896.563 87.1313   2
   3  -6   2 1223.70 107.105  16
   3  -6   2 1307.95 104.585   7
  -3   6  -2 1220.00 106.803  15
  -3   6  -2 1206.99 118.488  14
   3  -6   2 1426.47 131.357   6
   3  -6   2 1269.10 124.844   3
  -3   6  -2 1212.39 122.827  11
  -3   6  -2 1238.14 106.925  10
  -3   6  -2 1352.52 109.625   9
   3  -6   2 966.192 104.477   8
   3  -6   2 1269.58 106.912   2
  -3   6  -2 1298.53 111.864   1
  -3  -6  -3 23.5201 18.1155   8
   3  -6   3 73.1626 33.7537  16
  -3   6  -3 35.7525 31.6208  15
   3  -6   3 77.7201 43.6471   2
  -3  -6  -3 74.6129 45.5091   4
  -3   6  -3 14.6918 30.2372  14
   3  -6   3 66.3541 38.1031   6
  -3   6  -3 12.4257 31.4327  11
   3  -6   3 52.9620 41.0163   3
  -3   6  -3 62.2975 39.7853   1
   3   6   3-75.0068 54.3685   2
  -3  -6  -3 71.2821 44.2652   5
  -3  -6  -4 619.627 96.3697   1
  -3   6  -4 522.775 76.8386  15
  -3  -6  -4 465.418 83.6314   4
  -3   6  -4 526.873 90.6975  14
   3  -6   4 461.591 91.5134   6
   3   6   4 102.301 89.4971  13
   3  -6   4 402.514 75.4125   3
  -3   6  -4 504.722 87.9275  11
   3   6   4 431.654 67.4635   2
   3  -6   4 461.530 76.3646  16
  -3  -6  -4 542.760 89.5688   5
   3  -6   5 157.168 91.0533  16
  -3   6  -5 120.296 51.6684  15
  -3  -6  -5 165.260 54.6513   4
  -3   6  -5 108.227 51.5556  14
  -3  -6  -5 240.848 66.4697   1
   3   6   5 37.0601 64.6250  13
   3   6   5 148.738 47.2876   2
   3  -6   5 21.2159 75.1175   3
   3   6   5 24.1784 37.9360  12
  -3   6  -5 179.185 74.6428  11
  -3  -6  -5 266.143 71.1877   5
   3   6   6 2.03079 51.9851  16
  -3  -6  -6 146.480 57.7387   4
  -3  -6  -6 163.731 49.7954  15
   3   6   6 192.784 58.0819   2
   3   6   6-0.17831 63.0116  13
   3   6   6 65.1927 53.0623  12
  -3  -6  -6 154.368 52.0688   5
  -3  -6  -6 210.596 56.9444   1
  -3  -6  -7-40.5573 56.9688   4
  -3  -6  -7 29.7870 40.0278  15
   3   6   7-6.80088 49.1818  13
  -3  -6  -7-54.1821 64.8949   1
   3   6   7 11.6612 37.2316  12
  -3  -6  -7 18.9568 38.1924   5
  -3  -6  -8 91.4007 55.1640   4
  -3  -6  -8 58.5931 67.7038  15
   3   6   8-88.7514 54.8491  13
   3   6   8-12.3557 54.5599  12
  -3  -6  -8-70.6282 51.0738   5
   3   6   9 8.61921 57.7092  13
   3  -7  -1 462.156 78.1554   7
  -3   7   1 431.214 84.2435  14
   3  -7  -1 441.520 89.8636   6
   3  -7  -1 440.436 81.0465   3
   3  -7   0 55.5647 38.9725   7
  -3   7   0 75.5332 41.8671  14
   3  -7   0 20.1682 33.1684   6
  -3   7   0 65.9837 35.9968  11
   3  -7   0 24.6264 38.6793   3
  -3   7   0 27.6244 28.3663   9
   3  -7   1 301.224 54.7621   7
   3  -7   1 358.961 65.7901   2
  -3   7  -1 347.203 71.5497  14
   3  -7   1 249.789 69.9489   6
  -3   7  -1 283.685 71.2690  11
   3  -7   1 277.117 65.1291   3
  -3   7  -1 188.527 46.7173  10
  -3   7  -1 329.780 61.7386   9
   3  -7   1 260.865 57.7106   8
   3  -7   2 800.751 94.1659  16
  -3   7  -2 812.093 94.1353  15
   3  -7   2 529.269 99.4380   2
  -3   7  -2 669.243 92.9077  14
   3  -7   2 641.200 103.975   6
   3  -7   2 783.524 101.997   3
  -3   7  -2 769.887 102.311  11
  -3   7  -2 782.343 97.7747  10
   3  -7   2 728.349 100.867   8
   3  -7   3 942.096 107.931  16
  -3   7  -3 883.764 101.594  15
  -3   7  -3 789.432 107.960  14
   3  -7   3 806.708 111.619   3
   3  -7   3 724.609 104.489   6
  -3   7  -3 787.991 106.300  11
   3  -7   4 465.493 99.8069  16
  -3   7  -4 589.244 89.1670  15
  -3  -7  -4 882.746 129.381   4
  -3   7  -4 786.223 115.473  14
   3  -7   4 725.615 127.227   6
   3  -7   4 833.370 128.400   3
  -3   7  -4 812.056 118.524  11
  -3  -7  -4 856.724 118.845   5
  -3  -7  -5-35.2643 43.9999   4
   3   7   5 90.5011 69.8580  13
  -3  -7  -5 41.2306 48.4671   5
  -3  -7  -6 74.9702 49.2308   4
   3   7   6 40.0597 58.0524  13
   3   7   6 25.0227 56.1376  12
  -3  -7  -6-17.3866 43.0563   5
  -3  -7  -7 88.0252 54.7725   4
   3   7   7 3.33202 78.7687  13
   3   7   7 41.2379 68.7942  12
  -3  -7  -7 162.293 73.0782   5
  -3  -7  -8 14.8016 48.9780   4
   3   7   8 32.1038 57.4992  13
   3   7   8-23.5806 64.3103  12
  -3  -7  -8 58.4492 49.4285   5
   3   7   9 45.5497 78.6911  13
   3   7   9-4.05256 57.6760  12
   3  -8  -2-1.20417 49.6377   7
   3  -8  -2-4.82502 55.0495   6
   3  -8  -2 27.9338 54.5304   3
   3  -8  -1 1582.36 152.312   7
  -3   8   1 1391.48 157.713  14
   3  -8  -1 1644.52 164.204   6
   3  -8  -1 1545.74 146.507   3
  -3   8   1 1590.03 150.973   9
   3  -8   0 152.602 52.1345   7
  -3   8   0 70.8798 42.9985  14
   3  -8   0 94.9942 43.6067   6
  -3   8   0 110.696 54.4076  11
   3  -8   0 38.4634 41.3326   3
  -3   8   0 133.010 54.7983   9
   3  -8   1 3.30501 30.6121   7
  -3   8  -1-118.681 63.1627  14
   3  -8   1 19.3989 33.0215   6
  -3   8  -1 2.49835 45.7917  11
   3  -8   1 4.11866 36.1712   3
  -3   8  -1-3.71707 36.0473  10
  -3   8  -1 30.7633 28.2472   9
   3  -8   1-2.68941 28.3832   8
  -3   8  -2 10.0049 35.9888  14
   3  -8   2 21.9522 42.8604   6
   3  -8   2 13.1799 32.6054   3
  -3   8  -2 107.967 47.1777  11
  -3   8  -2-34.8188 54.8466  10
   3  -8   2 56.1904 54.4449   8
  -3   8  -3 335.912 82.3337  14
   3  -8   3 193.226 78.2910   6
   3  -8   3 239.263 77.2701   3
  -3   8  -3 267.372 76.5790  11
  -3   8  -4 28.1408 49.0578  14
   3  -8   4-21.7715 111.200   6
  -3   8  -4-23.6946 66.9782  11
  -3  -8  -5 175.064 77.3454   4
   3   8   5 21.9433 40.0176  13
  -3  -8  -5 197.987 73.6095   5
  -3  -8  -6 195.011 69.6134   4
   3   8   6 124.033 52.0461  13
  -3  -8  -6 191.086 65.8926   5
  -3  -8  -7 85.4211 52.9291   4
   3   8   7 16.3472 48.9753  13
   3   8   7 30.8227 89.6034  12
   3  -9  -2 54.8247 50.9190   7
   3  -9  -2 110.644 69.8694   6
  -3   9   2 63.2146 56.7466   9
   3  -9  -1-72.9276 68.5391   7
   3  -9  -1-78.2303 59.5037   6
   3  -9  -1 93.3175 59.5584   3
  -3   9   1 47.2755 47.1418   9
   3  -9   0 33.2836 32.6785   7
  -3   9   0-23.0076 40.6483  14
   3  -9   0-5.36986 42.6062   6
  -3   9   0-57.5879 47.2717  11
   3  -9   0 43.1932 48.1406   3
  -3   9   0-9.31699 40.5455   9
   3  -9   0-15.4916 33.6485   8
   3  -9   1-52.1632 41.0264   7
  -3   9  -1-41.3590 52.7189  14
   3  -9   1 0.77468 41.8131   6
   3  -9   1-3.43943 36.5213   3
  -3   9  -1 13.8784 44.0817  11
  -3   9  -1-55.2919 46.4141  10
  -3   9  -1-74.5426 45.7521   9
   3  -9   1 48.8038 61.4110   8
  -3   9  -2 19.0611 48.9817  14
   3  -9   2 37.2285 41.9130   6
   3  -9   2 61.9759 41.5492   3
  -3   9  -2 132.428 61.0496  11
  -3   9  -2 204.954 111.181  10
  -3   9  -3 473.469 100.166  14
   3  -9   3 362.003 110.193   6
  -3   9  -3 390.415 96.1490  11
  -3  -9  -5-38.0762 74.2523   5
  -3  -9  -6 43.2359 56.0385   4
  -3  -9  -6 130.085 72.8287   5
   3 -10  -2 77.7861 75.3477   6
   3 -10  -1-18.6015 54.5893   7
   3 -10  -1-40.3710 50.9360   6
   3 -10  -1 75.6519 52.6270   3
  -3  10   1-4.37387 56.4814   9
   3 -10   0 73.8587 55.3560   7
  -3  10   0-31.3150 41.0174  14
   3 -10   0 11.0612 54.4445   6
   3 -10   0-43.2266 58.0371   3
  -3  10   0 5.29638 47.6096  11
  -3  10   0-17.8268 32.9137  10
  -3  10   0-37.8914 58.3396   9
   3 -10   0 8.40221 53.8934   8
  -3  10  -1-131.136 58.6762  14
   3 -10   1 18.5904 42.3425   6
   3 -10   1 154.038 74.7399   3
  -3  10  -1 49.1454 59.4782  11
  -3  10  -1-5.79373 71.1698  10
  -3  10  -1 37.9624 39.8178   9
   3 -10   1-149.144 169.389   8
  -3  10  -2-55.1573 57.0939  14
   3 -10   2-57.8931 69.3481   6
  -3  10  -2-12.5307 45.8188  11
   4   0   3-24.0522 37.6110  16
  -4   0  -3-6.46240 32.8935  15
  -4   0  -3 0.78488 31.1507   4
   4   0   3 7.39795 18.4453  13
   4   0   3 9.33447 33.2442   2
   4   0   3-2.68510 28.8381   3
  -4   0  -3-48.4275 31.2978   1
   4   0   4 1567.56 145.377  16
  -4   0  -4 1479.66 139.693  15
  -4   0  -4 1448.37 139.174   1
  -4   0  -4 1691.39 138.692  14
   4   0   4 1534.16 140.643  13
   4   0   4 1312.47 113.732   3
  -4   0  -4 1425.07 124.280   4
   4   0   4 1573.82 140.584   2
   4   0   5-4.25772 29.8905  16
  -4   0  -5 18.2938 35.3909   4
  -4   0  -5 77.5167 46.3003  15
  -4   0  -5 0.27783 36.9600  14
   4   0   5-44.7869 40.7282  13
   4   0   5 17.4100 43.9455   2
   4   0   5 4.93477 27.4587   3
  -4   0  -5 19.5786 44.1390   1
   4   0   6 1426.62 135.288  16
  -4   0  -6 1789.14 160.337  15
  -4   0  -6 1742.65 144.407  14
   4   0   6 1875.10 152.961   3
   4   0   6 1867.93 154.474  13
  -4   0  -6 1787.46 156.577   4
   4   0   6 1780.76 156.223   2
  -4   0  -6 1677.59 157.240   1
  -4   0  -7 53.6815 40.3328   4
   4   0   7 14.0241 36.7746  16
  -4   0  -7-23.8019 45.3988  15
   4   0   7 35.9135 39.5274   2
  -4   0  -7-77.7236 49.7014  14
   4   0   7 89.1968 56.5596  13
  -4   0  -7-14.0563 45.5575   1
   4   0   8 113.987 64.1200  16
   4   0   8 149.622 71.7448   2
  -4   0  -8 200.017 76.4263  15
  -4   0  -8 25.9475 33.8634  14
   4   0   8 157.148 96.0635  13
  -4   0  -8 269.052 89.5272   1
   4  -1   2 503.118 86.9230  16
  -4   1  -2 677.692 92.0649  15
  -4   1  -2 761.094 100.436   1
   4  -1   2 600.217 69.5421   6
   4  -1   2 516.788 80.1599   2
   4  -1   2 609.999 88.7390   3
  -4   1  -2 637.925 82.4438   4
   4  -1   3-96.4516 49.0940  16
   4   1   3-6.33933 27.8658  16
  -4   1  -3 22.4912 29.1695   4
  -4   1  -3-25.9518 56.2513  15
  -4  -1  -3-39.0147 47.5986  15
  -4  -1  -3 22.2224 32.9132   4
  -4  -1  -3 6.17194 30.7459   1
  -4   1  -3 30.2594 29.8518  14
   4   1   3-17.4523 24.2906  13
  -4   1  -3 3.60416 30.5259   1
   4  -1   3-33.7727 47.3413   2
   4  -1   3-85.4735 51.2670   3
   4   1   3-47.7544 44.9371   2
   4   1   3-20.2611 33.1309   3
   4  -1   4 56.7469 43.2576  16
   4   1   4 27.3770 40.8160  16
  -4   1  -4-40.1566 38.2542   1
  -4   1  -4 34.4530 33.7463   4
  -4   1  -4-49.9546 53.0973  15
  -4  -1  -4-22.6143 28.9878   4
  -4  -1  -4 10.7016 41.2503  15
  -4   1  -4 13.5812 33.3006  14
  -4  -1  -4-13.7621 31.5702   1
   4  -1   4-18.0655 32.0799  13
   4   1   4-24.3879 37.4678  13
   4  -1   4-19.2054 39.6412   2
   4   1   4-32.8844 41.4861   2
   4  -1   4 41.8100 30.4851   3
   4   1   4 58.2231 33.5730   3
   4  -1   5-1.81178 29.8817  16
   4   1   5 56.7551 33.4368  16
  -4   1  -5 0.14242 26.2393   4
  -4  -1  -5-21.0688 35.3677   4
  -4   1  -5-71.1071 60.3648  15
  -4  -1  -5-24.4352 37.0007  15
  -4   1  -5-45.2509 43.3933  14
  -4  -1  -5-76.9578 48.6602  14
   4  -1   5 53.1504 42.1558  13
   4   1   5-5.35157 33.5428  13
   4  -1   5 6.33606 34.3854   2
   4   1   5-22.9261 42.7050   2
  -4   1  -5-15.4165 47.0522   1
   4   1   5 39.6657 28.6374   3
   4  -1   5 1.02231 33.7949   3
  -4  -1  -5 16.0220 34.3787   1
  -4   1  -6 87.5553 42.8319   4
   4  -1   6 97.2878 47.2052  16
   4   1   6 70.8372 42.8244  16
  -4  -1  -6 39.7450 36.7086   4
  -4   1  -6 143.809 63.4238   1
  -4   1  -6 146.116 59.5197  15
  -4  -1  -6 180.358 61.3233  15
  -4   1  -6 74.0397 38.9855  14
  -4  -1  -6 135.569 55.7868  14
  -4  -1  -6 126.037 57.8391   1
   4  -1   6 131.760 52.6083   2
   4  -1   6 138.212 46.5174  13
   4   1   6 147.038 51.0213  13
   4   1   6 58.3441 49.4901   2
   4   1   6 165.276 48.9279   3
   4  -1   6 47.0473 37.4181   3
  -4  -1  -7 274.635 66.9880   4
   4  -1   7 395.712 89.0064  16
   4   1   7 355.730 89.5956  16
  -4   1  -7 367.587 84.7832  15
  -4  -1  -7 337.700 82.3892  15
   4  -1   7 332.052 81.7674   2
  -4   1  -7 376.646 77.3935  14
   4   1   7 349.167 79.8717   2
  -4  -1  -7 385.099 80.0004  14
   4  -1   7 262.387 71.4910  13
   4   1   7 275.488 64.0725  13
  -4   1  -7 222.565 64.5702   1
  -4  -1  -7 322.839 77.4137   1
  -4  -1  -8 300.655 70.7725   4
   4  -1   8 273.594 125.276  16
   4   1   8 428.928 93.5214  16
   4  -1   8 367.567 139.109   2
  -4   1  -8 369.391 113.293  15
  -4  -1  -8 392.771 89.8348  15
   4   1   8 381.477 99.2822   2
  -4   1  -8 366.639 89.6374  14
   4  -1   8-24.6464 130.900  13
   4   1   8 548.546 116.760  13
  -4   1  -8 503.111 121.657   1
  -4  -1  -8 488.278 106.328   1
   4  -2   2-27.8704 43.0933  16
  -4   2  -2-3.80261 29.5655   1
  -4   2  -2 15.5876 25.4823   4
  -4   2  -2 36.4063 35.8245  15
  -4   2  -2 33.1317 38.9166  14
   4  -2   2 26.1989 25.0439   6
   4  -2   2 48.0353 34.2777   2
   4  -2   2 14.6482 37.6430   3
   4  -2   3 104.226 46.6374  16
  -4   2  -3 113.952 42.5931   4
  -4   2  -3 125.241 51.4189  15
  -4  -2  -3 35.9379 27.5556   4
  -4   2  -3 61.1696 34.3253  14
  -4  -2  -3 47.2700 33.1612   1
  -4   2  -3 105.420 50.5110   1
   4  -2   3 74.5852 27.1425   6
   4  -2   3 111.183 50.2150   2
   4  -2   3 44.1457 40.4929   3
   4   2   3 42.8153 29.0115   2
   4   2   3 3.93751 15.5852   3
  -4  -2  -3 34.9828 26.4265   5
   4  -2   4 396.120 76.0873  16
   4   2   4 428.592 80.3206  16
  -4   2  -4 339.653 60.2221   4
  -4   2  -4 354.748 77.7125  15
  -4  -2  -4 304.190 66.1489   4
  -4  -2  -4 362.203 77.3011  15
  -4   2  -4 331.889 62.7512  14
   4  -2   4 300.810 55.1670  13
   4   2   4 344.260 74.7869  13
  -4  -2  -4 323.771 70.8568   1
   4  -2   4 438.145 80.2870   2
   4   2   4 408.993 77.5423   2
   4  -2   4 338.440 67.4756   3
   4   2   4 297.186 50.7843   3
  -4  -2  -4 432.835 66.6619   5
  -4   2  -4 385.834 81.8667   1
  -4   2  -5 32.4798 29.7372   4
   4  -2   5-9.64377 33.8134  16
   4   2   5 11.9788 34.2308  16
  -4  -2  -5 25.8614 35.8030   4
  -4   2  -5 61.0450 49.5000  15
  -4  -2  -5 13.9919 41.8570  15
  -4   2  -5 9.39761 32.7894  14
  -4   2  -5-22.2089 32.7727   1
   4  -2   5 15.2359 25.8577  13
   4   2   5-28.6137 34.9070  13
   4  -2   5 0.31914 40.3076   2
   4   2   5-74.3607 50.3352   2
   4  -2   5 26.4546 31.9072   3
  -4  -2  -5 85.8332 44.9423   1
   4  -2   6 127.693 53.7812  16
   4   2   6 170.455 60.5711  16
  -4  -2  -6 148.865 50.3775   4
  -4   2  -6 142.798 63.0786  15
  -4  -2  -6 214.767 59.3865  15
  -4   2  -6 160.440 61.0428  14
   4  -2   6 99.4850 34.8173   2
   4  -2   6 201.307 58.0943  13
   4   2   6 144.596 55.0056  13
  -4  -2  -6 117.751 53.3045   1
   4   2   6 240.871 68.8388   2
   4  -2   6 191.197 58.6753   3
  -4   2  -6 129.139 47.0478   1
   4  -2   7 349.579 88.2557  16
  -4  -2  -7 424.905 84.5759   4
   4   2   7 323.511 75.8160  16
  -4   2  -7 331.668 77.8317  15
  -4  -2  -7 395.961 85.7204  15
   4  -2   7 334.377 86.9006   2
  -4   2  -7 386.345 81.6495  14
   4   2   7 378.586 78.1977   2
   4  -2   7 177.528 56.2521  13
   4   2   7 447.754 90.3639  13
  -4   2  -7 329.069 85.5862   1
  -4  -2  -7 330.547 78.3960   1
  -4  -2  -8-45.5168 46.0836   4
   4   2   8-73.3176 40.7477  16
  -4  -2  -8 23.3460 52.5503  15
   4   2   8-53.4674 57.4696   2
   4   2   8-23.1386 51.7248  13
  -4  -2  -8 64.4163 53.2807   1
   4   2   9-16.4247 50.9289  16
  -4  -2  -9 12.1374 43.2946  15
   4   2   9-83.1793 91.1436  13
   4  -3   1 1424.17 145.911   2
  -4   3  -1 1747.36 151.777   1
   4  -3   1 1267.33 119.677   6
   4  -3   1 1405.81 140.968   3
   4  -3   2 28.4350 34.6571  16
  -4   3  -2-9.51962 33.5766  15
  -4   3  -2-21.2804 45.6158  14
   4  -3   2 83.9394 37.4527   6
  -4   3  -2 12.4888 29.4764   1
   4  -3   2-7.37845 38.2855   2
   4  -3   2 48.1488 42.9220   3
   4  -3   3 2584.23 181.007  16
  -4   3  -3 2565.05 176.744   1
  -4   3  -3 2605.00 181.506  15
  -4   3  -3 2671.96 187.478  14
   4  -3   3 2727.92 163.898   6
   4  -3   3 2546.42 184.645   3
   4  -3   3 2482.78 173.725   2
   4  -3   4 144.484 55.4421  16
   4   3   4 14.0966 45.0708  16
  -4   3  -4 87.5086 37.4967  15
  -4  -3  -4 71.2013 43.4554   4
  -4   3  -4 130.930 55.7884  14
   4  -3   4 151.615 49.1977   6
   4   3   4 130.076 50.5092  13
   4  -3   4 80.8863 36.4499  13
   4  -3   4 160.483 52.5279   2
  -4  -3  -4 137.382 53.6860   1
  -4   3  -4 150.643 56.4702   1
   4  -3   4 49.9472 39.3275   3
   4   3   4 41.7857 30.3022   2
  -4  -3  -4 105.274 47.6063   5
   4  -3   5 220.787 60.5689  16
   4   3   5 233.696 62.8690  16
  -4   3  -5 190.399 64.1204   1
  -4  -3  -5 334.225 81.7721   4
  -4   3  -5 384.750 82.2643  15
  -4  -3  -5 341.034 74.7968  15
  -4   3  -5 308.963 77.2652  14
   4  -3   5 375.768 80.0975   2
   4  -3   5 280.218 56.9667  13
   4   3   5 333.686 79.4927  13
   4   3   5 270.043 68.7721   2
   4  -3   5 280.877 66.5744   3
  -4  -3  -5 319.123 58.8937   5
  -4  -3  -5 263.799 60.3678   1
   4  -3   6 75.8101 50.7264  16
   4   3   6-44.5213 52.1905  16
  -4  -3  -6-28.6200 36.0022   4
  -4   3  -6 62.3596 62.2190  15
  -4  -3  -6 19.5795 36.1856  15
   4  -3   6 30.5049 39.2824   2
  -4   3  -6 73.2069 49.6065  14
   4   3   6-62.3343 41.5517  13
  -4  -3  -6-32.1080 36.4221   1
   4   3   6-34.6914 39.9882   2
   4  -3   6 44.1385 39.0633   3
  -4  -3  -6 10.7460 27.6209   5
  -4   3  -6 20.2370 44.1211   1
   4  -3   7 194.677 96.9570  16
   4   3   7 487.503 91.5424  16
  -4  -3  -7 430.671 87.0217   4
   4  -3   7 449.726 134.778   2
  -4   3  -7 1006.65 169.268  15
  -4  -3  -7 444.510 86.5454  15
  -4   3  -7 906.200 157.164  14
   4   3   7 438.221 79.0490   2
   4   3   7 522.321 93.1745  13
  -4   3  -7 439.375 104.502   1
  -4  -3  -7 535.518 97.1338   1
  -4  -3  -8 60.9338 40.9964   4
   4   3   8 207.922 71.2602  16
  -4  -3  -8 173.968 73.2186  15
   4   3   8 55.7852 54.9347   2
   4   3   8 9.17523 67.8505  13
  -4  -3  -8 55.0963 45.5968   1
   4   3   9-19.5243 47.1461  16
  -4  -3  -9 57.2877 73.0622  15
   4   3   9 13.9209 63.0170  13
  -4   4  -1 40.8165 51.5299  14
   4  -4   1-50.7306 70.1838   6
   4  -4   1 8.99956 39.7640   2
   4  -4   1 31.2467 38.2609   3
  -4   4  -1 7.76631 48.8362   1
   4  -4   2 868.058 110.798  16
  -4   4  -2 883.407 109.531  15
  -4   4  -2 973.717 117.841   1
  -4   4  -2 1016.42 120.952  14
   4  -4   2 927.489 104.010   6
   4  -4   2 974.916 117.730   3
   4  -4   2 881.713 103.511   2
   4  -4   3 352.387 75.4317  16
  -4   4  -3 353.014 77.2422  15
  -4   4  -3 360.032 78.8328  14
   4  -4   3 326.950 59.8649   6
   4  -4   3 335.002 72.2094   2
   4  -4   3 340.127 73.0274   3
  -4   4  -3 362.164 75.2596   1
   4  -4   4 543.721 87.0684  16
  -4   4  -4 690.623 101.377  15
  -4  -4  -4 556.702 89.0356   4
  -4   4  -4 656.268 100.529   1
   4  -4   4 657.353 91.4272   6
  -4   4  -4 665.964 106.207  14
   4  -4   4 644.280 87.7965   2
  -4  -4  -4 394.509 66.1497   1
   4  -4   4 556.386 98.4246   3
   4   4   4 374.190 63.6355   2
  -4  -4  -4 536.479 83.4309   5
   4  -4   5 561.646 91.7242  16
   4   4   5 451.624 85.1026  16
  -4   4  -5 649.439 107.588  15
  -4  -4  -5 593.491 104.314   4
   4  -4   5 532.227 86.0197   2
  -4   4  -5 626.317 108.242  14
   4  -4   5 600.387 97.8768   3
   4   4   5 598.275 86.9724   2
  -4   4  -5 611.973 87.0776  11
  -4  -4  -5 634.604 94.1762   5
  -4   4  -5 599.894 99.6880   1
  -4  -4  -5 642.751 103.641   1
   4  -4   6 206.634 68.5675  16
   4   4   6 138.718 51.8885  16
  -4  -4  -6 41.9150 37.1945   4
   4  -4   6 127.208 56.4766   2
  -4   4  -6 72.7127 47.4162  15
  -4  -4  -6 96.8763 50.9701  15
  -4   4  -6 185.525 75.6121  14
  -4  -4  -6 142.939 60.6863   1
   4   4   6 3.53870 57.6177  13
   4   4   6 150.277 55.7917   2
   4  -4   6 138.779 64.4504   3
  -4   4  -6 157.241 56.2861   1
  -4  -4  -6 113.382 44.6276   5
   4  -4   7 450.670 428.373  16
   4   4   7 425.342 89.5515  16
  -4  -4  -7 582.302 111.150   4
  -4   4  -7 272.521 95.0324  15
  -4  -4  -7 400.067 84.1405  15
  -4   4  -7 477.175 143.893  14
   4   4   7 503.717 97.6666   2
   4   4   7 64.0171 89.4445  13
  -4  -4  -7 436.183 90.4293   5
  -4  -4  -7 489.900 95.8205   1
  -4  -4  -8 89.2304 59.4439   4
   4   4   8-103.853 80.3858  16
   4   4   8-67.0258 69.0490   2
  -4  -4  -8 50.3843 63.9555  15
   4   4   8-100.791 56.4658  13
   4   4   8-98.9355 203.764  12
  -4  -4  -8-127.558 60.3887   1
  -4  -4  -9 51.4916 39.9088   4
   4   4   9-49.8941 62.3500  16
  -4  -4  -9-54.2225 57.7784  15
   4   4   9 4.06915 59.2995  13
  -4   5  -1 579.227 100.464  14
  -4   5  -1 482.716 84.9438   1
   4  -5   1 343.569 85.1704   6
   4  -5   1 467.258 94.4996   2
   4  -5   1 417.833 84.0260   3
   4  -5   2 2040.41 165.796  16
  -4   5  -2 2280.58 173.983   1
  -4   5  -2 2259.78 170.557  15
  -4   5  -2 2456.89 190.118  14
   4  -5   2 2315.36 170.022   6
   4  -5   2 2350.80 187.005   3
   4  -5   2 2253.73 165.039   2
   4  -5   3 78.7606 42.4437  16
  -4   5  -3 72.7806 46.9323  15
  -4   5  -3 101.356 59.7509  14
  -4   5  -3 89.8417 42.5775   1
   4  -5   3-19.2185 40.9483   2
   4  -5   3 53.2263 48.6822   6
   4  -5   3 123.434 57.0638   3
   4  -5   4-7.18592 30.5741  16
  -4   5  -4 23.9221 53.8487  15
  -4   5  -4-55.4783 55.7115  14
   4  -5   4 2.34719 33.2279   2
   4  -5   4 4.44929 35.9133   6
   4  -5   4-9.88587 47.3767   3
  -4   5  -4 30.6584 43.5180  11
  -4   5  -4-31.5199 43.0608   1
   4  -5   5-54.3674 45.7620  16
  -4   5  -5 59.5152 50.4478  15
  -4  -5  -5 88.1048 50.0584   4
   4  -5   5-24.7744 55.3337   2
  -4   5  -5 16.6262 48.8864  14
   4   5   5-4.13322 39.7148  13
   4  -5   5 11.8142 39.8809   3
   4   5   5-24.5170 34.8933   2
  -4   5  -5 7.18975 44.5517  11
  -4   5  -5 13.8225 45.6957   1
  -4  -5  -5-17.2648 33.7442   5
  -4  -5  -5-19.9439 48.9486   1
   4  -5   6-53.2478 70.1077  16
   4   5   6-32.5838 40.9152  16
  -4  -5  -6 89.2256 58.3413   4
  -4   5  -6-41.0023 57.7828  15
  -4  -5  -6 10.1420 42.8256   1
  -4   5  -6 12.1514 52.8349  14
   4   5   6 15.1169 34.1539   2
   4   5   6 10.1080 37.6830  13
   4  -5   6 149.752 88.7213   3
  -4  -5  -6-53.7271 48.6771   5
   4   5   7 46.6947 41.3284  16
  -4  -5  -7 6.14539 43.5652   4
  -4  -5  -7-86.3362 68.5253  15
   4   5   7-1.32718 50.1034   2
   4   5   7 23.3143 46.4568  13
  -4  -5  -7 0.61614 57.1104   5
  -4  -5  -7 89.7548 43.8408   1
  -4  -5  -8-29.2145 43.7275   4
   4   5   8 52.9241 60.0590  16
   4   5   8-18.8120 54.9772   2
  -4  -5  -8 167.082 83.6387  15
   4   5   8-40.1953 46.8220  13
  -4  -5  -8-78.1706 64.1949   1
  -4  -5  -8 21.9150 55.7387   5
  -4   6  -1-1.02112 40.9896  14
   4  -6   1-14.8427 38.1789   6
   4  -6   1-0.51989 44.0842   2
   4  -6   1-57.2832 51.9612   3
  -4   6  -1-11.6304 33.5334   1
  -4   6  -2 170.958 72.5680  14
   4  -6   2 253.226 64.5872   2
  -4   6  -2 130.601 47.9140   1
   4  -6   2 223.704 65.9502   6
   4  -6   2 63.8878 48.5098   3
   4  -6   3 67.9538 35.7375  16
  -4   6  -3 119.349 61.7511  15
   4  -6   3 75.4132 35.6777   2
  -4   6  -3 77.6214 60.7889  14
   4  -6   3 31.2041 45.1023   6
  -4   6  -3 41.8960 40.9900  11
   4  -6   3 46.4395 37.5945   3
  -4   6  -3 100.789 51.4158   1
   4  -6   4-4.02886 40.0254  16
  -4   6  -4 13.8389 43.1043  15
   4  -6   4 86.2982 51.6172   2
  -4   6  -4 34.8347 56.3077  14
   4  -6   4-84.3997 49.1641   6
   4  -6   4-37.4932 56.0047   3
  -4   6  -4-1.36225 44.0065  11
  -4   6  -4 29.2345 35.6959   1
   4  -6   5-59.4838 69.3985  16
  -4  -6  -5 7.39452 34.4692   4
  -4   6  -5 14.5258 56.5138  15
  -4   6  -5 46.4465 57.0657  14
   4   6   5 44.9760 39.2257  13
   4  -6   5 15.8934 48.5274   3
  -4   6  -5 30.1472 60.1132  11
  -4  -6  -6 95.3274 58.6388   4
  -4   6  -6-32.3053 101.505  14
   4   6   6 136.984 58.5060  13
  -4  -6  -6 216.665 68.3287   5
  -4  -6  -7 24.9398 59.3595   4
   4   6   7-7.28707 62.1653  13
  -4  -6  -7 33.7836 86.0083   1
  -4  -6  -7 35.8834 44.2472   5
   4  -7   0 413.066 121.003   6
   4  -7   0 265.960 96.2376   3
  -4   7  -1 131.164 67.7579  14
   4  -7   1 184.656 61.9801   6
   4  -7   1 134.109 64.4459   3
   4  -7   2-12.8655 42.0471   2
  -4   7  -2 11.5529 47.6231  14
   4  -7   2 105.704 59.8245   6
   4  -7   2 35.4740 46.7291   3
   4  -7   3-20.4384 43.4262  16
   4  -7   3 21.2885 63.2443   2
   4  -7   3 19.6044 42.8116   6
   4  -7   3-22.0067 46.8947   3
  -4   7  -3-11.6273 57.3224  11
   4  -7   4 62.7384 69.3231  16
  -4   7  -4 80.2290 68.2035  15
  -4   7  -4 26.0877 84.4745  14
  -4   7  -4 40.3776 60.3157  11
   4  -7   5 122.791 96.1747   3
  -4   7  -5 313.117 121.320  11
  -4  -7  -6 82.9742 49.5628   4
   4   7   6 1.06957 44.1542  13
  -4  -7  -6 41.6349 44.4889   5
   4  -8   0 147.874 100.531   6
   4  -8   0-56.6403 87.2845   3
  -4   8  -1 164.157 76.9206  14
   4  -8   1 120.425 68.8682   6
   4  -8   1 11.8179 46.1560   3
  -4   8  -2 95.8866 53.2580  14
   4  -8   2 48.4634 38.8119   6
   4  -8   2 129.174 47.2763   3
  -4   8  -3 298.063 93.5900  14
   4  -8   3 148.295 78.2814   6
   4  -8   3 78.5502 62.1253   3
  -4   8  -3 247.047 81.0063  11
  -4   8  -4 51.0578 69.3059  14
   4  -8   4 96.1298 58.5169   6
   4  -8   4-61.1549 46.9607   3
  -4   8  -4-11.8501 76.9996  11
   4  -9   0-145.521 88.8457   6
   4  -9   0 87.4350 72.8647   3
   5   0   5 108.820 72.7035  16
  -5   0  -5 26.6336 53.0431   4
  -5   0  -5-44.1420 46.5426  15
   5   0   5-17.7551 58.6351   2
  -5   0  -5-68.6475 54.0088   1
  -5   0  -6-28.4744 37.7266   4
  -5   0  -6-27.5078 48.7939  15
  -5   0  -6 44.2078 64.4966   1
   5   0   6 55.4152 54.2321   2
   5   0   6-32.5042 39.5767  13
   5   0   6 31.0861 32.3667   3
  -5   0  -7 8.27690 55.8501   4
   5   0   7 23.0806 52.1861  16
  -5   0  -7-95.7686 62.7338  15
   5   0   7 103.992 56.2979   2
  -5   0  -7-12.2933 58.6435  14
   5   0   7-64.3291 44.9987  13
  -5   0  -7 34.9117 51.1776   1
  -5   1  -4 289.404 76.9778   1
   5  -1   4 178.820 70.0822  16
  -5   1  -4 247.250 81.8118  15
   5  -1   4 268.008 89.8209   2
  -5   1  -5-88.0942 62.2558   4
   5  -1   5-15.0243 49.3245  16
   5   1   5 65.0766 63.4960  16
  -5  -1  -5 75.4576 53.4495   4
  -5  -1  -5 34.9076 47.7936  15
  -5   1  -5-4.64688 64.8468  14
   5  -1   5 38.2404 45.7718   2
   5   1   5-41.2963 43.8410   2
  -5   1  -5 17.6125 45.2068   1
   5  -1   5-32.2924 35.4699   3
  -5  -1  -5 58.7901 82.9802   1
  -5   1  -6 71.0052 41.5265   4
   5  -1   6 74.4867 52.5323  16
  -5  -1  -6-58.1597 60.1524   4
   5   1   6 87.1383 51.6031  16
  -5   1  -6-13.9853 49.3858   1
  -5   1  -6 97.3328 75.5912  15
  -5  -1  -6 39.3519 53.3265  15
  -5   1  -6-16.6398 56.8402  14
  -5  -1  -6 5.35529 55.5441   1
   5  -1   6 102.631 65.2550   2
   5   1   6 2.71464 37.5832  13
   5  -1   6 5.36362 39.5118  13
   5   1   6 33.8909 57.5591   2
   5  -1   6-57.0457 58.0901   3
   5  -2   4 108.565 53.6189  16
  -5   2  -4 102.793 68.1940  15
   5  -2   4 138.459 67.7925   2
   5  -2   4 40.1287 54.8843   3
  -5   2  -4 128.524 59.8769   1
   5  -2   5-54.9932 55.1816  16
  -5   2  -5 43.0823 71.7013  15
  -5   2  -5 68.0633 56.9179  14
   5  -2   5 21.8783 41.0581   2
  -5   2  -5 33.3287 67.1788   1
   5  -2   5 103.958 57.7317   3
  -5   2  -6 25.8738 49.9656   1
   5  -2   6-19.8363 47.7406  16
   5   2   6 80.8652 59.5189  16
  -5  -2  -6 2.80778 38.6841   4
  -5   2  -6-107.671 66.6693  15
  -5  -2  -6-18.4273 55.3122  15
  -5   2  -6-17.8978 59.1597  14
   5  -2   6-117.460 52.7563   2
   5   2   6 5.29124 37.9582  13
   5   2   6-76.7391 47.0636   2
  -5  -2  -6 21.9722 45.4061   1
   5  -2   6-14.2218 41.6829   3
   5  -3   4 88.0929 58.1556  16
  -5   3  -4 43.4130 40.7818  15
  -5   3  -4 82.5865 62.3472  14
   5  -3   4 27.1497 52.5726   2
  -5   3  -4 88.5246 57.4963   1
   5  -3   4 2.05524 48.0796   3
   5  -3   5 75.3878 56.3943  16
  -5   3  -5 75.7862 39.6832   1
  -5   3  -5 115.253 65.1927  15
  -5   3  -5 78.9694 60.0809  14
   5  -3   5 65.7600 46.1811   2
   5  -3   5 9.25125 42.2163   3
   5  -3   6 87.6773 53.3754  16
  -5  -3  -6-62.8811 65.6974   4
  -5   3  -6 82.0813 79.8184  15
   5  -3   6 169.864 69.9050   2
  -5   3  -6 264.959 86.7109  14
   5   3   6-10.3807 32.9202  13
   5   3   6 104.345 55.1446   2
  -5  -3  -6 36.3271 34.3789   1
   5  -3   6-3.02650 58.1305   3
  -5   3  -6 172.933 70.1183   1
  -5   4  -3 256.882 91.2953  14
   5  -4   3 175.389 85.2404   2
   5  -4   3 166.776 67.5950   3
  -5   4  -3 310.234 94.4123   1
   5  -4   4 47.0149 43.4427  16
  -5   4  -4 28.0871 49.5426  15
  -5   4  -4-0.24512 57.2273  14
  -5   4  -4-87.2906 49.6413   1
   5  -4   4-84.6203 72.3401   2
   5  -4   4-20.2418 48.2393   3
   5  -4   5 25.0241 43.4660  16
  -5   4  -5 84.8712 63.4527  15
  -5   4  -5 17.1459 66.2110  14
   5  -4   5 20.4141 58.3749   2
   5  -4   5-39.3787 42.1687   3
  -5   4  -5 2.64907 49.8975   1
  -5   5  -3 18.5457 49.7506  14
   5  -5   3 90.5007 99.7283   2
  -5   5  -3 23.6338 58.4557   1
   5  -5   3-144.742 67.4161   3
  -5   5  -4-60.1574 64.5662   1
   5  -5   4 0.93518 48.4608  16
  -5   5  -4 22.1044 51.4415  15
  -5   5  -4-31.1110 56.4534  14
   5  -5   4 3.99640 63.8252   2
   5  -5   4 1.39630 48.7518   3
   0   0   0    0.00    0.00   0

TITL instrument in P2(1)/c
REM P2(1)/c (#14 in standard setting)
CELL 0.71073   5.106416  10.197751  13.867069  90.0000  99.3650  90.0000
ZERR    4.00   0.000953   0.000878   0.007935   0.0000   0.0363   0.0000
LATT  1
SYMM -x, y+1/2,-z+1/2
SFAC C H N O
UNIT 16.00 28.00 20.00 12.00
TREF
HKLF 4
END
;
_shelx_hkl_checksum              49996
_olex2_submission_special_instructions 'No special instructions were received'
_oxdiff_exptl_absorpt_empirical_details
;
Empirical correction (ABSPACK) includes:
- Absorption correction using spherical harmonics
- Frame scaling
;
_oxdiff_exptl_absorpt_empirical_full_max 12.005
_oxdiff_exptl_absorpt_empirical_full_min 0.672
loop_
_space_group_symop_operation_xyz
'x, y, z'
'-x, y+1/2, -z+1/2'
'-x, -y, -z'
'x, -y-1/2, z-1/2'
loop_
_atom_site_label
_atom_site_type_symbol
_atom_site_fract_x
_atom_site_fract_y
_atom_site_fract_z
_atom_site_U_iso_or_equiv
_atom_site_adp_type
_atom_site_occupancy
_atom_site_site_symmetry_order
_atom_site_calc_flag
_atom_site_refinement_flags_posn
_atom_site_refinement_flags_adp
_atom_site_refinement_flags_occupancy
_atom_site_disorder_assembly
_atom_site_disorder_group
C1 C 0.1066(13) 0.7894(4) 0.5381(7) 0.056(7) Uani 1 1 d . . . . .
H1 H -0.041746 0.829014 0.501960 0.067 Uiso 1 1 calc R . . . .
C2 C 0.3244(14) 0.8587(4) 0.5878(8) 0.058(8) Uani 1 1 d . . . . .
H2 H 0.346449 0.949237 0.590378 0.069 Uiso 1 1 calc R . . . .
C3 C 0.4952(13) 0.7677(4) 0.6310(8) 0.059(7) Uani 1 1 d . . . . .
H3 H 0.658594 0.782716 0.670008 0.071 Uiso 1 1 calc R . . . .
C4 C 0.4770(13) 0.5233(4) 0.6291(8) 0.038(8) Uani 1 1 d . . . . .
N1 N 0.3791(11) 0.6478(3) 0.6057(6) 0.049(7) Uani 1 1 d . . . . .
N2 N 0.1364(10) 0.6616(3) 0.5486(6) 0.057(6) Uani 1 1 d . . . . .
N3 N 0.3385(10) 0.4243(3) 0.5910(6) 0.060(6) Uani 1 1 d . . . . .
H3A H 0.397206 0.345840 0.602326 0.072 Uiso 1 1 calc R . . . .
H3B H 0.187725 0.437060 0.554482 0.072 Uiso 1 1 calc R . . . .
N4 N 0.7065(10) 0.5096(3) 0.6850(6) 0.055(6) Uani 1 1 d . . . . .
H4A H 0.771354 0.432516 0.697837 0.066 Uiso 1 1 calc R . . . .
H4B H 0.793095 0.577566 0.709029 0.066 Uiso 1 1 calc R . . . .
N5 N 0.2476(11) 0.6475(3) 0.8246(7) 0.055(7) Uani 1 1 d . . . . .
O1 O 0.4843(8) 0.6736(2) 0.8566(5) 0.064(5) Uani 1 1 d . . . . .
O2 O 0.1674(9) 0.5342(3) 0.8236(6) 0.090(7) Uani 1 1 d . . . . .
O3 O 0.0875(9) 0.7378(3) 0.7929(6) 0.077(6) Uani 1 1 d . . . . .
loop_
_atom_site_aniso_label
_atom_site_aniso_U_11
_atom_site_aniso_U_22
_atom_site_aniso_U_33
_atom_site_aniso_U_23
_atom_site_aniso_U_13
_atom_site_aniso_U_12
C1 0.050(6) 0.045(3) 0.068(17) 0.000(3) -0.002(9) 0.003(2)
C2 0.056(6) 0.042(3) 0.073(18) -0.005(3) 0.004(9) -0.004(2)
C3 0.053(6) 0.045(3) 0.075(17) -0.010(3) -0.006(9) -0.011(2)
C4 0.030(6) 0.045(3) 0.042(18) -0.002(3) 0.012(10) -0.001(2)
N1 0.041(5) 0.039(2) 0.061(17) 0.003(2) -0.010(9) -0.0018(17)
N2 0.042(4) 0.042(2) 0.082(13) 0.002(2) -0.010(7) 0.0009(17)
N3 0.048(5) 0.039(2) 0.085(14) -0.002(3) -0.015(7) 0.0019(18)
N4 0.046(5) 0.057(2) 0.057(13) 0.002(3) -0.011(7) 0.0008(19)
N5 0.044(5) 0.053(3) 0.065(17) -0.002(3) -0.001(9) -0.0019(19)
O1 0.041(4) 0.0478(18) 0.095(12) -0.007(2) -0.011(6) -0.0042(14)
O2 0.062(5) 0.047(2) 0.148(15) -0.004(3) -0.023(8) -0.0168(17)
O3 0.054(4) 0.061(2) 0.106(14) 0.010(3) -0.018(8) 0.0089(17)
loop_
_atom_type_symbol
_atom_type_description
_atom_type_scat_dispersion_real
_atom_type_scat_dispersion_imag
_atom_type_scat_source
C C 0.0033 0.0016 'International Tables Vol C Tables 4.2.6.8 and 6.1.1.4'
H H 0.0000 0.0000 'International Tables Vol C Tables 4.2.6.8 and 6.1.1.4'
N N 0.0061 0.0033 'International Tables Vol C Tables 4.2.6.8 and 6.1.1.4'
O O 0.0106 0.0060 'International Tables Vol C Tables 4.2.6.8 and 6.1.1.4'
loop_
_geom_angle_atom_site_label_1
_geom_angle_atom_site_label_2
_geom_angle_atom_site_label_3
_geom_angle
_geom_angle_site_symmetry_1
_geom_angle_site_symmetry_3
_geom_angle_publ_flag
N2 C1 C2 112.1(4) . . ?
C3 C2 C1 106.1(4) . . ?
C2 C3 N1 106.1(4) . . ?
N3 C4 N1 117.9(4) . . ?
N3 C4 N4 122.5(4) . . ?
N4 C4 N1 119.6(3) . . ?
C3 N1 C4 129.1(4) . . ?
N2 N1 C3 111.6(3) . . ?
N2 N1 C4 119.3(3) . . ?
C1 N2 N1 104.1(3) . . ?
O1 N5 O3 120.3(4) . . ?
O2 N5 O1 120.5(3) . . ?
O2 N5 O3 119.2(4) . . ?
loop_
_geom_bond_atom_site_label_1
_geom_bond_atom_site_label_2
_geom_bond_distance
_geom_bond_site_symmetry_2
_geom_bond_publ_flag
C1 C2 1.400(6) . ?
C1 N2 1.318(5) . ?
C2 C3 1.346(6) . ?
C3 N1 1.380(5) . ?
C4 N1 1.384(5) . ?
C4 N3 1.295(5) . ?
C4 N4 1.303(5) . ?
N1 N2 1.366(4) . ?
N5 O1 1.247(5) . ?
N5 O2 1.226(4) . ?
N5 O3 1.261(4) . ?

_cod_database_fobs_code 2108912
