#------------------------------------------------------------------------------
#$Date: 2018-11-17 05:34:44 +0200 (Sat, 17 Nov 2018) $
#$Revision: 212032 $
#$URL: file:///home/coder/svn-repositories/cod/cif/2/10/83/2108303.cif $
#------------------------------------------------------------------------------
#
# This file is available in the Crystallography Open Database (COD),
# http://www.crystallography.net/. The original data for this entry
# were provided by IUCr Journals, http://journals.iucr.org/.
#
# The file may be used within the scientific community so long as
# proper attribution is given to the journal article from which the
# data were obtained.
#
data_2108303
loop_
_publ_author_name
'Mondal, Pradip Kumar'
'Shukla, Rahul'
'Biswas, Subha'
'Chopra, Deepak'
_publ_section_title
;
 Role of halogen-involved intermolecular interactions and existence of
 isostructurality in the crystal packing of ---CF~3~ and halogen (Cl or Br
 or I) substituted benzamides
;
_journal_coeditor_code           AW5013
_journal_issue                   6
_journal_name_full               'Acta Crystallographica Section B'
_journal_page_first
;
;
_journal_paper_doi               10.1107/S2052520618013422
_journal_volume                  74
_journal_year                    2018
_chemical_formula_sum            'C14 H9 Cl F3 N O'
_chemical_formula_weight         299.67
_space_group_crystal_system      triclinic
_space_group_IT_number           2
_space_group_name_Hall           '-P 1'
_space_group_name_H-M_alt        'P -1'
_symmetry_space_group_name_Hall  '-P 1'
_symmetry_space_group_name_H-M   'P -1'
_atom_sites_solution_hydrogens   mixed
_audit_creation_method           SHELXL-2016/6
_cell_angle_alpha                96.048(2)
_cell_angle_beta                 93.400(2)
_cell_angle_gamma                93.414(2)
_cell_formula_units_Z            2
_cell_length_a                   4.8189(2)
_cell_length_b                   9.4501(5)
_cell_length_c                   14.0283(7)
_cell_measurement_reflns_used    8370
_cell_measurement_temperature    105(2)
_cell_measurement_theta_max      30.01
_cell_measurement_theta_min      2.48
_cell_volume                     632.77(5)
_computing_cell_refinement       'Bruker SAINT'
_computing_data_collection       'Bruker APEX2'
_computing_data_reduction        'Bruker SAINT'
_computing_molecular_graphics    'Bruker SHELXTL'
_computing_publication_material  'Bruker SHELXTL'
_computing_structure_refinement  'SHELXL-2016/6 (Sheldrick, 2016)'
_computing_structure_solution    'SHELXS-97 (Sheldrick 2008)'
_diffrn_ambient_temperature      105(2)
_diffrn_measured_fraction_theta_full 0.996
_diffrn_measured_fraction_theta_max 0.996
_diffrn_measurement_device_type  'Bruker APEX-II CCD'
_diffrn_measurement_method       '\f and \w scans'
_diffrn_radiation_type           MoK\a
_diffrn_radiation_wavelength     0.71073
_diffrn_reflns_av_R_equivalents  0.0242
_diffrn_reflns_av_unetI/netI     0.0211
_diffrn_reflns_Laue_measured_fraction_full 0.996
_diffrn_reflns_Laue_measured_fraction_max 0.996
_diffrn_reflns_limit_h_max       5
_diffrn_reflns_limit_h_min       -6
_diffrn_reflns_limit_k_max       12
_diffrn_reflns_limit_k_min       -12
_diffrn_reflns_limit_l_max       18
_diffrn_reflns_limit_l_min       -18
_diffrn_reflns_number            11863
_diffrn_reflns_point_group_measured_fraction_full 0.996
_diffrn_reflns_point_group_measured_fraction_max 0.996
_diffrn_reflns_theta_full        25.242
_diffrn_reflns_theta_max         28.279
_diffrn_reflns_theta_min         2.927
_exptl_absorpt_coefficient_mu    0.332
_exptl_absorpt_correction_T_max  0.8460
_exptl_absorpt_correction_T_min  0.6919
_exptl_absorpt_correction_type   multi-scan
_exptl_absorpt_process_details   'SADABS 2014/4'
_exptl_crystal_density_diffrn    1.573
_exptl_crystal_description       Plate
_exptl_crystal_F_000             304
_exptl_crystal_size_max          0.500
_exptl_crystal_size_mid          0.290
_exptl_crystal_size_min          0.070
_refine_diff_density_max         0.718
_refine_diff_density_min         -0.676
_refine_diff_density_rms         0.060
_refine_ls_extinction_method     none
_refine_ls_goodness_of_fit_ref   1.030
_refine_ls_hydrogen_treatment    mixed
_refine_ls_matrix_type           full
_refine_ls_number_parameters     185
_refine_ls_number_reflns         3145
_refine_ls_number_restraints     0
_refine_ls_restrained_S_all      1.030
_refine_ls_R_factor_all          0.0409
_refine_ls_R_factor_gt           0.0376
_refine_ls_shift/su_max          0.001
_refine_ls_shift/su_mean         0.000
_refine_ls_structure_factor_coef Fsqd
_refine_ls_weighting_details
'w=1/[\s^2^(Fo^2^)+(0.0440P)^2^+0.5169P] where P=(Fo^2^+2Fc^2^)/3'
_refine_ls_weighting_scheme      calc
_refine_ls_wR_factor_gt          0.0939
_refine_ls_wR_factor_ref         0.0964
_reflns_Friedel_coverage         0.000
_reflns_number_gt                2885
_reflns_number_total             3145
_reflns_threshold_expression     'I > 2\s(I)'
_cod_data_source_file            aw5013sup1.cif
_cod_data_source_block           PC24
_cod_database_code               2108303
_shelx_shelxl_version_number     2016/6
_shelx_space_group_comment
;
The symmetry employed for this shelxl refinement is uniquely defined
by the following loop, which should always be used as a source of
symmetry information in preference to the above space-group names.
They are only intended as comments.
;
_shelx_estimated_absorpt_t_min   0.851
_shelx_estimated_absorpt_t_max   0.977
_shelx_res_file
;
TITL    pc24 in P -1
    shelx.res
    created by SHELXL-2016/6 at 10:52:39 on 10-Sep-2018
CELL   0.71073   4.8189   9.4501  14.0283  96.048  93.400  93.414
ZERR     2       0.0002   0.0005   0.0007   0.002   0.002   0.002
LATT  1
SFAC    C   H   N   O   F   CL
UNIT    28  18   2   2   6   2
MERG    2
L.S.    12
TEMP   -168
SIZE  0.07 0.29 0.50
ACTA
BOND $H
CONF
HTAB
FMAP    2
PLAN    15
WGHT    0.044000    0.516900
FVAR       0.25675
CL1   6    0.682139    0.432762    0.583674    11.00000    0.01833    0.01686 =
         0.01952    0.00117   -0.00027    0.00644
F1    5    0.861831    0.361077   -0.052559    11.00000    0.03623    0.12770 =
         0.02954    0.03956    0.00117   -0.00269
F2    5    0.449200    0.336106   -0.012850    11.00000    0.03094    0.07425 =
         0.02431    0.01301   -0.00394    0.01921
F3    5    0.658127    0.153612   -0.062001    11.00000    0.15818    0.05071 =
         0.03804   -0.01954   -0.05661    0.04292
O1    4    1.371507    0.181808    0.387743    11.00000    0.01199    0.02663 =
         0.01901    0.00250    0.00020    0.00397
N1    3    0.954971    0.230669    0.448705    11.00000    0.01046    0.01745 =
         0.01355    0.00193   -0.00116    0.00215
H1    2    0.788909    0.238744    0.432983    11.00000    0.02391
C1    1    1.003932    0.231655    0.278405    11.00000    0.01189    0.01590 =
         0.01484    0.00193    0.00032   -0.00057
C2    1    0.808661    0.331123    0.262945    11.00000    0.01743    0.01873 =
         0.01610    0.00154    0.00213    0.00360
AFIX  43
H2    2    0.745052    0.388385    0.315991    11.00000   -1.20000
AFIX   0
C3    1    0.706450    0.346895    0.170061    11.00000    0.01996    0.02277 =
         0.01895    0.00482   -0.00049    0.00662
AFIX  43
H3    2    0.573903    0.415047    0.159518    11.00000   -1.20000
AFIX   0
C4    1    0.799485    0.262303    0.092764    11.00000    0.01937    0.02479 =
         0.01541    0.00290   -0.00221    0.00088
C5    1    0.997162    0.164002    0.107608    11.00000    0.02311    0.02322 =
         0.01571   -0.00242    0.00124    0.00387
AFIX  43
H5    2    1.061119    0.107006    0.054505    11.00000   -1.20000
AFIX   0
C6    1    1.100332    0.149582    0.200139    11.00000    0.01835    0.02002 =
         0.01809    0.00033   -0.00001    0.00474
AFIX  43
H6    2    1.237302    0.083527    0.210343    11.00000   -1.20000
AFIX   0
C7    1    1.127962    0.212233    0.376713    11.00000    0.01305    0.01317 =
         0.01494    0.00092   -0.00061    0.00001
C8    1    1.029453    0.220824    0.546887    11.00000    0.01203    0.01453 =
         0.01348    0.00234   -0.00069   -0.00074
C9    1    0.910335    0.308685    0.617354    11.00000    0.01323    0.01383 =
         0.01701    0.00286   -0.00087    0.00153
C10   1    0.971710    0.300359    0.714557    11.00000    0.02177    0.01986 =
         0.01533    0.00062    0.00147    0.00180
AFIX  43
H10   2    0.886870    0.360324    0.761481    11.00000   -1.20000
AFIX   0
C11   1    1.158346    0.203516    0.742542    11.00000    0.02399    0.02429 =
         0.01629    0.00585   -0.00378    0.00079
AFIX  43
H11   2    1.202940    0.197531    0.808813    11.00000   -1.20000
AFIX   0
C12   1    1.279369    0.115586    0.673386    11.00000    0.01778    0.01965 =
         0.02307    0.00667   -0.00424    0.00223
AFIX  43
H12   2    1.407349    0.049653    0.692580    11.00000   -1.20000
AFIX   0
C13   1    1.214790    0.123274    0.576390    11.00000    0.01390    0.01516 =
         0.01930    0.00227    0.00001    0.00186
AFIX  43
H13   2    1.297193    0.061764    0.529710    11.00000   -1.20000
AFIX   0
C14   1    0.691922    0.277725   -0.007858    11.00000    0.02869    0.03869 =
         0.01689    0.00147   -0.00287    0.00907
HKLF 4




REM     pc24 in P -1
REM R1 =  0.0376 for    2885 Fo > 4sig(Fo)  and  0.0409 for all    3145 data
REM    185 parameters refined using      0 restraints

END

WGHT      0.0439      0.5176

REM Instructions for potential hydrogen bonds
EQIV $1 x-1, y, z
HTAB N1 O1_$1
EQIV $2 x, y, z+1
HTAB C10 F1_$2
HTAB C13 O1

REM Highest difference peak  0.718,  deepest hole -0.676,  1-sigma level  0.060
Q1    1   0.8662  0.2638 -0.0682  11.00000  0.05    0.72
Q2    1   0.5360  0.1524 -0.0257  11.00000  0.05    0.44
Q3    1   1.0553  0.2218  0.3225  11.00000  0.05    0.42
Q4    1   0.6954  0.1592 -0.0847  11.00000  0.05    0.37
Q5    1   0.7381  0.2686  0.0460  11.00000  0.05    0.36
Q6    1   0.7675  0.3376  0.2151  11.00000  0.05    0.35
Q7    1   1.0639  0.1912  0.2425  11.00000  0.05    0.33
Q8    1   1.0407  0.1602  0.1564  11.00000  0.05    0.30
Q9    1   0.5882  0.3859 -0.0219  11.00000  0.05    0.30
Q10   1   1.2368  0.1172  0.6238  11.00000  0.05    0.30
Q11   1   0.9043  0.2820  0.2664  11.00000  0.05    0.29
Q12   1   1.1065  0.1560  0.5646  11.00000  0.05    0.28
Q13   1   0.8938  0.2210  0.1014  11.00000  0.05    0.26
Q14   1   1.0059  0.2312  0.4989  11.00000  0.05    0.26
Q15   1   1.2218  0.1645  0.7070  11.00000  0.05    0.26
;
_shelx_res_checksum              83346
_shelx_hkl_file
;
  -3   0   0   35.28    0.98
  -4   0   0    0.05    0.03
  -4   0   0    0.07    0.05
  -5   0   0    0.97    0.10
  -5   0   0    0.82    0.12
  -6   0   0    7.81    0.35
  -6   0   0    7.32    0.31
  -6   1   0    3.20    0.19
  -6   1   0    3.44    0.24
  -5   1   0    6.78    0.28
  -5   1   0    6.69    0.27
  -3   1   0    3.77    0.12
   2  -1   0    0.86    0.04
   2  -1   0    0.89    0.05
  -2   1   0    0.91    0.04
   1  -1   0    7.37    0.23
  -1   1   0    7.51    0.23
  -1  -1   0  101.43    2.66
  -1  -1   0   98.53    2.69
  -1  -1   0   98.89    2.87
   1   1   0  102.99    2.72
  -2  -1   0   12.58    0.35
  -2  -1   0   11.70    0.36
  -3  -1   0   13.55    0.40
  -3  -1   0   13.10    0.42
  -4  -1   0   16.92    0.51
  -4  -1   0   16.51    0.54
  -5  -1   0    6.90    0.26
  -5  -1   0    6.84    0.31
  -6  -1   0    2.07    0.16
  -6  -1   0    1.96    0.23
  -6   2   0    0.51    0.12
  -6   2   0    0.57    0.09
  -5   2   0   25.51    0.76
  -4   2   0    9.47    0.29
   3  -2   0    0.97    0.06
   3  -2   0    0.97    0.07
  -3   2   0    1.04    0.06
   2  -2   0    2.09    0.10
  -2   2   0    2.04    0.09
   1  -2   0   53.61    1.30
   1  -2   0   48.84    1.42
  -1   2   0   47.72    1.42
  -1   2   0   46.14    1.29
   0  -2   0  601.61   17.87
   0  -2   0  631.97   16.34
   0   2   0  622.49   17.88
   0   2   0  648.66   16.36
  -1  -2   0  965.75   25.58
  -1  -2   0 1000.00   25.28
  -1  -2   0  958.70   27.50
   1   2   0  962.34   25.60
   1   2   0  946.41   27.47
  -2  -2   0  109.76    3.16
  -2  -2   0  109.34    2.95
  -2  -2   0  111.09    2.93
   2   2   0  113.67    2.95
   2   2   0  110.07    3.15
  -3  -2   0    1.90    0.13
  -3  -2   0    2.18    0.10
  -3  -2   0    2.35    0.09
  -4  -2   0   16.50    0.50
  -4  -2   0   16.77    0.54
  -5  -2   0    0.44    0.06
  -5  -2   0    0.37    0.11
  -6  -2   0   -0.01    0.07
  -6  -2   0    0.37    0.13
  -6   3   0    0.83    0.12
  -6   3   0    0.92    0.10
  -6   3   0    0.81    0.11
  -5   3   0    6.97    0.27
   4  -3   0    1.28    0.10
   4  -3   0    1.19    0.08
  -4   3   0    1.20    0.08
   3  -3   0   37.57    1.13
   3  -3   0   37.93    1.11
  -3   3   0   37.04    1.00
  -3   3   0   38.70    1.12
   2  -3   0   22.15    0.70
  -2   3   0   22.91    0.61
  -2   3   0   23.46    0.70
   1  -3   0   16.79    0.44
   1  -3   0   16.00    0.52
  -1   3   0   16.49    0.45
  -1   3   0   16.86    0.52
   0  -3   0   30.55    0.84
   0  -3   0   31.61    0.93
   0   3   0   31.43    0.84
  -1  -3   0    0.09    0.03
  -1  -3   0    0.10    0.03
   1   3   0    0.07    0.03
   1   3   0    0.13    0.02
  -2  -3   0    9.36    0.32
  -2  -3   0    9.71    0.32
  -2  -3   0    9.48    0.29
   2   3   0    9.23    0.31
   2   3   0    9.41    0.29
  -3  -3   0   10.22    0.34
  -3  -3   0   10.35    0.36
  -3  -3   0    9.81    0.31
   3   3   0   10.06    0.33
   3   3   0    9.84    0.31
   3   3   0   10.11    0.31
  -4  -3   0    4.62    0.16
  -4  -3   0    4.89    0.24
  -4  -3   0    4.83    0.16
  -4  -3   0    4.58    0.18
  -5  -3   0   11.01    0.44
  -5  -3   0   11.58    0.38
  -6  -3   0    6.29    0.27
  -6  -3   0    6.30    0.36
  -6   4   0    0.73    0.10
  -5   4   0    3.47    0.15
  -5   4   0    3.19    0.17
  -5   4   0    3.18    0.13
   4  -4   0    6.55    0.27
  -4   4   0    6.34    0.20
  -4   4   0    6.46    0.24
   3  -4   0    1.19    0.11
  -3   4   0    1.20    0.05
  -3   4   0    1.21    0.09
   2  -4   0   19.21    0.64
  -2   4   0   20.81    0.64
  -2   4   0   20.33    0.54
   1  -4   0   17.37    0.48
   1  -4   0   17.21    0.57
  -1   4   0   18.40    0.56
  -1   4   0   17.16    0.48
   0  -4   0   25.28    0.77
   0  -4   0   23.94    0.68
   0   4   0   25.17    0.69
   0   4   0   24.42    0.76
  -1  -4   0   48.27    1.32
  -1  -4   0   50.37    1.45
   1   4   0   47.96    1.34
   1   4   0   50.83    1.32
   1   4   0   46.74    1.44
  -2  -4   0  137.24    3.97
  -2  -4   0  135.63    3.65
   2   4   0  141.82    3.95
   2   4   0  137.04    3.68
  -3  -4   0   16.22    0.55
  -3  -4   0   17.24    0.50
  -3  -4   0   17.04    0.55
   3   4   0   16.95    0.52
   3   4   0   17.53    0.52
  -4  -4   0    0.57    0.08
  -4  -4   0    0.78    0.08
  -4  -4   0    0.74    0.11
  -5  -4   0    0.88    0.13
  -5  -4   0    1.10    0.11
  -6   5   0    5.96    0.23
   5  -5   0    0.10    0.07
   5  -5   0    0.15    0.10
  -5   5   0   -0.01    0.06
  -5   5   0   -0.04    0.06
  -5   5   0    0.01    0.04
   4  -5   0   17.06    0.56
   4  -5   0   17.41    0.59
  -4   5   0   16.86    0.47
  -4   5   0   16.96    0.56
   3  -5   0    5.46    0.27
  -3   5   0    6.25    0.19
  -3   5   0    6.48    0.25
   2  -5   0   20.48    0.69
  -2   5   0   21.43    0.68
  -2   5   0   21.26    0.58
   1  -5   0    6.51    0.20
   1  -5   0    6.63    0.27
  -1   5   0    6.55    0.21
  -1   5   0    6.55    0.26
   0  -5   0   11.01    0.41
   0  -5   0   11.79    0.35
   0   5   0   11.06    0.40
   0   5   0   12.13    0.36
  -1  -5   0   17.87    0.60
  -1  -5   0   17.63    0.54
   1   5   0   18.89    0.52
   1   5   0   17.86    0.59
   1   5   0   17.98    0.55
  -2  -5   0    3.39    0.19
  -2  -5   0    3.56    0.17
   2   5   0    3.48    0.14
   2   5   0    3.52    0.17
  -3  -5   0    3.09    0.19
  -3  -5   0    3.46    0.19
   3   5   0    3.48    0.15
   3   5   0    3.14    0.16
   3   5   0    3.49    0.16
  -4  -5   0    0.12    0.07
  -4  -5   0    0.02    0.07
   4   5   0   -0.02    0.04
   4   5   0    0.00    0.04
  -5  -5   0   -0.08    0.10
   5  -6   0    0.29    0.12
   5  -6   0    0.04    0.08
  -5   6   0    0.30    0.08
   4  -6   0    0.18    0.10
   4  -6   0    0.09    0.05
  -4   6   0    0.27    0.04
  -4   6   0    0.28    0.07
   3  -6   0    1.41    0.16
  -3   6   0    1.40    0.12
  -3   6   0    1.34    0.07
   2  -6   0    0.18    0.03
   2  -6   0    0.12    0.06
  -2   6   0    0.11    0.03
  -2   6   0    0.22    0.06
   1  -6   0    6.74    0.29
   1  -6   0    6.40    0.21
  -1   6   0    6.33    0.27
  -1   6   0    6.27    0.22
   0  -6   0    2.45    0.17
   0  -6   0    3.14    0.13
   0   6   0    2.92    0.15
   0   6   0    2.80    0.17
  -1  -6   0   12.67    0.47
  -1  -6   0   12.75    0.41
   1   6   0   12.34    0.45
   1   6   0   13.30    0.39
  -2  -6   0    8.83    0.36
  -2  -6   0    8.62    0.32
   2   6   0    8.55    0.33
   2   6   0    8.90    0.30
  -3  -6   0   20.46    0.70
  -3  -6   0   20.78    0.66
   3   6   0   20.11    0.66
   3   6   0   20.28    0.62
   3   6   0   20.99    0.65
  -4  -6   0    7.40    0.34
  -4  -6   0    7.72    0.35
   4   6   0    7.80    0.28
  -5  -6   0    4.59    0.30
  -5  -6   0    3.85    0.23
  -5  -6   0    3.83    0.19
   5  -7   0   10.11    0.39
   5  -7   0    9.63    0.47
  -5   7   0   10.00    0.40
   4  -7   0    3.06    0.19
   4  -7   0    3.21    0.27
  -4   7   0    3.45    0.21
  -4   7   0    2.88    0.12
   3  -7   0   37.19    1.20
  -3   7   0   35.93    1.00
  -3   7   0   37.90    1.16
   2  -7   0   18.34    0.66
   2  -7   0   18.76    0.52
  -2   7   0   18.39    0.64
  -2   7   0   18.44    0.54
   1  -7   0   15.28    0.45
   1  -7   0   15.85    0.57
  -1   7   0   15.27    0.47
  -1   7   0   15.13    0.55
   0  -7   0    6.58    0.31
   0  -7   0    6.55    0.24
   0   7   0    6.73    0.27
   0   7   0    6.88    0.30
  -1  -7   0    2.86    0.21
  -1  -7   0    2.91    0.15
   1   7   0    2.83    0.18
   1   7   0    2.98    0.14
  -2  -7   0    5.16    0.24
  -2  -7   0    5.61    0.30
   2   7   0    5.50    0.22
   2   7   0    5.59    0.26
  -3  -7   0    1.13    0.15
  -3  -7   0    1.19    0.16
   3   7   0    1.02    0.14
   3   7   0    1.17    0.13
  -4  -7   0    0.93    0.15
  -4  -7   0    1.17    0.16
   4   7   0    0.84    0.12
   4   7   0    1.14    0.14
  -5  -7   0    0.59    0.10
  -5  -7   0    0.87    0.17
  -5   8   0    3.67    0.25
   4  -8   0    3.77    0.23
   4  -8   0    3.77    0.34
  -4   8   0    4.21    0.25
   3  -8   0    8.63    0.42
  -3   8   0    8.53    0.29
  -3   8   0    9.00    0.38
   2  -8   0    2.47    0.11
  -2   8   0    2.27    0.14
  -2   8   0    2.51    0.19
   1  -8   0    0.26    0.10
   1  -8   0    0.31    0.05
  -1   8   0    0.32    0.07
  -1   8   0    0.25    0.08
   0  -8   0    9.87    0.33
   0  -8   0   10.02    0.44
   0   8   0   10.33    0.38
   0   8   0   10.22    0.41
  -1  -8   0   12.29    0.50
  -1  -8   0   11.49    0.40
   1   8   0   11.34    0.46
   1   8   0   12.33    0.39
  -2  -8   0    0.05    0.11
  -2  -8   0    0.03    0.07
   2   8   0    0.11    0.05
   2   8   0   -0.06    0.07
  -3  -8   0    3.79    0.30
  -3  -8   0    4.09    0.25
   3   8   0    4.17    0.24
   3   8   0    3.84    0.23
  -4  -8   0    4.57    0.30
  -4  -8   0    3.96    0.35
   4   8   0    4.40    0.28
   4   8   0    4.08    0.25
   4   8   0    4.58    0.25
   4  -9   0   10.20    0.44
  -4   9   0   11.21    0.46
   3  -9   0    2.51    0.30
  -3   9   0    1.63    0.15
  -3   9   0    1.65    0.19
   2  -9   0    2.25    0.11
  -2   9   0    2.27    0.17
  -2   9   0    2.38    0.20
   1  -9   0    1.66    0.10
   1  -9   0    1.18    0.17
  -1   9   0    1.54    0.18
  -1   9   0    1.44    0.17
   0  -9   0   21.98    0.82
   0  -9   0   22.42    0.66
   0   9   0   22.71    0.79
  -1  -9   0    0.15    0.06
  -1  -9   0    0.32    0.14
   1   9   0    0.15    0.09
  -2  -9   0    0.50    0.15
  -2  -9   0    0.43    0.09
   2   9   0    0.53    0.11
   2   9   0    0.58    0.09
  -3  -9   0    1.58    0.23
  -3  -9   0    1.96    0.20
   3   9   0    1.67    0.21
   3   9   0    1.45    0.20
   3   9   0    1.63    0.20
  -4  -9   0    0.71    0.15
   4 -10   0    8.56    0.42
  -4  10   0    8.64    0.43
  -3  10   0    3.87    0.28
   2 -10   0    9.75    0.32
   2 -10   0    9.52    0.51
  -2  10   0    9.84    0.45
  -2  10   0    9.91    0.38
   1 -10   0    0.05    0.05
   1 -10   0    0.19    0.15
  -1  10   0   -0.02    0.08
   0 -10   0    2.19    0.30
   0 -10   0    2.03    0.14
   0  10   0    1.64    0.21
  -1 -10   0    3.30    0.20
  -1 -10   0    3.47    0.35
   1  10   0    3.54    0.21
   1  10   0    2.87    0.25
  -2 -10   0    1.12    0.20
  -2 -10   0    0.94    0.13
   2  10   0    1.54    0.17
   2  10   0    1.19    0.18
  -3 -10   0   -0.14    0.22
  -3 -10   0    0.26    0.13
   3  10   0    0.33    0.14
  -3  11   0    5.04    0.35
   2 -11   0   11.37    0.37
  -2  11   0   11.24    0.51
   1 -11   0    2.45    0.15
   1 -11   0    3.36    0.42
  -1  11   0    2.42    0.26
   0 -11   0    3.93    0.43
   0 -11   0    3.61    0.20
   0  11   0    3.84    0.30
  -1 -11   0   42.78    1.21
  -1 -11   0   40.61    1.45
   1  11   0   40.97    1.36
  -2 -11   0    0.82    0.25
  -2 -11   0    0.68    0.15
   2  11   0    0.54    0.16
   2 -12   0    0.87    0.10
  -2  12   0    0.77    0.17
   1 -12   0    6.89    0.28
  -1  12   0    6.38    0.41
   0 -12   0    0.14    0.08
   0  12   0   -0.01    0.14
  -1 -12   0    0.16    0.33
  -1 -12   0    0.23    0.10
   1  12   0    0.15    0.14
   1  12  -1    0.34    0.17
  -1 -12   1    0.66    0.32
  -1 -12   1    0.37    0.11
   0  12  -1    0.01    0.13
   0 -12   1   -0.08    0.07
  -1  12  -1    1.30    0.22
   1 -12   1    0.99    0.12
  -2  12  -1    0.05    0.14
   2 -12   1    0.04    0.07
   2  11  -1    2.06    0.28
  -2 -11   1    1.92    0.31
  -2 -11   1    1.82    0.21
   1  11  -1    4.94    0.34
  -1 -11   1    4.76    0.46
  -1 -11   1    4.80    0.25
   0  11  -1    0.00    0.12
   0 -11   1    0.10    0.07
   0 -11   1    0.23    0.21
  -1  11  -1    5.68    0.34
  -1  11  -1    5.61    0.34
   1 -11   1    5.46    0.23
   1 -11   1    5.18    0.46
  -2  11  -1    3.14    0.28
  -2  11  -1    3.13    0.28
   2 -11   1    3.23    0.17
  -3  11  -1    3.49    0.30
  -3  11  -1    3.76    0.28
   3  10  -1    0.04    0.13
  -3 -10   1   -0.05    0.10
  -3 -10   1    0.07    0.22
   2  10  -1    6.21    0.29
   2  10  -1    6.30    0.35
  -2 -10   1    6.30    0.45
  -2 -10   1    6.47    0.31
   1  10  -1    3.93    0.27
   1  10  -1    4.24    0.21
  -1 -10   1    4.07    0.22
  -1 -10   1    4.30    0.37
   0  10  -1    8.37    0.38
   0  10  -1    8.09    0.39
   0 -10   1    8.01    0.31
   0 -10   1    8.85    0.48
  -1  10  -1    9.39    0.42
  -1  10  -1    8.57    0.38
   1 -10   1    9.21    0.48
   1 -10   1    8.97    0.31
  -2  10  -1    4.08    0.27
  -2  10  -1    4.17    0.24
   2 -10   1    3.73    0.17
   2 -10   1    3.35    0.35
  -3  10  -1    0.29    0.10
  -3  10  -1    0.31    0.11
  -4  10  -1    6.65    0.36
   4 -10   1    5.68    0.35
  -4  -9   1    0.12    0.13
   3   9  -1    2.96    0.22
   3   9  -1    3.08    0.23
  -3  -9   1    3.10    0.33
  -3  -9   1    2.50    0.22
   2   9  -1    0.01    0.08
   2   9  -1    0.10    0.06
  -2  -9   1    0.01    0.07
  -2  -9   1    0.04    0.12
   1   9  -1    0.56    0.11
  -1  -9   1    0.81    0.10
  -1  -9   1    1.03    0.18
   0   9  -1    7.79    0.35
   0   9  -1    8.66    0.37
   0  -9   1    8.12    0.29
   0  -9   1    8.07    0.41
  -1   9  -1    1.95    0.17
  -1   9  -1    2.19    0.19
   1  -9   1    2.16    0.12
   1  -9   1    2.14    0.24
  -2   9  -1   10.56    0.44
  -2   9  -1   10.30    0.37
   2  -9   1   10.71    0.33
  -3   9  -1    0.53    0.09
  -3   9  -1    0.27    0.09
   3  -9   1   -0.05    0.13
  -4   9  -1    5.22    0.30
  -4   9  -1    4.97    0.22
   4  -9   1    4.89    0.29
   4   8  -1   20.89    0.69
   4   8  -1   20.92    0.69
   4   8  -1   21.07    0.69
  -4  -8   1   20.06    0.77
  -4  -8   1   21.27    0.72
  -3  -8   1    0.53    0.11
  -3  -8   1    0.59    0.15
   2   8  -1    0.94    0.10
   2   8  -1    0.59    0.10
  -2  -8   1    0.73    0.14
  -2  -8   1    0.96    0.12
   1   8  -1   15.77    0.55
   1   8  -1   15.70    0.57
  -1  -8   1   15.87    0.50
  -1  -8   1   14.94    0.59
   0   8  -1    5.29    0.27
   0   8  -1    5.60    0.25
   0  -8   1    5.05    0.21
   0  -8   1    5.11    0.29
  -1   8  -1    0.56    0.09
  -1   8  -1    0.74    0.09
   1  -8   1    0.92    0.07
   1  -8   1    0.87    0.14
  -2   8  -1    3.33    0.17
  -2   8  -1    3.28    0.21
   2  -8   1    3.45    0.14
  -3   8  -1    0.35    0.06
  -3   8  -1    0.17    0.08
   3  -8   1    0.38    0.12
  -4   8  -1    0.42    0.10
  -4   8  -1    0.38    0.06
   4  -8   1    0.80    0.19
   4  -8   1    0.30    0.09
  -5   8  -1    5.62    0.30
  -5  -7   1    1.29    0.18
  -5  -7   1    1.14    0.16
   4   7  -1    5.43    0.25
  -4  -7   1    5.89    0.31
  -4  -7   1    5.84    0.32
   3   7  -1    0.09    0.06
   3   7  -1    0.08    0.06
  -3  -7   1   -0.04    0.09
  -3  -7   1    0.11    0.07
   2   7  -1    0.07    0.06
   2   7  -1    0.03    0.04
  -2  -7   1    0.10    0.06
  -2  -7   1    0.02    0.08
   1   7  -1    7.13    0.30
   1   7  -1    7.07    0.30
  -1  -7   1    6.50    0.32
  -1  -7   1    6.87    0.26
   0   7  -1    0.00    0.05
   0   7  -1    0.00    0.04
   0  -7   1    0.04    0.07
   0  -7   1    0.02    0.03
  -1   7  -1    0.03    0.05
  -1   7  -1    0.07    0.05
   1  -7   1    0.04    0.06
   1  -7   1    0.03    0.03
  -2   7  -1    8.09    0.27
  -2   7  -1    7.94    0.34
   2  -7   1    8.68    0.37
   2  -7   1    8.23    0.26
  -3   7  -1    3.29    0.14
  -3   7  -1    3.16    0.20
   3  -7   1    3.45    0.24
  -4   7  -1    7.39    0.32
  -4   7  -1    7.55    0.24
   4  -7   1    7.20    0.32
   4  -7   1    7.97    0.39
  -5   7  -1    9.59    0.38
  -5   7  -1    9.37    0.29
   5  -7   1    9.48    0.46
   5  -7   1    9.39    0.39
  -5  -6   1    4.70    0.32
  -5  -6   1    4.15    0.23
  -5  -6   1    4.70    0.20
   4   6  -1   11.12    0.39
   4   6  -1   12.26    0.42
   4   6  -1   11.67    0.39
  -4  -6   1   12.31    0.45
  -4  -6   1   11.17    0.44
   3   6  -1   88.41    2.55
   3   6  -1   88.03    2.39
  -3  -6   1   86.68    2.39
  -3  -6   1   88.12    2.60
   2   6  -1    3.55    0.15
   2   6  -1    3.49    0.18
  -2  -6   1    3.58    0.21
  -2  -6   1    3.44    0.17
   1   6  -1    0.20    0.07
   1   6  -1    0.24    0.06
  -1  -6   1    0.22    0.04
  -1  -6   1    0.26    0.07
   0   6  -1  132.31    3.48
   0   6  -1  131.33    3.80
   0  -6   1  133.21    3.82
   0  -6   1  128.88    3.46
  -1   6  -1    0.73    0.09
  -1   6  -1    0.69    0.07
   1  -6   1    0.86    0.11
   1  -6   1    0.80    0.06
  -2   6  -1    1.45    0.12
  -2   6  -1    1.35    0.08
   2  -6   1    1.35    0.07
   2  -6   1    1.31    0.14
  -3   6  -1    5.20    0.18
  -3   6  -1    5.32    0.24
   3  -6   1    5.59    0.27
  -4   6  -1    0.20    0.04
  -4   6  -1    0.24    0.07
   4  -6   1    0.31    0.11
   4  -6   1    0.28    0.07
  -5   6  -1    2.36    0.12
  -5   6  -1    2.27    0.17
   5  -6   1    2.38    0.19
   5  -6   1    2.05    0.23
  -5  -5   1    2.42    0.24
   4   5  -1    0.95    0.08
   4   5  -1    0.90    0.08
  -4  -5   1    1.16    0.15
  -4  -5   1    0.90    0.10
   3   5  -1   18.26    0.61
   3   5  -1   19.96    0.59
  -3  -5   1   19.57    0.64
  -3  -5   1   20.20    0.62
   2   5  -1    1.07    0.07
   2   5  -1    1.08    0.09
  -2  -5   1    1.10    0.11
  -2  -5   1    1.20    0.10
   1   5  -1    1.17    0.10
   1   5  -1    1.06    0.10
  -1  -5   1    1.09    0.11
  -1  -5   1    1.11    0.08
   0   5  -1   49.89    1.39
   0   5  -1   52.77    1.53
   0  -5   1   49.89    1.38
   0  -5   1   53.04    1.54
  -1   5  -1   29.94    0.82
  -1   5  -1   30.88    0.92
   1  -5   1   28.41    0.93
   1  -5   1   29.89    0.80
  -2   5  -1    0.87    0.06
  -2   5  -1    0.83    0.09
   2  -5   1    0.96    0.11
  -3   5  -1   17.89    0.59
  -3   5  -1   18.50    0.50
   3  -5   1   18.35    0.59
   3  -5   1   17.96    0.61
  -4   5  -1   25.03    0.79
  -4   5  -1   24.54    0.69
   4  -5   1   26.07    0.83
   4  -5   1   26.17    0.80
  -5   5  -1    2.20    0.11
  -5   5  -1    2.29    0.15
   5  -5   1    1.99    0.18
   5  -5   1    2.16    0.15
  -6   5  -1    2.44    0.16
  -6   5  -1    2.58    0.19
  -5  -4   1    0.81    0.13
  -5  -4   1    0.66    0.08
  -4  -4   1   11.48    0.39
  -4  -4   1   12.32    0.43
  -4  -4   1   11.61    0.37
  -4  -4   1   11.93    0.37
   3   4  -1   49.73    1.38
   3   4  -1   50.74    1.45
  -3  -4   1   50.35    1.40
  -3  -4   1   49.16    1.48
   2   4  -1  209.33    5.93
   2   4  -1  204.84    5.55
  -2  -4   1  207.30    5.45
  -2  -4   1  209.34    5.93
   1   4  -1   19.83    0.61
   1   4  -1   20.17    0.58
  -1  -4   1   19.13    0.62
   0   4  -1   52.23    1.52
   0   4  -1   51.08    1.38
   0  -4   1   51.91    1.52
   0  -4   1   51.20    1.37
  -1   4  -1  112.82    2.99
  -1   4  -1  114.43    3.27
   1  -4   1  113.97    3.27
   1  -4   1  112.96    2.98
  -2   4  -1  113.98    3.28
  -2   4  -1  110.89    2.98
   2  -4   1  117.31    3.29
  -3   4  -1   25.38    0.77
  -3   4  -1   25.25    0.68
   3  -4   1   24.88    0.79
   3  -4   1   25.11    0.77
  -4   4  -1    7.42    0.27
  -4   4  -1    7.38    0.23
   4  -4   1    7.74    0.30
  -5   4  -1    0.04    0.04
  -5   4  -1    0.05    0.05
   5  -4   1    0.06    0.05
  -6   4  -1    8.13    0.34
  -6  -3   1    0.76    0.15
  -6  -3   1    0.71    0.10
  -5  -3   1    8.63    0.36
  -5  -3   1    9.17    0.31
  -4  -3   1   10.89    0.34
  -4  -3   1   10.58    0.39
   3   3  -1    1.35    0.06
   3   3  -1    1.31    0.09
   3   3  -1    1.29    0.06
  -3  -3   1    1.26    0.11
  -3  -3   1    1.22    0.09
  -3  -3   1    1.31    0.07
   2   3  -1   59.90    1.54
   2   3  -1   54.04    1.64
  -2  -3   1   56.45    1.54
  -2  -3   1   57.59    1.66
   1   3  -1   91.89    2.60
   1   3  -1   91.36    2.40
   1   3  -1   91.41    2.43
  -1  -3   1   91.32    2.40
  -1  -3   1   87.55    2.61
   0   3  -1    8.97    0.30
   0   3  -1    8.76    0.27
   0  -3   1    8.85    0.26
   0  -3   1    8.65    0.30
  -1   3  -1   38.23    0.99
  -1   3  -1   37.71    1.11
   1  -3   1   35.95    1.11
   1  -3   1   38.02    0.99
  -2   3  -1   47.16    1.37
  -2   3  -1   46.21    1.23
   2  -3   1   46.81    1.37
  -3   3  -1   21.05    0.64
   3  -3   1   21.58    0.65
   3  -3   1   20.93    0.66
  -4   3  -1    2.67    0.12
   4  -3   1    2.47    0.12
   4  -3   1    2.72    0.14
  -5   3  -1   10.61    0.33
  -6   3  -1    3.31    0.24
  -6   3  -1    3.70    0.22
  -6  -2   1    0.21    0.08
  -6  -2   1    0.37    0.12
  -5  -2   1    0.18    0.08
  -5  -2   1    0.14    0.05
  -4  -2   1    3.41    0.14
  -4  -2   1    3.20    0.19
  -3  -2   1    0.16    0.02
  -3  -2   1    0.12    0.02
  -3  -2   1    0.14    0.03
  -3  -2   1    0.19    0.05
   2   2  -1   27.71    0.83
   2   2  -1   29.82    0.80
  -2  -2   1   29.78    0.85
  -2  -2   1   29.22    0.79
  -2  -2   1   27.84    0.81
   1   2  -1  530.38   14.05
   1   2  -1  519.19   15.09
   1   2  -1  541.24   13.91
  -1  -2   1  532.01   13.91
  -1  -2   1  525.41   15.11
   0   2  -1    0.24    0.02
   0   2  -1    0.24    0.03
   0  -2   1    0.21    0.03
   0  -2   1    0.22    0.02
  -1   2  -1    4.74    0.14
  -1   2  -1    4.78    0.16
   1  -2   1    4.48    0.16
  -2   2  -1  440.52   12.31
   2  -2   1  409.25   12.29
   2  -2   1  440.59   12.31
  -3   2  -1   25.69    0.75
   3  -2   1   25.72    0.76
   3  -2   1   24.85    0.75
  -4   2  -1    9.24    0.29
  -6   2  -1    0.63    0.10
  -6   2  -1    0.71    0.14
  -6  -1   1    5.97    0.25
  -6  -1   1    6.19    0.31
  -5  -1   1    3.09    0.15
  -5  -1   1    3.31    0.20
  -4  -1   1    6.65    0.24
  -4  -1   1    6.99    0.27
  -3  -1   1   14.19    0.42
  -3  -1   1   14.28    0.44
  -2  -1   1    0.72    0.06
  -2  -1   1    0.73    0.04
   1   1  -1   63.23    1.65
   1   1  -1   63.77    1.67
  -1  -1   1   61.27    1.67
  -1  -1   1   61.68    1.78
  -1  -1   1   63.00    1.65
  -1   1  -1   33.59    0.98
   1  -1   1   34.55    0.98
  -2   1  -1    0.83    0.04
   2  -1   1    0.77    0.05
  -3   1  -1   47.51    1.36
  -5   1  -1    1.23    0.11
  -5   1  -1    1.25    0.13
  -6   1  -1    0.18    0.07
  -6   1  -1    0.29    0.12
  -6   0   1    2.86    0.22
  -6   0   1    2.18    0.16
  -5   0   1    0.35    0.08
  -5   0   1    0.25    0.05
  -4   0   1   16.78    0.52
  -4   0   1   17.23    0.51
  -3   0   1    1.25    0.07
  -3   0   1    1.31    0.09
  -2   0   1    0.00    0.02
   1   0  -1   42.63    1.23
  -1   0   1   47.34    1.23
  -1   0   1   39.91    1.24
  -1   0  -1   22.88    0.69
  -1   0  -1   24.31    0.68
   1   0   1   23.91    0.68
  -2   0  -1    6.90    0.22
  -2   0  -1    7.59    0.22
   2   0   1    7.25    0.21
   2   0   1    6.70    0.22
  -3   0  -1  153.43    4.25
  -3   0  -1  146.34    4.00
  -4   0  -1   12.46    0.40
  -5   0  -1    5.86    0.28
  -5   0  -1    5.53    0.24
  -6   0  -1    0.11    0.12
  -6   0  -1    0.02    0.07
  -6   1   1    0.63    0.09
  -6   1   1    0.86    0.12
  -5   1   1    2.43    0.14
  -5   1   1    2.19    0.16
  -4   1   1    0.71    0.09
  -3   1   1   57.71    1.69
  -3   1   1   60.12    1.59
  -3   1   1   60.35    1.69
   2  -1  -1    5.85    0.19
  -2   1   1    5.67    0.18
   1  -1  -1  169.97    4.89
  -1   1   1  170.68    4.90
  -1  -1  -1   73.67    1.96
  -1  -1  -1   76.10    2.12
  -1  -1  -1   72.51    2.10
   1   1   1   71.97    2.11
   1   1   1   73.39    1.99
  -2  -1  -1    7.84    0.24
  -2  -1  -1    7.56    0.24
   2   1   1    7.69    0.23
   2   1   1    7.34    0.24
  -3  -1  -1    0.56    0.06
  -3  -1  -1    0.68    0.04
  -4  -1  -1   -0.08    0.06
  -4  -1  -1    0.08    0.03
  -5  -1  -1   23.36    0.74
  -5  -1  -1   23.03    0.70
  -6  -1  -1    0.78    0.16
  -6  -1  -1    1.40    0.14
  -6   2   1    2.30    0.18
  -6   2   1    2.33    0.17
  -5   2   1    4.18    0.19
  -4   2   1    0.00    0.02
  -4   2   1    0.02    0.02
  -4   2   1    0.00    0.04
   3  -2  -1   44.34    1.28
   3  -2  -1   44.45    1.29
  -3   2   1   43.97    1.28
   2  -2  -1   73.18    2.13
  -2   2   1   74.62    2.12
   1  -2  -1    1.94    0.10
   1  -2  -1    2.01    0.06
  -1   2   1    1.91    0.06
  -1   2   1    1.95    0.09
   0  -2  -1   40.07    1.04
   0  -2  -1   39.05    1.15
   0   2   1   38.65    1.15
  -1  -2  -1   85.62    2.45
  -1  -2  -1   85.78    2.30
   1   2   1   84.30    2.27
  -2  -2  -1   37.70    1.12
  -2  -2  -1   38.38    1.05
   2   2   1   38.43    1.05
   2   2   1   38.42    1.10
  -3  -2  -1    0.07    0.02
  -3  -2  -1    0.12    0.03
  -3  -2  -1    0.05    0.05
   3   2   1    0.07    0.02
   3   2   1    0.10    0.02
  -4  -2  -1   10.17    0.34
  -4  -2  -1    9.98    0.38
  -5  -2  -1    8.24    0.30
  -5  -2  -1    8.01    0.36
  -6  -2  -1    2.12    0.17
  -6  -2  -1    2.13    0.27
  -6   3   1    0.72    0.08
  -6   3   1    0.92    0.11
  -6   3   1    0.89    0.10
  -5   3   1    2.22    0.13
   4  -3  -1    5.07    0.20
   4  -3  -1    4.97    0.18
  -4   3   1    5.19    0.19
  -4   3   1    5.06    0.19
   3  -3  -1    0.19    0.05
  -3   3   1    0.21    0.04
  -3   3   1    0.26    0.03
   2  -3  -1   20.55    0.64
  -2   3   1   20.49    0.54
  -2   3   1   20.68    0.63
   1  -3  -1   15.44    0.51
   1  -3  -1   16.03    0.42
  -1   3   1   16.00    0.50
  -1   3   1   16.05    0.43
   0  -3  -1  236.10    6.74
   0  -3  -1  229.98    6.13
   0   3   1  232.50    6.68
   0   3   1  228.05    6.09
  -1  -3  -1   20.03    0.63
  -1  -3  -1   20.09    0.58
   1   3   1   20.44    0.56
   1   3   1   19.43    0.62
  -2  -3  -1   10.39    0.32
  -2  -3  -1   10.15    0.36
  -2  -3  -1   10.38    0.36
   2   3   1   11.31    0.35
   2   3   1   10.98    0.34
   2   3   1   10.66    0.33
  -3  -3  -1    7.00    0.26
  -3  -3  -1    7.00    0.28
  -3  -3  -1    6.91    0.24
   3   3   1    6.96    0.23
   3   3   1    6.73    0.23
   3   3   1    7.06    0.25
  -4  -3  -1    3.95    0.16
  -4  -3  -1    3.82    0.22
  -4  -3  -1    4.10    0.17
  -5  -3  -1    0.08    0.05
  -5  -3  -1    0.15    0.10
  -6  -3  -1    4.44    0.23
  -6  -3  -1    4.90    0.34
  -6   4   1    0.54    0.07
  -5   4   1    7.73    0.26
  -5   4   1    8.05    0.24
  -5   4   1    8.13    0.28
   4  -4  -1   11.06    0.40
  -4   4   1   10.79    0.31
  -4   4   1   11.58    0.38
   3  -4  -1    5.28    0.23
  -3   4   1    4.97    0.15
  -3   4   1    5.08    0.21
   2  -4  -1    0.19    0.05
  -2   4   1    0.13    0.04
  -2   4   1    0.23    0.03
   1  -4  -1    1.76    0.07
   1  -4  -1    1.72    0.11
  -1   4   1    1.70    0.11
  -1   4   1    1.70    0.08
   0  -4  -1   22.46    0.72
   0  -4  -1   23.31    0.63
   0   4   1   21.76    0.71
   0   4   1   23.54    0.65
  -1  -4  -1    3.55    0.17
  -1  -4  -1    3.32    0.15
   1   4   1    2.99    0.15
   1   4   1    3.59    0.13
  -2  -4  -1    0.00    0.04
  -2  -4  -1   -0.04    0.04
   2   4   1    0.02    0.02
   2   4   1   -0.01    0.03
  -3  -4  -1    2.14    0.14
  -3  -4  -1    2.20    0.11
  -3  -4  -1    2.14    0.16
   3   4   1    2.15    0.12
   3   4   1    2.23    0.11
   3   4   1    2.03    0.12
  -4  -4  -1    6.02    0.28
  -4  -4  -1    5.59    0.23
  -4  -4  -1    5.54    0.22
   4   4   1    5.69    0.19
   4   4   1    5.52    0.19
  -5  -4  -1    0.46    0.07
  -5  -4  -1    0.49    0.13
  -6   5   1    1.51    0.13
   5  -5  -1    9.72    0.37
   5  -5  -1    9.44    0.34
  -5   5   1    9.43    0.34
  -5   5   1    9.75    0.35
   4  -5  -1    9.39    0.37
   4  -5  -1    9.11    0.33
  -4   5   1    9.21    0.34
   3  -5  -1   17.02    0.58
  -3   5   1   16.35    0.45
  -3   5   1   16.85    0.56
   2  -5  -1   54.06    1.43
   2  -5  -1   56.11    1.65
  -2   5   1   54.44    1.63
  -2   5   1   54.03    1.44
   1  -5  -1   77.97    2.21
   1  -5  -1   73.37    1.96
  -1   5   1   73.61    2.19
  -1   5   1   73.34    1.97
   0  -5  -1    6.50    0.28
   0  -5  -1    6.84    0.23
   0   5   1    7.09    0.27
   0   5   1    6.77    0.24
  -1  -5  -1   48.47    1.34
  -1  -5  -1   47.50    1.47
   1   5   1   50.70    1.33
   1   5   1   47.87    1.46
  -2  -5  -1    9.31    0.37
  -2  -5  -1    9.77    0.35
   2   5   1    9.75    0.35
   2   5   1    9.55    0.31
  -3  -5  -1    1.91    0.16
  -3  -5  -1    2.06    0.15
   3   5   1    1.87    0.13
   3   5   1    1.60    0.11
   3   5   1    2.22    0.13
  -4  -5  -1    6.55    0.31
  -4  -5  -1    6.24    0.29
   4   5   1    6.49    0.23
   4   5   1    6.38    0.23
  -5  -5  -1    0.86    0.15
  -5  -5  -1    0.69    0.08
  -5  -5  -1    0.62    0.07
   5  -6  -1    2.48    0.23
  -5   6   1    2.01    0.16
   4  -6  -1    3.41    0.24
  -4   6   1    3.08    0.19
   3  -6  -1    0.18    0.09
  -3   6   1    0.07    0.03
  -3   6   1    0.05    0.05
   2  -6  -1    2.98    0.10
   2  -6  -1    3.07    0.20
  -2   6   1    2.84    0.12
  -2   6   1    3.05    0.17
   1  -6  -1    6.10    0.20
   1  -6  -1    6.52    0.29
  -1   6   1    6.26    0.22
  -1   6   1    6.04    0.27
   0  -6  -1    4.03    0.16
   0  -6  -1    3.76    0.22
   0   6   1    4.10    0.21
  -1  -6  -1    2.37    0.13
  -1  -6  -1    2.39    0.17
   1   6   1    2.26    0.15
   1   6   1    2.40    0.12
  -2  -6  -1   -0.03    0.04
  -2  -6  -1    0.10    0.07
   2   6   1    0.01    0.05
   2   6   1   -0.01    0.03
  -3  -6  -1    0.02    0.06
  -3  -6  -1   -0.08    0.08
   3   6   1    0.01    0.05
   3   6   1   -0.10    0.06
   3   6   1    0.04    0.05
  -4  -6  -1    3.46    0.23
  -4  -6  -1    3.56    0.24
   4   6   1    3.61    0.18
  -5  -6  -1    4.66    0.32
  -5  -6  -1    4.97    0.26
   5  -7  -1    4.55    0.26
   5  -7  -1    4.55    0.35
  -5   7   1    4.69    0.25
   4  -7  -1    5.12    0.32
  -4   7   1    5.20    0.27
  -3   7   1    0.37    0.05
  -3   7   1    0.22    0.08
   2  -7  -1   25.43    0.85
   2  -7  -1   24.70    0.67
  -2   7   1   24.18    0.81
  -2   7   1   23.85    0.69
   1  -7  -1   77.66    2.08
   1  -7  -1   78.39    2.36
  -1   7   1   78.09    2.11
  -1   7   1   80.18    2.34
   0  -7  -1    0.44    0.11
   0  -7  -1    0.36    0.05
   0   7   1    0.39    0.09
  -1  -7  -1    0.00    0.04
  -1  -7  -1   -0.01    0.07
   1   7   1    0.01    0.06
   1   7   1   -0.01    0.03
  -2  -7  -1   13.54    0.54
  -2  -7  -1   14.21    0.48
   2   7   1   14.47    0.52
   2   7   1   14.30    0.45
  -3  -7  -1   -0.10    0.10
  -3  -7  -1   -0.04    0.07
   3   7   1    0.01    0.07
  -4  -7  -1    0.59    0.14
  -4  -7  -1    0.62    0.15
   4   7   1    0.64    0.12
   4   7   1    0.53    0.10
   4   7   1    0.61    0.10
  -5  -7  -1    1.40    0.20
  -5   8   1    7.50    0.35
   4  -8  -1    8.28    0.46
  -4   8   1    8.93    0.39
   3  -8  -1   10.73    0.49
  -3   8   1   10.59    0.44
   2  -8  -1    0.65    0.06
  -2   8   1    0.46    0.09
  -2   8   1    0.73    0.09
   1  -8  -1   18.66    0.69
   1  -8  -1   18.22    0.53
  -1   8   1   18.20    0.65
   0  -8  -1   22.60    0.80
   0  -8  -1   22.84    0.66
   0   8   1   21.93    0.77
  -1  -8  -1    1.64    0.22
  -1  -8  -1    2.03    0.14
   1   8   1    1.86    0.18
   1   8   1    1.69    0.12
  -2  -8  -1   15.39    0.62
  -2  -8  -1   15.69    0.53
   2   8   1   16.08    0.58
  -3  -8  -1    3.62    0.23
  -3  -8  -1    3.03    0.29
   3   8   1    3.35    0.22
   3   8   1    4.17    0.24
   3   8   1    3.83    0.24
  -4  -8  -1    0.08    0.13
  -4  -8  -1    0.09    0.16
   4   8   1    0.13    0.10
   4   8   1    0.18    0.11
   4   8   1    0.02    0.11
  -4   9   1    2.76    0.25
   3  -9  -1    5.54    0.39
  -3   9   1    5.70    0.31
   2  -9  -1    0.76    0.07
  -2   9   1    0.83    0.14
   1  -9  -1   52.19    1.43
   1  -9  -1   53.96    1.69
  -1   9   1   51.84    1.64
   0  -9  -1   68.41    2.16
   0  -9  -1   70.02    1.89
   0   9   1   70.43    2.13
  -1  -9  -1    0.13    0.14
  -1  -9  -1    0.27    0.07
   1   9   1    0.23    0.10
  -2  -9  -1    0.21    0.08
  -2  -9  -1    0.35    0.16
   2   9   1    0.17    0.08
   2   9   1    0.19    0.11
  -3  -9  -1   13.80    0.64
  -3  -9  -1   15.26    0.55
   3   9   1   14.41    0.52
   3   9   1   14.32    0.56
   3   9   1   14.38    0.55
  -4  -9  -1    0.91    0.18
  -4  10   1    3.28    0.29
  -3  10   1    6.74    0.36
   2 -10  -1   12.17    0.60
   2 -10  -1   12.64    0.38
  -2  10   1   12.81    0.53
   1 -10  -1   -0.08    0.16
   1 -10  -1   -0.06    0.04
  -1  10   1   -0.04    0.09
   0 -10  -1    0.06    0.15
   0 -10  -1    0.02    0.05
   0  10   1   -0.06    0.11
  -1 -10  -1   13.05    0.62
  -1 -10  -1   13.79    0.48
   1  10   1   13.79    0.47
   1  10   1   14.40    0.58
  -2 -10  -1    0.05    0.08
  -2 -10  -1    0.25    0.21
   2  10   1    0.15    0.10
   2  10   1   -0.02    0.11
  -3 -10  -1    1.13    0.26
  -3 -10  -1    1.41    0.18
   3  10   1    1.02    0.17
  -3  11   1    0.19    0.13
   2 -11  -1    1.44    0.12
  -2  11   1    1.55    0.21
   1 -11  -1    3.29    0.17
  -1  11   1    3.07    0.29
   0 -11  -1   14.21    0.70
   0 -11  -1   14.64    0.48
   0  11   1   14.42    0.61
  -1 -11  -1   33.45    1.25
  -1 -11  -1   34.17    1.01
   1  11   1   33.94    1.16
  -2 -11  -1    0.36    0.27
  -2 -11  -1    0.34    0.13
   2  11   1    0.51    0.16
   2 -12  -1    4.72    0.21
  -2  12   1    4.35    0.37
   1 -12  -1    4.76    0.23
  -1  12   1    5.16    0.38
   0 -12  -1    4.53    0.25
   0  12   1    5.17    0.37
  -1 -12  -1    0.46    0.12
   1  12   1    0.71    0.17
   1  12  -2    1.82    0.23
  -1 -12   2    1.65    0.19
  -1 -12   2    1.73    0.34
   0  12  -2    3.48    0.32
   0 -12   2    3.50    0.21
  -1  12  -2    1.27    0.22
  -1  12  -2    0.99    0.18
   1 -12   2    0.95    0.11
  -2  12  -2    4.12    0.38
  -2  12  -2    5.17    0.36
   2 -12   2    4.64    0.23
   2  11  -2    2.77    0.29
  -2 -11   2    2.49    0.21
  -2 -11   2    2.18    0.30
   1  11  -2    0.37    0.14
  -1 -11   2    0.46    0.09
  -1 -11   2    0.34    0.21
   0  11  -2    1.83    0.21
   0  11  -2    1.70    0.22
   0 -11   2    1.75    0.15
   0 -11   2    1.92    0.27
  -1  11  -2    4.50    0.30
  -1  11  -2    3.82    0.31
   1 -11   2    3.87    0.20
   1 -11   2    4.39    0.42
  -2  11  -2    0.36    0.14
  -2  11  -2    0.52    0.13
   2 -11   2    0.41    0.07
  -3  11  -2    2.49    0.27
  -3  11  -2    2.82    0.26
   3 -11   2    2.46    0.26
   3  10  -2    0.19    0.12
   3  10  -2    0.00    0.12
  -3 -10   2   -0.05    0.19
  -3 -10   2    0.10    0.11
   2  10  -2   18.40    0.59
   2  10  -2   18.33    0.67
  -2 -10   2   17.20    0.75
  -2 -10   2   17.67    0.60
   1  10  -2    0.58    0.13
   1  10  -2    0.52    0.15
  -1 -10   2    0.51    0.16
  -1 -10   2    0.60    0.10
   0  10  -2    1.70    0.18
   0  10  -2    2.06    0.20
   0 -10   2    1.50    0.20
   0 -10   2    1.85    0.14
  -1  10  -2    4.43    0.28
  -1  10  -2    4.47    0.27
   1 -10   2    4.33    0.34
   1 -10   2    4.62    0.20
  -2  10  -2    0.06    0.10
  -2  10  -2    0.17    0.10
   2 -10   2    0.23    0.06
   2 -10   2    0.13    0.17
  -3  10  -2   14.82    0.58
  -3  10  -2   14.36    0.49
   3 -10   2   13.63    0.56
  -4  10  -2    8.02    0.40
   4 -10   2    7.78    0.42
   4   9  -2    1.09    0.15
  -4  -9   2    1.44    0.18
  -4  -9   2    1.29    0.17
   3   9  -2    0.14    0.09
   3   9  -2    0.09    0.10
  -3  -9   2    0.05    0.08
  -3  -9   2    0.14    0.16
   2   9  -2    4.83    0.27
  -2  -9   2    5.11    0.25
  -2  -9   2    4.90    0.35
   1   9  -2    3.32    0.23
   1   9  -2    3.54    0.26
  -1  -9   2    3.27    0.28
  -1  -9   2    3.37    0.18
   0   9  -2    0.30    0.10
   0   9  -2    0.27    0.10
   0  -9   2    0.30    0.12
   0  -9   2    0.28    0.06
  -1   9  -2    3.03    0.22
  -1   9  -2    3.29    0.20
   1  -9   2    3.35    0.15
   1  -9   2    3.11    0.27
  -2   9  -2    0.87    0.12
  -2   9  -2    0.86    0.11
   2  -9   2    1.05    0.09
  -3   9  -2    4.26    0.20
  -3   9  -2    4.32    0.26
   3  -9   2    4.43    0.34
   3  -9   2    4.36    0.25
  -4   9  -2    2.30    0.16
  -4   9  -2    2.45    0.22
   4  -9   2    1.92    0.22
   4   8  -2    4.42    0.25
   4   8  -2    4.45    0.24
   4   8  -2    4.42    0.26
  -4  -8   2    4.50    0.24
  -4  -8   2    4.25    0.28
  -4  -8   2    4.80    0.35
   3   8  -2    3.99    0.23
  -3  -8   2    3.86    0.30
  -3  -8   2    3.94    0.23
   2   8  -2    0.33    0.06
   2   8  -2    0.29    0.08
  -2  -8   2    0.34    0.07
  -2  -8   2    0.31    0.11
   1   8  -2  114.46    3.29
   1   8  -2  113.24    3.04
  -1  -8   2  112.18    3.32
  -1  -8   2  108.67    2.99
   0   8  -2    3.55    0.20
   0   8  -2    3.62    0.21
   0  -8   2    3.51    0.16
   0  -8   2    3.72    0.25
  -1   8  -2    6.55    0.26
  -1   8  -2    6.74    0.31
   1  -8   2    7.00    0.34
   1  -8   2    6.76    0.23
  -2   8  -2   25.36    0.74
  -2   8  -2   25.79    0.85
   2  -8   2   25.61    0.72
  -3   8  -2   11.90    0.38
  -3   8  -2   11.78    0.47
   3  -8   2   12.04    0.51
   3  -8   2   12.51    0.47
  -4   8  -2   12.03    0.38
  -4   8  -2   12.49    0.47
   4  -8   2   12.08    0.48
   4  -8   2   12.29    0.56
  -5   8  -2    6.48    0.32
  -5  -7   2    3.28    0.29
  -5  -7   2    2.87    0.19
   4   7  -2    2.56    0.17
  -4  -7   2    3.05    0.23
  -4  -7   2    2.68    0.17
  -4  -7   2    2.41    0.25
   3   7  -2    2.35    0.14
   3   7  -2    1.90    0.15
  -3  -7   2    2.37    0.22
  -3  -7   2    1.86    0.16
   2   7  -2    0.05    0.03
   2   7  -2   -0.01    0.05
  -2  -7   2    0.00    0.07
  -2  -7   2    0.04    0.05
   1   7  -2    3.49    0.19
   1   7  -2    3.03    0.18
  -1  -7   2    3.32    0.21
  -1  -7   2    3.17    0.16
   0   7  -2    3.17    0.18
   0   7  -2    2.95    0.16
   0  -7   2    3.20    0.21
   0  -7   2    2.90    0.14
  -1   7  -2    7.63    0.32
  -1   7  -2    7.84    0.27
   1  -7   2    7.63    0.25
   1  -7   2    7.40    0.34
  -2   7  -2   10.34    0.33
  -2   7  -2   10.62    0.40
   2  -7   2   10.36    0.43
   2  -7   2   10.49    0.32
  -3   7  -2    6.59    0.23
  -3   7  -2    6.82    0.30
   3  -7   2    7.10    0.30
  -4   7  -2    4.67    0.24
  -4   7  -2    4.54    0.18
   4  -7   2    4.74    0.31
   4  -7   2    4.44    0.25
  -5   7  -2    1.35    0.17
  -5   7  -2    1.57    0.12
   5  -7   2    1.48    0.20
   5  -7   2    1.64    0.22
  -5  -6   2    0.39    0.07
  -5  -6   2    0.29    0.10
  -5  -6   2    0.49    0.15
   4   6  -2    0.26    0.08
   4   6  -2    0.13    0.06
   4   6  -2   -0.03    0.06
  -4  -6   2    0.16    0.09
  -4  -6   2    0.09    0.10
  -4  -6   2    0.06    0.06
   3   6  -2    3.57    0.17
   3   6  -2    3.10    0.16
  -3  -6   2    3.70    0.20
  -3  -6   2    3.27    0.21
   2   6  -2   40.33    1.24
   2   6  -2   43.03    1.14
   2   6  -2   41.49    1.19
  -2  -6   2   40.41    1.26
  -2  -6   2   40.02    1.15
   1   6  -2   11.24    0.40
   1   6  -2   11.51    0.39
  -1  -6   2   11.11    0.42
   0   6  -2  116.43    3.41
   0   6  -2  118.75    3.12
   0  -6   2  120.37    3.43
   0  -6   2  115.08    3.10
  -1   6  -2   30.23    0.94
  -1   6  -2   29.97    0.84
   1  -6   2   29.85    0.82
   1  -6   2   29.95    0.95
  -2   6  -2    2.56    0.11
  -2   6  -2    2.56    0.15
   2  -6   2    2.56    0.17
   2  -6   2    2.66    0.11
  -3   6  -2    1.53    0.13
  -3   6  -2    1.78    0.09
   3  -6   2    1.46    0.12
   3  -6   2    1.84    0.17
  -4   6  -2    6.90    0.29
  -4   6  -2    6.99    0.23
   4  -6   2    6.64    0.29
  -5   6  -2   11.68    0.35
  -5   6  -2   11.45    0.42
   5  -6   2   11.35    0.47
   5  -6   2   11.50    0.44
  -5  -5   2    1.38    0.17
   4   5  -2    0.61    0.07
   4   5  -2    0.64    0.07
  -4  -5   2    0.59    0.08
  -4  -5   2    0.65    0.10
  -4  -5   2    0.68    0.09
   3   5  -2   11.22    0.36
   3   5  -2   10.80    0.35
  -3  -5   2   10.35    0.37
  -3  -5   2   10.02    0.39
   2   5  -2    0.84    0.08
   2   5  -2    0.93    0.06
   2   5  -2    1.06    0.12
  -2  -5   2    0.80    0.11
  -2  -5   2    0.86    0.09
   1   5  -2   11.50    0.40
   1   5  -2   11.98    0.39
  -1  -5   2   11.89    0.42
   0   5  -2   19.79    0.56
   0   5  -2   19.53    0.62
   0  -5   2   18.93    0.63
   0  -5   2   19.34    0.55
  -1   5  -2    9.02    0.33
  -1   5  -2    9.53    0.29
   1  -5   2    9.39    0.28
   1  -5   2    9.14    0.34
  -2   5  -2   17.35    0.56
  -2   5  -2   16.90    0.49
   2  -5   2   17.65    0.58
  -3   5  -2   14.67    0.42
  -3   5  -2   14.71    0.49
   3  -5   2   14.88    0.50
   3  -5   2   15.07    0.52
  -4   5  -2    0.63    0.08
  -4   5  -2    0.46    0.06
   4  -5   2    0.69    0.11
   4  -5   2    0.47    0.07
  -5   5  -2    8.44    0.32
  -5   5  -2    8.34    0.27
   5  -5   2    8.97    0.36
   5  -5   2    8.36    0.33
  -5  -4   2    0.18    0.10
  -4  -4   2    0.14    0.05
  -4  -4   2    0.27    0.07
  -4  -4   2    0.11    0.03
   3   4  -2    0.07    0.03
  -3  -4   2    0.11    0.05
  -3  -4   2    0.01    0.05
   2   4  -2   11.52    0.34
   2   4  -2   11.51    0.37
   2   4  -2   12.02    0.39
  -2  -4   2   11.32    0.37
  -2  -4   2   11.23    0.39
   1   4  -2   53.09    1.43
   1   4  -2   53.51    1.54
  -1  -4   2   52.86    1.55
  -1  -4   2   51.49    1.42
   0   4  -2    1.75    0.09
   0   4  -2    1.95    0.11
   0  -4   2    1.94    0.08
   0  -4   2    2.09    0.11
  -1   4  -2  183.85    5.29
  -1   4  -2  188.42    4.91
   1  -4   2  181.43    5.29
   1  -4   2  187.52    4.87
  -2   4  -2    1.81    0.11
  -2   4  -2    1.85    0.08
   2  -4   2    1.74    0.10
   2  -4   2    2.03    0.12
  -3   4  -2    0.08    0.03
  -3   4  -2    0.14    0.03
   3  -4   2    0.09    0.04
   3  -4   2    0.08    0.05
  -4   4  -2    4.43    0.18
  -4   4  -2    4.28    0.16
   4  -4   2    4.08    0.19
   4  -4   2    4.27    0.21
  -5   4  -2    0.20    0.05
  -5   4  -2    0.21    0.06
   5  -4   2    0.23    0.07
   5  -4   2    0.12    0.07
  -6   4  -2   11.35    0.37
  -6   4  -2   10.49    0.43
  -6  -3   2    0.06    0.07
  -6  -3   2    0.03    0.13
  -5  -3   2   36.68    1.05
  -5  -3   2   37.57    1.09
  -4  -3   2    1.00    0.07
  -4  -3   2    1.21    0.12
   3   3  -2    3.08    0.11
  -3  -3   2    3.25    0.16
  -3  -3   2    3.27    0.14
  -3  -3   2    3.20    0.12
  -3  -3   2    3.08    0.12
   2   3  -2   30.73    0.86
   2   3  -2   29.95    0.88
   2   3  -2   31.15    0.83
  -2  -3   2   29.71    0.90
  -2  -3   2   29.36    0.84
   1   3  -2   18.96    0.55
   1   3  -2   19.58    0.59
  -1  -3   2   19.45    0.55
  -1  -3   2   19.43    0.59
   0   3  -2   70.96    1.88
   0   3  -2   71.75    2.05
   0  -3   2   71.62    2.06
   0  -3   2   70.50    1.87
  -1   3  -2    7.38    0.26
  -1   3  -2    7.64    0.22
   1  -3   2    7.61    0.26
   1  -3   2    7.57    0.22
  -2   3  -2    7.48    0.22
  -2   3  -2    7.20    0.25
   2  -3   2    7.45    0.26
   2  -3   2    7.45    0.26
  -3   3  -2    0.61    0.06
   3  -3   2    0.60    0.08
   3  -3   2    0.65    0.07
  -4   3  -2    6.19    0.23
   4  -3   2    6.56    0.24
   4  -3   2    6.24    0.24
  -5   3  -2    0.29    0.05
  -6   3  -2    1.65    0.17
  -6   3  -2    1.44    0.17
  -6  -2   2    0.31    0.13
  -6  -2   2    0.19    0.07
  -5  -2   2    9.60    0.36
  -5  -2   2    9.64    0.32
  -4  -2   2    3.20    0.17
  -4  -2   2    3.21    0.13
  -3  -2   2    3.26    0.12
  -3  -2   2    3.23    0.12
  -3  -2   2    3.31    0.11
  -3  -2   2    3.36    0.15
   2   2  -2    4.74    0.19
   2   2  -2    4.92    0.16
  -2  -2   2    4.86    0.15
  -2  -2   2    4.68    0.16
  -2  -2   2    4.73    0.16
  -2  -2   2    4.53    0.17
   1   2  -2  157.24    4.30
   1   2  -2  152.69    3.94
   1   2  -2  149.62    4.02
  -1  -2   2  149.18    4.32
  -1  -2   2  149.74    3.96
  -1  -2   2  142.62    4.33
   0   2  -2   29.57    0.86
   0   2  -2   29.88    0.78
   0  -2   2   28.08    0.86
   0  -2   2   29.02    0.86
   0  -2   2   30.58    0.78
  -1   2  -2   33.66    0.96
  -1   2  -2   33.64    0.87
   1  -2   2   32.17    0.97
   1  -2   2   32.57    0.97
  -2   2  -2    2.66    0.11
   2  -2   2    2.70    0.12
   2  -2   2    3.01    0.12
  -3   2  -2   60.31    1.75
   3  -2   2   61.17    1.76
  -4   2  -2   34.90    1.01
   4  -2   2   33.34    1.01
   4  -2   2   35.45    1.01
  -5   2  -2    0.22    0.06
  -6   2  -2    0.05    0.08
  -6   2  -2    0.17    0.12
  -6  -1   2    6.54    0.31
  -6  -1   2    6.41    0.26
  -5  -1   2    0.11    0.07
  -5  -1   2    0.04    0.04
  -4  -1   2   98.51    2.64
  -4  -1   2   99.05    2.65
  -3  -1   2    0.25    0.05
  -3  -1   2    0.31    0.04
  -2  -1   2    5.95    0.19
  -2  -1   2    6.03    0.18
  -2  -1   2    5.75    0.20
  -2  -1   2    6.60    0.19
   1   1  -2  416.91   12.31
   1   1  -2  428.26   11.44
   1   1  -2  448.33   11.34
  -1  -1   2  440.06   11.33
  -1  -1   2  451.86   12.33
  -1  -1   2  410.37   12.30
   0   1  -2   -0.08    0.01
   0   1  -2   -0.05    0.01
   0   1  -2   -0.06    0.01
   0  -1   2   -0.08    0.01
   0  -1   2   -0.06    0.01
   0  -1   2   -0.06    0.01
  -1   1  -2   73.07    2.20
  -1   1  -2   77.01    2.24
   1  -1   2   82.30    2.21
   1  -1   2   76.24    2.22
  -2   1  -2    0.00    0.02
  -2   1  -2    0.02    0.02
   2  -1   2   -0.01    0.02
  -3   1  -2   17.36    0.51
   3  -1   2   16.50    0.51
   3  -1   2   17.00    0.51
  -4   1  -2    2.63    0.14
  -4   1  -2    2.72    0.10
  -5   1  -2    7.03    0.28
  -6   1  -2    3.56    0.21
  -6   1  -2    3.62    0.28
  -6   0   2    1.74    0.19
  -6   0   2    1.46    0.14
  -5   0   2    1.50    0.11
  -5   0   2    1.64    0.13
  -4   0   2    9.13    0.29
  -4   0   2    8.57    0.30
  -3   0   2    1.20    0.08
  -3   0   2    1.38    0.07
  -2   0   2   43.39    1.25
  -2   0   2   44.70    1.26
  -2   0   2   43.37    1.17
   1   0  -2  146.45    4.10
   1   0  -2  160.12    4.49
  -1   0   2  150.78    4.48
  -1   0   2  169.31    4.11
  -1   0   2  154.77    4.49
   0   0  -2   71.58    2.44
   0   0  -2   95.93    2.49
   0   0  -2   77.31    2.26
   0   0   2   94.39    2.48
  -1   0  -2    8.41    0.24
  -1   0  -2    7.79    0.25
   1   0   2    7.66    0.25
   1   0   2    7.85    0.24
  -2   0  -2   26.07    0.73
  -2   0  -2   25.76    0.71
  -2   0  -2   24.16    0.74
   2   0   2   24.48    0.73
  -3   0  -2    9.17    0.27
  -3   0  -2    8.92    0.29
  -3   0  -2    8.53    0.27
   3   0   2    8.39    0.27
   3   0   2    9.02    0.27
  -4   0  -2    4.64    0.20
  -5   0  -2   12.33    0.46
  -5   0  -2   12.56    0.43
  -6   0  -2    0.78    0.11
  -6   0  -2    0.54    0.15
  -6   1   2    0.26    0.07
  -6   1   2    0.32    0.10
  -5   1   2   24.49    0.72
  -5   1   2   24.17    0.71
  -4   1   2    0.70    0.08
  -3   1   2   11.54    0.35
  -3   1   2   11.61    0.35
  -3   1   2   12.18    0.35
   2  -1  -2   13.95    0.42
  -2   1   2   13.53    0.41
  -2   1   2   13.77    0.38
  -2   1   2   13.76    0.42
   1  -1  -2    0.15    0.03
  -1   1   2    0.10    0.02
  -1   1   2    0.09    0.02
   0  -1  -2   66.51    1.96
   0  -1  -2   67.66    1.84
   0  -1  -2   68.52    2.00
   0   1   2   72.91    1.96
   0   1   2   64.55    1.81
  -1  -1  -2   25.09    0.76
  -1  -1  -2   24.26    0.70
  -1  -1  -2   25.53    0.75
   1   1   2   26.06    0.76
   1   1   2   26.58    0.75
  -2  -1  -2   70.19    1.84
  -2  -1  -2   66.54    1.96
  -2  -1  -2   68.53    1.95
   2   1   2   66.99    1.94
  -3  -1  -2   -0.02    0.02
  -3  -1  -2    0.00    0.02
   3   1   2    0.05    0.02
   3   1   2    0.06    0.02
  -4  -1  -2    7.72    0.28
  -5  -1  -2    0.78    0.14
  -5  -1  -2    0.82    0.10
  -6  -1  -2    0.32    0.08
  -6  -1  -2    0.31    0.15
  -6   2   2    7.77    0.31
  -6   2   2    7.88    0.29
  -5   2   2   14.38    0.43
  -4   2   2   11.73    0.35
  -4   2   2   11.79    0.36
  -4   2   2   11.51    0.35
   3  -2  -2   21.57    0.64
  -3   2   2   21.13    0.64
  -3   2   2   20.84    0.63
  -3   2   2   21.06    0.58
   2  -2  -2    1.50    0.09
  -2   2   2    1.61    0.09
   1  -2  -2   33.30    1.00
  -1   2   2   34.15    1.00
   0  -2  -2   13.75    0.42
   0   2   2   13.45    0.42
   0   2   2   11.81    0.40
  -1  -2  -2    2.71    0.10
  -1  -2  -2    2.73    0.12
   1   2   2    2.59    0.10
   1   2   2    2.65    0.12
   1   2   2    2.52    0.10
  -2  -2  -2   37.51    0.99
  -2  -2  -2   35.35    1.07
   2   2   2   33.40    1.06
   2   2   2   36.85    1.00
   2   2   2   36.98    1.05
  -3  -2  -2   19.59    0.61
  -3  -2  -2   19.54    0.59
   3   2   2   20.65    0.59
   3   2   2   20.14    0.60
  -4  -2  -2    1.76    0.08
  -4  -2  -2    1.49    0.16
  -4  -2  -2    1.76    0.11
  -5  -2  -2    0.08    0.10
  -5  -2  -2    0.16    0.06
  -6  -2  -2    2.38    0.18
  -6  -2  -2    2.42    0.28
  -6   3   2    1.22    0.09
  -6   3   2    1.01    0.11
  -6   3   2    0.99    0.12
  -5   3   2    1.19    0.09
   4  -3  -2   13.15    0.41
   4  -3  -2   13.26    0.43
  -4   3   2   13.37    0.42
  -4   3   2   13.57    0.43
  -4   3   2   13.59    0.38
   3  -3  -2   56.73    1.69
  -3   3   2   58.14    1.68
   2  -3  -2   28.14    0.88
  -2   3   2   29.21    0.87
   1  -3  -2    0.57    0.07
   1  -3  -2    0.54    0.03
  -1   3   2    0.58    0.07
   0  -3  -2   90.89    2.37
   0  -3  -2   91.21    2.61
   0   3   2   88.46    2.61
  -1  -3  -2    6.40    0.24
   1   3   2    6.04    0.22
   1   3   2    6.63    0.24
   1   3   2    6.10    0.20
  -2  -3  -2   16.39    0.46
  -2  -3  -2   15.17    0.51
   2   3   2   15.05    0.48
   2   3   2   15.79    0.47
   2   3   2   15.41    0.50
  -3  -3  -2   52.44    1.46
  -3  -3  -2   51.14    1.43
  -3  -3  -2   50.28    1.53
   3   3   2   53.52    1.50
  -4  -3  -2    1.29    0.16
  -4  -3  -2    0.95    0.09
  -4  -3  -2    0.97    0.09
  -5  -3  -2    7.34    0.36
  -5  -3  -2    7.13    0.28
  -6  -3  -2    4.76    0.36
  -6  -3  -2    5.01    0.25
  -5   4   2    2.86    0.15
  -5   4   2    3.97    0.16
   4  -4  -2   12.68    0.45
  -4   4   2   13.05    0.43
  -4   4   2   13.14    0.43
   3  -4  -2   23.53    0.75
  -3   4   2   23.38    0.74
   2  -4  -2   34.79    1.09
  -2   4   2   36.19    1.08
   1  -4  -2    4.29    0.20
   1  -4  -2    4.23    0.14
  -1   4   2    4.71    0.20
   0  -4  -2    4.73    0.17
   0  -4  -2    4.41    0.20
   0   4   2    4.54    0.20
  -1  -4  -2    0.09    0.04
  -1  -4  -2    0.22    0.06
   1   4   2    0.09    0.02
   1   4   2    0.08    0.04
  -2  -4  -2    0.15    0.06
  -2  -4  -2    0.19    0.03
  -2  -4  -2    0.12    0.05
   2   4   2    0.16    0.04
   2   4   2    0.09    0.04
   2   4   2    0.11    0.04
  -3  -4  -2    2.39    0.17
  -3  -4  -2    2.58    0.12
  -3  -4  -2    2.47    0.16
   3   4   2    2.67    0.14
   3   4   2    2.49    0.14
   3   4   2    2.51    0.12
  -4  -4  -2    0.15    0.08
  -4  -4  -2    0.12    0.04
  -4  -4  -2    0.14    0.06
   4   4   2    0.07    0.04
   4   4   2    0.21    0.05
  -5  -4  -2    3.52    0.18
  -5  -4  -2    3.87    0.27
  -6   5   2    0.19    0.07
   5  -5  -2    3.33    0.23
   5  -5  -2    3.16    0.16
  -5   5   2    3.25    0.17
  -5   5   2    3.13    0.18
   4  -5  -2    2.68    0.19
  -4   5   2    2.66    0.16
   3  -5  -2   11.56    0.44
  -3   5   2   11.94    0.42
   2  -5  -2   82.81    2.17
   2  -5  -2   83.11    2.47
  -2   5   2   84.61    2.45
   1  -5  -2   -0.03    0.05
   1  -5  -2    0.00    0.02
  -1   5   2   -0.03    0.03
   0  -5  -2    0.99    0.11
   0  -5  -2    0.85    0.07
   0   5   2    0.81    0.10
  -1  -5  -2  167.34    4.36
  -1  -5  -2  162.29    4.77
   1   5   2  161.31    4.40
   1   5   2  170.27    4.76
  -2  -5  -2    1.29    0.13
  -2  -5  -2    1.44    0.13
   2   5   2    1.66    0.11
   2   5   2    1.60    0.12
   2   5   2    1.65    0.10
  -3  -5  -2    1.35    0.15
  -3  -5  -2    1.51    0.15
   3   5   2    1.42    0.11
   3   5   2    1.51    0.12
   3   5   2    1.54    0.12
  -4  -5  -2    5.06    0.25
  -4  -5  -2    5.35    0.29
  -4  -5  -2    5.28    0.22
   4   5   2    5.18    0.21
   4   5   2    5.09    0.22
  -5  -5  -2    2.01    0.25
  -5  -5  -2    1.34    0.15
  -5  -5  -2    1.81    0.14
   5  -6  -2    2.59    0.25
  -5   6   2    2.83    0.19
  -5   6   2    2.85    0.20
  -4   6   2    4.23    0.22
   3  -6  -2    6.04    0.30
  -3   6   2    5.85    0.27
   2  -6  -2    9.05    0.38
   2  -6  -2    8.88    0.25
  -2   6   2    8.84    0.35
   1  -6  -2   10.15    0.41
   1  -6  -2    9.97    0.30
  -1   6   2   10.31    0.39
   0  -6  -2   25.17    0.82
   0  -6  -2   24.33    0.70
   0   6   2   23.93    0.80
  -1  -6  -2   10.63    0.42
  -1  -6  -2   10.80    0.36
   1   6   2   10.56    0.40
   1   6   2   10.25    0.34
  -2  -6  -2   15.85    0.59
  -2  -6  -2   16.82    0.54
   2   6   2   16.07    0.56
   2   6   2   16.27    0.54
   2   6   2   16.15    0.50
  -3  -6  -2    3.46    0.24
  -3  -6  -2    3.58    0.22
   3   6   2    3.79    0.21
   3   6   2    3.77    0.19
   3   6   2    3.85    0.19
  -4  -6  -2    5.65    0.31
  -4  -6  -2    5.70    0.33
   4   6   2    5.78    0.28
   4   6   2    5.59    0.25
   4   6   2    5.83    0.24
  -5  -6  -2    1.15    0.17
  -5  -6  -2    0.65    0.14
   5  -7  -2    2.85    0.32
   5  -7  -2    2.33    0.19
  -5   7   2    2.93    0.21
  -5   7   2    2.71    0.23
   4  -7  -2    9.36    0.45
  -4   7   2   10.20    0.41
  -3   7   2    0.18    0.07
   2  -7  -2   27.53    0.74
  -2   7   2   27.54    0.90
   1  -7  -2   21.82    0.63
   1  -7  -2   23.12    0.79
  -1   7   2   22.45    0.76
   0  -7  -2    6.39    0.23
   0  -7  -2    6.21    0.31
   0   7   2    6.08    0.29
  -1  -7  -2   17.99    0.57
  -1  -7  -2   18.65    0.67
   1   7   2   18.62    0.55
   1   7   2   17.71    0.63
  -2  -7  -2   47.09    1.51
  -2  -7  -2   47.84    1.37
   2   7   2   49.64    1.45
   2   7   2   48.40    1.35
   2   7   2   46.74    1.47
  -3  -7  -2    0.11    0.12
  -3  -7  -2    0.28    0.08
   3   7   2    0.20    0.09
  -4  -7  -2    2.64    0.26
  -4  -7  -2    2.71    0.23
   4   7   2    2.32    0.22
   4   7   2    2.12    0.19
   4   7   2    2.18    0.18
  -5   8   2    1.12    0.15
   4  -8  -2   11.67    0.56
  -4   8   2   13.04    0.50
   3  -8  -2    1.17    0.18
  -3   8   2    0.89    0.12
   2  -8  -2    2.29    0.10
  -2   8   2    2.39    0.20
   1  -8  -2    3.39    0.14
   1  -8  -2    3.69    0.26
  -1   8   2    3.04    0.22
   0  -8  -2    2.96    0.15
   0  -8  -2    2.68    0.24
   0   8   2    2.74    0.21
  -1  -8  -2    8.38    0.31
  -1  -8  -2    6.20    0.37
   1   8   2    7.73    0.36
   1   8   2    8.34    0.29
  -2  -8  -2   -0.17    0.11
  -2  -8  -2    0.13    0.07
   2   8   2    0.06    0.09
   2   8   2   -0.08    0.07
  -3  -8  -2    4.66    0.35
  -3  -8  -2    5.62    0.29
   3   8   2    5.63    0.28
   3   8   2    5.67    0.28
   3   8   2    5.40    0.30
  -4  -8  -2    2.90    0.25
  -4  -8  -2    2.26    0.25
   4   8   2    2.44    0.23
   4   8   2    2.42    0.23
  -4   9   2    4.47    0.29
   3  -9  -2    2.19    0.26
  -3   9   2    2.10    0.22
   2  -9  -2    5.44    0.19
  -2   9   2    5.76    0.32
   1  -9  -2    0.50    0.14
   1  -9  -2    0.45    0.07
  -1   9   2    0.44    0.11
   0  -9  -2    0.71    0.09
   0  -9  -2    0.75    0.16
   0   9   2    0.93    0.15
  -1  -9  -2    0.65    0.10
  -1  -9  -2    0.44    0.16
   1   9   2    0.77    0.14
   1   9   2    0.53    0.07
  -2  -9  -2    2.73    0.20
  -2  -9  -2    2.52    0.31
   2   9   2    2.50    0.18
   2   9   2    2.39    0.21
   2   9   2    2.57    0.24
  -3  -9  -2    9.00    0.52
  -3  -9  -2   10.49    0.43
   3   9   2   10.46    0.46
  -4  10   2    1.15    0.19
  -3  10   2   27.95    0.98
   2 -10  -2    2.83    0.36
   2 -10  -2    3.23    0.14
  -2  10   2    3.43    0.27
   1 -10  -2    8.44    0.49
   1 -10  -2    8.66    0.30
  -1  10   2    8.51    0.42
   0 -10  -2   12.37    0.60
   0 -10  -2   12.45    0.41
   0  10   2   10.71    0.51
  -1 -10  -2    1.76    0.25
  -1 -10  -2    1.68    0.17
   1  10   2    1.58    0.16
   1  10   2    1.42    0.18
  -2 -10  -2    6.58    0.33
  -2 -10  -2    5.91    0.47
   2  10   2    6.71    0.39
  -3 -10  -2   -0.12    0.24
  -3 -10  -2    0.02    0.13
   3  10   2    0.08    0.13
  -3  11   2    4.22    0.34
   2 -11  -2    1.78    0.13
  -2  11   2    2.01    0.26
   1 -11  -2    0.93    0.12
  -1  11   2    0.92    0.16
   0 -11  -2    4.73    0.23
   0 -11  -2    5.58    0.49
   0  11   2    4.82    0.36
  -1 -11  -2    0.11    0.26
  -1 -11  -2   -0.02    0.09
   1  11   2   -0.06    0.14
  -2 -11  -2    2.05    0.24
  -2 -11  -2    1.96    0.34
   2  11   2    1.66    0.22
   1 -12  -2    1.53    0.15
  -1  12   2    1.49    0.22
   0 -12  -2    2.39    0.19
   0  12   2    1.73    0.22
   1  12  -3    0.04    0.15
  -1 -12   3    0.05    0.29
  -1 -12   3    0.14    0.10
   0  12  -3    2.07    0.28
   0 -12   3    2.35    0.18
  -1  12  -3    0.68    0.18
  -1  12  -3    0.51    0.20
   1 -12   3    0.48    0.09
  -2  12  -3    7.69    0.44
  -2  12  -3    7.70    0.44
   2 -12   3    7.51    0.30
   2 -12   3    7.37    0.41
   2  11  -3    3.80    0.31
  -2 -11   3    4.04    0.24
  -2 -11   3    3.99    0.48
   1  11  -3    0.74    0.16
  -1 -11   3    0.85    0.21
  -1 -11   3    0.66    0.11
   0  11  -3    7.94    0.43
   0  11  -3    8.82    0.42
   0 -11   3    7.38    0.50
   0 -11   3    8.30    0.32
  -1  11  -3    1.52    0.19
  -1  11  -3    1.62    0.22
   1 -11   3    1.28    0.13
   1 -11   3    1.34    0.25
  -2  11  -3    0.44    0.14
  -2  11  -3    0.33    0.13
   2 -11   3    0.44    0.08
   2 -11   3    0.38    0.11
  -3  11  -3    1.42    0.18
  -3  11  -3    2.19    0.26
   3 -11   3    1.64    0.21
   3  10  -3   -0.11    0.11
   3  10  -3    0.17    0.12
  -3 -10   3    0.24    0.21
  -3 -10   3    0.22    0.11
   2  10  -3    8.18    0.33
   2  10  -3    7.86    0.38
  -2 -10   3    8.27    0.48
  -2 -10   3    7.80    0.33
   1  10  -3    0.31    0.16
   1  10  -3    0.51    0.11
  -1 -10   3    0.40    0.16
  -1 -10   3    0.27    0.08
   0  10  -3    5.42    0.31
   0  10  -3    5.11    0.30
   0 -10   3    5.04    0.22
   0 -10   3    4.59    0.36
  -1  10  -3    7.16    0.33
  -1  10  -3    6.83    0.35
   1 -10   3    7.22    0.42
   1 -10   3    6.51    0.26
  -2  10  -3    1.93    0.21
  -2  10  -3    1.71    0.19
   2 -10   3    1.75    0.12
   2 -10   3    1.56    0.23
  -3  10  -3   10.88    0.46
  -3  10  -3   10.55    0.39
   3 -10   3   10.91    0.48
  -4  10  -3    0.50    0.14
   4 -10   3    0.34    0.16
   4   9  -3    0.22    0.13
  -4  -9   3   -0.03    0.10
  -4  -9   3    0.08    0.12
   3   9  -3    0.30    0.10
   3   9  -3    0.01    0.09
  -3  -9   3    0.41    0.18
  -3  -9   3    0.26    0.10
   2   9  -3    0.91    0.18
   2   9  -3    0.85    0.12
  -2  -9   3    1.29    0.14
  -2  -9   3    1.17    0.19
   1   9  -3    1.98    0.23
   1   9  -3    2.07    0.19
  -1  -9   3    2.06    0.14
  -1  -9   3    2.21    0.26
   0   9  -3    0.05    0.08
   0   9  -3    0.08    0.07
   0  -9   3    0.07    0.11
   0  -9   3    0.08    0.05
  -1   9  -3    6.44    0.31
  -1   9  -3    6.19    0.28
   1  -9   3    6.65    0.24
   1  -9   3    6.68    0.36
  -2   9  -3    0.28    0.08
  -2   9  -3    0.28    0.09
   2  -9   3    0.27    0.06
  -3   9  -3    0.46    0.11
  -3   9  -3    0.61    0.09
   3  -9   3    0.07    0.15
   3  -9   3    0.27    0.08
  -4   9  -3   -0.06    0.09
  -4   9  -3   -0.13    0.09
   4  -9   3   -0.13    0.10
   4   8  -3    4.20    0.25
   4   8  -3    4.42    0.24
   4   8  -3    4.13    0.25
  -4  -8   3    4.32    0.24
  -4  -8   3    4.14    0.33
  -4  -8   3    4.82    0.27
   3   8  -3    2.24    0.18
   3   8  -3    2.36    0.16
  -3  -8   3    2.04    0.26
  -3  -8   3    2.66    0.19
   2   8  -3    1.42    0.11
   2   8  -3    1.31    0.15
  -2  -8   3    1.30    0.17
  -2  -8   3    1.34    0.13
   1   8  -3    7.49    0.33
   1   8  -3    8.07    0.34
  -1  -8   3    7.57    0.37
  -1  -8   3    7.52    0.29
   0   8  -3    1.92    0.16
   0   8  -3    1.78    0.15
   0  -8   3    1.85    0.11
   0  -8   3    1.93    0.20
  -1   8  -3   13.42    0.48
  -1   8  -3   10.76    0.40
   1  -8   3   13.07    0.51
   1  -8   3   12.97    0.39
  -2   8  -3    0.27    0.08
  -2   8  -3    0.31    0.07
   2  -8   3    0.35    0.05
  -3   8  -3    0.78    0.09
  -3   8  -3    0.55    0.10
   3  -8   3    0.57    0.15
   3  -8   3    0.54    0.10
  -4   8  -3   12.39    0.48
  -4   8  -3   12.60    0.40
   4  -8   3   12.80    0.50
   4  -8   3   12.35    0.56
  -5   8  -3    0.33    0.12
  -5  -7   3    3.09    0.20
  -5  -7   3    3.87    0.29
   4   7  -3   32.72    1.00
   4   7  -3   33.46    0.97
  -4  -7   3   33.10    0.99
  -4  -7   3   32.40    1.02
  -4  -7   3   31.83    1.06
   3   7  -3    7.83    0.28
   3   7  -3    7.28    0.30
  -3  -7   3    6.87    0.30
  -3  -7   3    7.88    0.35
   2   7  -3    3.13    0.15
   2   7  -3    3.78    0.20
  -2  -7   3    3.91    0.23
  -2  -7   3    3.71    0.19
   1   7  -3    1.81    0.14
   1   7  -3    1.84    0.15
  -1  -7   3    1.72    0.16
  -1  -7   3    1.82    0.12
   0   7  -3    0.35    0.07
   0   7  -3    0.34    0.07
   0  -7   3    0.30    0.05
   0  -7   3    0.35    0.08
  -1   7  -3    2.47    0.13
  -1   7  -3    2.36    0.16
   1  -7   3    2.48    0.18
   1  -7   3    2.40    0.11
  -2   7  -3   13.42    0.41
  -2   7  -3   13.35    0.48
   2  -7   3   13.34    0.48
   2  -7   3   13.17    0.40
   2  -7   3   13.62    0.52
  -3   7  -3   17.86    0.61
  -3   7  -3   18.06    0.52
   3  -7   3   17.65    0.62
  -4   7  -3   14.94    0.45
  -4   7  -3   14.91    0.54
   4  -7   3   14.96    0.59
   4  -7   3   15.41    0.55
  -5   7  -3    0.22    0.08
  -5   7  -3    0.07    0.08
   5  -7   3    0.08    0.11
   5  -7   3    0.12    0.17
  -5  -6   3    0.01    0.08
  -5  -6   3    0.15    0.07
  -5  -6   3    0.07    0.12
   4   6  -3   27.96    0.82
   4   6  -3   27.92    0.84
   4   6  -3   26.50    0.83
  -4  -6   3   28.18    0.87
  -4  -6   3   26.96    0.89
  -4  -6   3   28.91    0.86
   3   6  -3    3.72    0.17
   3   6  -3    3.28    0.16
  -3  -6   3    3.92    0.22
  -3  -6   3    3.60    0.20
  -3  -6   3    3.93    0.18
   2   6  -3    0.39    0.07
   2   6  -3    0.33    0.05
   2   6  -3    0.46    0.10
  -2  -6   3    0.44    0.08
  -2  -6   3    0.40    0.07
   1   6  -3   10.25    0.35
   1   6  -3    9.72    0.36
  -1  -6   3   10.00    0.33
  -1  -6   3    9.94    0.38
   0   6  -3   40.35    1.13
   0   6  -3   41.53    1.24
   0  -6   3   41.83    1.26
   0  -6   3   40.25    1.12
  -1   6  -3    7.10    0.29
  -1   6  -3    7.15    0.24
   1  -6   3    7.36    0.30
   1  -6   3    7.19    0.23
  -2   6  -3   11.69    0.35
  -2   6  -3   11.11    0.41
   2  -6   3   11.30    0.43
   2  -6   3   11.42    0.41
  -3   6  -3    0.07    0.03
  -3   6  -3    0.17    0.06
   3  -6   3    0.17    0.08
  -4   6  -3    0.51    0.08
  -4   6  -3    0.53    0.06
   4  -6   3    0.48    0.08
  -5   6  -3    3.75    0.21
  -5   6  -3    3.59    0.17
   5  -6   3    3.42    0.23
   5  -6   3    3.75    0.28
  -5  -5   3    0.12    0.10
   4   5  -3    4.49    0.17
   4   5  -3    4.23    0.16
  -4  -5   3    4.59    0.22
  -4  -5   3    4.36    0.18
  -4  -5   3    4.52    0.24
   3   5  -3   96.02    2.56
  -3  -5   3   92.08    2.55
  -3  -5   3   96.28    2.75
  -3  -5   3   94.82    2.76
   2   5  -3   54.78    1.52
   2   5  -3   53.56    1.49
   2   5  -3   55.51    1.61
  -2  -5   3   55.82    1.63
  -2  -5   3   54.00    1.50
   1   5  -3   46.58    1.26
   1   5  -3   46.47    1.36
  -1  -5   3   45.69    1.37
  -1  -5   3   43.88    1.24
   0   5  -3    2.36    0.13
   0   5  -3    2.55    0.12
   0  -5   3    2.47    0.11
   0  -5   3    2.45    0.14
  -1   5  -3   23.96    0.74
  -1   5  -3   24.06    0.66
   1  -5   3   23.14    0.75
   1  -5   3   23.42    0.65
  -2   5  -3   14.60    0.41
  -2   5  -3   14.34    0.48
   2  -5   3   13.99    0.49
   2  -5   3   14.01    0.48
  -3   5  -3   31.62    0.96
  -3   5  -3   31.32    0.85
   3  -5   3   30.76    0.97
   3  -5   3   31.12    0.98
  -4   5  -3    6.04    0.25
  -4   5  -3    5.96    0.21
   4  -5   3    5.95    0.28
   4  -5   3    6.00    0.26
  -5   5  -3    9.38    0.35
  -5   5  -3    9.54    0.31
  -5  -4   3   11.77    0.44
  -4  -4   3    1.22    0.13
  -4  -4   3    0.91    0.10
  -4  -4   3    0.95    0.08
   3   4  -3   35.21    0.98
  -3  -4   3   34.47    0.99
  -3  -4   3   35.55    1.04
  -3  -4   3   34.75    1.05
   2   4  -3    0.26    0.06
   2   4  -3    0.13    0.03
   2   4  -3    0.12    0.03
  -2  -4   3    0.16    0.03
  -2  -4   3    0.16    0.04
  -2  -4   3    0.11    0.04
   1   4  -3    9.81    0.33
   1   4  -3    9.83    0.32
  -1  -4   3    9.57    0.31
  -1  -4   3   10.33    0.34
   0   4  -3    2.36    0.10
   0   4  -3    2.41    0.12
   0  -4   3    2.32    0.10
   0  -4   3    2.62    0.13
  -1   4  -3    0.55    0.04
  -1   4  -3    0.48    0.06
   1  -4   3    0.53    0.07
   1  -4   3    0.59    0.06
   1  -4   3    0.55    0.04
  -2   4  -3   27.76    0.73
  -2   4  -3   26.58    0.82
   2  -4   3   27.34    0.83
   2  -4   3   25.73    0.82
  -3   4  -3   41.09    1.12
  -3   4  -3   41.56    1.24
   3  -4   3   42.06    1.25
   3  -4   3   41.79    1.25
  -4   4  -3    1.51    0.11
  -4   4  -3    1.40    0.09
   4  -4   3    1.56    0.14
   4  -4   3    1.66    0.13
  -5   4  -3    1.99    0.13
  -5   4  -3    2.24    0.13
   5  -4   3    2.09    0.16
   5  -4   3    2.13    0.17
  -6   4  -3    4.25    0.22
  -6  -3   3    0.33    0.13
  -5  -3   3    4.85    0.19
  -5  -3   3    4.63    0.25
  -4  -3   3    0.01    0.06
  -4  -3   3    0.06    0.03
   3   3  -3    0.74    0.05
  -3  -3   3    0.84    0.06
  -3  -3   3    0.71    0.07
  -3  -3   3    0.81    0.08
   2   3  -3  358.99    9.58
   2   3  -3  347.16   10.27
   2   3  -3  364.69    9.45
  -2  -3   3  361.06   10.26
  -2  -3   3  364.43   10.29
  -2  -3   3  358.97    9.49
   1   3  -3    6.06    0.21
   1   3  -3    6.18    0.21
  -1  -3   3    6.27    0.22
  -1  -3   3    5.92    0.22
   0   3  -3   73.22    2.09
   0   3  -3   73.46    1.91
   0  -3   3   74.59    1.91
   0  -3   3   68.96    2.09
   0  -3   3   72.29    2.09
  -1   3  -3   56.12    1.46
  -1   3  -3   53.52    1.60
   1  -3   3   53.99    1.60
   1  -3   3   55.88    1.61
   1  -3   3   56.00    1.46
  -2   3  -3    4.07    0.14
  -2   3  -3    4.04    0.16
   2  -3   3    4.01    0.17
   2  -3   3    3.88    0.17
  -3   3  -3   18.83    0.57
   3  -3   3   18.75    0.58
   3  -3   3   17.61    0.58
  -4   3  -3   15.79    0.51
   4  -3   3   16.24    0.52
  -5   3  -3    1.29    0.10
  -6   3  -3    7.69    0.34
  -6  -2   3    3.74    0.18
  -6  -2   3    3.52    0.25
  -5  -2   3    1.28    0.10
  -5  -2   3    1.35    0.15
  -4  -2   3    0.81    0.06
  -4  -2   3    0.84    0.10
  -3  -2   3    1.43    0.07
  -3  -2   3    1.35    0.09
  -3  -2   3    1.43    0.07
   2   2  -3   32.83    0.92
   2   2  -3   33.68    0.90
  -2  -2   3   32.06    0.91
  -2  -2   3   31.77    0.97
  -2  -2   3   35.60    0.98
   1   2  -3    2.12    0.09
   1   2  -3    2.20    0.09
  -1  -2   3    2.20    0.09
  -1  -2   3    2.12    0.09
  -1  -2   3    2.09    0.09
   0   2  -3   20.79    0.64
   0   2  -3   22.51    0.64
   0  -2   3   20.78    0.58
   0  -2   3   21.53    0.64
  -1   2  -3   11.04    0.37
  -1   2  -3   11.52    0.36
  -1   2  -3   11.89    0.33
   1  -2   3   11.33    0.36
   1  -2   3   11.91    0.37
  -2   2  -3    8.65    0.28
   2  -2   3    8.61    0.28
   2  -2   3    8.46    0.29
  -3   2  -3    3.62    0.14
   3  -2   3    3.63    0.15
   3  -2   3    3.48    0.16
  -4   2  -3   10.43    0.33
   4  -2   3   10.25    0.33
   4  -2   3    9.69    0.33
  -5   2  -3   15.94    0.47
  -5   2  -3   15.11    0.52
  -6   2  -3    1.89    0.20
  -6   2  -3    1.75    0.18
  -6  -1   3    1.48    0.19
  -6  -1   3    1.50    0.13
  -5  -1   3    3.52    0.15
  -5  -1   3    3.51    0.19
  -4  -1   3    2.39    0.13
  -4  -1   3    2.22    0.10
  -3  -1   3    8.49    0.26
  -3  -1   3    8.59    0.28
   2   1  -3    6.53    0.21
   2   1  -3    6.85    0.23
  -2  -1   3    6.83    0.20
  -2  -1   3    7.80    0.22
  -2  -1   3    6.39    0.21
  -2  -1   3    7.00    0.23
   1   1  -3   78.59    2.06
   1   1  -3   78.44    2.26
   1   1  -3   80.96    2.25
   1   1  -3   76.51    2.09
  -1  -1   3   76.44    2.27
  -1  -1   3   78.79    2.08
  -1  -1   3   80.72    2.25
   0   1  -3   41.35    1.16
   0   1  -3   39.13    1.06
   0   1  -3   38.70    1.17
   0  -1   3   40.36    1.17
   0  -1   3   41.18    1.16
  -1   1  -3   36.77    1.12
  -1   1  -3   39.57    1.12
   1  -1   3   39.01    1.13
   1  -1   3   38.41    1.11
  -2   1  -3   11.63    0.35
  -2   1  -3   10.87    0.35
   2  -1   3   10.96    0.36
   2  -1   3   11.14    0.35
  -3   1  -3    0.09    0.03
  -3   1  -3    0.10    0.03
   3  -1   3    0.15    0.03
  -4   1  -3    1.16    0.07
  -4   1  -3    1.02    0.09
  -5   1  -3    0.70    0.09
  -6   1  -3    1.57    0.16
  -6   1  -3    1.90    0.21
  -6   0   3    7.89    0.29
  -6   0   3    8.10    0.31
  -5   0   3   31.03    0.88
  -5   0   3   30.34    0.87
  -4   0   3    0.63    0.08
  -4   0   3    0.69    0.06
  -3   0   3    0.85    0.05
  -3   0   3    0.94    0.05
  -3   0   3    0.86    0.04
  -3   0   3    0.88    0.06
   2   0  -3   22.05    0.69
   2   0  -3   24.25    0.70
   2   0  -3   23.65    0.65
  -2   0   3   23.57    0.64
  -2   0   3   24.01    0.69
  -2   0   3   25.47    0.71
   1   0  -3   54.12    1.60
   1   0  -3   56.42    1.60
   1   0  -3   54.46    1.45
  -1   0   3   56.13    1.59
  -1   0   3   55.35    1.45
  -1   0   3   56.02    1.60
   0   0  -3  127.17    3.70
   0   0  -3  122.94    3.39
   0   0   3  130.98    3.62
   0   0   3  125.78    3.68
  -1   0  -3  303.84    8.02
  -1   0  -3  285.99    8.57
  -1   0  -3  313.24    8.56
   1   0   3  295.38    8.58
   1   0   3  292.93    8.54
  -2   0  -3   27.47    0.77
  -2   0  -3   29.27    0.81
  -2   0  -3   27.94    0.82
   2   0   3   25.08    0.82
   2   0   3   27.29    0.80
  -3   0  -3    2.09    0.10
  -3   0  -3    2.17    0.11
  -3   0  -3    2.13    0.09
   3   0   3    2.11    0.11
   3   0   3    2.10    0.09
  -4   0  -3   13.28    0.40
  -4   0  -3   12.89    0.43
  -5   0  -3   20.08    0.64
  -6   0  -3    9.55    0.44
  -6   0  -3    9.66    0.38
  -6   1   3    0.28    0.07
  -6   1   3    0.17    0.08
  -5   1   3    0.46    0.06
  -5   1   3    0.55    0.07
  -4   1   3    9.39    0.29
   3  -1  -3   16.42    0.47
  -3   1   3   15.65    0.47
  -3   1   3   16.23    0.48
  -3   1   3   15.37    0.44
   2  -1  -3  100.81    2.84
  -2   1   3   94.17    2.83
  -2   1   3  102.13    2.84
  -2   1   3   99.16    2.58
   1  -1  -3  124.38    3.28
   1  -1  -3  119.81    3.64
   1  -1  -3  128.23    3.59
  -1   1   3  129.73    3.65
  -1   1   3  126.34    3.66
   0  -1  -3    4.79    0.19
   0  -1  -3    5.24    0.17
   0  -1  -3    5.33    0.15
   0   1   3    5.21    0.17
   0   1   3    5.23    0.19
   0   1   3    5.10    0.15
  -1  -1  -3    1.69    0.08
  -1  -1  -3    1.70    0.07
  -1  -1  -3    1.70    0.09
   1   1   3    1.68    0.08
   1   1   3    1.77    0.10
   1   1   3    1.68    0.08
  -2  -1  -3    0.49    0.06
  -2  -1  -3    0.48    0.04
  -2  -1  -3    0.43    0.04
   2   1   3    0.48    0.04
   2   1   3    0.50    0.06
  -3  -1  -3    0.17    0.03
  -3  -1  -3    0.13    0.03
  -3  -1  -3    0.12    0.04
   3   1   3    0.16    0.03
   3   1   3    0.12    0.04
  -4  -1  -3   16.35    0.52
  -4  -1  -3   16.76    0.50
  -5  -1  -3    9.35    0.39
  -5  -1  -3    8.22    0.32
  -6  -1  -3    0.13    0.16
  -6  -1  -3    0.04    0.08
  -6   2   3    0.69    0.08
  -6   2   3    0.72    0.09
  -5   2   3    6.79    0.23
  -4   2   3   58.84    1.67
  -4   2   3   56.22    1.54
  -4   2   3   59.72    1.68
   3  -2  -3    8.37    0.28
  -3   2   3    7.67    0.26
  -3   2   3    7.83    0.27
  -3   2   3    7.67    0.22
   2  -2  -3    3.68    0.16
  -2   2   3    3.79    0.16
  -2   2   3    3.64    0.14
   1  -2  -3   13.57    0.45
  -1   2   3   13.92    0.45
  -1   2   3   13.73    0.42
   0  -2  -3  183.76    5.26
   0   2   3  179.87    4.93
   0   2   3  185.60    5.26
  -1  -2  -3    0.00    0.02
  -1  -2  -3   -0.01    0.03
  -1  -2  -3   -0.01    0.01
   1   2   3   -0.01    0.02
   1   2   3    0.01    0.02
  -2  -2  -3    0.77    0.05
  -2  -2  -3    0.85    0.07
   2   2   3    0.80    0.06
   2   2   3    0.85    0.08
   2   2   3    0.76    0.06
  -3  -2  -3    0.18    0.04
  -3  -2  -3    0.15    0.04
   3   2   3    0.20    0.04
  -4  -2  -3    0.05    0.03
  -4  -2  -3    0.09    0.04
  -5  -2  -3    1.21    0.11
  -5  -2  -3    0.95    0.15
  -6  -2  -3    9.17    0.45
  -6  -2  -3    9.14    0.37
  -6   3   3    1.29    0.15
  -5   3   3    0.54    0.07
  -5   3   3    0.60    0.07
   4  -3  -3    0.31    0.06
  -4   3   3    0.39    0.06
  -4   3   3    0.32    0.05
   3  -3  -3    5.13    0.22
  -3   3   3    5.07    0.19
  -3   3   3    5.28    0.21
   2  -3  -3   11.61    0.40
  -2   3   3   11.71    0.38
  -2   3   3   11.51    0.40
   1  -3  -3    0.76    0.08
   1  -3  -3    0.49    0.03
  -1   3   3    0.49    0.07
   0  -3  -3  256.88    7.26
   0   3   3  249.40    7.34
   0   3   3  262.53    7.37
   0   3   3  250.05    6.86
  -1  -3  -3   14.67    0.42
  -1  -3  -3   13.82    0.49
   1   3   3   14.95    0.46
   1   3   3   14.43    0.48
   1   3   3   14.47    0.42
  -2  -3  -3   26.81    0.73
  -2  -3  -3   25.00    0.81
   2   3   3   26.05    0.74
   2   3   3   25.30    0.80
   2   3   3   25.77    0.77
  -3  -3  -3    0.49    0.08
  -3  -3  -3    0.52    0.06
   3   3   3    0.51    0.06
   3   3   3    0.44    0.06
  -4  -3  -3    1.78    0.18
  -4  -3  -3    2.26    0.13
  -4  -3  -3    2.26    0.14
   4   3   3    2.33    0.10
   4   3   3    2.25    0.11
  -5  -3  -3    8.57    0.32
  -5  -3  -3    8.38    0.40
  -5   4   3    4.48    0.20
  -5   4   3    4.69    0.19
   4  -4  -3   16.52    0.56
  -4   4   3   16.24    0.53
  -4   4   3   16.72    0.54
   3  -4  -3   31.52    0.95
  -3   4   3   29.79    0.93
  -3   4   3   29.15    0.91
   2  -4  -3    0.22    0.05
  -2   4   3    0.28    0.06
   1  -4  -3    0.84    0.10
   1  -4  -3    0.90    0.05
  -1   4   3    0.82    0.09
   0  -4  -3    2.95    0.16
   0  -4  -3    3.05    0.13
   0   4   3    2.78    0.16
  -1  -4  -3   54.07    1.57
  -1  -4  -3   52.54    1.43
   1   4   3   50.39    1.42
   1   4   3   51.77    1.56
   1   4   3   52.03    1.53
  -2  -4  -3    5.22    0.19
  -2  -4  -3    5.09    0.23
  -2  -4  -3    5.21    0.24
   2   4   3    4.94    0.20
   2   4   3    5.35    0.20
   2   4   3    5.11    0.22
  -3  -4  -3    8.21    0.34
  -3  -4  -3    7.75    0.28
  -3  -4  -3    8.02    0.34
   3   4   3    8.45    0.31
   3   4   3    7.95    0.30
   3   4   3    8.23    0.28
  -4  -4  -3    0.40    0.06
  -4  -4  -3    0.40    0.12
  -4  -4  -3    0.43    0.08
   4   4   3    0.48    0.06
   4   4   3    0.43    0.07
  -5  -4  -3    0.70    0.09
  -5  -4  -3    0.82    0.10
  -5  -4  -3    0.49    0.14
   5  -5  -3   11.86    0.43
   5  -5  -3   11.14    0.38
  -5   5   3   10.85    0.39
  -5   5   3   11.12    0.40
   4  -5  -3    2.04    0.18
  -4   5   3    1.93    0.14
  -4   5   3    1.89    0.15
   3  -5  -3   27.91    0.91
  -3   5   3   27.89    0.89
   2  -5  -3    0.93    0.12
  -2   5   3    0.96    0.11
   1  -5  -3    1.88    0.15
   1  -5  -3    1.96    0.09
  -1   5   3    2.05    0.14
   0  -5  -3   13.86    0.43
   0  -5  -3   13.82    0.51
   0   5   3   14.37    0.50
  -1  -5  -3   45.11    1.26
  -1  -5  -3   43.52    1.39
   1   5   3   44.10    1.37
   1   5   3   46.10    1.25
   1   5   3   46.65    1.35
  -2  -5  -3    2.94    0.20
  -2  -5  -3    3.07    0.18
   2   5   3    3.15    0.18
   2   5   3    3.04    0.15
   2   5   3    3.10    0.15
  -3  -5  -3   12.79    0.47
  -3  -5  -3   12.60    0.49
   3   5   3   13.10    0.46
   3   5   3   13.20    0.44
   3   5   3   13.49    0.44
  -4  -5  -3    0.04    0.09
  -4  -5  -3    0.00    0.08
  -4  -5  -3    0.07    0.05
   4   5   3    0.04    0.06
  -5  -5  -3    2.34    0.17
  -5  -5  -3    2.29    0.16
  -5  -5  -3    2.35    0.26
   5  -6  -3   12.98    0.46
   5  -6  -3   13.28    0.55
  -5   6   3   13.93    0.49
  -5   6   3   13.19    0.48
  -4   6   3    0.00    0.07
  -4   6   3    0.01    0.07
   3  -6  -3    1.38    0.17
  -3   6   3    1.31    0.14
   2  -6  -3   54.34    1.68
   2  -6  -3   54.74    1.42
  -2   6   3   53.95    1.65
   1  -6  -3    6.64    0.31
   1  -6  -3    6.30    0.21
  -1   6   3    6.00    0.28
   0  -6  -3   14.67    0.54
   0  -6  -3   14.16    0.44
   0   6   3   14.44    0.52
  -1  -6  -3    4.14    0.19
  -1  -6  -3    3.73    0.23
   1   6   3    3.82    0.22
   1   6   3    4.47    0.17
  -2  -6  -3    1.21    0.16
  -2  -6  -3    1.43    0.14
   2   6   3    1.59    0.15
   2   6   3    1.56    0.11
   2   6   3    1.73    0.13
  -3  -6  -3    6.95    0.34
  -3  -6  -3    7.01    0.32
   3   6   3    7.03    0.28
   3   6   3    7.08    0.31
  -4  -6  -3    8.48    0.38
  -4  -6  -3    7.97    0.37
   4   6   3    8.14    0.34
   4   6   3    6.64    0.31
  -5  -6  -3    3.55    0.32
   5  -7  -3    5.97    0.39
   5  -7  -3    6.06    0.28
  -5   7   3    6.51    0.32
  -5   7   3    6.17    0.31
   4  -7  -3   18.89    0.72
  -4   7   3   19.64    0.67
  -4   7   3   18.24    0.65
  -3   7   3    1.76    0.17
   2  -7  -3   79.90    2.11
  -2   7   3   81.29    2.41
   1  -7  -3    0.91    0.07
   1  -7  -3    0.78    0.12
  -1   7   3    1.01    0.14
   0  -7  -3    1.35    0.17
   0  -7  -3    1.28    0.10
   0   7   3    1.20    0.15
  -1  -7  -3    2.71    0.23
  -1  -7  -3    2.96    0.17
   1   7   3    2.86    0.15
   1   7   3    3.23    0.18
   1   7   3    2.81    0.20
  -2  -7  -3   10.47    0.40
  -2  -7  -3    9.91    0.45
   2   7   3   10.49    0.42
   2   7   3   10.75    0.37
   2   7   3   10.94    0.40
  -3  -7  -3    0.88    0.15
  -3  -7  -3    0.83    0.13
   3   7   3    0.82    0.11
   3   7   3    0.92    0.12
  -4  -7  -3    3.83    0.27
  -4  -7  -3    3.32    0.38
   4   7   3    3.41    0.22
   4   7   3    3.71    0.24
   4   7   3    3.10    0.25
  -5   8   3    3.16    0.26
   4  -8  -3   15.94    0.70
  -4   8   3   18.06    0.64
  -4   8   3   18.03    0.65
   3  -8  -3   -0.12    0.13
  -3   8   3    0.16    0.08
   2  -8  -3    1.56    0.08
  -2   8   3    1.70    0.19
   1  -8  -3   93.18    2.83
   1  -8  -3   92.81    2.48
  -1   8   3   94.32    2.79
   0  -8  -3    0.78    0.15
   0  -8  -3    0.54    0.07
   0   8   3    0.35    0.10
  -1  -8  -3   30.80    0.89
  -1  -8  -3   29.71    1.04
   1   8   3   29.89    1.00
  -2  -8  -3    6.04    0.28
  -2  -8  -3    5.70    0.35
   2   8   3    5.51    0.31
   2   8   3    5.54    0.28
  -3  -8  -3   -0.01    0.09
  -3  -8  -3    0.27    0.15
   3   8   3    0.11    0.10
   3   8   3    0.08    0.09
   3   8   3    0.08    0.11
  -4  -8  -3    0.71    0.15
  -4  -8  -3    0.86    0.19
   4   8   3    1.06    0.15
  -4   9   3    0.97    0.17
  -4   9   3    0.89    0.15
   3  -9  -3   14.61    0.66
  -3   9   3   15.77    0.61
   2  -9  -3    0.95    0.18
   2  -9  -3    1.37    0.08
  -2   9   3    1.26    0.17
   1  -9  -3   10.38    0.34
   1  -9  -3   10.72    0.52
  -1   9   3   10.79    0.47
   0  -9  -3    0.15    0.13
   0  -9  -3    0.39    0.07
   0   9   3    0.19    0.11
  -1  -9  -3    1.19    0.15
  -1  -9  -3    1.04    0.20
   1   9   3    1.35    0.17
   1   9   3    0.97    0.11
  -2  -9  -3    1.40    0.22
  -2  -9  -3    1.40    0.16
   2   9   3    0.84    0.11
   2   9   3    1.23    0.15
   2   9   3    1.10    0.17
  -3  -9  -3    0.91    0.14
  -3  -9  -3    1.22    0.22
   3   9   3    0.74    0.16
  -3  10   3   13.33    0.58
   2 -10  -3    0.13    0.05
  -2  10   3    0.14    0.13
   1 -10  -3    2.16    0.14
   1 -10  -3    2.15    0.26
  -1  10   3    2.07    0.24
   0 -10  -3   41.79    1.41
   0 -10  -3   40.51    1.16
   0  10   3   39.87    1.34
   0  10   3   40.71    1.18
  -1 -10  -3    0.13    0.20
  -1 -10  -3    0.12    0.08
   1  10   3    0.07    0.13
   1  10   3   -0.06    0.08
   1  10   3    0.31    0.14
  -2 -10  -3    9.57    0.41
  -2 -10  -3    8.99    0.55
   2  10   3    9.80    0.48
  -3 -10  -3    1.60    0.20
  -3 -10  -3    2.30    0.37
   3  10   3    2.22    0.25
  -3  11   3    0.51    0.15
   2 -11  -3    2.75    0.14
  -2  11   3    2.58    0.30
   1 -11  -3    1.48    0.13
  -1  11   3    1.20    0.19
   0 -11  -3    4.39    0.50
   0 -11  -3    6.12    0.27
   0  11   3    6.19    0.40
  -1 -11  -3   -0.23    0.23
  -1 -11  -3    0.12    0.10
   1  11   3    0.01    0.14
  -2 -11  -3    2.50    0.26
  -2 -11  -3    1.85    0.33
   2  11   3    2.55    0.36
   1 -12  -3    0.01    0.08
  -1  12   3    0.18    0.18
   0 -12  -3    0.41    0.11
   0  12   3    0.42    0.20
   1  12  -4    2.12    0.30
  -1 -12   4    2.53    0.26
  -1 -12   4    2.33    0.21
  -1 -12   4    1.93    0.33
   0  12  -4    1.46    0.20
   0 -12   4    0.90    0.17
   0 -12   4    1.49    0.16
  -1  12  -4    1.61    0.21
  -1  12  -4    1.26    0.22
   1 -12   4    1.35    0.16
   1 -12   4    2.21    0.25
  -2  12  -4    1.18    0.18
  -2  12  -4    1.37    0.24
   2 -12   4    1.50    0.16
   2 -12   4    1.29    0.20
   2  11  -4    0.60    0.16
  -2 -11   4    0.54    0.24
  -2 -11   4    0.44    0.11
  -2 -11   4    0.36    0.10
   1  11  -4    1.39    0.17
  -1 -11   4    1.30    0.16
  -1 -11   4    1.14    0.23
   0  11  -4    6.74    0.40
   0  11  -4    7.24    0.39
   0 -11   4    7.38    0.29
   0 -11   4    6.56    0.49
  -1  11  -4    0.59    0.15
  -1  11  -4    0.39    0.12
   1 -11   4    0.32    0.10
   1 -11   4    0.62    0.21
   1 -11   4    0.49    0.09
  -2  11  -4    3.94    0.29
  -2  11  -4    3.87    0.29
   2 -11   4    3.98    0.20
   2 -11   4    3.74    0.27
  -3  11  -4    4.17    0.30
  -3  11  -4    3.79    0.29
   3 -11   4    3.43    0.31
   3  10  -4    2.48    0.24
   3  10  -4    2.08    0.22
  -3 -10   4    2.34    0.30
  -3 -10   4    2.33    0.22
  -3 -10   4    1.48    0.20
   2  10  -4    0.34    0.11
   2  10  -4    0.30    0.09
  -2 -10   4    0.24    0.09
  -2 -10   4    0.13    0.18
  -2 -10   4    0.44    0.10
   1  10  -4    0.51    0.16
   1  10  -4    0.29    0.10
  -1 -10   4    0.32    0.07
  -1 -10   4    0.35    0.17
   0  10  -4    6.65    0.34
   0  10  -4    6.53    0.34
   0 -10   4    6.36    0.26
   0 -10   4    6.82    0.40
  -1  10  -4   -0.03    0.10
  -1  10  -4   -0.01    0.09
   1 -10   4    0.09    0.05
   1 -10   4    0.11    0.16
   1 -10   4    0.19    0.09
  -2  10  -4   22.48    0.70
  -2  10  -4   22.89    0.79
   2 -10   4   20.88    0.85
   2 -10   4   22.51    0.66
   2 -10   4   22.68    0.79
  -3  10  -4    8.43    0.39
  -3  10  -4    8.04    0.34
   3 -10   4    8.29    0.41
  -4  10  -4    5.22    0.33
   4 -10   4    4.92    0.35
   4   9  -4    2.10    0.23
  -4  -9   4    1.85    0.23
  -4  -9   4    2.34    0.24
   3   9  -4    0.11    0.09
  -3  -9   4   -0.08    0.08
  -3  -9   4    0.27    0.16
  -3  -9   4    0.33    0.09
   2   9  -4   24.61    0.81
   2   9  -4   24.70    0.83
  -2  -9   4   23.99    0.74
  -2  -9   4   25.15    0.82
  -2  -9   4   22.16    0.86
   1   9  -4    1.13    0.15
   1   9  -4    0.88    0.12
  -1  -9   4    1.15    0.12
  -1  -9   4    0.93    0.16
   0   9  -4    2.70    0.21
   0   9  -4    2.80    0.21
   0  -9   4    2.83    0.27
   0  -9   4    2.71    0.15
  -1   9  -4    7.86    0.31
  -1   9  -4    7.86    0.35
   1  -9   4    7.63    0.40
   1  -9   4    7.73    0.28
   1  -9   4    7.98    0.35
  -2   9  -4    0.17    0.08
  -2   9  -4    0.14    0.08
   2  -9   4   -0.12    0.12
   2  -9   4    0.15    0.05
   2  -9   4    0.14    0.06
  -3   9  -4   11.19    0.39
  -3   9  -4   11.50    0.46
   3  -9   4   11.12    0.53
   3  -9   4   11.66    0.47
  -4   9  -4    4.51    0.24
  -4   9  -4    4.87    0.29
   4  -9   4    4.63    0.30
   4   8  -4    0.07    0.09
  -4  -8   4    0.16    0.16
  -4  -8   4    0.19    0.10
  -4  -8   4    0.06    0.08
   3   8  -4    5.79    0.27
   3   8  -4    5.62    0.24
  -3  -8   4    5.91    0.27
  -3  -8   4    5.93    0.34
  -3  -8   4    5.50    0.27
   2   8  -4   12.31    0.39
   2   8  -4   11.99    0.45
  -2  -8   4   12.25    0.45
  -2  -8   4   10.85    0.49
  -2  -8   4   11.98    0.41
   1   8  -4    1.21    0.14
   1   8  -4    1.07    0.14
  -1  -8   4    0.96    0.10
  -1  -8   4    1.15    0.16
   0   8  -4    4.59    0.24
   0   8  -4    4.68    0.22
   0  -8   4    4.59    0.27
   0  -8   4    4.54    0.19
  -1   8  -4   15.64    0.50
  -1   8  -4   15.95    0.56
   1  -8   4   15.42    0.56
   1  -8   4   15.66    0.47
   1  -8   4   15.95    0.59
  -2   8  -4    7.10    0.26
  -2   8  -4    6.66    0.31
   2  -8   4    6.66    0.31
   2  -8   4    6.72    0.24
  -3   8  -4    7.20    0.33
  -3   8  -4    7.49    0.27
   3  -8   4    7.64    0.40
   3  -8   4    7.51    0.35
  -4   8  -4    7.06    0.33
  -4   8  -4    7.18    0.27
   4  -8   4    6.82    0.41
   4  -8   4    7.21    0.33
  -5   8  -4    4.08    0.27
  -5  -7   4    3.75    0.22
  -5  -7   4    3.72    0.29
   4   7  -4   24.02    0.73
   4   7  -4   23.48    0.75
  -4  -7   4   24.80    0.77
  -4  -7   4   25.17    0.79
  -4  -7   4   23.33    0.82
   3   7  -4    0.89    0.10
   3   7  -4    0.83    0.12
  -3  -7   4    0.64    0.09
  -3  -7   4    0.74    0.10
  -3  -7   4    0.90    0.13
   2   7  -4    0.11    0.06
   2   7  -4    0.00    0.03
  -2  -7   4    0.02    0.07
  -2  -7   4    0.04    0.04
  -2  -7   4    0.00    0.04
   1   7  -4   17.89    0.57
   1   7  -4   17.59    0.59
  -1  -7   4   17.27    0.61
  -1  -7   4   17.07    0.53
   0   7  -4   20.33    0.67
   0   7  -4   18.66    0.60
   0  -7   4   21.07    0.69
   0  -7   4   19.95    0.58
  -1   7  -4   12.43    0.38
  -1   7  -4   11.23    0.43
   1  -7   4   11.61    0.44
   1  -7   4   11.87    0.36
   1  -7   4   11.69    0.45
  -2   7  -4   -0.01    0.04
  -2   7  -4    0.08    0.04
   2  -7   4    0.00    0.03
   2  -7   4   -0.01    0.04
  -3   7  -4   -0.02    0.04
  -3   7  -4   -0.03    0.05
   3  -7   4    0.03    0.06
  -4   7  -4   13.91    0.50
  -4   7  -4   12.55    0.41
   4  -7   4   14.20    0.56
   4  -7   4   13.07    0.51
  -5   7  -4    2.03    0.19
  -5   7  -4    2.25    0.17
   5  -7   4    1.99    0.25
   5  -7   4    2.54    0.24
  -5  -6   4    3.33    0.22
  -5  -6   4    3.81    0.19
  -5  -6   4    3.73    0.26
   4   6  -4    5.64    0.23
   4   6  -4    6.20    0.25
  -4  -6   4    5.94    0.28
  -4  -6   4    6.16    0.29
  -4  -6   4    6.41    0.25
   3   6  -4    6.11    0.24
   3   6  -4    5.84    0.22
  -3  -6   4    6.13    0.28
  -3  -6   4    5.82    0.25
  -3  -6   4    5.89    0.25
   2   6  -4    4.06    0.16
   2   6  -4    3.83    0.19
   2   6  -4    4.19    0.22
  -2  -6   4    3.85    0.21
  -2  -6   4    4.34    0.19
  -2  -6   4    3.81    0.18
   1   6  -4   10.37    0.37
   1   6  -4   10.42    0.36
  -1  -6   4   10.59    0.34
  -1  -6   4   10.46    0.39
   0   6  -4    0.71    0.08
   0   6  -4    0.73    0.09
   0  -6   4    0.78    0.11
   0  -6   4    0.76    0.07
  -1   6  -4   34.34    0.93
  -1   6  -4   34.30    1.04
   1  -6   4   34.46    0.92
   1  -6   4   33.96    1.06
   1  -6   4   31.30    1.04
  -2   6  -4   14.26    0.42
  -2   6  -4   13.77    0.48
   2  -6   4   13.80    0.49
   2  -6   4   13.90    0.50
  -3   6  -4    0.50    0.08
  -3   6  -4    0.62    0.07
   3  -6   4    0.75    0.11
   3  -6   4    0.48    0.07
  -4   6  -4    3.28    0.20
  -4   6  -4    3.62    0.15
   4  -6   4    3.95    0.22
  -5   6  -4    5.70    0.27
  -5   6  -4    5.48    0.22
   5  -6   4    6.03    0.30
   5  -6   4    5.98    0.34
  -5  -5   4    0.00    0.09
   4   5  -4    0.02    0.04
  -4  -5   4    0.01    0.07
  -4  -5   4   -0.01    0.05
  -4  -5   4   -0.03    0.07
   3   5  -4    7.81    0.27
   3   5  -4    7.81    0.33
   3   5  -4    7.51    0.26
  -3  -5   4    7.40    0.29
  -3  -5   4    7.89    0.31
  -3  -5   4    7.55    0.29
   2   5  -4    0.16    0.06
   2   5  -4    0.23    0.03
   2   5  -4    0.17    0.04
  -2  -5   4    0.16    0.04
  -2  -5   4    0.24    0.04
  -2  -5   4    0.22    0.06
   1   5  -4    3.33    0.16
   1   5  -4    3.39    0.16
  -1  -5   4    3.48    0.16
  -1  -5   4    3.20    0.14
  -1  -5   4    3.38    0.17
   0   5  -4   41.40    1.20
   0   5  -4   40.40    1.09
   0  -5   4   40.20    1.20
   0  -5   4   38.99    1.20
   0  -5   4   37.84    1.08
  -1   5  -4   23.79    0.75
  -1   5  -4   24.65    0.67
   1  -5   4   23.04    0.75
   1  -5   4   24.13    0.76
   1  -5   4   23.82    0.66
  -2   5  -4   26.13    0.71
  -2   5  -4   25.28    0.80
   2  -5   4   26.19    0.82
   2  -5   4   25.17    0.81
  -3   5  -4    1.45    0.08
  -3   5  -4    1.26    0.11
   3  -5   4    1.33    0.13
   3  -5   4    1.31    0.12
  -4   5  -4    0.38    0.05
  -4   5  -4    0.39    0.07
   4  -5   4    0.37    0.07
   4  -5   4    0.50    0.10
  -5   5  -4   24.94    0.78
  -5   5  -4   24.60    0.71
  -5  -4   4    5.42    0.27
  -4  -4   4   12.10    0.46
  -4  -4   4   15.48    0.46
  -4  -4   4   15.37    0.48
   3   4  -4    1.62    0.09
   3   4  -4    1.71    0.16
  -3  -4   4    1.62    0.10
  -3  -4   4    1.47    0.11
  -3  -4   4    1.55    0.11
   2   4  -4    2.02    0.08
   2   4  -4    1.98    0.10
   2   4  -4    1.91    0.13
  -2  -4   4    1.94    0.11
  -2  -4   4    1.92    0.12
  -2  -4   4    1.78    0.10
   1   4  -4    1.51    0.09
   1   4  -4    1.57    0.09
  -1  -4   4    1.56    0.09
  -1  -4   4    1.63    0.08
  -1  -4   4    1.53    0.10
   0   4  -4   11.84    0.35
   0   4  -4   11.92    0.39
   0  -4   4   11.66    0.34
   0  -4   4   11.05    0.39
  -1   4  -4    6.29    0.20
  -1   4  -4    5.72    0.23
   1  -4   4    6.14    0.20
   1  -4   4    6.35    0.24
   1  -4   4    5.84    0.24
  -2   4  -4    0.01    0.02
  -2   4  -4    0.02    0.02
   2  -4   4    0.00    0.04
   2  -4   4    0.03    0.03
  -3   4  -4    3.87    0.18
  -3   4  -4    4.03    0.15
   3  -4   4    3.98    0.19
   3  -4   4    4.06    0.19
  -4   4  -4   13.84    0.43
  -4   4  -4   14.08    0.48
   4  -4   4   14.46    0.49
   4  -4   4   14.94    0.49
  -5   4  -4    1.54    0.13
  -5   4  -4    1.40    0.12
   5  -4   4    1.76    0.17
   5  -4   4    1.51    0.16
  -6   4  -4    1.50    0.13
  -6   4  -4    1.34    0.17
  -6  -3   4    0.80    0.14
  -5  -3   4    0.20    0.09
  -4  -3   4    0.63    0.07
  -4  -3   4    0.83    0.11
  -4  -3   4    0.62    0.07
   3   3  -4   13.35    0.43
   3   3  -4   13.99    0.47
  -3  -3   4   14.24    0.44
  -3  -3   4   14.98    0.45
  -3  -3   4   14.19    0.45
   2   3  -4    7.27    0.27
   2   3  -4    8.20    0.25
   2   3  -4    7.44    0.22
  -2  -3   4    8.12    0.26
  -2  -3   4    7.11    0.26
  -2  -3   4    6.94    0.25
   1   3  -4   25.68    0.75
   1   3  -4   24.86    0.70
  -1  -3   4   24.99    0.76
  -1  -3   4   24.47    0.69
  -1  -3   4   24.82    0.75
   0   3  -4   99.39    2.63
   0   3  -4  103.14    2.88
   0  -3   4   96.31    2.63
   0  -3   4   96.61    2.88
   0  -3   4  105.55    2.89
  -1   3  -4   28.02    0.83
  -1   3  -4   27.32    0.75
   1  -3   4   27.02    0.84
   1  -3   4   26.84    0.75
   1  -3   4   28.48    0.83
  -2   3  -4   41.17    1.09
  -2   3  -4   40.50    1.21
   2  -3   4   40.94    1.21
   2  -3   4   40.37    1.22
  -3   3  -4   16.39    0.53
   3  -3   4   17.06    0.54
   3  -3   4   16.36    0.54
  -4   3  -4    0.02    0.04
   4  -3   4    0.03    0.06
   4  -3   4    0.11    0.06
  -5   3  -4    0.03    0.05
   5  -3   4   -0.02    0.06
   5  -3   4    0.05    0.07
  -6   3  -4    6.41    0.31
  -6  -2   4    5.71    0.22
  -6  -2   4    5.32    0.28
  -5  -2   4    1.80    0.10
  -5  -2   4    1.90    0.15
  -4  -2   4   12.48    0.40
  -4  -2   4   12.21    0.36
   3   2  -4   18.18    0.54
  -3  -2   4   18.24    0.55
  -3  -2   4   18.30    0.54
  -3  -2   4   18.74    0.56
  -3  -2   4   18.15    0.51
   2   2  -4    1.91    0.10
   2   2  -4    2.03    0.07
   2   2  -4    1.92    0.08
  -2  -2   4    1.98    0.10
  -2  -2   4    1.99    0.09
  -2  -2   4    1.85    0.09
   1   2  -4   16.06    0.48
   1   2  -4   14.93    0.44
   1   2  -4   15.54    0.48
  -1  -2   4   14.82    0.47
  -1  -2   4   15.70    0.44
  -1  -2   4   15.96    0.49
   0   2  -4   57.73    1.54
   0   2  -4   59.60    1.69
   0   2  -4   59.61    1.70
   0  -2   4   59.08    1.71
   0  -2   4   56.21    1.54
   0  -2   4   59.30    1.69
  -1   2  -4   36.24    1.02
  -1   2  -4   34.07    0.91
   1  -2   4   33.10    1.02
   1  -2   4   32.79    1.01
  -2   2  -4   45.22    1.29
  -2   2  -4   43.72    1.30
   2  -2   4   44.37    1.31
   2  -2   4   42.77    1.29
  -3   2  -4   47.21    1.38
   3  -2   4   47.43    1.39
  -4   2  -4    7.26    0.25
   4  -2   4    7.12    0.26
   4  -2   4    6.81    0.26
  -5   2  -4    8.21    0.33
  -5   2  -4    8.68    0.29
  -6   2  -4    0.76    0.10
  -6  -1   4    7.43    0.31
  -6  -1   4    7.56    0.27
  -5  -1   4    2.35    0.15
  -5  -1   4    2.26    0.12
  -4  -1   4    8.61    0.27
  -4  -1   4    8.65    0.29
  -3  -1   4    0.04    0.03
  -3  -1   4    0.04    0.01
  -3  -1   4    0.03    0.02
  -3  -1   4    0.03    0.03
   2   1  -4   59.29    1.61
   2   1  -4   62.01    1.74
  -2  -1   4   60.81    1.75
  -2  -1   4   60.89    1.60
  -2  -1   4   59.80    1.74
   1   1  -4   24.30    0.67
   1   1  -4   25.41    0.75
   1   1  -4   25.40    0.74
  -1  -1   4   26.14    0.74
  -1  -1   4   24.29    0.67
  -1  -1   4   24.60    0.75
   0   1  -4   67.46    1.89
   0   1  -4   65.25    1.71
   0   1  -4   63.63    1.88
   0  -1   4   61.86    1.89
   0  -1   4   68.42    1.88
  -1   1  -4    6.84    0.24
  -1   1  -4    7.34    0.23
   1  -1   4    6.59    0.25
   1  -1   4    6.92    0.23
  -2   1  -4    5.35    0.19
  -2   1  -4    5.17    0.20
   2  -1   4    5.17    0.20
   2  -1   4    5.28    0.19
  -3   1  -4   16.60    0.50
  -3   1  -4   15.36    0.50
   3  -1   4   16.24    0.52
   3  -1   4   16.33    0.50
  -4   1  -4    0.28    0.05
   4  -1   4    0.30    0.06
   4  -1   4    0.32    0.05
  -5   1  -4    2.85    0.12
  -5   1  -4    2.86    0.18
  -6   1  -4    0.42    0.10
  -6   0   4    5.49    0.22
  -6   0   4    5.10    0.24
  -5   0   4   16.23    0.48
  -5   0   4   15.86    0.49
  -4   0   4    1.54    0.10
  -4   0   4    1.64    0.09
   3   0  -4    2.37    0.09
  -3   0   4    2.31    0.09
  -3   0   4    2.45    0.11
  -3   0   4    2.29    0.09
  -3   0   4    2.06    0.09
   2   0  -4  103.25    2.81
   2   0  -4   96.94    2.57
  -2   0   4   96.83    2.82
  -2   0   4   97.14    2.56
  -2   0   4   96.76    2.80
   1   0  -4    0.31    0.02
   1   0  -4    0.34    0.03
  -1   0   4    0.36    0.02
  -1   0   4    0.33    0.03
  -1   0   4    0.43    0.04
   0   0  -4    0.02    0.02
   0   0  -4    0.01    0.01
   0   0  -4    0.02    0.01
   0   0   4    0.00    0.02
   0   0   4    0.01    0.01
  -1   0  -4    5.66    0.19
  -1   0  -4    5.45    0.20
   1   0   4    5.32    0.21
   1   0   4    5.36    0.19
  -2   0  -4   -0.05    0.01
  -2   0  -4   -0.01    0.02
  -2   0  -4   -0.08    0.02
   2   0   4   -0.06    0.02
   2   0   4   -0.04    0.02
  -3   0  -4   26.87    0.78
  -3   0  -4   24.79    0.76
  -3   0  -4   25.80    0.79
   3   0   4   26.53    0.77
  -4   0  -4    7.61    0.27
  -4   0  -4    7.52    0.29
  -4   0  -4    7.93    0.26
   4   0   4    7.66    0.27
   4   0   4    8.31    0.26
  -5   0  -4    0.09    0.05
  -6   0  -4    3.05    0.21
  -6   0  -4    2.67    0.26
  -6   1   4    3.01    0.16
  -6   1   4    2.47    0.15
  -5   1   4    8.95    0.30
  -5   1   4    9.57    0.31
  -4   1   4    1.30    0.08
   3  -1  -4    0.27    0.04
  -3   1   4    0.26    0.04
  -3   1   4    0.37    0.05
  -3   1   4    0.26    0.03
   2  -1  -4   17.96    0.55
   2  -1  -4   17.48    0.48
  -2   1   4   17.53    0.55
  -2   1   4   17.45    0.47
  -2   1   4   17.58    0.53
   1  -1  -4    0.83    0.03
   1  -1  -4    0.86    0.05
   1  -1  -4    0.87    0.07
  -1   1   4    0.84    0.05
  -1   1   4    0.82    0.07
   0  -1  -4   24.52    0.67
   0  -1  -4   24.02    0.76
   0  -1  -4   25.54    0.73
   0   1   4   25.08    0.67
   0   1   4   24.07    0.76
   0   1   4   24.69    0.73
  -1  -1  -4   11.45    0.38
  -1  -1  -4   11.53    0.34
  -1  -1  -4   11.41    0.36
   1   1   4   11.39    0.34
   1   1   4   11.61    0.36
   1   1   4   11.46    0.39
  -2  -1  -4    4.12    0.16
  -2  -1  -4    3.98    0.17
  -2  -1  -4    4.10    0.15
   2   1   4    3.81    0.17
   2   1   4    4.15    0.15
  -3  -1  -4    4.90    0.20
  -3  -1  -4    5.16    0.19
  -3  -1  -4    4.96    0.20
   3   1   4    5.21    0.18
  -4  -1  -4    9.07    0.32
  -4  -1  -4    8.50    0.30
   4   1   4    8.85    0.29
   4   1   4    8.87    0.28
  -5  -1  -4   15.68    0.52
  -6  -1  -4    0.39    0.16
  -6  -1  -4    0.32    0.09
  -6   2   4    0.35    0.07
  -6   2   4    0.19    0.06
  -5   2   4    9.22    0.27
   4  -2  -4   85.58    2.37
  -4   2   4   82.74    2.37
  -4   2   4   82.00    2.38
  -4   2   4   80.93    2.16
  -3   2   4    0.14    0.04
  -3   2   4    0.13    0.03
   2  -2  -4    6.95    0.26
  -2   2   4    6.70    0.23
  -2   2   4    6.97    0.26
   1  -2  -4  144.34    4.13
  -1   2   4  139.84    4.14
  -1   2   4  147.24    4.13
   0  -2  -4    0.58    0.07
   0   2   4    0.51    0.05
   0   2   4    0.53    0.04
   0   2   4    0.61    0.07
  -1  -2  -4    6.94    0.22
  -1  -2  -4    7.00    0.24
  -1  -2  -4    6.59    0.26
   1   2   4    6.99    0.22
   1   2   4    6.48    0.26
   1   2   4    6.75    0.23
  -2  -2  -4  107.43    2.99
  -2  -2  -4  106.68    3.02
  -2  -2  -4  102.75    2.80
   2   2   4  105.41    2.99
   2   2   4  101.32    3.02
   2   2   4  102.16    2.81
  -3  -2  -4    7.15    0.27
  -3  -2  -4    6.81    0.25
   3   2   4    6.98    0.24
   3   2   4    7.20    0.27
  -4  -2  -4    2.70    0.15
  -4  -2  -4    3.14    0.16
   4   2   4    3.20    0.13
   4   2   4    2.93    0.14
  -5  -2  -4    2.52    0.16
  -5  -2  -4    2.22    0.24
  -6   3   4    7.25    0.30
  -5   3   4    0.27    0.05
  -5   3   4    0.27    0.05
   4  -3  -4   32.47    0.97
  -4   3   4   32.17    0.97
  -4   3   4   30.99    0.95
   3  -3  -4    3.30    0.19
  -3   3   4    3.23    0.16
  -3   3   4    3.16    0.14
   2  -3  -4    0.85    0.09
  -2   3   4    0.88    0.07
  -2   3   4    0.82    0.09
   1  -3  -4    4.95    0.22
  -1   3   4    4.54    0.18
  -1   3   4    4.76    0.21
   0  -3  -4   33.15    1.03
   0   3   4   33.49    0.92
   0   3   4   34.98    1.00
   0   3   4   32.02    1.02
  -1  -3  -4   25.28    0.80
  -1  -3  -4   24.75    0.70
   1   3   4   25.04    0.71
   1   3   4   26.07    0.76
   1   3   4   24.55    0.79
  -2  -3  -4   18.95    0.54
  -2  -3  -4   18.10    0.61
   2   3   4   17.94    0.54
   2   3   4   17.90    0.57
   2   3   4   18.11    0.60
  -3  -3  -4    3.30    0.17
  -3  -3  -4    3.20    0.15
   3   3   4    3.36    0.15
   3   3   4    3.46    0.17
  -4  -3  -4   14.03    0.45
  -4  -3  -4   13.37    0.47
   4   3   4   13.40    0.44
   4   3   4   13.60    0.43
  -5  -3  -4   19.02    0.60
  -5  -3  -4   19.70    0.69
  -5  -3  -4   17.88    0.58
   5  -4  -4    0.50    0.07
   5  -4  -4    0.38    0.05
  -5   4   4    0.27    0.07
  -5   4   4    0.34    0.07
   4  -4  -4   18.70    0.62
  -4   4   4   17.73    0.58
  -4   4   4   18.65    0.60
   3  -4  -4  180.91    5.14
  -3   4   4  177.04    5.12
  -3   4   4  176.96    5.10
   2  -4  -4    0.73    0.10
  -2   4   4    0.76    0.10
  -2   4   4    0.69    0.08
   1  -4  -4    3.16    0.11
   1  -4  -4    3.31    0.18
  -1   4   4    3.03    0.14
  -1   4   4    3.00    0.17
   0  -4  -4   33.83    1.03
   0   4   4   31.46    1.02
   0   4   4   32.78    0.90
  -1  -4  -4   14.57    0.52
   1   4   4   14.66    0.47
   1   4   4   14.29    0.51
   1   4   4   14.56    0.44
  -2  -4  -4    0.11    0.03
  -2  -4  -4    0.08    0.05
   2   4   4    0.15    0.04
   2   4   4    0.03    0.05
   2   4   4    0.13    0.04
  -3  -4  -4    9.03    0.31
  -3  -4  -4    9.27    0.36
   3   4   4    9.23    0.33
   3   4   4    9.23    0.32
   3   4   4    8.93    0.34
  -4  -4  -4    1.99    0.16
  -4  -4  -4    2.17    0.21
  -4  -4  -4    2.09    0.13
   4   4   4    1.93    0.13
  -5  -4  -4    5.14    0.24
  -5  -4  -4    5.11    0.33
  -5  -4  -4    5.15    0.23
   5  -5  -4    7.14    0.27
   5  -5  -4    7.34    0.32
  -5   5   4    7.31    0.29
  -5   5   4    6.84    0.29
   4  -5  -4    0.91    0.12
  -4   5   4    0.84    0.12
  -4   5   4    0.86    0.11
   3  -5  -4   34.03    1.08
  -3   5   4   33.19    1.03
  -3   5   4   33.89    1.06
   2  -5  -4   21.32    0.71
  -2   5   4   20.78    0.69
  -2   5   4   19.94    0.66
   1  -5  -4   41.25    1.12
   1  -5  -4   42.13    1.30
  -1   5   4   40.87    1.28
  -1   5   4   42.44    1.26
   0  -5  -4  116.76    2.98
   0  -5  -4  117.59    3.30
   0   5   4   99.15    3.24
   0   5   4  110.08    3.28
   0   5   4  117.93    3.01
  -1  -5  -4    7.35    0.33
  -1  -5  -4    7.77    0.29
   1   5   4    7.72    0.32
   1   5   4    7.82    0.26
   1   5   4    7.60    0.29
  -2  -5  -4    2.63    0.17
  -2  -5  -4    2.57    0.20
   2   5   4    2.94    0.18
   2   5   4    2.89    0.15
   2   5   4    2.85    0.15
  -3  -5  -4   10.65    0.36
  -3  -5  -4   10.44    0.42
  -3  -5  -4   10.82    0.46
   3   5   4   10.80    0.38
   3   5   4   11.40    0.41
   3   5   4   10.67    0.38
  -4  -5  -4    2.76    0.16
  -4  -5  -4    2.93    0.21
  -4  -5  -4    2.65    0.24
   4   5   4    3.01    0.19
   4   5   4    2.88    0.17
  -5  -5  -4    2.93    0.18
  -5  -5  -4    2.57    0.29
  -5  -5  -4    2.64    0.21
   5  -6  -4    2.41    0.25
  -5   6   4    2.42    0.20
  -5   6   4    2.34    0.19
  -4   6   4    0.08    0.07
  -4   6   4   -0.01    0.07
   3  -6  -4   52.55    1.62
  -3   6   4   52.22    1.59
  -3   6   4   51.25    1.56
   2  -6  -4   70.73    2.16
   2  -6  -4   70.78    1.85
  -2   6   4   71.80    2.14
   1  -6  -4    0.02    0.06
   1  -6  -4    0.04    0.03
  -1   6   4    0.01    0.06
   0  -6  -4    4.01    0.18
   0  -6  -4    3.92    0.24
   0   6   4    3.97    0.23
   0   6   4    4.07    0.20
   0   6   4    4.03    0.16
  -1  -6  -4   28.42    0.84
  -1  -6  -4   28.67    0.95
   1   6   4   26.65    0.88
   1   6   4   28.83    0.93
   1   6   4   29.18    0.82
  -2  -6  -4    2.43    0.20
  -2  -6  -4    1.81    0.16
   2   6   4    2.23    0.14
   2   6   4    2.01    0.18
   2   6   4    2.21    0.15
  -3  -6  -4    0.91    0.14
  -3  -6  -4    1.05    0.15
   3   6   4    0.95    0.12
  -4  -6  -4    2.29    0.25
  -4  -6  -4    2.19    0.24
   4   6   4    2.36    0.20
   4   6   4    2.57    0.19
   4   6   4    2.33    0.21
  -5  -6  -4    0.26    0.17
   5   6   4    0.51    0.11
   5  -7  -4    2.37    0.30
  -5   7   4    2.39    0.22
  -5   7   4    2.31    0.24
   4  -7  -4   12.57    0.54
  -4   7   4   12.49    0.49
  -4   7   4   12.42    0.47
  -3   7   4    0.88    0.11
  -3   7   4    0.94    0.13
   2  -7  -4    0.98    0.05
  -2   7   4    0.86    0.13
   1  -7  -4   11.20    0.34
   1  -7  -4   11.71    0.48
  -1   7   4   10.39    0.44
   0  -7  -4    4.31    0.19
   0  -7  -4    4.02    0.27
   0   7   4    4.31    0.25
   0   7   4    3.95    0.21
   0   7   4    4.52    0.18
  -1  -7  -4    4.90    0.23
  -1  -7  -4    4.96    0.30
   1   7   4    5.17    0.28
  -2  -7  -4    0.23    0.11
  -2  -7  -4    0.45    0.09
   2   7   4    0.22    0.09
  -3  -7  -4    1.58    0.20
  -3  -7  -4    1.56    0.19
   3   7   4    1.82    0.17
   3   7   4    1.36    0.19
   3   7   4    1.70    0.17
  -4  -7  -4    1.66    0.22
  -4  -7  -4    1.20    0.17
   4   7   4    1.56    0.19
   4   7   4    1.64    0.21
  -4   8   4    0.21    0.12
  -4   8   4    0.12    0.11
   3  -8  -4    5.39    0.35
  -3   8   4    5.02    0.29
  -3   8   4    5.13    0.29
   2  -8  -4    3.22    0.12
  -2   8   4    2.85    0.23
   1  -8  -4   14.86    0.45
   1  -8  -4   15.53    0.62
  -1   8   4   14.26    0.57
   0  -8  -4    5.19    0.33
   0  -8  -4    5.45    0.23
   0   8   4    5.59    0.31
   0   8   4    5.28    0.27
  -1  -8  -4    6.07    0.36
  -1  -8  -4    6.26    0.27
   1   8   4    5.85    0.32
  -2  -8  -4    3.94    0.23
  -2  -8  -4    3.25    0.30
   2   8   4    3.65    0.23
   2   8   4    3.79    0.26
   2   8   4    3.82    0.21
  -3  -8  -4    4.67    0.38
  -3  -8  -4    4.32    0.28
   3   8   4    4.47    0.27
   3   8   4    4.63    0.27
   3   8   4    4.96    0.30
  -4  -8  -4    3.49    0.30
   4   8   4    3.48    0.32
  -4   9   4    2.82    0.30
  -4   9   4    2.29    0.27
  -3   9   4    5.51    0.33
  -3   9   4    5.04    0.33
   2  -9  -4   10.84    0.32
   2  -9  -4   10.83    0.54
  -2   9   4   11.25    0.49
   1  -9  -4    2.76    0.14
   1  -9  -4    2.64    0.31
  -1   9   4    2.45    0.24
   0  -9  -4    3.36    0.32
   0  -9  -4    4.01    0.20
   0   9   4    4.23    0.26
   0   9   4    3.32    0.27
  -1  -9  -4    3.37    0.33
  -1  -9  -4    3.63    0.21
   1   9   4    2.79    0.23
   1   9   4    3.37    0.27
  -2  -9  -4    0.50    0.18
  -2  -9  -4    0.69    0.12
   2   9   4    0.74    0.16
   2   9   4    0.49    0.12
   2   9   4    0.42    0.11
  -3  -9  -4    0.16    0.13
  -3  -9  -4   -0.12    0.21
   3   9   4    0.38    0.15
  -3  10   4    0.07    0.15
  -3  10   4    0.30    0.14
   2 -10  -4    0.94    0.09
  -2  10   4    0.85    0.16
  -2  10   4    0.94    0.17
   1 -10  -4    1.92    0.13
   1 -10  -4    1.58    0.23
  -1  10   4    1.72    0.24
  -1  10   4    1.86    0.25
   0 -10  -4    3.79    0.41
   0 -10  -4    4.52    0.22
   0  10   4    4.56    0.24
   0  10   4    4.12    0.33
   0  10   4    3.74    0.30
  -1 -10  -4    0.79    0.13
  -1 -10  -4    0.88    0.22
   1  10   4    0.71    0.17
  -2 -10  -4    2.38    0.30
  -2 -10  -4    2.80    0.25
   2  10   4    2.77    0.33
   2 -11  -4    0.19    0.06
  -2  11   4    0.11    0.15
  -2  11   4    0.22    0.20
   1 -11  -4    6.73    0.27
  -1  11   4    7.66    0.44
   0 -11  -4    0.20    0.09
   0  11   4    0.38    0.17
  -1 -11  -4    0.82    0.29
  -1 -11  -4    0.91    0.14
   1  11   4    1.03    0.20
   1  12  -5    1.26    0.19
  -1 -12   5    0.98    0.17
  -1 -12   5    1.14    0.15
   0  12  -5    2.52    0.29
   0 -12   5    1.82    0.23
   0 -12   5    2.48    0.20
  -1  12  -5   10.67    0.50
   1 -12   5   10.41    0.38
   1 -12   5    9.71    0.50
   2  11  -5    2.73    0.22
   2  11  -5    2.97    0.28
  -2 -11   5    2.24    0.24
  -2 -11   5    2.73    0.21
  -2 -11   5    2.80    0.34
   1  11  -5    6.79    0.38
  -1 -11   5    6.84    0.51
  -1 -11   5    7.26    0.36
  -1 -11   5    7.27    0.31
   0  11  -5    0.23    0.16
   0  11  -5   -0.01    0.10
   0 -11   5    0.15    0.10
   0 -11   5    0.08    0.21
   0 -11   5    0.04    0.07
  -1  11  -5    6.14    0.35
  -1  11  -5    5.58    0.35
   1 -11   5    6.14    0.26
   1 -11   5    6.26    0.35
  -2  11  -5   13.46    0.55
  -2  11  -5   12.44    0.49
   2 -11   5   12.64    0.56
   2 -11   5   12.90    0.43
  -3  11  -5    7.35    0.39
  -3  11  -5    6.58    0.35
   3 -11   5    7.02    0.43
   3  10  -5    1.92    0.23
   3  10  -5    1.43    0.15
  -3 -10   5    1.50    0.17
  -3 -10   5    2.29    0.21
  -3 -10   5    2.26    0.28
   2  10  -5    0.24    0.08
   2  10  -5    0.11    0.10
  -2 -10   5    0.30    0.19
  -2 -10   5    0.21    0.08
  -2 -10   5    0.05    0.09
   1  10  -5    3.25    0.31
   1  10  -5    3.45    0.25
  -1 -10   5    3.43    0.23
  -1 -10   5    3.35    0.19
  -1 -10   5    3.33    0.35
   0  10  -5    0.50    0.12
   0  10  -5    0.56    0.14
   0 -10   5    0.55    0.08
   0 -10   5    0.48    0.10
   0 -10   5    0.69    0.18
  -1  10  -5    1.49    0.18
  -1  10  -5    1.47    0.19
   1 -10   5    1.30    0.16
   1 -10   5    1.42    0.13
   1 -10   5    1.69    0.23
  -2  10  -5    7.94    0.37
  -2  10  -5    7.90    0.33
   2 -10   5    7.94    0.29
   2 -10   5    6.48    0.36
   2 -10   5    7.23    0.47
  -3  10  -5    0.92    0.13
  -3  10  -5    0.78    0.14
   3 -10   5    0.59    0.14
   4   9  -5    0.23    0.12
  -4  -9   5    0.10    0.10
  -4  -9   5    0.00    0.12
   3   9  -5    0.07    0.09
  -3  -9   5   -0.17    0.08
  -3  -9   5    0.17    0.15
  -3  -9   5    0.03    0.08
   2   9  -5   12.36    0.52
   2   9  -5   12.53    0.48
   2   9  -5   12.72    0.42
  -2  -9   5   12.42    0.44
  -2  -9   5   11.89    0.55
  -2  -9   5   12.81    0.49
   1   9  -5    3.21    0.21
   1   9  -5    2.92    0.24
  -1  -9   5    3.00    0.17
  -1  -9   5    2.99    0.20
  -1  -9   5    2.77    0.27
   0   9  -5   11.88    0.47
   0   9  -5   12.14    0.43
   0  -9   5   11.13    0.51
   0  -9   5   11.86    0.39
   0  -9   5   11.50    0.46
  -1   9  -5    4.34    0.22
  -1   9  -5    4.49    0.25
   1  -9   5    4.06    0.24
   1  -9   5    4.22    0.19
   1  -9   5    4.35    0.31
  -2   9  -5    4.75    0.26
  -2   9  -5    4.53    0.22
   2  -9   5    4.62    0.33
   2  -9   5    4.64    0.20
   2  -9   5    4.41    0.27
  -3   9  -5    7.19    0.34
  -3   9  -5    7.51    0.29
   3  -9   5    7.02    0.36
   3  -9   5    6.76    0.42
  -4   9  -5    0.06    0.10
  -4   9  -5   -0.03    0.11
   4  -9   5    0.20    0.13
   4   8  -5    0.68    0.11
   4   8  -5    0.72    0.11
  -4  -8   5    0.68    0.12
  -4  -8   5    0.65    0.18
  -4  -8   5    0.70    0.13
   3   8  -5    5.45    0.27
   3   8  -5    5.52    0.37
   3   8  -5    5.50    0.24
  -3  -8   5    5.91    0.29
  -3  -8   5    5.72    0.35
  -3  -8   5    6.14    0.27
   2   8  -5    3.73    0.21
   2   8  -5    3.69    0.17
  -2  -8   5    3.42    0.26
  -2  -8   5    3.38    0.18
  -2  -8   5    2.95    0.20
   1   8  -5    3.99    0.24
   1   8  -5    4.21    0.22
  -1  -8   5    4.10    0.19
  -1  -8   5    4.15    0.26
  -1  -8   5    4.27    0.23
   0   8  -5   19.49    0.60
   0   8  -5   18.49    0.65
   0  -8   5   19.17    0.68
   0  -8   5   18.81    0.57
   0  -8   5   18.98    0.66
  -1   8  -5    3.59    0.18
  -1   8  -5    3.39    0.21
   1  -8   5    3.49    0.21
   1  -8   5    3.53    0.16
   1  -8   5    3.63    0.24
  -2   8  -5    1.87    0.13
  -2   8  -5    1.70    0.15
   2  -8   5    1.66    0.16
   2  -8   5    1.81    0.11
  -3   8  -5   24.28    0.82
  -3   8  -5   24.19    0.72
   3  -8   5   25.06    0.87
   3  -8   5   25.13    0.85
  -4   8  -5    5.64    0.24
  -4   8  -5    5.86    0.30
   4  -8   5    5.61    0.33
  -5  -7   5    1.06    0.17
  -5  -7   5    1.44    0.19
   4   7  -5    0.01    0.06
   4   7  -5   -0.01    0.07
  -4  -7   5    0.03    0.09
  -4  -7   5    0.12    0.07
  -4  -7   5    0.18    0.12
   3   7  -5    0.09    0.05
   3   7  -5    0.03    0.06
   3   7  -5    0.19    0.13
  -3  -7   5    0.06    0.07
  -3  -7   5    0.01    0.10
  -3  -7   5    0.10    0.07
   2   7  -5    1.38    0.09
   2   7  -5    1.62    0.13
  -2  -7   5    1.51    0.17
  -2  -7   5    1.30    0.12
  -2  -7   5    1.26    0.11
   1   7  -5    3.99    0.20
   1   7  -5    3.73    0.20
  -1  -7   5    3.76    0.17
  -1  -7   5    3.90    0.23
  -1  -7   5    3.60    0.19
   0   7  -5    0.02    0.04
   0   7  -5    0.00    0.04
   0  -7   5    0.01    0.03
   0  -7   5   -0.01    0.06
   0  -7   5   -0.01    0.04
  -1   7  -5    6.62    0.28
  -1   7  -5    5.70    0.23
   1  -7   5    6.78    0.30
   1  -7   5    5.93    0.27
   1  -7   5    6.24    0.22
  -2   7  -5    9.78    0.32
  -2   7  -5    9.89    0.38
   2  -7   5    9.56    0.39
  -3   7  -5    0.36    0.08
  -3   7  -5    0.29    0.06
   3  -7   5    0.30    0.08
  -4   7  -5    8.62    0.36
  -4   7  -5    8.58    0.30
   4  -7   5    9.00    0.44
   4  -7   5    8.19    0.38
  -5   7  -5    1.20    0.14
  -5   7  -5    1.26    0.16
   5  -7   5    1.51    0.17
  -5  -6   5   12.09    0.47
  -5  -6   5   12.22    0.42
  -5  -6   5   11.70    0.43
   4   6  -5    0.37    0.07
  -4  -6   5    0.48    0.08
  -4  -6   5    0.34    0.10
  -4  -6   5    0.25    0.09
   3   6  -5   -0.09    0.10
   3   6  -5   -0.04    0.05
   3   6  -5    0.02    0.04
  -3  -6   5    0.04    0.07
  -3  -6   5    0.08    0.06
  -3  -6   5    0.00    0.05
   2   6  -5   31.67    0.88
   2   6  -5   32.48    0.94
   2   6  -5   31.07    0.97
  -2  -6   5   31.13    0.90
  -2  -6   5   31.22    0.98
  -2  -6   5   31.31    0.99
   1   6  -5   16.57    0.58
   1   6  -5   19.64    0.63
  -1  -6   5   20.39    0.64
  -1  -6   5   19.93    0.65
  -1  -6   5   19.94    0.57
   0   6  -5    1.39    0.11
   0   6  -5    1.40    0.10
   0  -6   5    1.45    0.11
   0  -6   5    1.38    0.13
   0  -6   5    1.29    0.08
  -1   6  -5    1.93    0.13
  -1   6  -5    1.88    0.10
   1  -6   5    1.72    0.13
   1  -6   5    1.57    0.14
   1  -6   5    1.89    0.10
  -2   6  -5    0.99    0.08
  -2   6  -5    0.84    0.10
   2  -6   5    0.93    0.12
   2  -6   5    0.74    0.10
  -3   6  -5    0.94    0.12
  -3   6  -5    0.99    0.08
   3  -6   5    0.98    0.12
   3  -6   5    1.32    0.16
  -4   6  -5    5.22    0.25
  -4   6  -5    5.20    0.20
   4  -6   5    5.34    0.28
  -5   6  -5    0.69    0.09
  -5   6  -5    0.85    0.12
   5  -6   5    0.84    0.14
   5  -6   5    0.68    0.17
  -5  -5   5    0.42    0.11
   4   5  -5    0.07    0.04
  -4  -5   5    0.22    0.06
  -4  -5   5    0.16    0.08
  -4  -5   5    0.13    0.07
   3   5  -5    0.37    0.06
   3   5  -5    0.45    0.11
   3   5  -5    0.53    0.07
  -3  -5   5    0.38    0.06
  -3  -5   5    0.30    0.06
  -3  -5   5    0.51    0.08
   2   5  -5   12.00    0.46
   2   5  -5   14.83    0.47
   2   5  -5   14.50    0.42
  -2  -5   5   14.85    0.49
  -2  -5   5   14.78    0.49
  -2  -5   5   14.46    0.44
   1   5  -5   14.26    0.45
   1   5  -5   14.08    0.47
  -1  -5   5   14.05    0.43
  -1  -5   5   14.46    0.49
  -1  -5   5   14.35    0.48
   0   5  -5   27.78    0.82
   0   5  -5   26.83    0.75
   0  -5   5   25.76    0.74
   0  -5   5   26.03    0.83
   0  -5   5   25.81    0.83
  -1   5  -5   27.37    0.83
  -1   5  -5   27.40    0.75
   1  -5   5   26.43    0.74
   1  -5   5   27.23    0.85
   1  -5   5   25.24    0.84
  -2   5  -5   19.96    0.56
  -2   5  -5   20.97    0.64
   2  -5   5   19.61    0.65
   2  -5   5   17.62    0.64
  -3   5  -5    1.34    0.11
  -3   5  -5    1.39    0.09
   3  -5   5    1.38    0.14
   3  -5   5    1.29    0.13
  -4   5  -5    3.67    0.19
  -4   5  -5    3.67    0.16
   4  -5   5    3.85    0.22
  -5   5  -5    2.29    0.15
  -5   5  -5    2.22    0.17
   5  -5   5    2.73    0.24
   5  -5   5    2.67    0.23
  -5  -4   5    3.07    0.21
   4   4  -5   13.97    0.43
  -4  -4   5   14.33    0.47
  -4  -4   5   14.32    0.47
  -4  -4   5   14.42    0.47
   3   4  -5    1.88    0.09
   3   4  -5    1.51    0.16
   3   4  -5    1.77    0.10
  -3  -4   5    1.69    0.12
  -3  -4   5    1.87    0.12
  -3  -4   5    1.66    0.12
   2   4  -5    8.73    0.31
   2   4  -5    9.19    0.32
   2   4  -5    9.29    0.27
  -2  -4   5    9.28    0.33
  -2  -4   5    9.37    0.33
  -2  -4   5    9.01    0.30
   1   4  -5   29.72    0.91
   1   4  -5   30.19    0.84
  -1  -4   5   30.35    0.83
  -1  -4   5   29.43    0.92
  -1  -4   5   30.44    0.92
   0   4  -5    5.27    0.18
   0   4  -5    5.25    0.20
   0  -4   5    5.00    0.17
   0  -4   5    5.20    0.21
   0  -4   5    4.81    0.20
  -1   4  -5   22.26    0.68
  -1   4  -5   21.54    0.60
   1  -4   5   21.26    0.68
   1  -4   5   21.55    0.69
   1  -4   5   21.09    0.60
  -2   4  -5   19.86    0.62
  -2   4  -5   19.60    0.55
   2  -4   5   19.38    0.64
   2  -4   5   19.53    0.63
  -3   4  -5    2.72    0.12
  -3   4  -5    2.75    0.15
   3  -4   5    2.68    0.16
   3  -4   5    2.91    0.16
  -4   4  -5    0.02    0.04
  -4   4  -5    0.08    0.05
   4  -4   5    0.08    0.07
   4  -4   5    0.15    0.07
  -5   4  -5    0.97    0.12
  -5   4  -5    1.09    0.12
   5  -4   5    1.06    0.13
   5  -4   5    1.17    0.14
  -6  -3   5    1.24    0.15
  -5  -3   5    3.07    0.19
  -4  -3   5   13.61    0.44
  -4  -3   5   14.13    0.45
  -4  -3   5   14.42    0.45
   3   3  -5    0.41    0.08
  -3  -3   5    0.47    0.06
  -3  -3   5    0.39    0.06
   2   3  -5   13.32    0.37
   2   3  -5   12.91    0.42
   2   3  -5   13.38    0.41
  -2  -3   5   13.22    0.43
  -2  -3   5   13.64    0.44
  -2  -3   5   12.82    0.40
   1   3  -5   19.99    0.57
   1   3  -5   20.78    0.61
  -1  -3   5   20.45    0.56
  -1  -3   5   20.69    0.62
  -1  -3   5   17.73    0.62
   0   3  -5   23.15    0.66
   0   3  -5   23.53    0.73
   0   3  -5   25.50    0.74
   0  -3   5   23.81    0.75
   0  -3   5   24.26    0.66
   0  -3   5   24.69    0.74
  -1   3  -5   46.04    1.36
  -1   3  -5   46.68    1.35
  -1   3  -5   44.19    1.22
   1  -3   5   46.11    1.37
   1  -3   5   45.85    1.35
  -2   3  -5    4.28    0.19
  -2   3  -5    4.28    0.18
  -2   3  -5    4.48    0.16
   2  -3   5    4.44    0.20
   2  -3   5    4.46    0.19
  -3   3  -5    2.15    0.12
  -3   3  -5    2.07    0.11
   3  -3   5    1.98    0.13
   3  -3   5    2.03    0.13
  -4   3  -5    0.00    0.04
   4  -3   5   -0.04    0.06
   4  -3   5   -0.04    0.06
  -5   3  -5    2.83    0.16
   5  -3   5    3.00    0.18
   5  -3   5    2.91    0.18
  -6   3  -5    0.13    0.12
  -6   3  -5    0.08    0.06
  -6   3  -5    0.03    0.09
  -6  -2   5    9.68    0.38
  -5  -2   5    0.71    0.10
  -5  -2   5    0.63    0.07
  -4  -2   5    0.12    0.05
  -4  -2   5    0.12    0.03
   3   2  -5   31.40    0.93
   3   2  -5   32.27    0.95
  -3  -2   5   35.11    0.98
  -3  -2   5   32.48    0.96
  -3  -2   5   32.08    0.90
   2   2  -5    6.79    0.21
   2   2  -5    5.13    0.20
   2   2  -5    5.81    0.21
  -2  -2   5    5.74    0.22
  -2  -2   5    5.85    0.21
  -2  -2   5    5.69    0.19
   1   2  -5    1.59    0.09
   1   2  -5    1.53    0.08
   1   2  -5    1.53    0.07
  -1  -2   5    1.63    0.09
  -1  -2   5    1.55    0.07
  -1  -2   5    1.54    0.08
   0   2  -5   12.97    0.41
   0   2  -5   12.65    0.39
   0   2  -5   12.16    0.35
   0  -2   5   12.52    0.35
   0  -2   5   11.95    0.41
   0  -2   5   11.76    0.39
  -1   2  -5   29.54    0.81
  -1   2  -5   30.44    0.89
  -1   2  -5   30.86    0.91
   1  -2   5   28.85    0.91
   1  -2   5   29.82    0.89
  -2   2  -5   22.20    0.67
  -2   2  -5   22.37    0.68
   2  -2   5   21.66    0.67
   2  -2   5   20.64    0.68
  -3   2  -5    2.33    0.12
  -3   2  -5    2.42    0.12
   3  -2   5    2.43    0.13
   3  -2   5    2.40    0.13
  -4   2  -5   33.41    0.97
   4  -2   5   31.35    0.97
  -5   2  -5   10.47    0.34
  -5   2  -5    9.82    0.38
   5  -2   5    9.78    0.33
  -6   2  -5    2.22    0.19
  -6  -1   5   11.19    0.40
  -6  -1   5   11.60    0.36
  -5  -1   5   14.33    0.45
  -5  -1   5   14.38    0.42
  -4  -1   5    9.79    0.29
  -4  -1   5    9.74    0.32
   3   1  -5   39.65    1.08
   3   1  -5   37.04    1.12
  -3  -1   5   40.43    1.15
  -3  -1   5   38.83    1.05
  -3  -1   5   39.03    1.04
  -3  -1   5   37.85    1.13
   2   1  -5   -0.02    0.02
   2   1  -5   -0.01    0.02
   2   1  -5   -0.01    0.02
  -2  -1   5    0.00    0.02
  -2  -1   5    0.02    0.02
  -2  -1   5    0.02    0.03
   1   1  -5    0.15    0.03
   1   1  -5    0.14    0.02
   1   1  -5    0.20    0.03
  -1  -1   5    0.16    0.04
  -1  -1   5    0.17    0.03
  -1  -1   5    0.16    0.02
   0   1  -5  240.66    6.39
   0   1  -5  253.04    7.10
   0   1  -5  248.89    7.04
   0  -1   5  228.92    6.93
  -1   1  -5  148.31    4.23
  -1   1  -5  144.16    4.24
   1  -1   5  150.22    4.24
   1  -1   5  148.75    4.28
  -2   1  -5   33.45    0.95
  -2   1  -5   32.14    0.97
   2  -1   5   31.45    0.95
   2  -1   5   30.73    0.97
  -3   1  -5    1.45    0.09
  -3   1  -5    1.31    0.09
   3  -1   5    1.42    0.11
   3  -1   5    1.30    0.09
  -4   1  -5    2.12    0.12
  -4   1  -5    1.99    0.12
  -4   1  -5    1.96    0.13
   4  -1   5    2.05    0.15
   4  -1   5    2.34    0.12
  -5   1  -5    4.80    0.19
  -5   1  -5    4.80    0.23
  -6   1  -5    0.70    0.11
  -6   0   5    9.32    0.33
  -6   0   5    9.67    0.32
  -5   0   5   33.65    0.93
  -5   0   5   33.37    0.93
  -4   0   5    1.78    0.10
  -4   0   5    1.91    0.09
  -4   0   5    1.75    0.08
  -4   0   5    1.75    0.08
   3   0  -5    2.15    0.10
  -3   0   5    2.04    0.11
  -3   0   5    2.09    0.08
  -3   0   5    2.05    0.09
  -3   0   5    2.05    0.09
   2   0  -5   81.77    2.37
   2   0  -5   83.68    2.36
   2   0  -5   82.26    2.16
  -2   0   5   83.44    2.36
  -2   0   5   81.54    2.15
  -2   0   5   80.66    2.38
   1   0  -5   37.61    0.98
   1   0  -5   35.14    1.10
   1   0  -5   38.53    1.09
  -1   0   5   37.38    0.98
  -1   0   5   35.98    1.08
  -1   0   5   37.69    1.11
   0   0  -5   90.20    2.55
   0   0  -5  100.97    2.75
   0   0  -5   93.68    2.72
   0   0   5   95.45    2.72
   0   0   5   94.44    2.75
  -1   0  -5  123.01    3.56
  -1   0  -5  121.17    3.27
  -1   0  -5  128.04    3.53
   1   0   5  123.08    3.53
   1   0   5  117.95    3.50
  -2   0  -5    6.46    0.22
  -2   0  -5    6.33    0.22
  -2   0  -5    5.99    0.24
   2   0   5    6.16    0.22
   2   0   5    6.16    0.25
  -3   0  -5   14.13    0.44
  -3   0  -5   14.13    0.46
  -3   0  -5   14.20    0.44
   3   0   5   13.93    0.44
   3   0   5   12.86    0.47
  -4   0  -5   45.45    1.40
  -4   0  -5   46.71    1.35
  -4   0  -5   50.33    1.39
   4   0   5   49.11    1.38
   4   0   5   45.20    1.40
  -5   0  -5   10.71    0.40
  -6   0  -5    4.16    0.25
  -6   1   5    2.20    0.14
  -6   1   5    2.08    0.14
  -5   1   5    7.58    0.24
  -5   1   5    7.65    0.26
  -4   1   5   62.61    1.79
  -4   1   5   63.07    1.78
  -4   1   5   60.31    1.64
   3  -1  -5    1.41    0.10
  -3   1   5    1.56    0.10
  -3   1   5    1.52    0.06
  -3   1   5    1.52    0.08
   2  -1  -5    1.36    0.10
   2  -1  -5    1.31    0.06
   2  -1  -5    1.33    0.07
  -2   1   5    1.41    0.08
  -2   1   5    1.35    0.05
  -2   1   5    1.65    0.10
   1  -1  -5    0.24    0.02
   1  -1  -5    0.18    0.04
   1  -1  -5    0.21    0.03
  -1   1   5    0.28    0.02
  -1   1   5    0.17    0.03
  -1   1   5    0.22    0.05
   0  -1  -5   10.41    0.36
   0  -1  -5   10.65    0.34
   0  -1  -5   10.30    0.30
   0   1   5   10.52    0.30
   0   1   5    9.97    0.33
   0   1   5   10.21    0.37
  -1  -1  -5    3.57    0.15
  -1  -1  -5    3.88    0.14
  -1  -1  -5    3.92    0.17
   1   1   5    3.53    0.14
   1   1   5    3.78    0.15
   1   1   5    3.78    0.18
  -2  -1  -5    1.49    0.10
  -2  -1  -5    1.53    0.09
  -2  -1  -5    1.53    0.09
   2   1   5    1.64    0.09
   2   1   5    1.59    0.11
  -3  -1  -5   41.81    1.20
  -3  -1  -5   39.79    1.15
  -3  -1  -5   41.70    1.23
   3   1   5   39.75    1.20
  -4  -1  -5    5.59    0.21
  -4  -1  -5    5.24    0.22
  -4  -1  -5    4.93    0.22
   4   1   5    5.71    0.20
   4   1   5    5.49    0.23
  -5  -1  -5    0.05    0.04
  -5  -1  -5    0.02    0.06
  -6   2   5    3.20    0.17
  -5   2   5    3.06    0.11
   4  -2  -5   44.87    1.29
  -4   2   5   43.86    1.30
  -4   2   5   42.83    1.28
  -4   2   5   44.25    1.15
   3  -2  -5    5.09    0.21
  -3   2   5    5.21    0.22
  -3   2   5    4.75    0.19
   2  -2  -5    0.14    0.04
  -2   2   5    0.18    0.05
  -2   2   5    0.21    0.04
   1  -2  -5  214.31    6.35
   1  -2  -5  227.72    6.37
  -1   2   5  225.89    6.33
  -1   2   5  210.07    6.33
   0  -2  -5    0.15    0.04
   0   2   5    0.14    0.02
   0   2   5    0.12    0.03
   0   2   5    0.13    0.04
  -1  -2  -5   44.44    1.21
  -1  -2  -5   46.75    1.31
  -1  -2  -5   43.96    1.34
   1   2   5   45.20    1.34
   1   2   5   43.06    1.30
   1   2   5   42.99    1.22
  -2  -2  -5    1.13    0.07
  -2  -2  -5    1.11    0.08
  -2  -2  -5    1.05    0.10
   2   2   5    1.09    0.08
   2   2   5    1.28    0.11
   2   2   5    1.20    0.09
  -3  -2  -5    1.41    0.09
  -3  -2  -5    1.52    0.10
  -3  -2  -5    1.44    0.11
   3   2   5    1.47    0.13
   3   2   5    1.52    0.10
  -4  -2  -5    4.26    0.19
  -4  -2  -5    3.76    0.20
   4   2   5    4.15    0.17
   4   2   5    4.14    0.19
  -5  -2  -5   27.11    0.81
  -5  -2  -5   25.74    0.80
  -6   3   5    1.58    0.15
  -5   3   5    0.07    0.05
  -5   3   5    0.00    0.05
   4  -3  -5    1.83    0.14
  -4   3   5    1.53    0.11
  -4   3   5    1.83    0.14
   3  -3  -5   14.17    0.48
  -3   3   5   13.50    0.47
  -3   3   5   13.61    0.45
   2  -3  -5   54.27    1.65
  -2   3   5   55.64    1.62
  -2   3   5   55.50    1.65
   1  -3  -5   24.79    0.80
  -1   3   5   24.39    0.79
  -1   3   5   24.94    0.76
   0  -3  -5   14.06    0.48
   0   3   5   14.19    0.48
   0   3   5   13.36    0.40
   0   3   5   12.88    0.44
  -1  -3  -5    5.47    0.26
  -1  -3  -5    5.87    0.20
   1   3   5    5.73    0.22
   1   3   5    5.79    0.20
   1   3   5    5.54    0.25
  -2  -3  -5   15.66    0.46
  -2  -3  -5   14.97    0.53
   2   3   5   15.04    0.48
   2   3   5   14.30    0.46
   2   3   5   15.03    0.52
  -3  -3  -5    0.07    0.08
  -3  -3  -5    0.07    0.04
   3   3   5    0.00    0.06
   3   3   5    0.03    0.04
  -4  -3  -5   11.27    0.43
  -4  -3  -5   12.35    0.41
   4   3   5   12.34    0.40
  -5  -3  -5    1.61    0.20
  -5  -3  -5    1.58    0.14
  -5  -3  -5    1.83    0.15
   5  -4  -5    0.49    0.09
  -5   4   5    0.24    0.07
  -5   4   5    0.24    0.07
   4  -4  -5    0.30    0.08
  -4   4   5    0.20    0.07
  -4   4   5    0.23    0.06
   3  -4  -5    6.17    0.28
  -3   4   5    5.95    0.27
  -3   4   5    5.85    0.24
   2  -4  -5    1.61    0.14
  -2   4   5    1.55    0.11
  -2   4   5    1.54    0.13
   1  -4  -5   14.46    0.42
   1  -4  -5   14.24    0.52
  -1   4   5   14.46    0.52
  -1   4   5   15.11    0.48
   0  -4  -5   77.98    2.26
   0   4   5   73.94    2.25
   0   4   5   74.54    2.04
   0   4   5   76.66    2.21
  -1  -4  -5    7.05    0.31
   1   4   5    6.85    0.24
   1   4   5    6.64    0.26
   1   4   5    6.60    0.29
  -2  -4  -5   17.87    0.52
  -2  -4  -5   17.55    0.62
   2   4   5   16.99    0.53
   2   4   5   17.28    0.56
   2   4   5   16.87    0.60
  -3  -4  -5    9.67    0.33
  -3  -4  -5    9.59    0.40
   3   4   5    9.82    0.38
   3   4   5   10.23    0.35
   3   4   5    9.95    0.36
  -4  -4  -5    5.20    0.28
  -4  -4  -5    5.02    0.22
  -4  -4  -5    4.82    0.30
   4   4   5    5.26    0.25
   4   4   5    5.41    0.22
  -5  -4  -5    0.07    0.14
  -5  -4  -5   -0.05    0.09
  -5  -4  -5    0.20    0.07
  -5   5   5    1.21    0.15
  -5   5   5    1.04    0.12
   4  -5  -5   19.77    0.69
  -4   5   5   19.82    0.67
  -4   5   5   19.75    0.65
   3  -5  -5    0.25    0.08
  -3   5   5    0.20    0.06
  -3   5   5    0.26    0.07
   2  -5  -5    0.72    0.10
  -2   5   5    0.76    0.10
  -2   5   5    0.88    0.12
   1  -5  -5   31.54    1.03
   1  -5  -5   32.19    0.87
  -1   5   5   31.29    1.02
  -1   5   5   31.92    0.98
   0  -5  -5    0.32    0.09
   0  -5  -5    0.41    0.06
   0   5   5    0.33    0.08
   0   5   5    0.47    0.05
   0   5   5    0.45    0.07
  -1  -5  -5    5.60    0.28
   1   5   5    5.42    0.21
   1   5   5    5.55    0.27
   1   5   5    5.20    0.23
  -2  -5  -5   20.29    0.73
   2   5   5   21.28    0.64
   2   5   5   21.79    0.68
   2   5   5   20.41    0.71
  -3  -5  -5    9.80    0.34
  -3  -5  -5    9.62    0.42
  -3  -5  -5    9.82    0.41
   3   5   5    9.78    0.39
   3   5   5    9.96    0.36
  -4  -5  -5    0.89    0.14
  -4  -5  -5    0.83    0.10
  -4  -5  -5    0.82    0.15
   4   5   5    0.81    0.12
  -5  -5  -5    2.45    0.27
  -5  -5  -5    2.52    0.18
   5  -6  -5    0.05    0.14
  -5   6   5    0.09    0.09
  -5   6   5    0.17    0.10
   4  -6  -5    0.41    0.12
  -4   6   5    0.23    0.10
  -4   6   5    0.36    0.09
   3  -6  -5   16.59    0.63
  -3   6   5   16.13    0.59
  -3   6   5   16.34    0.56
   2  -6  -5    0.08    0.02
   2  -6  -5    0.15    0.08
  -2   6   5   -0.02    0.06
  -2   6   5    0.08    0.06
   1  -6  -5    6.29    0.22
   1  -6  -5    6.38    0.32
  -1   6   5    6.46    0.30
  -1   6   5    6.74    0.28
   0  -6  -5    0.43    0.07
   0  -6  -5    0.47    0.11
   0   6   5    0.39    0.09
   0   6   5    0.38    0.07
   0   6   5    0.35    0.05
  -1  -6  -5    0.15    0.06
  -1  -6  -5    0.24    0.08
   1   6   5    0.25    0.07
   1   6   5    0.22    0.08
   1   6   5    0.15    0.04
  -2  -6  -5    5.74    0.27
  -2  -6  -5    5.08    0.31
   2   6   5    5.39    0.24
   2   6   5    5.10    0.28
  -3  -6  -5   18.01    0.62
  -3  -6  -5   17.71    0.69
   3   6   5   17.78    0.58
   3   6   5   16.66    0.62
  -4  -6  -5   12.25    0.51
  -4  -6  -5   12.57    0.54
   4   6   5   12.22    0.47
   4   6   5   12.27    0.45
  -5   7   5    6.54    0.35
   4  -7  -5    2.01    0.28
  -4   7   5    1.60    0.20
  -4   7   5    1.81    0.20
   3  -7  -5   35.02    1.27
  -3   7   5   40.07    1.25
  -3   7   5   41.35    1.22
   2  -7  -5   12.33    0.35
  -2   7   5   11.75    0.49
  -2   7   5   13.28    0.47
   1  -7  -5    3.98    0.27
   1  -7  -5    3.85    0.16
  -1   7   5    4.16    0.22
  -1   7   5    3.80    0.24
   0  -7  -5   17.65    0.67
   0  -7  -5   17.33    0.54
   0   7   5   17.27    0.60
   0   7   5   17.49    0.64
   0   7   5   17.34    0.53
  -1  -7  -5   11.14    0.39
  -1  -7  -5    9.15    0.46
   1   7   5   11.25    0.45
  -2  -7  -5    0.02    0.12
  -2  -7  -5    0.02    0.07
   2   7   5    0.08    0.09
  -3  -7  -5    3.18    0.30
  -3  -7  -5    2.60    0.23
   3   7   5    2.30    0.20
   3   7   5    2.64    0.20
   3   7   5    2.70    0.23
  -4  -7  -5    2.10    0.25
  -4  -7  -5    2.54    0.26
   4   7   5    2.30    0.24
   4   7   5    2.30    0.23
  -4   8   5    0.79    0.15
  -4   8   5    0.73    0.15
   3  -8  -5    0.43    0.15
  -3   8   5    0.01    0.09
  -3   8   5    0.15    0.11
   2  -8  -5   10.93    0.32
  -2   8   5   11.66    0.49
  -2   8   5   11.35    0.45
   1  -8  -5    1.38    0.10
   1  -8  -5    1.70    0.21
  -1   8   5    1.51    0.17
  -1   8   5    1.46    0.19
   0  -8  -5    6.07    0.24
   0  -8  -5    5.64    0.35
   0   8   5    5.39    0.32
   0   8   5    6.18    0.24
   0   8   5    5.80    0.29
  -1  -8  -5    1.99    0.24
  -1  -8  -5    1.69    0.16
   1   8   5    1.61    0.20
  -2  -8  -5    0.06    0.08
  -2  -8  -5    0.03    0.13
   2   8   5    0.02    0.10
   2   8   5    0.17    0.08
   2   8   5    0.02    0.09
  -3  -8  -5    2.12    0.24
  -3  -8  -5    2.56    0.34
   3   8   5    2.04    0.25
   3   8   5    2.04    0.25
  -4  -8  -5    4.93    0.36
  -4   9   5    5.67    0.38
  -4   9   5    5.38    0.35
  -3   9   5    2.51    0.27
  -3   9   5    2.36    0.25
   2  -9  -5   10.54    0.54
   2  -9  -5   10.56    0.32
  -2   9   5   11.04    0.47
  -2   9   5   11.36    0.50
   1  -9  -5    0.24    0.06
   1  -9  -5    0.48    0.17
  -1   9   5    0.24    0.10
  -1   9   5    0.30    0.12
   0  -9  -5    1.11    0.13
   0  -9  -5    0.85    0.19
   0   9   5    0.94    0.13
   0   9   5    1.02    0.14
   0   9   5    0.92    0.15
  -1  -9  -5    4.12    0.37
  -1  -9  -5    4.33    0.23
   1   9   5    4.35    0.27
   1   9   5    4.16    0.30
   1   9   5    3.53    0.22
  -2  -9  -5    0.87    0.14
  -2  -9  -5    0.87    0.21
   2   9   5    0.77    0.17
  -3  -9  -5    1.43    0.19
  -3  -9  -5    1.25    0.25
   3   9   5    1.07    0.19
  -3  10   5    0.46    0.15
  -3  10   5    0.75    0.19
   2 -10  -5    3.36    0.14
  -2  10   5    3.28    0.30
  -2  10   5    3.31    0.32
   1 -10  -5    8.82    0.54
   1 -10  -5    9.10    0.32
  -1  10   5    9.26    0.45
  -1  10   5    9.89    0.47
   0 -10  -5    0.15    0.19
   0 -10  -5    0.10    0.08
   0  10   5    0.11    0.13
   0  10   5    0.01    0.12
  -1 -10  -5    6.84    0.51
  -1 -10  -5    7.28    0.33
   1  10   5    7.35    0.43
  -2 -10  -5    3.13    0.37
  -2 -10  -5    3.17    0.26
   2  10   5    2.81    0.33
   2 -11  -5    0.45    0.07
  -2  11   5    0.36    0.16
   1 -11  -5    7.97    0.30
  -1  11   5    8.43    0.48
   0 -11  -5   -0.04    0.08
   0  11   5   -0.02    0.15
  -1 -11  -5    0.40    0.33
  -1 -11  -5    0.89    0.14
   1  11   5    1.06    0.20
   1  12  -6    0.95    0.19
  -1 -12   6    0.87    0.18
  -1 -12   6    1.05    0.14
   0  12  -6   -0.17    0.14
   0 -12   6    0.00    0.08
   0 -12   6   -0.06    0.12
  -1  12  -6    3.09    0.30
   1 -12   6    2.35    0.29
   1 -12   6    3.23    0.21
   2  11  -6    1.65    0.21
   2  11  -6    1.70    0.20
  -2 -11   6    1.25    0.15
  -2 -11   6    1.29    0.18
  -2 -11   6    1.83    0.30
   1  11  -6   11.93    0.52
  -1 -11   6   11.72    0.52
  -1 -11   6   12.66    0.45
  -1 -11   6   12.64    0.66
   0  11  -6    6.14    0.43
   0  11  -6    5.21    0.33
   0 -11   6    4.34    0.48
   0 -11   6    5.54    0.26
   0 -11   6    5.20    0.32
  -1  11  -6    0.39    0.13
  -1  11  -6    0.73    0.16
   1 -11   6    0.59    0.16
   1 -11   6    0.73    0.09
  -2  11  -6    7.12    0.36
  -2  11  -6    7.33    0.39
   2 -11   6    7.50    0.42
   2 -11   6    7.42    0.30
   3  10  -6    0.56    0.14
  -3 -10   6    0.53    0.12
  -3 -10   6    0.29    0.12
  -3 -10   6    0.60    0.24
   2  10  -6    0.57    0.13
   2  10  -6    0.62    0.10
  -2 -10   6    0.29    0.11
  -2 -10   6    0.58    0.11
  -2 -10   6    0.60    0.21
   1  10  -6    2.68    0.23
   1  10  -6    2.32    0.29
  -1 -10   6    2.98    0.19
  -1 -10   6    3.30    0.34
  -1 -10   6    2.81    0.21
   0  10  -6    0.36    0.12
   0  10  -6    0.50    0.12
   0 -10   6    0.44    0.16
   0 -10   6    0.43    0.10
   0 -10   6    0.51    0.09
  -1  10  -6    4.37    0.27
  -1  10  -6    4.74    0.29
   1 -10   6    4.56    0.30
   1 -10   6    4.87    0.38
   1 -10   6    4.72    0.21
  -2  10  -6   17.41    0.64
  -2  10  -6   17.32    0.57
   2 -10   6   16.40    0.53
   2 -10   6   16.42    0.66
  -3  10  -6    0.46    0.12
  -3  10  -6    0.43    0.12
   3 -10   6    0.32    0.13
  -4  -9   6    3.29    0.26
  -4  -9   6    2.95    0.26
   3   9  -6    3.05    0.23
  -3  -9   6    2.95    0.35
  -3  -9   6    2.83    0.22
  -3  -9   6    3.32    0.24
   2   9  -6    0.24    0.07
   2   9  -6    0.25    0.15
   2   9  -6    0.39    0.11
  -2  -9   6    0.33    0.09
  -2  -9   6    0.44    0.15
  -2  -9   6    0.25    0.07
   1   9  -6    0.10    0.11
   1   9  -6    0.17    0.08
  -1  -9   6    0.01    0.11
  -1  -9   6    0.11    0.07
  -1  -9   6    0.19    0.06
   0   9  -6   13.02    0.46
   0   9  -6   13.18    0.50
   0  -9   6   12.09    0.50
   0  -9   6   12.76    0.54
   0  -9   6   13.28    0.43
  -1   9  -6    2.55    0.21
  -1   9  -6    3.21    0.20
   1  -9   6    3.01    0.27
   1  -9   6    3.14    0.22
   1  -9   6    3.02    0.16
  -2   9  -6    0.23    0.09
  -2   9  -6    0.23    0.09
   2  -9   6    0.24    0.06
   2  -9   6    0.38    0.13
   2  -9   6    0.15    0.08
  -3   9  -6    1.39    0.18
  -3   9  -6    1.26    0.16
   3  -9   6    1.58    0.20
  -4   9  -6    5.03    0.30
  -4   9  -6    5.02    0.27
   4  -9   6    4.74    0.34
   4   8  -6    1.20    0.13
   4   8  -6    1.21    0.17
  -4  -8   6    1.21    0.14
  -4  -8   6    0.85    0.18
  -4  -8   6    0.85    0.13
   3   8  -6    6.14    0.40
   3   8  -6    6.48    0.26
   3   8  -6    6.35    0.30
  -3  -8   6    6.65    0.31
  -3  -8   6    6.91    0.29
  -3  -8   6    6.25    0.37
   2   8  -6    0.47    0.07
   2   8  -6    0.54    0.10
  -2  -8   6    0.48    0.10
  -2  -8   6    0.29    0.11
  -2  -8   6    0.52    0.09
   1   8  -6    4.59    0.25
   1   8  -6    4.61    0.24
  -1  -8   6    4.83    0.25
  -1  -8   6    4.70    0.28
  -1  -8   6    4.65    0.21
   0   8  -6   11.53    0.40
   0   8  -6   11.26    0.43
   0  -8   6   10.85    0.44
   0  -8   6   11.33    0.37
   0  -8   6   11.02    0.46
  -1   8  -6    0.00    0.06
  -1   8  -6    0.07    0.06
   1  -8   6    0.03    0.05
   1  -8   6    0.07    0.08
   1  -8   6    0.04    0.04
  -2   8  -6    2.29    0.18
  -2   8  -6    3.15    0.17
   2  -8   6    2.65    0.20
  -3   8  -6    9.40    0.40
  -3   8  -6    9.71    0.34
   3  -8   6    9.65    0.41
   3  -8   6    9.27    0.45
  -4   8  -6    0.00    0.08
  -4   8  -6    0.04    0.08
   4  -8   6    0.03    0.12
   4   7  -6    0.45    0.08
   4   7  -6    0.25    0.08
  -4  -7   6    0.38    0.10
  -4  -7   6    0.49    0.13
  -4  -7   6    0.40    0.10
   3   7  -6    5.46    0.25
   3   7  -6    4.73    0.33
   3   7  -6    5.54    0.21
  -3  -7   6    5.52    0.25
  -3  -7   6    5.74    0.31
  -3  -7   6    5.55    0.26
   2   7  -6    0.91    0.12
   2   7  -6    1.02    0.08
  -2  -7   6    1.08    0.13
  -2  -7   6    0.83    0.11
  -2  -7   6    0.94    0.12
   1   7  -6    4.25    0.21
   1   7  -6    4.22    0.21
  -1  -7   6    4.11    0.18
  -1  -7   6    4.27    0.22
  -1  -7   6    4.18    0.24
   0   7  -6    5.08    0.24
   0   7  -6    4.98    0.21
   0  -7   6    5.04    0.20
   0  -7   6    4.00    0.25
   0  -7   6    5.45    0.25
  -1   7  -6   11.94    0.46
  -1   7  -6   12.89    0.41
   1  -7   6   12.61    0.47
   1  -7   6   12.94    0.39
   1  -7   6   12.37    0.48
  -2   7  -6   17.52    0.60
  -2   7  -6   17.44    0.52
   2  -7   6   16.32    0.61
  -3   7  -6    0.90    0.13
  -3   7  -6    1.05    0.11
   3  -7   6    0.78    0.12
   3  -7   6    0.78    0.13
  -4   7  -6    1.16    0.13
  -4   7  -6    1.20    0.15
   4  -7   6    1.24    0.16
   4  -7   6    1.24    0.19
  -5   7  -6    6.14    0.27
  -5   7  -6    6.38    0.32
  -5  -6   6   12.19    0.43
  -5  -6   6   11.70    0.46
  -5  -6   6   11.49    0.44
  -4  -6   6    0.15    0.09
  -4  -6   6    0.09    0.07
  -4  -6   6    0.11    0.08
   3   6  -6    3.00    0.14
   3   6  -6    3.02    0.16
  -3  -6   6    3.09    0.18
  -3  -6   6    3.36    0.18
  -3  -6   6    3.25    0.21
   2   6  -6    6.39    0.26
   2   6  -6    6.32    0.28
   2   6  -6    6.28    0.21
  -2  -6   6    5.63    0.26
  -2  -6   6    6.50    0.25
  -2  -6   6    6.30    0.28
   1   6  -6    1.17    0.11
   1   6  -6    1.28    0.11
  -1  -6   6    1.21    0.09
  -1  -6   6    1.12    0.12
  -1  -6   6    1.25    0.13
   0   6  -6    9.52    0.36
   0   6  -6    9.79    0.32
   0  -6   6    9.71    0.37
   0  -6   6    9.21    0.31
   0  -6   6    9.34    0.37
  -1   6  -6   55.91    1.71
  -1   6  -6   58.54    1.55
   1  -6   6   56.66    1.54
   1  -6   6   55.94    1.72
   1  -6   6   58.48    1.73
  -2   6  -6    0.04    0.04
  -2   6  -6    0.03    0.04
   2  -6   6    0.10    0.04
   2  -6   6    0.02    0.06
  -3   6  -6    1.33    0.13
  -3   6  -6    1.18    0.10
   3  -6   6    1.41    0.15
  -4   6  -6    8.27    0.29
  -4   6  -6    7.79    0.34
   4  -6   6    8.53    0.39
   4  -6   6    8.55    0.37
  -5   6  -6    0.06    0.08
  -5   6  -6    0.04    0.08
   5  -6   6    0.17    0.16
   5  -6   6    0.03    0.12
  -5  -5   6    3.26    0.17
  -5  -5   6    3.01    0.22
   4   5  -6    1.69    0.11
  -4  -5   6    1.84    0.16
  -4  -5   6    1.99    0.14
  -4  -5   6    1.95    0.16
   3   5  -6    0.28    0.04
   3   5  -6    0.29    0.06
   3   5  -6    0.35    0.10
  -3  -5   6    0.31    0.06
  -3  -5   6    0.09    0.06
  -3  -5   6    0.19    0.07
   2   5  -6    9.45    0.29
   2   5  -6    9.40    0.34
   2   5  -6    9.50    0.34
  -2  -5   6    9.49    0.35
  -2  -5   6    9.69    0.32
  -2  -5   6    9.78    0.36
   1   5  -6    0.01    0.04
   1   5  -6    0.02    0.04
  -1  -5   6    0.05    0.03
  -1  -5   6    0.02    0.04
  -1  -5   6    0.04    0.05
   0   5  -6   14.40    0.43
   0   5  -6   14.35    0.48
   0  -5   6   14.07    0.42
   0  -5   6   14.28    0.49
   0  -5   6   13.82    0.49
  -1   5  -6    3.71    0.15
  -1   5  -6    3.60    0.18
   1  -5   6    3.57    0.14
   1  -5   6    3.49    0.18
   1  -5   6    3.59    0.18
  -2   5  -6    0.70    0.09
  -2   5  -6    0.77    0.07
   2  -5   6    0.76    0.10
   2  -5   6    0.67    0.09
  -3   5  -6   76.03    2.04
  -3   5  -6   78.31    2.25
   3  -5   6   76.22    2.26
   3  -5   6   75.34    2.28
  -4   5  -6    5.54    0.22
  -4   5  -6    5.95    0.26
   4  -5   6    5.90    0.28
  -5   5  -6    0.79    0.11
  -5   5  -6    0.88    0.10
   5  -5   6    0.70    0.13
   5  -5   6    1.05    0.17
  -5  -4   6    1.67    0.17
   4   4  -6   48.36    1.41
  -4  -4   6   48.84    1.36
  -4  -4   6   48.83    1.45
  -4  -4   6   49.27    1.45
   3   4  -6    0.12    0.04
   3   4  -6    0.05    0.03
   3   4  -6    0.08    0.07
  -3  -4   6    0.02    0.05
  -3  -4   6    0.01    0.04
  -3  -4   6    0.03    0.04
   2   4  -6   17.32    0.49
   2   4  -6   16.42    0.55
   2   4  -6   17.84    0.54
  -2  -4   6   18.00    0.52
  -2  -4   6   18.64    0.58
  -2  -4   6   17.67    0.57
   1   4  -6    0.43    0.06
   1   4  -6    0.40    0.06
  -1  -4   6    0.28    0.04
  -1  -4   6    0.31    0.05
  -1  -4   6    0.35    0.05
   0   4  -6   20.02    0.58
   0  -4   6   20.06    0.64
   0  -4   6   20.46    0.57
  -1   4  -6    0.40    0.05
  -1   4  -6    0.45    0.06
   1  -4   6    0.22    0.05
   1  -4   6    0.26    0.04
   1  -4   6    0.37    0.06
  -2   4  -6   12.53    0.38
  -2   4  -6   12.76    0.43
   2  -4   6   12.74    0.44
   2  -4   6   12.68    0.45
  -3   4  -6   27.00    0.84
  -3   4  -6   26.93    0.76
   3  -4   6   27.41    0.85
   3  -4   6   26.60    0.87
  -4   4  -6   13.70    0.48
  -4   4  -6   13.37    0.43
   4  -4   6   14.08    0.50
   4  -4   6   14.35    0.50
  -5   4  -6    2.56    0.17
  -5   4  -6    2.45    0.17
  -5  -3   6    1.25    0.15
  -4  -3   6    6.32    0.23
  -4  -3   6    5.99    0.24
  -4  -3   6    6.52    0.25
   3   3  -6    5.87    0.24
   3   3  -6    5.27    0.20
  -3  -3   6    5.81    0.21
  -3  -3   6    5.77    0.23
  -3  -3   6    5.40    0.21
   2   3  -6   42.23    1.25
   2   3  -6   42.34    1.14
   2   3  -6   43.31    1.18
  -2  -3   6   43.21    1.16
  -2  -3   6   42.09    1.28
  -2  -3   6   42.29    1.26
   1   3  -6   81.56    2.55
   1   3  -6   91.97    2.35
   1   3  -6   91.13    2.56
  -1  -3   6   91.22    2.34
  -1  -3   6   87.41    2.57
  -1  -3   6   87.44    2.55
   0   3  -6   63.75    1.80
   0   3  -6   63.89    1.81
   0   3  -6   60.32    1.64
   0  -3   6   61.87    1.80
   0  -3   6   61.21    1.82
   0  -3   6   58.88    1.64
  -1   3  -6   14.34    0.47
  -1   3  -6   13.98    0.40
  -1   3  -6   14.07    0.46
   1  -3   6   14.13    0.46
   1  -3   6   13.21    0.47
  -2   3  -6   54.10    1.61
  -2   3  -6   55.95    1.63
  -2   3  -6   54.92    1.47
   2  -3   6   55.89    1.64
   2  -3   6   53.00    1.61
  -3   3  -6   27.63    0.84
  -3   3  -6   26.68    0.76
   3  -3   6   26.21    0.86
   3  -3   6   27.49    0.84
  -4   3  -6   43.88    1.34
   4  -3   6   43.43    1.37
   4  -3   6   46.79    1.35
  -5   3  -6    2.90    0.17
   5  -3   6    3.19    0.21
   5  -3   6    2.82    0.20
  -6  -2   6    0.56    0.11
  -5  -2   6    0.77    0.09
  -4  -2   6   22.54    0.68
  -4  -2   6   22.61    0.66
  -4  -2   6   23.15    0.70
   3   2  -6   49.27    1.38
  -3  -2   6   48.26    1.45
  -3  -2   6   51.41    1.48
  -3  -2   6   51.03    1.35
   2   2  -6    3.91    0.16
   2   2  -6    4.16    0.17
   2   2  -6    3.82    0.16
  -2  -2   6    3.98    0.15
  -2  -2   6    3.78    0.16
  -2  -2   6    3.94    0.18
   1   2  -6   41.70    1.10
   1   2  -6   40.64    1.20
   1   2  -6   41.53    1.21
  -1  -2   6   40.31    1.22
  -1  -2   6   40.04    1.09
  -1  -2   6   40.42    1.20
   0   2  -6   86.04    2.44
   0   2  -6   86.62    2.23
   0   2  -6   85.32    2.46
   0  -2   6   81.36    2.44
   0  -2   6   84.82    2.23
   0  -2   6   83.22    2.46
  -1   2  -6   67.67    1.94
  -1   2  -6   66.51    1.76
  -1   2  -6   66.72    1.95
   1  -2   6   66.26    1.96
   1  -2   6   65.41    1.93
  -2   2  -6    7.70    0.27
  -2   2  -6    7.37    0.28
   2  -2   6    7.44    0.29
   2  -2   6    7.77    0.28
  -3   2  -6   24.88    0.77
  -3   2  -6   24.44    0.76
   3  -2   6   24.52    0.79
   3  -2   6   24.25    0.76
  -4   2  -6    0.02    0.04
   4  -2   6    0.14    0.06
   4  -2   6    0.02    0.08
  -5   2  -6    8.92    0.36
  -5   2  -6    8.84    0.32
   5  -2   6    8.52    0.34
   5  -2   6    9.31    0.33
  -6  -1   6    2.16    0.12
  -6  -1   6    2.23    0.18
  -5  -1   6    6.89    0.22
  -5  -1   6    7.14    0.26
  -4  -1   6    2.83    0.12
  -4  -1   6    2.83    0.13
  -4  -1   6    2.67    0.10
  -4  -1   6    2.89    0.14
   3   1  -6    9.65    0.31
   3   1  -6    9.18    0.31
  -3  -1   6    9.59    0.29
  -3  -1   6    9.17    0.31
  -3  -1   6    9.35    0.33
   2   1  -6   49.94    1.45
   2   1  -6   48.18    1.32
   2   1  -6   50.40    1.44
  -2  -1   6   48.38    1.31
  -2  -1   6   49.57    1.44
  -2  -1   6   49.55    1.47
   1   1  -6    8.72    0.26
   1   1  -6    9.01    0.24
   1   1  -6    9.04    0.30
   1   1  -6    8.86    0.31
  -1  -1   6    8.61    0.30
  -1  -1   6    8.60    0.26
  -1  -1   6    8.70    0.32
   0   1  -6    3.29    0.16
   0   1  -6    3.40    0.12
   0  -1   6    3.52    0.15
   0  -1   6    3.51    0.16
  -1   1  -6    0.58    0.07
   1  -1   6    0.58    0.06
   1  -1   6    0.64    0.07
  -2   1  -6    3.80    0.18
  -2   1  -6    3.77    0.16
   2  -1   6    3.89    0.16
   2  -1   6    4.02    0.18
  -3   1  -6    8.77    0.32
  -3   1  -6    8.97    0.32
  -3   1  -6    9.43    0.32
   3  -1   6    8.75    0.34
   3  -1   6    9.19    0.32
  -4   1  -6    7.27    0.27
  -4   1  -6    7.46    0.29
  -4   1  -6    7.49    0.27
   4  -1   6    7.38    0.27
   4  -1   6    6.16    0.29
  -5   1  -6    6.16    0.27
  -5   1  -6    6.03    0.23
   5  -1   6    6.12    0.23
   5  -1   6    5.47    0.24
  -6   0   6    4.86    0.19
  -6   0   6    5.04    0.22
  -5   0   6    6.39    0.21
  -5   0   6    6.24    0.22
  -4   0   6    4.83    0.18
  -4   0   6    5.20    0.20
  -4   0   6    5.13    0.18
  -4   0   6    5.20    0.16
   3   0  -6    4.10    0.17
   3   0  -6    4.35    0.17
  -3   0   6    4.22    0.14
  -3   0   6    4.11    0.16
  -3   0   6    4.29    0.13
  -3   0   6    4.52    0.19
   2   0  -6   68.17    1.95
   2   0  -6   66.49    1.78
   2   0  -6   66.04    1.96
  -2   0   6   67.75    1.98
  -2   0   6   69.13    1.95
  -2   0   6   66.93    1.77
   1   0  -6   20.33    0.56
   1   0  -6   19.92    0.63
   1   0  -6   21.34    0.66
  -1   0   6   20.52    0.66
  -1   0   6   21.25    0.63
   0   0  -6  139.71    4.01
   0   0  -6  134.88    3.66
   0   0  -6  137.34    3.75
   0   0  -6  149.38    4.04
   0   0   6  143.99    4.04
   0   0   6  136.55    4.01
  -1   0  -6  287.09    8.18
  -1   0  -6  274.30    7.55
  -1   0  -6  279.95    8.12
   1   0   6  285.18    8.04
   1   0   6  282.70    8.13
  -2   0  -6    1.09    0.10
  -2   0  -6    1.09    0.08
  -2   0  -6    1.09    0.07
   2   0   6    1.15    0.10
   2   0   6    1.09    0.08
  -3   0  -6   27.09    0.85
  -3   0  -6   27.46    0.83
  -3   0  -6   26.67    0.80
   3   0   6   27.83    0.83
   3   0   6   26.86    0.86
  -4   0  -6    0.07    0.04
  -4   0  -6    0.10    0.05
  -4   0  -6    0.10    0.05
   4   0   6    0.15    0.05
  -5   0  -6    0.54    0.08
  -5   0  -6    0.66    0.09
  -6   1   6    2.09    0.12
  -6   1   6    1.83    0.12
  -5   1   6    0.86    0.07
  -5   1   6    0.67    0.07
   4  -1  -6    1.01    0.07
  -4   1   6    1.03    0.08
  -4   1   6    1.00    0.06
  -4   1   6    0.95    0.06
  -4   1   6    0.90    0.10
   3  -1  -6   12.18    0.40
  -3   1   6   11.44    0.38
  -3   1   6   12.07    0.41
  -3   1   6   11.72    0.33
   2  -1  -6   12.41    0.41
   2  -1  -6   11.40    0.33
   2  -1  -6   11.51    0.38
  -2   1   6   11.54    0.38
  -2   1   6   11.67    0.41
   1  -1  -6   38.67    1.18
   1  -1  -6   39.36    1.16
   1  -1  -6   39.11    1.04
  -1   1   6   38.98    1.05
  -1   1   6   39.85    1.20
  -1   1   6   39.18    1.16
   0  -1  -6   26.96    0.80
   0  -1  -6   27.06    0.83
   0  -1  -6   26.39    0.73
   0   1   6   26.62    0.83
   0   1   6   25.69    0.73
   0   1   6   25.77    0.80
  -1  -1  -6   14.01    0.49
  -1  -1  -6   14.96    0.47
  -1  -1  -6   15.05    0.43
   1   1   6   14.60    0.47
   1   1   6   14.33    0.51
  -2  -1  -6    0.05    0.04
  -2  -1  -6    0.05    0.02
  -2  -1  -6    0.04    0.03
   2   1   6    0.10    0.04
   2   1   6    0.03    0.05
  -3  -1  -6    0.11    0.05
  -3  -1  -6    0.16    0.04
  -3  -1  -6    0.13    0.04
   3   1   6    0.12    0.07
   3   1   6    0.08    0.04
  -4  -1  -6    0.08    0.05
  -4  -1  -6    0.12    0.06
  -4  -1  -6    0.08    0.05
   4   1   6    0.08    0.05
  -5  -1  -6    8.09    0.30
  -5  -1  -6    8.37    0.33
  -6   2   6    0.61    0.08
  -5   2   6   35.23    1.01
  -5   2   6   35.17    0.97
  -5   2   6   32.36    1.00
   4  -2  -6    9.76    0.33
  -4   2   6    9.81    0.35
  -4   2   6    9.26    0.32
   3  -2  -6   11.05    0.39
  -3   2   6   10.92    0.36
  -3   2   6   10.67    0.39
   2  -2  -6    0.10    0.04
   2  -2  -6    0.09    0.02
  -2   2   6    0.13    0.05
  -2   2   6    0.12    0.04
   1  -2  -6   10.73    0.35
   1  -2  -6   10.91    0.39
  -1   2   6   10.05    0.35
  -1   2   6   10.53    0.31
  -1   2   6   10.91    0.40
   0  -2  -6   14.34    0.47
   0  -2  -6   14.92    0.43
   0  -2  -6   16.05    0.52
   0   2   6   14.61    0.43
   0   2   6   14.26    0.51
  -1  -2  -6  153.71    4.22
  -1  -2  -6  147.47    4.17
  -1  -2  -6  143.98    3.94
   1   2   6  134.12    3.88
   1   2   6  144.90    4.17
   1   2   6  149.80    4.22
  -2  -2  -6   36.93    1.10
  -2  -2  -6   36.85    1.13
  -2  -2  -6   35.77    1.03
   2   2   6   36.94    1.10
   2   2   6   36.42    1.14
  -3  -2  -6   10.00    0.39
  -3  -2  -6   10.25    0.35
  -3  -2  -6   10.17    0.36
   3   2   6   10.46    0.35
   3   2   6   10.22    0.39
  -4  -2  -6    6.15    0.26
  -4  -2  -6    6.53    0.28
   4   2   6    7.05    0.25
  -5  -2  -6    5.95    0.26
  -5  -2  -6    5.49    0.24
  -6   3   6    1.67    0.15
  -5   3   6    5.74    0.24
  -5   3   6    7.11    0.26
   4  -3  -6    6.14    0.26
  -4   3   6    5.92    0.26
  -4   3   6    5.79    0.23
   3  -3  -6    0.44    0.08
  -3   3   6    0.41    0.08
  -3   3   6    0.46    0.06
   2  -3  -6    5.59    0.25
  -2   3   6    5.51    0.22
  -2   3   6    5.69    0.25
   1  -3  -6    7.06    0.31
  -1   3   6    6.94    0.30
  -1   3   6    7.03    0.22
  -1   3   6    7.03    0.26
   0  -3  -6   43.41    1.31
   0  -3  -6   42.89    1.26
   0   3   6   42.96    1.26
   0   3   6   40.35    1.30
   0   3   6   42.07    1.16
  -1  -3  -6   33.55    0.94
  -1  -3  -6   33.65    1.02
  -1  -3  -6   34.45    1.07
   1   3   6   34.38    0.95
   1   3   6   32.57    1.06
   1   3   6   33.69    1.02
  -2  -3  -6    3.02    0.19
  -2  -3  -6    2.73    0.13
  -2  -3  -6    2.97    0.15
   2   3   6    2.92    0.15
   2   3   6    3.13    0.18
  -3  -3  -6   17.57    0.62
  -3  -3  -6   18.67    0.56
   3   3   6   17.93    0.62
   3   3   6   18.35    0.58
  -4  -3  -6   10.99    0.41
  -4  -3  -6   10.76    0.38
   4   3   6   10.65    0.40
   4   3   6   10.62    0.37
  -5  -3  -6    3.41    0.30
  -5  -3  -6    3.24    0.21
  -5  -3  -6    3.09    0.19
   5   3   6    3.31    0.17
   5   3   6    3.11    0.16
   5  -4  -6    1.14    0.12
  -5   4   6    0.96    0.14
  -5   4   6    1.19    0.14
   4  -4  -6   68.39    2.03
  -4   4   6   67.48    2.03
  -4   4   6   68.33    2.00
   3  -4  -6    0.35    0.09
  -3   4   6    0.50    0.09
  -3   4   6    0.43    0.07
   2  -4  -6    4.43    0.24
  -2   4   6    4.58    0.20
  -2   4   6    4.57    0.24
   1  -4  -6   22.63    0.76
  -1   4   6   21.60    0.75
  -1   4   6   23.11    0.64
  -1   4   6   23.40    0.72
   0  -4  -6    1.64    0.14
   0   4   6    1.58    0.09
   0   4   6    1.66    0.14
   0   4   6    1.44    0.11
  -1  -4  -6    5.32    0.28
   1   4   6    5.60    0.21
   1   4   6    5.69    0.27
   1   4   6    5.78    0.23
  -2  -4  -6   34.47    1.11
  -2  -4  -6   35.34    0.98
   2   4   6   34.81    1.05
   2   4   6   33.29    0.99
   2   4   6   34.75    1.10
  -3  -4  -6   17.13    0.60
  -3  -4  -6   17.17    0.54
   3   4   6   17.12    0.58
   3   4   6   17.06    0.56
   3   4   6   16.95    0.60
  -4  -4  -6    0.16    0.09
  -4  -4  -6    0.03    0.05
   4   4   6   -0.10    0.08
  -5  -4  -6    3.80    0.33
  -5  -4  -6    3.79    0.21
  -5  -4  -6    2.96    0.23
   5  -5  -6    0.18    0.11
  -5   5   6    0.25    0.10
  -5   5   6    0.22    0.09
  -4   5   6   10.19    0.39
  -4   5   6   10.25    0.41
   3  -5  -6    5.29    0.29
  -3   5   6    4.78    0.23
  -3   5   6    4.95    0.26
   2  -5  -6    1.00    0.13
  -2   5   6    0.92    0.13
  -2   5   6    0.93    0.11
   1  -5  -6   32.19    0.87
   1  -5  -6   30.77    1.03
  -1   5   6   31.44    1.02
  -1   5   6   31.61    0.98
   0  -5  -6   24.38    0.84
   0   5   6   25.02    0.83
   0   5   6   24.18    0.78
   0   5   6   24.32    0.71
  -1  -5  -6    1.53    0.17
   1   5   6    1.50    0.16
   1   5   6    1.54    0.12
   1   5   6    1.62    0.10
  -2  -5  -6    4.62    0.31
   2   5   6    4.94    0.22
   2   5   6    4.88    0.26
  -3  -5  -6    2.90    0.15
  -3  -5  -6    3.42    0.25
   3   5   6    3.26    0.22
  -4  -5  -6    3.07    0.27
  -4  -5  -6    3.13    0.17
  -4  -5  -6    2.75    0.27
   4   5   6    3.01    0.23
   4   5   6    2.66    0.19
  -5  -5  -6    3.72    0.22
  -5  -5  -6    3.77    0.36
   5   5   6    3.79    0.23
   5  -6  -6    2.00    0.22
  -5   6   6    2.18    0.21
  -5   6   6    2.30    0.23
   4  -6  -6   -0.29    0.12
  -4   6   6    0.02    0.08
  -4   6   6    0.00    0.09
  -3   6   6    8.75    0.38
  -3   6   6    7.87    0.34
  -2   6   6    0.50    0.08
  -2   6   6    0.80    0.12
   1  -6  -6    3.07    0.14
   1  -6  -6    3.51    0.24
  -1   6   6    3.05    0.18
  -1   6   6    2.85    0.21
   0  -6  -6    2.40    0.14
   0  -6  -6    2.51    0.21
   0   6   6    2.37    0.19
   0   6   6    2.32    0.12
   0   6   6    2.46    0.16
  -1  -6  -6    2.97    0.24
  -1  -6  -6    2.81    0.18
   1   6   6    3.13    0.22
   1   6   6    2.91    0.19
   1   6   6    2.85    0.15
  -2  -6  -6    1.23    0.16
  -2  -6  -6    1.15    0.16
   2   6   6    1.30    0.17
  -3  -6  -6    1.98    0.24
  -3  -6  -6    1.13    0.15
   3   6   6    1.57    0.20
   3   6   6    1.18    0.15
   3   6   6    1.42    0.16
  -4  -6  -6    9.69    0.47
  -4  -6  -6    9.88    0.46
   4   6   6    9.68    0.39
   4   6   6    9.28    0.42
  -5   7   6    0.99    0.16
   4  -7  -6    0.17    0.16
  -4   7   6    0.27    0.12
  -4   7   6    0.28    0.12
   3  -7  -6   17.22    0.69
  -3   7   6   17.12    0.61
  -3   7   6   17.50    0.65
   2  -7  -6    0.17    0.03
  -2   7   6    0.17    0.08
  -2   7   6    0.30    0.10
   1  -7  -6    7.40    0.26
   1  -7  -6    7.56    0.39
  -1   7   6    7.86    0.33
  -1   7   6    7.24    0.36
   0  -7  -6   15.95    0.62
   0  -7  -6   15.16    0.49
   0   7   6   15.26    0.48
   0   7   6   14.51    0.58
   0   7   6   14.96    0.54
  -1  -7  -6    2.21    0.25
  -1  -7  -6    2.58    0.18
   1   7   6    2.39    0.23
  -2  -7  -6    6.08    0.31
  -2  -7  -6    7.01    0.39
   2   7   6    7.07    0.32
   2   7   6    7.04    0.36
  -3  -7  -6    5.19    0.38
  -3  -7  -6    5.61    0.31
   3   7   6    5.17    0.28
   3   7   6    4.36    0.27
   3   7   6    4.96    0.32
  -4  -7  -6    0.03    0.13
  -4  -7  -6    0.16    0.19
   4   7   6   -0.04    0.14
  -4   8   6   -0.05    0.13
  -4   8   6   -0.04    0.11
   3  -8  -6    4.92    0.39
  -3   8   6    5.67    0.31
  -3   8   6    5.57    0.33
   2  -8  -6    4.84    0.16
  -2   8   6    5.11    0.29
  -2   8   6    4.91    0.30
   1  -8  -6    0.47    0.07
   1  -8  -6    0.56    0.17
  -1   8   6    0.30    0.06
  -1   8   6    0.48    0.12
  -1   8   6    0.43    0.12
   0  -8  -6   12.51    0.58
   0  -8  -6   13.05    0.44
   0   8   6   12.64    0.43
   0   8   6   13.13    0.50
   0   8   6   12.97    0.54
  -1  -8  -6    4.26    0.34
  -1  -8  -6    4.13    0.23
   1   8   6    3.84    0.29
  -2  -8  -6    6.37    0.32
  -2  -8  -6    6.10    0.41
   2   8   6    5.87    0.29
   2   8   6    6.98    0.37
   2   8   6    6.22    0.32
  -3  -8  -6    7.09    0.60
  -3  -8  -6    6.92    0.37
   3   8   6    6.93    0.40
  -4   9   6   -0.09    0.18
  -4   9   6    0.16    0.14
  -3   9   6    1.26    0.18
  -3   9   6    1.89    0.26
   2  -9  -6   23.06    0.63
   2  -9  -6   20.94    0.89
  -2   9   6   23.24    0.81
  -2   9   6   24.25    0.86
   1  -9  -6    0.86    0.11
   1  -9  -6    0.75    0.18
  -1   9   6    0.84    0.11
  -1   9   6    0.65    0.15
  -1   9   6    0.94    0.16
   0  -9  -6    0.54    0.20
   0  -9  -6    0.50    0.09
   0   9   6    0.62    0.16
   0   9   6    0.27    0.11
  -1  -9  -6    0.55    0.21
  -1  -9  -6    0.34    0.09
   1   9   6    0.33    0.14
   1   9   6    0.18    0.09
   1   9   6    0.09    0.12
  -2  -9  -6    0.73    0.23
  -2  -9  -6    0.61    0.12
   2   9   6    0.63    0.17
  -3  -9  -6    0.53    0.35
  -3  -9  -6    0.83    0.16
   3   9   6    0.67    0.19
  -3  10   6    1.88    0.22
  -3  10   6    2.43    0.27
   2 -10  -6    6.21    0.21
  -2  10   6    5.94    0.41
  -2  10   6    6.28    0.40
   1 -10  -6    2.13    0.15
  -1  10   6    1.95    0.24
  -1  10   6    1.45    0.20
   0 -10  -6    1.26    0.16
   0 -10  -6    0.90    0.24
   0  10   6    0.87    0.19
  -1 -10  -6    7.19    0.54
  -1 -10  -6    7.08    0.34
   1  10   6    6.94    0.44
  -2 -10  -6    2.01    0.24
  -2 -10  -6    1.49    0.32
   2  10   6    1.90    0.25
   2 -11  -6    1.52    0.11
  -2  11   6    1.49    0.22
   1 -11  -6   12.10    0.41
  -1  11   6   12.64    0.61
   0 -11  -6    0.78    0.12
   0  11   6    0.58    0.19
  -1 -11  -6    6.18    0.34
   1  11   6    5.52    0.46
   0  12  -7   -0.01    0.15
   0 -12   7   -0.03    0.14
   0 -12   7    0.12    0.10
  -1  12  -7    5.32    0.38
   1 -12   7    5.38    0.27
   1 -12   7    4.75    0.39
   2  11  -7    4.32    0.26
   2  11  -7    3.64    0.33
  -2 -11   7    4.01    0.25
  -2 -11   7    3.97    0.31
  -2 -11   7    4.34    0.52
   1  11  -7    3.86    0.30
  -1 -11   7    3.70    0.30
  -1 -11   7    3.84    0.23
  -1 -11   7    3.45    0.47
   0  11  -7    3.47    0.29
   0 -11   7    3.51    0.44
   0 -11   7    3.37    0.28
   0 -11   7    3.55    0.21
  -1  11  -7    2.65    0.26
  -1  11  -7    2.80    0.27
   1 -11   7    2.84    0.29
   1 -11   7    2.61    0.18
  -2  11  -7    1.73    0.20
  -2  11  -7    2.43    0.26
   2 -11   7    2.29    0.24
   2 -11   7    1.89    0.18
   3  10  -7    0.15    0.11
   3  10  -7    0.24    0.13
  -3 -10   7    0.37    0.11
  -3 -10   7    0.47    0.13
  -3 -10   7    0.14    0.25
   2  10  -7    1.23    0.16
   2  10  -7    1.63    0.19
  -2 -10   7    1.75    0.17
  -2 -10   7    1.30    0.16
  -2 -10   7    1.63    0.26
   1  10  -7    2.67    0.31
   1  10  -7    2.53    0.24
  -1 -10   7    2.73    0.29
  -1 -10   7    2.52    0.23
  -1 -10   7    2.52    0.17
   0  10  -7    0.72    0.14
   0  10  -7    0.86    0.14
   0 -10   7    0.58    0.17
   0 -10   7    0.72    0.13
   0 -10   7    0.79    0.10
  -1  10  -7    1.10    0.16
  -1  10  -7    1.12    0.16
   1 -10   7    1.26    0.22
   1 -10   7    0.96    0.15
   1 -10   7    0.94    0.12
  -2  10  -7    3.00    0.23
  -2  10  -7    3.19    0.25
   2 -10   7    2.74    0.26
  -3  10  -7    3.42    0.26
  -3  10  -7    3.49    0.28
   3 -10   7    4.00    0.32
   3   9  -7    3.41    0.25
   3   9  -7    2.84    0.19
  -3  -9   7    3.01    0.36
  -3  -9   7    3.53    0.22
  -3  -9   7    3.45    0.25
   2   9  -7    0.59    0.08
   2   9  -7    0.51    0.18
   2   9  -7    0.65    0.12
  -2  -9   7    0.58    0.09
  -2  -9   7    0.81    0.12
  -2  -9   7    0.62    0.16
   1   9  -7   13.57    0.51
   1   9  -7   13.45    0.52
  -1  -9   7   13.57    0.57
  -1  -9   7   13.77    0.45
  -1  -9   7   13.77    0.54
   0   9  -7    9.27    0.38
   0   9  -7    9.77    0.41
   0  -9   7    9.29    0.45
   0  -9   7    9.28    0.33
   0  -9   7    9.08    0.41
  -1   9  -7   14.70    0.50
  -1   9  -7   15.30    0.56
   1  -9   7   15.21    0.58
   1  -9   7   14.78    0.61
   1  -9   7   14.54    0.47
  -2   9  -7    3.40    0.21
  -2   9  -7    3.34    0.23
   2  -9   7    2.94    0.29
   2  -9   7    3.55    0.25
  -3   9  -7    1.39    0.14
  -3   9  -7    1.25    0.16
   3  -9   7    1.28    0.17
  -4   9  -7   12.82    0.46
  -4   9  -7   12.45    0.53
   4  -9   7   12.94    0.59
   4   8  -7    1.70    0.19
   4   8  -7    1.57    0.17
  -4  -8   7    1.63    0.21
  -4  -8   7    1.70    0.22
  -4  -8   7    1.70    0.20
   3   8  -7   -0.11    0.18
   3   8  -7    0.16    0.08
   3   8  -7    0.05    0.06
  -3  -8   7    0.29    0.14
  -3  -8   7    0.13    0.09
  -3  -8   7    0.08    0.08
   2   8  -7   -0.06    0.06
   2   8  -7   -0.04    0.04
  -2  -8   7    0.07    0.11
  -2  -8   7    0.03    0.06
  -2  -8   7   -0.01    0.06
   1   8  -7   12.00    0.45
  -1  -8   7   11.79    0.40
  -1  -8   7   11.86    0.49
  -1  -8   7   12.00    0.47
   0   8  -7    3.11    0.19
   0   8  -7    3.41    0.21
   0  -8   7    3.22    0.22
   0  -8   7    3.37    0.25
   0  -8   7    3.37    0.16
  -1   8  -7    0.12    0.06
  -1   8  -7    0.16    0.06
   1  -8   7    0.08    0.08
   1  -8   7    0.05    0.09
   1  -8   7    0.13    0.05
  -2   8  -7   13.41    0.44
  -2   8  -7   13.05    0.51
   2  -8   7   13.80    0.53
  -3   8  -7   17.91    0.64
  -3   8  -7   18.03    0.56
   3  -8   7   17.43    0.68
   3  -8   7   18.11    0.67
  -4   8  -7    1.66    0.19
  -4   8  -7    1.93    0.19
   4  -8   7    1.81    0.25
   4   7  -7    0.41    0.10
   4   7  -7    0.61    0.09
  -4  -7   7    0.72    0.11
  -4  -7   7    0.50    0.11
  -4  -7   7    0.60    0.14
   3   7  -7    1.19    0.10
   3   7  -7    1.40    0.20
   3   7  -7    1.01    0.13
  -3  -7   7    1.13    0.14
  -3  -7   7    0.96    0.13
  -3  -7   7    1.07    0.15
   2   7  -7    7.12    0.30
   2   7  -7    6.90    0.24
  -2  -7   7    7.04    0.27
  -2  -7   7    7.10    0.31
  -2  -7   7    7.01    0.33
   1   7  -7    0.01    0.06
  -1  -7   7   -0.02    0.06
  -1  -7   7    0.03    0.07
  -1  -7   7    0.07    0.04
   0   7  -7    2.06    0.14
   0   7  -7    1.92    0.15
   0  -7   7    2.09    0.18
   0  -7   7    2.04    0.17
   0  -7   7    2.00    0.12
  -1   7  -7    0.87    0.10
  -1   7  -7    0.80    0.10
   1  -7   7    0.55    0.10
   1  -7   7    0.98    0.09
   1  -7   7    0.86    0.12
  -2   7  -7   34.97    0.97
  -2   7  -7   33.90    1.08
   2  -7   7   33.50    1.10
  -3   7  -7    1.61    0.13
  -3   7  -7    1.54    0.15
   3  -7   7    1.75    0.21
   3  -7   7    1.40    0.18
  -4   7  -7   -0.02    0.07
  -4   7  -7   -0.08    0.07
   4  -7   7    0.09    0.11
   4  -7   7    0.18    0.14
  -5  -6   7    4.11    0.26
  -5  -6   7    3.95    0.27
  -5  -6   7    3.53    0.22
   4   6  -7    0.56    0.08
  -4  -6   7    0.61    0.12
  -4  -6   7    0.66    0.10
  -4  -6   7    0.71    0.10
   3   6  -7   15.69    0.46
   3   6  -7   16.10    0.53
  -3  -6   7   15.30    0.51
  -3  -6   7   15.54    0.56
  -3  -6   7   15.53    0.55
   2   6  -7    1.59    0.13
   2   6  -7    1.49    0.15
   2   6  -7    1.72    0.09
  -2  -6   7    1.70    0.12
  -2  -6   7    1.63    0.13
  -2  -6   7    1.76    0.16
   1   6  -7    3.60    0.19
   1   6  -7    3.29    0.18
  -1  -6   7    3.29    0.20
  -1  -6   7    3.56    0.16
  -1  -6   7    3.50    0.19
   0   6  -7   30.36    0.89
   0   6  -7   32.59    0.98
   0  -6   7   31.62    1.00
   0  -6   7   31.15    0.99
   0  -6   7   30.40    0.87
  -1   6  -7    1.90    0.14
  -1   6  -7    1.99    0.12
   1  -6   7    1.96    0.11
   1  -6   7    1.92    0.16
   1  -6   7    2.01    0.14
  -2   6  -7    6.02    0.27
  -2   6  -7    5.84    0.22
   2  -6   7    5.78    0.28
  -3   6  -7   18.25    0.54
  -3   6  -7   17.47    0.61
   3  -6   7   18.38    0.65
  -4   6  -7    9.23    0.33
  -4   6  -7    9.55    0.39
   4  -6   7   10.18    0.44
   4  -6   7    9.72    0.43
  -5   6  -7    3.51    0.21
  -5   6  -7    3.43    0.24
   5  -6   7    3.40    0.30
  -5  -5   7    0.34    0.10
  -5  -5   7    0.43    0.10
  -5  -5   7    0.57    0.09
   4   5  -7    0.51    0.07
  -4  -5   7    0.66    0.09
  -4  -5   7    0.65    0.10
  -4  -5   7    0.57    0.09
   3   5  -7    5.30    0.18
   3   5  -7    5.56    0.28
   3   5  -7    5.06    0.22
  -3  -5   7    5.10    0.24
  -3  -5   7    5.19    0.24
  -3  -5   7    5.25    0.22
   2   5  -7    0.39    0.07
   2   5  -7    0.32    0.04
   2   5  -7    0.26    0.06
  -2  -5   7    0.30    0.07
  -2  -5   7    0.23    0.05
  -2  -5   7    0.29    0.05
   1   5  -7    1.80    0.12
   1   5  -7    2.06    0.12
  -1  -5   7    2.07    0.14
  -1  -5   7    2.00    0.14
  -1  -5   7    1.86    0.10
   0   5  -7   11.45    0.41
   0   5  -7   11.37    0.37
   0  -5   7   11.64    0.36
   0  -5   7   11.64    0.43
   0  -5   7   11.99    0.42
  -1   5  -7   17.66    0.57
  -1   5  -7   16.64    0.50
   1  -5   7   16.53    0.50
   1  -5   7   17.10    0.57
   1  -5   7   16.38    0.58
  -2   5  -7    3.70    0.16
  -2   5  -7    4.18    0.20
   2  -5   7    3.93    0.22
   2  -5   7    4.34    0.22
  -3   5  -7   11.80    0.38
  -3   5  -7   12.18    0.44
   3  -5   7   12.33    0.46
   3  -5   7   12.14    0.47
  -4   5  -7    1.46    0.13
  -4   5  -7    1.64    0.15
   4  -5   7    1.76    0.19
   4  -5   7    1.64    0.19
  -5   5  -7    0.25    0.09
  -5   5  -7    0.45    0.10
   5  -5   7    0.31    0.13
   5  -5   7    0.42    0.16
  -5  -4   7    1.52    0.17
   4   4  -7    2.64    0.13
  -4  -4   7    2.70    0.16
  -4  -4   7    2.63    0.16
  -4  -4   7    2.84    0.16
   3   4  -7    0.02    0.07
   3   4  -7    0.02    0.04
  -3  -4   7    0.01    0.05
  -3  -4   7    0.02    0.04
  -3  -4   7   -0.09    0.04
   2   4  -7   11.29    0.38
   2   4  -7   11.07    0.37
   2   4  -7   10.83    0.31
  -2  -4   7   10.94    0.39
  -2  -4   7   10.82    0.35
  -2  -4   7   11.08    0.40
   1   4  -7    6.40    0.23
   1   4  -7    6.39    0.25
  -1  -4   7    6.31    0.22
  -1  -4   7    6.39    0.27
  -1  -4   7    6.46    0.26
   0   4  -7    3.46    0.17
   0   4  -7    3.56    0.14
   0  -4   7    3.28    0.18
   0  -4   7    3.34    0.14
   0  -4   7    3.74    0.17
  -1   4  -7   45.87    1.36
  -1   4  -7   45.30    1.22
  -1   4  -7   42.97    1.35
   1  -4   7   46.52    1.36
   1  -4   7   44.68    1.38
  -2   4  -7   37.91    1.14
  -2   4  -7   37.34    1.03
   2  -4   7   37.17    1.17
   2  -4   7   37.40    1.15
  -3   4  -7   73.21    1.93
  -3   4  -7   73.33    2.12
   3  -4   7   71.73    2.13
   3  -4   7   69.67    2.15
  -4   4  -7    1.18    0.11
  -4   4  -7    1.16    0.13
   4  -4   7    1.27    0.14
  -5   4  -7    0.26    0.08
  -5   4  -7    0.25    0.09
   5  -4   7    0.07    0.11
   5  -4   7    0.38    0.13
  -5  -3   7    3.81    0.21
   4   3  -7    2.49    0.11
  -4  -3   7    2.53    0.15
  -4  -3   7    2.57    0.15
  -4  -3   7    2.52    0.14
   3   3  -7    0.25    0.07
   3   3  -7    0.08    0.04
  -3  -3   7    0.20    0.05
  -3  -3   7    0.17    0.05
  -3  -3   7    0.19    0.05
   2   3  -7    8.45    0.29
   2   3  -7    8.31    0.23
   2   3  -7    8.58    0.29
   2   3  -7    8.15    0.30
  -2  -3   7    8.20    0.27
  -2  -3   7    8.03    0.29
  -2  -3   7    8.24    0.32
   1   3  -7    0.14    0.04
   1   3  -7    0.13    0.04
   1   3  -7    0.13    0.03
  -1  -3   7    0.14    0.04
  -1  -3   7    0.09    0.03
  -1  -3   7    0.12    0.03
   0   3  -7   30.93    0.91
   0   3  -7   28.78    0.81
   0   3  -7   29.01    0.90
   0  -3   7   29.15    0.90
   0  -3   7   29.31    0.81
  -1   3  -7   58.30    1.66
  -1   3  -7   55.78    1.67
  -1   3  -7   55.38    1.50
   1  -3   7   57.39    1.69
   1  -3   7   54.34    1.66
  -2   3  -7    4.37    0.20
  -2   3  -7    4.26    0.16
  -2   3  -7    4.30    0.19
   2  -3   7    4.09    0.19
   2  -3   7    3.98    0.20
  -3   3  -7   13.69    0.43
  -3   3  -7   14.42    0.49
  -3   3  -7   13.78    0.47
   3  -3   7   14.05    0.48
   3  -3   7   13.75    0.50
  -4   3  -7    4.75    0.22
  -4   3  -7    4.74    0.20
   4  -3   7    4.43    0.23
   4  -3   7    4.50    0.25
  -5   3  -7    3.07    0.20
  -5   3  -7    3.03    0.20
  -5   3  -7    2.82    0.19
  -5  -2   7    0.47    0.08
   4   2  -7   13.52    0.42
  -4  -2   7   14.11    0.43
  -4  -2   7   13.86    0.44
  -4  -2   7   14.01    0.47
   3   2  -7    0.05    0.03
   3   2  -7   -0.03    0.05
  -3  -2   7    0.01    0.05
  -3  -2   7    0.01    0.04
  -3  -2   7    0.03    0.03
   2   2  -7    0.21    0.04
   2   2  -7    0.26    0.05
   2   2  -7    0.22    0.04
  -2  -2   7    0.21    0.05
  -2  -2   7    0.21    0.05
  -2  -2   7    0.20    0.03
   1   2  -7   31.33    0.94
   1   2  -7   31.35    0.93
   1   2  -7   31.00    0.84
  -1  -2   7   30.69    0.84
  -1  -2   7   30.20    0.96
  -1  -2   7   30.02    0.93
   0   2  -7   23.47    0.77
   0   2  -7   25.45    0.75
   0   2  -7   24.15    0.68
   0  -2   7   25.01    0.76
  -1   2  -7   19.37    0.62
  -1   2  -7   18.63    0.54
  -1   2  -7   19.49    0.60
   1  -2   7   19.23    0.60
   1  -2   7   18.49    0.63
  -2   2  -7   55.30    1.63
  -2   2  -7   55.17    1.64
   2  -2   7   55.88    1.63
   2  -2   7   54.01    1.66
  -3   2  -7  181.78    5.20
  -3   2  -7  180.69    5.18
   3  -2   7  176.63    5.22
   3  -2   7  185.03    5.18
  -4   2  -7    5.34    0.23
  -4   2  -7    5.02    0.23
  -4   2  -7    4.33    0.22
   4  -2   7    5.54    0.24
   4  -2   7    5.28    0.26
  -5   2  -7    8.11    0.34
  -5   2  -7    7.64    0.30
   5  -2   7    8.11    0.35
  -6  -1   7   10.26    0.36
  -5  -1   7    1.32    0.12
  -4  -1   7   19.54    0.63
  -4  -1   7   21.12    0.59
  -4  -1   7   21.54    0.66
   3   1  -7   10.91    0.36
   3   1  -7   11.03    0.36
   3   1  -7   12.41    0.38
  -3  -1   7   11.13    0.40
  -3  -1   7   11.17    0.37
  -3  -1   7   11.38    0.34
   2   1  -7    3.03    0.13
   2   1  -7    2.99    0.14
   2   1  -7    2.82    0.12
  -2  -1   7    2.72    0.16
  -2  -1   7    2.81    0.11
  -2  -1   7    2.95    0.14
   1   1  -7   40.54    1.10
   1   1  -7   41.33    1.24
   1   1  -7   40.58    1.10
   1   1  -7   42.67    1.22
  -1  -1   7   41.95    1.22
  -1  -1   7   40.75    1.25
  -1  -1   7   40.50    1.10
   0   1  -7  159.40    4.43
   0   1  -7  152.24    4.41
   0   1  -7  151.54    4.16
   0   1  -7  149.17    4.04
   0  -1   7  157.42    4.44
   0  -1   7  155.15    4.41
  -1   1  -7   11.07    0.38
  -1   1  -7   11.20    0.40
   1  -1   7   11.41    0.41
   1  -1   7   11.08    0.38
  -2   1  -7   10.05    0.33
  -2   1  -7   10.06    0.34
  -2   1  -7    9.31    0.36
   2  -1   7   10.18    0.35
   2  -1   7    9.90    0.38
  -3   1  -7    8.63    0.33
  -3   1  -7    7.64    0.30
  -3   1  -7    8.69    0.31
   3  -1   7    9.02    0.31
   3  -1   7    8.52    0.35
  -4   1  -7   23.85    0.72
  -4   1  -7   20.02    0.70
  -4   1  -7   22.23    0.73
   4  -1   7   23.90    0.72
   4  -1   7   23.99    0.77
  -5   1  -7    0.15    0.06
  -5   1  -7    0.11    0.06
   5  -1   7    0.17    0.08
   5  -1   7    0.32    0.10
  -6   0   7    7.72    0.25
  -6   0   7    8.15    0.28
  -5   0   7    0.15    0.03
  -5   0   7    0.22    0.05
   4   0  -7    1.36    0.08
  -4   0   7    1.15    0.08
  -4   0   7    1.30    0.11
  -4   0   7    1.18    0.05
  -4   0   7    1.11    0.09
   3   0  -7   13.28    0.42
   3   0  -7   13.16    0.44
   3   0  -7   13.52    0.40
  -3   0   7   12.96    0.43
  -3   0   7   13.53    0.38
  -3   0   7   13.08    0.46
   2   0  -7   43.73    1.36
   2   0  -7   46.24    1.34
   2   0  -7   46.27    1.22
  -2   0   7   46.17    1.34
  -2   0   7   44.43    1.38
  -2   0   7   46.38    1.21
   1   0  -7   20.03    0.60
   1   0  -7   19.05    0.53
   1   0  -7   18.66    0.62
  -1   0   7   18.75    0.60
  -1   0   7   19.74    0.64
   0   0  -7   54.91    1.60
   0   0  -7   53.82    1.57
   0   0  -7   53.32    1.43
   0   0  -7   53.87    1.45
   0   0   7   52.36    1.61
   0   0   7   53.97    1.57
  -1   0  -7    2.45    0.12
  -1   0  -7    2.26    0.14
  -1   0  -7    2.33    0.10
   1   0   7    2.39    0.12
   1   0   7    2.51    0.15
  -2   0  -7   17.02    0.50
  -2   0  -7   16.50    0.55
  -2   0  -7   16.32    0.53
   2   0   7   16.15    0.52
   2   0   7   15.50    0.56
  -3   0  -7   38.00    1.14
  -3   0  -7   37.75    1.17
  -3   0  -7   37.30    1.09
   3   0   7   37.53    1.19
   3   0   7   39.25    1.14
  -4   0  -7   69.54    2.01
  -4   0  -7   58.59    1.89
  -4   0  -7   72.45    1.99
   4   0   7   71.22    1.99
  -5   0  -7    2.68    0.16
  -5   0  -7    2.67    0.18
  -5   0  -7    2.84    0.17
   5   0   7    2.87    0.17
   5   0   7    2.56    0.19
  -6   1   7    0.34    0.05
  -5   1   7   28.16    0.77
  -5   1   7   28.95    0.84
  -5   1   7   27.71    0.83
  -5   1   7   28.69    0.79
   4  -1  -7    1.55    0.10
  -4   1   7    1.29    0.10
  -4   1   7    1.28    0.07
  -4   1   7    1.19    0.12
  -4   1   7    1.40    0.07
   3  -1  -7   10.40    0.32
   3  -1  -7   11.30    0.38
  -3   1   7   10.25    0.36
  -3   1   7   10.82    0.30
  -3   1   7   10.97    0.40
   2  -1  -7    2.64    0.15
   2  -1  -7    2.51    0.10
   2  -1  -7    2.55    0.12
  -2   1   7    2.46    0.15
  -2   1   7    2.42    0.08
  -2   1   7    2.41    0.13
   1  -1  -7    6.55    0.19
   1  -1  -7    6.29    0.26
  -1   1   7    6.13    0.27
  -1   1   7    6.45    0.24
  -1   1   7    6.31    0.19
   0  -1  -7    0.28    0.06
   0  -1  -7    0.29    0.05
   0  -1  -7    0.32    0.03
   0   1   7    0.35    0.04
   0   1   7    0.34    0.05
   0   1   7    0.22    0.05
  -1  -1  -7    3.31    0.15
  -1  -1  -7    3.40    0.18
  -1  -1  -7    3.34    0.13
   1   1   7    3.02    0.20
   1   1   7    3.31    0.15
  -2  -1  -7   10.43    0.33
  -2  -1  -7   10.14    0.35
  -2  -1  -7    9.77    0.38
   2   1   7   10.07    0.39
   2   1   7   10.14    0.35
  -3  -1  -7   12.90    0.46
  -3  -1  -7   12.49    0.42
  -3  -1  -7   13.08    0.44
   3   1   7   12.67    0.48
   3   1   7   13.27    0.43
  -4  -1  -7    8.10    0.31
  -4  -1  -7    8.08    0.33
  -4  -1  -7    7.94    0.31
   4   1   7    8.46    0.31
  -5  -1  -7   14.55    0.50
  -5  -1  -7   14.57    0.51
   5   1   7   14.90    0.50
   5   1   7   15.28    0.48
  -6   2   7    3.31    0.16
  -5   2   7    5.88    0.24
  -5   2   7    6.07    0.23
  -5   2   7    6.13    0.21
   4  -2  -7    0.79    0.09
  -4   2   7    0.82    0.09
  -4   2   7    0.89    0.10
   3  -2  -7   17.25    0.60
  -3   2   7   18.99    0.62
  -3   2   7   18.04    0.58
   2  -2  -7   66.66    2.00
   2  -2  -7   69.25    1.80
   2  -2  -7   70.75    2.04
  -2   2   7   69.61    1.83
  -2   2   7   68.32    2.00
  -2   2   7   67.53    2.05
   1  -2  -7    7.57    0.23
   1  -2  -7    8.01    0.31
   1  -2  -7    7.88    0.28
  -1   2   7    7.41    0.28
  -1   2   7    7.58    0.32
  -1   2   7    7.49    0.23
   0  -2  -7   13.75    0.47
   0  -2  -7   13.57    0.44
   0  -2  -7   12.87    0.38
   0   2   7   12.82    0.39
   0   2   7   12.60    0.43
   0   2   7   12.80    0.48
  -1  -2  -7   42.22    1.29
  -1  -2  -7   42.48    1.25
  -1  -2  -7   43.81    1.16
   1   2   7   42.24    1.30
   1   2   7   40.60    1.25
   1   2   7   39.62    1.16
  -2  -2  -7    3.73    0.22
  -2  -2  -7    3.67    0.17
  -2  -2  -7    3.86    0.16
   2   2   7    3.64    0.17
   2   2   7    3.66    0.22
  -3  -2  -7   19.87    0.67
  -3  -2  -7   19.22    0.61
  -3  -2  -7   19.83    0.64
   3   2   7   20.23    0.68
   3   2   7   20.10    0.63
  -4  -2  -7   20.54    0.71
  -4  -2  -7   21.20    0.67
   4   2   7   22.10    0.72
   4   2   7   22.25    0.68
  -5  -2  -7   13.52    0.50
  -5  -2  -7   15.11    0.51
   5   2   7   14.52    0.49
   5   2   7   14.87    0.47
   5  -3  -7    0.02    0.06
  -5   3   7   -0.05    0.07
  -5   3   7    0.01    0.06
   4  -3  -7    3.78    0.20
  -4   3   7    3.52    0.20
  -4   3   7    3.52    0.18
   3  -3  -7    1.57    0.15
  -3   3   7    1.50    0.12
  -3   3   7    1.47    0.14
   2  -3  -7   17.02    0.59
   2  -3  -7   17.12    0.45
  -2   3   7   16.57    0.59
  -2   3   7   17.02    0.55
   1  -3  -7    4.24    0.22
  -1   3   7    4.24    0.22
  -1   3   7    4.09    0.15
  -1   3   7    4.15    0.19
   0  -3  -7    0.18    0.07
   0  -3  -7    0.08    0.03
   0   3   7    0.10    0.05
   0   3   7    0.20    0.03
   0   3   7    0.15    0.04
  -1  -3  -7    0.99    0.09
  -1  -3  -7    1.08    0.13
  -1  -3  -7    1.11    0.07
   1   3   7    1.20    0.13
   1   3   7    0.95    0.09
  -2  -3  -7    0.07    0.07
  -2  -3  -7    0.10    0.04
  -2  -3  -7    0.09    0.04
   2   3   7    0.16    0.07
   2   3   7    0.14    0.05
   2   3   7    0.07    0.05
  -3  -3  -7    2.98    0.15
  -3  -3  -7    2.93    0.20
   3   3   7    2.98    0.16
   3   3   7    2.90    0.21
  -4  -3  -7    1.12    0.16
  -4  -3  -7    1.29    0.12
   4   3   7    1.33    0.17
  -5  -3  -7    0.32    0.10
  -5  -3  -7    0.29    0.08
  -5   4   7    6.95    0.31
  -5   4   7    6.99    0.29
   4  -4  -7    3.21    0.24
  -4   4   7    2.82    0.20
  -4   4   7    2.96    0.18
   3  -4  -7    0.04    0.07
  -3   4   7    0.00    0.06
  -3   4   7    0.02    0.07
   2  -4  -7   20.99    0.73
   2  -4  -7   20.73    0.56
   2  -4  -7   21.49    0.57
  -2   4   7   21.13    0.73
  -2   4   7   21.10    0.68
   1  -4  -7   17.22    0.62
  -1   4   7   17.27    0.50
  -1   4   7   16.38    0.56
  -1   4   7   16.91    0.61
   0  -4  -7    6.80    0.34
   0   4   7    6.46    0.31
   0   4   7    6.90    0.23
   0   4   7    6.63    0.27
  -1  -4  -7    4.10    0.23
   1   4   7    3.82    0.23
   1   4   7    3.55    0.18
   1   4   7    3.78    0.17
  -2  -4  -7    8.74    0.38
  -2  -4  -7    7.88    0.29
   2   4   7    8.52    0.31
   2   4   7    8.16    0.32
   2   4   7    8.13    0.36
  -3  -4  -7    6.56    0.35
  -3  -4  -7    6.77    0.26
   3   4   7    6.68    0.28
   3   4   7    6.60    0.33
  -4  -4  -7    0.64    0.13
  -4  -4  -7    0.33    0.06
   4   4   7    0.55    0.12
   4   4   7    0.54    0.10
  -5  -4  -7   -0.05    0.16
  -5  -4  -7    0.27    0.08
   5   4   7    0.19    0.10
   5  -5  -7    0.27    0.12
  -5   5   7    0.15    0.10
  -5   5   7    0.17    0.10
  -4   5   7    5.36    0.28
  -4   5   7    5.06    0.26
   3  -5  -7   -0.01    0.10
  -3   5   7    0.09    0.08
  -3   5   7   -0.03    0.06
   2  -5  -7   14.96    0.57
   2  -5  -7   14.02    0.39
   2  -5  -7   14.25    0.39
  -2   5   7   14.57    0.55
  -2   5   7   15.26    0.51
   1  -5  -7   12.23    0.38
   1  -5  -7   12.09    0.49
  -1   5   7   12.29    0.38
  -1   5   7   12.34    0.44
  -1   5   7   12.02    0.48
   0  -5  -7    7.45    0.35
   0   5   7    7.01    0.29
   0   5   7    6.81    0.25
   0   5   7    6.61    0.33
  -1  -5  -7   36.98    1.22
   1   5   7   37.05    1.14
   1   5   7   37.42    1.06
   1   5   7   37.11    1.20
  -2  -5  -7   13.43    0.54
   2   5   7   14.00    0.53
   2   5   7   12.60    0.47
  -3  -5  -7    0.04    0.11
  -3  -5  -7   -0.05    0.04
   3   5   7    0.07    0.09
   3   5   7    0.16    0.08
  -4  -5  -7    4.88    0.35
  -4  -5  -7    4.88    0.23
  -4  -5  -7    4.32    0.32
   4   5   7    4.88    0.30
   4   5   7    4.52    0.25
   5  -6  -7   -0.06    0.18
  -5   6   7    0.80    0.14
   4  -6  -7    6.47    0.37
  -4   6   7    6.20    0.31
  -4   6   7    6.34    0.33
  -3   6   7   11.25    0.42
  -3   6   7   10.11    0.45
   2  -6  -7    1.10    0.06
  -2   6   7    1.28    0.15
  -2   6   7    1.25    0.16
   1  -6  -7    5.13    0.20
   1  -6  -7    5.42    0.31
  -1   6   7    5.09    0.20
  -1   6   7    5.19    0.25
  -1   6   7    4.88    0.28
   0  -6  -7    5.32    0.23
   0  -6  -7    5.30    0.31
   0   6   7    5.03    0.21
   0   6   7    5.01    0.25
   0   6   7    5.31    0.30
  -1  -6  -7    0.84    0.14
  -1  -6  -7    1.13    0.14
   1   6   7    0.82    0.12
   1   6   7    1.14    0.11
  -2  -6  -7    4.21    0.30
  -2  -6  -7    3.82    0.24
   2   6   7    4.15    0.27
  -3  -6  -7    5.09    0.31
  -3  -6  -7    5.09    0.34
   3   6   7    5.24    0.27
   3   6   7    5.08    0.31
   3   6   7    4.98    0.27
  -4  -6  -7   11.38    0.55
  -4  -6  -7   11.19    0.52
   4   6   7   10.77    0.48
   4   6   7   10.86    0.45
  -4   7   7    0.14    0.12
  -4   7   7    0.12    0.12
   3  -7  -7   15.39    0.65
  -3   7   7   15.10    0.57
  -3   7   7   15.49    0.61
   2  -7  -7    0.90    0.06
  -2   7   7    1.09    0.16
  -2   7   7    0.75    0.12
   1  -7  -7    8.05    0.28
   1  -7  -7    8.07    0.42
  -1   7   7    8.06    0.39
  -1   7   7    8.15    0.29
  -1   7   7    8.38    0.36
   0  -7  -7    1.25    0.13
   0  -7  -7    1.37    0.19
   0   7   7    1.26    0.11
   0   7   7    1.60    0.19
   0   7   7    1.43    0.16
  -1  -7  -7    0.47    0.13
  -1  -7  -7    0.47    0.10
   1   7   7    0.52    0.08
   1   7   7    0.53    0.13
  -2  -7  -7    2.41    0.29
  -2  -7  -7    2.32    0.21
   2   7   7    2.57    0.25
   2   7   7    2.59    0.21
  -3  -7  -7   -0.20    0.10
  -3  -7  -7    0.15    0.17
   3   7   7   -0.08    0.12
   3   7   7   -0.11    0.10
  -4  -7  -7    1.20    0.21
  -4   8   7    1.33    0.19
  -4   8   7    1.11    0.18
  -3   8   7    0.39    0.14
  -3   8   7    0.29    0.13
   2  -8  -7    0.39    0.04
   2  -8  -7    0.09    0.16
  -2   8   7    0.49    0.12
  -2   8   7    0.26    0.11
   1  -8  -7    6.49    0.41
   1  -8  -7    6.23    0.23
  -1   8   7    6.34    0.36
  -1   8   7    5.88    0.32
  -1   8   7    6.00    0.26
   0  -8  -7    3.60    0.33
   0  -8  -7    3.99    0.21
   0   8   7    3.38    0.28
   0   8   7    3.84    0.26
   0   8   7    3.68    0.20
  -1  -8  -7    0.60    0.11
  -1  -8  -7    0.90    0.21
   1   8   7    1.01    0.15
   1   8   7    0.52    0.13
   1   8   7    0.76    0.10
  -2  -8  -7    2.12    0.21
  -2  -8  -7    2.53    0.34
   2   8   7    2.11    0.23
   2   8   7    2.14    0.28
   2   8   7    2.12    0.23
  -3  -8  -7    0.99    0.17
  -3  -8  -7    1.33    0.26
   3   8   7    1.11    0.20
  -3   9   7    0.18    0.17
  -3   9   7    0.08    0.15
   2  -9  -7    4.72    0.17
  -2   9   7    4.84    0.34
  -2   9   7    5.07    0.35
   1  -9  -7   -0.01    0.16
   1  -9  -7    0.04    0.06
  -1   9   7   -0.06    0.13
  -1   9   7    0.04    0.12
  -1   9   7    0.06    0.08
   0  -9  -7   19.25    0.83
   0  -9  -7   19.90    0.62
   0   9   7   18.56    0.71
   0   9   7   19.43    0.76
   0   9   7   19.02    0.62
  -1  -9  -7    0.04    0.21
  -1  -9  -7    0.25    0.09
   1   9   7   -0.10    0.13
  -2  -9  -7   -0.03    0.11
  -2  -9  -7    0.25    0.23
   2   9   7    0.01    0.15
  -3  10   7    6.01    0.47
  -3  10   7    6.18    0.43
  -2  10   7    0.12    0.18
  -2  10   7    0.03    0.16
   1 -10  -7    0.37    0.08
  -1  10   7    0.44    0.16
   0 -10  -7    3.00    0.22
   0  10   7    3.67    0.34
  -1 -10  -7    4.95    0.56
  -1 -10  -7    5.82    0.30
   1  10   7    5.97    0.42
  -2 -10  -7    1.41    0.35
  -2 -10  -7    1.08    0.16
   2  10   7    1.09    0.24
   1 -11  -7    0.01    0.07
  -1  11   7   -0.21    0.17
   0 -11  -7   -0.03    0.10
   0  11   7   -0.09    0.17
   2  11  -8    4.12    0.33
   2  11  -8    3.65    0.27
  -2 -11   8    3.77    0.42
  -2 -11   8    4.65    0.27
  -2 -11   8    4.41    0.32
   1  11  -8    0.50    0.16
  -1 -11   8    0.62    0.11
  -1 -11   8    0.64    0.25
  -1 -11   8    0.79    0.15
   0  11  -8    4.86    0.33
   0 -11   8    4.87    0.25
   0 -11   8    5.04    0.37
  -1  11  -8    8.80    0.43
   1 -11   8    8.02    0.44
   1 -11   8    7.86    0.33
  -2  11  -8    4.48    0.34
   2 -11   8    5.00    0.37
   3  10  -8    0.13    0.13
  -3 -10   8    0.23    0.14
  -3 -10   8    0.16    0.10
   2  10  -8    3.05    0.26
   2  10  -8    2.93    0.20
  -2 -10   8    3.03    0.41
  -2 -10   8    3.00    0.21
  -2 -10   8    3.24    0.25
   1  10  -8    4.48    0.30
  -1 -10   8    4.93    0.41
  -1 -10   8    4.84    0.24
  -1 -10   8    4.28    0.30
   0  10  -8    2.28    0.23
   0  10  -8    1.80    0.24
   0 -10   8    2.30    0.16
   0 -10   8    2.40    0.24
   0 -10   8    2.76    0.34
  -1  10  -8    6.16    0.33
  -1  10  -8    6.56    0.35
   1 -10   8    6.39    0.44
   1 -10   8    6.91    0.37
   1 -10   8    6.40    0.27
  -2  10  -8    0.75    0.14
  -2  10  -8    0.47    0.13
   2 -10   8    0.64    0.12
  -3  10  -8    1.50    0.18
  -3  10  -8    1.35    0.18
   3 -10   8    0.90    0.16
   3   9  -8    0.80    0.13
   3   9  -8    0.85    0.10
  -3  -9   8    0.69    0.11
  -3  -9   8    0.65    0.14
  -3  -9   8    1.15    0.22
   2   9  -8    0.76    0.13
   2   9  -8    0.75    0.09
   2   9  -8    0.81    0.21
  -2  -9   8    0.78    0.13
  -2  -9   8    0.61    0.10
  -2  -9   8    0.85    0.18
   1   9  -8    3.19    0.24
   1   9  -8    3.22    0.23
  -1  -9   8    3.46    0.24
  -1  -9   8    3.26    0.31
  -1  -9   8    3.34    0.19
   0   9  -8    0.20    0.10
   0   9  -8    0.13    0.09
   0  -9   8    0.31    0.14
   0  -9   8    0.08    0.06
   0  -9   8    0.10    0.08
  -1   9  -8    1.70    0.18
  -1   9  -8    1.63    0.19
   1  -9   8    1.92    0.22
   1  -9   8    1.74    0.19
   1  -9   8    1.83    0.14
  -2   9  -8    2.05    0.20
  -2   9  -8    2.09    0.19
   2  -9   8    2.06    0.22
   2  -9   8    2.41    0.29
  -3   9  -8    1.09    0.13
  -3   9  -8    1.13    0.15
   3  -9   8    0.95    0.15
  -4  -8   8    4.04    0.26
  -4  -8   8    4.07    0.27
   3   8  -8    0.67    0.12
   3   8  -8    0.53    0.08
  -3  -8   8    0.74    0.11
  -3  -8   8    0.72    0.12
  -3  -8   8    0.73    0.16
   2   8  -8    7.72    0.38
   2   8  -8    8.10    0.35
   2   8  -8    8.32    0.29
  -2  -8   8    7.89    0.40
  -2  -8   8    8.50    0.37
  -2  -8   8    8.30    0.31
   1   8  -8   17.36    0.61
  -1  -8   8   17.41    0.65
  -1  -8   8   16.96    0.54
  -1  -8   8   17.76    0.64
   0   8  -8   38.15    1.09
   0   8  -8   37.95    1.18
   0  -8   8   37.08    1.06
   0  -8   8   36.84    1.21
   0  -8   8   36.72    1.21
  -1   8  -8    5.10    0.24
  -1   8  -8    5.62    0.28
   1  -8   8    5.29    0.28
   1  -8   8    5.35    0.32
   1  -8   8    5.57    0.23
  -2   8  -8   13.49    0.51
  -2   8  -8   13.82    0.45
   2  -8   8   14.01    0.55
   2  -8   8   12.33    0.54
  -3   8  -8    2.21    0.20
  -3   8  -8    2.49    0.18
   3  -8   8    2.64    0.28
   3  -8   8    2.10    0.24
  -4   8  -8    2.34    0.21
  -4   8  -8    2.21    0.22
   4  -8   8    2.41    0.30
   4   7  -8    2.29    0.19
  -4  -7   8    2.24    0.20
  -4  -7   8    2.78    0.28
  -4  -7   8    2.62    0.21
   3   7  -8    1.07    0.14
   3   7  -8    1.25    0.20
   3   7  -8    1.25    0.10
  -3  -7   8    1.47    0.18
  -3  -7   8    1.17    0.16
  -3  -7   8    1.01    0.13
   2   7  -8    0.21    0.04
   2   7  -8    0.09    0.07
  -2  -7   8    0.18    0.05
  -2  -7   8    0.08    0.10
  -2  -7   8    0.12    0.08
   1   7  -8    3.07    0.19
  -1  -7   8    3.33    0.20
  -1  -7   8    3.23    0.16
  -1  -7   8    3.35    0.23
   0   7  -8    7.50    0.29
   0   7  -8    7.80    0.32
   0  -7   8    7.34    0.27
   0  -7   8    7.32    0.33
  -1   7  -8    0.48    0.08
  -1   7  -8    0.57    0.09
   1  -7   8    0.70    0.08
   1  -7   8    0.56    0.09
   1  -7   8    0.46    0.09
  -2   7  -8    0.02    0.05
  -2   7  -8    0.07    0.05
   2  -7   8    0.02    0.07
  -3   7  -8    0.04    0.07
  -3   7  -8    0.00    0.06
   3  -7   8   -0.20    0.09
   3  -7   8   -0.04    0.11
  -4   7  -8    1.45    0.14
  -4   7  -8    1.36    0.16
   4  -7   8    1.88    0.25
  -5  -6   8    1.53    0.18
  -5  -6   8    1.22    0.15
   4   6  -8    0.34    0.18
   4   6  -8   -0.06    0.06
  -4  -6   8    0.00    0.08
  -4  -6   8   -0.01    0.11
  -4  -6   8    0.05    0.08
   3   6  -8   13.45    0.40
   3   6  -8   13.18    0.47
  -3  -6   8   13.45    0.45
  -3  -6   8   13.67    0.50
  -3  -6   8   13.30    0.50
   2   6  -8    1.03    0.12
   2   6  -8    1.25    0.08
   2   6  -8    1.07    0.14
  -2  -6   8    1.08    0.10
  -2  -6   8    1.10    0.15
  -2  -6   8    1.37    0.13
   1   6  -8   44.89    1.23
   1   6  -8   41.91    1.32
  -1  -6   8   43.35    1.20
  -1  -6   8   44.02    1.36
  -1  -6   8   43.11    1.34
   0   6  -8   58.87    1.55
   0   6  -8   57.32    1.70
   0  -6   8   57.11    1.73
   0  -6   8   50.55    1.70
   0  -6   8   58.35    1.54
  -1   6  -8   65.91    1.92
  -1   6  -8   62.14    1.74
   1  -6   8   65.82    1.95
   1  -6   8   63.36    1.73
   1  -6   8   63.51    1.93
  -2   6  -8    7.96    0.28
  -2   6  -8    7.96    0.33
   2  -6   8    7.77    0.36
  -3   6  -8    9.18    0.32
  -3   6  -8    9.44    0.37
   3  -6   8    8.51    0.39
   3  -6   8    9.38    0.41
  -4   6  -8    5.52    0.28
  -4   6  -8    5.00    0.23
   4  -6   8    5.81    0.34
   4  -6   8    5.68    0.32
  -5   6  -8    0.43    0.11
  -5   6  -8    0.63    0.12
  -5  -5   8    2.46    0.20
  -5  -5   8    2.25    0.19
  -5  -5   8    2.64    0.21
   4   5  -8    0.26    0.15
  -4  -5   8    0.17    0.07
  -4  -5   8    0.06    0.07
  -4  -5   8    0.13    0.08
   3   5  -8    4.60    0.15
   3   5  -8    4.56    0.26
   3   5  -8    4.40    0.20
  -3  -5   8    4.40    0.23
  -3  -5   8    4.51    0.23
  -3  -5   8    4.53    0.20
   2   5  -8    0.16    0.08
   2   5  -8    0.19    0.06
   2   5  -8    0.22    0.03
  -2  -5   8    0.16    0.06
  -2  -5   8    0.14    0.04
  -2  -5   8    0.26    0.07
   1   5  -8   10.55    0.38
   1   5  -8   10.46    0.35
  -1  -5   8   10.51    0.39
  -1  -5   8   10.07    0.40
  -1  -5   8   10.74    0.34
   0   5  -8    5.73    0.22
   0   5  -8    5.76    0.24
   0  -5   8    5.73    0.21
   0  -5   8    5.25    0.25
   0  -5   8    5.48    0.26
  -1   5  -8    1.18    0.09
   1  -5   8    1.21    0.13
   1  -5   8    1.10    0.12
  -2   5  -8   67.85    1.81
  -2   5  -8   66.92    2.00
   2  -5   8   67.05    2.03
  -3   5  -8   19.34    0.59
  -3   5  -8   20.49    0.67
   3  -5   8   19.99    0.71
  -4   5  -8    0.12    0.08
  -4   5  -8    0.17    0.07
   4  -5   8    0.33    0.12
   4  -5   8    0.22    0.11
  -5   5  -8   10.16    0.41
  -5   5  -8    9.43    0.37
   5  -5   8   10.71    0.46
  -5  -4   8   14.57    0.50
  -5  -4   8   14.15    0.48
  -5  -4   8   14.51    0.47
   4   4  -8    0.32    0.12
   4   4  -8    0.12    0.05
  -4  -4   8    0.18    0.07
  -4  -4   8    0.09    0.07
  -4  -4   8    0.07    0.07
   3   4  -8    0.28    0.06
   3   4  -8    0.30    0.09
  -3  -4   8    0.23    0.05
  -3  -4   8    0.17    0.06
  -3  -4   8    0.21    0.07
   2   4  -8   42.30    1.29
   2   4  -8   42.77    1.16
  -2  -4   8   44.33    1.33
  -2  -4   8   43.97    1.19
  -2  -4   8   43.35    1.31
   1   4  -8   30.09    0.90
   1   4  -8   28.66    0.88
   1   4  -8   28.13    0.81
  -1  -4   8   26.97    0.91
  -1  -4   8   29.04    0.80
  -1  -4   8   28.26    0.89
   0   4  -8   26.69    0.82
   0   4  -8   27.54    0.81
   0   4  -8   25.46    0.73
   0  -4   8   24.67    0.73
   0  -4   8   25.46    0.84
   0  -4   8   25.12    0.81
  -1   4  -8   57.77    1.54
  -1   4  -8   59.27    1.72
  -1   4  -8   56.73    1.70
   1  -4   8   56.07    1.70
   1  -4   8   56.72    1.74
  -2   4  -8   68.44    2.01
  -2   4  -8   66.14    1.99
  -2   4  -8   65.96    1.81
   2  -4   8   69.33    2.00
   2  -4   8   66.88    2.03
  -3   4  -8    1.50    0.11
  -3   4  -8    1.40    0.13
   3  -4   8    1.30    0.18
   3  -4   8    1.53    0.15
  -4   4  -8    9.54    0.33
  -4   4  -8    9.68    0.37
   4  -4   8    9.40    0.40
  -5   4  -8    9.60    0.37
  -5   4  -8   10.15    0.39
   5  -4   8   10.24    0.44
   5  -4   8   10.20    0.45
  -5  -3   8    0.34    0.08
  -5  -3   8    0.36    0.07
   4   3  -8    0.18    0.05
   4   3  -8    0.12    0.10
  -4  -3   8    0.15    0.06
  -4  -3   8    0.15    0.06
  -4  -3   8    0.14    0.06
   3   3  -8    2.05    0.16
   3   3  -8    2.44    0.13
  -3  -3   8    2.30    0.12
  -3  -3   8    2.28    0.15
  -3  -3   8    2.29    0.14
   2   3  -8   43.04    1.30
   2   3  -8   46.10    1.32
   2   3  -8   43.22    1.21
  -2  -3   8   43.62    1.34
  -2  -3   8   42.40    1.31
  -2  -3   8   44.63    1.19
   1   3  -8    5.13    0.19
   1   3  -8    5.16    0.22
   1   3  -8    4.87    0.21
  -1  -3   8    5.12    0.21
  -1  -3   8    5.07    0.18
  -1  -3   8    5.21    0.23
   0   3  -8    0.00    0.03
   0   3  -8    0.02    0.03
   0   3  -8    0.02    0.02
   0  -3   8    0.01    0.04
   0  -3   8    0.01    0.03
   0  -3   8    0.04    0.02
  -1   3  -8    2.14    0.10
  -1   3  -8    2.20    0.14
  -1   3  -8    2.13    0.13
   1  -3   8    2.18    0.13
   1  -3   8    2.09    0.14
  -2   3  -8   34.99    1.07
  -2   3  -8   35.15    1.05
  -2   3  -8   32.00    0.95
   2  -3   8   33.92    1.09
   2  -3   8   35.23    1.05
  -3   3  -8    9.66    0.36
  -3   3  -8    9.66    0.33
  -3   3  -8    9.86    0.38
   3  -3   8    9.67    0.37
   3  -3   8   10.04    0.40
  -4   3  -8   15.09    0.50
  -4   3  -8   13.80    0.46
   4  -3   8   13.99    0.54
  -5   3  -8    0.29    0.10
  -5   3  -8    0.21    0.08
  -5   3  -8    0.33    0.08
   5  -3   8   -0.01    0.12
   5  -3   8    0.47    0.14
  -5  -2   8    1.04    0.12
   4   2  -8    4.90    0.25
   4   2  -8    4.72    0.18
  -4  -2   8    4.73    0.23
  -4  -2   8    4.98    0.19
  -4  -2   8    4.84    0.20
   3   2  -8    0.34    0.05
   3   2  -8    0.23    0.07
   3   2  -8    0.34    0.05
  -3  -2   8    0.36    0.05
  -3  -2   8    0.23    0.08
  -3  -2   8    0.26    0.05
   2   2  -8    0.47    0.06
   2   2  -8    0.56    0.07
   2   2  -8    0.55    0.07
  -2  -2   8    0.49    0.06
  -2  -2   8    0.47    0.08
  -2  -2   8    0.38    0.06
   1   2  -8    8.66    0.31
   1   2  -8    8.59    0.28
   1   2  -8    9.09    0.33
  -1  -2   8    8.71    0.27
  -1  -2   8    8.70    0.31
   0   2  -8    0.03    0.03
   0   2  -8    0.05    0.02
   0   2  -8    0.00    0.04
   0  -2   8    0.09    0.04
   0  -2   8    0.15    0.05
  -1   2  -8    6.45    0.25
  -1   2  -8    6.74    0.27
   1  -2   8    6.37    0.25
  -2   2  -8   11.91    0.36
  -2   2  -8   11.99    0.42
  -2   2  -8   11.90    0.40
   2  -2   8   10.15    0.40
   2  -2   8   11.82    0.44
  -3   2  -8   26.79    0.88
  -3   2  -8   28.61    0.87
   3  -2   8   28.13    0.92
   3  -2   8   28.08    0.87
  -4   2  -8    0.05    0.05
  -4   2  -8   -0.05    0.05
  -4   2  -8    0.10    0.06
   4  -2   8   -0.11    0.08
  -5   2  -8    0.01    0.07
  -5   2  -8    0.03    0.07
   5  -2   8   -0.01    0.11
  -5  -1   8    6.14    0.23
  -4  -1   8    4.54    0.17
  -4  -1   8    4.61    0.22
  -4  -1   8    4.26    0.18
   3   1  -8    1.43    0.09
   3   1  -8    1.48    0.11
   3   1  -8    1.51    0.10
  -3  -1   8    1.36    0.08
  -3  -1   8    1.29    0.13
  -3  -1   8    1.55    0.10
   2   1  -8    0.02    0.04
   2   1  -8    0.02    0.03
   2   1  -8    0.02    0.03
  -2  -1   8    0.00    0.04
  -2  -1   8    0.03    0.02
  -2  -1   8    0.05    0.04
   1   1  -8   49.00    1.42
   1   1  -8   47.20    1.27
   1   1  -8   47.56    1.28
   1   1  -8   46.67    1.43
  -1  -1   8   47.54    1.28
  -1  -1   8   48.49    1.45
  -1  -1   8   48.01    1.41
   0   1  -8   28.06    0.76
   0   1  -8   27.30    0.76
   0   1  -8   28.32    0.87
   0   1  -8   27.73    0.84
   0  -1   8   26.94    0.84
   0  -1   8   26.51    0.88
  -1   1  -8   27.57    0.88
  -1   1  -8   28.77    0.80
  -1   1  -8   29.84    0.91
  -1   1  -8   28.79    0.81
   1  -1   8   28.47    0.92
   1  -1   8   28.55    0.88
  -2   1  -8    9.95    0.37
  -2   1  -8    9.92    0.35
  -2   1  -8    9.88    0.33
   2  -1   8    9.21    0.34
   2  -1   8    9.68    0.39
  -3   1  -8   16.22    0.53
  -3   1  -8   16.46    0.54
  -3   1  -8   16.66    0.57
   3  -1   8   16.02    0.58
   3  -1   8   16.63    0.54
  -4   1  -8    0.29    0.06
  -4   1  -8    0.50    0.08
  -4   1  -8    0.58    0.09
   4  -1   8    0.37    0.12
   4  -1   8    0.46    0.09
  -5   1  -8    5.85    0.28
  -5   1  -8    5.67    0.25
   5  -1   8    5.36    0.30
  -5   0   8    0.67    0.08
  -5   0   8    0.65    0.07
  -5   0   8    0.61    0.06
   4   0  -8    5.37    0.22
  -4   0   8    5.97    0.23
  -4   0   8    6.09    0.20
  -4   0   8    6.31    0.26
   3   0  -8    4.33    0.18
   3   0  -8    4.76    0.20
   3   0  -8    4.36    0.17
  -3   0   8    4.07    0.21
  -3   0   8    4.37    0.15
  -3   0   8    4.24    0.19
   2   0  -8    0.36    0.06
   2   0  -8    0.48    0.05
   2   0  -8    0.51    0.07
  -2   0   8    0.45    0.06
  -2   0   8    0.52    0.05
  -2   0   8    0.60    0.09
   1   0  -8    6.24    0.26
   1   0  -8    6.43    0.20
   1   0  -8    6.43    0.24
  -1   0   8    6.29    0.24
  -1   0   8    6.35    0.28
   0   0  -8   10.60    0.39
   0   0  -8   10.19    0.30
   0   0  -8   10.17    0.31
   0   0  -8    9.72    0.35
   0   0   8   10.34    0.39
   0   0   8   10.14    0.35
  -1   0  -8   38.73    1.04
  -1   0  -8   37.98    1.13
  -1   0  -8   36.81    1.16
   1   0   8   36.38    1.17
   1   0   8   36.89    1.12
  -2   0  -8   19.58    0.57
  -2   0  -8   18.73    0.61
  -2   0  -8   19.12    0.64
   2   0   8   17.84    0.65
   2   0   8   19.34    0.61
  -3   0  -8   12.00    0.41
  -3   0  -8   12.47    0.46
  -3   0  -8   12.99    0.43
   3   0   8   12.52    0.43
   3   0   8   11.75    0.48
  -4   0  -8   32.77    1.04
  -4   0  -8   31.75    0.98
  -4   0  -8   33.88    1.02
   4   0   8   34.14    1.02
   4   0   8   32.94    1.06
  -5   0  -8    2.88    0.19
  -5   0  -8    3.06    0.19
  -5   0  -8    2.68    0.18
   5   0   8    2.71    0.23
  -5   1   8    1.90    0.09
  -5   1   8    2.10    0.15
  -5   1   8    2.17    0.13
   4  -1  -8   12.13    0.42
  -4   1   8   12.27    0.35
  -4   1   8   13.30    0.46
  -4   1   8   12.60    0.42
   3  -1  -8   10.24    0.31
   3  -1  -8    9.57    0.37
  -3   1   8   10.66    0.40
  -3   1   8   10.15    0.35
   2  -1  -8    3.64    0.19
   2  -1  -8    3.56    0.13
   2  -1  -8    3.35    0.16
  -2   1   8    3.50    0.11
  -2   1   8    3.75    0.20
  -2   1   8    3.73    0.17
   1  -1  -8    2.58    0.10
   1  -1  -8    2.62    0.13
   1  -1  -8    2.71    0.16
  -1   1   8    2.59    0.14
  -1   1   8    2.53    0.18
  -1   1   8    2.55    0.10
   0  -1  -8   16.29    0.57
   0  -1  -8   16.67    0.54
   0  -1  -8   17.30    0.48
   0   1   8   16.78    0.49
   0   1   8   16.96    0.54
   0   1   8   16.84    0.59
  -1  -1  -8    0.84    0.06
  -1  -1  -8    0.93    0.12
  -1  -1  -8    0.92    0.08
   1   1   8    0.75    0.08
   1   1   8    0.61    0.11
  -2  -1  -8    1.24    0.12
  -2  -1  -8    1.16    0.08
  -2  -1  -8    1.05    0.09
   2   1   8    1.00    0.14
   2   1   8    1.15    0.10
  -3  -1  -8    4.80    0.21
  -3  -1  -8    4.70    0.25
  -3  -1  -8    4.79    0.21
   3   1   8    5.12    0.27
   3   1   8    4.75    0.21
  -4  -1  -8    1.22    0.13
  -4  -1  -8    1.33    0.12
  -4  -1  -8    1.52    0.17
   4   1   8    1.33    0.14
   4   1   8    1.54    0.18
  -5  -1  -8    0.75    0.10
  -5  -1  -8    0.88    0.11
   5   1   8    0.89    0.14
  -5   2   8   -0.08    0.07
  -5   2   8    0.02    0.04
  -5   2   8   -0.05    0.06
   4  -2  -8    3.18    0.18
  -4   2   8    3.49    0.17
  -4   2   8    3.60    0.21
   3  -2  -8    9.33    0.28
   3  -2  -8   10.01    0.38
  -3   2   8    9.81    0.39
  -3   2   8    9.50    0.35
   2  -2  -8    0.05    0.03
   2  -2  -8    0.00    0.05
   2  -2  -8    0.02    0.02
  -2   2   8    0.01    0.05
  -2   2   8    0.02    0.04
  -2   2   8    0.03    0.02
   1  -2  -8   12.60    0.43
   1  -2  -8   12.85    0.47
   1  -2  -8   12.48    0.36
  -1   2   8   12.60    0.48
  -1   2   8   12.64    0.37
  -1   2   8   13.16    0.44
   0  -2  -8   53.96    1.62
   0  -2  -8   52.46    1.44
   0  -2  -8   54.78    1.58
   0   2   8   53.01    1.58
   0   2   8   52.86    1.45
   0   2   8   51.69    1.63
  -1  -2  -8   16.92    0.49
  -1  -2  -8   16.40    0.54
  -1  -2  -8   16.23    0.58
   1   2   8   16.18    0.59
   1   2   8   16.22    0.54
   1   2   8   16.20    0.50
  -2  -2  -8   20.74    0.63
  -2  -2  -8   20.80    0.72
  -2  -2  -8   21.83    0.68
   2   2   8   20.87    0.67
   2   2   8   20.81    0.73
  -3  -2  -8    2.52    0.15
  -3  -2  -8    2.54    0.14
  -3  -2  -8    2.70    0.20
   3   2   8    2.75    0.21
   3   2   8    2.74    0.16
  -4  -2  -8    5.72    0.29
  -4  -2  -8    6.29    0.26
  -4  -2  -8    5.70    0.26
   4   2   8    6.14    0.31
  -5  -2  -8   19.12    0.63
  -5  -2  -8   18.57    0.65
   5   2   8   18.57    0.67
   5   2   8   18.80    0.61
   5  -3  -8    4.10    0.20
  -5   3   8    3.78    0.20
  -5   3   8    3.98    0.23
   4  -3  -8    4.37    0.24
  -4   3   8    3.69    0.23
  -4   3   8    3.85    0.20
   3  -3  -8    3.27    0.22
  -3   3   8    3.17    0.17
  -3   3   8    3.27    0.21
   2  -3  -8    0.10    0.06
  -2   3   8    0.20    0.07
  -2   3   8    0.17    0.03
  -2   3   8    0.18    0.06
   1  -3  -8    8.79    0.37
   1  -3  -8    8.83    0.33
  -1   3   8    8.77    0.33
  -1   3   8    8.76    0.28
  -1   3   8    8.90    0.37
   0  -3  -8   33.60    1.08
   0  -3  -8   34.42    1.03
   0   3   8   33.95    1.09
   0   3   8   32.50    1.03
   0   3   8   33.41    0.94
  -1  -3  -8    1.40    0.14
  -1  -3  -8    1.29    0.11
  -1  -3  -8    1.22    0.08
   1   3   8    0.97    0.10
   1   3   8    1.06    0.09
   1   3   8    1.25    0.15
  -2  -3  -8    1.40    0.11
  -2  -3  -8    1.63    0.18
  -2  -3  -8    1.18    0.09
   2   3   8    1.45    0.12
   2   3   8    1.42    0.13
   2   3   8    1.78    0.17
  -3  -3  -8    8.98    0.33
  -3  -3  -8    9.45    0.35
  -3  -3  -8    8.96    0.39
   3   3   8    8.88    0.40
   3   3   8    9.04    0.35
  -4  -3  -8    0.12    0.06
  -4  -3  -8    0.15    0.10
   4   3   8   -0.03    0.10
   4   3   8   -0.03    0.07
  -5  -3  -8    0.91    0.12
   5   3   8    0.83    0.13
   5  -4  -8   11.61    0.46
  -5   4   8   11.12    0.42
  -5   4   8   11.01    0.44
  -4   4   8    5.31    0.28
  -4   4   8    5.23    0.25
   3  -4  -8    3.46    0.24
  -3   4   8    3.24    0.22
  -3   4   8    3.18    0.19
   2  -4  -8    4.06    0.24
   2  -4  -8    3.87    0.12
  -2   4   8    3.89    0.15
  -2   4   8    4.11    0.24
  -2   4   8    3.92    0.20
   1  -4  -8    8.48    0.37
  -1   4   8    8.31    0.32
  -1   4   8    8.12    0.37
  -1   4   8    8.18    0.27
   0  -4  -8    2.11    0.18
   0   4   8    2.00    0.11
   0   4   8    2.09    0.14
   0   4   8    1.99    0.17
  -1  -4  -8   13.04    0.51
   1   4   8   12.41    0.50
   1   4   8   12.44    0.41
  -2  -4  -8    3.70    0.17
  -2  -4  -8    3.97    0.25
   2   4   8    4.07    0.21
   2   4   8    3.80    0.25
  -3  -4  -8    2.89    0.15
  -3  -4  -8    2.68    0.24
   3   4   8    2.62    0.23
  -4  -4  -8    0.42    0.13
  -4  -4  -8    0.33    0.08
   4   4   8    0.26    0.12
   4   4   8    0.30    0.10
   5  -5  -8    3.45    0.27
  -5   5   8    2.47    0.24
  -5   5   8    2.53    0.23
   4  -5  -8   -0.13    0.10
  -4   5   8   -0.08    0.09
  -4   5   8    0.05    0.09
  -3   5   8    0.16    0.09
  -3   5   8    0.17    0.08
   2  -5  -8   13.78    0.38
   2  -5  -8   14.19    0.39
  -2   5   8   14.79    0.51
  -2   5   8   14.07    0.43
  -2   5   8   13.55    0.54
   1  -5  -8    0.08    0.11
  -1   5   8   -0.05    0.06
  -1   5   8    0.07    0.04
  -1   5   8    0.00    0.06
   0  -5  -8    2.50    0.22
   0   5   8    2.11    0.19
   0   5   8    2.49    0.13
   0   5   8    2.62    0.17
  -1  -5  -8   18.13    0.69
   1   5   8   18.02    0.68
   1   5   8   19.15    0.65
   1   5   8   18.34    0.57
  -2  -5  -8   31.96    1.08
   2   5   8   31.63    1.06
  -3  -5  -8    0.05    0.10
  -3  -5  -8    0.06    0.04
   3   5   8    0.10    0.09
   3   5   8   -0.01    0.08
   3   5   8   -0.05    0.09
  -4  -5  -8    4.60    0.23
  -4  -5  -8    5.32    0.35
   4   5   8    4.66    0.28
   4   5   8    4.89    0.32
  -5   6   8    0.35    0.14
   4  -6  -8    4.27    0.34
  -4   6   8    4.31    0.28
  -4   6   8    4.18    0.27
   3  -6  -8    0.25    0.14
  -3   6   8    0.18    0.10
  -3   6   8    0.18    0.10
   2  -6  -8   14.93    0.42
  -2   6   8   15.49    0.55
  -2   6   8   15.66    0.60
  -2   6   8   15.29    0.47
   1  -6  -8    2.24    0.23
   1  -6  -8    2.06    0.13
  -1   6   8    1.83    0.12
  -1   6   8    2.15    0.21
  -1   6   8    2.08    0.17
   0  -6  -8    1.94    0.23
   0   6   8    1.68    0.20
   0   6   8    1.75    0.17
   0   6   8    1.67    0.12
  -1  -6  -8    0.52    0.16
   1   6   8    0.46    0.12
   1   6   8    0.42    0.08
  -2  -6  -8    5.52    0.34
   2   6   8    5.33    0.27
   2   6   8    5.10    0.32
  -3  -6  -8    6.53    0.41
  -3  -6  -8    7.47    0.38
   3   6   8    7.18    0.35
   3   6   8    7.13    0.34
   3   6   8    7.95    0.39
  -4  -6  -8    1.05    0.19
  -4  -6  -8    0.99    0.17
   4   6   8    1.01    0.20
  -4   7   8   15.09    0.59
  -4   7   8   15.23    0.61
   3  -7  -8   -0.03    0.24
  -3   7   8    0.29    0.12
  -3   7   8    0.20    0.11
   2  -7  -8    0.87    0.06
  -2   7   8    1.03    0.15
  -2   7   8    0.93    0.10
  -2   7   8    1.00    0.14
   1  -7  -8   37.64    1.25
   1  -7  -8   35.46    1.02
  -1   7   8   36.70    1.16
  -1   7   8   36.07    1.21
  -1   7   8   35.45    1.04
   0  -7  -8    3.80    0.32
   0  -7  -8    3.94    0.21
   0   7   8    3.86    0.25
   0   7   8    3.68    0.19
   0   7   8    4.64    0.30
  -1  -7  -8    4.23    0.36
  -1  -7  -8    3.63    0.23
   1   7   8    3.92    0.21
   1   7   8    3.62    0.29
  -2  -7  -8   51.49    1.68
  -2  -7  -8   54.26    1.52
   2   7   8   49.44    1.48
   2   7   8   51.09    1.64
   2   7   8   50.10    1.58
  -3  -7  -8   17.09    0.74
  -3  -7  -8   17.71    0.67
   3   7   8   17.18    0.69
  -4   8   8    1.05    0.20
  -4   8   8    1.15    0.21
  -3   8   8    3.35    0.30
  -3   8   8    3.54    0.29
   2  -8  -8   -0.01    0.03
   2  -8  -8   -0.04    0.16
  -2   8   8   -0.05    0.12
  -2   8   8    0.11    0.07
  -2   8   8    0.10    0.12
   1  -8  -8    4.46    0.36
   1  -8  -8    4.16    0.19
  -1   8   8    3.78    0.31
  -1   8   8    3.88    0.21
  -1   8   8    4.41    0.28
   0  -8  -8    0.96    0.12
   0  -8  -8    0.94    0.20
   0   8   8    0.64    0.14
   0   8   8    0.65    0.10
   0   8   8    0.69    0.13
  -1  -8  -8    3.68    0.25
  -1  -8  -8    4.17    0.40
   1   8   8    4.27    0.33
   1   8   8    3.62    0.27
   1   8   8    4.16    0.23
  -2  -8  -8    0.25    0.12
  -2  -8  -8    0.08    0.20
   2   8   8    0.12    0.14
  -3  -8  -8   11.45    0.65
  -3  -8  -8   11.33    0.52
   3   8   8   13.25    0.58
  -3   9   8   19.93    0.78
  -3   9   8   20.86    0.81
   2  -9  -8    0.02    0.04
  -2   9   8   -0.05    0.09
  -2   9   8   -0.05    0.11
  -2   9   8   -0.05    0.15
   1  -9  -8    0.22    0.21
   1  -9  -8    0.00    0.06
  -1   9   8   -0.17    0.08
  -1   9   8    0.09    0.13
  -1   9   8   -0.08    0.12
   0  -9  -8    5.79    0.27
   0  -9  -8    5.14    0.46
   0   9   8    5.78    0.29
   0   9   8    5.38    0.36
   0   9   8    5.95    0.39
  -1  -9  -8    0.47    0.24
  -1  -9  -8    0.32    0.11
   1   9   8    0.16    0.16
  -2  -9  -8    0.86    0.16
  -2  -9  -8    0.81    0.40
   2   9   8    0.72    0.20
   2 -10  -8    3.35    0.14
  -2  10   8    3.81    0.37
   1 -10  -8    2.15    0.17
  -1  10   8    1.61    0.23
   0 -10  -8    6.97    0.32
   0  10   8    7.23    0.47
  -1 -10  -8    1.07    0.16
   1  10   8    1.14    0.23
   1  11  -9    2.81    0.29
  -1 -11   9    3.29    0.30
  -1 -11   9    2.28    0.20
  -1 -11   9    1.90    0.31
   0  11  -9    1.54    0.21
   0 -11   9    1.78    0.18
   0 -11   9    1.35    0.20
  -1  11  -9    0.82    0.17
   1 -11   9    0.99    0.13
   1 -11   9    1.06    0.18
  -2  11  -9    1.98    0.27
   2 -11   9    2.01    0.27
   2  10  -9    8.03    0.41
  -2 -10   9    7.86    0.53
  -2 -10   9    8.69    0.42
  -2 -10   9    8.65    0.35
   1  10  -9    3.41    0.27
  -1 -10   9    3.68    0.21
  -1 -10   9    3.19    0.25
  -1 -10   9    3.15    0.38
   0  10  -9    4.51    0.30
   0 -10   9    4.58    0.30
   0 -10   9    4.21    0.22
   0 -10   9    4.07    0.39
  -1  10  -9    2.50    0.24
  -1  10  -9    2.05    0.25
   1 -10   9    2.40    0.18
   1 -10   9    2.45    0.26
  -2  10  -9   20.64    0.75
   2 -10   9   19.74    0.80
  -3  10  -9    0.41    0.13
   3 -10   9    0.75    0.20
   3   9  -9    0.09    0.11
   3   9  -9   -0.15    0.07
  -3  -9   9   -0.14    0.12
  -3  -9   9    0.10    0.08
  -3  -9   9   -0.04    0.19
   2   9  -9    8.05    0.37
   2   9  -9    7.94    0.30
  -2  -9   9    8.41    0.33
  -2  -9   9    8.27    0.41
  -2  -9   9    8.10    0.46
   1   9  -9    7.44    0.36
   1   9  -9    7.37    0.36
  -1  -9   9    7.60    0.42
  -1  -9   9    7.96    0.31
  -1  -9   9    7.80    0.38
   0   9  -9    2.69    0.22
   0   9  -9    2.72    0.23
   0  -9   9    3.13    0.18
   0  -9   9    3.60    0.25
   0  -9   9    3.03    0.30
  -1   9  -9    5.63    0.28
  -1   9  -9    5.50    0.30
   1  -9   9    5.37    0.24
   1  -9   9    5.67    0.37
   1  -9   9    5.56    0.33
  -2   9  -9    1.75    0.20
  -2   9  -9    1.97    0.20
   2  -9   9    2.29    0.24
  -3   9  -9    2.58    0.24
  -3   9  -9    2.26    0.23
   3  -9   9    2.41    0.30
  -4  -8   9    0.14    0.11
  -4  -8   9    0.23    0.13
   3   8  -9    1.74    0.14
   3   8  -9    2.07    0.20
  -3  -8   9    2.18    0.17
  -3  -8   9    1.95    0.21
  -3  -8   9    2.07    0.29
   2   8  -9    7.63    0.34
   2   8  -9    7.73    0.38
  -2  -8   9    8.19    0.31
  -2  -8   9    7.72    0.37
  -2  -8   9    7.50    0.40
   1   8  -9   18.45    0.65
  -1  -8   9   18.10    0.68
  -1  -8   9   18.93    0.69
  -1  -8   9   18.42    0.57
   0   8  -9    7.02    0.32
   0   8  -9    7.09    0.30
   0  -8   9    7.00    0.27
   0  -8   9    5.84    0.33
   0  -8   9    7.23    0.37
  -1   8  -9   28.86    0.85
  -1   8  -9   27.70    0.93
   1  -8   9   26.58    0.82
   1  -8   9   28.15    0.97
   1  -8   9   30.05    0.98
  -2   8  -9    6.29    0.31
  -2   8  -9    5.57    0.26
   2  -8   9    5.90    0.35
   2  -8   9    5.80    0.34
  -3   8  -9   20.88    0.66
  -3   8  -9   20.86    0.75
   3  -8   9   22.10    0.80
  -4   8  -9    0.22    0.13
  -4   8  -9    0.20    0.12
   4  -8   9    0.45    0.17
   4   7  -9    9.20    0.37
  -4  -7   9    8.65    0.44
  -4  -7   9    9.35    0.41
  -4  -7   9    9.33    0.37
   3   7  -9    1.60    0.11
   3   7  -9    1.53    0.20
   3   7  -9    1.45    0.16
  -3  -7   9    1.70    0.15
  -3  -7   9    1.48    0.17
  -3  -7   9    1.37    0.17
   2   7  -9    5.68    0.29
   2   7  -9    5.72    0.27
  -2  -7   9    5.50    0.29
  -2  -7   9    5.63    0.31
  -2  -7   9    5.77    0.24
   1   7  -9    2.83    0.18
  -1  -7   9    2.88    0.21
  -1  -7   9    2.96    0.23
  -1  -7   9    2.76    0.15
   0   7  -9    2.36    0.17
   0   7  -9    2.01    0.15
   0  -7   9    2.40    0.14
   0  -7   9    2.28    0.21
   0  -7   9    2.31    0.19
  -1   7  -9    6.09    0.28
  -1   7  -9    5.68    0.24
   1  -7   9    6.20    0.31
   1  -7   9    5.64    0.23
   1  -7   9    5.57    0.30
  -2   7  -9   16.34    0.53
  -2   7  -9   16.88    0.60
   2  -7   9   17.04    0.64
  -3   7  -9    0.37    0.08
  -3   7  -9    0.35    0.10
   3  -7   9    0.38    0.12
   3  -7   9    0.34    0.12
  -4   7  -9    9.04    0.35
  -4   7  -9    9.14    0.40
   4  -7   9    9.22    0.46
   4   6  -9    7.33    0.47
   4   6  -9    6.97    0.30
  -4  -6   9    7.55    0.38
  -4  -6   9    7.65    0.36
  -4  -6   9    7.70    0.31
   3   6  -9    0.81    0.16
   3   6  -9    0.62    0.10
   3   6  -9    0.62    0.06
  -3  -6   9    0.56    0.11
  -3  -6   9    0.57    0.11
  -3  -6   9    0.59    0.09
   2   6  -9    4.27    0.22
  -2  -6   9    4.22    0.19
  -2  -6   9    4.35    0.24
  -2  -6   9    3.84    0.23
   1   6  -9    4.11    0.21
  -1  -6   9    3.99    0.24
  -1  -6   9    4.15    0.18
  -1  -6   9    4.04    0.24
   0   6  -9   35.97    1.02
   0   6  -9   35.38    1.12
   0  -6   9   36.08    1.00
   0  -6   9   35.77    1.13
   0  -6   9   35.64    1.15
  -1   6  -9    2.09    0.16
  -1   6  -9    2.38    0.14
   1  -6   9    2.09    0.13
   1  -6   9    1.99    0.18
   1  -6   9    2.22    0.18
  -2   6  -9   35.87    1.13
  -2   6  -9   36.31    1.02
   2  -6   9   35.71    1.17
  -3   6  -9    8.61    0.37
  -3   6  -9    8.44    0.31
   3  -6   9    8.48    0.39
   3  -6   9    9.07    0.41
  -4   6  -9   11.74    0.42
  -4   6  -9   12.87    0.49
   4  -6   9   12.46    0.57
  -5  -5   9    2.70    0.23
  -5  -5   9    2.28    0.21
   4   5  -9    0.97    0.19
   4   5  -9    0.98    0.12
  -4  -5   9    1.06    0.13
  -4  -5   9    1.20    0.14
  -4  -5   9    1.34    0.14
   3   5  -9   14.62    0.51
  -3  -5   9   14.94    0.53
  -3  -5   9   16.13    0.56
  -3  -5   9   14.73    0.48
   2   5  -9   29.80    0.93
   2   5  -9   28.73    0.81
   2   5  -9   30.63    0.88
  -2  -5   9   30.32    0.85
  -2  -5   9   29.54    0.97
  -2  -5   9   29.64    0.94
   1   5  -9   10.08    0.38
   1   5  -9   10.31    0.35
  -1  -5   9    9.92    0.39
  -1  -5   9   10.03    0.33
   0   5  -9    1.52    0.11
   0   5  -9    1.53    0.13
   0  -5   9    1.38    0.10
   0  -5   9    1.51    0.14
   0  -5   9    1.28    0.13
  -1   5  -9    0.02    0.04
  -1   5  -9    0.14    0.06
   1  -5   9    0.05    0.05
   1  -5   9   -0.03    0.05
  -2   5  -9    3.13    0.15
  -2   5  -9    3.10    0.18
   2  -5   9    3.06    0.21
  -3   5  -9    2.66    0.18
  -3   5  -9    2.56    0.15
   3  -5   9    2.54    0.22
  -4   5  -9    1.17    0.15
  -4   5  -9    1.06    0.11
   4  -5   9    1.21    0.17
   4  -5   9    1.15    0.17
  -5   5  -9   12.09    0.47
  -5  -4   9    2.12    0.18
  -5  -4   9    1.96    0.18
  -5  -4   9    1.80    0.22
  -4  -4   9    0.16    0.07
  -4  -4   9    0.19    0.07
  -4  -4   9    0.12    0.08
   3   4  -9   17.27    0.57
   3   4  -9   16.95    0.56
  -3  -4   9   16.76    0.57
  -3  -4   9   17.13    0.60
  -3  -4   9   17.49    0.52
   2   4  -9    0.10    0.02
   2   4  -9    0.08    0.05
   2   4  -9    0.09    0.06
  -2  -4   9    0.07    0.06
  -2  -4   9    0.15    0.05
  -2  -4   9    0.16    0.04
   1   4  -9    0.95    0.11
   1   4  -9    1.01    0.10
   1   4  -9    1.10    0.10
  -1  -4   9    1.01    0.08
  -1  -4   9    1.00    0.11
  -1  -4   9    1.04    0.12
   0   4  -9    3.72    0.18
   0   4  -9    3.84    0.19
   0   4  -9    2.95    0.15
   0  -4   9    3.42    0.15
   0  -4   9    3.63    0.20
  -1   4  -9   31.62    0.89
  -1   4  -9   32.27    1.00
  -1   4  -9   32.51    0.99
   1  -4   9   29.07    0.98
   1  -4   9   32.67    1.03
  -2   4  -9    6.45    0.28
  -2   4  -9    6.15    0.23
  -2   4  -9    6.07    0.27
   2  -4   9    6.42    0.30
  -3   4  -9    1.11    0.11
  -3   4  -9    1.03    0.12
   3  -4   9    1.11    0.15
  -4   4  -9    0.42    0.09
  -4   4  -9    0.30    0.08
   4  -4   9    0.37    0.12
   4  -4   9    0.45    0.13
  -5   4  -9    9.06    0.38
  -5   4  -9    9.22    0.39
   5  -4   9    9.14    0.51
  -5  -3   9    0.21    0.09
  -5  -3   9    0.09    0.08
  -5  -3   9    0.19    0.08
   4   3  -9    0.88    0.14
  -4  -3   9    1.07    0.11
  -4  -3   9    0.89    0.12
  -4  -3   9    1.01    0.12
   3   3  -9    7.26    0.28
   3   3  -9    7.55    0.30
  -3  -3   9    7.48    0.29
  -3  -3   9    7.65    0.26
  -3  -3   9    7.56    0.32
   2   3  -9   13.02    0.45
   2   3  -9   13.48    0.42
   2   3  -9   13.62    0.46
  -2  -3   9   12.97    0.45
  -2  -3   9   13.30    0.48
  -2  -3   9   13.13    0.40
   1   3  -9  115.68    3.00
   1   3  -9  111.08    3.28
   1   3  -9  111.33    3.29
  -1  -3   9  113.18    2.99
  -1  -3   9  110.76    3.32
  -1  -3   9  117.75    3.28
   0   3  -9   11.28    0.39
   0   3  -9   11.29    0.41
   0   3  -9   10.62    0.34
   0  -3   9   11.08    0.39
   0  -3   9   10.55    0.42
  -1   3  -9   27.19    0.82
  -1   3  -9   24.17    0.72
  -1   3  -9   26.42    0.83
   1  -3   9   24.65    0.85
   1  -3   9   26.05    0.82
  -2   3  -9   16.69    0.59
  -2   3  -9   17.65    0.57
  -2   3  -9   16.97    0.51
   2  -3   9   16.95    0.61
   2  -3   9   16.95    0.57
  -3   3  -9    2.68    0.16
  -3   3  -9    2.25    0.17
  -3   3  -9    2.52    0.14
   3  -3   9    2.63    0.17
   3  -3   9    2.25    0.20
  -4   3  -9   11.38    0.42
  -4   3  -9   11.04    0.39
   4  -3   9   10.91    0.43
   4  -3   9   11.60    0.46
  -5   3  -9    0.03    0.08
  -5   3  -9    0.05    0.08
   5  -3   9    0.25    0.16
   5  -3   9    0.07    0.14
  -5  -2   9    2.20    0.15
  -5  -2   9    2.10    0.17
  -5  -2   9    2.05    0.14
   4   2  -9    5.83    0.29
  -4  -2   9    6.62    0.23
  -4  -2   9    6.31    0.29
  -4  -2   9    6.32    0.25
   3   2  -9    1.63    0.11
   3   2  -9    1.91    0.13
   3   2  -9    1.47    0.13
  -3  -2   9    1.64    0.12
  -3  -2   9    1.91    0.15
  -3  -2   9    1.60    0.10
   2   2  -9   11.21    0.35
   2   2  -9   10.17    0.38
   2   2  -9   10.60    0.37
  -2  -2   9   11.09    0.33
  -2  -2   9   10.88    0.41
  -2  -2   9   10.08    0.37
   1   2  -9    0.22    0.03
   1   2  -9    0.19    0.04
   1   2  -9    0.22    0.06
   1   2  -9    0.13    0.05
  -1  -2   9    0.12    0.04
  -1  -2   9    0.18    0.04
  -1  -2   9    0.13    0.05
   0   2  -9    0.16    0.04
   0   2  -9    0.14    0.05
   0   2  -9    0.08    0.03
   0  -2   9    0.10    0.04
   0  -2   9    0.03    0.04
  -1   2  -9    0.03    0.03
  -1   2  -9    0.01    0.04
  -1   2  -9    0.04    0.03
   1  -2   9   -0.10    0.04
   1  -2   9   -0.03    0.03
  -2   2  -9   13.75    0.50
  -2   2  -9   13.68    0.48
  -2   2  -9   14.17    0.44
   2  -2   9   14.54    0.53
   2  -2   9   14.27    0.49
  -3   2  -9   45.05    1.28
  -3   2  -9   46.30    1.37
  -3   2  -9   43.43    1.35
   3  -2   9   44.56    1.35
   3  -2   9   43.02    1.40
  -4   2  -9    2.33    0.17
  -4   2  -9    2.74    0.17
  -4   2  -9    2.84    0.19
   4  -2   9    2.39    0.23
  -5   2  -9    0.27    0.08
  -5   2  -9    0.15    0.08
   5  -2   9   -0.09    0.12
   5  -2   9    0.27    0.15
  -5  -1   9    6.16    0.23
  -5  -1   9    6.15    0.26
  -5  -1   9    5.91    0.23
   4   1  -9    4.92    0.24
   4   1  -9    4.89    0.20
  -4  -1   9    4.71    0.25
  -4  -1   9    4.85    0.18
  -4  -1   9    4.82    0.21
   3   1  -9    0.02    0.04
   3   1  -9    0.07    0.04
   3   1  -9    0.12    0.05
  -3  -1   9    0.00    0.05
  -3  -1   9    0.07    0.03
  -3  -1   9    0.14    0.05
   2   1  -9   48.48    1.45
   2   1  -9   50.66    1.48
   2   1  -9   49.88    1.33
  -2  -1   9   45.49    1.45
  -2  -1   9   50.33    1.32
  -2  -1   9   49.00    1.50
   1   1  -9   19.16    0.64
   1   1  -9   18.87    0.61
   1   1  -9   19.21    0.53
   1   1  -9   19.46    0.55
  -1  -1   9   19.24    0.66
  -1  -1   9   19.16    0.61
   0   1  -9    2.24    0.10
   0   1  -9    2.00    0.14
   0   1  -9    2.26    0.13
   0   1  -9    2.38    0.10
   0  -1   9    2.20    0.16
   0  -1   9    2.17    0.13
  -1   1  -9    1.40    0.13
  -1   1  -9    1.56    0.11
  -1   1  -9    1.59    0.09
   1  -1   9    1.43    0.11
   1  -1   9    1.50    0.15
  -2   1  -9    0.56    0.07
  -2   1  -9    0.64    0.10
  -2   1  -9    0.64    0.09
   2  -1   9    0.62    0.08
   2  -1   9    0.51    0.09
  -3   1  -9   11.81    0.45
  -3   1  -9   12.00    0.41
  -3   1  -9   11.80    0.42
   3  -1   9   12.10    0.43
   3  -1   9   11.54    0.47
  -4   1  -9    0.04    0.08
  -4   1  -9   -0.02    0.05
  -4   1  -9    0.03    0.05
   4  -1   9    0.00    0.11
  -5   1  -9    1.01    0.12
  -5   1  -9    1.13    0.14
  -5   1  -9    1.17    0.15
   5  -1   9    1.28    0.15
  -5   0   9    0.83    0.11
  -5   0   9    0.86    0.09
  -5   0   9    0.79    0.11
   4   0  -9    0.29    0.06
  -4   0   9    0.29    0.05
  -4   0   9    0.29    0.09
  -4   0   9    0.29    0.06
   3   0  -9    0.17    0.04
   3   0  -9    0.08    0.05
   3   0  -9    0.23    0.06
  -3   0   9    0.12    0.07
  -3   0   9    0.14    0.03
  -3   0   9    0.13    0.06
   2   0  -9   13.61    0.45
   2   0  -9   13.14    0.48
   2   0  -9   14.20    0.40
  -2   0   9   13.53    0.46
  -2   0   9   13.63    0.50
   1   0  -9   14.92    0.51
   1   0  -9   14.14    0.48
   1   0  -9   14.37    0.41
  -1   0   9   14.52    0.48
  -1   0   9   13.62    0.52
   0   0  -9   10.19    0.31
   0   0  -9    9.90    0.38
   0   0  -9   10.26    0.30
   0   0  -9    9.58    0.35
   0   0   9    9.84    0.36
   0   0   9   10.03    0.40
  -1   0  -9    5.62    0.23
  -1   0  -9    5.43    0.20
  -1   0  -9    5.09    0.25
   1   0   9    5.06    0.26
   1   0   9    5.25    0.23
  -2   0  -9    0.90    0.13
  -2   0  -9    1.22    0.11
  -2   0  -9    1.21    0.09
   2   0   9    1.13    0.11
   2   0   9    1.22    0.13
  -3   0  -9    2.79    0.19
  -3   0  -9    2.77    0.15
  -3   0  -9    3.03    0.17
   3   0   9    2.80    0.17
   3   0   9    2.89    0.24
  -4   0  -9   34.38    1.05
  -4   0  -9   32.34    1.07
  -4   0  -9   33.51    1.01
   4   0   9   35.06    1.11
  -5   0  -9    0.38    0.10
  -5   0  -9    0.38    0.09
  -5   0  -9    0.23    0.09
   5   0   9    0.36    0.12
  -5   1   9    0.37    0.08
  -5   1   9    0.34    0.09
   4  -1  -9    3.82    0.20
  -4   1   9    3.46    0.18
  -4   1   9    3.59    0.22
   3  -1  -9    8.13    0.29
   3  -1  -9    7.59    0.31
   3  -1  -9    7.71    0.25
  -3   1   9    7.84    0.30
  -3   1   9    7.91    0.35
   2  -1  -9    0.47    0.05
   2  -1  -9    0.44    0.07
   2  -1  -9    0.41    0.07
  -2   1   9    0.36    0.03
  -2   1   9    0.32    0.07
  -2   1   9    0.23    0.07
   1  -1  -9   69.95    1.84
   1  -1  -9   68.36    2.08
   1  -1  -9   68.35    2.04
  -1   1   9   68.77    1.87
  -1   1   9   72.76    2.04
  -1   1   9   69.32    2.10
   0  -1  -9    2.90    0.19
   0  -1  -9    3.08    0.16
   0  -1  -9    3.01    0.12
   0   1   9    2.93    0.20
  -1  -1  -9    1.54    0.11
  -1  -1  -9    1.41    0.08
  -1  -1  -9    1.43    0.14
   1   1   9    1.29    0.18
   1   1   9    1.31    0.11
  -2  -1  -9   13.42    0.43
  -2  -1  -9   12.86    0.46
  -2  -1  -9   12.99    0.51
   2   1   9   14.06    0.47
   2   1   9   13.69    0.52
  -3  -1  -9    0.38    0.07
  -3  -1  -9    0.42    0.07
  -3  -1  -9    0.37    0.10
   3   1   9    0.42    0.09
   3   1   9    0.32    0.10
  -4  -1  -9    0.58    0.12
  -4  -1  -9    0.42    0.08
  -4  -1  -9    0.29    0.08
   4   1   9    0.48    0.13
   4   1   9    0.44    0.10
  -5  -1  -9    0.69    0.11
  -5  -1  -9    0.54    0.12
   5   1   9    0.49    0.12
   5  -2  -9    0.36    0.07
  -5   2   9    0.47    0.09
  -5   2   9    0.45    0.11
   4  -2  -9   11.94    0.45
  -4   2   9   12.67    0.47
  -4   2   9   12.42    0.43
  -4   2   9   11.99    0.34
   3  -2  -9    0.78    0.06
   3  -2  -9    0.96    0.12
  -3   2   9    0.87    0.11
  -3   2   9    0.81    0.05
  -3   2   9    1.00    0.14
   2  -2  -9    0.52    0.08
   2  -2  -9    0.58    0.08
   2  -2  -9    0.52    0.05
  -2   2   9    0.48    0.04
  -2   2   9    0.42    0.09
  -2   2   9    0.37    0.07
   1  -2  -9    7.64    0.30
   1  -2  -9    7.70    0.24
   1  -2  -9    8.08    0.34
  -1   2   9    7.93    0.30
  -1   2   9    7.68    0.35
  -1   2   9    7.76    0.25
   0  -2  -9    6.48    0.26
   0  -2  -9    6.94    0.31
   0  -2  -9    6.68    0.22
   0   2   9    6.90    0.27
   0   2   9    6.49    0.23
   0   2   9    6.40    0.31
  -1  -2  -9   20.66    0.71
  -1  -2  -9   20.35    0.66
  -1  -2  -9   20.15    0.60
   1   2   9   20.27    0.66
   1   2   9   20.59    0.72
   1   2   9   19.84    0.61
  -2  -2  -9    2.00    0.18
  -2  -2  -9    1.94    0.13
  -2  -2  -9    1.92    0.11
   2   2   9    1.97    0.14
   2   2   9    1.66    0.18
  -3  -2  -9    4.91    0.23
  -3  -2  -9    4.87    0.21
  -3  -2  -9    4.92    0.31
   3   2   9    4.93    0.29
  -4  -2  -9    1.12    0.15
  -4  -2  -9    1.30    0.12
  -4  -2  -9    1.17    0.14
   4   2   9    0.94    0.15
   4   2   9    1.00    0.13
  -5  -2  -9    7.26    0.32
   5   2   9    6.97    0.33
  -5   3   9    0.04    0.08
  -5   3   9    0.08    0.10
  -4   3   9    0.20    0.08
  -4   3   9    0.18    0.09
   3  -3  -9    8.95    0.39
  -3   3   9    8.42    0.34
  -3   3   9    8.15    0.26
  -3   3   9    8.75    0.38
   2  -3  -9    8.18    0.36
   2  -3  -9    7.78    0.23
  -2   3   9    7.92    0.36
  -2   3   9    7.80    0.25
  -2   3   9    8.02    0.31
   1  -3  -9    0.72    0.09
   1  -3  -9    0.67    0.11
  -1   3   9    0.44    0.07
  -1   3   9    0.58    0.11
  -1   3   9    0.71    0.06
   0  -3  -9   30.17    1.01
   0  -3  -9   31.44    0.96
   0   3   9   31.71    0.96
   0   3   9   30.44    0.87
   0   3   9   30.29    1.02
  -1  -3  -9   68.50    2.01
  -1  -3  -9   65.12    2.06
  -1  -3  -9   67.52    1.85
   1   3   9   68.00    2.01
   1   3   9   69.05    1.87
   1   3   9   68.12    2.07
  -2  -3  -9    7.87    0.32
  -2  -3  -9    8.12    0.29
  -2  -3  -9    7.78    0.37
   2   3   9    8.39    0.33
   2   3   9    8.18    0.38
  -3  -3  -9    4.62    0.30
  -3  -3  -9    4.89    0.21
  -3  -3  -9    4.45    0.23
   3   3   9    4.85    0.30
  -4  -3  -9   16.85    0.55
  -4  -3  -9   16.61    0.63
   4   3   9   16.73    0.58
   4   3   9   16.43    0.63
   5  -4  -9   12.04    0.48
  -5   4   9   12.19    0.48
  -5   4   9   12.00    0.46
   4  -4  -9    1.15    0.15
  -4   4   9    1.31    0.17
  -4   4   9    1.36    0.19
  -3   4   9   30.63    0.86
  -3   4   9   31.51    0.98
  -3   4   9   30.60    1.03
   2  -4  -9    6.42    0.19
  -2   4   9    6.71    0.33
  -2   4   9    6.43    0.29
  -2   4   9    6.62    0.22
   1  -4  -9    0.04    0.06
  -1   4   9    0.12    0.06
  -1   4   9    0.08    0.04
  -1   4   9    0.11    0.08
   0  -4  -9   22.11    0.78
   0   4   9   21.23    0.71
   0   4   9   22.70    0.78
   0   4   9   21.52    0.65
  -1  -4  -9   38.76    1.26
   1   4   9   38.53    1.10
   1   4   9   37.70    1.25
   1   4   9   38.99    1.19
  -2  -4  -9   14.84    0.59
  -2  -4  -9   14.97    0.47
   2   4   9   14.68    0.59
   2   4   9   14.92    0.50
  -3  -4  -9    0.92    0.10
  -3  -4  -9    0.82    0.13
   3   4   9    0.78    0.14
   3   4   9    0.69    0.11
  -4  -4  -9    1.25    0.19
  -4  -4  -9    1.15    0.13
   4   4   9    1.26    0.18
   4   4   9    1.72    0.21
   5  -5  -9    7.58    0.43
  -5   5   9    7.42    0.38
   4  -5  -9    0.38    0.15
  -4   5   9    0.35    0.12
  -4   5   9    0.30    0.11
   3  -5  -9    0.55    0.12
  -3   5   9    0.43    0.11
  -3   5   9    0.34    0.11
   2  -5  -9    4.64    0.15
   2  -5  -9    4.74    0.17
  -2   5   9    4.97    0.26
  -2   5   9    4.91    0.29
  -2   5   9    4.85    0.19
   1  -5  -9    3.74    0.27
  -1   5   9    3.73    0.21
  -1   5   9    3.19    0.16
  -1   5   9    3.67    0.25
   0  -5  -9    9.19    0.43
   0   5   9    9.95    0.44
   0   5   9    9.12    0.32
   0   5   9    9.47    0.38
  -1  -5  -9   81.72    2.49
   1   5   9   81.08    2.24
   1   5   9   81.43    2.48
  -2  -5  -9    3.03    0.27
   2   5   9    2.96    0.26
   2   5   9    3.13    0.19
  -3  -5  -9    5.75    0.25
  -3  -5  -9    5.61    0.38
   3   5   9    5.76    0.31
   3   5   9    5.95    0.36
  -4  -5  -9    9.42    0.51
  -4  -5  -9    9.56    0.37
   4   5   9   10.54    0.48
  -4   6   9   16.45    0.65
  -4   6   9   16.36    0.61
   3  -6  -9    0.88    0.16
  -3   6   9    0.35    0.11
  -3   6   9    0.51    0.13
   2  -6  -9    6.61    0.21
   2  -6  -9    6.68    0.20
  -2   6   9    7.03    0.33
  -2   6   9    6.81    0.25
  -2   6   9    7.22    0.37
   1  -6  -9    0.96    0.11
   1  -6  -9    0.89    0.17
  -1   6   9    0.97    0.10
  -1   6   9    0.81    0.11
  -1   6   9    0.91    0.16
   0  -6  -9    0.35    0.14
   0   6   9    0.35    0.09
   0   6   9    0.30    0.06
   0   6   9    0.26    0.10
  -1  -6  -9    0.90    0.17
   1   6   9    0.69    0.14
   1   6   9    0.72    0.10
  -2  -6  -9   10.49    0.51
   2   6   9    9.83    0.42
   2   6   9   10.28    0.49
  -3  -6  -9    5.00    0.37
   3   6   9    4.92    0.35
  -4  -6  -9    0.18    0.16
  -4   7   9    7.82    0.42
  -4   7   9    7.64    0.41
  -3   7   9    0.30    0.13
  -3   7   9    0.29    0.14
   2  -7  -9    4.11    0.42
   2  -7  -9    3.70    0.14
  -2   7   9    3.80    0.28
  -2   7   9    3.89    0.19
  -2   7   9    4.34    0.30
   1  -7  -9    1.40    0.24
   1  -7  -9    1.34    0.12
  -1   7   9    1.05    0.15
  -1   7   9    1.50    0.13
  -1   7   9    1.37    0.20
   0  -7  -9    0.17    0.23
   0  -7  -9    0.14    0.08
   0   7   9   -0.07    0.10
   0   7   9   -0.07    0.12
   0   7   9   -0.06    0.06
  -1  -7  -9    2.51    0.29
  -1  -7  -9    2.30    0.21
   1   7   9    2.49    0.19
   1   7   9    2.18    0.22
   1   7   9    2.44    0.27
  -2  -7  -9   13.90    0.55
  -2  -7  -9   15.20    0.69
   2   7   9   15.79    0.57
   2   7   9   13.70    0.56
   2   7   9   13.91    0.62
  -3  -7  -9    1.58    0.26
  -3  -7  -9    1.85    0.23
   3   7   9    1.59    0.23
  -3   8   9    2.47    0.20
  -3   8   9    2.70    0.30
  -3   8   9    2.87    0.32
   2  -8  -9    1.00    0.08
  -2   8   9    0.90    0.16
  -2   8   9    0.91    0.11
  -2   8   9    0.87    0.16
   1  -8  -9   19.67    0.59
   1  -8  -9   19.62    0.82
  -1   8   9   19.05    0.71
  -1   8   9   19.68    0.77
  -1   8   9   19.63    0.62
   0  -8  -9    5.82    0.28
   0  -8  -9    6.28    0.50
   0   8   9    6.00    0.38
   0   8   9    5.38    0.27
   0   8   9    5.46    0.34
  -1  -8  -9    1.43    0.25
  -1  -8  -9    1.48    0.19
   1   8   9    1.71    0.20
   1   8   9    1.07    0.18
  -2  -8  -9    0.13    0.12
  -2  -8  -9    0.19    0.25
   2   8   9    0.24    0.16
  -3   9   9    2.25    0.26
  -3   9   9    2.85    0.30
   2  -9  -9    0.06    0.04
  -2   9   9    0.06    0.10
  -2   9   9    0.00    0.15
  -2   9   9    0.16    0.18
   1  -9  -9    3.49    0.19
  -1   9   9    3.98    0.35
  -1   9   9    2.87    0.33
  -1   9   9    3.64    0.25
   0  -9  -9    2.02    0.33
   0  -9  -9    2.36    0.19
   0   9   9    2.46    0.32
  -1  -9  -9   -0.90    0.39
  -1  -9  -9   -0.13    0.11
   1   9   9    0.24    0.18
  -2  -9  -9    0.33    0.28
  -2  -9  -9    0.01    0.13
   2   9   9    0.08    0.19
   1 -10  -9    1.87    0.17
  -1  10   9    2.54    0.35
   0 -10  -9   11.03    0.43
   0  10   9   11.03    0.59
   1  11 -10    0.34    0.16
  -1 -11  10    0.69    0.19
  -1 -11  10    0.31    0.11
   0  11 -10    8.52    0.45
   0 -11  10    8.72    0.36
   0 -11  10    8.67    0.49
  -1  11 -10    0.99    0.18
   1 -11  10    1.11    0.14
   1 -11  10    1.02    0.22
   2  10 -10    0.59    0.14
  -2 -10  10    0.98    0.27
  -2 -10  10    0.47    0.14
  -2 -10  10    0.74    0.12
   1  10 -10    2.55    0.25
  -1 -10  10    3.18    0.42
  -1 -10  10    2.87    0.20
  -1 -10  10    3.00    0.29
   0  10 -10   13.52    0.57
   0 -10  10   13.62    0.66
   0 -10  10   14.44    0.62
   0 -10  10   14.10    0.48
  -1  10 -10    1.56    0.19
   1 -10  10    1.46    0.17
   1 -10  10    1.75    0.17
  -2  10 -10    7.22    0.38
   2 -10  10    6.92    0.43
   3   9 -10    0.48    0.14
  -3  -9  10    0.46    0.22
  -3  -9  10    0.36    0.10
  -3  -9  10    0.43    0.15
   2   9 -10   13.39    0.45
   2   9 -10   13.96    0.55
  -2  -9  10   14.25    0.58
  -2  -9  10   13.81    0.62
  -2  -9  10   14.38    0.49
   1   9 -10   15.77    0.61
  -1  -9  10   17.22    0.54
  -1  -9  10   15.67    0.64
  -1  -9  10   16.31    0.67
   0   9 -10    4.52    0.28
   0   9 -10    4.89    0.29
   0  -9  10    4.74    0.23
   0  -9  10    4.98    0.37
   0  -9  10    5.08    0.31
  -1   9 -10   10.90    0.46
  -1   9 -10   10.50    0.42
   1  -9  10    9.58    0.51
   1  -9  10   11.34    0.49
   1  -9  10   10.67    0.38
  -2   9 -10    0.45    0.13
  -2   9 -10    0.34    0.12
   2  -9  10    0.40    0.16
  -3   9 -10    3.67    0.28
   3  -9  10    4.20    0.34
   3   8 -10    0.31    0.07
   3   8 -10    0.31    0.11
  -3  -8  10    0.34    0.10
  -3  -8  10    0.23    0.17
  -3  -8  10    0.33    0.11
   2   8 -10    0.43    0.13
   2   8 -10    0.53    0.11
  -2  -8  10    0.68    0.10
  -2  -8  10    0.57    0.12
  -2  -8  10    0.58    0.16
   1   8 -10   -0.01    0.07
   1   8 -10    0.02    0.10
  -1  -8  10    0.10    0.13
  -1  -8  10   -0.09    0.08
  -1  -8  10   -0.05    0.05
   0   8 -10    0.13    0.08
   0   8 -10   -0.01    0.07
   0  -8  10   -0.08    0.08
   0  -8  10    0.04    0.06
   0  -8  10    0.02    0.13
  -1   8 -10    6.92    0.30
  -1   8 -10    6.66    0.32
   1  -8  10    7.04    0.38
   1  -8  10    7.29    0.28
   1  -8  10    5.65    0.35
  -2   8 -10    1.51    0.18
  -2   8 -10    1.31    0.17
   2  -8  10    1.06    0.15
   2  -8  10    1.38    0.20
  -3   8 -10   16.67    0.58
  -3   8 -10   17.87    0.66
   3  -8  10   19.02    0.73
   4   7 -10    8.23    0.36
  -4  -7  10    7.76    0.40
  -4  -7  10    8.58    0.36
   3   7 -10    4.30    0.17
   3   7 -10    4.36    0.35
   3   7 -10    4.08    0.25
  -3  -7  10    4.08    0.30
  -3  -7  10    4.63    0.23
  -3  -7  10    4.06    0.27
   2   7 -10    0.34    0.12
   2   7 -10    0.24    0.08
  -2  -7  10    0.29    0.07
  -2  -7  10    0.25    0.11
  -2  -7  10    0.31    0.09
   1   7 -10   23.77    0.79
  -1  -7  10   23.06    0.82
  -1  -7  10   23.22    0.81
  -1  -7  10   23.94    0.70
   0   7 -10   37.76    1.23
   0  -7  10   38.83    1.11
   0  -7  10   39.58    1.28
   0  -7  10   40.77    1.26
  -1   7 -10   24.15    0.79
  -1   7 -10   23.12    0.70
   1  -7  10   22.84    0.83
   1  -7  10   22.80    0.81
  -2   7 -10    0.12    0.07
  -2   7 -10    0.09    0.07
   2  -7  10    0.11    0.10
   2  -7  10    0.01    0.10
  -3   7 -10    1.19    0.13
  -3   7 -10    1.11    0.15
   3  -7  10    1.29    0.18
  -4   7 -10    0.61    0.14
   4  -7  10    0.42    0.18
   4   6 -10    1.55    0.25
   4   6 -10    1.80    0.17
  -4  -6  10    1.62    0.20
  -4  -6  10    1.54    0.18
  -4  -6  10    2.12    0.18
   3   6 -10   -0.02    0.07
   3   6 -10   -0.17    0.12
   3   6 -10   -0.01    0.03
  -3  -6  10    0.15    0.10
  -3  -6  10    0.03    0.06
  -3  -6  10   -0.05    0.10
   2   6 -10    9.55    0.37
  -2  -6  10    9.55    0.40
  -2  -6  10    8.43    0.39
  -2  -6  10   10.06    0.34
   1   6 -10   15.97    0.54
  -1  -6  10   15.12    0.48
  -1  -6  10   14.39    0.55
   0   6 -10    0.25    0.07
   0  -6  10    0.32    0.07
   0  -6  10    0.44    0.07
   0  -6  10    0.44    0.10
  -1   6 -10   14.01    0.51
  -1   6 -10   13.51    0.44
   1  -6  10   13.45    0.54
   1  -6  10   14.10    0.52
  -2   6 -10    5.21    0.22
  -2   6 -10    4.83    0.26
   2  -6  10    4.85    0.30
  -3   6 -10    2.27    0.19
  -3   6 -10    2.13    0.16
   3  -6  10    1.71    0.22
   3  -6  10    2.51    0.23
  -4   6 -10   15.12    0.53
  -4   6 -10   16.88    0.60
   4  -6  10   16.78    0.66
  -5  -5  10    0.21    0.12
  -5  -5  10    0.40    0.11
   4   5 -10    1.20    0.14
   4   5 -10    1.25    0.20
  -4  -5  10    1.20    0.15
  -4  -5  10    1.48    0.15
  -4  -5  10    1.26    0.18
   3   5 -10    2.99    0.18
  -3  -5  10    2.43    0.24
  -3  -5  10    3.05    0.21
  -3  -5  10    2.94    0.16
   2   5 -10    3.43    0.20
   2   5 -10    3.63    0.19
  -2  -5  10    3.33    0.16
  -2  -5  10    3.43    0.22
  -2  -5  10    3.24    0.21
   1   5 -10    6.72    0.27
   1   5 -10    6.69    0.29
  -1  -5  10    6.91    0.30
  -1  -5  10    6.52    0.25
  -1  -5  10    6.91    0.32
   0   5 -10   10.70    0.36
   0   5 -10   10.44    0.41
   0   5 -10   10.53    0.40
   0  -5  10   10.19    0.34
   0  -5  10   10.06    0.40
   0  -5  10   10.66    0.43
  -1   5 -10   90.47    2.67
  -1   5 -10   93.32    2.69
  -1   5 -10   92.40    2.43
   1  -5  10   90.04    2.72
   1  -5  10   87.06    2.67
  -2   5 -10    0.04    0.06
  -2   5 -10    0.09    0.05
   2  -5  10    0.17    0.07
  -3   5 -10    2.68    0.16
  -3   5 -10    3.03    0.20
   3  -5  10    3.06    0.23
   3  -5  10    2.89    0.27
  -4   5 -10    2.00    0.19
  -4   5 -10    1.52    0.17
   4  -5  10    1.87    0.24
   4  -5  10    1.53    0.21
  -5  -4  10   -0.02    0.14
  -5  -4  10    0.07    0.11
   4   4 -10    5.17    0.22
  -4  -4  10    4.96    0.29
  -4  -4  10    5.09    0.26
  -4  -4  10    5.43    0.23
   3   4 -10    2.01    0.14
   3   4 -10    1.80    0.18
  -3  -4  10    1.95    0.18
  -3  -4  10    1.88    0.17
  -3  -4  10    2.18    0.14
   2   4 -10    7.54    0.30
   2   4 -10    6.90    0.29
   2   4 -10    7.48    0.28
  -2  -4  10    7.12    0.34
  -2  -4  10    7.56    0.26
  -2  -4  10    6.88    0.30
   1   4 -10    0.05    0.05
   1   4 -10    0.19    0.06
   1   4 -10    0.11    0.05
  -1  -4  10    0.06    0.05
  -1  -4  10    0.08    0.04
  -1  -4  10    0.10    0.05
   0   4 -10    7.17    0.30
   0   4 -10    7.48    0.32
   0   4 -10    7.04    0.26
   0  -4  10    7.62    0.33
   0  -4  10    7.00    0.30
   0  -4  10    7.08    0.26
  -1   4 -10    0.52    0.09
  -1   4 -10    0.42    0.06
  -1   4 -10    0.43    0.09
   1  -4  10    0.66    0.10
   1  -4  10    0.42    0.09
  -2   4 -10    6.20    0.24
  -2   4 -10    5.87    0.27
  -2   4 -10    6.53    0.30
   2  -4  10    6.19    0.32
  -3   4 -10    2.61    0.18
  -3   4 -10    2.49    0.15
  -3   4 -10    2.69    0.20
   3  -4  10    2.28    0.24
   3  -4  10    1.82    0.19
  -4   4 -10    4.17    0.24
  -4   4 -10    4.17    0.22
   4  -4  10    4.22    0.28
   4  -4  10    4.41    0.31
  -5   4 -10    7.11    0.35
  -5   4 -10    7.26    0.35
  -5  -3  10    1.34    0.16
  -5  -3  10    1.25    0.14
  -5  -3  10    1.28    0.17
   4   3 -10    3.01    0.16
   4   3 -10    3.43    0.25
  -4  -3  10    3.07    0.19
  -4  -3  10    3.21    0.17
  -4  -3  10    3.51    0.22
   3   3 -10   15.53    0.52
   3   3 -10   14.62    0.50
   3   3 -10   15.05    0.49
  -3  -3  10   15.09    0.55
  -3  -3  10   14.73    0.51
  -3  -3  10   15.08    0.46
   2   3 -10    0.96    0.12
   2   3 -10    0.89    0.10
   2   3 -10    0.76    0.10
  -2  -3  10    0.85    0.08
  -2  -3  10    0.86    0.11
  -2  -3  10    0.62    0.11
   1   3 -10    2.02    0.15
   1   3 -10    2.06    0.12
   1   3 -10    2.08    0.14
  -1  -3  10    2.16    0.11
  -1  -3  10    2.29    0.15
  -1  -3  10    2.29    0.15
   0   3 -10   14.43    0.49
   0   3 -10   13.80    0.42
   0  -3  10   13.82    0.52
   0  -3  10   13.62    0.49
  -1   3 -10    2.90    0.18
  -1   3 -10    2.92    0.14
   1  -3  10    2.91    0.17
   1  -3  10    3.04    0.20
  -2   3 -10   44.37    1.40
  -2   3 -10   46.49    1.38
  -2   3 -10   45.67    1.25
   2  -3  10   44.64    1.43
  -3   3 -10    0.28    0.08
  -3   3 -10    0.19    0.06
  -3   3 -10    0.12    0.06
   3  -3  10    0.17    0.14
  -4   3 -10    0.45    0.11
  -4   3 -10    0.70    0.10
  -4   3 -10    0.46    0.09
  -4   3 -10    0.67    0.11
   4  -3  10    0.66    0.13
   4  -3  10    0.62    0.10
  -5   3 -10    6.99    0.33
  -5   3 -10    6.85    0.32
  -5  -2  10    3.04    0.17
  -5  -2  10    3.27    0.22
  -5  -2  10    2.95    0.19
   4   2 -10    0.03    0.05
   4   2 -10    0.09    0.10
  -4  -2  10   -0.07    0.08
  -4  -2  10    0.02    0.05
  -4  -2  10    0.00    0.07
   3   2 -10   11.87    0.42
   3   2 -10   12.48    0.41
   3   2 -10   12.75    0.44
  -3  -2  10   12.37    0.44
  -3  -2  10   12.54    0.38
  -3  -2  10   12.55    0.47
   2   2 -10   -0.03    0.04
   2   2 -10   -0.04    0.04
   2   2 -10    0.04    0.05
  -2  -2  10    0.01    0.06
  -2  -2  10   -0.02    0.03
  -2  -2  10    0.03    0.05
   1   2 -10    0.06    0.05
   1   2 -10    0.07    0.03
   1   2 -10    0.03    0.02
   1   2 -10    0.08    0.04
  -1  -2  10   -0.03    0.03
  -1  -2  10    0.03    0.05
  -1  -2  10   -0.02    0.06
   0   2 -10    8.35    0.28
   0   2 -10    8.84    0.27
   0   2 -10    8.24    0.32
   0   2 -10    8.12    0.34
   0  -2  10    8.28    0.36
   0  -2  10    8.50    0.32
  -1   2 -10    6.60    0.24
  -1   2 -10    6.09    0.23
  -1   2 -10    6.49    0.27
  -1   2 -10    6.83    0.30
   1  -2  10    6.03    0.27
   1  -2  10    6.60    0.31
  -2   2 -10    6.37    0.27
  -2   2 -10    6.67    0.25
  -2   2 -10    6.43    0.25
  -2   2 -10    6.72    0.30
   2  -2  10    6.57    0.29
   2  -2  10    6.71    0.32
  -3   2 -10    0.71    0.11
  -3   2 -10    0.78    0.10
  -3   2 -10    0.71    0.09
   3  -2  10    0.84    0.12
  -4   2 -10    0.72    0.10
  -4   2 -10    0.93    0.14
  -4   2 -10    0.93    0.12
   4  -2  10    0.51    0.15
   4  -2  10    0.83    0.13
  -5   2 -10    1.73    0.17
  -5   2 -10    1.71    0.18
   5  -2  10    2.10    0.27
  -5  -1  10    2.86    0.18
  -5  -1  10    3.00    0.21
  -5  -1  10    2.92    0.15
   4   1 -10    3.34    0.17
   4   1 -10    3.27    0.21
   4   1 -10    3.64    0.18
  -4  -1  10    3.22    0.19
  -4  -1  10    3.22    0.15
  -4  -1  10    3.14    0.22
   3   1 -10    4.79    0.21
   3   1 -10    4.63    0.20
   3   1 -10    4.77    0.23
  -3  -1  10    4.76    0.25
  -3  -1  10    4.58    0.22
  -3  -1  10    4.69    0.18
   2   1 -10   26.82    0.76
   2   1 -10   27.43    0.87
   2   1 -10   26.47    0.84
  -2  -1  10   25.97    0.89
  -2  -1  10   27.67    0.84
  -2  -1  10   26.73    0.75
   1   1 -10    0.50    0.06
   1   1 -10    0.55    0.08
   1   1 -10    0.75    0.09
   1   1 -10    0.66    0.04
  -1  -1  10    0.50    0.07
  -1  -1  10    0.68    0.11
   0   1 -10   30.55    0.97
   0   1 -10   31.90    0.87
   0   1 -10   31.10    1.00
   0   1 -10   30.79    0.87
   0  -1  10   31.66    1.03
   0  -1  10   31.71    0.97
  -1   1 -10  111.35    3.24
  -1   1 -10  111.06    2.95
  -1   1 -10  111.89    3.00
  -1   1 -10  112.65    3.27
   1  -1  10  111.01    3.29
   1  -1  10  110.63    3.23
  -2   1 -10    0.04    0.04
  -2   1 -10    0.04    0.03
  -2   1 -10    0.17    0.07
   2  -1  10    0.09    0.06
   2  -1  10    0.17    0.08
  -3   1 -10    4.56    0.22
  -3   1 -10    4.32    0.25
  -3   1 -10    4.70    0.21
   3  -1  10    4.35    0.28
  -4   1 -10    0.29    0.07
  -4   1 -10    0.05    0.06
  -4   1 -10    0.21    0.08
   4  -1  10    0.26    0.09
   4  -1  10    0.07    0.12
  -5   1 -10   -0.07    0.08
  -5   1 -10    0.04    0.08
   5  -1  10   -0.15    0.12
  -5   0  10    4.90    0.26
  -5   0  10    4.98    0.19
  -5   0  10    5.05    0.23
   4   0 -10    2.41    0.16
   4   0 -10    2.46    0.16
  -4   0  10    2.33    0.12
  -4   0  10    2.68    0.21
  -4   0  10    2.18    0.16
   3   0 -10    0.06    0.05
   3   0 -10    0.08    0.06
   3   0 -10    0.09    0.05
  -3   0  10    0.02    0.06
  -3   0  10   -0.03    0.07
   2   0 -10    5.63    0.27
   2   0 -10    5.73    0.24
   2   0 -10    5.65    0.20
  -2   0  10    5.74    0.28
  -2   0  10    5.55    0.24
   1   0 -10    6.23    0.25
   1   0 -10    6.40    0.21
   1   0 -10    5.33    0.27
  -1   0  10    6.55    0.26
  -1   0  10    5.74    0.29
   0   0 -10    4.34    0.20
   0   0 -10    4.55    0.23
   0   0 -10    4.67    0.17
   0   0 -10    4.37    0.16
   0   0  10    4.59    0.21
   0   0  10    4.50    0.25
  -1   0 -10    9.26    0.37
  -1   0 -10    8.66    0.30
  -1   0 -10    8.87    0.34
   1   0  10    8.66    0.34
   1   0  10    9.28    0.39
  -2   0 -10    1.93    0.16
  -2   0 -10    2.06    0.14
  -2   0 -10    1.73    0.11
   2   0  10    1.73    0.15
   2   0  10    1.90    0.18
  -3   0 -10   22.79    0.76
  -3   0 -10   24.01    0.80
  -3   0 -10   23.86    0.73
   3   0  10   23.93    0.84
  -4   0 -10    2.48    0.17
  -4   0 -10    2.33    0.22
  -4   0 -10    2.27    0.17
   4   0  10    2.34    0.26
   4   0  10    2.74    0.21
  -5   0 -10    0.24    0.09
  -5   0 -10    0.15    0.09
   5   0  10    0.31    0.14
   5  -1 -10    3.80    0.18
  -5   1  10    3.43    0.20
  -5   1  10    3.44    0.24
   4  -1 -10   10.42    0.40
  -4   1  10   11.10    0.44
  -4   1  10   10.29    0.39
   3  -1 -10    8.11    0.26
   3  -1 -10    7.99    0.34
   3  -1 -10    8.07    0.31
  -3   1  10    8.34    0.37
  -3   1  10    7.80    0.31
   2  -1 -10    0.39    0.05
   2  -1 -10    0.37    0.08
   2  -1 -10    0.35    0.06
  -2   1  10    0.26    0.06
  -2   1  10    0.36    0.09
   1  -1 -10   20.31    0.58
   1  -1 -10   20.13    0.70
   1  -1 -10   21.22    0.67
  -1   1  10   20.02    0.73
  -1   1  10   20.95    0.67
   0  -1 -10   10.12    0.37
   0  -1 -10    9.95    0.40
   0  -1 -10   10.09    0.31
   0  -1 -10   10.10    0.32
   0   1  10    9.43    0.43
   0   1  10    9.98    0.37
  -1  -1 -10   11.73    0.42
  -1  -1 -10   11.65    0.46
  -1  -1 -10   12.03    0.37
   1   1  10   11.48    0.49
   1   1  10   11.75    0.42
  -2  -1 -10   13.68    0.52
  -2  -1 -10   13.62    0.47
  -2  -1 -10   13.10    0.43
   2   1  10   13.82    0.48
   2   1  10   12.81    0.53
  -3  -1 -10   24.04    0.83
  -3  -1 -10   24.62    0.79
  -3  -1 -10   23.45    0.74
   3   1  10   25.59    0.87
  -4  -1 -10    6.46    0.29
  -4  -1 -10    7.09    0.35
  -4  -1 -10    6.22    0.28
   4   1  10    6.49    0.31
   4   1  10    6.34    0.36
  -5  -1 -10    0.26    0.10
  -5  -1 -10    0.01    0.08
   5   1  10    0.11    0.13
  -5   2  10    0.15    0.09
  -5   2  10    0.01    0.10
  -4   2  10   15.96    0.53
  -4   2  10   14.23    0.56
   3  -2 -10    0.50    0.10
   3  -2 -10    0.50    0.05
  -3   2  10    0.57    0.09
  -3   2  10    0.45    0.04
  -3   2  10    0.50    0.11
   2  -2 -10    4.31    0.21
   2  -2 -10    4.43    0.15
   2  -2 -10    4.76    0.25
  -2   2  10    4.29    0.26
  -2   2  10    4.37    0.15
  -2   2  10    4.34    0.22
   1  -2 -10   48.82    1.52
   1  -2 -10   48.61    1.31
   1  -2 -10   48.81    1.47
  -1   2  10   49.77    1.47
  -1   2  10   48.93    1.33
  -1   2  10   47.70    1.54
   0  -2 -10    2.66    0.11
   0  -2 -10    2.43    0.19
   0  -2 -10    2.68    0.16
   0   2  10    2.51    0.20
   0   2  10    2.45    0.16
   0   2  10    2.64    0.13
  -1  -2 -10    0.00    0.02
  -1  -2 -10    0.05    0.04
  -1  -2 -10   -0.02    0.06
   1   2  10   -0.04    0.05
   1   2  10    0.11    0.08
  -2  -2 -10   17.80    0.55
  -2  -2 -10   18.24    0.61
  -2  -2 -10   17.13    0.65
   2   2  10   18.40    0.68
  -3  -2 -10    7.95    0.38
  -3  -2 -10    7.81    0.30
  -3  -2 -10    7.82    0.33
   3   2  10    8.39    0.41
  -4  -2 -10   13.35    0.56
  -4  -2 -10   14.31    0.49
  -4  -2 -10   15.15    0.52
   4   2  10   14.62    0.59
   4   2  10   13.84    0.52
   5  -3 -10    4.01    0.25
  -5   3  10    4.21    0.28
  -5   3  10    4.00    0.25
   4  -3 -10    0.53    0.13
  -4   3  10    0.52    0.12
  -4   3  10    0.60    0.11
  -4   3  10    0.60    0.06
  -3   3  10    0.10    0.07
  -3   3  10    0.10    0.09
  -3   3  10    0.07    0.03
   2  -3 -10    0.18    0.03
   2  -3 -10    0.16    0.09
  -2   3  10    0.16    0.04
  -2   3  10    0.15    0.07
  -2   3  10    0.24    0.09
   1  -3 -10    0.23    0.04
   1  -3 -10    0.25    0.08
   1  -3 -10    0.10    0.05
  -1   3  10    0.19    0.04
  -1   3  10    0.28    0.10
  -1   3  10    0.21    0.07
   0  -3 -10    6.65    0.34
   0  -3 -10    6.71    0.28
   0   3  10    7.01    0.29
   0   3  10    6.58    0.24
   0   3  10    6.25    0.34
  -1  -3 -10   20.72    0.75
  -1  -3 -10   20.88    0.62
  -1  -3 -10   20.42    0.69
   1   3  10   20.92    0.69
   1   3  10   21.41    0.64
   1   3  10   20.78    0.76
  -2  -3 -10    5.17    0.25
  -2  -3 -10    5.24    0.30
  -2  -3 -10    5.05    0.21
   2   3  10    5.22    0.31
  -3  -3 -10    9.04    0.36
  -3  -3 -10    8.67    0.42
  -3  -3 -10    8.85    0.33
   3   3  10    8.93    0.43
   3   3  10    8.01    0.36
  -4  -3 -10    7.11    0.40
  -4  -3 -10    7.86    0.32
   4   3  10    8.07    0.42
   4   3  10    7.32    0.35
   5  -4 -10    2.10    0.28
  -5   4  10    2.84    0.26
   4  -4 -10    0.17    0.12
  -4   4  10    0.09    0.11
  -4   4  10    0.26    0.10
  -4   4  10    0.03    0.04
   3  -4 -10   24.08    0.94
  -3   4  10   29.56    0.79
  -3   4  10   28.58    0.96
  -3   4  10   29.25    0.91
   2  -4 -10    8.65    0.26
  -2   4  10    9.24    0.36
  -2   4  10    8.36    0.41
  -2   4  10    8.72    0.29
   1  -4 -10    0.08    0.10
  -1   4  10    0.06    0.07
  -1   4  10    0.09    0.04
  -1   4  10    0.00    0.07
   0  -4 -10    6.08    0.28
   0  -4 -10    6.02    0.33
   0   4  10    6.16    0.28
   0   4  10    6.46    0.24
   0   4  10    6.30    0.34
  -1  -4 -10   13.02    0.47
  -1  -4 -10   12.23    0.52
   1   4  10   12.55    0.43
   1   4  10   13.26    0.54
  -2  -4 -10    1.94    0.12
  -2  -4 -10    1.78    0.24
   2   4  10    2.30    0.23
   2   4  10    2.10    0.17
  -3  -4 -10    1.24    0.17
  -3  -4 -10    1.06    0.11
   3   4  10    1.17    0.18
   3   4  10    0.98    0.13
  -4  -4 -10    3.54    0.20
  -4  -4 -10    3.86    0.43
   4   4  10    3.75    0.34
  -4   5  10    0.03    0.06
  -4   5  10    0.05    0.12
  -4   5  10    0.17    0.12
   3  -5 -10    7.79    0.42
  -3   5  10    8.14    0.41
  -3   5  10    8.14    0.27
  -3   5  10    7.99    0.36
   2  -5 -10    0.46    0.05
  -2   5  10    0.52    0.11
  -2   5  10    0.62    0.08
   1  -5 -10   16.04    0.65
  -1   5  10   16.09    0.50
  -1   5  10   16.23    0.64
  -1   5  10   16.62    0.58
   0  -5 -10    0.57    0.15
   0   5  10    0.28    0.07
   0   5  10    0.31    0.09
   0   5  10    0.35    0.10
  -1  -5 -10    0.90    0.17
   1   5  10    1.22    0.13
   1   5  10    1.22    0.17
  -2  -5 -10    2.94    0.28
   2   5  10    2.93    0.28
   2   5  10    2.71    0.22
   2   5  10    3.15    0.21
  -3  -5 -10    8.61    0.33
  -3  -5 -10    8.28    0.51
   3   5  10    8.80    0.46
   3   5  10    8.27    0.40
  -4  -5 -10    2.56    0.18
   4   5  10    2.68    0.34
  -4   6  10    0.92    0.17
  -4   6  10    1.08    0.14
  -4   6  10    0.71    0.16
   3  -6 -10    0.60    0.16
  -3   6  10    0.92    0.16
  -3   6  10    0.78    0.16
  -3   6  10    0.83    0.09
   2  -6 -10   49.47    1.33
   2  -6 -10   48.13    1.31
  -2   6  10   49.99    1.54
  -2   6  10   50.01    1.39
  -2   6  10   50.99    1.61
   1  -6 -10    5.28    0.34
  -1   6  10    5.45    0.23
  -1   6  10    5.49    0.29
  -1   6  10    5.05    0.33
   0  -6 -10    0.54    0.19
   0   6  10    0.39    0.08
   0   6  10    0.40    0.11
   0   6  10    0.15    0.10
  -1  -6 -10   14.43    0.64
   1   6  10   14.56    0.62
   1   6  10   15.16    0.51
   1   6  10   14.87    0.56
  -2  -6 -10   21.22    0.84
   2   6  10   21.95    0.83
   2   6  10   20.56    0.74
  -3  -6 -10    1.26    0.26
   3   6  10    0.96    0.20
  -4   7  10    0.46    0.11
  -4   7  10    0.43    0.17
  -3   7  10    1.20    0.15
  -3   7  10    1.08    0.18
  -3   7  10    1.26    0.19
   2  -7 -10    7.37    0.24
   2  -7 -10    7.63    0.23
   2  -7 -10    7.27    0.48
  -2   7  10    7.88    0.30
  -2   7  10    7.54    0.42
  -2   7  10    7.84    0.39
   1  -7 -10    5.14    0.23
   1  -7 -10    5.07    0.39
  -1   7  10    4.91    0.24
  -1   7  10    5.16    0.35
  -1   7  10    5.25    0.32
   0  -7 -10    7.90    0.49
   0  -7 -10    8.37    0.35
   0   7  10    8.68    0.40
   0   7  10    8.64    0.34
   0   7  10    8.94    0.47
  -1  -7 -10    0.93    0.15
  -1  -7 -10    1.29    0.28
   1   7  10    0.73    0.13
   1   7  10    1.07    0.18
   1   7  10    0.97    0.13
  -2  -7 -10    1.81    0.21
  -2  -7 -10    2.55    0.30
   2   7  10    2.45    0.32
  -3  -7 -10    1.65    0.22
  -3  -7 -10    1.76    0.33
   3   7  10    2.04    0.25
  -3   8  10    0.39    0.20
  -3   8  10    0.07    0.10
  -3   8  10    0.22    0.15
   2  -8 -10    0.67    0.06
  -2   8  10    0.62    0.17
  -2   8  10    0.75    0.19
  -2   8  10    0.75    0.11
   1  -8 -10    9.51    0.34
  -1   8  10    9.17    0.37
  -1   8  10    9.29    0.46
  -1   8  10    8.98    0.48
   0  -8 -10   10.95    0.65
   0  -8 -10   11.99    0.44
   0   8  10   11.95    0.53
   0   8  10   11.49    0.44
   0   8  10   12.33    0.57
  -1  -8 -10    2.14    0.23
  -1  -8 -10    2.54    0.34
   1   8  10    2.19    0.31
  -2  -8 -10    4.80    0.52
  -2  -8 -10    5.32    0.35
   2   8  10    5.23    0.43
   2  -9 -10    1.47    0.10
  -2   9  10    1.61    0.23
  -2   9  10    2.04    0.28
   1  -9 -10    2.60    0.18
  -1   9  10    2.15    0.26
   0  -9 -10    2.06    0.21
   0   9  10    1.44    0.23
  -1  -9 -10    5.43    0.32
   1   9  10    4.84    0.43
   2  10 -11    0.15    0.14
  -2 -10  11    0.22    0.26
  -2 -10  11    0.14    0.11
  -2 -10  11    0.04    0.16
   1  10 -11    0.10    0.13
  -1 -10  11   -0.06    0.23
  -1 -10  11    0.04    0.14
  -1 -10  11    0.07    0.10
   0  10 -11    0.29    0.13
   0 -10  11    0.12    0.09
   0 -10  11    0.49    0.15
  -1  10 -11    0.22    0.14
   1 -10  11    0.17    0.16
   1 -10  11    0.18    0.09
  -2  10 -11    7.34    0.40
   2 -10  11    6.99    0.46
   2   9 -11   17.10    0.65
   2   9 -11   16.03    0.52
  -2  -9  11   17.26    0.72
  -2  -9  11   17.47    0.69
  -2  -9  11   17.53    0.57
   1   9 -11   26.37    0.98
  -1  -9  11   30.58    1.06
  -1  -9  11   31.84    0.90
  -1  -9  11   30.08    1.05
   0   9 -11   -0.06    0.09
   0  -9  11    0.11    0.17
   0  -9  11    0.04    0.12
   0  -9  11   -0.03    0.07
  -1   9 -11    1.09    0.17
   1  -9  11    1.43    0.21
   1  -9  11    0.95    0.12
  -2   9 -11    6.58    0.36
   2  -9  11    6.85    0.42
  -3   9 -11    0.09    0.13
   3  -9  11    0.32    0.20
   3   8 -11    3.53    0.27
   3   8 -11    3.83    0.18
  -3  -8  11    3.28    0.36
  -3  -8  11    3.95    0.30
  -3  -8  11    3.48    0.23
   2   8 -11    0.58    0.12
  -2  -8  11    0.71    0.18
  -2  -8  11    0.77    0.12
  -2  -8  11    0.77    0.10
   1   8 -11    1.26    0.15
   1   8 -11    0.98    0.14
  -1  -8  11    0.94    0.15
  -1  -8  11    0.84    0.12
  -1  -8  11    1.06    0.13
   0   8 -11    3.64    0.23
   0   8 -11    3.43    0.25
   0  -8  11    3.82    0.28
   0  -8  11    3.99    0.31
   0  -8  11    4.03    0.21
  -1   8 -11    3.77    0.25
  -1   8 -11    3.51    0.23
   1  -8  11    3.74    0.31
   1  -8  11    3.54    0.29
  -2   8 -11    0.09    0.09
  -2   8 -11    0.00    0.09
   2  -8  11    0.12    0.13
  -3   8 -11   16.89    0.64
   3  -8  11   16.24    0.70
  -4  -7  11    3.97    0.25
  -4  -7  11    3.63    0.30
   3   7 -11   -0.01    0.09
   3   7 -11    0.02    0.04
  -3  -7  11    0.04    0.14
  -3  -7  11    0.15    0.08
  -3  -7  11    0.30    0.11
   2   7 -11    4.48    0.26
   2   7 -11    4.76    0.30
  -2  -7  11    4.16    0.30
  -2  -7  11    4.51    0.28
  -2  -7  11    4.63    0.22
   1   7 -11    6.52    0.32
  -1  -7  11    6.64    0.34
  -1  -7  11    6.66    0.27
  -1  -7  11    7.21    0.36
   0   7 -11   20.76    0.69
   0  -7  11   19.17    0.72
   0  -7  11   19.04    0.70
   0  -7  11   18.48    0.60
  -1   7 -11    6.12    0.31
  -1   7 -11    5.95    0.26
   1  -7  11    6.22    0.35
   1  -7  11    5.98    0.34
  -2   7 -11    0.75    0.13
  -2   7 -11    0.51    0.09
   2  -7  11    0.63    0.14
   2  -7  11    0.65    0.15
  -3   7 -11    6.25    0.33
  -3   7 -11    5.72    0.29
   3  -7  11    6.55    0.39
  -4   7 -11    0.58    0.14
   4  -7  11    0.62    0.21
   4   6 -11    0.02    0.09
  -4  -6  11    0.13    0.14
  -4  -6  11    0.07    0.09
  -4  -6  11    0.12    0.12
   3   6 -11    0.00    0.13
   3   6 -11    0.06    0.07
  -3  -6  11   -0.15    0.11
  -3  -6  11   -0.05    0.09
  -3  -6  11    0.13    0.07
   2   6 -11    8.62    0.37
   2   6 -11    8.28    0.36
  -2  -6  11    9.06    0.41
  -2  -6  11    8.88    0.32
  -2  -6  11    8.48    0.39
   1   6 -11    0.08    0.07
  -1  -6  11   -0.01    0.05
  -1  -6  11    0.04    0.08
  -1  -6  11   -0.07    0.08
   0   6 -11    4.55    0.24
   0  -6  11    3.87    0.25
   0  -6  11    4.20    0.19
   0  -6  11    3.93    0.26
  -1   6 -11    1.25    0.15
  -1   6 -11    1.34    0.12
   1  -6  11    0.96    0.13
   1  -6  11    0.77    0.13
  -2   6 -11    4.30    0.25
  -2   6 -11    3.83    0.20
   2  -6  11    4.93    0.30
  -3   6 -11   -0.02    0.08
  -3   6 -11   -0.05    0.08
   3  -6  11   -0.04    0.15
   3  -6  11   -0.15    0.12
  -4   6 -11   15.03    0.58
   4  -6  11   14.76    0.67
   4   5 -11    2.95    0.20
   4   5 -11    3.30    0.34
  -4  -5  11    2.96    0.27
  -4  -5  11    2.83    0.29
  -4  -5  11    3.31    0.20
   3   5 -11    5.65    0.26
  -3  -5  11    5.52    0.29
  -3  -5  11    5.32    0.23
  -3  -5  11    5.60    0.30
   2   5 -11    6.01    0.28
  -2  -5  11    6.33    0.30
  -2  -5  11    6.69    0.25
  -2  -5  11    6.56    0.32
   1   5 -11    2.92    0.19
   1   5 -11    3.25    0.18
  -1  -5  11    3.71    0.23
  -1  -5  11    2.99    0.21
  -1  -5  11    3.26    0.16
   0   5 -11    0.48    0.09
   0   5 -11    0.54    0.10
   0  -5  11    0.72    0.11
   0  -5  11    0.49    0.10
   0  -5  11    0.54    0.07
  -1   5 -11    7.98    0.34
  -1   5 -11    7.88    0.36
   1  -5  11    8.30    0.36
   1  -5  11    8.31    0.38
  -2   5 -11    0.49    0.10
  -2   5 -11    0.78    0.09
  -2   5 -11    0.46    0.09
   2  -5  11    0.49    0.12
  -3   5 -11   15.79    0.52
  -3   5 -11   16.36    0.59
   3  -5  11   15.78    0.60
   3  -5  11   16.49    0.65
  -4   5 -11   24.14    0.81
   4  -5  11   23.00    0.87
  -5  -4  11   -0.19    0.09
  -5  -4  11   -0.07    0.17
   4   4 -11   13.51    0.55
   4   4 -11   13.87    0.48
  -4  -4  11   14.05    0.52
  -4  -4  11   13.32    0.46
  -4  -4  11   15.40    0.55
   3   4 -11    0.41    0.08
   3   4 -11    0.44    0.11
  -3  -4  11    0.51    0.10
  -3  -4  11    0.31    0.10
  -3  -4  11    0.41    0.07
   2   4 -11    0.37    0.08
   2   4 -11    0.47    0.08
  -2  -4  11    0.43    0.07
  -2  -4  11    0.39    0.09
  -2  -4  11    0.25    0.08
   1   4 -11   43.91    1.20
   1   4 -11   42.66    1.31
  -1  -4  11   42.72    1.18
  -1  -4  11   41.71    1.31
  -1  -4  11   42.91    1.37
   0   4 -11    5.85    0.29
   0   4 -11    6.07    0.27
   0   4 -11    6.22    0.24
   0  -4  11    6.09    0.32
  -1   4 -11    3.18    0.21
  -1   4 -11    3.01    0.18
   1  -4  11    2.99    0.23
   1  -4  11    2.86    0.19
  -2   4 -11    1.00    0.13
  -2   4 -11    0.79    0.10
  -2   4 -11    0.68    0.10
   2  -4  11    0.88    0.13
  -3   4 -11    1.33    0.15
  -3   4 -11    1.13    0.13
  -3   4 -11    1.01    0.14
   3  -4  11    1.15    0.17
   3  -4  11    1.24    0.15
  -4   4 -11    0.84    0.12
  -4   4 -11    1.15    0.14
   4  -4  11    0.73    0.19
  -5  -3  11   -0.14    0.08
  -5  -3  11    0.07    0.12
   4   3 -11    0.96    0.12
   4   3 -11    0.75    0.15
  -4  -3  11    0.95    0.12
  -4  -3  11    0.94    0.10
  -4  -3  11    0.93    0.13
   3   3 -11    0.91    0.12
   3   3 -11    0.59    0.08
  -3  -3  11    0.78    0.10
  -3  -3  11    0.52    0.12
  -3  -3  11    0.59    0.10
   2   3 -11    5.15    0.25
   2   3 -11    5.18    0.22
   2   3 -11    4.73    0.23
  -2  -3  11    4.82    0.24
  -2  -3  11    4.99    0.27
  -2  -3  11    5.04    0.20
   1   3 -11   49.68    1.35
   1   3 -11   48.71    1.49
   1   3 -11   49.79    1.33
   1   3 -11   48.99    1.51
  -1  -3  11   49.05    1.35
  -1  -3  11   49.62    1.49
  -1  -3  11   49.14    1.54
   0   3 -11   17.06    0.59
   0   3 -11   16.00    0.49
   0   3 -11   16.49    0.56
   0  -3  11   16.35    0.57
   0  -3  11   16.13    0.61
  -1   3 -11    0.02    0.06
  -1   3 -11    0.09    0.05
   1  -3  11    0.00    0.06
   1  -3  11    0.05    0.06
  -2   3 -11   13.70    0.44
  -2   3 -11   13.61    0.52
  -2   3 -11   14.08    0.50
   2  -3  11   13.45    0.55
  -3   3 -11   16.99    0.61
  -3   3 -11   17.66    0.55
  -3   3 -11   17.57    0.58
  -3   3 -11   18.56    0.64
   3  -3  11   16.61    0.61
   3  -3  11   18.31    0.69
  -4   3 -11    1.37    0.16
  -4   3 -11    1.56    0.18
  -4   3 -11    1.67    0.15
  -4   3 -11    1.71    0.17
   4  -3  11    1.70    0.23
   4  -3  11    1.70    0.21
  -5  -2  11    0.81    0.14
  -5  -2  11    0.72    0.10
  -5  -2  11    0.63    0.11
   4   2 -11    2.61    0.22
   4   2 -11    2.84    0.16
  -4  -2  11    2.70    0.26
  -4  -2  11    2.65    0.15
  -4  -2  11    2.75    0.19
   3   2 -11   16.09    0.55
   3   2 -11   16.58    0.53
   3   2 -11   17.76    0.59
  -3  -2  11   16.96    0.63
  -3  -2  11   16.56    0.57
  -3  -2  11   16.39    0.50
   2   2 -11    2.54    0.17
   2   2 -11    2.32    0.14
   2   2 -11    2.50    0.15
  -2  -2  11    2.51    0.13
  -2  -2  11    2.47    0.20
  -2  -2  11    2.59    0.17
   1   2 -11    7.11    0.21
   1   2 -11    5.72    0.24
   1   2 -11    6.90    0.30
   1   2 -11    7.08    0.28
  -1  -2  11    7.10    0.33
  -1  -2  11    7.07    0.29
   0   2 -11    4.61    0.17
   0   2 -11    4.85    0.24
   0   2 -11    4.78    0.22
   0   2 -11    4.91    0.18
   0  -2  11    4.07    0.22
   0  -2  11    4.39    0.27
  -1   2 -11    1.36    0.12
  -1   2 -11    1.12    0.14
  -1   2 -11    1.38    0.09
  -1   2 -11    1.44    0.10
   1  -2  11    1.40    0.16
   1  -2  11    1.34    0.13
  -2   2 -11    5.75    0.23
  -2   2 -11    5.90    0.29
  -2   2 -11    5.58    0.26
   2  -2  11    5.22    0.31
  -3   2 -11    1.06    0.12
  -3   2 -11    0.91    0.12
  -3   2 -11    1.12    0.11
  -3   2 -11    1.10    0.14
   3  -2  11    0.94    0.15
   3  -2  11    1.24    0.17
  -4   2 -11    0.08    0.10
  -4   2 -11    0.14    0.10
  -4   2 -11    0.12    0.07
  -4   2 -11   -0.03    0.06
   4  -2  11   -0.14    0.13
   4  -2  11    0.20    0.11
  -5  -1  11    0.22    0.12
  -5  -1  11   -0.02    0.08
  -5  -1  11   -0.02    0.07
   4   1 -11    3.76    0.19
   4   1 -11    4.27    0.23
  -4  -1  11    3.96    0.17
  -4  -1  11    3.93    0.22
   3   1 -11    0.17    0.07
   3   1 -11    0.18    0.07
   3   1 -11    0.26    0.06
  -3  -1  11    0.17    0.07
  -3  -1  11    0.13    0.05
  -3  -1  11    0.13    0.08
   2   1 -11    6.14    0.26
   2   1 -11    5.89    0.22
   2   1 -11    6.04    0.28
  -2  -1  11    6.05    0.30
  -2  -1  11    5.92    0.27
   1   1 -11   16.10    0.54
   1   1 -11   15.64    0.57
   1   1 -11   15.98    0.47
   1   1 -11   15.65    0.44
  -1  -1  11   16.39    0.55
  -1  -1  11   15.58    0.59
   0   1 -11   21.39    0.74
   0   1 -11   20.55    0.62
   0   1 -11   22.18    0.62
   0   1 -11   22.41    0.71
   0  -1  11   21.23    0.70
   0  -1  11   21.66    0.76
  -1   1 -11    0.32    0.05
  -1   1 -11    0.32    0.08
  -1   1 -11    0.34    0.05
  -1   1 -11    0.31    0.07
   1  -1  11    0.45    0.10
   1  -1  11    0.29    0.07
  -2   1 -11    6.30    0.27
  -2   1 -11    6.25    0.25
  -2   1 -11    6.34    0.31
   2  -1  11    5.78    0.33
  -3   1 -11   13.64    0.49
  -3   1 -11   14.03    0.53
  -3   1 -11   13.72    0.46
   3  -1  11   13.29    0.54
   3  -1  11   11.90    0.48
  -4   1 -11    7.47    0.33
  -4   1 -11    7.58    0.32
  -4   1 -11    7.20    0.35
   4  -1  11    7.06    0.41
   4  -1  11    7.43    0.34
  -5   0  11    6.36    0.32
  -5   0  11    6.01    0.27
   4   0 -11    4.29    0.22
  -4   0  11    4.23    0.23
  -4   0  11    4.28    0.28
   3   0 -11    0.08    0.05
   3   0 -11    0.16    0.06
   3   0 -11    0.18    0.08
  -3   0  11    0.24    0.08
  -3   0  11   -0.04    0.08
   2   0 -11   50.59    1.55
   2   0 -11   52.48    1.40
   2   0 -11   52.29    1.59
  -2   0  11   52.56    1.62
  -2   0  11   50.75    1.55
   1   0 -11   43.62    1.13
   1   0 -11   39.33    1.30
   1   0 -11   40.90    1.26
  -1   0  11   42.22    1.27
  -1   0  11   41.57    1.34
   0   0 -11    5.41    0.19
   0   0 -11    5.53    0.20
   0   0 -11    5.68    0.27
   0   0 -11    5.32    0.24
   0   0  11    5.01    0.24
   0   0  11    5.66    0.29
  -1   0 -11    5.69    0.21
  -1   0 -11    6.04    0.30
  -1   0 -11    5.39    0.25
   1   0  11    5.24    0.30
   1   0  11    5.79    0.26
  -2   0 -11    0.69    0.10
  -2   0 -11    0.64    0.11
  -2   0 -11    0.60    0.08
   2   0  11    0.58    0.11
  -3   0 -11    3.38    0.21
  -3   0 -11    3.70    0.25
  -3   0 -11    3.66    0.19
   3   0  11    3.46    0.22
   3   0  11    3.53    0.27
  -4   0 -11    2.33    0.17
  -4   0 -11    2.12    0.18
  -4   0 -11    1.70    0.24
   4   0  11    2.14    0.22
   4   0  11    2.02    0.23
   5  -1 -11   11.75    0.42
  -5   1  11   11.52    0.43
  -5   1  11   11.91    0.48
   4  -1 -11    0.67    0.12
  -4   1  11    0.77    0.13
  -4   1  11    0.55    0.11
   3  -1 -11   11.36    0.41
   3  -1 -11   11.16    0.35
  -3   1  11   10.95    0.42
  -3   1  11   11.18    0.47
   2  -1 -11    0.10    0.04
   2  -1 -11    0.04    0.05
   2  -1 -11    0.01    0.06
  -2   1  11    0.05    0.06
  -2   1  11    0.04    0.08
   1  -1 -11    1.93    0.10
   1  -1 -11    1.72    0.13
   1  -1 -11    1.62    0.17
  -1   1  11    1.79    0.18
  -1   1  11    1.78    0.14
   0  -1 -11    1.44    0.08
   0  -1 -11    1.42    0.12
   0  -1 -11    1.23    0.16
   0  -1 -11    1.43    0.09
   0   1  11    1.51    0.18
   0   1  11    1.27    0.13
  -1  -1 -11    3.11    0.14
  -1  -1 -11    3.07    0.23
  -1  -1 -11    3.00    0.18
   1   1  11    2.98    0.25
   1   1  11    3.10    0.18
  -2  -1 -11    2.75    0.17
  -2  -1 -11    2.87    0.22
  -2  -1 -11    2.83    0.15
   2   1  11    2.61    0.24
  -3  -1 -11    0.33    0.08
  -3  -1 -11    0.23    0.11
  -3  -1 -11    0.25    0.06
   3   1  11    0.30    0.10
   3   1  11    0.25    0.13
  -4  -1 -11    0.12    0.06
  -4  -1 -11    0.24    0.14
  -4  -1 -11    0.08    0.08
   4   1  11    0.07    0.11
   4   1  11    0.08    0.15
   5  -2 -11    0.18    0.12
  -5   2  11   -0.04    0.12
   4  -2 -11   15.62    0.58
  -4   2  11   16.01    0.61
  -4   2  11   15.81    0.56
   3  -2 -11    6.98    0.23
  -3   2  11    6.81    0.30
  -3   2  11    7.38    0.36
   2  -2 -11    0.29    0.05
   2  -2 -11    0.26    0.09
   2  -2 -11    0.27    0.07
  -2   2  11    0.29    0.08
  -2   2  11    0.29    0.04
  -2   2  11    0.27    0.10
   1  -2 -11   64.78    1.85
   1  -2 -11   62.44    1.65
   1  -2 -11   61.70    1.90
  -1   2  11   61.56    1.68
  -1   2  11   60.34    1.92
  -1   2  11   60.69    1.85
   0  -2 -11  178.74    4.92
   0  -2 -11  181.15    5.32
   0  -2 -11  193.32    5.38
   0   2  11  183.93    5.32
   0   2  11  187.49    5.41
  -1  -2 -11    1.57    0.10
  -1  -2 -11    1.59    0.14
  -1  -2 -11    1.62    0.20
   1   2  11    1.56    0.19
   1   2  11    1.43    0.14
  -2  -2 -11    1.22    0.13
  -2  -2 -11    1.56    0.11
  -2  -2 -11    1.61    0.19
   2   2  11    1.26    0.17
  -3  -2 -11    3.97    0.19
  -3  -2 -11    4.04    0.28
  -3  -2 -11    3.81    0.22
   3   2  11    3.86    0.24
   3   2  11    3.95    0.30
  -4  -2 -11    1.47    0.18
  -4  -2 -11    1.88    0.15
  -4  -2 -11    1.68    0.21
   4   2  11    1.71    0.22
   5  -3 -11    0.03    0.13
  -5   3  11    0.21    0.13
   4  -3 -11   11.87    0.49
  -4   3  11   10.30    0.43
  -4   3  11   11.43    0.49
   3  -3 -11    7.84    0.38
   3  -3 -11    7.54    0.23
  -3   3  11    7.57    0.24
  -3   3  11    7.52    0.38
  -3   3  11    7.62    0.34
   2  -3 -11    8.31    0.26
  -2   3  11    8.57    0.27
  -2   3  11    8.54    0.35
  -2   3  11    8.27    0.40
   1  -3 -11   -0.10    0.07
   1  -3 -11   -0.06    0.05
   1  -3 -11    0.02    0.03
  -1   3  11    0.08    0.04
  -1   3  11    0.14    0.07
  -1   3  11    0.21    0.10
   0  -3 -11   -0.03    0.08
   0  -3 -11    0.09    0.06
   0   3  11    0.12    0.08
   0   3  11    0.10    0.05
   0   3  11    0.03    0.09
  -1  -3 -11   25.21    0.84
  -1  -3 -11   25.83    0.75
  -1  -3 -11   25.78    0.90
   1   3  11   25.92    0.84
   1   3  11   25.56    0.77
   1   3  11   25.72    0.92
  -2  -3 -11    1.75    0.12
  -2  -3 -11    1.94    0.16
  -2  -3 -11    1.77    0.21
   2   3  11    1.79    0.24
  -3  -3 -11    0.04    0.05
  -3  -3 -11    0.07    0.12
  -3  -3 -11    0.21    0.08
   3   3  11   -0.06    0.10
   3   3  11    0.40    0.14
  -4  -3 -11    9.29    0.38
  -4  -3 -11    9.13    0.49
   4   3  11   10.46    0.51
   4  -4 -11    4.26    0.35
  -4   4  11    4.04    0.16
  -4   4  11    4.53    0.31
  -4   4  11    4.12    0.28
   3  -4 -11   21.71    0.82
  -3   4  11   22.01    0.79
  -3   4  11   21.43    0.73
  -3   4  11   20.67    0.61
   2  -4 -11    0.13    0.04
  -2   4  11    0.08    0.05
  -2   4  11    0.14    0.09
  -2   4  11    0.07    0.09
   1  -4 -11    3.37    0.27
  -1   4  11    3.08    0.21
  -1   4  11    3.14    0.16
  -1   4  11    3.34    0.26
   0  -4 -11  129.65    3.76
   0  -4 -11  128.69    3.82
   0   4  11  125.65    3.83
   0   4  11  129.16    3.75
   0   4  11  129.82    3.47
  -1  -4 -11   43.91    1.44
  -1  -4 -11   43.62    1.37
   1   4  11   44.90    1.37
   1   4  11   41.80    1.26
   1   4  11   45.45    1.45
  -2  -4 -11    0.49    0.16
  -2  -4 -11    0.34    0.06
   2   4  11    0.40    0.13
   2   4  11    0.29    0.11
  -3  -4 -11    0.61    0.09
  -3  -4 -11    1.04    0.21
   3   4  11    0.93    0.18
   3   4  11    0.63    0.14
  -4  -4 -11    1.65    0.16
   4   4  11    1.54    0.25
  -4   5  11    1.15    0.19
  -4   5  11    0.93    0.12
  -4   5  11    0.81    0.17
   3  -5 -11    0.47    0.16
  -3   5  11    0.55    0.13
  -3   5  11    0.49    0.06
  -3   5  11    0.50    0.15
   2  -5 -11    0.45    0.05
  -2   5  11    0.27    0.11
  -2   5  11    0.34    0.12
  -2   5  11    0.36    0.07
   1  -5 -11   11.59    0.54
  -1   5  11   12.71    0.40
  -1   5  11   12.13    0.47
  -1   5  11   11.00    0.52
   0  -5 -11   -0.04    0.13
   0   5  11    0.05    0.06
   0   5  11    0.14    0.09
   0   5  11    0.00    0.11
  -1  -5 -11    2.70    0.29
   1   5  11    3.27    0.24
   1   5  11    3.03    0.19
   1   5  11    3.19    0.29
  -2  -5 -11    9.38    0.52
   2   5  11    9.18    0.38
   2   5  11    9.06    0.42
   2   5  11    9.69    0.48
  -3  -5 -11    0.16    0.17
  -3  -5 -11   -0.06    0.06
   3   5  11    0.03    0.16
  -4   6  11    0.27    0.16
  -4   6  11    0.04    0.08
  -4   6  11    0.17    0.15
  -3   6  11    2.93    0.28
  -3   6  11    3.21    0.17
  -3   6  11    2.99    0.29
   2  -6 -11    1.65    0.21
   2  -6 -11    1.56    0.11
   2  -6 -11    1.55    0.09
  -2   6  11    1.61    0.18
  -2   6  11    1.21    0.13
  -2   6  11    1.65    0.22
   1  -6 -11    0.53    0.16
  -1   6  11    0.39    0.14
  -1   6  11    0.49    0.13
  -1   6  11    0.46    0.08
   0  -6 -11    1.64    0.24
   0   6  11    1.49    0.15
   0   6  11    1.45    0.19
   0   6  11    1.52    0.21
  -1  -6 -11   19.15    0.81
   1   6  11   20.19    0.66
   1   6  11   21.12    0.81
   1   6  11   20.45    0.73
  -2  -6 -11   23.41    0.91
   2   6  11   23.64    0.90
  -3  -6 -11    1.22    0.22
   3   6  11    0.79    0.22
  -3   7  11    7.83    0.45
  -3   7  11    8.34    0.46
  -3   7  11    7.75    0.32
   2  -7 -11    1.23    0.10
   2  -7 -11    1.31    0.09
  -2   7  11    0.99    0.18
  -2   7  11    0.98    0.17
  -2   7  11    1.20    0.15
   1  -7 -11    0.18    0.17
   1  -7 -11    0.07    0.08
  -1   7  11   -0.04    0.13
  -1   7  11   -0.09    0.11
  -1   7  11    0.01    0.08
   0  -7 -11   13.17    0.64
   0  -7 -11   12.31    0.47
   0   7  11   11.85    0.53
   0   7  11   13.20    0.60
   0   7  11   12.67    0.46
  -1  -7 -11    0.77    0.24
   1   7  11    0.89    0.13
   1   7  11    0.93    0.20
  -2  -7 -11    0.21    0.14
  -2  -7 -11    0.36    0.19
   2   7  11    0.09    0.18
  -3   8  11    0.10    0.21
  -3   8  11    0.00    0.16
  -3   8  11    0.17    0.12
   2  -8 -11    4.97    0.18
   2  -8 -11    4.91    0.18
  -2   8  11    4.83    0.26
  -2   8  11    4.68    0.40
  -2   8  11    4.75    0.39
   1  -8 -11    0.52    0.11
  -1   8  11    0.40    0.12
  -1   8  11    0.39    0.17
  -1   8  11    0.29    0.15
   0  -8 -11   -0.03    0.09
   0   8  11    0.16    0.17
  -1  -8 -11    0.98    0.16
  -1  -8 -11    1.39    0.29
   1   8  11    0.76    0.20
  -2  -8 -11    1.39    0.31
  -2  -8 -11    1.27    0.20
   2   8  11    1.14    0.24
   1  -9 -11    0.62    0.10
  -1   9  11    0.58    0.22
   0  -9 -11    0.10    0.12
   0   9  11    0.25    0.20
   1  10 -12    0.87    0.16
  -1 -10  12    0.78    0.13
  -1 -10  12    0.62    0.18
   0  10 -12    0.99    0.18
   0 -10  12    1.09    0.14
   0 -10  12    0.97    0.19
  -1  10 -12    0.42    0.15
   1 -10  12    0.01    0.18
   2   9 -12    1.88    0.24
   2   9 -12    1.74    0.16
  -2  -9  12    1.84    0.20
  -2  -9  12    1.51    0.27
  -2  -9  12    2.10    0.28
   1   9 -12    6.03    0.35
  -1  -9  12    6.04    0.37
  -1  -9  12    5.85    0.28
  -1  -9  12    6.23    0.45
   0   9 -12   12.02    0.51
   0  -9  12   11.98    0.56
   0  -9  12   11.73    0.43
   0  -9  12   11.11    0.58
  -1   9 -12    0.05    0.10
   1  -9  12   -0.21    0.12
  -2   9 -12    9.56    0.47
   2  -9  12   10.29    0.54
   3   8 -12    2.01    0.25
  -3  -8  12    1.53    0.24
  -3  -8  12    2.44    0.27
  -3  -8  12    1.91    0.20
   2   8 -12    0.06    0.11
  -2  -8  12    0.01    0.18
  -2  -8  12    0.05    0.08
  -2  -8  12   -0.08    0.12
   1   8 -12    3.37    0.25
  -1  -8  12    3.39    0.28
  -1  -8  12    3.30    0.20
  -1  -8  12    3.53    0.32
   0   8 -12    0.54    0.11
   0   8 -12    0.61    0.13
   0  -8  12    0.39    0.15
   0  -8  12    0.52    0.09
   0  -8  12    0.59    0.14
  -1   8 -12    0.63    0.12
  -1   8 -12    0.77    0.13
   1  -8  12    0.73    0.14
   1  -8  12    0.29    0.14
  -2   8 -12    4.39    0.29
   2  -8  12    4.61    0.36
  -3   8 -12    5.04    0.33
   3  -8  12    5.03    0.41
   3   7 -12    1.67    0.21
  -3  -7  12    1.75    0.18
  -3  -7  12    1.37    0.21
  -3  -7  12    1.73    0.24
   2   7 -12    3.43    0.24
   2   7 -12    3.07    0.28
  -2  -7  12    4.03    0.21
  -2  -7  12    3.74    0.29
  -2  -7  12    3.81    0.31
   1   7 -12    6.28    0.31
   1   7 -12    5.92    0.30
  -1  -7  12    6.45    0.26
  -1  -7  12    6.13    0.36
  -1  -7  12    6.35    0.35
   0   7 -12    5.95    0.31
   0  -7  12    6.17    0.26
   0  -7  12    6.10    0.36
   0  -7  12    5.80    0.35
  -1   7 -12    3.21    0.23
  -1   7 -12    3.36    0.21
   1  -7  12    2.72    0.27
   1  -7  12    3.57    0.29
  -2   7 -12    4.77    0.25
  -2   7 -12    5.23    0.30
   2  -7  12    4.62    0.34
  -3   7 -12    5.71    0.33
   3  -7  12    5.22    0.41
  -4  -6  12    3.37    0.30
  -4  -6  12    4.46    0.24
   3   6 -12    0.38    0.10
   3   6 -12    0.25    0.16
  -3  -6  12    0.15    0.11
  -3  -6  12    0.27    0.09
  -3  -6  12    0.45    0.15
   2   6 -12   13.20    0.50
   2   6 -12   13.03    0.49
  -2  -6  12   13.46    0.45
  -2  -6  12   13.24    0.53
  -2  -6  12   13.42    0.55
   1   6 -12    0.10    0.09
   1   6 -12    0.13    0.08
  -1  -6  12    0.31    0.10
  -1  -6  12    0.24    0.06
  -1  -6  12    0.14    0.10
   0   6 -12    5.59    0.29
   0  -6  12    5.41    0.23
   0  -6  12    5.36    0.32
   0  -6  12    5.22    0.30
  -1   6 -12   12.20    0.48
  -1   6 -12   12.54    0.42
   1  -6  12   11.78    0.50
   1  -6  12   12.47    0.53
  -2   6 -12   -0.06    0.07
  -2   6 -12   -0.09    0.06
   2  -6  12    0.24    0.12
   2  -6  12   -0.05    0.11
  -3   6 -12    1.46    0.19
   3  -6  12    1.60    0.17
  -4   6 -12    4.43    0.29
   4  -6  12    3.69    0.40
   4   5 -12   -0.03    0.21
   4   5 -12    0.12    0.09
  -4  -5  12   -0.17    0.14
  -4  -5  12   -0.01    0.12
  -4  -5  12    0.02    0.09
   3   5 -12    0.02    0.11
   3   5 -12    0.03    0.07
  -3  -5  12    0.01    0.11
  -3  -5  12    0.00    0.10
  -3  -5  12    0.05    0.07
   2   5 -12    0.03    0.07
   2   5 -12   -0.03    0.09
   2   5 -12    0.04    0.02
  -2  -5  12    0.06    0.06
  -2  -5  12   -0.03    0.09
  -2  -5  12   -0.10    0.08
   1   5 -12    0.17    0.08
  -1  -5  12    0.14    0.06
  -1  -5  12    0.19    0.10
  -1  -5  12    0.24    0.09
   0   5 -12    2.32    0.20
   0   5 -12    2.60    0.19
   0  -5  12    2.40    0.22
   0  -5  12    2.31    0.20
  -1   5 -12   12.22    0.49
  -1   5 -12   12.31    0.47
   1  -5  12   12.10    0.48
   1  -5  12   12.18    0.53
  -2   5 -12    3.47    0.25
  -2   5 -12    3.35    0.22
  -2   5 -12    3.43    0.19
   2  -5  12    3.82    0.28
  -3   5 -12    1.25    0.16
  -3   5 -12    1.52    0.18
   3  -5  12    1.31    0.19
  -4   5 -12    0.18    0.11
   4  -5  12   -0.11    0.18
   4   4 -12   36.74    1.15
   4   4 -12   36.11    1.15
  -4  -4  12   38.68    1.22
  -4  -4  12   38.27    1.07
  -4  -4  12   37.97    1.19
   3   4 -12   20.18    0.68
  -3  -4  12   20.41    0.76
  -3  -4  12   21.45    0.62
  -3  -4  12   19.89    0.70
   2   4 -12    2.30    0.17
   2   4 -12    2.08    0.16
  -2  -4  12    1.96    0.13
  -2  -4  12    1.86    0.19
  -2  -4  12    1.52    0.19
   1   4 -12    6.73    0.29
   1   4 -12    6.39    0.26
  -1  -4  12    6.35    0.33
  -1  -4  12    6.08    0.24
  -1  -4  12    6.40    0.30
   0   4 -12    3.72    0.18
   0   4 -12    3.70    0.21
   0   4 -12    4.08    0.24
   0  -4  12    3.79    0.23
   0  -4  12    3.99    0.24
  -1   4 -12    3.27    0.24
  -1   4 -12    3.24    0.20
   1  -4  12    3.41    0.22
   1  -4  12    3.58    0.25
  -2   4 -12    6.40    0.26
  -2   4 -12    6.83    0.34
  -2   4 -12    6.26    0.30
   2  -4  12    6.33    0.36
  -3   4 -12    2.77    0.23
  -3   4 -12    2.18    0.20
  -3   4 -12    2.37    0.18
   3  -4  12    2.29    0.32
   3  -4  12    2.43    0.24
  -4   4 -12    0.06    0.10
  -4   4 -12   -0.15    0.08
   4  -4  12    0.12    0.15
   4   3 -12    4.93    0.24
  -4  -3  12    5.14    0.28
  -4  -3  12    4.93    0.31
  -4  -3  12    4.88    0.23
   3   3 -12    0.14    0.09
   3   3 -12    0.32    0.09
   3   3 -12    0.18    0.07
  -3  -3  12    0.18    0.09
  -3  -3  12    0.23    0.11
  -3  -3  12    0.09    0.06
   2   3 -12    8.83    0.32
   2   3 -12    8.42    0.34
  -2  -3  12    8.77    0.36
  -2  -3  12    8.99    0.42
  -2  -3  12    8.41    0.30
   1   3 -12    1.43    0.11
   1   3 -12    1.43    0.14
   1   3 -12    1.27    0.07
  -1  -3  12    1.27    0.16
  -1  -3  12    1.18    0.15
   0   3 -12    1.04    0.14
   0   3 -12    0.96    0.09
   0   3 -12    1.14    0.08
   0   3 -12    0.96    0.13
   0  -3  12    1.08    0.14
   0  -3  12    0.74    0.11
  -1   3 -12    7.97    0.33
  -1   3 -12    7.78    0.35
   1  -3  12    7.50    0.34
   1  -3  12    8.28    0.39
  -2   3 -12   16.14    0.52
  -2   3 -12   15.60    0.59
  -2   3 -12   14.28    0.55
   2  -3  12   16.66    0.65
  -3   3 -12    0.18    0.12
  -3   3 -12    0.15    0.07
  -3   3 -12    0.20    0.07
  -3   3 -12    0.25    0.09
   3  -3  12   -0.14    0.14
   3  -3  12    0.07    0.09
  -4   3 -12   20.35    0.67
  -4   3 -12   17.28    0.71
  -4   3 -12   20.21    0.69
   4  -3  12   21.13    0.79
  -5  -2  12    0.76    0.11
  -5  -2  12    0.71    0.15
   4   2 -12    0.12    0.07
   4   2 -12    0.10    0.09
   4   2 -12    0.10    0.12
  -4  -2  12    0.17    0.14
  -4  -2  12    0.04    0.07
  -4  -2  12    0.24    0.10
   3   2 -12   85.59    2.28
   3   2 -12   84.34    2.47
  -3  -2  12   82.82    2.48
  -3  -2  12   82.64    2.55
  -3  -2  12   85.34    2.25
   2   2 -12   56.19    1.65
   2   2 -12   55.09    1.50
  -2  -2  12   54.73    1.66
  -2  -2  12   53.15    1.71
   1   2 -12    0.93    0.10
   1   2 -12    0.95    0.11
   1   2 -12    1.02    0.05
  -1  -2  12    0.69    0.13
  -1  -2  12    0.93    0.12
   0   2 -12   16.14    0.47
   0   2 -12   15.29    0.54
   0   2 -12   15.11    0.57
   0   2 -12   16.07    0.48
   0  -2  12   14.67    0.59
   0  -2  12   15.78    0.55
  -1   2 -12    1.74    0.11
  -1   2 -12    1.46    0.12
  -1   2 -12    1.55    0.14
  -1   2 -12    1.68    0.17
   1  -2  12    1.74    0.16
   1  -2  12    1.18    0.16
  -2   2 -12    0.02    0.04
  -2   2 -12   -0.01    0.08
  -2   2 -12    0.03    0.06
   2  -2  12    0.02    0.08
  -3   2 -12    0.14    0.06
  -3   2 -12    0.18    0.06
  -3   2 -12    0.13    0.09
  -3   2 -12    0.25    0.07
   3  -2  12    0.11    0.11
   3  -2  12    0.31    0.11
  -4   2 -12    9.29    0.38
  -4   2 -12    8.63    0.43
  -4   2 -12    9.90    0.40
   4  -2  12    9.42    0.49
  -5  -1  12    0.27    0.13
  -5  -1  12   -0.02    0.08
   4   1 -12    4.31    0.26
   4   1 -12    4.05    0.25
   4   1 -12    3.98    0.21
  -4  -1  12    4.12    0.25
  -4  -1  12    3.85    0.28
  -4  -1  12    4.23    0.18
   3   1 -12   10.47    0.37
   3   1 -12   11.10    0.40
  -3  -1  12    9.95    0.46
  -3  -1  12   10.97    0.41
   2   1 -12   -0.02    0.05
   2   1 -12   -0.04    0.08
   2   1 -12   -0.04    0.05
  -2  -1  12   -0.02    0.07
  -2  -1  12    0.03    0.08
   1   1 -12   59.24    1.81
   1   1 -12   59.92    1.63
   1   1 -12   60.69    1.62
  -1  -1  12   57.98    1.88
  -1  -1  12   65.10    1.82
   0   1 -12    1.61    0.10
   0   1 -12    1.39    0.13
   0   1 -12    1.27    0.16
   0   1 -12    1.44    0.08
   0  -1  12    1.41    0.17
   0  -1  12    1.37    0.15
  -1   1 -12    8.21    0.29
  -1   1 -12    8.10    0.29
  -1   1 -12    8.11    0.33
  -1   1 -12    8.22    0.37
   1  -1  12    7.94    0.39
   1  -1  12    8.18    0.34
  -2   1 -12    2.06    0.16
  -2   1 -12    2.09    0.21
  -2   1 -12    2.05    0.13
   2  -1  12    2.00    0.22
  -3   1 -12    1.49    0.21
  -3   1 -12    1.30    0.13
  -3   1 -12    1.40    0.15
   3  -1  12    1.29    0.15
   3  -1  12    1.15    0.17
  -4   1 -12    0.05    0.09
  -4   1 -12    0.02    0.13
  -4   1 -12    0.02    0.07
   4  -1  12   -0.08    0.15
   5   0 -12    1.37    0.14
  -5   0  12    1.52    0.19
   4   0 -12    5.52    0.25
   4   0 -12    4.86    0.27
  -4   0  12    5.47    0.28
  -4   0  12    5.17    0.32
   3   0 -12    0.15    0.07
   3   0 -12    0.18    0.06
  -3   0  12    0.12    0.10
  -3   0  12    0.16    0.09
   2   0 -12   60.87    1.85
   2   0 -12   60.57    1.67
  -2   0  12   62.74    1.93
  -2   0  12   63.97    1.86
   1   0 -12   89.90    2.62
   1   0 -12   88.67    2.68
   1   0 -12   88.54    2.37
  -1   0  12   91.50    2.70
  -1   0  12   87.15    2.62
   0   0 -12    3.27    0.15
   0   0 -12    3.45    0.14
   0   0 -12    3.20    0.23
   0   0 -12    3.16    0.19
   0   0  12    3.27    0.20
  -1   0 -12    1.90    0.11
  -1   0 -12    1.90    0.13
  -1   0 -12    1.85    0.15
  -1   0 -12    1.70    0.19
   1   0  12    1.92    0.16
   1   0  12    1.91    0.20
  -2   0 -12   35.53    1.00
  -2   0 -12   34.02    1.12
  -2   0 -12   32.58    1.08
   2   0  12   34.77    1.16
  -3   0 -12    4.74    0.31
  -3   0 -12    4.08    0.24
  -3   0 -12    4.62    0.22
   3   0  12    4.49    0.27
   3   0  12    4.33    0.33
  -4   0 -12    0.02    0.08
  -4   0 -12   -0.16    0.14
  -4   0 -12    0.02    0.07
   4   0  12   -0.02    0.16
   5  -1 -12    7.55    0.36
  -5   1  12    7.86    0.39
   4  -1 -12    2.05    0.22
   4  -1 -12    2.09    0.16
  -4   1  12    2.07    0.21
  -4   1  12    2.32    0.24
   3  -1 -12    1.47    0.20
   3  -1 -12    1.75    0.15
   3  -1 -12    1.75    0.12
  -3   1  12    1.50    0.18
  -3   1  12    1.87    0.17
   2  -1 -12   11.08    0.34
   2  -1 -12   10.50    0.41
  -2   1  12   11.30    0.49
  -2   1  12   11.01    0.42
   1  -1 -12   11.17    0.42
   1  -1 -12   10.84    0.35
   1  -1 -12   11.50    0.48
  -1   1  12   11.01    0.42
  -1   1  12   11.19    0.49
   0  -1 -12   28.34    0.98
   0  -1 -12   28.85    0.92
   0  -1 -12   28.13    0.81
   0  -1 -12   28.34    0.81
   0   1  12   29.78    1.01
   0   1  12   29.25    0.93
  -1  -1 -12    0.65    0.09
  -1  -1 -12    0.69    0.07
  -1  -1 -12    0.58    0.11
   1   1  12    0.45    0.12
   1   1  12    0.68    0.11
  -2  -1 -12    1.45    0.20
  -2  -1 -12    2.10    0.13
  -2  -1 -12    1.96    0.16
   2   1  12    2.08    0.24
  -3  -1 -12   14.19    0.61
  -3  -1 -12   16.62    0.54
  -3  -1 -12   16.98    0.58
   3   1  12   15.98    0.67
   3   1  12   16.19    0.59
  -4  -1 -12    1.67    0.19
  -4  -1 -12    1.59    0.16
  -4  -1 -12    1.48    0.21
   4   1  12    1.73    0.23
   5  -2 -12    0.76    0.17
  -5   2  12    0.83    0.16
   4  -2 -12    0.56    0.14
  -4   2  12    0.60    0.15
  -4   2  12    0.56    0.12
   3  -2 -12    0.44    0.12
   3  -2 -12    0.34    0.06
  -3   2  12    0.05    0.11
  -3   2  12    0.38    0.10
   2  -2 -12    2.66    0.12
   2  -2 -12    2.43    0.17
  -2   2  12    2.54    0.19
  -2   2  12    2.38    0.23
   1  -2 -12   50.87    1.36
   1  -2 -12   51.68    1.54
   1  -2 -12   49.60    1.59
  -1   2  12   49.49    1.62
  -1   2  12   50.72    1.54
   0  -2 -12    8.46    0.28
   0  -2 -12    8.08    0.40
   0  -2 -12    8.68    0.35
   0   2  12    8.58    0.42
   0   2  12    8.14    0.35
  -1  -2 -12    4.10    0.23
  -1  -2 -12    4.75    0.30
  -1  -2 -12    4.17    0.18
   1   2  12    4.17    0.24
   1   2  12    4.90    0.31
  -2  -2 -12    4.18    0.34
  -2  -2 -12    3.43    0.18
  -2  -2 -12    4.05    0.23
   2   2  12    4.03    0.31
  -3  -2 -12   13.07    0.45
  -3  -2 -12   12.20    0.55
  -3  -2 -12   13.71    0.50
   3   2  12   12.29    0.50
   3   2  12   13.89    0.60
  -4  -2 -12    2.05    0.21
  -4  -2 -12    2.72    0.19
  -4  -2 -12    2.52    0.32
   4   2  12    3.16    0.36
   4  -3 -12    1.13    0.18
  -4   3  12    1.32    0.16
  -4   3  12    1.55    0.19
   3  -3 -12    0.60    0.15
   3  -3 -12    0.69    0.08
  -3   3  12    0.63    0.07
  -3   3  12    0.48    0.12
  -3   3  12    0.65    0.13
   2  -3 -12    3.72    0.22
   2  -3 -12    3.22    0.14
  -2   3  12    3.76    0.24
  -2   3  12    3.76    0.28
  -2   3  12    3.50    0.15
   1  -3 -12    0.05    0.04
   1  -3 -12    0.04    0.10
   1  -3 -12    0.06    0.06
  -1   3  12    0.15    0.10
  -1   3  12    0.04    0.08
  -1   3  12    0.01    0.04
   0  -3 -12    0.49    0.09
   0  -3 -12    0.82    0.16
   0   3  12    0.51    0.07
   0   3  12    0.55    0.11
   0   3  12    0.80    0.15
  -1  -3 -12    1.18    0.17
  -1  -3 -12    1.03    0.14
  -1  -3 -12    1.17    0.09
   1   3  12    1.15    0.16
   1   3  12    1.16    0.18
  -2  -3 -12    2.73    0.28
  -2  -3 -12    2.59    0.15
  -2  -3 -12    2.29    0.19
   2   3  12    2.41    0.28
  -3  -3 -12    0.02    0.08
  -3  -3 -12   -0.08    0.05
  -3  -3 -12    0.07    0.17
   3   3  12    0.14    0.15
  -4  -3 -12    4.18    0.24
   4   3  12    5.07    0.42
  -4   4  12    4.73    0.33
  -4   4  12    4.64    0.18
  -4   4  12    4.80    0.35
   3  -4 -12    0.60    0.16
  -3   4  12    0.45    0.13
  -3   4  12    0.57    0.07
  -3   4  12    0.56    0.13
   2  -4 -12    1.37    0.09
  -2   4  12    1.46    0.19
  -2   4  12    1.21    0.15
  -2   4  12    1.17    0.10
   1  -4 -12    7.02    0.40
   1  -4 -12    6.92    0.24
  -1   4  12    5.93    0.37
  -1   4  12    7.09    0.26
  -1   4  12    6.92    0.33
   0  -4 -12    2.90    0.28
   0  -4 -12    2.49    0.19
   0   4  12    2.97    0.27
   0   4  12    2.60    0.22
   0   4  12    2.54    0.16
  -1  -4 -12   12.59    0.57
  -1  -4 -12   13.44    0.50
   1   4  12   12.50    0.45
   1   4  12   12.61    0.57
   1   4  12   12.55    0.50
  -2  -4 -12   11.22    0.54
  -2  -4 -12   11.29    0.40
  -2  -4 -12   11.73    0.46
   2   4  12   10.72    0.47
   2   4  12   11.93    0.55
  -3  -4 -12    1.23    0.23
  -3  -4 -12    0.74    0.09
   3   4  12    1.09    0.20
  -4   5  12    6.49    0.39
  -4   5  12    6.07    0.40
  -4   5  12    6.05    0.25
  -3   5  12    0.94    0.17
  -3   5  12    1.22    0.12
  -3   5  12    1.16    0.18
   2  -5 -12    1.42    0.22
   2  -5 -12    1.51    0.09
  -2   5  12    1.57    0.13
  -2   5  12    1.61    0.22
  -2   5  12    1.70    0.24
   1  -5 -12    6.73    0.41
  -1   5  12    7.06    0.35
  -1   5  12    6.72    0.27
  -1   5  12    7.47    0.41
   0  -5 -12    0.09    0.16
   0   5  12   -0.03    0.10
   0   5  12    0.10    0.07
   0   5  12    0.09    0.14
  -1  -5 -12    7.34    0.46
   1   5  12    6.76    0.31
   1   5  12    6.99    0.36
   1   5  12    7.27    0.43
  -2  -5 -12    5.74    0.50
   2   5  12    5.87    0.42
  -3  -5 -12    0.02    0.06
  -3  -5 -12    0.23    0.21
   3   5  12    0.00    0.18
  -3   6  12    5.34    0.24
  -3   6  12    5.56    0.37
  -3   6  12    6.27    0.40
   2  -6 -12    1.25    0.09
   2  -6 -12    1.17    0.12
  -2   6  12    1.23    0.12
  -2   6  12    1.32    0.18
  -2   6  12    1.08    0.19
   1  -6 -12    0.08    0.17
  -1   6  12   -0.05    0.13
  -1   6  12    0.02    0.08
  -1   6  12   -0.18    0.11
   0  -6 -12    2.31    0.28
   0   6  12    2.38    0.19
   0   6  12    1.92    0.24
   0   6  12    1.55    0.21
  -1  -6 -12    1.37    0.24
   1   6  12    1.43    0.23
   1   6  12    1.45    0.19
  -2  -6 -12    0.86    0.30
   2   6  12    0.80    0.21
  -3   7  12   15.07    0.67
  -3   7  12   14.97    0.51
  -3   7  12   15.94    0.69
   2  -7 -12    0.26    0.06
   2  -7 -12    0.12    0.05
  -2   7  12    0.00    0.15
  -2   7  12    0.09    0.17
  -2   7  12   -0.01    0.09
   1  -7 -12    2.35    0.19
  -1   7  12    2.84    0.33
  -1   7  12    2.38    0.21
  -1   7  12    2.29    0.30
   0  -7 -12    5.47    0.56
   0  -7 -12    7.03    0.34
   0   7  12    7.22    0.34
   0   7  12    7.54    0.47
  -1  -7 -12    0.21    0.23
   1   7  12   -0.05    0.18
  -2  -7 -12    4.64    0.59
   2   7  12    5.17    0.46
   2  -8 -12    0.39    0.07
  -2   8  12    0.31    0.18
  -2   8  12    0.33    0.12
   1  -8 -12    0.35    0.11
  -1   8  12    0.42    0.18
   0  -8 -12    1.41    0.18
   0   8  12    1.25    0.25
  -1  -8 -12    1.08    0.18
   1   8  12    0.99    0.21
   2   9 -13   -0.21    0.14
  -2  -9  13    0.06    0.23
  -2  -9  13    0.00    0.17
  -2  -9  13   -0.01    0.11
   1   9 -13    3.40    0.30
  -1  -9  13    3.45    0.23
  -1  -9  13    3.90    0.35
  -1  -9  13    3.79    0.45
   0   9 -13    0.28    0.12
   0  -9  13    0.57    0.17
   0  -9  13    0.48    0.11
  -1   9 -13    0.15    0.12
   1  -9  13    0.56    0.20
  -2   9 -13    2.53    0.30
   2  -9  13    2.98    0.40
   2   8 -13    4.52    0.31
  -2  -8  13    4.26    0.41
  -2  -8  13    5.08    0.36
  -2  -8  13    4.75    0.26
   1   8 -13    0.37    0.13
  -1  -8  13    0.67    0.16
  -1  -8  13    0.08    0.17
  -1  -8  13    0.41    0.10
   0   8 -13    2.25    0.23
   0  -8  13    1.95    0.28
   0  -8  13    1.54    0.22
   0  -8  13    2.12    0.17
  -1   8 -13    0.76    0.15
   1  -8  13    0.59    0.17
  -2   8 -13    5.08    0.34
   2  -8  13    5.97    0.40
   3   7 -13    0.30    0.12
  -3  -7  13    0.39    0.19
  -3  -7  13    0.32    0.11
   2   7 -13    0.43    0.12
  -2  -7  13    0.56    0.15
  -2  -7  13    0.72    0.10
  -2  -7  13    0.83    0.18
   1   7 -13    1.94    0.22
   1   7 -13    2.06    0.22
  -1  -7  13    2.26    0.29
  -1  -7  13    2.42    0.24
  -1  -7  13    2.24    0.17
   0   7 -13    2.48    0.23
   0   7 -13    2.34    0.22
   0  -7  13    2.70    0.27
   0  -7  13    2.62    0.18
   0  -7  13    2.42    0.29
  -1   7 -13    0.33    0.10
  -1   7 -13    0.36    0.11
   1  -7  13    0.48    0.12
   1  -7  13    0.21    0.14
  -2   7 -13    0.04    0.10
   2  -7  13    0.35    0.16
  -3   7 -13    0.33    0.13
   3  -7  13    0.46    0.21
   3   6 -13    1.06    0.15
  -3  -6  13    1.17    0.18
  -3  -6  13    1.15    0.20
  -3  -6  13    1.12    0.13
   2   6 -13   12.24    0.49
   2   6 -13   12.45    0.49
  -2  -6  13   11.94    0.52
  -2  -6  13   12.36    0.43
  -2  -6  13   12.73    0.56
   1   6 -13   36.53    1.09
   1   6 -13   37.46    1.19
  -1  -6  13   36.69    1.21
  -1  -6  13   36.69    1.06
  -1  -6  13   37.93    1.25
   0   6 -13    1.90    0.17
   0   6 -13    2.44    0.20
   0  -6  13    2.29    0.25
   0  -6  13    2.53    0.26
  -1   6 -13    0.84    0.11
  -1   6 -13    0.78    0.13
   1  -6  13    0.72    0.16
   1  -6  13    0.92    0.16
  -2   6 -13    3.59    0.25
  -2   6 -13    3.03    0.20
   2  -6  13    3.37    0.31
  -3   6 -13   25.21    0.87
   3  -6  13   24.88    0.96
  -4  -5  13    0.04    0.10
  -4  -5  13    0.21    0.18
   3   5 -13    4.00    0.24
   3   5 -13    3.67    0.29
  -3  -5  13    3.66    0.29
  -3  -5  13    3.69    0.21
  -3  -5  13    3.33    0.28
   2   5 -13    0.30    0.09
   2   5 -13    0.38    0.10
  -2  -5  13    0.25    0.08
  -2  -5  13    0.35    0.11
  -2  -5  13    0.43    0.12
   1   5 -13    1.27    0.16
   1   5 -13    0.86    0.11
  -1  -5  13    0.71    0.13
  -1  -5  13    0.88    0.11
  -1  -5  13    0.74    0.15
   0   5 -13   11.21    0.46
   0   5 -13   11.59    0.44
   0   5 -13   10.74    0.39
   0  -5  13    9.86    0.47
   0  -5  13   10.87    0.46
  -1   5 -13    0.15    0.10
  -1   5 -13    0.03    0.07
   1  -5  13    0.03    0.11
   1  -5  13    0.07    0.10
  -2   5 -13    2.87    0.27
  -2   5 -13    3.05    0.22
  -2   5 -13    2.58    0.18
   2  -5  13    2.84    0.28
   2  -5  13    2.85    0.25
  -3   5 -13   16.37    0.62
   3  -5  13   16.40    0.70
   4   4 -13    8.31    0.45
   4   4 -13    7.91    0.34
  -4  -4  13    8.79    0.45
  -4  -4  13    8.28    0.33
  -4  -4  13    7.79    0.40
   3   4 -13    0.13    0.13
   3   4 -13    0.30    0.09
  -3  -4  13    0.20    0.11
  -3  -4  13    0.17    0.11
  -3  -4  13    0.13    0.07
   2   4 -13   14.54    0.54
   2   4 -13   15.46    0.57
  -2  -4  13   14.41    0.59
  -2  -4  13   14.84    0.55
  -2  -4  13   14.97    0.48
   1   4 -13   52.29    1.38
   1   4 -13   51.22    1.56
  -1  -4  13   51.78    1.57
  -1  -4  13   47.81    1.62
   0   4 -13   23.68    0.81
   0   4 -13   24.44    0.79
   0  -4  13   21.95    0.84
   0  -4  13   22.90    0.79
  -1   4 -13    0.44    0.12
  -1   4 -13    0.36    0.09
   1  -4  13    0.33    0.11
   1  -4  13    0.23    0.12
  -2   4 -13    0.76    0.09
  -2   4 -13    0.58    0.11
  -2   4 -13    0.93    0.15
   2  -4  13    0.47    0.11
   2  -4  13    0.60    0.15
  -3   4 -13    0.96    0.12
  -3   4 -13    0.88    0.13
  -3   4 -13    1.30    0.18
   3  -4  13    0.87    0.18
  -4   4 -13   26.19    0.86
  -4   4 -13   27.16    0.91
   4  -4  13   26.12    0.98
   4   3 -13    2.91    0.20
   4   3 -13    3.00    0.29
  -4  -3  13    2.46    0.18
  -4  -3  13    2.83    0.25
  -4  -3  13    2.42    0.27
   3   3 -13    0.81    0.13
   3   3 -13    0.39    0.09
  -3  -3  13    0.50    0.12
  -3  -3  13    0.41    0.08
   2   3 -13   11.31    0.46
   2   3 -13   11.15    0.39
   2   3 -13   10.46    0.42
  -2  -3  13   10.63    0.37
  -2  -3  13   10.68    0.48
  -2  -3  13   11.15    0.44
   1   3 -13    2.59    0.10
   1   3 -13    2.83    0.16
   1   3 -13    2.37    0.18
  -1  -3  13    2.76    0.20
  -1  -3  13    2.59    0.26
   0   3 -13    0.18    0.07
   0   3 -13    0.28    0.10
   0   3 -13    0.26    0.04
   0  -3  13    0.21    0.08
   0  -3  13    0.24    0.08
  -1   3 -13   16.66    0.53
  -1   3 -13   16.60    0.62
  -1   3 -13   16.19    0.59
   1  -3  13   17.11    0.69
   1  -3  13   17.38    0.61
  -2   3 -13   -0.02    0.09
  -2   3 -13   -0.03    0.06
  -2   3 -13   -0.08    0.04
  -2   3 -13   -0.01    0.07
   2  -3  13    0.03    0.12
  -3   3 -13    0.44    0.08
  -3   3 -13    0.62    0.11
  -3   3 -13    0.62    0.14
  -3   3 -13    0.61    0.12
   3  -3  13    0.68    0.14
  -4   3 -13    3.81    0.26
  -4   3 -13    4.41    0.34
  -4   3 -13    3.85    0.24
   4  -3  13    4.36    0.39
   4   2 -13    0.17    0.14
   4   2 -13    0.40    0.11
   4   2 -13    0.32    0.09
  -4  -2  13    0.30    0.12
  -4  -2  13    0.29    0.08
  -4  -2  13    0.13    0.14
   3   2 -13    2.62    0.22
   3   2 -13    2.10    0.19
   3   2 -13    2.27    0.17
  -3  -2  13    2.36    0.22
  -3  -2  13    2.03    0.15
  -3  -2  13    2.29    0.21
   2   2 -13    6.70    0.30
   2   2 -13    6.89    0.27
  -2  -2  13    6.69    0.35
  -2  -2  13    6.97    0.32
   1   2 -13    9.47    0.32
   1   2 -13    9.21    0.27
   1   2 -13    9.11    0.37
  -1  -2  13    8.68    0.37
  -1  -2  13    9.30    0.43
   0   2 -13   15.67    0.60
   0   2 -13   16.52    0.58
   0   2 -13   16.11    0.50
   0   2 -13   15.95    0.49
   0  -2  13   16.17    0.65
   0  -2  13   16.56    0.58
  -1   2 -13   43.01    1.38
  -1   2 -13   44.61    1.25
  -1   2 -13   44.73    1.41
   1  -2  13   44.91    1.38
   1  -2  13   44.99    1.46
  -2   2 -13    2.41    0.15
  -2   2 -13    2.03    0.21
  -2   2 -13    2.02    0.18
   2  -2  13    2.24    0.20
  -3   2 -13    1.29    0.16
  -3   2 -13    0.97    0.12
  -3   2 -13    0.79    0.13
  -3   2 -13    0.87    0.12
   3  -2  13    0.84    0.16
   3  -2  13    1.13    0.19
  -4   2 -13    3.73    0.34
  -4   2 -13    3.82    0.24
  -4   2 -13    4.14    0.26
   4  -2  13    3.93    0.39
   4   1 -13    1.31    0.16
   4   1 -13    1.22    0.16
   4   1 -13    1.52    0.18
  -4  -1  13    1.28    0.16
  -4  -1  13    1.42    0.19
   3   1 -13    3.91    0.26
   3   1 -13    3.58    0.21
   3   1 -13    3.82    0.21
  -3  -1  13    4.13    0.32
  -3  -1  13    4.14    0.25
   2   1 -13    0.40    0.09
   2   1 -13    0.36    0.07
  -2  -1  13    0.52    0.10
  -2  -1  13    0.33    0.11
   1   1 -13    2.77    0.14
   1   1 -13    2.56    0.17
   1   1 -13    2.64    0.10
  -1  -1  13    2.44    0.20
  -1  -1  13    2.42    0.21
   0   1 -13    2.37    0.11
   0   1 -13    2.33    0.13
   0   1 -13    2.18    0.17
   0   1 -13    2.20    0.21
   0  -1  13    1.92    0.18
   0  -1  13    2.36    0.25
  -1   1 -13    1.35    0.10
  -1   1 -13    1.54    0.19
  -1   1 -13    1.50    0.15
   1  -1  13    1.30    0.18
   1  -1  13    1.58    0.17
  -2   1 -13   26.10    0.79
  -2   1 -13   25.39    0.86
  -2   1 -13   25.64    0.90
   2  -1  13   26.69    0.95
  -3   1 -13    3.52    0.23
  -3   1 -13    3.71    0.20
  -3   1 -13    3.64    0.30
  -3   1 -13    4.02    0.23
   3  -1  13    4.05    0.34
   3  -1  13    3.12    0.28
  -4   1 -13    0.39    0.11
  -4   1 -13    0.19    0.16
  -4   1 -13    0.40    0.09
   4  -1  13    0.35    0.20
   4   0 -13    1.12    0.16
   4   0 -13    1.12    0.13
   4   0 -13    0.81    0.14
  -4   0  13    0.86    0.14
  -4   0  13    0.86    0.16
   3   0 -13    0.80    0.11
   3   0 -13    0.84    0.14
   3   0 -13    0.72    0.09
  -3   0  13    0.71    0.14
  -3   0  13    0.66    0.13
   2   0 -13    0.62    0.08
   2   0 -13    0.55    0.10
  -2   0  13    0.57    0.11
  -2   0  13    0.41    0.16
   1   0 -13   12.31    0.38
   1   0 -13   11.94    0.45
  -1   0  13   12.11    0.46
  -1   0  13   11.91    0.52
   0   0 -13    1.84    0.10
   0   0 -13    1.72    0.15
   0   0 -13    1.78    0.20
   0   0 -13    1.91    0.12
   0   0  13    1.89    0.18
   0   0  13    1.83    0.21
  -1   0 -13    2.74    0.18
  -1   0 -13    2.82    0.23
  -1   0 -13    2.82    0.14
   1   0  13    2.30    0.19
   1   0  13    2.74    0.24
  -2   0 -13   13.55    0.49
  -2   0 -13   11.55    0.43
  -2   0 -13   13.18    0.55
   2   0  13   13.14    0.60
  -3   0 -13   -0.05    0.06
  -3   0 -13   -0.04    0.07
  -3   0 -13   -0.02    0.13
   3   0  13    0.18    0.13
   3   0  13   -0.11    0.15
  -4   0 -13    9.13    0.38
  -4   0 -13    9.15    0.47
  -4   0 -13    8.99    0.40
   4   0  13    9.09    0.54
   4  -1 -13    7.27    0.28
   4  -1 -13    7.14    0.38
  -4   1  13    6.80    0.36
  -4   1  13    7.31    0.40
   3  -1 -13    9.67    0.43
   3  -1 -13    9.47    0.38
   3  -1 -13    8.92    0.32
  -3   1  13    9.00    0.46
  -3   1  13    9.53    0.40
   2  -1 -13    3.10    0.19
   2  -1 -13    3.15    0.15
  -2   1  13    3.17    0.22
  -2   1  13    3.20    0.26
   1  -1 -13    8.76    0.29
   1  -1 -13    8.86    0.36
   1  -1 -13    8.43    0.41
  -1   1  13    8.50    0.37
  -1   1  13    9.08    0.44
   0  -1 -13    2.81    0.19
   0  -1 -13    2.92    0.24
   0  -1 -13    3.09    0.13
   0  -1 -13    3.04    0.15
   0   1  13    2.90    0.26
   0   1  13    2.83    0.21
  -1  -1 -13    0.78    0.12
  -1  -1 -13    0.73    0.14
  -1  -1 -13    0.79    0.08
   1   1  13    0.69    0.14
   1   1  13    0.74    0.11
  -2  -1 -13    0.98    0.10
  -2  -1 -13    0.92    0.12
  -2  -1 -13    0.59    0.16
   2   1  13    0.87    0.17
  -3  -1 -13    0.31    0.07
  -3  -1 -13    0.32    0.09
  -3  -1 -13    0.20    0.16
   3   1  13    0.29    0.17
  -4  -1 -13    0.27    0.12
  -4  -1 -13    0.29    0.08
   4   1  13    0.45    0.20
  -4   2  13    0.08    0.13
  -4   2  13    0.23    0.13
   3  -2 -13    4.66    0.19
   3  -2 -13    4.34    0.30
  -3   2  13    4.69    0.32
  -3   2  13    4.48    0.28
   2  -2 -13    0.56    0.07
   2  -2 -13    0.56    0.10
  -2   2  13    0.55    0.12
  -2   2  13    0.59    0.15
   1  -2 -13    9.61    0.44
   1  -2 -13   10.04    0.32
   1  -2 -13    9.99    0.40
  -1   2  13   10.08    0.48
  -1   2  13   10.53    0.41
   0  -2 -13    7.46    0.39
   0  -2 -13    7.40    0.33
   0  -2 -13    8.05    0.28
   0   2  13    7.36    0.34
   0   2  13    7.86    0.41
  -1  -2 -13   12.62    0.54
  -1  -2 -13   12.87    0.42
  -1  -2 -13   13.31    0.49
   1   2  13   12.38    0.49
   1   2  13   12.55    0.57
  -2  -2 -13   -0.04    0.07
  -2  -2 -13   -0.01    0.11
  -2  -2 -13    0.02    0.05
   2   2  13   -0.18    0.13
   2   2  13    0.10    0.10
  -3  -2 -13   15.64    0.52
  -3  -2 -13   13.61    0.64
  -3  -2 -13   15.05    0.57
   3   2  13   16.19    0.69
  -4   3  13    6.73    0.37
  -4   3  13    6.92    0.41
   3  -3 -13    0.07    0.16
   3  -3 -13    0.14    0.05
  -3   3  13    0.05    0.10
  -3   3  13    0.25    0.13
   2  -3 -13    4.35    0.18
   2  -3 -13    4.71    0.26
  -2   3  13    4.55    0.18
  -2   3  13    4.74    0.33
  -2   3  13    4.88    0.29
   1  -3 -13    0.64    0.10
   1  -3 -13    0.50    0.11
   1  -3 -13    0.87    0.09
  -1   3  13    0.69    0.12
  -1   3  13    0.90    0.16
  -1   3  13    0.90    0.11
   0  -3 -13    4.20    0.24
   0  -3 -13    4.17    0.29
   0   3  13    4.01    0.26
   0   3  13    4.45    0.33
  -1  -3 -13    3.34    0.33
  -1  -3 -13    2.87    0.21
  -1  -3 -13    2.97    0.15
   1   3  13    2.92    0.23
   1   3  13    3.41    0.31
  -2  -3 -13    0.22    0.09
  -2  -3 -13    0.31    0.06
  -2  -3 -13    0.09    0.13
   2   3  13    0.11    0.15
   2   3  13    0.11    0.11
  -3  -3 -13    2.46    0.17
  -3  -3 -13    2.74    0.23
  -3  -3 -13    2.68    0.30
   3   3  13    3.28    0.38
  -4   4  13    0.51    0.17
  -4   4  13    0.67    0.18
  -3   4  13    0.49    0.07
  -3   4  13    0.39    0.13
  -3   4  13    0.34    0.14
   2  -4 -13    4.60    0.36
   2  -4 -13    4.11    0.17
  -2   4  13    4.33    0.19
  -2   4  13    4.21    0.29
  -2   4  13    4.23    0.33
   1  -4 -13    1.63    0.24
   1  -4 -13    1.40    0.11
  -1   4  13    1.65    0.23
  -1   4  13    1.38    0.13
  -1   4  13    1.52    0.21
   0  -4 -13    0.09    0.15
   0  -4 -13    0.07    0.08
   0   4  13    0.00    0.07
   0   4  13    0.20    0.13
   0   4  13   -0.10    0.11
  -1  -4 -13    0.45    0.10
  -1  -4 -13    0.47    0.18
   1   4  13    0.49    0.14
   1   4  13    0.35    0.15
  -2  -4 -13    0.39    0.19
  -2  -4 -13    0.40    0.07
  -2  -4 -13    0.35    0.10
   2   4  13    0.52    0.18
  -3  -4 -13    0.31    0.08
  -3  -4 -13    0.59    0.18
   3   4  13    0.29    0.21
  -3   5  13    1.24    0.20
  -3   5  13    1.07    0.11
  -3   5  13    0.82    0.17
   2  -5 -13    1.98    0.12
  -2   5  13    2.02    0.27
  -2   5  13    1.84    0.15
  -2   5  13    1.87    0.27
   1  -5 -13    8.92    0.52
   1  -5 -13    8.35    0.30
  -1   5  13    8.70    0.48
  -1   5  13    8.41    0.42
  -1   5  13    8.63    0.33
   0  -5 -13    4.94    0.42
   0   5  13    4.32    0.31
   0   5  13    5.00    0.25
   0   5  13    4.78    0.37
  -1  -5 -13    3.31    0.34
   1   5  13    3.41    0.24
   1   5  13    3.26    0.36
  -2  -5 -13    0.80    0.21
   2   5  13    0.90    0.21
  -3  -5 -13    2.26    0.32
   3   5  13    2.01    0.29
  -3   6  13    1.32    0.13
  -3   6  13    0.94    0.23
  -3   6  13    0.75    0.20
   2  -6 -13    5.37    0.20
   2  -6 -13    5.61    0.23
  -2   6  13    5.00    0.39
  -2   6  13    5.42    0.26
  -2   6  13    6.19    0.40
  -1   6  13    2.33    0.20
  -1   6  13    2.84    0.32
  -1   6  13    2.65    0.30
   0  -6 -13    1.16    0.23
   0   6  13    1.64    0.20
   0   6  13    0.86    0.18
  -1  -6 -13    0.74    0.27
   1   6  13    0.51    0.20
  -2  -6 -13    2.14    0.45
   2   6  13    2.25    0.31
   2  -7 -13    4.33    0.20
  -2   7  13    4.17    0.27
  -2   7  13    4.11    0.40
  -2   7  13    3.96    0.41
   1  -7 -13    1.95    0.20
  -1   7  13    1.34    0.15
  -1   7  13    1.26    0.22
   0   7  13   12.67    0.65
   1   7  13    7.85    0.55
   1  -8 -13    9.06    0.38
  -1   8  13    9.92    0.59
   0  -8 -13    0.16    0.14
   0   8  13   -0.02    0.22
   1   9 -14    1.35    0.21
  -1  -9  14    1.80    0.20
  -1  -9  14    2.79    0.35
   0   9 -14    0.02    0.12
   0  -9  14    0.04    0.10
   0  -9  14    0.23    0.19
  -1   9 -14    3.68    0.32
   1  -9  14    4.91    0.44
   2   8 -14    5.75    0.37
  -2  -8  14    6.29    0.49
  -2  -8  14    6.64    0.43
  -2  -8  14    6.59    0.31
   1   8 -14    0.29    0.13
  -1  -8  14    0.11    0.08
  -1  -8  14    0.43    0.15
  -1  -8  14    0.23    0.21
   0   8 -14   -0.15    0.12
   0  -8  14    0.23    0.15
  -1   8 -14    0.93    0.18
   1  -8  14    1.46    0.22
  -2   8 -14   21.65    0.83
   2  -8  14   23.57    0.92
   3   7 -14    5.79    0.35
  -3  -7  14    6.76    0.42
  -3  -7  14    5.93    0.31
   2   7 -14    0.38    0.05
   2   7 -14    0.36    0.13
  -2  -7  14    0.49    0.11
  -2  -7  14    0.14    0.17
  -2  -7  14    0.48    0.20
   1   7 -14    2.78    0.26
  -1  -7  14    3.03    0.34
  -1  -7  14    3.21    0.20
  -1  -7  14    3.67    0.30
   0   7 -14    2.11    0.23
   0  -7  14    2.02    0.28
   0  -7  14    2.55    0.32
  -1   7 -14    0.29    0.12
   1  -7  14    0.41    0.16
  -2   7 -14    4.30    0.30
   2  -7  14    3.74    0.42
   3   6 -14    7.28    0.36
  -3  -6  14    7.26    0.45
  -3  -6  14    7.57    0.32
  -3  -6  14    6.81    0.40
   2   6 -14    3.35    0.12
   2   6 -14    3.73    0.25
  -2  -6  14    2.90    0.31
  -2  -6  14    3.39    0.29
  -2  -6  14    3.46    0.21
   1   6 -14    7.44    0.36
   1   6 -14    7.04    0.33
  -1  -6  14    7.32    0.30
  -1  -6  14    7.49    0.40
  -1  -6  14    6.95    0.39
   0   6 -14    1.54    0.21
   0   6 -14    1.51    0.18
   0  -6  14    1.70    0.27
   0  -6  14    1.93    0.27
  -1   6 -14   -0.06    0.09
   1  -6  14   -0.09    0.12
   1  -6  14   -0.01    0.13
  -2   6 -14    0.51    0.13
   2  -6  14    0.66    0.16
  -3   6 -14   11.70    0.50
   3  -6  14   11.04    0.59
   3   5 -14   -0.25    0.15
   3   5 -14   -0.01    0.10
  -3  -5  14   -0.07    0.20
  -3  -5  14    0.02    0.15
  -3  -5  14   -0.06    0.08
   2   5 -14    1.20    0.15
   2   5 -14    1.29    0.18
  -2  -5  14    1.09    0.16
  -2  -5  14    1.22    0.12
  -2  -5  14    0.87    0.14
   1   5 -14    0.44    0.10
   1   5 -14    0.42    0.13
   1   5 -14    0.54    0.11
   1   5 -14    0.47    0.05
  -1  -5  14    0.27    0.12
  -1  -5  14    0.63    0.14
   0   5 -14    0.77    0.14
   0   5 -14    0.92    0.13
   0   5 -14    0.79    0.10
   0  -5  14    0.54    0.12
   0  -5  14    0.80    0.16
  -1   5 -14    1.96    0.24
  -1   5 -14    1.58    0.19
  -1   5 -14    1.33    0.16
   1  -5  14    1.73    0.21
   1  -5  14    1.46    0.19
  -2   5 -14    3.18    0.24
  -2   5 -14    2.74    0.29
   2  -5  14    2.48    0.28
  -3   5 -14    0.15    0.10
   3  -5  14    0.19    0.29
   4   4 -14    2.27    0.27
  -4  -4  14    2.36    0.21
  -4  -4  14    2.54    0.31
   3   4 -14    1.67    0.19
   3   4 -14    1.73    0.19
  -3  -4  14    1.48    0.15
  -3  -4  14    1.18    0.17
  -3  -4  14    1.45    0.24
   2   4 -14    4.85    0.27
   2   4 -14    5.10    0.27
   2   4 -14    5.02    0.30
  -2  -4  14    4.93    0.30
  -2  -4  14    5.52    0.38
  -2  -4  14    4.77    0.23
   1   4 -14    0.00    0.08
   1   4 -14    0.04    0.08
   1   4 -14   -0.02    0.10
   1   4 -14    0.01    0.03
  -1  -4  14   -0.02    0.10
  -1  -4  14    0.10    0.11
   0   4 -14   13.29    0.51
   0   4 -14   13.26    0.45
   0   4 -14   12.84    0.42
   0   4 -14   13.29    0.55
   0  -4  14   13.05    0.52
   0  -4  14   13.08    0.57
  -1   4 -14    8.99    0.36
  -1   4 -14   10.55    0.46
  -1   4 -14   10.22    0.42
  -1   4 -14   10.47    0.36
   1  -4  14    9.98    0.49
   1  -4  14    9.72    0.44
  -2   4 -14    0.73    0.10
  -2   4 -14    0.83    0.14
  -2   4 -14    0.72    0.12
  -2   4 -14    0.79    0.10
   2  -4  14    0.76    0.21
   2  -4  14    0.58    0.12
  -3   4 -14    0.07    0.10
  -3   4 -14   -0.02    0.07
  -3   4 -14    0.30    0.17
   3  -4  14   -0.21    0.23
   4   3 -14    7.31    0.34
   4   3 -14    7.46    0.43
  -4  -3  14    7.50    0.42
  -4  -3  14    7.84    0.31
   3   3 -14    9.70    0.40
   3   3 -14   10.15    0.43
   3   3 -14    9.88    0.40
  -3  -3  14    8.95    0.35
  -3  -3  14   10.05    0.48
  -3  -3  14    9.70    0.43
   2   3 -14    0.01    0.06
   2   3 -14    0.10    0.10
  -2  -3  14    0.22    0.12
  -2  -3  14    0.00    0.12
   1   3 -14    1.04    0.07
   1   3 -14    1.20    0.15
  -1  -3  14    1.02    0.16
  -1  -3  14    1.23    0.16
   0   3 -14    8.72    0.37
   0   3 -14    8.27    0.28
   0   3 -14    8.32    0.39
   0  -3  14    7.68    0.42
   0  -3  14    8.78    0.39
  -1   3 -14    1.74    0.18
  -1   3 -14    1.51    0.11
  -1   3 -14    1.74    0.14
  -1   3 -14    1.47    0.20
   1  -3  14    1.56    0.18
   1  -3  14    1.67    0.21
  -2   3 -14    2.50    0.21
  -2   3 -14    2.73    0.17
  -2   3 -14    2.49    0.18
  -2   3 -14    3.11    0.26
   2  -3  14    2.61    0.25
   2  -3  14    2.78    0.33
  -3   3 -14   17.27    0.59
  -3   3 -14   16.72    0.68
  -3   3 -14   17.15    0.64
   3  -3  14   17.39    0.73
   4   2 -14    2.20    0.20
  -4  -2  14    2.06    0.28
  -4  -2  14    2.41    0.26
   3   2 -14    0.65    0.12
   3   2 -14    0.74    0.12
   3   2 -14    0.74    0.14
  -3  -2  14    0.58    0.11
  -3  -2  14    0.44    0.13
   2   2 -14    0.78    0.11
   2   2 -14    0.77    0.11
   2   2 -14    0.59    0.12
  -2  -2  14    0.53    0.17
  -2  -2  14    0.61    0.12
   1   2 -14    2.21    0.18
   1   2 -14    2.29    0.16
   1   2 -14    2.04    0.09
  -1  -2  14    1.96    0.21
  -1  -2  14    2.39    0.21
   0   2 -14    0.61    0.12
   0   2 -14    0.63    0.07
   0   2 -14    0.70    0.11
   0  -2  14    0.59    0.12
   0  -2  14    0.49    0.12
  -1   2 -14    0.05    0.07
  -1   2 -14    0.01    0.07
  -1   2 -14    0.04    0.10
  -1   2 -14   -0.01    0.04
   1  -2  14    0.04    0.09
   1  -2  14    0.21    0.12
  -2   2 -14    0.18    0.06
  -2   2 -14    0.21    0.11
  -2   2 -14    0.32    0.09
  -2   2 -14    0.21    0.07
   2  -2  14    0.14    0.11
   2  -2  14    0.14    0.19
  -3   2 -14    7.76    0.41
  -3   2 -14    8.42    0.37
  -3   2 -14    7.59    0.33
   3  -2  14    7.79    0.48
   4   1 -14    1.33    0.17
   4   1 -14    1.14    0.14
  -4  -1  14    1.34    0.18
  -4  -1  14    1.20    0.18
   3   1 -14    4.84    0.30
   3   1 -14    4.81    0.26
   3   1 -14    5.18    0.25
  -3  -1  14    4.98    0.30
  -3  -1  14    5.22    0.40
   2   1 -14   31.77    1.03
   2   1 -14   30.44    0.88
   2   1 -14   30.64    0.98
  -2  -1  14   30.32    0.99
  -2  -1  14   29.25    1.06
   1   1 -14   16.22    0.67
   1   1 -14   17.64    0.53
   1   1 -14   17.20    0.49
   1   1 -14   17.73    0.61
  -1  -1  14   17.65    0.63
  -1  -1  14   17.86    0.70
   0   1 -14    0.19    0.07
   0   1 -14    0.33    0.04
   0   1 -14    0.32    0.11
   0  -1  14    0.16    0.11
   0  -1  14    0.13    0.10
  -1   1 -14    8.90    0.31
  -1   1 -14    8.49    0.32
  -1   1 -14    8.75    0.38
  -1   1 -14    9.15    0.44
   1  -1  14    9.17    0.46
   1  -1  14    8.69    0.39
  -2   1 -14    0.19    0.07
  -2   1 -14    0.28    0.06
  -2   1 -14    0.22    0.12
  -2   1 -14    0.28    0.09
   2  -1  14    0.28    0.12
   2  -1  14    0.00    0.11
  -3   1 -14    0.42    0.10
  -3   1 -14    0.31    0.17
  -3   1 -14    0.47    0.08
   3  -1  14    0.20    0.21
   4   0 -14    2.07    0.21
   4   0 -14    1.44    0.16
  -4   0  14    1.87    0.26
  -4   0  14    1.51    0.20
   3   0 -14    0.07    0.08
   3   0 -14    0.06    0.13
   3   0 -14    0.09    0.08
  -3   0  14   -0.01    0.11
  -3   0  14    0.06    0.12
   2   0 -14    1.23    0.16
   2   0 -14    1.32    0.16
   2   0 -14    1.09    0.13
  -2   0  14    1.19    0.20
  -2   0  14    1.20    0.15
   1   0 -14    9.53    0.32
   1   0 -14    9.02    0.43
   1   0 -14    9.30    0.38
  -1   0  14    8.76    0.39
  -1   0  14    9.01    0.45
   0   0 -14    0.22    0.12
   0   0 -14    0.08    0.04
   0   0 -14    0.13    0.07
   0   0  14    0.20    0.12
   0   0  14    0.21    0.10
  -1   0 -14    1.71    0.11
  -1   0 -14    1.36    0.14
  -1   0 -14    1.76    0.17
  -1   0 -14    1.78    0.22
   1   0  14    2.08    0.25
   1   0  14    1.63    0.20
  -2   0 -14    4.00    0.22
  -2   0 -14    3.53    0.30
  -2   0 -14    4.14    0.20
  -2   0 -14    4.22    0.25
   2   0  14    3.72    0.40
   2   0  14    4.37    0.29
  -3   0 -14    3.22    0.24
  -3   0 -14    3.33    0.33
  -3   0 -14    3.08    0.19
   3   0  14    3.30    0.37
  -4   1  14    0.55    0.17
  -4   1  14    0.54    0.16
   3  -1 -14    6.68    0.39
   3  -1 -14    6.61    0.26
   3  -1 -14    6.83    0.32
  -3   1  14    6.85    0.40
  -3   1  14    6.20    0.35
   2  -1 -14    2.14    0.18
   2  -1 -14    1.90    0.24
   2  -1 -14    2.36    0.14
  -2   1  14    2.27    0.22
  -2   1  14    1.84    0.25
   1  -1 -14    3.89    0.23
   1  -1 -14    3.39    0.27
   1  -1 -14    3.99    0.18
  -1   1  14    3.82    0.25
  -1   1  14    3.75    0.30
   0  -1 -14    9.52    0.32
   0  -1 -14    9.95    0.34
   0  -1 -14    9.49    0.40
   0  -1 -14    9.68    0.46
   0   1  14    9.88    0.42
   0   1  14    9.91    0.49
  -1  -1 -14    0.03    0.04
  -1  -1 -14    0.10    0.06
  -1  -1 -14   -0.16    0.11
  -1  -1 -14    0.11    0.07
   1   1  14    0.01    0.09
   1   1  14   -0.04    0.14
  -2  -1 -14    4.84    0.27
  -2  -1 -14    4.91    0.22
  -2  -1 -14    4.46    0.35
   2   1  14    4.55    0.30
   2   1  14    4.52    0.38
  -3  -1 -14    0.50    0.09
  -3  -1 -14    0.37    0.17
  -3  -1 -14    0.45    0.11
   3   1  14    0.31    0.20
  -4   2  14    1.92    0.23
  -4   2  14    2.06    0.23
   3  -2 -14    3.95    0.19
  -3   2  14    4.03    0.33
  -3   2  14    4.00    0.29
   2  -2 -14    0.08    0.08
   2  -2 -14    0.09    0.06
   2  -2 -14   -0.05    0.12
  -2   2  14    0.39    0.13
  -2   2  14    0.15    0.13
   1  -2 -14    3.40    0.17
   1  -2 -14    4.03    0.36
   1  -2 -14    3.31    0.22
  -1   2  14    3.38    0.25
  -1   2  14    3.06    0.29
   0  -2 -14    2.36    0.15
   0  -2 -14    1.58    0.17
   0  -2 -14    2.48    0.29
   0   2  14    1.86    0.22
   0   2  14    2.29    0.29
  -1  -2 -14    7.14    0.33
  -1  -2 -14    7.54    0.45
  -1  -2 -14    6.65    0.26
   1   2  14    7.32    0.43
   1   2  14    6.06    0.34
  -2  -2 -14    6.44    0.27
  -2  -2 -14    6.46    0.42
  -2  -2 -14    6.94    0.33
   2   2  14    6.24    0.45
  -3  -2 -14    1.13    0.16
  -3  -2 -14    1.34    0.24
  -3  -2 -14    0.97    0.11
   3   2  14    1.40    0.25
  -4   3  14    0.12    0.16
   3  -3 -14    1.53    0.12
  -3   3  14    1.16    0.17
  -3   3  14    1.28    0.18
   2  -3 -14   17.44    0.74
   2  -3 -14   19.04    0.68
   2  -3 -14   18.82    0.55
  -2   3  14   20.19    0.78
  -2   3  14   18.23    0.68
   1  -3 -14    3.10    0.31
   1  -3 -14    2.81    0.15
   1  -3 -14    2.85    0.22
  -1   3  14    2.97    0.30
  -1   3  14    2.17    0.24
   0  -3 -14    2.13    0.30
   0  -3 -14    1.83    0.19
   0   3  14    1.68    0.21
   0   3  14    2.16    0.30
  -1  -3 -14    2.33    0.27
  -1  -3 -14    2.36    0.21
  -1  -3 -14    2.11    0.13
   1   3  14    1.93    0.24
   1   3  14    2.43    0.32
  -2  -3 -14    2.96    0.23
  -2  -3 -14    3.44    0.29
  -2  -3 -14    2.46    0.16
   2   3  14    2.61    0.30
  -3  -3 -14    8.45    0.34
  -3  -3 -14    7.06    0.52
  -3  -3 -14    8.11    0.40
   3   3  14    8.92    0.56
   3  -4 -14    7.64    0.25
  -3   4  14    7.87    0.43
  -3   4  14    7.72    0.27
  -3   4  14    7.98    0.47
   2  -4 -14    5.55    0.21
  -2   4  14    5.07    0.23
  -2   4  14    6.18    0.40
  -2   4  14    6.26    0.36
   1  -4 -14    3.40    0.36
   1  -4 -14    3.36    0.17
  -1   4  14    3.23    0.29
  -1   4  14    3.45    0.33
  -1   4  14    3.08    0.19
   0  -4 -14   16.34    0.61
   0  -4 -14   15.09    0.69
   0   4  14   17.26    0.71
   0   4  14   16.01    0.63
   0   4  14   14.93    0.53
  -1  -4 -14   13.59    0.54
  -1  -4 -14   13.05    0.62
   1   4  14   13.21    0.64
  -2  -4 -14    0.12    0.06
  -2  -4 -14    0.16    0.10
  -2  -4 -14    0.14    0.20
   2   4  14    0.21    0.20
  -3   5  14    0.73    0.20
  -3   5  14    0.87    0.10
  -3   5  14    0.54    0.20
   2  -5 -14    0.18    0.06
  -2   5  14    0.37    0.09
  -2   5  14    0.27    0.18
  -2   5  14    0.28    0.15
   1  -5 -14   11.19    0.37
  -1   5  14   11.47    0.41
  -1   5  14   10.73    0.51
  -1   5  14   10.46    0.56
   0  -5 -14    8.64    0.64
   0   5  14   10.02    0.55
   0   5  14   10.24    0.51
   0   5  14    9.44    0.39
  -1  -5 -14    1.34    0.27
   1   5  14    1.39    0.25
  -2  -5 -14    0.57    0.28
   2   5  14    0.42    0.23
   2  -6 -14    3.09    0.19
  -2   6  14    1.98    0.26
  -2   6  14    2.98    0.23
  -2   6  14    2.62    0.34
   1  -6 -14    0.42    0.10
  -1   6  14    0.40    0.11
  -1   6  14    0.38    0.19
   0   6  14    3.17    0.26
   0   6  14    2.84    0.37
   1   6  14    7.81    0.53
   1  -7 -14    2.34    0.24
  -1   7  14    3.07    0.27
  -1   7  14    1.78    0.27
   0   7  14    9.31    0.59
   1   8 -15    3.00    0.31
  -1  -8  15    2.88    0.34
  -1  -8  15    3.28    0.24
   0   8 -15    1.59    0.20
   0  -8  15    2.14    0.25
  -1   8 -15    0.75    0.15
   1  -8  15    0.85    0.23
   2   7 -15    3.20    0.30
  -2  -7  15    3.61    0.35
  -2  -7  15    3.59    0.44
  -2  -7  15    3.91    0.24
   1   7 -15    3.84    0.29
  -1  -7  15    3.13    0.22
  -1  -7  15    2.42    0.21
  -1  -7  15    3.08    0.39
   0   7 -15    2.19    0.27
   0  -7  15    2.47    0.35
  -1   7 -15    3.84    0.31
   1  -7  15    3.73    0.40
  -2   7 -15    0.52    0.15
   2  -7  15   -0.02    0.19
   3   6 -15    0.96    0.16
  -3  -6  15    1.24    0.15
  -3  -6  15    1.16    0.20
   2   6 -15    0.80    0.15
  -2  -6  15    1.01    0.13
  -2  -6  15    0.79    0.19
  -2  -6  15    0.93    0.18
   1   6 -15    3.16    0.26
  -1  -6  15    2.89    0.29
  -1  -6  15    3.07    0.34
   0   6 -15    6.46    0.35
   0  -6  15    6.07    0.41
   0  -6  15    6.49    0.41
  -1   6 -15   10.02    0.45
   1  -6  15    9.65    0.52
  -2   6 -15   11.54    0.50
   2  -6  15   11.63    0.58
   3   5 -15    0.12    0.11
  -3  -5  15   -0.21    0.17
  -3  -5  15   -0.07    0.09
  -3  -5  15    0.13    0.19
   2   5 -15    1.09    0.16
   2   5 -15    1.11    0.15
  -2  -5  15    1.22    0.14
  -2  -5  15    1.07    0.16
  -2  -5  15    1.25    0.19
   1   5 -15    1.43    0.09
   1   5 -15    1.43    0.19
   1   5 -15    1.67    0.21
  -1  -5  15    1.56    0.20
  -1  -5  15    0.98    0.16
   0   5 -15    1.09    0.16
   0   5 -15    1.14    0.14
   0   5 -15    1.33    0.11
   0   5 -15    1.24    0.19
   0  -5  15    1.08    0.19
   0  -5  15    1.08    0.15
  -1   5 -15    0.03    0.10
  -1   5 -15    0.33    0.16
   1  -5  15    0.06    0.14
   1  -5  15    0.10    0.14
  -2   5 -15    5.17    0.37
  -2   5 -15    4.89    0.25
  -2   5 -15    4.97    0.31
   2  -5  15    4.93    0.40
  -3   5 -15    5.11    0.28
  -3   5 -15    5.13    0.42
  -3   5 -15    5.12    0.33
   3  -5  15    4.84    0.51
   3   4 -15   15.07    0.60
   3   4 -15   16.57    0.60
  -3  -4  15   16.44    0.53
  -3  -4  15   15.81    0.64
  -3  -4  15   15.84    0.68
   2   4 -15   -0.04    0.08
   2   4 -15   -0.17    0.11
  -2  -4  15   -0.19    0.13
  -2  -4  15    0.10    0.14
   1   4 -15    0.06    0.03
   1   4 -15    0.17    0.13
   1   4 -15   -0.01    0.08
   1   4 -15    0.10    0.10
  -1  -4  15    0.01    0.20
  -1  -4  15    0.09    0.13
   0   4 -15    2.38    0.28
   0   4 -15    2.26    0.13
   0   4 -15    2.24    0.21
   0   4 -15    2.34    0.19
   0  -4  15    2.41    0.26
   0  -4  15    2.32    0.33
  -1   4 -15    1.90    0.14
  -1   4 -15    1.74    0.19
  -1   4 -15    1.49    0.17
  -1   4 -15    1.90    0.27
   1  -4  15    1.88    0.21
   1  -4  15    1.58    0.23
  -2   4 -15    8.02    0.44
  -2   4 -15    8.38    0.34
  -2   4 -15    8.44    0.39
   2  -4  15    8.12    0.51
  -3   4 -15    1.04    0.13
  -3   4 -15    0.92    0.20
  -3   4 -15    0.77    0.14
   3  -4  15    1.08    0.22
   3   3 -15    8.84    0.41
   3   3 -15    8.97    0.39
  -3  -3  15    9.10    0.47
  -3  -3  15    8.85    0.44
   2   3 -15    1.08    0.14
   2   3 -15    1.35    0.15
   2   3 -15    1.28    0.17
  -2  -3  15    1.21    0.16
  -2  -3  15    1.05    0.17
   1   3 -15    0.03    0.03
   1   3 -15    0.01    0.10
   1   3 -15    0.11    0.08
   1   3 -15    0.00    0.08
  -1  -3  15   -0.10    0.17
  -1  -3  15    0.10    0.11
   0   3 -15    5.59    0.30
   0   3 -15    5.58    0.25
   0   3 -15    5.71    0.34
   0   3 -15    5.76    0.22
   0  -3  15    5.69    0.33
   0  -3  15    5.95    0.39
  -1   3 -15    1.92    0.13
  -1   3 -15    2.02    0.20
  -1   3 -15    2.04    0.16
  -1   3 -15    1.85    0.24
   1  -3  15    1.64    0.25
   1  -3  15    1.99    0.25
  -2   3 -15    5.00    0.30
  -2   3 -15    5.44    0.37
  -2   3 -15    5.46    0.25
   2  -3  15    4.75    0.37
  -3   3 -15    2.67    0.29
  -3   3 -15    2.70    0.24
  -3   3 -15    2.96    0.20
   3  -3  15    2.19    0.27
   4   2 -15    1.06    0.22
  -4  -2  15    1.11    0.20
   3   2 -15    0.95    0.14
  -3  -2  15    0.69    0.16
  -3  -2  15    0.44    0.14
   2   2 -15    8.87    0.41
   2   2 -15    9.61    0.40
  -2  -2  15    9.31    0.43
  -2  -2  15    9.03    0.46
   1   2 -15    0.10    0.07
   1   2 -15    0.28    0.14
   1   2 -15    0.25    0.03
   1   2 -15    0.25    0.08
  -1  -2  15    0.27    0.12
  -1  -2  15    0.28    0.12
   0   2 -15    0.57    0.09
   0   2 -15    0.84    0.15
   0   2 -15    0.35    0.08
   0   2 -15    0.54    0.07
   0  -2  15    0.68    0.17
   0  -2  15    0.52    0.13
  -1   2 -15    9.20    0.48
  -1   2 -15   10.04    0.35
  -1   2 -15   10.23    0.42
  -1   2 -15    9.84    0.36
   1  -2  15   10.14    0.45
   1  -2  15    9.68    0.51
  -2   2 -15    3.41    0.24
  -2   2 -15    3.34    0.19
  -2   2 -15    2.82    0.31
   2  -2  15    3.23    0.33
  -3   2 -15    4.44    0.38
  -3   2 -15    4.83    0.26
  -3   2 -15    4.80    0.29
   3  -2  15    4.70    0.45
  -4  -1  15    4.53    0.38
   3   1 -15    0.31    0.12
   3   1 -15    0.30    0.11
  -3  -1  15    0.28    0.15
  -3  -1  15    0.54    0.15
   2   1 -15    3.87    0.30
   2   1 -15    4.08    0.22
   2   1 -15    4.21    0.25
  -2  -1  15    4.50    0.32
  -2  -1  15    4.59    0.30
   1   1 -15    0.56    0.15
   1   1 -15    0.29    0.08
  -1  -1  15    0.18    0.16
  -1  -1  15    0.55    0.12
   0   1 -15    1.91    0.15
   0   1 -15    2.29    0.12
   0   1 -15    2.58    0.28
   0   1 -15    2.28    0.19
   0  -1  15    1.96    0.25
   0  -1  15    2.45    0.24
  -1   1 -15   12.02    0.48
  -1   1 -15   12.24    0.42
  -1   1 -15   12.07    0.54
  -1   1 -15   12.14    0.40
   1  -1  15   11.92    0.50
   1  -1  15   10.52    0.57
  -2   1 -15    4.86    0.28
  -2   1 -15    4.46    0.35
  -2   1 -15    4.62    0.22
   2  -1  15    4.63    0.38
  -3   1 -15    1.36    0.16
  -3   1 -15    1.29    0.20
  -3   1 -15    1.53    0.18
   3  -1  15    1.62    0.34
   4   0 -15    8.20    0.40
  -4   0  15    7.51    0.47
   3   0 -15    1.74    0.19
   3   0 -15    1.90    0.20
  -3   0  15    1.79    0.21
  -3   0  15    2.09    0.28
   2   0 -15    3.51    0.31
   2   0 -15    3.08    0.19
   2   0 -15    3.43    0.23
  -2   0  15    3.19    0.30
  -2   0  15    3.19    0.28
   1   0 -15    0.57    0.15
   1   0 -15    0.79    0.12
  -1   0  15    1.17    0.17
  -1   0  15    0.78    0.23
   0   0 -15    3.31    0.29
   0   0 -15    3.04    0.14
   0   0 -15    2.86    0.21
   0   0  15    3.03    0.26
   0   0  15    3.08    0.31
  -1   0 -15    2.81    0.15
  -1   0 -15    2.76    0.31
  -1   0 -15    2.60    0.21
  -1   0 -15    2.80    0.18
   1   0  15    2.93    0.26
   1   0  15    2.05    0.28
  -2   0 -15    1.22    0.15
  -2   0 -15    1.38    0.22
  -2   0 -15    1.06    0.12
   2   0  15    0.92    0.19
  -3   0 -15    3.45    0.26
  -3   0 -15    3.59    0.21
  -3   0 -15    3.64    0.38
   3   0  15    3.37    0.43
  -4   1  15    1.45    0.23
   3  -1 -15   13.48    0.52
   3  -1 -15   12.69    0.44
  -3   1  15   13.95    0.57
  -3   1  15   13.82    0.63
   2  -1 -15    1.79    0.19
   2  -1 -15    1.66    0.21
   2  -1 -15    1.85    0.15
  -2   1  15    2.23    0.27
  -2   1  15    1.66    0.19
   1  -1 -15   11.07    0.46
   1  -1 -15   11.76    0.38
   1  -1 -15   11.68    0.54
  -1   1  15   11.63    0.49
  -1   1  15   11.15    0.55
   0  -1 -15    4.87    0.23
   0  -1 -15    5.13    0.20
   0  -1 -15    4.95    0.28
   0  -1 -15    4.93    0.36
   0   1  15    5.61    0.32
   0   1  15    5.15    0.38
  -1  -1 -15   -0.06    0.07
  -1  -1 -15   -0.20    0.13
  -1  -1 -15   -0.06    0.04
  -1  -1 -15    0.01    0.07
   1   1  15   -0.15    0.15
   1   1  15   -0.07    0.12
  -2  -1 -15    8.31    0.39
  -2  -1 -15    8.07    0.46
  -2  -1 -15    8.85    0.33
   2   1  15    8.75    0.53
  -3  -1 -15    0.64    0.14
  -3  -1 -15    0.56    0.09
  -3  -1 -15    0.61    0.23
   3   1  15    0.30    0.24
   3  -2 -15    2.55    0.18
  -3   2  15    2.26    0.31
  -3   2  15    3.01    0.30
   2  -2 -15    0.07    0.09
   2  -2 -15    0.08    0.07
  -2   2  15   -0.05    0.14
  -2   2  15    0.00    0.12
   1  -2 -15   14.14    0.43
   1  -2 -15   11.80    0.51
   1  -2 -15   12.65    0.58
  -1   2  15   13.89    0.54
  -1   2  15   13.44    0.61
   0  -2 -15    5.40    0.37
   0  -2 -15    5.16    0.24
   0  -2 -15    5.12    0.29
   0   2  15    5.65    0.40
   0   2  15    5.15    0.32
  -1  -2 -15    0.10    0.08
  -1  -2 -15   -0.04    0.15
  -1  -2 -15    0.28    0.09
  -1  -2 -15    0.10    0.05
   1   2  15    0.03    0.14
   1   2  15    0.01    0.17
  -2  -2 -15    1.46    0.13
  -2  -2 -15    1.48    0.19
  -2  -2 -15    0.91    0.24
   2   2  15    1.32    0.26
  -3  -2 -15    4.74    0.32
  -3  -2 -15    4.69    0.44
  -3  -2 -15    4.33    0.25
   3   2  15    5.05    0.50
  -3   3  15   -0.06    0.16
  -3   3  15    0.01    0.16
   2  -3 -15    3.18    0.17
   2  -3 -15    3.01    0.25
  -2   3  15    2.82    0.30
  -2   3  15    3.13    0.33
   1  -3 -15    0.08    0.10
   1  -3 -15    0.19    0.07
  -1   3  15    0.13    0.15
  -1   3  15    0.08    0.13
   0  -3 -15    1.57    0.16
   0  -3 -15    1.42    0.19
   0  -3 -15    1.49    0.20
   0   3  15    1.30    0.19
   0   3  15    1.95    0.27
  -1  -3 -15    0.10    0.16
  -1  -3 -15    0.09    0.10
   1   3  15    0.29    0.19
  -2  -3 -15    0.26    0.07
  -2  -3 -15   -0.04    0.19
  -2  -3 -15    0.09    0.11
   2   3  15    0.13    0.20
  -3   4  15   -0.32    0.17
  -3   4  15    0.11    0.16
   2  -4 -15    2.47    0.16
  -2   4  15    2.33    0.31
  -2   4  15    3.15    0.34
   1  -4 -15    0.53    0.09
  -1   4  15    0.39    0.17
  -1   4  15    0.35    0.16
   0  -4 -15    6.19    0.28
   0  -4 -15    5.85    0.34
   0   4  15    6.85    0.45
  -1  -4 -15    0.40    0.25
  -1  -4 -15    0.29    0.13
   1   4  15    0.52    0.21
  -2  -4 -15    6.53    0.51
  -2  -4 -15    4.99    0.33
   2   4  15    5.25    0.49
  -2   5  15    0.08    0.20
  -2   5  15    0.15    0.10
  -2   5  15    0.32    0.20
   1  -5 -15   -0.07    0.08
  -1   5  15   -0.03    0.18
  -1   5  15    0.01    0.11
   0   5  15    0.41    0.13
   0   5  15    0.59    0.20
   1   5  15    2.77    0.34
  -1   6  15    3.07    0.27
  -1   6  15    2.09    0.29
   0   6  15    0.42    0.20
   1   7 -16    2.13    0.27
  -1  -7  16    1.60    0.23
   0   7 -16    3.47    0.31
   0  -7  16    2.90    0.37
  -1   7 -16    1.37    0.20
   1  -7  16    1.50    0.26
   2   6 -16    2.32    0.27
  -2  -6  16    1.78    0.21
  -2  -6  16    1.68    0.24
  -2  -6  16    1.95    0.28
   1   6 -16    2.19    0.25
   1   6 -16    2.50    0.13
  -1  -6  16    2.30    0.23
  -1  -6  16    2.84    0.38
   0   6 -16    1.51    0.19
   0  -6  16    1.61    0.25
   1  -6  16    1.85    0.23
  -2   6 -16    1.18    0.18
   2  -6  16    0.96    0.24
   2   5 -16    0.65    0.14
  -2  -5  16    0.29    0.15
  -2  -5  16    0.64    0.20
   1   5 -16    5.72    0.33
   1   5 -16    5.69    0.20
  -1  -5  16    4.73    0.38
  -1  -5  16    5.77    0.39
   0   5 -16    2.22    0.14
   0   5 -16    2.01    0.23
   0  -5  16    2.32    0.28
  -1   5 -16    4.50    0.22
  -1   5 -16    4.34    0.30
   1  -5  16    4.56    0.40
  -2   5 -16    1.15    0.16
  -2   5 -16    1.58    0.17
   2  -5  16    1.67    0.30
   3   4 -16    3.59    0.27
  -3  -4  16    2.49    0.34
  -3  -4  16    2.81    0.28
   2   4 -16    0.14    0.10
   2   4 -16    0.18    0.14
  -2  -4  16    0.21    0.17
  -2  -4  16    0.23    0.16
   1   4 -16   13.01    0.39
   1   4 -16   13.14    0.53
   1   4 -16   12.80    0.48
  -1  -4  16   12.82    0.62
  -1  -4  16   13.14    0.57
   0   4 -16   11.14    0.37
   0   4 -16   11.06    0.47
   0  -4  16   11.02    0.56
  -1   4 -16    0.05    0.11
  -1   4 -16    0.00    0.05
  -1   4 -16   -0.01    0.17
   1  -4  16   -0.17    0.19
  -2   4 -16    2.54    0.26
  -2   4 -16    2.43    0.18
  -2   4 -16    3.39    0.36
   2  -4  16    2.68    0.29
   3   3 -16   -0.04    0.11
   3   3 -16   -0.07    0.17
  -3  -3  16    0.14    0.16
  -3  -3  16    0.08    0.16
   2   3 -16    0.14    0.10
   2   3 -16    0.05    0.12
  -2  -3  16    0.28    0.16
  -2  -3  16    0.13    0.13
   1   3 -16    1.79    0.19
   1   3 -16    1.60    0.08
   1   3 -16    1.69    0.19
  -1  -3  16    1.51    0.21
  -1  -3  16    1.47    0.19
   0   3 -16    2.88    0.14
   0   3 -16    2.58    0.20
   0   3 -16    2.41    0.28
   0   3 -16    3.01    0.23
   0  -3  16    3.01    0.31
   0  -3  16    2.93    0.30
  -1   3 -16   -0.22    0.14
  -1   3 -16    0.00    0.05
  -1   3 -16    0.05    0.11
   1  -3  16   -0.06    0.13
  -2   3 -16    3.57    0.21
  -2   3 -16    3.31    0.27
  -2   3 -16    3.94    0.39
   2  -3  16    4.42    0.41
   3   2 -16    0.08    0.14
   3   2 -16    0.23    0.12
  -3  -2  16    0.42    0.17
  -3  -2  16    0.33    0.17
   2   2 -16    4.76    0.27
   2   2 -16    4.81    0.28
  -2  -2  16    5.04    0.35
  -2  -2  16    4.64    0.35
   1   2 -16    2.69    0.11
   1   2 -16    2.34    0.21
   1   2 -16    2.78    0.20
  -1  -2  16    2.71    0.28
  -1  -2  16    2.66    0.29
   0   2 -16    5.18    0.20
   0   2 -16    5.18    0.29
   0   2 -16    5.15    0.38
   0   2 -16    5.09    0.25
   0  -2  16    5.18    0.35
   0  -2  16    5.47    0.37
  -1   2 -16    0.46    0.10
  -1   2 -16    0.47    0.07
  -1   2 -16    0.62    0.18
   1  -2  16    0.63    0.16
  -2   2 -16    4.39    0.28
  -2   2 -16    3.86    0.36
  -2   2 -16    4.42    0.22
   2  -2  16    4.55    0.41
   3   1 -16    0.43    0.12
  -3  -1  16    0.73    0.19
  -3  -1  16    0.14    0.17
   2   1 -16    4.82    0.26
   2   1 -16    5.02    0.29
  -2  -1  16    5.33    0.37
  -2  -1  16    5.35    0.36
   1   1 -16    1.14    0.12
   1   1 -16    1.03    0.18
   1   1 -16    0.82    0.12
  -1  -1  16    0.70    0.17
  -1  -1  16    1.28    0.19
   0   1 -16    3.76    0.35
   0   1 -16    3.74    0.16
   0   1 -16    3.73    0.21
   0   1 -16    3.50    0.24
   0  -1  16    3.18    0.33
   0  -1  16    3.73    0.31
  -1   1 -16    1.39    0.21
  -1   1 -16    1.47    0.12
  -1   1 -16    1.60    0.19
  -1   1 -16    1.05    0.13
   1  -1  16    1.10    0.21
  -2   1 -16    0.20    0.18
  -2   1 -16    0.06    0.07
  -2   1 -16    0.16    0.09
   2  -1  16    0.36    0.20
   3   0 -16    4.31    0.28
   3   0 -16    4.44    0.29
  -3   0  16    4.91    0.37
  -3   0  16    5.14    0.38
   2   0 -16    0.03    0.09
  -2   0  16    0.01    0.15
  -2   0  16   -0.11    0.15
   1   0 -16    1.08    0.15
   1   0 -16    1.09    0.19
   1   0 -16    1.03    0.12
  -1   0  16    1.03    0.22
  -1   0  16    1.15    0.18
   0   0 -16    0.64    0.10
   0   0 -16    0.62    0.08
   0   0 -16    0.39    0.17
   0   0 -16    0.68    0.13
   0   0  16    0.22    0.16
   0   0  16    0.93    0.23
  -1   0 -16    1.87    0.20
  -1   0 -16    1.59    0.22
  -1   0 -16    2.16    0.19
  -1   0 -16    2.00    0.13
   1   0  16    1.46    0.25
  -2   0 -16    0.46    0.08
  -2   0 -16    0.42    0.12
  -2   0 -16    0.78    0.24
   2   0  16    0.21    0.20
   3  -1 -16    1.45    0.18
   3  -1 -16    1.95    0.21
  -3   1  16    1.54    0.23
  -3   1  16    1.78    0.24
   2  -1 -16    0.26    0.10
   2  -1 -16    0.17    0.10
  -2   1  16    0.41    0.15
  -2   1  16    0.11    0.17
   1  -1 -16    3.97    0.23
   1  -1 -16    4.29    0.27
  -1   1  16    4.49    0.34
  -1   1  16    4.66    0.38
   0  -1 -16    0.93    0.15
   0  -1 -16    1.09    0.12
   0  -1 -16    0.82    0.09
   0  -1 -16    1.22    0.21
   0   1  16    0.69    0.17
   0   1  16    0.85    0.20
  -1  -1 -16   11.43    0.39
  -1  -1 -16   10.94    0.47
  -1  -1 -16   11.68    0.44
  -1  -1 -16   10.37    0.56
   1   1  16   12.18    0.62
  -2  -1 -16   -0.18    0.22
  -2  -1 -16    0.22    0.11
  -2  -1 -16    0.15    0.07
   2   1  16    0.42    0.21
  -3   2  16    6.36    0.45
  -3   2  16    6.11    0.45
   2  -2 -16   12.94    0.42
   2  -2 -16   11.25    0.51
  -2   2  16   13.40    0.63
  -2   2  16   12.89    0.56
   1  -2 -16    0.06    0.10
  -1   2  16   -0.15    0.13
  -1   2  16   -0.02    0.16
   0  -2 -16    0.72    0.11
   0  -2 -16    0.83    0.15
   0   2  16    0.54    0.18
   0   2  16    0.82    0.20
  -1  -2 -16    8.01    0.39
  -1  -2 -16    6.40    0.47
  -1  -2 -16    8.16    0.30
   1   2  16    7.93    0.53
  -2  -2 -16   10.68    0.39
  -2  -2 -16   10.39    0.48
  -2  -2 -16   11.03    0.61
   2   2  16   10.32    0.64
  -3   3  16    1.40    0.24
  -3   3  16    1.48    0.25
   2  -3 -16    0.21    0.09
   2  -3 -16    0.38    0.13
  -2   3  16    0.38    0.19
  -2   3  16    0.24    0.17
   1  -3 -16    0.15    0.11
  -1   3  16    0.24    0.17
  -1   3  16    0.33    0.19
   0  -3 -16    6.31    0.30
   0  -3 -16    6.84    0.37
   0   3  16    6.93    0.49
  -1  -3 -16   -0.05    0.10
   1   3  16    0.25    0.21
  -2  -3 -16   11.45    0.51
  -2  -3 -16   10.70    0.41
  -2  -3 -16   11.87    0.71
   2   3  16   11.39    0.68
  -2   4  16    5.03    0.42
  -2   4  16    4.72    0.43
  -1   4  16   16.30    0.76
   0  -4 -16    2.32    0.22
   0  -4 -16    1.99    0.25
   0   4  16    1.68    0.24
  -1  -4 -16   -0.04    0.12
   1   4  16    0.66    0.25
   1  -5 -16    2.59    0.21
  -1   5  16    1.71    0.26
   0  -5 -16    1.33    0.16
   0   5  16    1.35    0.27
   1   6 -17    0.32    0.14
   1   6 -17    0.17    0.06
  -1  -6  17    0.13    0.21
   0   6 -17    0.02    0.14
   0   6 -17    0.20    0.07
   0  -6  17   -0.39    0.20
   2   5 -17    1.48    0.19
  -2  -5  17    1.50    0.26
  -2  -5  17    1.79    0.28
   1   5 -17    0.25    0.05
   1   5 -17    0.19    0.11
  -1  -5  17    0.12    0.19
  -1  -5  17    0.01    0.20
   0   5 -17    0.08    0.06
   0   5 -17    0.20    0.13
   0  -5  17   -0.25    0.17
  -1   5 -17    2.21    0.28
  -1   5 -17    2.37    0.17
   1  -5  17    2.35    0.29
   2   4 -17    0.37    0.14
  -2  -4  17    0.34    0.19
  -2  -4  17   -0.07    0.17
   1   4 -17    3.50    0.28
   1   4 -17    3.64    0.14
  -1  -4  17    3.81    0.39
   0   4 -17    0.11    0.05
   0  -4  17    0.82    0.28
  -1   4 -17    3.42    0.30
  -1   4 -17    3.49    0.20
   1  -4  17    4.57    0.44
  -2   4 -17    1.65    0.22
  -2   4 -17    1.38    0.17
   2  -4  17    1.23    0.23
   2   3 -17    0.32    0.12
  -2  -3  17    0.32    0.18
  -2  -3  17    0.40    0.17
   1   3 -17    6.22    0.35
   1   3 -17    6.27    0.21
  -1  -3  17    6.34    0.43
  -1  -3  17    6.42    0.43
   0   3 -17    0.91    0.16
   0   3 -17    0.84    0.10
   0  -3  17    0.87    0.20
  -1   3 -17    0.87    0.15
  -1   3 -17    0.95    0.12
   1  -3  17    0.72    0.19
  -2   3 -17    4.46    0.32
  -2   3 -17    4.37    0.24
   2  -3  17    4.18    0.45
   2   2 -17    0.37    0.12
   2   2 -17    0.65    0.15
  -2  -2  17    0.39    0.18
  -2  -2  17    0.54    0.21
   1   2 -17    0.81    0.13
   1   2 -17    0.91    0.14
  -1  -2  17    0.62    0.16
  -1  -2  17    1.06    0.20
   0   2 -17    8.85    0.30
   0   2 -17    8.51    0.42
   0  -2  17    9.19    0.52
  -1   2 -17    0.74    0.09
  -1   2 -17    0.78    0.16
   1  -2  17    0.64    0.19
  -2   2 -17    0.87    0.11
  -2   2 -17    0.88    0.15
   2  -2  17    0.68    0.24
   3   1 -17    1.65    0.19
   3   1 -17    2.35    0.29
  -3  -1  17    1.11    0.23
  -3  -1  17    1.91    0.28
   2   1 -17    1.74    0.22
   2   1 -17    1.78    0.22
  -2  -1  17    2.14    0.31
  -2  -1  17    2.36    0.26
   1   1 -17    5.45    0.28
   1   1 -17    5.21    0.31
  -1  -1  17    6.07    0.44
  -1  -1  17    5.34    0.40
   0   1 -17   26.45    0.79
   0   1 -17   25.31    0.88
   0   1 -17   23.86    0.73
   0  -1  17   25.16    0.99
  -1   1 -17    0.04    0.10
  -1   1 -17    0.16    0.06
   1  -1  17    0.15    0.17
  -2   1 -17    4.88    0.24
  -2   1 -17    4.54    0.32
   2  -1  17    4.87    0.62
   2   0 -17    1.64    0.22
   2   0 -17    1.38    0.16
  -2   0  17    1.59    0.25
  -2   0  17    1.40    0.24
   1   0 -17    0.64    0.12
   1   0 -17    0.89    0.15
  -1   0  17    0.75    0.19
  -1   0  17    0.88    0.22
   0   0 -17    0.18    0.10
   0   0 -17    0.12    0.05
   0   0 -17    0.22    0.10
   0   0  17    0.40    0.19
  -1   0 -17   10.86    0.38
  -1   0 -17   11.22    0.49
   1   0  17   11.04    0.61
  -2   0 -17    0.32    0.08
  -2   0 -17    0.30    0.11
   2   0  17    0.27    0.23
   2  -1 -17    7.08    0.32
   2  -1 -17    6.82    0.37
  -2   1  17    6.85    0.46
  -2   1  17    6.99    0.47
   1  -1 -17    6.32    0.29
   1  -1 -17    6.19    0.35
  -1   1  17    6.23    0.43
  -1   1  17    6.73    0.47
   0  -1 -17   -0.01    0.10
   0  -1 -17   -0.02    0.09
   0   1  17    0.03    0.20
  -1  -1 -17    5.76    0.35
  -1  -1 -17    6.00    0.25
   1   1  17    6.16    0.51
   2  -2 -17    5.93    0.36
  -2   2  17    5.99    0.46
  -2   2  17    6.55    0.48
   1  -2 -17    3.76    0.23
   1  -2 -17    3.64    0.30
  -1   2  17    3.60    0.42
   0  -2 -17    7.38    0.39
   0  -2 -17    6.77    0.32
   0   2  17    7.45    0.53
  -1  -2 -17    6.38    0.36
  -1  -2 -17    5.82    0.25
   1   2  17    5.76    0.53
  -2   3  17    0.05    0.23
  -2   3  17    0.11    0.20
   1  -3 -17    4.32    0.26
   1  -3 -17    4.74    0.32
  -1   3  17    3.89    0.44
   0  -3 -17    0.46    0.15
   0   3  17    0.86    0.24
  -1  -3 -17    2.53    0.29
   1   3  17    2.02    0.32
   1   4 -18   11.94    0.52
  -1  -4  18   10.30    0.56
   0   4 -18    0.16    0.13
   0  -4  18    0.21    0.21
   1   3 -18    0.41    0.05
   1   3 -18    0.42    0.13
  -1  -3  18    0.65    0.22
   0   3 -18    7.10    0.39
   0   3 -18    6.77    0.26
   0  -3  18    7.76    0.50
  -1   3 -18    4.77    0.23
  -1   3 -18    5.22    0.35
   1  -3  18    4.14    0.46
   2   2 -18    2.87    0.29
  -2  -2  18    3.46    0.43
  -2  -2  18    2.90    0.33
   1   2 -18    2.64    0.26
  -1  -2  18    2.12    0.31
   0   2 -18    7.89    0.28
   0   2 -18    7.84    0.41
   0  -2  18    7.66    0.55
  -1   2 -18    2.49    0.17
  -1   2 -18    2.60    0.27
   1  -2  18    2.39    0.35
   2   1 -18    0.41    0.14
   2   1 -18    0.20    0.15
  -2  -1  18    0.67    0.25
  -2  -1  18    0.36    0.22
  -1  -1  18    0.91    0.29
   0   1 -18    0.80    0.16
   0   1 -18    0.78    0.08
   0  -1  18    0.33    0.22
  -1   1 -18    4.67    0.33
  -1   1 -18    4.77    0.23
   1  -1  18    5.76    0.63
   2   0 -18    5.58    0.35
   2   0 -18    5.32    0.33
  -2   0  18    5.84    0.48
  -2   0  18    5.96    0.48
   1   0 -18    8.74    0.40
   1   0 -18    9.56    0.45
  -1   0  18    9.46    0.57
   0   0 -18    2.92    0.27
   0   0 -18    2.73    0.15
   0   0  18    2.58    0.31
  -1   0 -18    0.33    0.14
  -1   0 -18    0.38    0.08
   1   0  18   -0.06    0.25
   1  -1 -18    0.18    0.12
   1  -1 -18    0.40    0.14
  -1   1  18    0.38    0.22
   0  -1 -18   11.65    0.53
   0   1  18   12.20    0.68
   0   0   0    0.00    0.00
;
_shelx_hkl_checksum              99806
loop_
_space_group_symop_operation_xyz
'x, y, z'
'-x, -y, -z'
loop_
_atom_site_label
_atom_site_type_symbol
_atom_site_fract_x
_atom_site_fract_y
_atom_site_fract_z
_atom_site_U_iso_or_equiv
_atom_site_adp_type
_atom_site_occupancy
_atom_site_site_symmetry_order
_atom_site_calc_flag
_atom_site_refinement_flags_posn
_atom_site_refinement_flags_adp
Cl1 Cl 0.68214(7) 0.43276(3) 0.58367(2) 0.01814(10) Uani 1 1 d . .
F1 F 0.8618(3) 0.3611(2) -0.05256(9) 0.0627(5) Uani 1 1 d . .
F2 F 0.4492(2) 0.33611(15) -0.01285(7) 0.0422(3) Uani 1 1 d . .
F3 F 0.6581(5) 0.15361(16) -0.06200(10) 0.0851(7) Uani 1 1 d . .
O1 O 1.3715(2) 0.18181(11) 0.38774(7) 0.0191(2) Uani 1 1 d . .
N1 N 0.9550(2) 0.23067(12) 0.44870(8) 0.0138(2) Uani 1 1 d . .
H1 H 0.789(4) 0.239(2) 0.4330(14) 0.024(5) Uiso 1 1 d . .
C1 C 1.0039(3) 0.23166(14) 0.27840(10) 0.0143(3) Uani 1 1 d . .
C2 C 0.8087(3) 0.33112(15) 0.26294(10) 0.0173(3) Uani 1 1 d . .
H2 H 0.745052 0.388385 0.315991 0.021 Uiso 1 1 calc R U
C3 C 0.7065(3) 0.34690(16) 0.17006(11) 0.0202(3) Uani 1 1 d . .
H3 H 0.573903 0.415047 0.159518 0.024 Uiso 1 1 calc R U
C4 C 0.7995(3) 0.26230(16) 0.09276(10) 0.0200(3) Uani 1 1 d . .
C5 C 0.9972(3) 0.16400(16) 0.10761(11) 0.0209(3) Uani 1 1 d . .
H5 H 1.061119 0.107006 0.054505 0.025 Uiso 1 1 calc R U
C6 C 1.1003(3) 0.14958(16) 0.20014(10) 0.0189(3) Uani 1 1 d . .
H6 H 1.237302 0.083527 0.210343 0.023 Uiso 1 1 calc R U
C7 C 1.1280(3) 0.21223(14) 0.37671(10) 0.0139(2) Uani 1 1 d . .
C8 C 1.0295(3) 0.22082(14) 0.54689(9) 0.0134(2) Uani 1 1 d . .
C9 C 0.9103(3) 0.30869(14) 0.61735(10) 0.0147(3) Uani 1 1 d . .
C10 C 0.9717(3) 0.30036(16) 0.71456(10) 0.0191(3) Uani 1 1 d . .
H10 H 0.886870 0.360324 0.761481 0.023 Uiso 1 1 calc R U
C11 C 1.1583(3) 0.20352(16) 0.74254(11) 0.0215(3) Uani 1 1 d . .
H11 H 1.202940 0.197531 0.808813 0.026 Uiso 1 1 calc R U
C12 C 1.2794(3) 0.11559(16) 0.67339(11) 0.0200(3) Uani 1 1 d . .
H12 H 1.407349 0.049653 0.692580 0.024 Uiso 1 1 calc R U
C13 C 1.2148(3) 0.12327(14) 0.57639(10) 0.0161(3) Uani 1 1 d . .
H13 H 1.297193 0.061764 0.529710 0.019 Uiso 1 1 calc R U
C14 C 0.6919(4) 0.2777(2) -0.00786(11) 0.0281(3) Uani 1 1 d . .
loop_
_atom_site_aniso_label
_atom_site_aniso_U_11
_atom_site_aniso_U_22
_atom_site_aniso_U_33
_atom_site_aniso_U_23
_atom_site_aniso_U_13
_atom_site_aniso_U_12
Cl1 0.01833(17) 0.01686(17) 0.01952(17) 0.00117(12) -0.00027(12) 0.00644(12)
F1 0.0362(7) 0.1277(14) 0.0295(6) 0.0396(8) 0.0012(5) -0.0027(7)
F2 0.0309(6) 0.0743(9) 0.0243(5) 0.0130(5) -0.0039(4) 0.0192(5)
F3 0.1582(18) 0.0507(8) 0.0380(7) -0.0195(6) -0.0566(9) 0.0429(10)
O1 0.0120(4) 0.0266(5) 0.0190(5) 0.0025(4) 0.0002(4) 0.0040(4)
N1 0.0105(5) 0.0175(5) 0.0135(5) 0.0019(4) -0.0012(4) 0.0021(4)
C1 0.0119(6) 0.0159(6) 0.0148(6) 0.0019(5) 0.0003(5) -0.0006(5)
C2 0.0174(6) 0.0187(6) 0.0161(6) 0.0015(5) 0.0021(5) 0.0036(5)
C3 0.0200(7) 0.0228(7) 0.0189(7) 0.0048(5) -0.0005(5) 0.0066(5)
C4 0.0194(7) 0.0248(7) 0.0154(6) 0.0029(5) -0.0022(5) 0.0009(5)
C5 0.0231(7) 0.0232(7) 0.0157(6) -0.0024(5) 0.0012(5) 0.0039(6)
C6 0.0183(6) 0.0200(7) 0.0181(7) 0.0003(5) 0.0000(5) 0.0047(5)
C7 0.0131(6) 0.0132(6) 0.0149(6) 0.0009(5) -0.0006(5) 0.0000(5)
C8 0.0120(6) 0.0145(6) 0.0135(6) 0.0023(5) -0.0007(5) -0.0007(5)
C9 0.0132(6) 0.0138(6) 0.0170(6) 0.0029(5) -0.0009(5) 0.0015(5)
C10 0.0218(7) 0.0199(7) 0.0153(6) 0.0006(5) 0.0015(5) 0.0018(5)
C11 0.0240(7) 0.0243(7) 0.0163(6) 0.0058(6) -0.0038(5) 0.0008(6)
C12 0.0178(6) 0.0197(7) 0.0231(7) 0.0067(5) -0.0042(5) 0.0022(5)
C13 0.0139(6) 0.0152(6) 0.0193(7) 0.0023(5) 0.0000(5) 0.0019(5)
C14 0.0287(8) 0.0387(9) 0.0169(7) 0.0015(6) -0.0029(6) 0.0091(7)
loop_
_atom_type_symbol
_atom_type_description
_atom_type_scat_dispersion_real
_atom_type_scat_dispersion_imag
_atom_type_scat_source
C C 0.0033 0.0016 'International Tables Vol C Tables 4.2.6.8 and 6.1.1.4'
H H 0.0000 0.0000 'International Tables Vol C Tables 4.2.6.8 and 6.1.1.4'
N N 0.0061 0.0033 'International Tables Vol C Tables 4.2.6.8 and 6.1.1.4'
O O 0.0106 0.0060 'International Tables Vol C Tables 4.2.6.8 and 6.1.1.4'
F F 0.0171 0.0103 'International Tables Vol C Tables 4.2.6.8 and 6.1.1.4'
Cl Cl 0.1484 0.1585 'International Tables Vol C Tables 4.2.6.8 and 6.1.1.4'
loop_
_geom_angle_atom_site_label_1
_geom_angle_atom_site_label_2
_geom_angle_atom_site_label_3
_geom_angle
C7 N1 C8 125.02(12)
C7 N1 H1 116.7(14)
C8 N1 H1 117.8(14)
C2 C1 C6 119.66(13)
C2 C1 C7 122.77(12)
C6 C1 C7 117.51(12)
C3 C2 C1 120.22(13)
C3 C2 H2 119.9
C1 C2 H2 119.9
C4 C3 C2 119.60(13)
C4 C3 H3 120.2
C2 C3 H3 120.2
C3 C4 C5 120.47(13)
C3 C4 C14 120.40(14)
C5 C4 C14 119.12(14)
C6 C5 C4 119.74(13)
C6 C5 H5 120.1
C4 C5 H5 120.1
C5 C6 C1 120.29(13)
C5 C6 H6 119.9
C1 C6 H6 119.9
O1 C7 N1 124.19(13)
O1 C7 C1 120.34(12)
N1 C7 C1 115.47(12)
C9 C8 C13 118.25(12)
C9 C8 N1 119.47(12)
C13 C8 N1 122.27(12)
C10 C9 C8 121.52(13)
C10 C9 Cl1 118.81(11)
C8 C9 Cl1 119.68(10)
C9 C10 C11 119.42(13)
C9 C10 H10 120.3
C11 C10 H10 120.3
C12 C11 C10 119.82(13)
C12 C11 H11 120.1
C10 C11 H11 120.1
C11 C12 C13 120.49(13)
C11 C12 H12 119.8
C13 C12 H12 119.8
C12 C13 C8 120.50(13)
C12 C13 H13 119.8
C8 C13 H13 119.8
F2 C14 F3 106.49(16)
F2 C14 F1 104.76(15)
F3 C14 F1 106.47(17)
F2 C14 C4 113.63(14)
F3 C14 C4 112.23(15)
F1 C14 C4 112.65(14)
loop_
_geom_bond_atom_site_label_1
_geom_bond_atom_site_label_2
_geom_bond_distance
Cl1 C9 1.7367(14)
F1 C14 1.331(2)
F2 C14 1.3239(19)
F3 C14 1.324(2)
O1 C7 1.2296(16)
N1 C7 1.3510(17)
N1 C8 1.4166(17)
N1 H1 0.83(2)
C1 C2 1.3929(19)
C1 C6 1.3953(19)
C1 C7 1.5038(18)
C2 C3 1.391(2)
C2 H2 0.9500
C3 C4 1.391(2)
C3 H3 0.9500
C4 C5 1.392(2)
C4 C14 1.499(2)
C5 C6 1.385(2)
C5 H5 0.9500
C6 H6 0.9500
C8 C9 1.3954(19)
C8 C13 1.3976(18)
C9 C10 1.3895(19)
C10 C11 1.390(2)
C10 H10 0.9500
C11 C12 1.388(2)
C11 H11 0.9500
C12 C13 1.388(2)
C12 H12 0.9500
C13 H13 0.9500
loop_
_geom_torsion_atom_site_label_1
_geom_torsion_atom_site_label_2
_geom_torsion_atom_site_label_3
_geom_torsion_atom_site_label_4
_geom_torsion
C6 C1 C2 C3 1.1(2)
C7 C1 C2 C3 178.33(13)
C1 C2 C3 C4 0.3(2)
C2 C3 C4 C5 -1.1(2)
C2 C3 C4 C14 -179.98(14)
C3 C4 C5 C6 0.5(2)
C14 C4 C5 C6 179.39(14)
C4 C5 C6 C1 0.9(2)
C2 C1 C6 C5 -1.7(2)
C7 C1 C6 C5 -179.09(13)
C8 N1 C7 O1 1.4(2)
C8 N1 C7 C1 -178.48(11)
C2 C1 C7 O1 -145.14(14)
C6 C1 C7 O1 32.13(19)
C2 C1 C7 N1 34.77(18)
C6 C1 C7 N1 -147.96(13)
C7 N1 C8 C9 145.91(14)
C7 N1 C8 C13 -35.6(2)
C13 C8 C9 C10 -0.2(2)
N1 C8 C9 C10 178.38(12)
C13 C8 C9 Cl1 179.25(10)
N1 C8 C9 Cl1 -2.18(18)
C8 C9 C10 C11 0.7(2)
Cl1 C9 C10 C11 -178.71(11)
C9 C10 C11 C12 -0.5(2)
C10 C11 C12 C13 -0.2(2)
C11 C12 C13 C8 0.8(2)
C9 C8 C13 C12 -0.6(2)
N1 C8 C13 C12 -179.08(12)
C3 C4 C14 F2 -21.9(2)
C5 C4 C14 F2 159.22(15)
C3 C4 C14 F3 -142.79(18)
C5 C4 C14 F3 38.3(2)
C3 C4 C14 F1 97.06(19)
C5 C4 C14 F1 -81.8(2)

_cod_database_fobs_code 2108303
