#------------------------------------------------------------------------------
#$Date: 2020-09-11 08:26:38 +0300 (Fri, 11 Sep 2020) $
#$Revision: 256342 $
#$URL: file:///home/coder/svn-repositories/cod/cif/2/10/86/2108660.cif $
#------------------------------------------------------------------------------
#
# This file is available in the Crystallography Open Database (COD),
# http://www.crystallography.net/. The original data for this entry
# were provided by IUCr Journals, http://journals.iucr.org/.
#
# The file may be used within the scientific community so long as
# proper attribution is given to the journal article from which the
# data were obtained.
#
data_2108660
loop_
_publ_author_name
'Mali, Bhupendra P.'
'Dash, Soumya Ranjan'
'Nikam, Shrikant B.'
'Puthuvakkal, Anisha'
'Vanka, Kumar'
'Manoj, Kochunnoonny'
'Gonnade, Rajesh G.'
_publ_section_title
;
 Five concomitant polymorphs of a green fluorescent protein chromophore
 (GFPc) analogue: understanding variations in photoluminescence with
 \p-stacking interactions
;
_journal_issue                   5
_journal_name_full               'Acta Crystallographica Section B'
_journal_page_first
;
;
_journal_paper_doi               10.1107/S2052520620010343
_journal_volume                  76
_journal_year                    2020
_chemical_formula_moiety         'C15 H18 N2 O4'
_chemical_formula_sum            'C15 H18 N2 O4'
_chemical_formula_weight         290.31
_space_group_crystal_system      triclinic
_space_group_IT_number           2
_space_group_name_Hall           '-P 1'
_space_group_name_H-M_alt        'P -1'
_atom_sites_solution_hydrogens   geom
_audit_creation_method           SHELXL-2014/7
_cell_angle_alpha                78.0120(10)
_cell_angle_beta                 82.1820(10)
_cell_angle_gamma                66.0070(10)
_cell_formula_units_Z            2
_cell_length_a                   7.1190(2)
_cell_length_b                   7.2678(3)
_cell_length_c                   15.0171(6)
_cell_measurement_reflns_used    9906
_cell_measurement_temperature    100(2)
_cell_measurement_theta_max      37.08
_cell_measurement_theta_min      3.19
_cell_volume                     693.20(4)
_computing_cell_refinement       'SAINT (Bruker, 2016)'
_computing_data_collection       'APEX3 (Bruker, 2016)'
_computing_data_reduction        'SAINT (Bruker, 2016)'
_computing_molecular_graphics    'Bruker SHELXTL'
_computing_publication_material  'Bruker SHELXTL'
_computing_structure_refinement  'SHELXL-2014/7 (Sheldrick, 2014)'
_computing_structure_solution    'SHELXS-97 (Sheldrick 2008)'
_diffrn_ambient_temperature      100(2)
_diffrn_detector                 'Photon II CPAD Area Detector'
_diffrn_detector_area_resol_mean 7.39
_diffrn_measured_fraction_theta_full 0.996
_diffrn_measured_fraction_theta_max 0.998
_diffrn_measurement_device       '\k-geometry diffractometer'
_diffrn_measurement_device_type  'Bruker D8 VENTURE Kappa Duo PHOTON II CPAD'
_diffrn_measurement_method       '\f and \w scans'
_diffrn_radiation_monochromator  'multilayer mirrors'
_diffrn_radiation_type           MoK\a
_diffrn_radiation_wavelength     0.71073
_diffrn_reflns_av_R_equivalents  0.0387
_diffrn_reflns_av_unetI/netI     0.0276
_diffrn_reflns_Laue_measured_fraction_full 0.996
_diffrn_reflns_Laue_measured_fraction_max 0.998
_diffrn_reflns_limit_h_max       10
_diffrn_reflns_limit_h_min       -8
_diffrn_reflns_limit_k_max       10
_diffrn_reflns_limit_k_min       -10
_diffrn_reflns_limit_l_max       21
_diffrn_reflns_limit_l_min       -21
_diffrn_reflns_number            22228
_diffrn_reflns_point_group_measured_fraction_full 0.996
_diffrn_reflns_point_group_measured_fraction_max 0.998
_diffrn_reflns_theta_full        25.242
_diffrn_reflns_theta_max         29.997
_diffrn_reflns_theta_min         3.188
_diffrn_source                   'micro-focus sealed tube'
_diffrn_source_type              'Incoatech I\mS HB'
_exptl_absorpt_coefficient_mu    0.102
_exptl_absorpt_correction_T_max  0.996
_exptl_absorpt_correction_T_min  0.988
_exptl_absorpt_correction_type   multi-scan
_exptl_absorpt_process_details   'SADABS (Bruker, 2006)'
_exptl_crystal_colour            YELLOW
_exptl_crystal_density_diffrn    1.391
_exptl_crystal_description       PLATE
_exptl_crystal_F_000             308
_exptl_crystal_size_max          0.120
_exptl_crystal_size_mid          0.080
_exptl_crystal_size_min          0.040
_refine_diff_density_max         0.484
_refine_diff_density_min         -0.300
_refine_diff_density_rms         0.052
_refine_ls_extinction_method     none
_refine_ls_goodness_of_fit_ref   1.054
_refine_ls_hydrogen_treatment    constr
_refine_ls_matrix_type           full
_refine_ls_number_parameters     195
_refine_ls_number_reflns         4011
_refine_ls_number_restraints     0
_refine_ls_restrained_S_all      1.054
_refine_ls_R_factor_all          0.0492
_refine_ls_R_factor_gt           0.0417
_refine_ls_shift/su_max          0.001
_refine_ls_shift/su_mean         0.000
_refine_ls_structure_factor_coef Fsqd
_refine_ls_weighting_details
'w=1/[\s^2^(Fo^2^)+(0.0586P)^2^+0.2144P] where P=(Fo^2^+2Fc^2^)/3'
_refine_ls_weighting_scheme      calc
_refine_ls_wR_factor_gt          0.1070
_refine_ls_wR_factor_ref         0.1118
_reflns_Friedel_coverage         0.000
_reflns_number_gt                3461
_reflns_number_total             4011
_reflns_threshold_expression     'I > 2\s(I)'
_cod_data_source_file            aw5046sup1.cif
_cod_data_source_block           Form_III
_cod_depositor_comments
;
The following automatic conversions were performed:

data item '_exptl_absorpt_correction_type' value 'MULTI-SCAN' was
changed to 'multi-scan' in accordance with the
/home/data/users/saulius/crontab/automatic-downloads/rss-feeds/IUCr/lib/dictionaries/cif_core.dic
dictionary named 'cif_core.dic' version 2.4.2 last updated on
2011-04-26.

Automatic conversion script
Id: cif_fix_values 7556 2019-12-06 15:28:31Z antanas 
;
_cod_database_code               2108660
_shelx_shelxl_version_number     2014/7
_shelx_space_group_comment
;
The symmetry employed for this shelxl refinement is uniquely defined
by the following loop, which should always be used as a source of
symmetry information in preference to the above space-group names.
They are only intended as comments.
;
_shelx_estimated_absorpt_t_min   0.988
_shelx_estimated_absorpt_t_max   0.996
_shelx_res_file
;

    mo_TIA_PLATE_0m.res created by SHELXL-2014/7

TITL mo_TIA_PLATE_0m_a.res in P-1
CELL 0.71073 7.1190 7.2678 15.0171 78.012 82.182 66.007
ZERR 2.00 0.0002 0.0003 0.0006 0.001 0.001 0.001
LATT 1
SFAC C  H  N  O
UNIT 30  36  4  8
OMIT -3 60
L.S. 30
ACTA
BOND $H
FMAP 2
PLAN 5
SIZE 0.12 0.08 0.04
CONF
HTAB C2 N2
EQIV $1 -x+1, -y+1, -z+2
HTAB C6 O1_$1
EQIV $2 -x, -y+1, -z+1
HTAB C13 O2_$2
EQIV $3 x-1, y+1, z
HTAB C14 N2_$3
EQIV $4 -x+2, -y, -z+2
HTAB C12 O1_$4
HTAB C14 O2
EQIV $5 x-1, y, z
HTAB C15 O1_$5
TEMP -173.000
WGHT    0.058600    0.214400
FVAR       1.66673
O1    4    0.819631    0.294694    0.956502    11.00000    0.01757    0.02057 =
         0.01335   -0.00319   -0.00466   -0.00521
O2    4    0.065196    0.589059    0.570695    11.00000    0.01127    0.02253 =
         0.01062   -0.00573   -0.00089   -0.00451
O3    4   -0.289110    0.747081    0.666978    11.00000    0.01094    0.01854 =
         0.01614   -0.00118   -0.00419   -0.00522
O4    4   -0.297259    0.797182    0.839257    11.00000    0.01040    0.02028 =
         0.01261   -0.00513    0.00065   -0.00232
N1    3    0.988237    0.174332    0.823947    11.00000    0.01099    0.01339 =
         0.01442   -0.00158   -0.00325   -0.00285
N2    3    0.725438    0.289636    0.730819    11.00000    0.01302    0.01310 =
         0.01143   -0.00249   -0.00100   -0.00340
C1    1    0.264858    0.546240    0.791808    11.00000    0.01148    0.01026 =
         0.01179   -0.00103   -0.00198   -0.00375
C2    1    0.267447    0.527844    0.700447    11.00000    0.01058    0.01213 =
         0.01193   -0.00240   -0.00107   -0.00273
AFIX  43
H2    2    0.394344    0.467422    0.667304    11.00000   -1.20000
AFIX   0
C3    1    0.081863    0.599195    0.659020    11.00000    0.01242    0.01176 =
         0.01093   -0.00230   -0.00145   -0.00402
C4    1   -0.106953    0.687802    0.707210    11.00000    0.01003    0.01206 =
         0.01264   -0.00074   -0.00239   -0.00395
C5    1   -0.107992    0.708041    0.797903    11.00000    0.01038    0.01026 =
         0.01268   -0.00178    0.00050   -0.00322
C6    1    0.077239    0.638422    0.840138    11.00000    0.01207    0.01172 =
         0.01126   -0.00163   -0.00162   -0.00379
AFIX  43
H6    2    0.076308    0.653431    0.901568    11.00000   -1.20000
AFIX   0
C7    1    0.451423    0.466879    0.841683    11.00000    0.01278    0.01216 =
         0.01114   -0.00094   -0.00231   -0.00482
AFIX  43
H7    2    0.432948    0.499137    0.901251    11.00000   -1.20000
AFIX   0
C8    1    0.646737    0.354005    0.815129    11.00000    0.01251    0.01167 =
         0.01084   -0.00041   -0.00312   -0.00445
C9    1    0.818877    0.277753    0.877091    11.00000    0.01263    0.01172 =
         0.01331   -0.00024   -0.00301   -0.00449
C10   1    0.922146    0.188992    0.738833    11.00000    0.01460    0.00991 =
         0.01230    0.00027   -0.00245   -0.00511
C11   1    1.071766    0.099101    0.665141    11.00000    0.01508    0.01541 =
         0.01698   -0.00310    0.00120   -0.00424
AFIX 137
H11A  2    0.998038    0.119403    0.611046    11.00000   -1.50000
H11B  2    1.146433   -0.047465    0.685764    11.00000   -1.50000
H11C  2    1.169688    0.165968    0.649922    11.00000   -1.50000
AFIX   0
C12   1    1.195732    0.068665    0.855756    11.00000    0.01139    0.01642 =
         0.02191   -0.00170   -0.00585   -0.00236
AFIX 137
H12A  2    1.248044    0.169026    0.864345    11.00000   -1.50000
H12B  2    1.285722   -0.012431    0.810507    11.00000   -1.50000
H12C  2    1.193189   -0.021770    0.913841    11.00000   -1.50000
AFIX   0
C13   1    0.253325    0.517770    0.516635    11.00000    0.01267    0.02072 =
         0.01241   -0.00401    0.00103   -0.00460
AFIX 137
H13A  2    0.325886    0.608389    0.513585    11.00000   -1.50000
H13B  2    0.223311    0.517049    0.454954    11.00000   -1.50000
H13C  2    0.339992    0.378907    0.544233    11.00000   -1.50000
AFIX   0
C14   1   -0.349533    0.943812    0.611029    11.00000    0.01753    0.01985 =
         0.02132    0.00032   -0.00846   -0.00198
AFIX 137
H14A  2   -0.367832    1.046547    0.648204    11.00000   -1.50000
H14B  2   -0.479559    0.976482    0.584069    11.00000   -1.50000
H14C  2   -0.242723    0.943577    0.562371    11.00000   -1.50000
AFIX   0
C15   1   -0.302215    0.803967    0.933795    11.00000    0.01595    0.02143 =
         0.01320   -0.00648    0.00205   -0.00372
AFIX 137
H15A  2   -0.227548    0.666252    0.966568    11.00000   -1.50000
H15B  2   -0.445508    0.855532    0.958263    11.00000   -1.50000
H15C  2   -0.236994    0.894779    0.941529    11.00000   -1.50000
AFIX   0
HKLF 4 1 1 0 0 0 1 0 0 0 1

REM  mo_TIA_PLATE_0m_a.res in P-1
REM R1 =  0.0417 for    3461 Fo > 4sig(Fo)  and  0.0492 for all    4011 data
REM    195 parameters refined using      0 restraints

END

WGHT      0.0587      0.2141

REM Highest difference peak  0.484,  deepest hole -0.300,  1-sigma level  0.052
Q1    1   0.7207  0.3272  0.8492  11.00000  0.05    0.48
Q2    1   0.3662  0.5037  0.8114  11.00000  0.05    0.47
Q3    1  -0.0122  0.6505  0.8184  11.00000  0.05    0.43
Q4    1  -0.0125  0.6168  0.6874  11.00000  0.05    0.42
Q5    1   0.1742  0.5373  0.6795  11.00000  0.05    0.41
;
_shelx_res_checksum              49614
_shelx_hkl_file
;
   2   0   0 5070.19  159.48
   2   0   0 5065.89  158.08
   3   0   0 1412.36   49.30
   3   0   0 1468.25   48.40
   3   0   0 1431.36   46.30
   3   0   0 1447.46   46.80
   3   0   0 1466.35   48.60
   4   0   0  382.96   16.30
   4   0   0  373.36   14.00
   4   0   0  387.86   14.50
   4   0   0  375.06   17.40
   4   0   0  380.56   16.20
   5   0   0 1721.83   60.29
   5   0   0 1668.33   57.99
   5   0   0 1666.93   55.29
   5   0   0 1668.43   54.99
   5   0   0 1694.43   57.99
   6   0   0  420.96   19.30
   6   0   0  453.05   22.40
   6   0   0  436.46   16.80
   6   0   0  453.15   17.00
   6   0   0  434.56   19.80
   6   0   0  430.96   28.50
   7   0   0    7.80    4.20
   7   0   0   18.50    9.40
   7   0   0   14.50    2.70
   7   0   0    9.50    5.20
   7   0   0   10.80    3.40
   7   0   0   11.10    2.60
   8   0   0  241.28   18.40
   8   0   0  271.57   15.30
   8   0   0  244.68   16.70
   8   0   0  266.87   25.90
   8   0   0  237.58   13.20
   9   0   0  126.49   23.30
   9   0   0  105.79   11.80
   9   0   0  104.99   10.90
   9   0   0  116.49   15.20
  10   0   0   40.40   14.00
  10   0   0   27.60    9.60
  10   0   0   45.20   12.20
  11   0   0  596.04   62.99
  10  -1   0  465.25   29.40
  10  -1   0  483.85   37.60
   9  -1   0    5.60    7.60
   9  -1   0    8.30    7.00
   9  -1   0  -10.20    4.50
   9  -1   0   -7.10    8.50
   8  -1   0   24.40    6.30
   8  -1   0   26.50    7.90
   8  -1   0   30.00    8.00
   8  -1   0   30.80    6.00
   8  -1   0   41.10   14.10
   8  -1   0   30.60    8.40
   7  -1   0   58.69    8.40
   7  -1   0   67.29    7.60
   7  -1   0   51.69   13.40
   7  -1   0   65.19   10.10
   7  -1   0   63.49    9.10
   6  -1   0    7.10    1.50
   6  -1   0    8.80    4.70
   6  -1   0    9.30    1.60
   6  -1   0    2.80    4.00
   6  -1   0    5.30    3.60
   6  -1   0    7.40    3.70
   5  -1   0   91.19    8.40
   5  -1   0   82.59    8.50
   5  -1   0   94.19    8.10
   5  -1   0   97.59    4.70
   5  -1   0   97.09    9.50
   5  -1   0   91.69    4.70
   4  -1   0   55.09    3.20
   4  -1   0   53.29    5.30
   4  -1   0   47.40    5.50
   4  -1   0   59.79    7.30
   4  -1   0   54.69    3.10
   3  -1   0  118.69    5.00
   3  -1   0  116.79    7.00
   3  -1   0  110.09    4.80
   3  -1   0  111.59    7.60
   3  -1   0  118.79    8.20
   2  -1   0 1027.00   37.50
   2  -1   0 1080.19   35.60
   2  -1   0 1077.49   34.00
   2  -1   0 1038.80   34.10
   1  -1   0    2.00    1.50
   1  -1   0    2.70    2.20
   1  -1   0   -5.50    3.00
   1  -1   0    2.80    1.40
   1  -1   0    3.00    1.90
  -1   1   0    3.00    2.00
  -1   1   0    2.90    1.30
  -1   1   0    0.80    1.10
  -1  -1   0   39.60    2.30
  -1  -1   0   43.20    4.00
  -1  -1   0   41.50    3.40
  -1  -1   0   42.10    3.10
  -1  -1   0   40.00    3.90
  -1  -1   0   42.70    2.80
   1   1   0   34.60    2.30
   1   1   0   41.10    3.20
   1   1   0   45.10    2.90
   1   1   0   39.70    3.80
   1   1   0   43.50    4.00
  -2  -1   0 3155.28   97.89
  -2  -1   0 3187.18   98.69
   2   1   0 3118.89  100.69
   2   1   0 3076.29   98.29
   2   1   0 3064.19   98.59
   2   1   0 3032.60  101.99
   2   1   0 2994.00   98.59
  -3  -1   0  742.33   26.00
  -3  -1   0  774.92   26.10
  -3  -1   0  763.92   27.50
  -3  -1   0  716.23   26.60
   3   1   0  730.03   27.40
   3   1   0  749.73   31.90
   3   1   0  770.42   25.80
   3   1   0  766.22   26.50
   3   1   0  742.03   24.30
   3   1   0  737.43   29.50
   3   1   0  776.62   27.00
  -4  -1   0  614.74   21.30
  -4  -1   0  636.74   23.30
  -4  -1   0  616.44   20.90
   4   1   0  600.84   26.80
   4   1   0  637.64   21.40
   4   1   0  630.54   25.00
   4   1   0  638.14   23.60
   4   1   0  643.24   23.20
   4   1   0  585.94   29.70
   5   1   0  687.93   34.70
   5   1   0  688.83   25.30
   5   1   0  658.13   25.20
   5   1   0  687.53   26.00
   5   1   0  670.03   27.90
   5   1   0  659.23   23.60
   6   1   0 3704.03  118.79
   6   1   0 3812.82  121.39
   6   1   0 3642.34  135.79
   6   1   0 3713.43  121.09
   6   1   0 3796.32  125.29
   7   1   0   11.50    2.40
   7   1   0   22.30    4.30
   7   1   0   10.70    4.00
   7   1   0   16.40    9.00
   7   1   0   11.60    3.50
   7   1   0   16.50    6.00
   8   1   0   34.70    5.20
   8   1   0   17.50    7.40
   8   1   0   33.00    5.30
   8   1   0   42.50   13.20
   8   1   0   18.90    2.50
   9   1   0  106.39   14.50
   9   1   0  115.49    7.20
   9   1   0  111.89   22.60
   9   1   0  104.69    9.80
   9   1   0  115.49    7.30
  10   1   0    9.80   12.90
  10   1   0    8.40    7.80
  10   1   0   13.60    8.40
  10   1   0   11.80    7.90
  11   1   0  690.03   47.00
  11   1   0  651.13   47.70
  10  -2   0  991.50   47.40
   9  -2   0   41.30   10.70
   9  -2   0   46.30   10.10
   9  -2   0   22.30   13.10
   8  -2   0   26.80    9.00
   8  -2   0   25.80    8.70
   8  -2   0   31.30    8.00
   8  -2   0   43.70   13.30
   8  -2   0   38.80    8.20
   7  -2   0   36.50   11.50
   7  -2   0   32.10    6.70
   7  -2   0   29.90    7.00
   7  -2   0   37.80    8.60
   7  -2   0   39.00    9.30
   6  -2   0   33.90    7.40
   6  -2   0   34.30    7.10
   6  -2   0   36.30    7.10
   6  -2   0   31.10    6.40
   6  -2   0   28.40    7.20
   5  -2   0  405.76   21.00
   5  -2   0  439.36   21.80
   5  -2   0  412.66   19.50
   5  -2   0  429.46   15.90
   5  -2   0  476.65   23.80
   5  -2   0  430.16   15.40
   4  -2   0  919.01   34.20
   4  -2   0  900.11   36.40
   4  -2   0  914.61   37.80
   4  -2   0  929.91   31.30
   4  -2   0  901.61   30.80
   4  -2   0  924.51   39.10
   3  -2   0  233.58   13.90
   3  -2   0  167.58   15.20
   3  -2   0  230.28   13.30
   3  -2   0  245.88    9.90
   3  -2   0  232.78   11.40
   3  -2   0  214.08    9.60
   2  -2   0  566.64   21.80
   2  -2   0  523.45   23.90
   2  -2   0  571.24   20.60
   2  -2   0  556.14   20.10
   2  -2   0  565.84   20.80
  -2   2   0  611.54   19.00
  -2   2   0  541.75   19.10
   1  -2   0 2312.87   78.19
   1  -2   0 2341.77   77.49
   1  -2   0 2317.37   74.59
   1  -2   0 2296.37   75.49
   1  -2   0 2222.58   74.89
  -1   2   0 2308.67   73.79
  -1   2   0 2204.88   74.29
  -1   2   0 2406.76   74.79
   0  -2   0 1655.63   55.59
   0  -2   0 1825.32   55.29
   0  -2   0 1692.83   55.19
   0  -2   0 1578.74   55.79
   0  -2   0 1632.54   56.09
   0   2   0 1490.75   54.49
   0   2   0 1853.51   56.59
   0   2   0 1569.24   55.09
   0   2   0 1642.74   55.69
  -2  -2   0  340.17   12.40
  -2  -2   0  340.57   13.80
  -2  -2   0  345.47   16.50
  -2  -2   0  322.07   14.10
  -2  -2   0  310.67   16.10
  -2  -2   0  327.97   14.80
  -2  -2   0  348.47   12.50
   2   2   0  356.96   14.80
   2   2   0  335.37   14.90
   2   2   0  345.17   16.60
   2   2   0  329.27   12.70
   2   2   0  339.67   16.10
  -3  -2   0    0.90    1.40
  -3  -2   0    0.60    1.90
  -3  -2   0    4.00    2.10
  -3  -2   0    1.10    1.10
  -3  -2   0   -0.80    3.40
   3   2   0    3.50    1.70
   3   2   0    0.50    3.60
   3   2   0    0.50    2.30
   3   2   0   -0.10    2.20
   3   2   0    3.00    3.40
  -4  -2   0  427.66   18.20
  -4  -2   0  446.16   16.80
   4   2   0  432.46   19.30
   4   2   0  449.26   16.60
   4   2   0  437.36   19.20
   4   2   0  444.56   19.00
   4   2   0  442.46   24.20
  -5  -2   0   73.89    5.70
  -5  -2   0   76.69    5.80
   5   2   0  104.69    7.80
   5   2   0   67.39   12.50
   5   2   0   85.69    7.80
   5   2   0   84.59    5.80
   5   2   0   78.59    7.10
  -6  -2   0  780.22   27.20
   6   2   0  779.72   29.00
   6   2   0  817.42   33.50
   6   2   0  790.32   31.90
   7   2   0  518.65   26.00
   7   2   0  514.25   34.20
   7   2   0  543.45   24.00
   7   2   0  569.14   22.20
   7   2   0  530.25   24.30
   8   2   0  127.49   12.50
   8   2   0   98.79    8.30
   8   2   0  122.09   21.50
   8   2   0  117.49    9.90
   8   2   0   99.89    9.20
   9   2   0  191.28   26.90
   9   2   0  181.08   11.80
   9   2   0  205.08   17.60
   9   2   0  172.38   12.10
  10   2   0   12.70    4.40
  10   2   0   22.20   13.10
  10   2   0    8.10    9.00
  10   2   0   19.40    4.70
  11   2   0   60.99   21.20
  11   2   0   55.89   12.20
   9  -3   0   19.70    8.60
   9  -3   0    7.40    8.50
   8  -3   0   13.10    7.20
   8  -3   0   20.00   11.00
   8  -3   0   27.60    7.90
   7  -3   0    5.10    5.20
   7  -3   0   -3.10    5.30
   7  -3   0    3.00    5.00
   7  -3   0   -1.70    7.10
   7  -3   0   -6.00    4.80
   6  -3   0  489.85   23.40
   6  -3   0  503.05   17.30
   6  -3   0  514.95   28.30
   6  -3   0  542.55   19.40
   6  -3   0  556.44   27.70
   6  -3   0  463.25   23.00
   5  -3   0   98.79    8.60
   5  -3   0  119.69   10.50
   5  -3   0  112.09   10.80
   5  -3   0   97.09    6.00
   5  -3   0  100.89    6.50
   5  -3   0   90.19    7.80
   5  -3   0  103.29   13.40
   4  -3   0 4656.23  148.89
   4  -3   0 4721.53  157.28
   4  -3   0 4358.56  152.48
   4  -3   0 4686.83  148.59
   4  -3   0 4582.74  151.28
   4  -3   0 4837.02  149.99
   3  -3   0  454.45   18.50
   3  -3   0  362.26   24.00
   3  -3   0  459.65   16.70
   3  -3   0  447.66   20.20
   3  -3   0  441.96   23.30
   3  -3   0  473.95   18.60
   3  -3   0  442.16   18.90
   2  -3   0    1.20    3.40
   2  -3   0   -1.80    2.10
   2  -3   0   -2.60    2.60
   2  -3   0    1.40    2.20
   2  -3   0   -2.00    2.30
  -2   3   0    1.00    1.60
  -2   3   0   -2.50    2.10
   1  -3   0    8.10    3.20
   1  -3   0    7.70    2.80
   1  -3   0   16.50    4.50
   1  -3   0    4.10    3.40
   1  -3   0   10.50    4.10
  -1   3   0   14.60    3.50
  -1   3   0    2.30    4.40
   0  -3   0   27.50    4.90
   0  -3   0   33.30    4.20
   0  -3   0   26.90    4.80
   0  -3   0   28.60    4.70
   0  -3   0   31.10    5.70
   0   3   0   29.10    5.10
   0   3   0   28.50    3.10
   0   3   0   26.90    6.00
   0   3   0   30.40    4.50
   0   3   0   22.60    4.10
  -1  -3   0 1373.66   47.70
  -1  -3   0 1305.57   47.30
  -1  -3   0 1488.15   50.99
  -1  -3   0 1335.27   47.00
  -1  -3   0 1300.07   48.90
   1   3   0 1398.16   47.40
   1   3   0 1275.07   47.30
   1   3   0 1212.88   47.90
   1   3   0 1346.57   47.10
  -2  -3   0   38.20    4.30
  -2  -3   0   41.40    3.80
  -2  -3   0   41.50    4.50
  -2  -3   0   62.19    7.70
  -2  -3   0   49.10    8.00
  -2  -3   0   50.89    6.50
  -2  -3   0   44.10    6.50
   2   3   0   50.49    7.70
   2   3   0   49.60    5.80
   2   3   0   51.59    6.80
   2   3   0   43.30    6.20
  -3  -3   0  800.12   35.10
  -3  -3   0  855.51   35.40
  -3  -3   0  854.41   28.90
  -3  -3   0  837.62   32.60
  -3  -3   0  834.52   32.70
  -3  -3   0  868.41   28.70
  -3  -3   0  783.82   31.30
   3   3   0  836.12   32.40
   3   3   0  778.72   32.50
   3   3   0  869.71   35.90
  -4  -3   0   73.79    5.50
  -4  -3   0   75.59    9.50
  -4  -3   0   79.89    7.40
   4   3   0   76.89    9.60
   4   3   0   77.39    5.50
   4   3   0   75.19    7.60
   4   3   0   74.89    7.40
   4   3   0   83.09    7.20
  -5  -3   0  414.86   17.20
  -5  -3   0  439.36   20.10
   5   3   0  437.76   21.00
   5   3   0  459.05   17.60
   5   3   0  464.85   27.10
   5   3   0  443.36   20.80
   5   3   0  421.76   21.70
  -6  -3   0  204.68   11.70
   6   3   0  214.38   10.60
   6   3   0  188.68   13.60
   6   3   0  219.48   14.00
   6   3   0  225.38   14.10
   6   3   0  206.38   19.30
  -7  -3   0 1574.64   54.69
   7   3   0 1595.04   59.49
   7   3   0 1680.33   61.19
   7   3   0 1578.64   59.99
   7   3   0 1620.24   54.99
   7   3   0 1588.74   71.79
   8   3   0    3.80    8.40
   8   3   0   11.80    5.20
   8   3   0    5.90    5.50
   8   3   0    3.10    3.30
   8   3   0    2.30    4.00
   9   3   0    6.10    6.80
   9   3   0   -2.70    3.00
   9   3   0    8.20   10.50
   9   3   0    0.80    4.30
   9   3   0    6.00    4.40
  10   3   0    1.20    4.50
  10   3   0   -7.50    9.30
  10   3   0   -3.80    7.10
  11   3   0   17.00    9.40
  11   3   0   25.60   15.70
  11   3   0   20.00    7.10
   8  -4   0   20.00    9.10
   8  -4   0   36.00    9.80
   8  -4   0   43.90   10.80
   7  -4   0   34.10    9.60
   7  -4   0   30.40    9.40
   7  -4   0   30.20    8.70
   7  -4   0   27.70   10.20
   6  -4   0   99.39    6.20
   6  -4   0  104.59   14.60
   6  -4   0  103.99   14.80
   6  -4   0   94.29    5.80
   5  -4   0   64.59   11.70
   5  -4   0   94.99    8.30
   5  -4   0   66.09    5.90
   5  -4   0   69.29    6.30
   5  -4   0   79.69   12.70
   4  -4   0 1062.89   48.30
   4  -4   0 1098.39   40.10
   4  -4   0 1081.59   42.30
   4  -4   0 1131.79   40.70
   3  -4   0  203.38   12.00
   3  -4   0  203.58   13.30
   3  -4   0  214.78   12.50
   3  -4   0  206.98   16.20
   2  -4   0  131.09   10.20
   2  -4   0  135.59   10.50
   2  -4   0  145.69   11.50
   2  -4   0  123.69    9.30
   2  -4   0  130.59   12.40
  -2   4   0  139.69    7.90
  -2   4   0  144.89    9.30
   1  -4   0  455.85   22.30
   1  -4   0  444.86   20.80
   1  -4   0  496.35   21.40
   1  -4   0  484.65   24.40
   1  -4   0  467.65   21.80
  -1   4   0  476.45   20.80
   0  -4   0  440.26   21.70
   0  -4   0  413.16   19.90
   0  -4   0  459.65   22.30
   0  -4   0  453.05   19.80
   0  -4   0  414.36   20.70
   0   4   0  433.56   20.70
   0   4   0  442.76   14.60
   0   4   0  441.46   19.50
   0   4   0  434.26   23.10
  -1  -4   0 1306.77   48.40
  -1  -4   0 1251.77   46.00
  -1  -4   0 1283.97   47.40
  -1  -4   0 1231.68   48.20
  -1  -4   0 1228.78   46.60
   1   4   0 1150.08   45.20
   1   4   0 1310.67   46.70
   1   4   0 1166.38   47.10
   1   4   0 1278.87   46.00
  -2  -4   0 9585.14  294.27
  -2  -4   0 9066.19  290.07
  -2  -4   0 8789.32  291.57
  -2  -4   0 9166.28  289.17
  -2  -4   0 8964.40  291.27
   2   4   0 8614.34  290.57
   2   4   0 9582.54  290.77
  -3  -4   0 2096.89   70.79
  -3  -4   0 2084.59   77.69
  -3  -4   0 2080.39   69.69
  -3  -4   0 2157.08   75.29
   3   4   0 2063.09   71.09
   3   4   0 2226.48   77.29
   3   4   0 2083.89   74.09
  -4  -4   0    2.50    2.00
  -4  -4   0   -5.40    3.20
  -4  -4   0   -4.20    2.50
  -4  -4   0    0.60    1.20
   4   4   0    1.30    3.40
   4   4   0    4.30    5.10
   4   4   0   -0.40    2.40
   4   4   0   -0.20    2.40
  -5  -4   0  594.54   27.00
   5   4   0  593.64   32.40
   5   4   0  579.64   27.20
   5   4   0  603.84   23.20
   5   4   0  533.25   27.00
   6   4   0  118.99   10.90
   6   4   0  114.79   15.40
   6   4   0  107.19    7.70
   6   4   0  107.19   10.40
   6   4   0  114.69   11.20
  -7  -4   0 2828.22   95.99
   7   4   0 2840.52   92.79
   7   4   0 2905.41   98.89
   7   4   0 2875.51   99.49
   7   4   0 2627.64   98.99
   7   4   0 2757.42  110.59
   8   4   0  386.16   31.30
   8   4   0  386.66   22.60
   8   4   0  385.86   22.80
   8   4   0  383.06   22.80
   8   4   0  389.66   17.60
   9   4   0   90.19   13.60
   9   4   0  103.19   13.70
   9   4   0   99.29    8.10
   9   4   0   85.39   19.30
  10   4   0    5.20    5.60
  10   4   0    0.40    6.70
  10   4   0   -0.70   10.50
  11   4   0   67.79   12.50
  11   4   0   75.39   21.60
   8  -5   0  213.68   20.70
   8  -5   0  223.38   21.60
   7  -5   0   19.30    8.50
   7  -5   0    7.90    7.40
   7  -5   0   13.20    8.10
   6  -5   0   42.10   10.90
   6  -5   0   45.10   11.10
   6  -5   0   18.60    8.60
   6  -5   0   35.20    4.60
   6  -5   0   46.40    5.60
   5  -5   0  136.19   10.20
   5  -5   0  145.29   10.50
   5  -5   0  135.09    9.50
   5  -5   0  124.99   14.30
   5  -5   0  155.28   17.00
   4  -5   0   30.10    6.30
   4  -5   0   36.90    9.90
   4  -5   0   36.70    6.40
   4  -5   0   37.00    6.90
   3  -5   0 1514.95   56.89
   3  -5   0 1579.64   57.89
   3  -5   0 1569.64   64.69
   3  -5   0 1509.15   56.69
   2  -5   0   92.59    9.90
   2  -5   0   98.89   13.40
   2  -5   0   98.79    9.30
   2  -5   0  112.09   10.60
   2  -5   0  111.09    9.70
  -2   5   0  111.69    7.60
   1  -5   0   35.00    9.60
   1  -5   0   48.20    6.40
   1  -5   0   42.30    7.50
   1  -5   0   55.79    9.40
  -1   5   0   37.80    6.90
  -1   5   0   24.40    9.60
   0  -5   0  207.58   15.00
   0  -5   0  211.78   12.80
   0  -5   0  196.48   15.10
   0  -5   0  203.38   13.40
   0  -5   0  197.08   14.30
   0   5   0  205.48   12.70
   0   5   0  163.78   15.50
  -1  -5   0   11.50    4.70
  -1  -5   0    6.20    4.70
  -1  -5   0   -1.20    3.30
  -1  -5   0    0.60    3.30
  -1  -5   0    9.70    3.70
   1   5   0    6.60    3.40
   1   5   0    0.40    3.40
   1   5   0    6.00    5.10
  -2  -5   0 1619.54   62.59
  -2  -5   0 1587.74   60.79
  -2  -5   0 1744.43   65.49
  -2  -5   0 1775.22   61.49
   2   5   0 1654.53   62.89
   2   5   0 1600.14   60.89
   2   5   0 1688.43   61.99
  -3  -5   0  191.58   12.00
  -3  -5   0  190.68   15.90
  -3  -5   0  191.48   14.40
   3   5   0  194.98   14.60
   3   5   0  189.28   13.80
  -4  -5   0  115.09   11.30
  -4  -5   0  125.09   13.80
  -4  -5   0  125.49    8.40
   4   5   0  136.59   12.10
   4   5   0  121.79    9.50
   4   5   0  121.09   12.80
   4   5   0  116.89   10.80
  -5  -5   0   23.90    9.30
  -5  -5   0   43.10    8.40
  -5  -5   0   29.20    3.10
   5   5   0   27.10    7.00
   5   5   0   26.40    5.50
   5   5   0   33.90   10.10
   5   5   0   38.20    8.10
  -6  -5   0    1.30    4.40
   6   5   0    8.00    5.40
   6   5   0   -2.80    3.40
   6   5   0    1.10    3.10
   6   5   0    3.10    6.70
   7   5   0  359.86   28.80
   7   5   0  374.56   22.70
   7   5   0  299.27   20.40
   7   5   0  352.96   17.00
   8   5   0   11.30    7.30
   8   5   0    3.40    3.40
   8   5   0   -1.40    8.10
   9   5   0   -4.30    9.90
   9   5   0    7.40    5.80
   9   5   0    9.90    4.00
  10   5   0   -1.40    5.80
  10   5   0    6.60   12.70
  11   5   0  159.78   15.40
  11   5   0  144.59   29.40
   7  -6   0   65.79   14.20
   7  -6   0   84.19   16.10
   6  -6   0   -1.40    6.60
   6  -6   0   -0.90    2.70
   6  -6   0    7.70    7.70
   5  -6   0    1.20    3.90
   5  -6   0   14.70    8.60
   5  -6   0    5.20    7.10
   4  -6   0   16.50    5.50
   4  -6   0   16.70    8.90
   4  -6   0   13.80    5.10
   4  -6   0   19.40    5.50
   3  -6   0 1220.68   48.40
   3  -6   0 1211.18   48.80
   3  -6   0 1157.98   48.00
   3  -6   0 1280.17   57.19
   2  -6   0  167.68   16.70
   2  -6   0  147.09   12.80
   2  -6   0  134.59   12.20
   2  -6   0  121.49   12.40
   1  -6   0  351.86   23.70
   1  -6   0  365.06   20.60
   1  -6   0  357.16   21.60
   1  -6   0  358.16   21.60
  -1   6   0  351.16   18.00
   0  -6   0    4.60    5.60
   0  -6   0   -0.60    3.40
   0  -6   0    9.30    5.60
   0  -6   0    8.10    6.30
   0   6   0   10.40    4.90
   0   6   0    6.20    6.60
  -1  -6   0  748.33   34.10
  -1  -6   0  829.72   50.39
  -1  -6   0  761.02   36.80
  -1  -6   0  791.22   39.80
   1   6   0  749.73   27.50
   1   6   0  872.31   38.60
   1   6   0  719.53   33.00
   1   6   0  697.63   29.50
  -2  -6   0  582.34   28.50
  -2  -6   0  563.84   31.30
  -2  -6   0  584.74   29.80
   2   6   0  594.94   28.20
   2   6   0  596.54   29.30
   2   6   0  509.45   27.20
  -3  -6   0 3642.34  130.29
  -3  -6   0 3827.22  126.99
  -3  -6   0 3770.62  134.09
   3   6   0 3783.12  130.29
   3   6   0 3715.03  128.69
  -4  -6   0  181.88   18.20
  -4  -6   0  196.48   16.30
  -4  -6   0  192.68   12.70
   4   6   0  199.78   16.90
   4   6   0  195.18   15.50
  -5  -6   0   64.59   13.80
  -5  -6   0   55.29    5.90
  -5  -6   0   63.89   11.70
   5   6   0   71.99   13.80
   5   6   0   53.09   12.40
  -6  -6   0   36.70    2.90
  -6  -6   0   35.30    2.90
   6   6   0   55.09   10.90
   6   6   0   61.79   14.50
   6   6   0   37.20    7.00
  -7  -6   0    8.10    4.90
   7   6   0   -0.90    5.80
   7   6   0   -4.30    5.00
   7   6   0    0.40    7.10
   7   6   0    4.10    3.60
   8   6   0  112.29   16.40
   8   6   0  121.89   22.80
   8   6   0  123.19   10.10
   9   6   0  104.09   15.70
   9   6   0   92.89   21.10
   9   6   0   81.99    8.80
  10   6   0   24.10   13.00
  10   6   0   24.40    8.90
  11   6   0  -14.30   10.00
  11   6   0   -2.20    6.00
   6  -7   0   14.80    4.30
   5  -7   0   16.10   10.30
   5  -7   0   36.60    6.60
   4  -7   0   16.30    5.80
   4  -7   0   23.10   10.20
   3  -7   0   20.50    6.10
   3  -7   0   11.40    6.50
   3  -7   0   -1.90    6.10
   2  -7   0   14.40    8.90
   2  -7   0   24.00    8.50
   2  -7   0   34.50    8.20
   1  -7   0   27.80    8.80
   1  -7   0   26.20    8.20
   1  -7   0   24.30    9.30
   1  -7   0   18.80    7.20
  -1   7   0   17.80    5.90
   0  -7   0    9.80    7.30
   0  -7   0    8.30    5.20
   0  -7   0    4.30    6.20
   0  -7   0   -0.30    4.50
   0   7   0   18.20    7.40
   0   7   0    4.70    4.40
  -1  -7   0  323.57   26.70
  -1  -7   0  318.37   22.10
  -1  -7   0  314.57   22.00
   1   7   0  315.77   19.40
   1   7   0  279.67   22.60
  -2  -7   0    3.30    5.00
  -2  -7   0    2.70    5.90
  -2  -7   0   -2.10    4.90
   2   7   0    0.00    3.10
   2   7   0   -4.10    3.80
   2   7   0    0.60    6.60
  -3  -7   0 1386.46   61.19
   3   7   0 1332.17   55.59
   3   7   0 1358.26   57.29
  -4  -7   0   48.40    8.40
  -4  -7   0   36.20   11.00
  -4  -7   0   45.70   10.60
   4   7   0   38.10    9.80
   4   7   0   43.30   10.70
  -5  -7   0  201.68   17.70
  -5  -7   0  177.68   19.70
  -5  -7   0  201.28   13.00
   5   7   0  186.28   18.40
   5   7   0  175.98   16.30
  -6  -7   0    4.10    2.70
  -6  -7   0    6.70    6.40
   6   7   0   -0.20    5.60
   6   7   0    9.90    8.40
  -7  -7   0   14.10    6.70
   7   7   0   18.60   10.60
   7   7   0   19.80    8.90
   8   7   0  354.56   25.40
   8   7   0  310.17   29.50
   9   7   0   17.30    9.70
   9   7   0    9.10   11.20
  10   7   0   11.20   12.20
  10   7   0   15.70    8.40
  11   7   0   14.80   12.10
  11   7   0   -3.70    6.40
   4  -8   0   12.90   10.50
   4  -8   0   18.50    5.80
   3  -8   0   48.90    9.50
   3  -8   0   28.10   11.70
   2  -8   0   51.39    9.20
   2  -8   0   34.20   11.60
   2  -8   0   25.70    9.00
   1  -8   0   96.29   16.40
   1  -8   0  106.19   15.20
   1  -8   0   95.59   15.50
   0  -8   0  308.67   24.60
   0  -8   0  326.87   22.70
   0  -8   0  320.17   23.40
   0   8   0  236.08   21.30
  -1  -8   0    3.80    5.60
  -1  -8   0   28.00    9.70
  -1  -8   0   15.60    9.20
   1   8   0   24.50    9.20
   1   8   0   20.20    6.70
  -2  -8   0  135.69   16.00
  -2  -8   0  122.69   16.20
  -2  -8   0  138.69   17.00
   2   8   0  122.39   16.40
   2   8   0  125.99   12.00
   2   8   0  131.69   13.20
  -3  -8   0   83.09   13.00
  -3  -8   0   80.29   15.10
  -3  -8   0   77.39   16.40
   3   8   0   62.39   14.20
   3   8   0   90.19   13.50
   3   8   0   63.09    8.50
  -4  -8   0   24.80   10.90
  -4  -8   0   22.10    8.50
  -4  -8   0    9.40    5.90
   4   8   0    2.90    7.20
   4   8   0   13.80    7.40
  -5  -8   0   52.69    8.60
  -5  -8   0   79.69   15.90
  -5  -8   0   55.69   15.10
   5   8   0   68.89   13.20
   5   8   0   57.39   13.40
  -6  -8   0   -3.10    3.00
  -6  -8   0   -0.30    5.80
  -6  -8   0    6.00   10.90
   6   8   0   -3.60    7.90
   6   8   0    0.40    6.70
  -7  -8   0  234.38   20.80
   7   8   0  252.77   25.60
   7   8   0  264.07   22.30
   8   8   0   14.90   11.40
   8   8   0    7.90    7.90
   9   8   0  335.57   32.70
   9   8   0  397.76   28.30
  10   8   0  200.88   33.90
  10   8   0  182.98   32.60
   3  -9   0   52.59   13.20
   3  -9   0   35.70   10.40
   1  -9   0  266.17   22.10
   1  -9   0  225.98   23.60
   1  -9   0  276.47   21.80
   0  -9   0  185.98   19.50
   0  -9   0  167.08   22.30
   0  -9   0  176.18   19.70
  -1  -9   0    8.50    8.50
  -1  -9   0    2.20    7.10
  -1  -9   0   -2.00    6.10
  -2  -9   0    0.90    9.60
  -2  -9   0    4.90    6.70
  -2  -9   0    9.60    6.90
   2   9   0   16.10    9.20
   2   9   0   -5.10    5.80
  -3  -9   0    9.10    8.40
  -3  -9   0    3.60   10.60
  -3  -9   0   17.10    9.00
   3   9   0    8.60    9.70
   3   9   0    9.00    4.80
   3   9   0   10.70    8.00
  -4  -9   0   42.30    9.60
  -4  -9   0   45.60   15.20
  -4  -9   0   64.69   15.00
   4   9   0   76.19   14.30
   4   9   0   57.19   14.90
  -5  -9   0  122.79   20.00
  -5  -9   0  108.79   22.40
  -5  -9   0  121.49   13.10
   5   9   0  126.59   18.20
   5   9   0  134.49   18.90
  -6  -9   0   54.89   13.10
  -6  -9   0   78.59   10.60
   6   9   0   49.50   15.20
   6   9   0   62.79   13.90
  -7  -9   0   79.79   14.30
   7   9   0   64.69   17.80
   7   9   0   69.99   15.80
   8   9   0   -3.50   10.30
   8   9   0    8.00    8.90
   9   9   0   33.50   11.30
   9   9   0   22.10   13.80
  10   9   0    3.60   12.20
  10   9   0   21.80   10.70
   1 -10   0  335.77   26.50
   1 -10   0  360.36   31.50
   0 -10   0   71.69   14.90
  -1 -10   0   38.90   13.50
  -1 -10   0   30.20   10.60
  -1 -10   0   47.20   12.50
  -2 -10   0    8.90    7.60
  -2 -10   0   -5.50    6.90
  -2 -10   0    9.00    9.70
   2  10   0   42.00   12.30
  -3 -10   0    7.50   10.00
  -3 -10   0    6.40    7.40
  -3 -10   0   17.60    9.90
   3  10   0   19.10   13.00
  -4 -10   0  111.89   22.00
  -4 -10   0   97.29   17.30
  -4 -10   0   90.49   14.60
   4  10   0   81.79   15.50
   4  10   0   75.99   19.10
  -5 -10   0  183.48   20.40
  -5 -10   0  202.58   24.50
  -5 -10   0  189.18   18.20
   5  10   0  147.39   22.00
   5  10   0  173.88   20.50
   5  10   0  140.59   16.30
  -6 -10   0   64.99   11.40
  -6 -10   0   71.19   15.30
   6  10   0   55.59   17.20
   6  10   0   60.49   15.00
   6  10   0   47.40   11.90
  -7 -10   0   30.10   10.40
   7  10   0   12.20    9.40
   7  10   0    8.90   10.10
   7  10   0   17.70   13.10
   8  10   0   86.49   20.10
   8  10   0  153.38   22.00
   8  10   0  160.78   21.00
   9  10   0   27.40   10.90
   9  10   0   37.60   14.50
   9  10   0    7.50   13.20
  -1 -11   0   34.80   11.00
  -1 -11   0   55.89   15.20
  -2 -11   0    8.90   10.00
  -2 -11   0   58.29   14.50
  -2 -11   0    9.90   10.40
  -3 -11   0   90.39   17.30
  -3 -11   0   68.89   14.30
  -3 -11   0   96.69   18.80
  -4 -11   0   -3.20   11.30
  -4 -11   0   17.90    8.80
  -4 -11   0   58.29   14.90
  -5 -11   0  -12.20    8.10
  -5 -11   0   14.00   11.20
   5  11   0    6.70   17.00
  -6 -11   0   19.80   13.20
  -6 -11   0    2.80   10.10
   6  11   0  -11.80   13.90
   6  11   0   27.70   12.40
   7  11   0  -13.40   12.50
   7  11   0   -5.50   11.20
   7  11   0    2.20   11.20
   8  11   0    8.00   14.30
   8  11   0    5.10   10.50
  -4 -12   0  -22.50    9.10
  -5 -12   0  -21.50   11.00
  -5 -12   0   28.40   13.00
  -6 -12   0   64.69   16.20
   7  12   0  -72.99   36.00
  -5 -12   1  115.39   22.00
   8  11  -1   20.80   13.80
   8  11  -1  -13.80   12.50
   8  11  -1   -3.40   12.30
   7  11  -1  -13.10   12.90
   7  11  -1  -12.60   10.70
   7  11  -1    0.50   13.60
   6  11  -1  110.89   24.80
   5  11  -1   17.00   16.80
  -5 -11   1   25.40   10.60
  -5 -11   1   79.39   16.50
  -4 -11   1   61.59   13.50
  -4 -11   1  117.09   18.80
  -4 -11   1   98.79   20.90
  -3 -11   1   14.50    8.70
  -3 -11   1   19.40   12.00
  -3 -11   1   24.60   12.50
  -2 -11   1   10.70   10.40
  -2 -11   1   52.99   14.30
  -2 -11   1   44.80   14.30
   9  10  -1   -1.20   14.50
   9  10  -1    7.30   10.10
   8  10  -1    2.80   11.50
   8  10  -1   20.00   11.00
   7  10  -1   21.80   10.60
   7  10  -1   -0.40   10.00
  -7 -10   1   22.10   11.60
   6  10  -1  -14.10    9.20
  -6 -10   1   21.90   11.50
  -6 -10   1  -13.90    6.20
  -6 -10   1    0.40    9.70
   5  10  -1  208.78   21.80
   5  10  -1  207.08   18.90
   5  10  -1  209.08   24.30
  -5 -10   1  220.08   19.80
  -5 -10   1  263.47   27.80
   4  10  -1   12.10    8.90
   4  10  -1   11.70   12.90
  -4 -10   1   13.10   12.20
  -4 -10   1   19.80    8.90
  -4 -10   1    4.40   10.30
   3  10  -1  107.09   20.90
  -3 -10   1   63.29   13.90
  -3 -10   1   83.69   17.40
  -3 -10   1   76.89   18.40
  -2 -10   1   -0.50    7.10
  -2 -10   1   -5.40    8.70
  -1 -10   1   31.20   10.90
  -1 -10   1   40.80   15.00
  -1 -10   1   40.50   10.50
   0 -10   1   52.99   19.30
   0 -10   1   43.90   14.40
   1 -10   1   64.59   12.70
   1 -10   1   50.39   13.50
  10   9  -1   24.80   17.00
  10   9  -1   20.40    9.70
   9   9  -1  546.85   36.00
   9   9  -1  477.95   40.30
   8   9  -1   22.30   10.90
   8   9  -1   25.50   14.40
   7   9  -1   17.20   10.90
   7   9  -1   -7.90    7.00
  -7  -9   1    6.70    8.30
   6   9  -1  117.69   20.90
   6   9  -1  106.29   18.00
  -6  -9   1  103.89   11.60
  -6  -9   1   95.19   21.10
  -6  -9   1  120.59   18.50
   5   9  -1  138.29   18.50
   5   9  -1  140.09   19.70
  -5  -9   1   94.69   13.10
  -5  -9   1  169.98   22.90
  -5  -9   1  139.99   23.20
   4   9  -1  525.15   34.20
   4   9  -1  534.75   32.00
  -4  -9   1  523.75   34.40
  -4  -9   1  523.05   30.80
   3   9  -1  194.88   21.40
   3   9  -1  179.08   13.20
   3   9  -1  230.48   19.30
  -3  -9   1  183.18   19.40
  -3  -9   1  229.78   23.60
  -3  -9   1  183.58   20.30
   2   9  -1  117.19   16.10
  -2  -9   1   98.99   19.60
  -2  -9   1  120.69   29.10
  -1  -9   1   18.70   10.70
  -1  -9   1    6.80    9.40
  -1  -9   1    6.00    6.70
   0  -9   1    1.00    7.40
   0  -9   1   23.20   10.80
   0  -9   1   14.50    8.50
   1  -9   1   12.90    8.30
   1  -9   1   18.60   10.50
   1  -9   1   28.30    9.50
  10   8  -1   80.09   14.70
  10   8  -1   57.89   18.00
   9   8  -1  376.46   34.90
   9   8  -1  376.46   28.40
   8   8  -1   97.69   21.80
   8   8  -1   99.89   17.30
   7   8  -1   96.09   21.60
   7   8  -1  115.99   18.50
  -7  -8   1  106.89   16.50
   6   8  -1   20.60   11.60
   6   8  -1   18.50    9.00
  -6  -8   1   29.10    9.90
  -6  -8   1   44.10   16.30
  -6  -8   1   17.20    5.00
   5   8  -1   82.19   14.90
   5   8  -1   68.89   14.10
  -5  -8   1   71.19   14.20
  -5  -8   1   79.79   18.00
   4   8  -1 2561.04  106.49
   4   8  -1 2748.32  103.39
  -4  -8   1 2752.42   98.99
  -4  -8   1 2683.13  104.49
  -4  -8   1 2779.02  109.69
   3   8  -1  946.31   45.00
  -3  -8   1 1014.70   51.89
  -3  -8   1  972.90   48.10
  -3  -8   1  985.50   45.50
   2   8  -1  116.79   15.80
   2   8  -1  112.79   12.10
   2   8  -1  105.69    8.30
  -2  -8   1  125.49   20.60
  -2  -8   1  138.59   15.90
  -2  -8   1  130.69   18.40
   1   8  -1   26.10    8.30
   1   8  -1    2.50    5.30
  -1  -8   1   12.80    6.80
  -1  -8   1   -4.00    5.20
  -1  -8   1    9.80    7.40
   0  -8   1   90.79   15.90
   0  -8   1   77.29   14.60
   0  -8   1   82.99   15.70
   1  -8   1   -1.60    5.90
   1  -8   1    3.00    7.60
   1  -8   1   10.20    9.10
   2  -8   1 1087.69   48.30
   2  -8   1  942.31   46.20
   2  -8   1 1042.10   54.39
   3  -8   1  334.37   28.80
   3  -8   1  294.17   21.00
   4  -8   1   -6.70    8.30
   4  -8   1    0.80    4.60
  10   7  -1   16.00   16.00
  10   7  -1   31.90   10.10
   9   7  -1   29.90   11.00
   9   7  -1   41.60    6.50
   9   7  -1   20.10   12.30
   8   7  -1  162.48   20.90
   8   7  -1  135.89   24.10
   8   7  -1  146.69   12.30
   7   7  -1    0.50    9.40
   7   7  -1    5.00    6.00
  -7  -7   1    5.70    6.60
   6   7  -1   79.29   16.30
   6   7  -1   53.49   11.70
  -6  -7   1   78.89   12.90
  -6  -7   1   47.00    5.60
  -6  -7   1   92.19   18.30
  -6  -7   1   67.09    6.40
   5   7  -1   41.40   10.00
   5   7  -1   27.60   10.40
  -5  -7   1   29.20   11.30
  -5  -7   1   21.10    8.40
  -5  -7   1   21.90    5.30
   4   7  -1  109.39   13.70
   4   7  -1   97.69   14.50
  -4  -7   1  124.79   11.80
  -4  -7   1  107.09   15.80
  -4  -7   1  107.79   18.80
   3   7  -1   12.40    7.30
   3   7  -1   19.60    7.30
  -3  -7   1    8.40    5.90
  -3  -7   1   12.00    9.10
  -3  -7   1   21.80    8.30
   2   7  -1   27.50    5.90
   2   7  -1    9.80    7.20
   2   7  -1   11.10    5.90
  -2  -7   1   13.20    7.60
  -2  -7   1    0.50    4.60
  -2  -7   1   12.90    6.80
   1   7  -1    5.60    7.30
   1   7  -1    2.40    2.70
   1   7  -1   13.40    5.90
   1   7  -1    4.70    1.90
  -1  -7   1    4.70    4.70
  -1  -7   1   10.00    6.20
  -1  -7   1   19.30    9.40
   0   7  -1   14.30    5.30
   0   7  -1    8.90    6.00
   0  -7   1    8.50    6.80
   0  -7   1   -3.10    5.20
   0  -7   1    4.30    4.90
   0  -7   1   11.30    6.90
  -1   7  -1   30.20    5.70
   1  -7   1   18.10    8.10
   1  -7   1   20.30    7.70
   1  -7   1   25.10    9.10
   1  -7   1    5.50    5.90
   3  -7   1  207.28   17.40
   3  -7   1  194.18   21.00
   3  -7   1  207.38   16.40
   4  -7   1   27.10    7.10
   4  -7   1    8.80    8.00
   5  -7   1   -3.80    3.60
   6  -7   1    8.90    3.60
  11   6  -1   20.00    9.00
  11   6  -1   10.60   13.70
  10   6  -1   19.20   15.70
  10   6  -1    8.60    7.60
   9   6  -1    8.90   12.20
   9   6  -1    0.60    6.40
   8   6  -1 1689.13   79.49
   8   6  -1 1648.34   68.19
   8   6  -1 1587.14   59.59
   7   6  -1  143.09   18.80
   7   6  -1  154.28   13.20
   7   6  -1  164.48   16.30
  -7  -6   1  168.08   14.60
   6   6  -1  166.58   15.90
   6   6  -1  166.38   18.30
   6   6  -1  183.68   12.60
  -6  -6   1  167.58   18.80
  -6  -6   1  167.98    7.70
  -6  -6   1  156.28    7.10
  -6  -6   1  182.88   16.20
   5   6  -1    6.20    7.10
   5   6  -1   18.70    6.70
   5   6  -1   11.90    5.50
  -5  -6   1    9.40    3.40
  -5  -6   1    7.40    5.10
  -5  -6   1   -3.60    6.40
   4   6  -1  170.18   14.70
   4   6  -1  186.28   16.40
  -4  -6   1  176.18   12.10
  -4  -6   1  139.79   16.80
  -4  -6   1  160.08   15.10
   3   6  -1 1713.83   64.29
   3   6  -1 1678.83   64.69
  -3  -6   1 1717.43   66.29
  -3  -6   1 1701.83   62.49
  -3  -6   1 1454.05   72.59
   2   6  -1  237.78   16.50
   2   6  -1  264.57   17.40
   2   6  -1  226.58   16.40
  -2  -6   1  248.68   17.10
  -2  -6   1  226.28   17.60
  -2  -6   1  245.08   20.10
   1   6  -1   56.59    5.80
   1   6  -1   51.39    8.80
   1   6  -1   51.49   10.50
  -1  -6   1   49.20    9.40
  -1  -6   1   54.39   11.70
  -1  -6   1   45.50   10.30
  -1  -6   1   53.89    8.90
   0   6  -1  275.67   21.00
   0   6  -1  351.76   18.80
   0  -6   1  371.06   23.40
   0  -6   1  376.76   23.40
   0  -6   1  333.47   17.90
   0  -6   1  344.17   19.70
   0  -6   1  357.56   21.80
  -1   6  -1    7.50    4.00
   1  -6   1   -1.50    4.70
   1  -6   1    3.00    5.10
   1  -6   1   11.50    5.70
   1  -6   1   11.40    5.40
   1  -6   1    9.90    4.10
  -2   6  -1   19.50    5.40
   2  -6   1   45.50   10.20
   2  -6   1   38.50   10.30
   2  -6   1   47.00    9.70
   2  -6   1   41.00    5.60
   2  -6   1   40.70    7.90
   3  -6   1   32.30    9.90
   3  -6   1   24.20    7.40
   3  -6   1   34.60    7.40
   3  -6   1   46.30    9.30
   4  -6   1   75.49   10.10
   4  -6   1   87.59   15.90
   4  -6   1   90.89   10.10
   4  -6   1   82.99   10.40
   5  -6   1  123.69   17.40
   5  -6   1  119.59    9.90
   5  -6   1  111.79   18.50
   6  -6   1    8.50    7.90
   6  -6   1   -3.40    7.60
   6  -6   1   16.40    3.70
   7  -6   1   19.10   13.20
  11   5  -1   14.10   12.40
  11   5  -1    5.70    6.40
  10   5  -1    7.20    6.10
  10   5  -1    8.00   11.20
   9   5  -1    3.80    3.80
   9   5  -1    4.70    9.20
   9   5  -1   12.50    7.50
   8   5  -1 1061.79   47.30
   8   5  -1 1061.79   57.79
   8   5  -1 1036.10   40.20
   7   5  -1  898.51   41.20
   7   5  -1  891.61   34.90
   7   5  -1  904.41   40.90
   7   5  -1  881.11   48.80
  -7  -5   1  869.31   47.10
   6   5  -1    4.70    3.50
   6   5  -1    4.30    5.30
   6   5  -1   -3.60    5.70
  -6  -5   1    5.90    4.20
   5   5  -1  380.66   19.20
   5   5  -1  442.86   30.90
   5   5  -1  392.56   22.80
   5   5  -1  414.86   23.30
  -5  -5   1  430.06   16.70
  -5  -5   1  416.96   15.40
  -5  -5   1  470.45   28.30
  -5  -5   1  398.96   23.20
   4   5  -1  558.74   24.30
   4   5  -1  556.44   29.90
   4   5  -1  536.95   27.20
  -4  -5   1  551.84   28.20
  -4  -5   1  524.15   30.70
  -4  -5   1  580.44   23.40
   3   5  -1 1099.09   45.80
   3   5  -1 1094.69   44.60
  -3  -5   1 1089.19   48.50
  -3  -5   1 1128.89   42.50
  -3  -5   1 1120.09   46.00
   2   5  -1 2562.04   88.99
   2   5  -1 2372.16   90.29
   2   5  -1 2607.14   88.99
  -2  -5   1 2607.64   90.99
  -2  -5   1 2623.04   88.99
  -2  -5   1 2478.15   92.79
  -2  -5   1 2526.45   88.49
   1   5  -1  266.97   15.60
   1   5  -1  214.18   13.90
   1   5  -1  271.27   16.10
  -1  -5   1  250.37   16.90
  -1  -5   1  257.07   17.90
  -1  -5   1  245.98   14.70
  -1  -5   1  283.47   15.70
  -1  -5   1  264.17   16.70
   0   5  -1  149.09   11.00
   0   5  -1  153.98   13.70
   0  -5   1  162.78   13.80
   0  -5   1  190.18   15.10
   0  -5   1  165.28   13.00
   0  -5   1  149.49   11.70
   0  -5   1  172.88   12.00
  -1   5  -1   88.49    7.80
   1  -5   1   94.19   12.80
   1  -5   1   80.29   10.80
   1  -5   1   84.39    7.30
   1  -5   1   85.09   12.40
   1  -5   1   69.69    7.90
  -2   5  -1    4.20    2.80
   2  -5   1    8.60    4.80
   2  -5   1   -4.40    4.40
   2  -5   1    3.50    4.10
   2  -5   1    0.60    4.90
   3  -5   1 2324.77   79.99
   3  -5   1 2264.97   80.39
   3  -5   1 2272.47   79.79
   3  -5   1 2310.77   82.89
   3  -5   1 2241.88   88.09
   4  -5   1  123.69   10.20
   4  -5   1  136.09   15.80
   4  -5   1  144.99   12.40
   4  -5   1  142.19   11.00
   5  -5   1  133.99   19.30
   5  -5   1  141.69   19.70
   5  -5   1  157.48   10.70
   5  -5   1  143.09   12.10
   5  -5   1  158.38   10.20
   6  -5   1    8.70    2.90
   6  -5   1    5.20    2.70
   6  -5   1    5.70    6.70
   6  -5   1    4.20    7.00
   7  -5   1    5.70    7.00
   7  -5   1    2.70    7.00
   7  -5   1    5.00    5.90
   8  -5   1   23.20   11.60
  11   4  -1   13.30    6.40
  11   4  -1   28.40   10.20
  11   4  -1    7.10   13.00
  10   4  -1  111.99   16.90
  10   4  -1  157.88   14.50
  10   4  -1  159.18   28.00
  10   4  -1  144.79   10.70
   9   4  -1   22.70   12.60
   9   4  -1   25.60    6.20
   9   4  -1   29.00   10.20
   9   4  -1   26.40    8.20
   8   4  -1   19.10   11.10
   8   4  -1   27.00    7.40
   8   4  -1   21.80    7.60
   8   4  -1   17.60    6.60
   8   4  -1   16.20    4.50
   7   4  -1    2.70    7.20
   7   4  -1    3.50    3.20
   7   4  -1   12.10    4.70
   7   4  -1    5.00    5.10
   7   4  -1    6.30    5.20
  -7  -4   1    8.70    4.30
   6   4  -1    3.70    3.20
   6   4  -1    8.40    5.10
   6   4  -1    0.20    6.20
   6   4  -1   -0.20    4.20
   6   4  -1   -4.20    4.20
   5   4  -1  182.38   13.40
   5   4  -1  185.18   10.60
   5   4  -1  167.58   16.60
   5   4  -1  190.68   14.00
   5   4  -1  190.08   12.90
  -5  -4   1  209.28   17.20
  -5  -4   1  180.18   13.40
   4   4  -1   25.80    5.70
   4   4  -1   15.40    6.40
   4   4  -1   23.90    6.10
   4   4  -1   19.20    4.20
  -4  -4   1   24.60    6.10
  -4  -4   1   17.60    6.90
  -4  -4   1   22.40    3.30
   3   4  -1   20.00    4.30
   3   4  -1   25.30    6.80
   3   4  -1   29.90    6.40
   3   4  -1   29.40    6.30
  -3  -4   1   25.20    5.10
  -3  -4   1   18.30    6.90
  -3  -4   1   26.80    6.30
   2   4  -1 8587.64  277.17
   2   4  -1 9051.79  279.87
   2   4  -1 9128.59  279.47
   2   4  -1 8220.88  279.27
   2   4  -1 8744.52  282.47
  -2  -4   1 8994.20  280.97
  -2  -4   1 8788.92  282.97
  -2  -4   1 8550.54  278.37
  -2  -4   1 8398.36  279.87
  -2  -4   1 8889.71  278.07
   1   4  -1 7303.67  226.98
   1   4  -1 6963.30  224.48
   1   4  -1 6742.43  224.68
  -1  -4   1 7188.18  225.98
  -1  -4   1 7264.87  226.68
  -1  -4   1 6902.41  224.18
  -1  -4   1 6632.54  224.18
  -1  -4   1 6995.20  227.98
   0   4  -1   64.79    7.20
   0   4  -1   73.79    6.90
   0   4  -1   67.89    8.30
   0   4  -1   74.59    4.70
   0  -4   1   66.79    6.00
   0  -4   1   80.09    8.70
   0  -4   1   73.69    9.50
   0  -4   1   62.19    6.70
   0  -4   1   68.49    7.80
  -1   4  -1  668.43   31.60
  -1   4  -1  697.53   28.10
   1  -4   1  656.03   27.50
   1  -4   1  705.93   26.50
   1  -4   1  637.64   28.30
   1  -4   1  669.83   30.10
   1  -4   1  642.34   30.80
  -2   4  -1  658.43   24.40
  -2   4  -1  672.03   29.20
   2  -4   1  649.93   27.00
   2  -4   1  605.04   31.30
   2  -4   1  690.83   27.70
   2  -4   1  663.73   29.70
   2  -4   1  631.94   27.60
   3  -4   1  545.25   25.70
   3  -4   1  542.35   29.00
   3  -4   1  548.75   23.20
   3  -4   1  512.15   23.30
   3  -4   1  521.65   25.90
   4  -4   1 1933.91   66.19
   4  -4   1 1883.11   69.79
   4  -4   1 1957.90   75.89
   4  -4   1 1946.61   66.29
   5  -4   1    9.10    6.00
   5  -4   1    9.80    4.90
   5  -4   1    2.80    6.20
   5  -4   1    8.60    3.00
   5  -4   1    6.20    3.00
   6  -4   1   37.70    3.20
   6  -4   1   41.50    3.40
   6  -4   1   35.40    8.80
   6  -4   1   49.99    8.10
   6  -4   1   37.50   10.40
   7  -4   1  110.29   14.30
   7  -4   1   79.29   13.90
   7  -4   1  104.39   15.10
   7  -4   1   96.69   13.70
   8  -4   1   -4.50    6.50
   8  -4   1   -8.90    6.80
   8  -4   1    2.60    7.00
  11   3  -1   46.30   10.40
  11   3  -1   26.10   10.10
  11   3  -1   59.19   19.90
  10   3  -1   64.89    8.30
  10   3  -1   57.89   12.70
  10   3  -1   71.89   20.20
  10   3  -1   66.69    9.90
   9   3  -1   14.20   10.40
   9   3  -1    4.20    6.50
   9   3  -1   18.50    5.10
   9   3  -1   23.60    6.70
   8   3  -1   -1.40    2.90
   8   3  -1   -4.90    7.20
   8   3  -1    2.40    4.40
   8   3  -1    0.10    3.90
   8   3  -1   -4.60    5.10
   7   3  -1 1247.68   48.80
   7   3  -1 1143.29   58.09
   7   3  -1 1197.18   42.80
   7   3  -1 1152.98   47.40
   7   3  -1 1220.78   47.40
  -7  -3   1 1180.58   43.30
   6   3  -1  915.31   36.70
   6   3  -1  879.01   45.40
   6   3  -1  898.91   32.50
   6   3  -1  807.72   36.10
  -6  -3   1  899.11   34.60
   5   3  -1   34.00    6.40
   5   3  -1   26.00    8.50
   5   3  -1   31.00    6.60
   5   3  -1   33.20    6.60
   5   3  -1   36.70    5.00
   4   3  -1    9.00    5.30
   4   3  -1    5.60    3.30
   4   3  -1    5.10    3.40
   4   3  -1    5.60    2.50
   4   3  -1    6.40    3.70
  -4  -3   1    3.80    4.80
  -4  -3   1    8.80    2.50
  -4  -3   1    6.60    0.90
  -4  -3   1   10.00    3.80
   3   3  -1 1604.24   54.69
   3   3  -1 1506.05   57.69
   3   3  -1 1486.25   54.79
   3   3  -1 1525.45   51.39
  -3  -3   1 1442.86   54.79
  -3  -3   1 1562.24   55.09
  -3  -3   1 1586.94   58.09
  -3  -3   1 1487.15   50.59
   2   3  -1 3299.27  124.59
   2   3  -1 3518.75  121.79
   2   3  -1 3872.31  123.29
   2   3  -1 3522.55  123.39
   2   3  -1 3701.23  119.39
  -2  -3   1 3840.42  124.79
  -2  -3   1 3795.62  121.19
  -2  -3   1 3928.11  122.89
  -2  -3   1 3707.03  123.29
  -2  -3   1 3805.92  118.69
  -2  -3   1 3790.52  119.79
   1   3  -1 2380.36   76.79
   1   3  -1 2393.26   77.39
   1   3  -1 2169.38   79.59
   1   3  -1 2187.68   78.89
   1   3  -1 2249.18   78.29
  -1  -3   1 2328.07   77.09
  -1  -3   1 2308.57   77.09
  -1  -3   1 2384.16   78.49
  -1  -3   1 2199.38   79.49
  -1  -3   1 2357.46   75.69
   0   3  -1   45.20    5.70
   0   3  -1   44.40    6.00
   0   3  -1   44.00    5.80
   0   3  -1   48.50    7.00
   0   3  -1   35.10    4.00
   0  -3   1   35.20    6.60
   0  -3   1   39.40    4.50
   0  -3   1   42.00    4.90
   0  -3   1   36.00    4.20
   0  -3   1   39.10    6.20
  -1   3  -1  473.65   19.40
  -1   3  -1  444.56   19.50
   1  -3   1  486.75   18.80
   1  -3   1  432.76   19.60
   1  -3   1  439.86   18.90
   1  -3   1  439.06   20.70
  -2   3  -1  399.36   15.00
  -2   3  -1  419.56   18.90
   2  -3   1  385.26   18.90
   2  -3   1  382.26   17.40
   2  -3   1  402.56   19.60
   2  -3   1  384.36   20.80
   2  -3   1  406.06   17.00
   2  -3   1  381.16   13.80
   3  -3   1  109.19    9.20
   3  -3   1  117.19    6.30
   3  -3   1   96.79    7.40
   3  -3   1  117.39    7.40
   3  -3   1  119.59    7.80
   3  -3   1   92.29   11.10
   3  -3   1  118.89   11.70
   4  -3   1    3.10    2.20
   4  -3   1   -2.00    2.40
   4  -3   1    3.60    3.40
   4  -3   1   -4.20    2.20
   4  -3   1   10.40    3.80
   4  -3   1   -4.30    3.80
   5  -3   1  395.26   15.80
   5  -3   1  421.36   24.60
   5  -3   1  408.36   15.20
   5  -3   1  392.46   21.60
   5  -3   1  408.86   20.60
   5  -3   1  393.46   22.40
   5  -3   1  389.26   18.30
   6  -3   1   20.60    9.80
   6  -3   1   21.00    6.10
   6  -3   1   14.90    6.40
   6  -3   1   36.00    6.90
   6  -3   1   19.70    6.80
   7  -3   1    3.60    4.70
   7  -3   1   -1.80    5.30
   7  -3   1    7.60    7.20
   7  -3   1    0.30    5.00
   7  -3   1    4.20    5.40
   7  -3   1    4.50    5.20
   8  -3   1   50.89   10.60
   8  -3   1   46.00   12.90
   8  -3   1   60.09   11.90
   8  -3   1   59.89   10.90
   9  -3   1  570.64   32.20
  11   2  -1  314.07   13.60
  11   2  -1  244.68   29.30
  11   2  -1  345.97   35.40
  10   2  -1   12.50    8.90
  10   2  -1   38.10   14.80
  10   2  -1   31.10    7.30
  10   2  -1   26.10    5.80
   9   2  -1  302.47   30.10
   9   2  -1  322.97   17.50
   9   2  -1  307.37   16.80
   9   2  -1  327.37   22.50
   9   2  -1  299.87   17.50
   8   2  -1   48.50    7.90
   8   2  -1   32.50    8.30
   8   2  -1   38.90    6.30
   8   2  -1   46.20   14.70
   8   2  -1   46.30    7.40
   7   2  -1  186.18   12.50
   7   2  -1  179.28   20.10
   7   2  -1  173.48   12.20
   7   2  -1  189.18   14.20
   7   2  -1  180.38   11.00
   6   2  -1 2382.06   83.39
   6   2  -1 2350.16   93.59
   6   2  -1 2441.36   78.99
   6   2  -1 2334.97   81.39
   6   2  -1 2355.26   82.09
  -6  -2   1 2377.86   81.59
   5   2  -1    3.60    2.80
   5   2  -1   -1.50    2.70
   5   2  -1    0.20    2.30
   5   2  -1   -0.40    2.50
   5   2  -1    0.10    4.70
  -5  -2   1    3.10    2.40
  -5  -2   1    2.40    2.00
   4   2  -1  126.29   12.30
   4   2  -1  115.99    8.70
   4   2  -1  123.89    8.70
   4   2  -1  135.29    9.20
   4   2  -1  142.29    7.40
  -4  -2   1  126.39    7.10
  -4  -2   1  128.69    8.50
   3   2  -1 1677.33   59.19
   3   2  -1 1610.54   60.99
   3   2  -1 1765.22   58.79
   3   2  -1 1755.32   56.39
   3   2  -1 1778.72   58.69
   3   2  -1 1701.23   63.29
  -3  -2   1 1689.13   57.69
  -3  -2   1 1695.43   61.59
  -3  -2   1 1753.32   58.39
  -3  -2   1 1746.43   56.29
  -3  -2   1 1747.43   59.09
   2   2  -1  999.20   35.10
   2   2  -1 1011.00   37.60
   2   2  -1  984.90   35.60
   2   2  -1  984.50   37.30
   2   2  -1  955.90   33.00
  -2  -2   1  982.30   34.10
  -2  -2   1  990.50   35.60
  -2  -2   1  988.90   32.80
  -2  -2   1  917.01   34.40
  -1   2  -1  308.97   12.30
  -1   2  -1  328.07   13.80
   1  -2   1  309.17   14.50
   1  -2   1  298.57   13.20
   1  -2   1  298.57   12.80
   1  -2   1  297.97   11.40
   1  -2   1  326.57   14.00
  -2   2  -1  132.99    5.40
  -2   2  -1  140.19    5.30
   2  -2   1  132.39    8.50
   2  -2   1  122.69    7.10
   2  -2   1  130.19    6.90
   2  -2   1  128.49    6.50
   3  -2   1  778.72   30.00
   3  -2   1  779.82   32.80
   3  -2   1  807.02   27.20
   3  -2   1  748.23   27.20
   3  -2   1  798.42   28.90
   4  -2   1   66.29    6.90
   4  -2   1   76.39    4.40
   4  -2   1   75.49    4.70
   4  -2   1   77.39    7.30
   4  -2   1   77.39    8.80
   5  -2   1  283.17   16.10
   5  -2   1  267.67   17.20
   5  -2   1  255.77    9.20
   5  -2   1  258.57   15.30
   5  -2   1  255.57    9.60
   5  -2   1  242.28   14.60
   6  -2   1   29.10    7.00
   6  -2   1   27.80    8.90
   6  -2   1   24.90    6.30
   6  -2   1   31.60    6.90
   6  -2   1   34.00    7.50
   6  -2   1   29.50    7.00
   7  -2   1  206.78   15.70
   7  -2   1  185.68   15.40
   7  -2   1  206.18   15.00
   7  -2   1  205.38   19.60
   7  -2   1  190.38   21.70
   7  -2   1  191.78   14.10
   8  -2   1  167.58   15.90
   8  -2   1  160.68   15.20
   8  -2   1  160.58   19.80
   8  -2   1  178.08   14.60
   8  -2   1  193.08   15.70
   8  -2   1  201.88   16.00
   9  -2   1   31.20   10.20
   9  -2   1   19.80    8.10
   9  -2   1   24.60   12.30
  11   1  -1  216.58   28.80
  11   1  -1  169.28   21.80
  11   1  -1  160.18   20.00
  10   1  -1   -3.70    7.50
  10   1  -1   13.50    8.30
  10   1  -1   -8.90    4.90
  10   1  -1    5.30   11.10
  10   1  -1    8.50    7.40
   9   1  -1   13.60    3.70
   9   1  -1   18.30    5.70
   9   1  -1   -0.40    9.20
   8   1  -1   23.60    4.80
   8   1  -1   16.20    2.20
   8   1  -1   17.40    4.90
   8   1  -1   26.00   12.60
   8   1  -1   17.30    5.20
   8   1  -1   18.00    7.10
   7   1  -1  110.29    6.00
   7   1  -1  116.99    8.60
   7   1  -1  112.49   11.50
   7   1  -1  109.09    8.80
   7   1  -1  137.89   17.50
   7   1  -1  125.19    9.00
   6   1  -1  559.84   25.80
   6   1  -1  511.35   25.50
   6   1  -1  529.45   22.50
   6   1  -1  523.85   19.10
   6   1  -1  555.04   22.30
   6   1  -1  473.45   35.20
   5   1  -1 1078.79   38.10
   5   1  -1 1057.99   38.20
   5   1  -1 1086.69   35.60
   5   1  -1 1054.39   38.80
   5   1  -1 1090.19   41.20
  -5  -1   1 1061.89   34.90
   4   1  -1   25.20    2.20
   4   1  -1   28.40    4.30
   4   1  -1   28.90    5.00
   4   1  -1   30.20    4.60
   4   1  -1   24.70    5.50
   4   1  -1   34.70    4.30
  -4  -1   1   29.20    4.10
  -4  -1   1   32.20    3.30
   3   1  -1  700.93   24.20
   3   1  -1  681.43   25.30
   3   1  -1  698.03   22.20
   3   1  -1  670.93   27.40
   3   1  -1  660.13   24.60
   3   1  -1  686.83   25.90
  -3  -1   1  702.63   24.50
  -3  -1   1  670.03   25.70
  -3  -1   1  685.53   24.70
  -3  -1   1  682.63   23.70
   2   1  -1 1445.26   47.50
   2   1  -1 1466.65   46.10
   2   1  -1 1398.96   50.19
   2   1  -1 1476.45   48.90
   2   1  -1 1498.65   48.50
   2   1  -1 1440.46   49.00
  -2  -1   1 1515.85   48.90
  -2  -1   1 1508.25   48.10
  -2  -1   1 1458.65   50.49
  -2  -1   1 1470.25   47.50
   1   1  -1 4030.80  131.39
   1   1  -1 4047.59  132.99
   1   1  -1 4288.67  130.79
   0   1  -1 1141.89   37.90
   0   1  -1 1071.59   37.20
   0   1  -1 1120.29   37.10
   0   1  -1 1169.08   37.10
   0  -1   1 1156.28   36.90
   0  -1   1 1112.29   38.00
   0  -1   1 1158.68   36.80
   0  -1   1 1046.30   37.40
   0  -1   1 1135.69   36.00
   0  -1   1 1132.59   37.30
  -1   1  -1  219.58    9.00
  -1   1  -1  201.58    7.60
  -1   1  -1  198.98    7.40
   1  -1   1  199.38    7.90
   1  -1   1  189.08    7.90
   1  -1   1  183.98    7.70
   1  -1   1  192.68    9.00
   2  -1   1 1015.80   33.30
   2  -1   1 1028.90   33.10
   2  -1   1 1014.40   35.50
   2  -1   1 1068.79   35.70
   3  -1   1   45.10    2.30
   3  -1   1   45.50    2.40
   3  -1   1   43.00    4.70
   3  -1   1   42.40    5.80
   4  -1   1   27.50    4.90
   4  -1   1   25.00    1.60
   4  -1   1   26.10    4.90
   4  -1   1   33.10    6.00
   4  -1   1   26.90    1.50
   5  -1   1 2195.28   75.39
   5  -1   1 2198.78   74.69
   5  -1   1 2127.59   74.39
   5  -1   1 2131.39   75.99
   6  -1   1  549.74   31.20
   6  -1   1  489.45   24.50
   6  -1   1  523.05   24.30
   6  -1   1  553.74   25.40
   6  -1   1  495.05   26.50
   6  -1   1  512.85   23.70
   7  -1   1   34.50    7.50
   7  -1   1   55.69   12.70
   7  -1   1   29.70    6.20
   7  -1   1   45.80    7.80
   7  -1   1   37.70    7.80
   7  -1   1   45.00    9.20
   8  -1   1    2.70    5.60
   8  -1   1    9.50    4.20
   8  -1   1   13.00    6.60
   8  -1   1    3.80    3.90
   8  -1   1    3.20    8.50
   8  -1   1    8.10    6.10
   9  -1   1   40.20   11.20
   9  -1   1   33.40   13.50
   9  -1   1   38.20    8.40
   9  -1   1   21.10    9.00
  10  -1   1  368.76   25.40
  10  -1   1  403.36   33.70
  11   0  -1  218.88   24.20
  10   0  -1  241.38   28.20
  10   0  -1  250.57   22.80
  10   0  -1  228.28   20.90
  10   0  -1  251.97   17.30
   9   0  -1    7.20    6.50
   9   0  -1   10.40    5.60
   9   0  -1    4.30    9.60
   9   0  -1   19.60    8.30
   8   0  -1   19.90    5.70
   8   0  -1   20.40    4.20
   8   0  -1   34.30   14.10
   8   0  -1   20.10    3.50
   8   0  -1   21.00    8.90
   7   0  -1  194.28   20.40
   7   0  -1  208.88   15.50
   7   0  -1  189.78   11.10
   7   0  -1  197.78    9.80
   7   0  -1  191.18   10.20
   7   0  -1  191.58   12.80
   6   0  -1   80.29    7.80
   6   0  -1   80.19    5.90
   6   0  -1   75.39    6.50
   6   0  -1   74.99    6.30
   5   0  -1   70.89    5.40
   5   0  -1   74.39    7.50
   5   0  -1   67.49    5.30
   5   0  -1   67.99    7.80
   5   0  -1   76.29    6.80
   5   0  -1   75.49    6.20
   4   0  -1  703.23   26.70
   4   0  -1  692.33   24.70
   4   0  -1  714.93   25.40
   4   0  -1  675.23   30.30
   4   0  -1  704.73   28.30
   4   0  -1  738.23   26.40
   3   0  -1 1993.90   68.29
   3   0  -1 2045.90   65.29
   3   0  -1 2029.70   66.99
   3   0  -1 2070.29   66.59
   3   0  -1 2008.30   68.09
   3   0  -1 2017.20   65.89
  -3   0   1 2045.30   63.89
  -3   0   1 2066.89   64.09
   2   0  -1 2558.34   81.59
   2   0  -1 2427.56   80.19
   2   0  -1 2507.35   79.59
   2   0  -1 2451.35   80.69
   2   0  -1 2521.55   81.59
   2   0  -1 2412.36   80.29
  -2   0   1 2569.04   80.69
  -2   0   1 2622.54   79.79
  -2   0   1 2534.25   79.09
  -2   0   1 2581.24   80.99
   1   0  -1 1720.23   57.49
   1   0  -1 1687.33   54.69
   1   0  -1 1724.13   54.69
   1   0  -1 1696.03   54.19
   1   0  -1 1639.74   54.29
   1   0  -1 1694.63   54.89
  -1   0   1 1738.03   54.09
  -1   0   1 1774.42   54.79
  -1   0   1 1761.22   54.49
  -1   0   1 1711.83   54.89
   1   0   1 3466.25  105.99
   1   0   1 3350.46  107.79
   2   0   1   65.29    4.20
   2   0   1   69.29    2.60
   2   0   1   67.19    2.60
   3   0   1  246.88   11.50
   3   0   1  256.27    9.10
   3   0   1  255.47   11.00
   3   0   1  250.47    9.00
   4   0   1  577.44   22.30
   4   0   1  608.84   23.50
   4   0   1  580.74   20.20
   4   0   1  567.34   19.60
   4   0   1  581.34   23.40
   5   0   1 2075.39   67.89
   5   0   1 2129.79   68.29
   5   0   1 2096.39   80.39
   5   0   1 2155.88   72.29
   5   0   1 2172.98   73.49
   6   0   1 1375.26   51.49
   6   0   1 1378.86   49.10
   6   0   1 1373.06   44.90
   6   0   1 1388.16   44.90
   6   0   1 1361.96   49.50
   6   0   1 1351.66   59.59
   7   0   1   35.10    7.50
   7   0   1   35.50   11.40
   7   0   1   33.50    2.40
   7   0   1   33.30    5.80
   7   0   1   36.90    5.50
   8   0   1  195.98   18.80
   8   0   1  233.38   16.30
   8   0   1  226.58   23.20
   8   0   1  206.78   13.40
   8   0   1  214.08   12.50
   8   0   1  208.78   16.60
   9   0   1    9.90    7.10
   9   0   1   15.70    8.00
   9   0   1   20.20   16.20
   9   0   1   15.50    6.00
   9   0   1   19.90   10.10
  10   0   1    3.10    8.00
  10   0   1   14.70   10.10
  10   0   1   20.10   12.30
  11   0   1   92.69   22.70
  10  -1  -1   39.10   16.30
  10  -1  -1   49.00   11.80
   9  -1  -1   26.70   10.90
   9  -1  -1   20.90   12.10
   9  -1  -1   32.10   10.70
   8  -1  -1    5.30    5.10
   8  -1  -1   13.10   11.10
   8  -1  -1   18.20    6.60
   8  -1  -1   23.00    8.10
   8  -1  -1   13.40    6.70
   8  -1  -1    8.30    6.90
   7  -1  -1  145.59   11.10
   7  -1  -1  148.29   13.70
   7  -1  -1  160.98   12.20
   7  -1  -1  153.48   11.20
   7  -1  -1  121.99   17.50
   7  -1  -1  151.98    6.90
   6  -1  -1  165.58    7.90
   6  -1  -1  167.38   11.10
   6  -1  -1  158.68   13.00
   6  -1  -1  174.48   11.70
   6  -1  -1  159.88    7.90
   5  -1  -1 3581.84  115.19
   5  -1  -1 3759.82  115.49
   5  -1  -1 3682.83  120.59
   5  -1  -1 3666.13  120.89
   5  -1  -1 3458.05  120.39
   4  -1  -1 2976.60  108.29
   4  -1  -1 3096.19  101.79
   4  -1  -1 3105.79   97.39
   4  -1  -1 3121.79  102.29
   4  -1  -1 3026.30  101.29
   3  -1  -1    3.70    2.40
   3  -1  -1    3.30    1.40
   3  -1  -1    4.10    2.20
   3  -1  -1    5.60    3.40
   2  -1  -1 1278.07   44.70
   2  -1  -1 1300.37   41.90
   2  -1  -1 1283.07   46.50
  -2   1   1 1246.18   41.00
  -2   1   1 1348.77   41.20
   1  -1  -1 1964.00   62.19
   1  -1  -1 1968.50   63.99
   1  -1  -1 1960.60   62.39
   1  -1  -1 1937.91   61.59
   1  -1  -1 1897.21   63.89
  -1   1   1 1943.81   62.19
  -1   1   1 2000.80   64.19
   0  -1  -1   99.09    5.80
   0  -1  -1   72.69    4.30
   0  -1  -1   76.09    4.10
   0  -1  -1   71.89    3.90
   0  -1  -1   84.29    4.40
   0   1   1   88.49    3.70
   0   1   1   79.79    4.40
   0   1   1   72.09    4.40
   0   1   1   87.29    5.90
   0   1   1   80.49    4.00
  -1  -1  -1  189.28    8.90
  -1  -1  -1  158.18    7.60
  -1  -1  -1  186.08    6.80
  -1  -1  -1  186.88    7.80
  -1  -1  -1  190.88    6.80
   1   1   1  192.98    7.00
   1   1   1  198.58    8.90
   1   1   1  195.28    7.90
   1   1   1  192.78    8.90
   1   1   1  193.08    8.60
  -2  -1  -1 1649.04   50.79
  -2  -1  -1 1616.34   51.79
  -2  -1  -1 1557.74   51.89
  -2  -1  -1 1648.64   52.29
  -2  -1  -1 1584.34   55.49
   2   1   1 1737.63   50.49
   2   1   1 1544.75   50.59
   2   1   1 1626.64   55.89
   2   1   1 1510.55   52.19
   2   1   1 1584.44   52.19
   2   1   1 1590.74   52.09
  -3  -1  -1   35.90    2.60
  -3  -1  -1   33.80    3.00
  -3  -1  -1   41.10    4.10
  -3  -1  -1   38.80    2.90
   3   1   1   36.00    2.20
   3   1   1   37.90    7.00
   3   1   1   36.30    4.40
   3   1   1   32.10    3.60
   3   1   1   36.80    2.80
   3   1   1   32.20    3.30
  -4  -1  -1  143.29    5.00
  -4  -1  -1  132.89    4.90
   4   1   1  135.69    7.30
   4   1   1  134.19    7.60
   4   1   1  144.59    7.00
   4   1   1  132.59    8.60
   4   1   1  137.49   12.10
   4   1   1  123.29    9.80
   4   1   1  145.49    6.70
   5   1   1    0.60    1.40
   5   1   1    2.00    2.00
   5   1   1    2.40    2.10
   5   1   1    1.40    4.60
   5   1   1   -0.10    1.70
   5   1   1    4.30    3.20
   6   1   1  557.84   22.10
   6   1   1  553.04   32.50
   6   1   1  598.04   22.80
   6   1   1  565.54   22.40
   6   1   1  597.04   25.80
   6   1   1  547.55   21.30
   7   1   1    2.20    1.60
   7   1   1    5.70    2.30
   7   1   1    6.70    5.00
   7   1   1    4.20    2.20
   7   1   1    7.70    7.30
   7   1   1    6.20    2.70
   7   1   1    6.10    3.00
   8   1   1    9.10    3.80
   8   1   1    1.60    8.10
   8   1   1    5.70    5.70
   8   1   1   12.30    3.10
   8   1   1    1.90    2.30
   8   1   1    9.20    2.80
   9   1   1   44.90   10.30
   9   1   1   58.49    3.90
   9   1   1   53.39    7.50
   9   1   1   53.49   14.10
  10   1   1   -1.20    6.90
  10   1   1   10.70    8.50
  10   1   1   -6.20    7.90
  10   1   1   13.10   12.50
  11   1   1   32.90   11.00
  11   1   1   34.80   17.90
  10  -2  -1  205.68   20.90
  10  -2  -1  238.98   44.90
   9  -2  -1   21.50   13.30
   9  -2  -1   32.00   10.20
   9  -2  -1   26.20    9.40
   8  -2  -1   13.10    6.00
   8  -2  -1   24.90   12.50
   8  -2  -1   18.00    7.40
   8  -2  -1   13.00    6.60
   8  -2  -1   16.70    8.30
   7  -2  -1    5.30    3.90
   7  -2  -1   -3.60    3.80
   7  -2  -1    2.50    3.40
   7  -2  -1   -4.50    4.70
   7  -2  -1   -5.00    5.10
   6  -2  -1   59.19    6.70
   6  -2  -1   62.89    4.50
   6  -2  -1   67.99    7.00
   6  -2  -1   71.29   10.30
   6  -2  -1   69.99    9.80
   6  -2  -1   62.69    9.30
   6  -2  -1   64.49    4.30
   5  -2  -1 1461.95   55.69
   5  -2  -1 1432.56   50.89
   5  -2  -1 1453.25   57.69
   5  -2  -1 1471.95   48.60
   4  -2  -1 1063.99   36.10
   4  -2  -1 1053.09   37.90
   4  -2  -1 1020.20   44.10
   4  -2  -1 1074.09   41.60
   4  -2  -1 1103.99   42.80
   4  -2  -1 1112.89   36.80
   3  -2  -1  231.78   13.80
   3  -2  -1  239.08   10.90
   3  -2  -1  230.78   10.10
   3  -2  -1  232.38   14.10
   3  -2  -1  237.98   10.30
   2  -2  -1 1199.18   40.00
   2  -2  -1 1182.08   42.00
   2  -2  -1 1149.69   43.50
   2  -2  -1 1146.29   40.10
   2  -2  -1 1189.88   39.90
  -2   2   1 1260.07   38.90
  -2   2   1 1161.68   39.10
   1  -2  -1  700.43   25.90
   1  -2  -1  685.03   30.20
   1  -2  -1  700.33   25.30
   1  -2  -1  748.13   25.70
   1  -2  -1  695.73   25.40
   1  -2  -1  765.82   28.30
  -1   2   1  696.23   25.50
  -1   2   1  764.42   24.80
   0  -2  -1  250.37   12.00
   0  -2  -1  258.67   11.40
   0  -2  -1  265.37   11.80
   0  -2  -1  286.37   12.70
   0  -2  -1  233.88   11.20
   0   2   1  252.37   11.40
   0   2   1  269.97   13.80
   0   2   1  251.77   11.00
   0   2   1  242.18   11.40
   0   2   1  256.17   12.10
   0   2   1  277.57    9.30
  -3  -2  -1   20.90    2.20
  -3  -2  -1   22.70    3.60
  -3  -2  -1   15.50    5.20
   3   2   1   19.80    3.90
   3   2   1   18.20    4.00
   3   2   1   20.60    5.60
   3   2   1   23.00    2.60
   3   2   1   24.20    5.20
   3   2   1   14.80    3.30
  -4  -2  -1 2173.08   71.19
  -4  -2  -1 2101.59   72.19
  -4  -2  -1 2192.18   69.59
   4   2   1 2151.08   72.09
   4   2   1 2092.49   78.69
   4   2   1 2090.99   72.49
   4   2   1 2217.58   72.59
   4   2   1 2213.48   69.19
  -5  -2  -1  957.20   32.00
  -5  -2  -1  908.11   32.10
   5   2   1  922.81   35.00
   5   2   1  874.81   33.80
   5   2   1  891.61   34.40
   5   2   1  902.51   42.10
   6   2   1 2490.25   85.09
   6   2   1 2562.24   81.99
   6   2   1 2579.74   86.69
   6   2   1 2443.66   84.69
   6   2   1 2494.15   96.69
   7   2   1  242.18   15.20
   7   2   1  207.28   13.70
   7   2   1  220.08   12.90
   7   2   1  188.48   20.60
   7   2   1  215.88   11.10
   8   2   1   32.10   13.30
   8   2   1   46.40    6.90
   8   2   1   39.30    6.40
   8   2   1   39.30    5.60
   8   2   1   31.40    8.10
   9   2   1    3.60    3.80
   9   2   1    3.30    3.30
   9   2   1    5.10    3.90
   9   2   1    2.50    5.90
  10   2   1   15.40   11.50
  10   2   1   26.70    4.80
  10   2   1   20.60   13.90
  10   2   1    3.40    6.80
  10   2   1   19.70    4.50
  11   2   1    2.20    8.00
  11   2   1   16.40   17.90
   9  -3  -1   58.19   13.30
   9  -3  -1   77.79   13.10
   8  -3  -1   -7.90    6.40
   8  -3  -1    0.10    5.80
   7  -3  -1   37.10    8.80
   7  -3  -1   64.89   11.20
   7  -3  -1   47.60    8.60
   7  -3  -1   39.30   10.20
   6  -3  -1    1.90    1.90
   6  -3  -1   12.30    5.90
   6  -3  -1    4.20    4.00
   6  -3  -1    1.90    1.80
   6  -3  -1    2.50    4.30
   6  -3  -1   -0.50    4.50
   5  -3  -1   71.19   11.10
   5  -3  -1   49.50    6.20
   5  -3  -1   56.29    5.20
   5  -3  -1   49.90    9.10
   5  -3  -1   65.99    5.10
   5  -3  -1   88.59    8.30
   4  -3  -1  723.23   32.00
   4  -3  -1  620.84   29.00
   4  -3  -1  638.64   33.50
   4  -3  -1  702.43   26.20
   4  -3  -1  680.83   27.00
   4  -3  -1  730.53   32.90
   3  -3  -1  502.45   19.90
   3  -3  -1  482.45   24.40
   3  -3  -1  486.55   19.90
   3  -3  -1  469.75   19.50
   3  -3  -1  430.76   19.80
   3  -3  -1  496.45   18.30
   2  -3  -1    5.00    2.60
   2  -3  -1    2.50    0.90
   2  -3  -1    1.20    2.60
   2  -3  -1    2.80    2.50
   2  -3  -1   -0.50    2.60
   2  -3  -1    5.30    4.20
   1  -3  -1 2066.09   70.29
   1  -3  -1 2041.30   70.89
   1  -3  -1 2063.49   70.39
   1  -3  -1 2264.27   74.69
   1  -3  -1 2056.29   73.29
  -1   3   1 2126.39   70.19
  -1   3   1 2101.59   69.39
   0  -3  -1    1.40    2.50
   0  -3  -1   -3.60    2.20
   0  -3  -1   -2.20    2.10
   0  -3  -1   -2.50    1.90
   0  -3  -1    3.90    2.80
   0   3   1    0.10    2.00
   0   3   1    0.00    2.20
   0   3   1    0.70    1.00
   0   3   1   -2.50    4.30
   0   3   1    0.00    2.40
  -1  -3  -1 2797.92   90.49
  -1  -3  -1 2585.64   90.59
  -1  -3  -1 2609.44   89.19
  -1  -3  -1 2991.10   92.69
  -1  -3  -1 2596.54   97.39
  -1  -3  -1 2748.53   88.29
   1   3   1 2840.82   90.69
   1   3   1 2492.35   89.29
   1   3   1 2741.73   89.39
   1   3   1 2614.74   90.19
  -2  -3  -1 1425.66   48.90
  -2  -3  -1 1499.05   52.29
  -2  -3  -1 1496.55   53.89
  -2  -3  -1 1457.95   51.39
  -2  -3  -1 1451.85   49.80
   2   3   1 1416.56   53.29
   2   3   1 1528.85   52.09
   2   3   1 1456.45   52.19
   2   3   1 1549.74   53.79
  -3  -3  -1  252.87   10.10
  -3  -3  -1  251.47   15.60
  -3  -3  -1  254.37   10.30
  -3  -3  -1  241.78   12.60
  -3  -3  -1  228.58   15.20
  -3  -3  -1  254.17   12.30
  -3  -3  -1  231.68   13.30
   3   3   1  256.77   10.90
   3   3   1  258.77   16.80
   3   3   1  264.27   14.00
   3   3   1  258.47   13.50
   3   3   1  264.87   16.00
  -4  -3  -1  413.76   18.80
  -4  -3  -1  404.76   15.40
   4   3   1  410.86   19.30
   4   3   1  395.66   23.00
   4   3   1  423.16   15.90
   4   3   1  431.26   18.50
   4   3   1  405.56   19.50
  -5  -3  -1    5.50    2.10
   5   3   1    3.00    3.20
   5   3   1    2.40    3.20
   5   3   1    2.80    4.90
   5   3   1    3.90    3.40
  -6  -3  -1   76.49    6.40
  -6  -3  -1   64.09    5.40
   6   3   1   74.39   16.60
   6   3   1   68.79    8.10
   6   3   1   66.29    7.90
   6   3   1   71.59    5.50
   6   3   1   68.89    7.90
   7   3   1    5.60    4.30
   7   3   1    7.10    4.50
   7   3   1   -2.80    5.90
   7   3   1    2.90    3.20
   7   3   1   -0.70    2.20
   8   3   1    6.90    3.10
   8   3   1    4.00    4.40
   8   3   1   13.90    6.40
   8   3   1   -1.10    8.20
   8   3   1    9.80    4.80
   9   3   1    7.30    3.80
   9   3   1    8.70    5.90
   9   3   1   10.10    4.60
  10   3   1  192.68   13.20
  10   3   1  169.88   23.90
  10   3   1  139.09   15.50
  11   3   1  -10.60    6.70
  11   3   1    6.50    4.00
   8  -4  -1  138.69   16.10
   8  -4  -1  114.09   16.00
   8  -4  -1  113.59   15.50
   7  -4  -1   16.20    7.40
   7  -4  -1   22.90    8.80
   7  -4  -1   42.50   12.90
   7  -4  -1   25.20    8.80
   6  -4  -1    0.80    2.40
   6  -4  -1    8.00    6.50
   6  -4  -1    4.70    5.20
   6  -4  -1    2.30    2.60
   5  -4  -1    3.10    3.00
   5  -4  -1    1.60    3.00
   5  -4  -1    1.20    2.00
   5  -4  -1    9.50    3.40
   5  -4  -1   -1.10    4.10
   5  -4  -1   10.20    6.10
   4  -4  -1  142.19    9.90
   4  -4  -1  158.08    9.90
   4  -4  -1  171.58   15.30
   3  -4  -1   -1.10    3.10
   3  -4  -1   -2.50    2.50
   3  -4  -1   -0.20    4.30
   2  -4  -1  107.49   11.00
   2  -4  -1   94.79    8.50
   2  -4  -1   90.89   10.50
   2  -4  -1  100.79    8.40
  -2   4   1  105.49    7.40
  -2   4   1  104.29    7.00
   1  -4  -1  216.08   12.90
   1  -4  -1  237.58   15.70
   1  -4  -1  216.18   14.50
   1  -4  -1  245.08   14.10
   1  -4  -1  284.27   15.50
  -1   4   1  253.27   12.70
  -1   4   1  231.88   12.60
   0  -4  -1  384.46   18.60
   0  -4  -1  344.57   17.40
   0  -4  -1  356.66   19.00
   0  -4  -1  375.76   18.60
   0   4   1  378.66   12.20
   0   4   1  339.77   21.20
   0   4   1  378.26   17.10
   0   4   1  346.37   18.40
  -1  -4  -1  120.69    9.30
  -1  -4  -1  116.39   10.00
  -1  -4  -1  119.59    9.20
  -1  -4  -1  120.99    9.20
  -1  -4  -1  113.79    9.60
   1   4   1  116.49    8.80
   1   4   1  114.79    9.40
   1   4   1  136.39   10.80
  -2  -4  -1 3957.20  129.99
  -2  -4  -1 3922.51  128.29
  -2  -4  -1 3939.81  131.09
  -2  -4  -1 4097.19  134.29
  -2  -4  -1 4069.59  132.49
  -2  -4  -1 3922.01  133.09
   2   4   1 4106.79  132.99
   2   4   1 4025.80  131.29
   2   4   1 3789.22  131.69
  -3  -4  -1   18.40    5.50
  -3  -4  -1   10.50    5.80
  -3  -4  -1   17.80    3.50
  -3  -4  -1   21.30    3.40
   3   4   1   15.40    4.50
   3   4   1   15.50    4.80
   3   4   1   13.50    5.90
  -4  -4  -1    1.90    1.40
  -4  -4  -1    0.70    4.00
  -4  -4  -1   -1.20    3.00
  -4  -4  -1    2.10    1.80
   4   4   1    3.00    2.20
   4   4   1    2.80    3.30
   4   4   1    0.70    4.30
   4   4   1    2.50    3.40
  -5  -4  -1   19.80    3.40
  -5  -4  -1   27.80    6.00
   5   4   1   24.60    6.40
   5   4   1   25.80    6.00
   5   4   1   22.50    4.10
   5   4   1   23.80    8.30
  -6  -4  -1   30.30    4.20
  -6  -4  -1   33.00    6.00
   6   4   1   29.20    6.70
   6   4   1   29.00    7.10
   6   4   1   36.70   10.90
   6   4   1   25.70    4.20
  -7  -4  -1   47.20    6.80
   7   4   1   67.19   10.10
   7   4   1   53.79    5.50
   7   4   1   50.69    9.70
   7   4   1   57.29    8.80
   7   4   1   55.39   13.80
   8   4   1  597.24   29.30
   8   4   1  617.64   23.90
   8   4   1  563.84   29.50
   8   4   1  632.54   30.20
   8   4   1  612.84   40.30
   9   4   1  122.99   12.70
   9   4   1  148.09   25.70
   9   4   1  136.09    8.70
   9   4   1  119.59   13.50
  10   4   1    5.20    8.10
  10   4   1   -7.20   10.10
  10   4   1    4.20    5.10
   8  -5  -1   -0.80    8.20
   8  -5  -1   16.20    9.50
   7  -5  -1   64.69   12.20
   7  -5  -1   91.09   14.90
   7  -5  -1   72.29   13.10
   6  -5  -1   -2.30    5.60
   6  -5  -1    2.20    3.10
   6  -5  -1   -2.90    4.90
   6  -5  -1    3.40    3.10
   5  -5  -1  105.79    9.20
   5  -5  -1   98.59   15.60
   5  -5  -1  102.79    8.50
   4  -5  -1   19.50    7.40
   4  -5  -1   23.60    5.40
   4  -5  -1   33.20    5.70
   3  -5  -1   18.50    5.50
   3  -5  -1   21.80    5.10
   3  -5  -1   25.10    5.70
   3  -5  -1   12.70    7.30
   2  -5  -1   36.30    7.20
   2  -5  -1   35.90    7.20
   2  -5  -1   34.50    8.30
   2  -5  -1   29.90    6.20
  -2   5   1   30.20    5.70
  -2   5   1   36.00    5.30
   1  -5  -1  101.29    9.70
   1  -5  -1   96.29    9.20
  -1   5   1   98.39    8.30
   0  -5  -1  488.95   24.20
   0  -5  -1  479.75   24.00
   0  -5  -1  495.35   25.30
   0  -5  -1  504.95   23.30
   0  -5  -1  495.55   23.30
   0   5   1  447.76   21.50
   0   5   1  439.26   27.50
  -1  -5  -1   32.80    6.80
  -1  -5  -1   28.70    7.20
  -1  -5  -1   26.40    7.00
  -1  -5  -1   25.70    5.80
   1   5   1   21.30    5.40
   1   5   1   30.00    4.30
   1   5   1   32.30    8.50
   1   5   1   27.60    5.20
  -2  -5  -1  378.76   20.70
  -2  -5  -1  365.56   21.70
  -2  -5  -1  352.26   18.70
  -2  -5  -1  330.07   18.70
   2   5   1  388.76   20.80
   2   5   1  376.56   19.50
  -3  -5  -1   51.39    6.90
  -3  -5  -1   55.69   10.50
  -3  -5  -1   62.59    9.80
   3   5   1   51.29    9.70
   3   5   1   45.90    8.40
  -4  -5  -1    6.90    2.80
  -4  -5  -1    8.00    4.90
  -4  -5  -1    0.60    5.40
   4   5   1    0.50    4.90
   4   5   1   13.10    4.60
   4   5   1    8.80    5.00
  -5  -5  -1  476.85   24.80
  -5  -5  -1  498.15   17.70
   5   5   1  514.55   25.60
   5   5   1  476.75   20.80
   5   5   1  444.06   26.20
   5   5   1  442.06   28.30
  -6  -5  -1  120.69   11.20
   6   5   1  102.19   11.50
   6   5   1  105.49   14.80
   6   5   1  131.69   12.00
   6   5   1  107.69    8.10
  -7  -5  -1   10.00    5.10
   7   5   1   19.60    7.00
   7   5   1   19.00   10.40
   7   5   1   25.80    4.80
   7   5   1   13.60    4.60
   8   5   1   11.00    3.60
   8   5   1   -4.10    5.10
   8   5   1   18.10   10.40
   8   5   1    5.80    5.80
   9   5   1   16.00    7.50
   9   5   1   29.00   14.80
   9   5   1   24.50    4.10
  10   5   1   15.90    6.60
  10   5   1    8.70   13.60
  11   5   1    1.20    9.40
  11   5   1   16.10    7.80
  11   5   1  -23.20   11.20
   7  -6  -1   -7.90    7.60
   6  -6  -1    9.90    3.70
   6  -6  -1    6.10    6.80
   6  -6  -1    3.00    7.30
   5  -6  -1   74.29   14.80
   5  -6  -1   55.89   12.40
   5  -6  -1   60.99    8.00
   4  -6  -1    2.90    6.90
   4  -6  -1    2.40    4.10
   4  -6  -1    3.00    4.50
   3  -6  -1  329.17   19.40
   3  -6  -1  324.07   19.40
   3  -6  -1  329.97   17.50
   3  -6  -1  346.17   25.20
   2  -6  -1  797.52   33.90
   2  -6  -1  807.32   40.40
   2  -6  -1  726.53   34.10
   2  -6  -1  777.32   35.20
   1  -6  -1  489.65   25.80
   1  -6  -1  475.25   25.00
   1  -6  -1  495.05   25.10
   1  -6  -1  486.25   28.50
  -1   6   1  503.45   22.70
   0  -6  -1   95.79    9.60
   0  -6  -1   92.69   10.90
   0  -6  -1  100.59   11.70
   0  -6  -1   89.09   12.80
   0   6   1   91.89    9.20
   0   6   1   88.29   15.90
  -1  -6  -1    0.60    4.50
  -1  -6  -1   -1.90    2.70
  -1  -6  -1    2.40    4.50
  -1  -6  -1   -3.50    4.30
   1   6   1   12.60    7.90
   1   6   1    0.90    3.00
   1   6   1   -2.10    1.90
   1   6   1    4.90    4.40
  -2  -6  -1  216.98   16.70
  -2  -6  -1  228.38   17.90
  -2  -6  -1  233.78   15.90
   2   6   1  234.58   17.70
   2   6   1  228.38   15.80
   2   6   1  198.18   14.70
  -3  -6  -1   -6.30    2.70
  -3  -6  -1    2.50    5.30
  -3  -6  -1   -0.90    5.30
   3   6   1    3.80    5.30
   3   6   1    0.30    4.80
  -4  -6  -1  251.27   18.00
  -4  -6  -1  202.88   18.40
  -4  -6  -1  234.88   13.90
   4   6   1  232.78   18.60
   4   6   1  218.68   16.60
  -5  -6  -1   31.90    4.90
  -5  -6  -1   37.50   11.30
  -5  -6  -1   58.79   11.10
   5   6   1   48.30   12.00
  -6  -6  -1  382.76   23.30
  -6  -6  -1  383.76   13.60
  -6  -6  -1  352.06   13.50
   6   6   1  390.76   23.50
   6   6   1  389.56   27.90
  -7  -6  -1  204.18   15.80
   7   6   1  194.08   16.90
   7   6   1  206.98   22.00
   7   6   1  183.18   15.70
   8   6   1  201.48   24.10
   8   6   1  185.88   11.80
   8   6   1  205.48   18.00
   9   6   1  441.96   27.90
   9   6   1  431.66   35.80
  10   6   1   22.60   13.10
  10   6   1   33.60    9.80
  11   6   1    9.20    6.80
  11   6   1   -2.60   11.20
  11   6   1    2.80    9.80
   6  -7  -1   -1.30    3.70
   5  -7  -1  290.17   25.50
   5  -7  -1  278.47   16.40
   5  -7  -1  281.97   26.30
   4  -7  -1   31.20    7.40
   4  -7  -1   22.20    8.90
   4  -7  -1   39.70   10.90
   3  -7  -1  112.19   17.90
   3  -7  -1  148.59   16.30
   3  -7  -1  130.89   12.90
   2  -7  -1  393.16   27.60
   2  -7  -1  317.27   21.70
   2  -7  -1  345.77   20.10
   1  -7  -1  169.68   14.40
   1  -7  -1  168.08   15.40
   1  -7  -1  188.38   18.10
   1  -7  -1  135.49   13.80
  -1   7   1  157.88   12.10
   0  -7  -1    2.10    5.20
   0  -7  -1   -0.70    5.20
   0  -7  -1   -0.70    5.40
   0  -7  -1   -2.50    3.90
   0   7   1    3.60    7.00
   0   7   1    0.50    4.30
  -1  -7  -1  101.49   14.10
  -1  -7  -1   88.49   14.40
  -1  -7  -1  103.29   15.20
   1   7   1   75.39   15.50
   1   7   1   81.19   11.10
  -2  -7  -1    8.30    6.70
  -2  -7  -1   -2.50    4.50
  -2  -7  -1    2.00    5.20
   2   7   1    1.40    4.70
   2   7   1    1.00    7.00
   2   7   1    5.70    4.60
   2   7   1    1.80    3.10
  -3  -7  -1    4.90    6.10
  -3  -7  -1   16.30    9.00
  -3  -7  -1    3.20    4.00
   3   7   1    9.30    7.20
   3   7   1   12.70    6.50
  -4  -7  -1  140.39   16.70
  -4  -7  -1  162.08   12.70
  -4  -7  -1  144.69   15.10
   4   7   1  177.08   15.80
   4   7   1  142.89   15.30
  -5  -7  -1   39.10    6.20
  -5  -7  -1   26.20   11.00
  -5  -7  -1   43.10   10.00
   5   7   1   36.90   10.30
   5   7   1   37.40   11.70
  -6  -7  -1  452.65   18.80
  -6  -7  -1  436.56   27.10
   6   7   1  460.15   31.50
   6   7   1  428.06   27.20
  -7  -7  -1   20.70    8.30
   7   7   1   26.30    9.80
   7   7   1   11.30   10.10
   8   7   1   88.19   18.70
   9   7   1   67.79   19.90
   9   7   1   63.39   13.90
  10   7   1   26.30   13.30
  10   7   1    1.70    6.60
  11   7   1    2.80   12.00
  11   7   1   -7.70   10.30
  11   7   1    3.60    7.30
   4  -8  -1   43.90   13.00
   4  -8  -1   49.80    9.10
   4  -8  -1   24.10    9.80
   3  -8  -1    8.70    5.90
   3  -8  -1   -2.70    6.50
   2  -8  -1  135.99   14.80
   2  -8  -1  109.89   18.20
   2  -8  -1  116.39   11.80
   1  -8  -1  153.38   16.60
   1  -8  -1  146.89   20.50
   0  -8  -1   30.00    8.50
   0  -8  -1   79.09   14.60
   0  -8  -1   51.09   11.20
   0   8   1   50.19   13.10
   0   8   1   55.69   10.00
  -1  -8  -1  115.19   16.70
  -1  -8  -1   99.09   14.70
  -1  -8  -1  121.09   18.10
   1   8   1  113.79   15.80
   1   8   1  109.19   12.10
  -2  -8  -1   10.90    7.70
  -2  -8  -1   11.40    6.60
  -2  -8  -1   14.30    8.50
   2   8   1   10.20    6.10
   2   8   1    7.30    9.00
  -3  -8  -1   39.50   11.50
  -3  -8  -1   24.30   10.20
  -3  -8  -1   25.00    7.90
   3   8   1   28.50    6.80
   3   8   1   39.40    9.80
   3   8   1   34.00   11.90
  -4  -8  -1   52.09    9.60
  -4  -8  -1   40.20   11.20
  -4  -8  -1   53.69   14.40
   4   8   1   74.69   14.90
   4   8   1   67.09   10.70
   4   8   1   64.79   12.20
  -5  -8  -1    8.00    4.50
  -5  -8  -1   25.10    9.90
  -5  -8  -1    2.20    8.90
   5   8   1    4.20    6.90
   5   8   1    9.30    6.60
  -6  -8  -1   29.60    5.40
  -6  -8  -1   27.30    9.30
   6   8   1   32.30   12.50
   6   8   1   49.80   12.50
  -7  -8  -1   84.79   13.80
  -7  -8  -1   63.69    7.80
   7   8   1   87.99   18.90
   7   8   1   77.39   15.50
   8   8   1   45.70   12.50
   8   8   1   72.39   18.40
   9   8   1   94.29   16.50
   9   8   1  118.79   24.10
   3  -9  -1   13.70    7.00
   3  -9  -1    6.00    8.70
   2  -9  -1   -2.10    7.50
   2  -9  -1   23.80    8.20
   1  -9  -1  409.76   28.10
   1  -9  -1  421.76   31.60
   1  -9  -1  398.86   25.50
   0  -9  -1   12.70    8.20
   0  -9  -1   16.00    9.30
   0  -9  -1   16.50    8.60
  -1  -9  -1    0.00    6.90
  -1  -9  -1   -5.20    6.80
  -1  -9  -1   11.30    8.60
   1   9   1   24.50   10.00
  -2  -9  -1   48.20   13.30
  -2  -9  -1   45.40   11.10
  -2  -9  -1   65.69   14.10
   2   9   1   30.30   12.80
   2   9   1   53.89   11.40
  -3  -9  -1   40.10   14.30
  -3  -9  -1   30.00   10.30
  -3  -9  -1   26.80    9.10
   3   9   1   35.60    9.90
   3   9   1   39.00   13.90
   3   9   1   23.90    6.30
  -4  -9  -1    5.50    7.70
  -4  -9  -1    9.80   10.50
  -4  -9  -1    9.10    7.30
   4   9   1   -1.80    9.20
   4   9   1    3.90    6.80
  -5  -9  -1   26.10    9.30
  -5  -9  -1   18.00    6.30
   5   9   1    8.90    7.70
   5   9   1   12.20   11.40
   5   9   1   19.60    8.40
  -6  -9  -1   15.60    7.20
  -6  -9  -1   -1.40    4.40
   6   9   1    0.20    9.10
   6   9   1    7.60    8.00
   6   9   1   -4.30    7.20
   7   9   1    6.20    9.10
   7   9   1   10.00    9.80
   8   9   1   77.79   18.60
   8   9   1  123.99   19.60
   9   9   1   83.19   17.00
   9   9   1   78.89   20.70
  10   9   1  122.09   25.80
  10   9   1  114.09   22.30
  10   9   1  129.99   20.40
   1 -10  -1   14.90   10.50
   1 -10  -1   18.20    8.80
   0 -10  -1   66.99   14.10
   0 -10  -1   64.79   16.80
  -1 -10  -1  200.18   21.30
  -1 -10  -1  195.18   21.00
  -1 -10  -1  222.08   23.10
  -2 -10  -1  390.66   29.40
  -2 -10  -1  369.16   28.00
   2  10   1  317.97   29.20
  -3 -10  -1    8.20    8.20
  -3 -10  -1   28.40   11.70
  -3 -10  -1   18.80   12.30
   3  10   1   12.70   11.70
   3  10   1   17.10   12.40
  -4 -10  -1    2.70   10.10
  -4 -10  -1    6.90    8.70
   4  10   1   -9.50   11.00
   4  10   1  -12.60    5.50
   4  10   1   11.40    8.90
  -5 -10  -1   43.80   12.50
  -5 -10  -1   45.60   10.30
   5  10   1   30.20   10.30
   5  10   1   40.60   12.00
   5  10   1   44.70   18.00
  -6 -10  -1   78.09   12.00
  -6 -10  -1  110.09   18.50
   6  10   1  103.09   17.70
   6  10   1   65.99   17.80
   6  10   1   67.39   13.40
  -7 -10  -1   73.89   15.60
   7  10   1   62.19   15.50
   7  10   1   92.19   20.80
   7  10   1   81.09   17.20
   8  10   1   -2.80    8.50
   8  10   1   14.40   10.80
   8  10   1   -2.80   10.90
   9  10   1    1.90    8.90
   9  10   1    8.10   11.70
   9  10   1   -4.60   11.00
  -1 -11  -1   23.50   11.00
  -1 -11  -1   22.00   10.00
  -2 -11  -1   52.59   20.40
  -3 -11  -1   15.90   10.20
  -3 -11  -1    9.40    8.50
  -4 -11  -1   38.70   11.80
  -4 -11  -1   84.09   17.70
   4  11   1   47.20   18.40
  -5 -11  -1    6.40   11.70
  -5 -11  -1    0.80    8.40
   5  11   1   11.70   13.50
   5  11   1  -21.30   13.50
  -6 -11  -1  -17.80    7.90
  -6 -11  -1   17.10   12.10
   6  11   1  -13.10   13.20
   6  11   1   -1.00   10.50
   7  11   1   -9.20   10.90
   7  11   1    6.70   12.20
   7  11   1   17.20   12.00
   8  11   1   62.19   18.30
   8  11   1   69.09   21.30
  -4 -12  -1   -8.80    8.30
  -4 -12  -1   23.20   14.40
  -5 -12  -1   38.50   12.70
  -5 -12  -1  -13.70   12.90
  -6 -12  -1   20.90   16.50
   6  12   1  -15.50   31.70
   7  12   1   -2.00   25.60
   8  11  -2    0.40   16.20
   8  11  -2    6.60   14.20
   8  11  -2   28.10   13.20
   7  11  -2    6.40   14.40
   7  11  -2   14.10   16.10
   7  11  -2   17.60   12.10
   6  11  -2  106.19   25.10
   6  11  -2  150.38   24.60
  -6 -11   2  159.98   24.00
  -5 -11   2  256.47   27.40
  -5 -11   2  188.28   22.40
  -5 -11   2  174.18   20.40
  -4 -11   2   82.99   16.50
  -4 -11   2  123.29   20.30
  -3 -11   2   12.60   11.20
  -3 -11   2   20.20   14.10
  -2 -11   2   34.00   10.90
  -2 -11   2  -18.40   11.00
  -2 -11   2    0.70    8.00
  -1 -11   2  -20.60   11.90
   9  10  -2  132.99   27.50
   9  10  -2  115.79   19.00
   8  10  -2   10.40   10.80
   8  10  -2  -10.90   10.90
   7  10  -2   46.00   14.90
   7  10  -2   30.90   15.00
  -7 -10   2   80.99   16.70
   6  10  -2   63.09   17.00
   6  10  -2   89.29   17.60
  -6 -10   2  102.39   17.90
  -6 -10   2   46.80   11.10
  -6 -10   2   63.89   16.80
   5  10  -2  652.73   39.30
   5  10  -2  594.34   39.70
  -5 -10   2  648.24   42.20
  -5 -10   2  651.13   35.50
  -5 -10   2  671.33   45.60
   4  10  -2  774.02   41.40
   4  10  -2  734.43   44.60
  -4 -10   2  795.62   49.90
  -4 -10   2  739.33   45.00
  -4 -10   2  738.13   41.20
   3  10  -2   28.10   13.20
  -3 -10   2   45.20   16.50
  -3 -10   2    5.00    8.80
  -3 -10   2   12.30   11.10
  -2 -10   2   10.30    8.40
  -2 -10   2   39.50   14.90
  -2 -10   2   26.70   10.30
  -1 -10   2   36.20   15.00
  -1 -10   2   56.59   13.00
  -1 -10   2   51.89   13.70
   0 -10   2   54.59   13.90
   0 -10   2   92.19   14.90
   0 -10   2   24.30   13.90
   1 -10   2  415.26   39.80
   9   9  -2    5.50   12.00
   9   9  -2   21.90   11.10
   8   9  -2    9.70    9.60
   8   9  -2    3.60    9.70
   7   9  -2   36.50   14.10
   7   9  -2   34.10   12.20
  -7  -9   2   22.20   11.40
   6   9  -2    8.70    8.50
   6   9  -2   -0.40    8.60
  -6  -9   2   21.60    9.90
  -6  -9   2   -4.00   10.30
  -6  -9   2   -5.60    4.90
   5   9  -2   66.99   15.10
   5   9  -2   88.59   16.50
  -5  -9   2   82.99   12.60
  -5  -9   2   71.69   18.50
  -5  -9   2   96.59   17.80
   4   9  -2    6.90    7.20
   4   9  -2    1.00    7.80
  -4  -9   2   -8.80    5.50
  -4  -9   2   -4.30    9.80
  -4  -9   2    9.40    8.00
   3   9  -2  196.68   18.00
   3   9  -2  169.78   19.00
   3   9  -2  146.09   12.20
  -3  -9   2  129.99   18.20
  -3  -9   2  151.58   22.70
   2   9  -2   23.30   10.20
   2   9  -2   11.50    7.80
  -2  -9   2   13.90    9.80
  -2  -9   2    2.20    7.80
  -2  -9   2    7.10    8.60
  -1  -9   2  156.88   23.50
  -1  -9   2  127.59   20.00
  -1  -9   2  140.09   21.00
   0  -9   2   31.20   12.00
   0  -9   2   11.90    9.60
   0  -9   2   32.00   11.50
   1  -9   2  287.67   27.60
   1  -9   2  356.26   27.40
   1  -9   2  357.76   26.10
   2  -9   2  385.96   32.10
   2  -9   2  390.56   27.10
  10   8  -2   35.60   17.30
  10   8  -2   46.60   12.90
   9   8  -2  264.87   28.90
   9   8  -2  259.97   23.30
   8   8  -2   90.99   18.20
   8   8  -2   80.29   19.30
   7   8  -2    0.20    7.20
  -7  -8   2   31.80   10.00
  -7  -8   2   21.00   12.20
   6   8  -2    4.60    7.20
   6   8  -2    5.20    8.20
  -6  -8   2    2.60    6.40
  -6  -8   2    8.40   11.00
  -6  -8   2    0.90    4.30
   5   8  -2  109.19   16.00
   5   8  -2  135.29   18.20
  -5  -8   2  141.89   16.60
  -5  -8   2  109.59   12.20
  -5  -8   2  118.89   22.30
   4   8  -2   21.80    8.90
  -4  -8   2   17.20    8.90
  -4  -8   2   17.30    7.10
  -4  -8   2   -1.00    8.80
   3   8  -2   -2.00    5.70
   3   8  -2    7.40    7.50
  -3  -8   2   15.70   10.40
  -3  -8   2   -4.80    6.30
  -3  -8   2    2.90    6.00
   2   8  -2   13.90    6.60
   2   8  -2   21.00    9.50
  -2  -8   2   28.80    9.70
  -2  -8   2   11.40    8.30
  -2  -8   2   16.90   10.30
   1   8  -2   21.50    7.90
   1   8  -2    7.20    6.20
  -1  -8   2   -0.80    6.90
  -1  -8   2    4.50    7.80
  -1  -8   2    6.90    7.40
   0  -8   2   19.00   10.40
   1  -8   2  160.58   21.80
   1  -8   2  132.29   16.50
   1  -8   2  154.08   17.10
   2  -8   2   18.40    7.70
   2  -8   2    4.70    8.50
   2  -8   2   39.20   10.50
   3  -8   2   35.30   12.30
   3  -8   2   36.90    9.80
   4  -8   2   32.30   12.30
   4  -8   2   22.30    6.80
  10   7  -2   29.50   16.70
  10   7  -2   20.50   14.30
   9   7  -2  352.96   21.30
   9   7  -2  405.06   28.10
   9   7  -2  341.07   32.80
   8   7  -2 1060.59   58.29
   8   7  -2  997.60   42.80
   8   7  -2 1003.20   49.99
   7   7  -2   35.60   10.60
   7   7  -2   47.60   14.30
   7   7  -2   50.29    9.40
  -7  -7   2   44.60   11.20
   6   7  -2  195.08   18.70
   6   7  -2  190.08   20.00
   6   7  -2  214.38   15.20
  -6  -7   2  173.58   21.10
  -6  -7   2  181.28   11.30
  -6  -7   2  220.78   18.80
   5   7  -2  160.28   16.10
   5   7  -2  167.38   17.60
  -5  -7   2  150.48   16.70
  -5  -7   2  177.28   20.80
  -5  -7   2  160.58   12.40
   4   7  -2  901.71   43.50
   4   7  -2  892.61   42.10
  -4  -7   2  925.71   44.50
  -4  -7   2  857.01   47.40
  -4  -7   2  896.71   39.20
   3   7  -2  329.77   22.10
   3   7  -2  323.97   21.80
  -3  -7   2  371.56   24.60
  -3  -7   2  348.67   22.00
  -3  -7   2  338.97   26.50
   2   7  -2  287.27   19.80
   2   7  -2  288.37   19.80
  -2  -7   2  277.67   20.20
  -2  -7   2  271.77   22.90
  -2  -7   2  253.47   20.70
   1   7  -2   -1.00    3.20
   1   7  -2    3.50    2.10
   1   7  -2    7.10    4.90
   1   7  -2    5.10    6.20
  -1  -7   2  -10.50    5.40
  -1  -7   2    3.50    5.30
  -1  -7   2    2.30    5.90
   0   7  -2   12.90    5.40
   0   7  -2    3.30    4.20
   0  -7   2   -1.80    3.40
   0  -7   2    1.10    5.50
   0  -7   2    8.30    7.90
   0  -7   2   11.60    5.30
   0  -7   2    3.80    5.80
  -1   7  -2    7.70    8.20
   1  -7   2   23.40    8.10
   1  -7   2   44.70   11.60
   1  -7   2   19.50    8.60
   2  -7   2  481.35   28.40
   2  -7   2  453.55   30.00
   2  -7   2  434.66   32.20
   3  -7   2  156.28   14.60
   3  -7   2  194.48   17.00
   3  -7   2  165.08   22.10
   4  -7   2  160.58   22.20
   4  -7   2  140.99   12.60
   5  -7   2   29.90    9.30
   6  -7   2   14.50    3.80
  11   6  -2   67.09   21.80
  11   6  -2   66.59   13.40
  10   6  -2   44.50   16.60
  10   6  -2   48.10   11.20
   9   6  -2   17.60   14.10
   9   6  -2   40.40   11.60
   9   6  -2   38.30    6.60
   8   6  -2  148.99   12.00
   7   6  -2  270.27   25.60
   7   6  -2  295.37   22.10
   7   6  -2  297.67   17.20
  -7  -6   2  298.07   20.80
   6   6  -2   98.59   14.50
   6   6  -2   48.10   13.30
   6   6  -2   62.99    9.00
  -6  -6   2   51.19    4.40
  -6  -6   2   50.09    3.90
  -6  -6   2   75.09   12.10
  -6  -6   2   71.69   15.70
   5   6  -2   18.90    8.10
   5   6  -2   20.70    7.50
  -5  -6   2   22.10    9.50
  -5  -6   2   22.30    4.70
  -5  -6   2   22.50    7.70
   4   6  -2  140.59   13.80
   4   6  -2  135.39   14.60
   4   6  -2  165.88   14.40
  -4  -6   2  122.29   10.70
  -4  -6   2  145.19   14.50
  -4  -6   2  131.99   16.20
   3   6  -2 3802.52  134.09
   3   6  -2 3929.81  134.39
  -3  -6   2 3894.81  132.59
  -3  -6   2 4055.49  137.09
  -3  -6   2 3794.92  141.19
   2   6  -2 3401.86  113.99
   2   6  -2 3153.08  113.99
  -2  -6   2 3228.58  117.09
  -2  -6   2 3395.56  115.89
   1   6  -2   83.19    7.50
   1   6  -2   89.79   11.50
   1   6  -2   76.19   10.60
  -1  -6   2   93.39    9.50
  -1  -6   2   99.29   11.40
  -1  -6   2   64.89    7.70
  -1  -6   2   95.49   13.70
  -1  -6   2   86.39   14.50
   0   6  -2   -1.60    2.90
   0   6  -2    4.10    4.90
   0  -6   2   -1.50    4.30
   0  -6   2   -4.10    3.30
   0  -6   2   -4.50    4.20
   0  -6   2   -0.90    5.00
  -1   6  -2  143.59   11.00
   1  -6   2  169.88   15.60
   1  -6   2  157.68   16.30
   1  -6   2  147.79   14.00
   1  -6   2  145.89    9.40
   1  -6   2  145.79   12.60
  -2   6  -2  156.98   10.80
   2  -6   2  169.18   15.50
   2  -6   2  169.78   14.50
   2  -6   2  173.58   13.60
   2  -6   2  165.38    9.40
   2  -6   2  186.78   18.00
   3  -6   2  665.13   30.80
   3  -6   2  665.03   34.00
   3  -6   2  692.23   39.10
   3  -6   2  691.03   32.20
   4  -6   2  142.09   12.10
   4  -6   2  115.79   17.80
   4  -6   2  120.19   11.50
   4  -6   2  138.09   13.90
   5  -6   2  -11.70    5.40
   5  -6   2   18.60    4.70
   6  -6   2   17.00    9.40
   6  -6   2   17.30    7.80
   6  -6   2   27.60    4.00
  11   5  -2  -11.40    5.90
  11   5  -2   -7.20   12.40
  10   5  -2   24.10    8.30
  10   5  -2   18.70   13.50
  10   5  -2   23.30    5.20
   9   5  -2    2.40    6.00
   9   5  -2   -2.20    3.70
   9   5  -2   11.20   10.90
   8   5  -2  161.68   11.30
   8   5  -2  145.19   15.60
   8   5  -2  148.59   20.70
   7   5  -2  362.26   23.60
   7   5  -2  405.66   24.50
   7   5  -2  393.26   30.70
   7   5  -2  394.96   19.60
  -7  -5   2  417.06   23.50
   6   5  -2   74.69    8.00
   6   5  -2   85.49   16.30
   6   5  -2   61.29    9.90
   6   5  -2   77.79   12.20
  -6  -5   2   62.19   10.70
  -6  -5   2   72.89   15.10
   5   5  -2   32.30    8.70
   5   5  -2   45.60    7.10
   5   5  -2   40.10    8.20
  -5  -5   2   38.60    4.90
  -5  -5   2   46.50   11.60
  -5  -5   2   33.50    3.20
  -5  -5   2   24.30    9.30
   4   5  -2  257.27   17.10
   4   5  -2  237.98   14.20
   4   5  -2  210.68   17.50
  -4  -5   2  251.37   13.60
  -4  -5   2  234.58   19.50
  -4  -5   2  239.98   17.30
   3   5  -2  779.42   35.60
   3   5  -2  692.13   31.80
   3   5  -2  810.02   34.90
  -3  -5   2  832.22   39.60
  -3  -5   2  815.72   32.90
  -3  -5   2  809.62   36.40
   2   5  -2   27.50    7.10
   2   5  -2   17.40    5.40
   2   5  -2   22.80    6.40
  -2  -5   2    7.00    6.50
  -2  -5   2   23.50    7.10
  -2  -5   2   11.10    4.60
  -2  -5   2   22.70    6.30
   1   5  -2  146.29   11.00
   1   5  -2  129.79   10.40
   1   5  -2  137.09   11.00
  -1  -5   2  127.69   12.20
  -1  -5   2  137.79   10.30
  -1  -5   2  142.99   11.00
  -1  -5   2  121.29   11.60
  -1  -5   2  142.89   13.50
   0   5  -2  271.27   15.90
   0   5  -2  317.17   12.00
   0   5  -2  278.67   17.70
   0  -5   2  333.07   20.70
   0  -5   2  292.37   14.90
   0  -5   2  301.87   18.70
   0  -5   2  295.47   16.90
   0  -5   2  293.87   19.50
  -1   5  -2  140.79    9.90
   1  -5   2  153.68   14.50
   1  -5   2  154.78   11.60
   1  -5   2  135.59    8.60
   1  -5   2  141.49   12.30
   1  -5   2  151.48   14.00
  -2   5  -2  155.88    9.20
   2  -5   2  153.68   13.70
   2  -5   2  153.58    9.00
   2  -5   2  156.18   12.50
   2  -5   2  146.69   11.30
   2  -5   2  136.89   14.50
   3  -5   2   10.00    4.60
   3  -5   2   14.10    6.90
   3  -5   2    6.30    6.00
   3  -5   2    6.70    4.60
   3  -5   2    1.30    3.00
   4  -5   2  180.78   18.60
   4  -5   2  217.08   13.20
   4  -5   2  225.98   16.90
   4  -5   2  206.68   13.60
   5  -5   2  117.09   10.80
   5  -5   2  149.69   13.20
   5  -5   2  124.79    9.40
   5  -5   2  149.29    9.90
   6  -5   2    3.70    2.60
   6  -5   2   16.30    3.10
   6  -5   2    4.60    6.70
   6  -5   2   13.70    8.20
   7  -5   2   -9.90    6.70
   7  -5   2  -14.30    7.10
   7  -5   2    4.60    7.20
   8  -5   2  219.08   22.20
  11   4  -2   19.20    7.10
  11   4  -2   14.60   17.20
  10   4  -2   88.59   21.50
  10   4  -2   74.59   12.30
  10   4  -2   54.69    8.00
  10   4  -2   56.29   13.00
   9   4  -2    4.50    9.40
   9   4  -2    6.90    4.50
   9   4  -2    0.00    5.60
   9   4  -2   -2.00    6.00
   8   4  -2    9.20    6.10
   8   4  -2   32.80    8.40
   8   4  -2   28.50   12.20
   8   4  -2   22.60    7.60
   7   4  -2  359.86   22.30
   7   4  -2  384.56   18.20
   7   4  -2  370.36   22.10
   7   4  -2  361.36   29.00
   7   4  -2  358.86   21.70
  -7  -4   2  395.96   20.70
   6   4  -2  202.28   20.20
   6   4  -2  211.38   15.60
   6   4  -2  230.68   16.10
   6   4  -2  193.18   11.90
   6   4  -2  196.58   14.60
  -6  -4   2  233.38   15.30
   5   4  -2   12.40    4.60
   5   4  -2    5.00    3.50
   5   4  -2    3.60    3.30
   5   4  -2    8.30    4.80
   5   4  -2    6.80    6.70
  -5  -4   2    7.90    1.20
  -5  -4   2    8.20    1.40
  -5  -4   2    9.90    5.40
  -5  -4   2    9.80    6.70
   4   4  -2  206.18   11.60
   4   4  -2  211.88   16.60
   4   4  -2  208.98   14.30
   4   4  -2  194.88   15.30
  -4  -4   2  218.18   17.30
  -4  -4   2  202.08    8.90
  -4  -4   2  219.28   14.80
  -4  -4   2  201.68   10.30
   3   4  -2    4.10    3.80
   3   4  -2    5.70    4.70
   3   4  -2    6.40    3.80
   3   4  -2    4.90    3.10
  -3  -4   2   -0.50    3.60
  -3  -4   2    1.90    3.90
   2   4  -2 8888.01  308.97
   2   4  -2 9999.00  306.37
   2   4  -2 9931.91  306.37
   2   4  -2 9368.06  303.87
  -2  -4   2 9603.64  305.27
  -2  -4   2 9624.64  310.27
  -2  -4   2 9688.53  307.37
   1   4  -2 1295.97   47.20
   1   4  -2 1309.67   45.70
   1   4  -2 1182.48   47.50
  -1  -4   2 1249.28   50.59
  -1  -4   2 1266.87   48.50
  -1  -4   2 1278.87   46.20
  -1  -4   2 1251.77   46.70
   0   4  -2  304.77   13.20
   0   4  -2  311.17   16.10
   0   4  -2  308.77   15.40
   0  -4   2  313.97   17.20
   0  -4   2  294.97   18.20
   0  -4   2  280.27   15.40
   0  -4   2  297.47   13.90
  -1   4  -2  263.97   14.90
   1  -4   2  270.57   14.70
   1  -4   2  300.87   18.10
   1  -4   2  280.27   16.00
   1  -4   2  266.87   12.30
  -2   4  -2   78.59    5.70
   2  -4   2   78.79   11.70
   2  -4   2   76.69    8.10
   2  -4   2   68.99    7.10
   2  -4   2   73.29    6.10
   2  -4   2   78.69    9.70
   3  -4   2    3.20    3.70
   3  -4   2    3.00    3.10
   3  -4   2   10.90    5.10
   3  -4   2   -6.00    2.50
   3  -4   2   -2.20    4.20
   4  -4   2   53.39   10.80
   4  -4   2   52.29    6.70
   4  -4   2   47.30    8.50
   4  -4   2   58.29    6.60
   4  -4   2   63.89   10.50
   5  -4   2  104.09   11.30
   5  -4   2  108.09    7.50
   5  -4   2  113.99    7.50
   5  -4   2  107.69   15.40
   5  -4   2  118.29   11.80
   6  -4   2   87.29   11.50
   6  -4   2   76.29   12.50
   6  -4   2   84.39   14.00
   6  -4   2   91.59   10.70
   7  -4   2   18.60    7.80
   7  -4   2   10.60    6.90
   7  -4   2   12.40    7.20
   8  -4   2   25.10    8.40
   8  -4   2   -3.50    7.10
   8  -4   2    8.60    7.60
  11   3  -2   52.79    8.50
  11   3  -2   54.19   16.40
  10   3  -2    3.00    5.00
  10   3  -2   27.30   13.90
  10   3  -2   -7.10    7.10
  10   3  -2    4.80    5.00
   9   3  -2   96.49   21.70
   9   3  -2   88.49   12.00
   9   3  -2   84.29    8.70
   8   3  -2  178.38   14.20
   8   3  -2  126.79   23.00
   8   3  -2  146.09   12.30
   8   3  -2  146.59   15.60
   7   3  -2  304.07   26.40
   7   3  -2  291.87   19.20
   7   3  -2  289.37   18.20
   7   3  -2  306.57   18.70
   7   3  -2  322.67   15.60
  -7  -3   2  291.17   16.70
   6   3  -2  496.15   32.40
   6   3  -2  533.95   25.70
   6   3  -2  527.45   26.00
   6   3  -2  549.54   22.30
  -6  -3   2  553.84   24.40
   5   3  -2  630.44   27.70
   5   3  -2  648.94   24.20
   5   3  -2  606.24   27.20
   5   3  -2  580.54   33.20
   5   3  -2  604.34   27.70
  -5  -3   2  604.84   30.90
   4   3  -2   33.80    6.10
   4   3  -2   30.40    4.50
   4   3  -2   33.80    8.50
   4   3  -2   33.20    6.20
   4   3  -2   25.60    5.20
  -4  -3   2   25.40    7.40
  -4  -3   2   25.40    2.00
  -4  -3   2   39.20    7.10
   3   3  -2   84.69    9.20
   3   3  -2   66.39    7.10
   3   3  -2   72.99    7.40
   3   3  -2   82.19    6.30
   3   3  -2  103.39    7.40
  -3  -3   2   78.99    9.40
  -3  -3   2   74.39    4.50
  -3  -3   2   75.99    5.40
  -3  -3   2   79.19    8.10
   2   3  -2   36.50    7.70
   2   3  -2   36.70    6.60
   2   3  -2   32.80    6.60
   2   3  -2   51.59    7.00
   2   3  -2   36.70    5.00
   2   3  -2   47.80    6.90
  -2  -3   2   57.39    8.00
  -2  -3   2   38.20    5.00
  -2  -3   2   49.10    8.50
  -2  -3   2   33.20    4.20
   1   3  -2  318.97   17.50
   1   3  -2  352.46   16.90
   1   3  -2  364.16   15.90
   1   3  -2  372.56   16.80
   1   3  -2  352.76   16.00
   1   3  -2  357.26   18.10
  -1  -3   2  350.76   16.20
  -1  -3   2  351.46   16.10
  -1  -3   2  373.06   17.70
  -1  -3   2  330.27   14.80
  -1  -3   2  324.37   18.60
   0   3  -2  168.08   11.10
   0   3  -2  168.08   11.10
   0   3  -2  169.18   10.10
   0   3  -2  196.98    9.80
   0   3  -2  166.48    9.30
   0  -3   2  185.18   10.90
   0  -3   2  175.28    8.70
   0  -3   2  170.98   10.30
   0  -3   2  178.48   11.20
   0  -3   2  159.98   12.00
  -1   3  -2 1715.83   58.79
  -1   3  -2 1709.23   59.79
  -1   3  -2 1627.44   53.79
   1  -3   2 1678.53   55.59
   1  -3   2 1644.94   60.39
   1  -3   2 1598.24   58.29
   1  -3   2 1717.93   55.09
   1  -3   2 1725.73   57.59
  -2   3  -2   -1.70    2.70
  -2   3  -2    1.40    1.50
   2  -3   2   -1.20    2.40
   2  -3   2   -1.80    2.00
   2  -3   2    2.00    1.90
   2  -3   2    2.70    3.60
   2  -3   2   -1.30    1.70
   3  -3   2  367.16   21.80
   3  -3   2  383.56   17.10
   3  -3   2  416.36   16.00
   3  -3   2  340.27   20.00
   3  -3   2  401.46   16.70
   3  -3   2  389.96   20.00
   4  -3   2  962.70   39.40
   4  -3   2  991.50   34.20
   4  -3   2  934.41   35.90
   5  -3   2  137.09    6.80
   5  -3   2  131.79   13.50
   5  -3   2  139.89   12.20
   5  -3   2  118.49    9.10
   5  -3   2  134.69   11.50
   5  -3   2  133.69    7.00
   5  -3   2  132.49   12.60
   6  -3   2    4.90    4.90
   6  -3   2   12.70    5.70
   6  -3   2    8.80    5.50
   6  -3   2   20.10    7.40
   6  -3   2   22.20    6.70
   7  -3   2   11.40    7.10
   7  -3   2    3.80    5.60
   7  -3   2    9.60    6.80
   7  -3   2    8.60    6.30
   7  -3   2   20.20    6.40
   8  -3   2    5.80    7.00
   8  -3   2   -3.60    5.30
   8  -3   2   19.60    9.20
   8  -3   2   12.70    9.20
   9  -3   2  103.39   14.10
  11   2  -2   41.60   17.50
  11   2  -2   20.80   10.00
  11   2  -2   30.20    5.20
  10   2  -2   31.80    7.30
  10   2  -2   25.40   10.60
  10   2  -2   15.30   14.30
  10   2  -2   43.70    7.40
   9   2  -2    3.30    7.90
   9   2  -2    5.50    4.30
   9   2  -2   -0.40    9.20
   9   2  -2    2.70    4.30
   9   2  -2    0.90    4.00
   8   2  -2    2.00    5.60
   8   2  -2    8.80    4.50
   8   2  -2    2.00    4.00
   8   2  -2    0.00    7.70
   7   2  -2  613.74   27.80
   7   2  -2  601.54   38.30
   7   2  -2  555.54   26.80
   7   2  -2  625.64   25.30
   7   2  -2  613.54   29.70
   6   2  -2  494.75   27.90
   6   2  -2  491.65   23.00
   6   2  -2  527.65   21.30
   6   2  -2  482.35   31.60
   6   2  -2  504.85   23.70
  -6  -2   2  489.75   20.50
   5   2  -2  491.55   29.60
   5   2  -2  486.45   23.40
   5   2  -2  537.85   20.80
   5   2  -2  522.15   23.40
   5   2  -2  512.25   22.60
  -5  -2   2  517.15   21.90
   4   2  -2  490.25   21.30
   4   2  -2  512.25   22.00
   4   2  -2  499.85   19.50
   4   2  -2  525.15   27.50
  -4  -2   2  487.95   19.50
  -4  -2   2  485.35   24.20
   3   2  -2   66.59    8.30
   3   2  -2   63.99    6.30
   3   2  -2   56.69    4.70
   3   2  -2   67.29   11.30
   3   2  -2   58.69    6.00
   3   2  -2   68.69    7.30
   3   2  -2   53.99    5.90
  -3  -2   2   53.59    5.30
  -3  -2   2   59.79    5.30
  -3  -2   2   73.69    6.80
  -3  -2   2   61.89    3.10
  -3  -2   2   64.79    7.70
   2   2  -2  117.99    8.20
   2   2  -2  106.29   10.10
   2   2  -2  120.99   10.00
   2   2  -2  116.79    7.70
   2   2  -2  121.19    7.20
   2   2  -2  117.99    6.50
   2   2  -2  122.89    9.30
  -2  -2   2  122.89    6.30
  -2  -2   2  117.69    8.50
  -2  -2   2  103.59    5.30
  -2  -2   2  121.19    7.40
  -2  -2   2  123.09    9.50
   1   2  -2   52.69    4.50
   1   2  -2   63.09    5.50
   1   2  -2   51.59    5.40
   1   2  -2   63.39    5.50
   1   2  -2   58.99    6.70
   1   2  -2   65.19    6.60
  -1  -2   2   62.19    4.30
  -1  -2   2   60.49    7.00
  -1  -2   2   53.39    5.00
  -1  -2   2   65.19    6.90
  -1  -2   2   65.69    4.60
  -1  -2   2   61.99    6.20
   0   2  -2 4757.02  153.58
   0   2  -2 4762.92  152.38
   0   2  -2 4820.12  153.78
   0   2  -2 4893.51  152.48
   0   2  -2 4849.41  151.98
   0  -2   2 4742.13  152.98
   0  -2   2 4647.33  153.08
   0  -2   2 4701.13  154.48
   0  -2   2 4787.22  150.08
   0  -2   2 4802.82  151.88
   0  -2   2 4749.82  151.58
  -1   2  -2 2547.34   84.19
  -1   2  -2 2694.53   82.99
  -1   2  -2 2618.44   84.09
  -1   2  -2 2622.14   85.89
   1  -2   2 2484.45   86.79
   1  -2   2 2538.85   84.89
   1  -2   2 2511.45   84.09
   1  -2   2 2530.25   85.39
   1  -2   2 2891.51   82.79
   1  -2   2 2552.94   84.19
  -2   2  -2  319.47   11.80
  -2   2  -2  328.07   16.30
  -2   2  -2  337.57   11.80
   2  -2   2  334.07   13.50
   2  -2   2  323.87   14.00
   2  -2   2  347.57   13.60
   2  -2   2  338.57   16.10
   3  -2   2 1032.70   35.70
   3  -2   2 1079.19   39.70
   3  -2   2 1096.99   37.70
   3  -2   2 1023.40   36.10
   4  -2   2  812.12   32.00
   4  -2   2  839.22   28.00
   4  -2   2  825.92   35.80
   4  -2   2  827.12   33.20
   4  -2   2  822.32   28.10
   5  -2   2 1648.54   65.39
   5  -2   2 1724.73   62.29
   5  -2   2 1732.63   61.39
   5  -2   2 1645.54   61.39
   5  -2   2 1722.83   64.89
   6  -2   2  129.59   14.30
   6  -2   2  108.49   10.60
   6  -2   2  117.89   12.10
   6  -2   2  124.19   11.30
   6  -2   2  115.09   10.80
   6  -2   2  135.89   11.40
   7  -2   2  171.48   14.10
   7  -2   2  184.18   18.40
   7  -2   2  166.58   13.70
   7  -2   2  184.28   15.30
   7  -2   2  181.58   16.20
   7  -2   2  180.68   14.50
   8  -2   2   49.50   10.50
   8  -2   2   65.79   10.80
   8  -2   2   61.79   10.30
   8  -2   2   70.79   10.50
   8  -2   2   57.49   14.20
   8  -2   2   69.89   10.90
   9  -2   2    4.30    6.40
   9  -2   2   16.20   11.80
   9  -2   2   16.90    8.60
  11   1  -2   66.09   15.10
  11   1  -2   24.50   10.80
  11   1  -2   39.20   18.50
  10   1  -2   58.09    5.50
  10   1  -2   58.89   12.30
  10   1  -2   43.80    8.90
  10   1  -2   62.79   17.60
  10   1  -2   43.50    5.70
   9   1  -2   11.70   10.80
   9   1  -2   -1.90    4.60
   9   1  -2   27.90    9.40
   9   1  -2   10.00    4.60
   8   1  -2   76.09    7.30
   8   1  -2   66.99   17.50
   8   1  -2   65.59    8.80
   8   1  -2   56.09    3.50
   8   1  -2   77.69   12.50
   8   1  -2   68.89    7.70
   7   1  -2  126.09   17.80
   7   1  -2  126.99   12.50
   7   1  -2  138.19    6.80
   7   1  -2  153.68   10.50
   7   1  -2  156.08   10.60
   7   1  -2  146.19   10.30
   6   1  -2 1260.77   47.20
   6   1  -2 1309.47   54.89
   6   1  -2 1309.27   43.50
   6   1  -2 1355.46   47.50
   6   1  -2 1355.06   48.10
   5   1  -2  968.00   34.60
   5   1  -2  954.80   31.50
   5   1  -2  921.81   37.20
   5   1  -2  934.31   35.50
   5   1  -2  930.31   34.80
  -5  -1   2  919.11   32.60
   4   1  -2  249.88   13.10
   4   1  -2  269.57   10.20
   4   1  -2  260.37   14.80
   4   1  -2  278.37   12.40
   4   1  -2  277.27   14.30
   4   1  -2  261.27   12.70
  -4  -1   2  291.97   12.60
  -4  -1   2  262.67   12.60
   3   1  -2  842.82   37.20
   3   1  -2  824.12   30.60
   3   1  -2  807.92   29.60
   3   1  -2  855.31   26.90
   3   1  -2  851.31   29.10
   3   1  -2  826.82   30.50
   3   1  -2  767.22   31.60
  -3  -1   2  771.12   29.80
  -3  -1   2  849.02   27.60
  -3  -1   2  822.52   29.10
  -3  -1   2  821.02   33.70
  -3  -1   2  817.92   30.50
   2   1  -2  333.47   11.50
   2   1  -2  336.57   13.80
   2   1  -2  340.27   18.20
   2   1  -2  291.97   14.60
   2   1  -2  325.97   12.70
   2   1  -2  328.47   13.60
   2   1  -2  319.27   15.20
  -2  -1   2  337.77   13.20
  -2  -1   2  331.37   12.70
  -2  -1   2  355.46   15.50
  -2  -1   2  338.07   11.50
  -2  -1   2  342.17   13.80
  -2  -1   2  288.97   13.70
   1   1  -2 4866.51  160.38
   1   1  -2 4924.71  158.28
   1   1  -2 5122.09  157.48
  -1  -1   2 4931.91  160.98
   0   1  -2  887.91   31.20
   0   1  -2  893.41   31.40
   0   1  -2  887.21   29.60
   0   1  -2  872.51   30.30
   0   1  -2  889.61   29.80
   0  -1   2  793.52   31.50
   0  -1   2  911.91   29.50
   0  -1   2  904.71   30.60
   0  -1   2  865.51   31.50
   0  -1   2  893.41   30.70
  -1   1  -2  431.16   15.40
  -1   1  -2  413.46   14.60
  -1   1  -2  431.36   16.30
  -1   1  -2  405.86   14.60
   1  -1   2  400.66   14.10
   1  -1   2  405.66   15.20
   1  -1   2  404.16   14.80
   1  -1   2  409.06   15.70
   1  -1   2  421.16   15.40
   1  -1   2  393.76   16.40
   2  -1   2 1255.07   43.90
   2  -1   2 1277.57   41.00
   2  -1   2 1285.47   43.30
   3  -1   2    3.50    3.00
   3  -1   2    1.60    2.70
   3  -1   2    1.80    0.90
   3  -1   2    1.50    1.00
   4  -1   2   97.79    8.50
   4  -1   2  108.99   10.10
   4  -1   2  111.49    9.10
   4  -1   2  113.29    8.40
   5  -1   2  968.90   37.30
   5  -1   2  974.90   39.70
   5  -1   2  999.20   39.40
   5  -1   2  926.51   37.80
   5  -1   2  979.30   37.20
   5  -1   2  948.81   42.40
   6  -1   2   23.60    6.60
   6  -1   2   20.50    5.00
   6  -1   2   19.30    5.90
   6  -1   2   17.30    7.00
   6  -1   2   11.50    4.80
   6  -1   2   18.20    5.40
   7  -1   2   84.79   12.60
   7  -1   2   80.69    9.10
   7  -1   2   71.79   13.70
   7  -1   2   67.49    9.00
   7  -1   2   73.59    9.10
   7  -1   2   79.79   10.60
   8  -1   2   14.20    4.70
   8  -1   2    7.30    6.00
   8  -1   2    4.20    4.30
   8  -1   2   -6.40    5.60
   8  -1   2    3.90    8.40
   8  -1   2   18.30    6.90
   9  -1   2   43.30    9.20
   9  -1   2   23.90    9.90
   9  -1   2   21.10    6.70
  10  -1   2   38.10   16.50
  10  -1   2   33.50    9.20
  10   0  -2   93.09   21.60
  10   0  -2   56.39   10.20
  10   0  -2   74.59   15.30
  10   0  -2   66.59   13.90
   9   0  -2   39.50   15.70
   9   0  -2   56.69    4.50
   9   0  -2   28.00    7.80
   9   0  -2   41.30    9.10
   9   0  -2   45.50   10.90
   9   0  -2   45.40    4.30
   8   0  -2   -1.70    5.60
   8   0  -2    1.20    4.20
   8   0  -2    0.00    2.80
   8   0  -2   -1.10    2.40
   8   0  -2    3.10    8.50
   7   0  -2    1.70    3.80
   7   0  -2    4.50    3.10
   7   0  -2    0.60    2.90
   7   0  -2    3.40    2.60
   7   0  -2    0.20    5.10
   6   0  -2  571.44   22.50
   6   0  -2  559.14   22.50
   6   0  -2  566.24   22.80
   6   0  -2  566.34   24.70
   6   0  -2  552.94   27.40
   5   0  -2  756.92   28.90
   5   0  -2  814.02   29.50
   5   0  -2  745.53   32.20
   5   0  -2  816.52   31.00
   5   0  -2  812.92   33.40
   5   0  -2  814.12   29.60
   4   0  -2  363.36   16.10
   4   0  -2  347.27   17.20
   4   0  -2  361.36   15.20
   4   0  -2  371.66   14.90
   4   0  -2  357.06   17.70
   4   0  -2  375.16   15.50
  -4   0   2  364.76   13.10
   3   0  -2  236.58   11.20
   3   0  -2  247.08   10.40
   3   0  -2  224.98   11.70
   3   0  -2  234.48   10.80
   3   0  -2  235.38   16.00
   3   0  -2  255.17   10.70
   3   0  -2  244.78   12.50
  -3   0   2  232.38    9.30
  -3   0   2  253.17   11.70
  -3   0   2  250.97   10.30
  -3   0   2  235.88   11.00
   2   0  -2  914.11   31.80
   2   0  -2  980.30   32.60
   2   0  -2  931.41   31.40
   2   0  -2  898.71   31.30
   2   0  -2  889.71   36.20
   2   0  -2  874.31   30.60
   2   0  -2  900.91   30.60
  -2   0   2  877.31   30.10
  -2   0   2  925.21   31.60
  -2   0   2  919.41   31.10
  -2   0   2  932.71   31.80
   1   0  -2   12.70    5.10
   1   0  -2   22.30    3.30
   1   0  -2   18.80    3.10
   1   0  -2   14.80    2.00
   1   0  -2   26.10    2.90
   1   0  -2   18.10    2.60
  -1   0   2   24.40    3.00
  -1   0   2   17.70    3.10
  -1   0   2   21.20    2.60
  -1   0   2   23.50    5.60
  -1   0   2   18.70    2.30
  -1   0  -2 3155.28   97.19
  -1   0  -2 3130.49   95.39
  -1   0  -2 3059.69   96.59
  -1   0  -2 3123.89   95.29
   1   0   2 3005.30   95.29
   1   0   2 2924.61   96.39
   1   0   2 3021.20   96.99
   1   0   2 2964.90   94.69
   1   0   2 2969.70   95.29
   1   0   2 3080.29   95.89
   2   0   2 1536.05   48.80
   2   0   2 1518.15   47.70
   2   0   2 1499.65   47.80
   2   0   2 1507.65   51.59
   2   0   2 1490.05   51.19
   3   0   2 1840.42   58.19
   3   0   2 1857.11   60.89
   3   0   2 1917.71   58.29
   3   0   2 1765.02   66.99
   4   0   2  509.95   20.70
   4   0   2  521.75   20.10
   4   0   2  513.85   17.50
   4   0   2  508.05   17.20
   4   0   2  513.85   25.20
   5   0   2 1031.40   33.90
   5   0   2 1041.00   37.70
   5   0   2 1054.89   39.20
   5   0   2 1060.99   39.40
   5   0   2 1043.50   34.30
   5   0   2 1068.19   45.80
   6   0   2  117.99    4.70
   6   0   2   99.79   11.20
   6   0   2  109.99    4.50
   6   0   2  106.09    9.70
   6   0   2  133.99   14.30
   6   0   2  104.89    8.10
   6   0   2   99.99    8.80
   7   0   2  163.38   12.70
   7   0   2  157.98   15.00
   7   0   2  179.88   17.90
   7   0   2  142.89   10.60
   7   0   2  167.38   10.70
   8   0   2  148.49   13.60
   8   0   2  162.28   14.10
   8   0   2  187.28   17.90
   8   0   2  157.98   10.90
   8   0   2  168.28   19.70
   8   0   2  155.78   11.30
   9   0   2   19.20   13.70
   9   0   2   15.30    7.20
   9   0   2   17.70    9.10
   9   0   2    5.30    7.20
   9   0   2    9.10    4.90
  10   0   2   -3.40    6.80
  10   0   2    6.30    9.70
  10   0   2   14.90   11.00
  11   0   2  169.38   25.40
  10  -1  -2   12.10    7.90
   9  -1  -2   33.10    8.60
   9  -1  -2   59.59   16.70
   9  -1  -2   50.89   11.30
   9  -1  -2   53.09   11.90
   8  -1  -2  125.89   10.70
   8  -1  -2  170.08   22.10
   8  -1  -2  158.08   13.40
   8  -1  -2  135.89    6.50
   8  -1  -2  146.99   15.10
   8  -1  -2  149.59    6.50
   7  -1  -2   10.80    2.80
   7  -1  -2   15.00    3.50
   7  -1  -2   12.20    4.90
   7  -1  -2   17.10    6.80
   7  -1  -2    7.80    4.40
   7  -1  -2    9.40    3.70
   6  -1  -2   -3.20    2.60
   6  -1  -2   -1.60    3.00
   6  -1  -2    7.20    3.00
   6  -1  -2   -0.60    2.10
   6  -1  -2    6.30    5.20
   6  -1  -2    5.30    3.30
   6  -1  -2    2.00    2.30
   5  -1  -2  880.71   35.10
   5  -1  -2  881.91   36.80
   5  -1  -2  875.31   31.20
   5  -1  -2  909.41   35.00
   4  -1  -2   71.29    7.10
   4  -1  -2   78.59    6.30
   4  -1  -2   66.49    4.90
   4  -1  -2   75.49    6.90
   4  -1  -2   72.49    5.10
   3  -1  -2  159.38    9.40
   3  -1  -2  159.38    7.70
   3  -1  -2  152.08    8.10
   3  -1  -2  149.49   12.10
   3  -1  -2  160.28    7.40
   3  -1  -2  157.08    9.30
  -3   1   2  137.39    5.90
  -3   1   2  166.18    6.30
   2  -1  -2 1917.51   64.89
   2  -1  -2 1912.11   65.09
   2  -1  -2 2010.90   63.19
   2  -1  -2 1940.31   62.79
   2  -1  -2 1905.71   62.49
   2  -1  -2 1943.31   68.19
  -2   1   2 1985.50   65.49
  -2   1   2 1930.21   62.69
  -2   1   2 2025.90   62.99
   1  -1  -2 2284.17   78.99
   1  -1  -2 2410.56   77.99
   1  -1  -2 2429.36   76.59
   1  -1  -2 2475.85   76.79
   1  -1  -2 2432.76   77.69
  -1   1   2 2360.66   79.39
  -1   1   2 2397.76   78.09
  -1   1   2 2425.06   76.69
   0  -1  -2 2242.28   72.19
   0  -1  -2 2185.38   72.29
   0  -1  -2 2394.36   75.99
   0  -1  -2 2258.17   72.39
   0  -1  -2 2484.05   72.59
   0  -1  -2 2133.79   72.39
   0   1   2 2306.67   72.39
   0   1   2 2178.58   72.39
   0   1   2 2122.09   76.19
   0   1   2 2410.06   72.89
   0   1   2 2216.08   72.59
  -1  -1  -2  445.06   17.10
  -1  -1  -2  439.46   15.30
  -1  -1  -2  445.36   16.30
  -1  -1  -2  454.45   16.20
  -1  -1  -2  472.75   17.80
   1   1   2  447.36   17.60
   1   1   2  450.75   16.30
   1   1   2  453.95   17.10
   1   1   2  468.55   15.60
  -2  -1  -2  531.95   19.20
  -2  -1  -2  551.64   22.40
  -2  -1  -2  557.54   18.40
  -2  -1  -2  554.94   19.10
  -2  -1  -2  549.25   19.10
   2   1   2  536.95   19.50
   2   1   2  547.25   17.40
   2   1   2  548.45   22.40
   2   1   2  547.85   19.20
   2   1   2  545.75   19.50
   2   1   2  576.74   18.30
  -3  -1  -2   40.20    2.70
  -3  -1  -2   49.99    4.10
  -3  -1  -2   39.00    2.80
   3   1   2   36.00    3.60
   3   1   2   43.50    2.70
   3   1   2   41.50    6.10
   3   1   2   45.50    3.70
   3   1   2   40.50    3.80
   3   1   2   40.10    2.70
   4   1   2  148.59   12.50
   4   1   2  137.69    7.40
   4   1   2  143.29    8.50
   4   1   2  139.29    7.60
   4   1   2  151.98    6.60
   4   1   2  149.09    6.90
   5   1   2  136.89   13.20
   5   1   2  159.58    9.60
   5   1   2  133.29    6.70
   5   1   2  130.59    7.40
   5   1   2  135.49    7.80
   5   1   2  144.19    8.00
   5   1   2  142.79    7.50
   6   1   2  546.25   21.10
   6   1   2  508.05   20.10
   6   1   2  517.15   19.20
   6   1   2  502.15   20.40
   6   1   2  512.35   20.50
   6   1   2  544.45   23.70
   6   1   2  516.55   30.40
   7   1   2   19.80    4.20
   7   1   2   19.70    3.80
   7   1   2   33.80    8.20
   7   1   2   26.10    4.00
   7   1   2   18.40    3.90
   7   1   2   17.00    8.30
   8   1   2   -2.90    4.30
   8   1   2    7.80    2.30
   8   1   2    2.30    2.00
   8   1   2   -5.50    6.00
   8   1   2    0.60    3.00
   8   1   2   10.60    9.10
   9   1   2   17.50    7.00
   9   1   2   20.80    9.50
   9   1   2   38.80   13.30
  10   1   2    5.20    7.60
  10   1   2   -8.70    6.80
  10   1   2   14.50   12.20
  10   1   2    1.40    8.90
  11   1   2  312.07   31.90
  11   1   2  289.67   22.20
  10  -2  -2   30.90   13.40
  10  -2  -2   42.90   17.10
   9  -2  -2   23.10    8.10
   9  -2  -2   43.50   11.40
   9  -2  -2   40.80   14.50
   8  -2  -2  208.28   15.40
   8  -2  -2  229.98   19.00
   8  -2  -2  179.38   16.40
   7  -2  -2   73.59   12.10
   7  -2  -2   93.49    5.50
   7  -2  -2   97.49   12.60
   7  -2  -2   88.69    7.30
   7  -2  -2   86.59   10.00
   7  -2  -2   91.59    5.50
   6  -2  -2   12.10    4.70
   6  -2  -2   19.80    6.90
   6  -2  -2   23.80    4.50
   6  -2  -2   10.80    5.00
   6  -2  -2   22.10    3.60
   6  -2  -2   21.50    3.60
   5  -2  -2  101.19    6.60
   5  -2  -2   99.99    6.70
   5  -2  -2  106.39    7.50
   5  -2  -2  104.39    7.20
   5  -2  -2  108.59   10.40
   5  -2  -2  100.39   10.00
   4  -2  -2  415.66   16.30
   4  -2  -2  391.06   19.90
   4  -2  -2  423.66   20.80
   4  -2  -2  379.46   22.20
   4  -2  -2  409.36   16.80
   4  -2  -2  421.26   16.50
   4  -2  -2  382.56   15.80
   3  -2  -2 1184.18   39.50
   3  -2  -2 1166.18   43.70
   3  -2  -2 1151.18   39.10
   3  -2  -2 1180.58   38.50
   3  -2  -2 1081.19   44.30
   3  -2  -2 1126.59   42.70
   2  -2  -2 1192.28   38.70
   2  -2  -2 1207.08   43.70
   2  -2  -2 1102.69   42.60
   2  -2  -2 1231.78   40.40
   2  -2  -2 1175.78   40.30
  -2   2   2 1168.28   43.60
  -2   2   2 1260.87   39.70
  -2   2   2 1132.29   39.70
   1  -2  -2  236.18   10.50
   1  -2  -2  202.28   14.80
   1  -2  -2  223.68    9.00
   1  -2  -2  249.88   10.20
   1  -2  -2  237.08   10.80
   1  -2  -2  228.98   12.00
  -1   2   2  246.78    8.70
  -1   2   2  236.48   10.90
  -1   2   2  224.28   11.30
   0  -2  -2    1.40    2.10
   0  -2  -2   -1.80    1.70
   0  -2  -2   -1.10    1.20
   0  -2  -2    0.00    3.30
   0  -2  -2   -0.80    1.90
   0  -2  -2   -1.70    1.50
   0   2   2   -2.10    1.70
   0   2   2   -1.70    1.60
   0   2   2   -0.80    1.90
   0   2   2    1.70    1.60
   0   2   2   -0.20    4.20
   0   2   2   -1.20    1.50
  -1  -2  -2 3441.06  112.49
  -1  -2  -2 3494.75  112.39
  -1  -2  -2 3482.45  111.69
  -1  -2  -2 3738.23  114.49
   1   2   2 3455.45  111.99
   1   2   2 3625.34  114.19
   1   2   2 3432.96  112.19
   1   2   2 3341.87  111.69
   1   2   2 3505.65  112.79
  -2  -2  -2 1438.06   46.20
  -2  -2  -2 1418.46   51.59
  -2  -2  -2 1473.05   46.80
  -2  -2  -2 1479.05   47.90
  -2  -2  -2 1431.26   49.10
  -2  -2  -2 1418.96   48.90
   2   2   2 1395.86   49.30
   2   2   2 1443.66   49.10
   2   2   2 1529.05   52.29
   2   2   2 1452.05   47.20
   2   2   2 1461.55   51.19
  -3  -2  -2   82.49    5.70
  -3  -2  -2   87.79    3.80
  -3  -2  -2   82.49    8.30
  -3  -2  -2   79.19    5.80
  -3  -2  -2   86.39    3.90
   3   2   2   88.89    8.10
   3   2   2   86.19    4.10
   3   2   2   87.79    4.10
   3   2   2  105.09    6.80
   3   2   2   87.09    6.60
   3   2   2   88.19    8.80
  -4  -2  -2  262.77   10.50
  -4  -2  -2  253.47   12.70
  -4  -2  -2  277.87   12.10
   4   2   2  256.47   12.80
   4   2   2  284.97   13.20
   4   2   2  285.37   10.30
   4   2   2  286.17   18.10
   4   2   2  279.07   13.50
  -5  -2  -2  391.66   14.90
   5   2   2  419.16   18.30
   5   2   2  377.06   17.30
   5   2   2  369.86   17.50
   5   2   2  415.26   14.80
   5   2   2  372.66   23.40
   6   2   2   -1.50    2.60
   6   2   2   -0.10    3.80
   6   2   2    3.20    6.10
   6   2   2    4.90    2.30
   6   2   2   -0.50    2.20
   7   2   2  360.96   15.20
   7   2   2  349.67   17.10
   7   2   2  343.67   26.50
   7   2   2  373.56   18.50
   7   2   2  395.76   22.50
   8   2   2  294.87   14.80
   8   2   2  283.87   18.10
   8   2   2  267.87   13.20
   8   2   2  301.27   26.00
   8   2   2  288.77   15.30
   9   2   2  116.09   13.60
   9   2   2  146.39    9.60
   9   2   2  145.19   10.00
   9   2   2  131.59   17.10
   9   2   2  165.28   21.20
   9   2   2  123.49    8.80
  10   2   2   33.50    4.50
  10   2   2   27.40   14.00
  10   2   2   24.40    4.20
  10   2   2   37.60   13.40
  10   2   2   11.30    7.30
  11   2   2   -5.60    6.80
  11   2   2   -7.10    8.70
  11   2   2    9.70   15.00
   9  -3  -2    1.20   12.80
   8  -3  -2  119.49   16.60
   8  -3  -2  125.29   22.10
   8  -3  -2  135.99   14.70
   7  -3  -2   38.00   10.20
   7  -3  -2   17.20    7.00
   7  -3  -2   17.80    9.10
   7  -3  -2   29.00    7.10
   6  -3  -2    3.20    2.40
   6  -3  -2   -4.40    3.90
   6  -3  -2    1.20    2.10
   6  -3  -2    3.00    2.60
   6  -3  -2    5.60    4.10
   6  -3  -2   10.00    4.80
   5  -3  -2   77.49    6.30
   5  -3  -2   82.99    9.50
   5  -3  -2   83.99    6.30
   5  -3  -2   78.39    5.60
   5  -3  -2   72.89   10.80
   5  -3  -2   87.19    5.80
   4  -3  -2  286.07   12.50
   4  -3  -2  281.57   13.20
   4  -3  -2  258.37   17.20
   4  -3  -2  304.47   18.60
   4  -3  -2  280.57   17.30
   4  -3  -2  305.87   14.50
   3  -3  -2   45.50    4.30
   3  -3  -2   54.19    6.00
   3  -3  -2   53.29    8.30
   3  -3  -2   49.20    5.30
   3  -3  -2   45.50    5.80
  -3   3   2   50.19    3.40
   2  -3  -2  241.78   10.40
   2  -3  -2  249.68   12.40
   2  -3  -2  234.78   14.80
   2  -3  -2  254.97   12.40
   2  -3  -2  219.78   17.50
   2  -3  -2  243.28   10.90
  -2   3   2  264.77   11.20
   1  -3  -2    1.50    2.40
   1  -3  -2    6.10    2.70
   1  -3  -2    4.30    2.50
   1  -3  -2   11.30    3.90
  -1   3   2    7.70    2.60
  -1   3   2    3.80    5.60
  -1   3   2    1.60    1.10
   0  -3  -2  520.65   21.00
   0  -3  -2  567.04   23.50
   0  -3  -2  485.05   20.30
   0  -3  -2  497.55   21.20
   0  -3  -2  509.05   21.90
   0   3   2  475.95   20.20
   0   3   2  455.35   20.60
   0   3   2  505.05   20.30
   0   3   2  485.55   21.70
   0   3   2  531.15   18.10
   0   3   2  546.35   29.60
  -1  -3  -2    8.70    3.70
  -1  -3  -2    7.00    2.80
  -1  -3  -2   12.10    3.60
  -1  -3  -2   11.90    4.30
  -1  -3  -2   11.90    3.90
   1   3   2   10.40    2.80
   1   3   2    8.50    3.40
   1   3   2   10.20    3.00
   1   3   2   19.30    4.50
   1   3   2   11.30    3.90
  -2  -3  -2  187.78   12.20
  -2  -3  -2  187.38   11.10
  -2  -3  -2  178.78    8.60
  -2  -3  -2  192.28    9.40
  -2  -3  -2  187.68   12.10
  -2  -3  -2  198.58   10.70
   2   3   2  191.88   12.10
   2   3   2  188.58   12.10
   2   3   2  184.78   11.20
   2   3   2  178.48    9.40
  -3  -3  -2   96.49   10.10
  -3  -3  -2   82.29    6.90
  -3  -3  -2   89.69    4.90
  -3  -3  -2   84.09    6.40
  -3  -3  -2   98.89    7.80
  -3  -3  -2   97.59    5.10
   3   3   2   76.69    9.20
   3   3   2   92.69    9.40
   3   3   2  114.69    8.30
   3   3   2  100.69    8.30
   3   3   2  106.59    5.80
  -4  -3  -2 1887.31   63.89
  -4  -3  -2 1815.02   59.49
  -4  -3  -2 1848.72   58.19
   4   3   2 1863.81   64.39
   4   3   2 1854.91   64.89
   4   3   2 1872.81   60.09
   4   3   2 1827.92   69.79
  -5  -3  -2  715.43   24.90
  -5  -3  -2  690.53   27.80
   5   3   2  697.33   35.40
   5   3   2  724.93   24.90
   5   3   2  711.73   29.20
   5   3   2  736.43   30.00
   5   3   2  713.03   28.70
  -6  -3  -2   68.89    5.60
  -6  -3  -2   53.29    4.70
   6   3   2   55.59    9.30
   6   3   2   65.69    8.90
   6   3   2   68.89    7.70
   7   3   2   24.10    3.60
   7   3   2   21.50   10.20
   7   3   2   27.70    6.40
   7   3   2   28.40    7.10
   7   3   2   23.40    5.70
   8   3   2   22.70    5.10
   8   3   2   19.80    3.70
   8   3   2    7.90    8.40
   8   3   2   24.60    6.20
   8   3   2   27.60    7.40
   9   3   2   19.40    7.20
   9   3   2   24.70    9.70
   9   3   2   35.30    7.20
   9   3   2   13.90    3.60
   9   3   2   20.70   13.30
  10   3   2    8.50    4.90
  10   3   2   17.80   12.70
  10   3   2   -0.20    6.90
  10   3   2   12.30   10.80
  11   3   2    8.80   18.70
  11   3   2   17.40    8.40
  11   3   2   18.40    4.60
  11   3   2  -10.70    8.20
   8  -4  -2    9.90    7.60
   8  -4  -2   11.80   10.10
   8  -4  -2   -7.00    6.40
   7  -4  -2   34.10    9.30
   7  -4  -2   22.40    8.90
   7  -4  -2   22.50    8.80
   6  -4  -2  428.06   18.00
   6  -4  -2  442.76   29.10
   6  -4  -2  429.96   26.90
   5  -4  -2   16.60    6.30
   5  -4  -2   21.00    4.20
   5  -4  -2   22.90    7.90
   5  -4  -2   17.00    3.40
   5  -4  -2   14.30    4.30
   4  -4  -2  476.65   18.10
   4  -4  -2  525.05   27.90
   4  -4  -2  482.55   17.10
   4  -4  -2  480.85   17.60
   4  -4  -2  524.25   26.60
   4  -4  -2  473.55   20.80
   3  -4  -2  508.75   19.70
   3  -4  -2  485.15   21.90
   3  -4  -2  479.15   21.50
   3  -4  -2  493.85   26.60
   2  -4  -2 1633.34   63.09
   2  -4  -2 1649.83   56.59
   2  -4  -2 1682.23   58.79
   2  -4  -2 1669.03   58.89
   1  -4  -2  878.31   35.80
   1  -4  -2  781.12   30.70
   1  -4  -2  803.52   34.80
   1  -4  -2  804.22   32.30
   1  -4  -2  762.42   33.10
  -1   4   2  798.52   29.80
   0  -4  -2   29.20    5.90
   0  -4  -2   46.20    6.50
   0  -4  -2   42.60    6.50
   0  -4  -2   35.80    6.30
   0   4   2   38.40    3.20
   0   4   2   44.30   10.30
   0   4   2   46.40    5.40
   0   4   2   35.10    5.60
  -1  -4  -2   42.10    6.10
  -1  -4  -2   43.70    7.30
  -1  -4  -2   49.90    7.70
  -1  -4  -2   46.50    6.80
  -1  -4  -2   52.89    7.30
   1   4   2   54.39    6.10
   1   4   2   57.39    9.70
   1   4   2   41.90    4.20
   1   4   2   49.30    7.30
  -2  -4  -2  468.15   19.40
  -2  -4  -2  493.85   20.90
  -2  -4  -2  490.25   22.60
  -2  -4  -2  477.75   23.50
  -2  -4  -2  478.45   23.50
  -2  -4  -2  502.75   22.10
   2   4   2  492.05   23.50
   2   4   2  455.65   22.10
   2   4   2  448.76   24.10
   2   4   2  495.45   22.00
  -3  -4  -2  208.08   10.50
  -3  -4  -2  209.28   13.30
  -3  -4  -2  194.98   10.40
  -3  -4  -2  172.68   13.90
   3   4   2  212.58   14.70
   3   4   2  194.78   12.70
   3   4   2  195.88   12.70
  -4  -4  -2   -1.60    2.80
  -4  -4  -2   -2.00    1.40
  -4  -4  -2    1.70    1.20
   4   4   2    2.80    2.80
   4   4   2   -3.00    2.50
   4   4   2    4.10    4.40
  -5  -4  -2  763.32   31.60
  -5  -4  -2  775.92   26.70
   5   4   2  767.62   38.00
   5   4   2  699.43   32.30
   5   4   2  784.32   32.50
   6   4   2  511.05   25.60
   6   4   2  537.85   20.10
   6   4   2  508.85   24.90
   6   4   2  500.85   31.20
  -7  -4  -2  212.48   10.50
  -7  -4  -2  230.38   12.60
   7   4   2  206.18   15.00
   7   4   2  200.18   20.70
   7   4   2  219.08   15.70
   7   4   2  222.68   10.50
   8   4   2  154.38   13.00
   8   4   2  126.79   12.40
   8   4   2  144.39   12.70
   8   4   2  129.79   18.40
   8   4   2  132.49    7.90
   9   4   2    6.60    5.30
   9   4   2    5.00   11.70
   9   4   2    6.50    2.60
   9   4   2    8.50    5.70
  10   4   2   -6.70    7.60
  10   4   2    8.00    5.20
  10   4   2    0.80   10.60
  11   4   2    4.30    5.20
  11   4   2  -26.00   15.20
   8  -5  -2   -5.60    8.40
   8  -5  -2    4.40    8.60
   7  -5  -2    1.30    6.90
   7  -5  -2  -16.60    5.40
   7  -5  -2    7.10    6.30
   6  -5  -2  283.17   23.30
   6  -5  -2  281.27   21.90
   6  -5  -2  288.17   15.10
   6  -5  -2  296.77   14.10
   5  -5  -2   79.79    8.70
   5  -5  -2   73.39   13.20
   5  -5  -2   66.49    7.70
   4  -5  -2   66.89   12.00
   4  -5  -2   67.49   12.00
   4  -5  -2   53.39    7.60
   3  -5  -2  148.09   11.30
   3  -5  -2  123.19   14.00
   3  -5  -2  133.99   10.60
   3  -5  -2  125.29    8.20
   2  -5  -2  360.96   18.80
   2  -5  -2  317.47   18.30
   2  -5  -2  301.77   21.00
  -2   5   2  348.07   16.00
  -2   5   2  333.77   15.00
   1  -5  -2    2.10    3.30
   1  -5  -2    5.50    3.70
  -1   5   2    9.90    3.30
  -1   5   2    2.40    3.10
  -1   5   2    4.30    7.10
   0  -5  -2  960.40   38.00
   0  -5  -2  868.51   38.30
   0  -5  -2  872.91   36.40
   0  -5  -2  977.70   37.10
   0   5   2  908.11   35.10
   0   5   2  770.42   42.10
   0   5   2  873.41   35.70
  -1  -5  -2   73.49    7.90
  -1  -5  -2   55.79    8.40
  -1  -5  -2   71.99   10.30
  -1  -5  -2   73.99   10.50
   1   5   2   66.59    9.90
   1   5   2   76.09    5.50
   1   5   2   79.99    9.70
  -2  -5  -2   36.30    6.40
  -2  -5  -2   21.70    6.60
  -2  -5  -2   25.40    6.60
  -2  -5  -2   32.30    6.50
   2   5   2   38.50    7.60
   2   5   2   34.00    7.80
   2   5   2   35.70    6.00
  -3  -5  -2   26.70    4.90
  -3  -5  -2   38.10    7.80
  -3  -5  -2   25.70    7.70
   3   5   2   53.59   10.20
   3   5   2   52.49    8.60
  -4  -5  -2  386.96   16.70
  -4  -5  -2  385.76   21.30
   4   5   2  399.76   21.30
   4   5   2  351.46   20.60
   4   5   2  395.66   23.80
  -5  -5  -2 1139.99   38.80
  -5  -5  -2 1157.48   45.60
  -5  -5  -2 1138.29   37.40
   5   5   2 1122.09   45.60
   5   5   2  981.40   51.09
   5   5   2 1114.49   50.99
  -6  -5  -2    5.60    2.30
  -6  -5  -2    8.00    4.30
   6   5   2    6.20    6.70
   6   5   2   16.70    5.90
   6   5   2    8.90    3.30
   6   5   2    8.20    5.00
  -7  -5  -2   29.40    4.70
   7   5   2   34.60   11.90
   7   5   2   41.90    5.40
   7   5   2   25.50    7.50
   7   5   2   45.20    9.00
   8   5   2  314.67   14.50
   8   5   2  318.87   20.90
   8   5   2  319.87   28.20
   8   5   2  329.27   21.30
   9   5   2   29.10   14.60
   9   5   2   40.60    4.40
   9   5   2   27.60    8.60
  10   5   2    8.20   11.70
  10   5   2    9.00    6.20
  11   5   2    9.10    9.80
   7  -6  -2  -13.50    7.30
   6  -6  -2   -3.40    3.20
   6  -6  -2   -9.10    6.10
   6  -6  -2   -0.70    6.80
   5  -6  -2   82.29   15.50
   5  -6  -2   73.39    8.50
   5  -6  -2   55.39   12.10
   4  -6  -2   14.40    8.20
   4  -6  -2    8.40    5.20
   4  -6  -2    5.60    4.90
   4  -6  -2    7.80    6.90
   3  -6  -2   22.50    8.50
   3  -6  -2   17.70    6.30
   3  -6  -2   20.40    6.40
   2  -6  -2   86.79   11.10
   2  -6  -2   72.59   12.70
   2  -6  -2   80.49   11.20
   2  -6  -2   80.99    8.10
  -2   6   2   60.69    8.10
  -2   6   2   61.39    7.80
   1  -6  -2   83.79   11.30
   1  -6  -2   72.59   10.90
   1  -6  -2   67.69   11.10
   1  -6  -2   77.59    8.90
  -1   6   2   88.59   13.70
  -1   6   2   55.09   14.00
   0  -6  -2  187.18   14.00
   0  -6  -2  222.38   16.90
   0  -6  -2  191.48   15.20
   0  -6  -2  191.18   13.90
   0   6   2  153.68   18.20
   0   6   2  201.98   13.30
  -1  -6  -2  346.17   21.30
  -1  -6  -2  331.57   19.60
  -1  -6  -2  355.66   21.30
  -1  -6  -2  361.26   21.50
   1   6   2  335.27   19.10
   1   6   2  350.06   14.20
   1   6   2  366.66   25.20
   1   6   2  331.17   16.40
  -2  -6  -2    3.80    4.10
  -2  -6  -2   14.40    6.40
  -2  -6  -2    4.90    4.90
   2   6   2    7.40    6.20
   2   6   2    5.80    4.90
   2   6   2    4.20    3.40
  -3  -6  -2    4.00    4.00
  -3  -6  -2    2.00    5.20
  -3  -6  -2    5.90    5.00
   3   6   2    5.20    5.00
   3   6   2    6.30    5.60
  -4  -6  -2   23.70   10.60
  -4  -6  -2   34.90    5.90
  -4  -6  -2   32.60    8.50
   4   6   2   39.40    9.80
   4   6   2   37.80    8.70
  -5  -6  -2  586.74   23.00
  -5  -6  -2  562.84   29.30
   5   6   2  565.54   33.00
  -6  -6  -2   24.40    7.00
  -6  -6  -2   16.00    2.20
   6   6   2   14.80    7.20
   6   6   2   20.20    9.30
  -7  -6  -2  190.08   14.70
   7   6   2  172.58   20.10
   7   6   2  173.38   14.90
   7   6   2  147.79   14.80
   8   6   2  258.57   26.30
   8   6   2  288.57   20.90
   9   6   2    5.20   10.10
   9   6   2   -2.00    5.40
  10   6   2  139.09   26.50
  10   6   2  141.09   15.30
  11   6   2  149.39   15.80
  11   6   2  156.98   26.00
  11   6   2  186.98   25.80
   6  -7  -2  192.98   12.10
   5  -7  -2  263.57   16.20
   5  -7  -2  283.97   25.50
   4  -7  -2   -0.30    4.30
   4  -7  -2   17.50    7.70
   4  -7  -2    1.30    6.00
   3  -7  -2   11.30    5.30
   3  -7  -2    9.60    7.10
   2  -7  -2  714.73   34.80
   2  -7  -2  706.03   30.80
   2  -7  -2  729.83   39.90
   1  -7  -2  115.99   15.10
   1  -7  -2  113.29   14.70
   1  -7  -2  124.29   11.60
   1  -7  -2  102.29   15.20
  -1   7   2   96.69   10.20
   0  -7  -2    9.70    5.80
   0  -7  -2   -1.40    5.30
   0  -7  -2    4.80    5.70
   0  -7  -2    4.80    4.30
   0   7   2    5.40    4.30
   0   7   2   -3.20    6.70
  -1  -7  -2   92.59   13.70
  -1  -7  -2   86.29   12.80
  -1  -7  -2  116.59   15.10
   1   7   2  104.09   19.10
   1   7   2   84.79   10.10
  -2  -7  -2   12.20    5.70
  -2  -7  -2   -1.30    5.70
  -2  -7  -2    5.70    6.10
   2   7   2    6.90    3.50
   2   7   2    1.20    4.60
   2   7   2    6.80    8.80
   2   7   2    8.80    5.40
  -3  -7  -2  181.08   14.50
  -3  -7  -2  208.28   17.20
  -3  -7  -2  170.08   17.30
   3   7   2  179.78   17.60
   3   7   2  179.78   15.40
   3   7   2  173.18   12.90
  -4  -7  -2  124.69   15.50
  -4  -7  -2  123.29   11.20
  -4  -7  -2  127.49   16.60
   4   7   2  139.59   15.50
   4   7   2  118.79   13.00
  -5  -7  -2  121.79   13.70
  -5  -7  -2  167.28   11.00
   5   7   2  138.79   16.40
   5   7   2  137.89   14.20
  -6  -7  -2    7.40    5.30
  -6  -7  -2    3.80    2.40
   6   7   2    4.50    5.90
   6   7   2    1.30    7.70
  -7  -7  -2  393.86   31.20
   7   7   2  413.06   26.30
   7   7   2  380.06   30.30
   8   7   2   27.40   13.20
   9   7   2  176.88   24.30
   9   7   2  232.98   20.40
  10   7   2   35.70    9.40
  10   7   2   10.00   12.00
  10   7   2   15.80   11.90
  11   7   2   80.49   24.00
  11   7   2   58.09   12.50
  11   7   2   86.29   20.80
   4  -8  -2   27.60   10.10
   4  -8  -2   31.80    7.40
   4  -8  -2   31.80   11.30
   3  -8  -2    5.30    6.70
   3  -8  -2    1.10    5.00
   2  -8  -2    7.50    6.10
   2  -8  -2   -2.80    7.60
   1  -8  -2  284.37   21.60
   1  -8  -2  290.67   24.30
   1  -8  -2  285.77   19.10
   0  -8  -2  390.36   25.30
   0  -8  -2  365.06   26.20
   0   8   2  314.67   27.80
   0   8   2  354.16   21.20
  -1  -8  -2  854.71   40.20
  -1  -8  -2  712.43   37.90
  -1  -8  -2  714.73   37.00
   1   8   2  741.33   34.30
   1   8   2  550.04   44.70
  -2  -8  -2   59.79   13.40
  -2  -8  -2   71.59   13.10
  -2  -8  -2   66.69   12.00
   2   8   2   50.79   10.00
   2   8   2   55.79   15.00
  -3  -8  -2    5.10    7.50
  -3  -8  -2   -2.10    4.20
  -3  -8  -2    9.10    6.80
   3   8   2    2.90    5.70
   3   8   2    0.30    4.10
   3   8   2   -1.80    7.60
  -4  -8  -2  146.19   21.20
  -4  -8  -2  131.89   13.10
  -4  -8  -2  136.69   15.40
   4   8   2  131.89   16.50
   4   8   2  137.69   14.30
   4   8   2  147.09   13.20
  -5  -8  -2   89.19   13.90
  -5  -8  -2   80.39    9.00
   5   8   2   65.49   14.60
   5   8   2   87.89   13.70
   5   8   2   95.59   15.40
  -6  -8  -2  328.67   23.60
  -6  -8  -2  302.57   16.10
   6   8   2  308.67   23.00
   6   8   2  298.47   26.40
  -7  -8  -2   13.80    7.30
   7   8   2    5.70    9.40
   7   8   2   20.60    9.20
   8   8   2   19.30   11.20
   8   8   2   22.40    9.00
   9   8   2  109.99   23.10
   9   8   2  119.49   18.50
  10   8   2   38.90   15.50
  10   8   2   22.20   15.40
   3  -9  -2   75.09   12.00
   3  -9  -2   66.89   15.20
   3  -9  -2   53.59   13.50
   2  -9  -2   31.30    8.50
   2  -9  -2   51.89   12.40
   1  -9  -2   16.60    8.90
   1  -9  -2   41.80   11.00
   0  -9  -2   24.40    9.30
   0  -9  -2   21.80    9.20
   0  -9  -2   23.00    8.70
   0   9   2   45.60   12.40
  -1  -9  -2  165.08   18.50
  -1  -9  -2  173.58   18.00
  -1  -9  -2  169.38   18.50
   1   9   2  151.18   19.10
  -2  -9  -2    7.40    7.50
  -2  -9  -2   -1.70    8.70
  -2  -9  -2    8.30    5.90
   2   9   2   -1.10    8.30
   2   9   2   -0.90    5.70
  -3  -9  -2   60.09   14.40
  -3  -9  -2   60.49   14.10
  -3  -9  -2   53.29   11.70
   3   9   2   69.89   12.60
   3   9   2   57.99    8.40
   3   9   2   49.00   15.20
  -4  -9  -2   15.90   10.80
  -4  -9  -2    2.90    7.10
  -4  -9  -2    5.50    5.40
   4   9   2   10.80    7.70
   4   9   2   -0.60   10.50
   4   9   2    8.90    6.00
  -5  -9  -2   14.90    8.20
  -5  -9  -2    1.60    4.50
   5   9   2    3.10    8.80
   5   9   2   -0.50    5.30
   5   9   2    6.40    7.70
  -6  -9  -2    1.20    4.40
  -6  -9  -2   25.30    8.90
   6   9   2    3.80    7.40
   6   9   2   -0.90    7.10
   6   9   2   11.70   10.60
  -7  -9  -2  238.38   20.80
  -7  -9  -2  189.18   12.90
   7   9   2  205.08   23.80
   8   9   2   62.39   14.10
   8   9   2   51.89   17.10
   8   9   2   62.19   16.80
   9   9   2  -14.00    7.90
   9   9   2    2.00    9.10
   9   9   2   -6.20    7.00
  10   9   2  -17.60   12.30
  10   9   2    2.20    9.40
  10   9   2   14.40    9.20
   1 -10  -2   26.50   11.10
   1 -10  -2   35.80   10.50
   0 -10  -2   62.19   13.60
   0 -10  -2   19.60    9.70
  -1 -10  -2  117.39   18.00
  -1 -10  -2  156.38   17.30
   1  10   2  104.19   21.10
  -2 -10  -2   43.50   12.60
  -2 -10  -2   25.70   10.50
   2  10   2   54.29   14.10
  -3 -10  -2   15.00    7.60
  -3 -10  -2    5.40    8.80
   3  10   2   11.90   13.10
   3  10   2   -9.80    6.70
   4  10   2   21.90    9.70
   4  10   2  -14.40    5.90
   4  10   2   -1.00   11.60
  -5 -10  -2   37.10   12.30
  -5 -10  -2   54.29   10.20
   5  10   2   56.09   13.30
   5  10   2   59.99   12.10
  -6 -10  -2   23.30   10.50
  -6 -10  -2   -4.80    5.90
   6  10   2   -0.90    9.80
   6  10   2    2.10    7.70
   6  10   2   -3.70    7.40
  -7 -10  -2   27.50   14.00
   7  10   2   58.29   14.80
   7  10   2   55.89   14.40
   7  10   2   76.19   19.10
   8  10   2   -2.70    9.30
   8  10   2   13.20   13.30
   8  10   2    6.80    9.30
   9  10   2    1.20   11.20
   9  10   2   23.20   13.70
  -1 -11  -2    8.40   10.60
  -1 -11  -2   32.60   11.20
  -3 -11  -2   41.80   12.20
  -3 -11  -2    4.50    7.20
  -4 -11  -2   43.30   14.60
  -4 -11  -2   27.30   10.20
   4  11   2   33.90   16.70
  -5 -11  -2   83.49   14.20
  -5 -11  -2  102.59   18.90
   5  11   2  102.39   17.70
   5  11   2   80.29   22.20
  -6 -11  -2  -15.90    7.20
  -6 -11  -2   33.70   11.20
   6  11   2    3.80   11.50
   6  11   2    4.20   15.20
   7  11   2    6.70   10.60
   7  11   2   -5.10   11.40
   7  11   2   -4.80   14.50
   8  11   2   49.60   15.90
   8  11   2   32.90   15.70
   9  11   2    8.60   14.40
  -4 -12  -2   -6.70    9.60
  -4 -12  -2   16.20   11.40
  -5 -12  -2   64.29   16.60
   6  12   2  -11.90   22.20
   7  12   2   24.90   25.60
   8  11  -3   -5.80   17.60
   8  11  -3   33.00   16.80
   7  11  -3   22.40   14.90
   7  11  -3  -46.30   23.90
  -6 -11   3  142.29   25.20
  -6 -11   3  177.88   29.90
  -5 -11   3   27.40   13.20
  -5 -11   3   -7.30   10.60
  -5 -11   3  -11.40    9.30
  -4 -11   3   96.89   17.40
  -4 -11   3  215.78   40.90
  -4 -11   3   87.69   20.90
  -3 -11   3   26.90   11.60
  -3 -11   3   -4.90   12.00
  -3 -11   3   -7.20    8.30
  -2 -11   3   39.40   13.30
  -2 -11   3    3.10   10.60
  -1 -11   3   28.10   15.70
   9  10  -3  -26.60   18.70
   9  10  -3   15.40   18.10
   8  10  -3   -1.60   12.00
   8  10  -3    2.80   10.60
   7  10  -3   -3.70   10.90
   7  10  -3  -21.30    9.50
  -7 -10   3    1.90   12.50
   6  10  -3   11.20   11.40
   6  10  -3   19.80   12.20
  -6 -10   3   56.19   17.90
  -6 -10   3   52.79   24.40
  -6 -10   3   -7.70    8.00
   5  10  -3   21.70   11.20
   5  10  -3    5.70   12.30
  -5 -10   3   19.10   11.30
  -5 -10   3    1.60    9.30
   4  10  -3   13.70   15.00
   4  10  -3   42.60   14.00
  -4 -10   3   19.60    9.50
  -4 -10   3   53.99   16.90
  -4 -10   3   73.49   17.50
  -3 -10   3  136.09   20.40
  -3 -10   3  138.09   24.30
  -3 -10   3  168.58   24.40
  -2 -10   3    0.00    8.60
  -2 -10   3  -15.40    8.80
  -2 -10   3   23.40   10.50
  -1 -10   3    9.70    8.40
  -1 -10   3  -19.60    6.10
  -1 -10   3    3.10   10.60
   0 -10   3   95.99   16.30
   0 -10   3   99.69   20.20
   0 -10   3   78.69   17.10
   8   9  -3   55.49   16.50
   8   9  -3   51.49   16.70
   7   9  -3   36.20   14.40
   7   9  -3   66.39   14.80
  -7  -9   3   50.69   13.60
  -7  -9   3   46.90   14.70
   6   9  -3   27.20   10.00
   6   9  -3   22.40   11.80
  -6  -9   3   30.40   11.50
  -6  -9   3   25.80   13.60
  -6  -9   3    5.40    5.80
   5   9  -3  566.14   36.10
   5   9  -3  586.24   36.20
  -5  -9   3  602.94   43.30
  -5  -9   3  590.14   38.10
  -5  -9   3  594.14   32.30
   4   9  -3   50.99   12.70
   4   9  -3   71.09   14.60
  -4  -9   3   64.39   12.50
  -4  -9   3   71.69   18.60
  -4  -9   3   70.69   15.50
   3   9  -3   85.39   13.70
   3   9  -3   89.89   16.70
  -3  -9   3   93.19   20.30
  -3  -9   3   98.19   15.80
  -3  -9   3  131.59   22.90
   2   9  -3   25.60    9.90
  -2  -9   3   30.40   16.40
  -2  -9   3   42.70   12.50
  -2  -9   3   30.00    9.70
  -1  -9   3    2.20    8.20
  -1  -9   3   15.50    9.70
   0  -9   3   37.80   11.90
   0  -9   3   15.20    9.00
   1  -9   3  256.57   25.80
   1  -9   3  239.98   21.50
   2  -9   3   22.10   11.30
   2  -9   3   47.00   11.10
  10   8  -3   -0.80    8.10
  10   8  -3    0.40   11.00
   9   8  -3  144.29   21.40
   9   8  -3  129.59   19.70
   8   8  -3  107.89   21.80
   8   8  -3  138.59   20.20
   7   8  -3    6.40   10.40
  -7  -8   3   33.70   14.80
  -7  -8   3   17.60   10.50
   6   8  -3    6.90    8.80
   6   8  -3   -4.80    7.30
  -6  -8   3   11.30    5.00
  -6  -8   3   24.60   13.20
  -6  -8   3    8.80    7.20
   5   8  -3    7.80    7.00
   5   8  -3    5.10    8.10
  -5  -8   3    0.90    4.80
  -5  -8   3   10.40    8.10
  -5  -8   3   -3.10    8.70
   4   8  -3  996.50   47.40
   4   8  -3 1026.80   48.60
  -4  -8   3 1053.19   55.79
  -4  -8   3  965.40   49.90
  -4  -8   3  988.20   45.50
   3   8  -3  714.93   37.90
   3   8  -3  729.53   37.30
  -3  -8   3  719.43   41.00
  -3  -8   3  786.62   39.30
  -3  -8   3  748.03   44.70
   2   8  -3  274.97   20.30
   2   8  -3  299.37   21.50
  -2  -8   3  255.87   22.20
  -2  -8   3  277.37   25.70
  -2  -8   3  282.07   23.90
   1   8  -3    8.60    5.90
   1   8  -3   27.10    6.70
  -1  -8   3   13.70   11.70
  -1  -8   3    8.50    6.50
  -1  -8   3   17.80    9.50
   0  -8   3   40.20   12.00
   0  -8   3   51.69   13.60
   0  -8   3   38.40   11.50
   1  -8   3   20.10   10.00
   1  -8   3   21.30   10.10
   1  -8   3   18.00    8.80
   2  -8   3  332.87   24.10
   2  -8   3  344.67   28.70
   2  -8   3  313.27   25.80
   3  -8   3   15.20    7.00
   3  -8   3   16.70   10.80
   4  -8   3   27.80    7.40
   4  -8   3   24.00   12.20
   9   7  -3   80.39   11.70
   9   7  -3  103.49   23.20
   9   7  -3   86.39   16.40
   8   7  -3   38.40   12.10
   8   7  -3   31.10    7.70
   8   7  -3   34.90   14.50
   7   7  -3   89.09   15.60
   7   7  -3   93.79   12.50
   7   7  -3   91.49   18.40
  -7  -7   3   89.59   15.40
   6   7  -3   60.49   13.20
   6   7  -3   77.19   16.80
   6   7  -3   69.89   11.20
  -6  -7   3   75.99   18.00
  -6  -7   3   75.39   13.50
  -6  -7   3   66.79    7.30
   5   7  -3   -4.20    5.50
   5   7  -3    3.40    6.20
  -5  -7   3    7.20    4.40
  -5  -7   3   11.20    7.80
  -5  -7   3   -1.10    7.50
   4   7  -3  258.77   20.40
   4   7  -3  259.87   20.40
  -4  -7   3  250.27   17.70
  -4  -7   3  244.38   23.80
   3   7  -3   11.20    6.20
   3   7  -3   16.70    6.30
  -3  -7   3   21.30    8.00
  -3  -7   3   19.30    7.20
  -3  -7   3   18.40    9.80
   2   7  -3   46.60    9.90
   2   7  -3   39.30    9.60
  -2  -7   3   32.50   10.10
  -2  -7   3   44.60   12.90
  -2  -7   3   30.10    8.60
   1   7  -3   -6.70    3.40
   1   7  -3    0.00    4.20
   1   7  -3    6.40    5.60
  -1  -7   3   -3.90    6.90
  -1  -7   3   -2.10    4.90
  -1  -7   3    1.60    5.80
   0   7  -3   91.39    9.80
   0  -7   3  140.69   16.90
   0  -7   3  106.09   16.10
   0  -7   3   93.29   15.10
   1  -7   3   44.10   11.20
   1  -7   3   40.80   11.50
   1  -7   3   83.79   14.20
   2  -7   3   40.10   10.00
   2  -7   3   56.79   13.00
   2  -7   3   50.19   12.70
   3  -7   3   74.79   12.10
   3  -7   3   84.79   14.30
   3  -7   3   76.79   15.90
   4  -7   3  123.79   19.30
   4  -7   3  124.39   12.20
   5  -7   3    5.30    8.00
   6  -7   3    6.10    3.40
  10   6  -3   13.80    5.30
  10   6  -3    7.00   12.20
  10   6  -3   -1.70    7.00
   9   6  -3   68.39   19.30
   9   6  -3   89.59   15.10
   9   6  -3   66.59    9.90
   8   6  -3   20.10    8.60
   8   6  -3   20.60    6.00
   8   6  -3   18.70   12.20
   7   6  -3   11.50    7.40
   7   6  -3   24.50   11.10
   7   6  -3   35.50    7.80
  -7  -6   3   32.90    8.60
  -7  -6   3   26.80   12.00
   6   6  -3   35.20    7.50
   6   6  -3   39.20   12.40
   6   6  -3   30.40    9.40
  -6  -6   3   38.30   12.20
  -6  -6   3   36.00    9.80
  -6  -6   3   16.30    4.90
   5   6  -3   95.39   13.50
   5   6  -3  114.49   12.80
   5   6  -3   98.59   10.50
  -5  -6   3  127.79   16.70
  -5  -6   3   95.59    8.70
  -5  -6   3  131.49   20.00
   4   6  -3   73.79   12.90
   4   6  -3   55.79    9.40
   4   6  -3   57.99   11.30
  -4  -6   3   55.99   11.30
  -4  -6   3   68.39    9.10
  -4  -6   3   56.19   13.50
   3   6  -3 1353.66   53.99
   3   6  -3 1281.47   53.89
  -3  -6   3 1323.27   59.89
  -3  -6   3 1343.17   53.09
  -3  -6   3 1327.37   56.49
   2   6  -3   14.20    5.80
   2   6  -3   25.20    6.70
  -2  -6   3   14.90    5.90
  -2  -6   3   19.90    7.90
  -2  -6   3   29.10   10.40
   1   6  -3   53.69    9.10
   1   6  -3   52.49    9.30
  -1  -6   3   44.80   10.30
  -1  -6   3   56.09   12.50
  -1  -6   3   30.20    8.10
  -1  -6   3   48.30    8.40
   0   6  -3   95.39    4.70
   0   6  -3  108.49   10.10
   0   6  -3   85.69    9.30
   0  -6   3  118.79   13.20
   0  -6   3  104.19   14.70
   0  -6   3  105.59   10.00
  -1   6  -3   24.70    5.60
   1  -6   3   27.30    8.20
   1  -6   3   14.00    6.00
   1  -6   3   21.20    7.50
  -2   6  -3  175.68   11.20
   2  -6   3  148.79   13.00
   2  -6   3  150.08   14.50
   2  -6   3  179.48   16.80
   2  -6   3  194.18   18.70
   3  -6   3   25.40    6.90
   3  -6   3   29.30    9.30
   3  -6   3   24.50   10.10
   3  -6   3   13.90    6.10
   4  -6   3  132.49   12.10
   4  -6   3  117.69   13.90
   4  -6   3  168.88   19.00
   5  -6   3   29.50   12.20
   5  -6   3   31.50    6.40
   6  -6   3    6.90    7.70
   6  -6   3   -2.00    6.30
   6  -6   3    5.10    2.60
  11   5  -3   25.80   16.70
  11   5  -3   20.90    8.50
  10   5  -3   18.30    6.40
  10   5  -3   27.60   15.30
  10   5  -3   26.80    8.70
   9   5  -3  134.69   11.60
   9   5  -3  125.19   16.90
   9   5  -3  146.19   26.90
   9   5  -3  140.49   16.00
   8   5  -3   33.20   14.70
   8   5  -3   47.00   11.70
   8   5  -3   25.60    8.40
   8   5  -3   35.00    6.90
   7   5  -3  139.39   13.80
   7   5  -3  186.58   16.30
   7   5  -3  158.18   11.80
   7   5  -3  157.38   19.80
  -7  -5   3  170.08   14.40
   6   5  -3  305.77   24.90
   6   5  -3  255.67   18.80
   6   5  -3  278.47   16.10
   6   5  -3  285.77   20.00
  -6  -5   3  279.77   23.40
  -6  -5   3  284.57   19.70
   5   5  -3   -0.30    5.00
   5   5  -3   -1.20    3.70
   5   5  -3   -3.50    4.70
  -5  -5   3   -2.20    4.50
  -5  -5   3   -1.80    1.50
  -5  -5   3   -3.40    6.30
   4   5  -3  134.29   13.80
   4   5  -3  122.29   12.20
   4   5  -3  134.89   10.40
  -4  -5   3  140.89   21.80
  -4  -5   3  123.49   12.70
  -4  -5   3  115.99    7.60
   3   5  -3   16.80    6.10
   3   5  -3    4.20    4.70
   3   5  -3   11.10    4.80
  -3  -5   3   21.30    6.90
  -3  -5   3    4.40    6.70
   2   5  -3   -0.20    3.30
   2   5  -3   -3.30    3.30
  -2  -5   3    4.60    4.50
  -2  -5   3    4.40    5.90
   1   5  -3   67.59    8.00
   1   5  -3   67.69    9.70
  -1  -5   3   84.69   11.60
  -1  -5   3   59.39   13.10
  -1  -5   3   70.09   12.70
   0   5  -3  397.46   15.90
   0   5  -3  350.56   19.00
   0   5  -3  372.66   19.30
   0  -5   3  409.56   22.50
   0  -5   3  396.66   24.20
   0  -5   3  358.86   19.50
  -1   5  -3   87.89    7.90
   1  -5   3   96.09   14.50
   1  -5   3   85.49   10.10
   1  -5   3   87.59    9.00
   1  -5   3   84.29    5.40
   1  -5   3   76.49   12.00
  -2   5  -3  129.59    8.50
   2  -5   3  122.09   14.30
   2  -5   3  121.89   10.30
   2  -5   3  115.19   13.20
   2  -5   3  109.29   11.10
   3  -5   3  192.18   16.50
   3  -5   3  187.28   14.10
   3  -5   3  208.18   19.00
   3  -5   3  188.98   13.10
   4  -5   3   70.09    9.20
   4  -5   3   71.39   13.70
   4  -5   3   63.19    7.40
   4  -5   3   62.49   11.10
   4  -5   3   57.09    4.90
   5  -5   3   13.20    7.50
   5  -5   3   12.70    7.90
   5  -5   3    5.40    3.40
   6  -5   3   51.09    4.20
   6  -5   3   53.59    4.50
   6  -5   3   42.20   10.90
   6  -5   3   40.00   12.20
   7  -5   3   13.90    9.60
   7  -5   3    3.40    6.80
   7  -5   3   10.80    7.40
  11   4  -3   14.10    6.80
  11   4  -3    4.20    9.10
  11   4  -3   17.60   14.60
  10   4  -3   76.29   12.20
  10   4  -3   69.39   13.60
  10   4  -3   65.89    9.10
  10   4  -3   91.19   22.60
   9   4  -3   16.90    5.50
   9   4  -3   11.90    6.90
   9   4  -3   34.10   15.90
   9   4  -3   17.00    9.00
   8   4  -3  596.84   31.70
   8   4  -3  594.84   26.60
   8   4  -3  643.84   43.30
   8   4  -3  581.14   31.40
   7   4  -3  237.88   18.10
   7   4  -3  286.67   17.10
   7   4  -3  285.17   19.00
   7   4  -3  286.57   19.40
   7   4  -3  266.67   25.30
  -7  -4   3  278.17   17.50
   6   4  -3  671.43   31.90
   6   4  -3  611.94   31.20
   6   4  -3  670.73   38.80
   6   4  -3  628.74   30.20
   6   4  -3  647.54   27.10
  -6  -4   3  659.33   36.10
  -6  -4   3  685.13   31.20
   5   4  -3   -1.20    5.40
   5   4  -3   -7.70    3.00
   5   4  -3   -3.20    4.10
   5   4  -3   -2.60    2.60
  -5  -4   3   -0.50    1.40
  -5  -4   3    5.70    5.10
  -5  -4   3   -4.70    5.20
  -5  -4   3   -0.70    1.00
   4   4  -3    0.50    3.70
   4   4  -3    1.40    3.10
   4   4  -3    5.20    5.30
   4   4  -3    2.10    3.40
  -4  -4   3    7.40    4.60
  -4  -4   3    1.50    1.40
  -4  -4   3    5.20    5.60
   3   4  -3  413.96   22.90
   3   4  -3  397.86   21.20
   3   4  -3  407.46   21.20
   3   4  -3  400.16   18.90
  -3  -4   3  434.36   25.00
  -3  -4   3  432.16   22.50
   2   4  -3   66.49   10.70
   2   4  -3   64.69    8.90
   2   4  -3   50.19    6.90
   2   4  -3   56.49    6.50
  -2  -4   3   60.79    8.30
  -2  -4   3   57.89    9.30
  -2  -4   3   61.79   11.00
   1   4  -3  771.72   28.70
   1   4  -3  658.03   31.00
   1   4  -3  723.63   30.30
  -1  -4   3  742.63   34.60
  -1  -4   3  711.93   30.00
  -1  -4   3  756.32   32.40
   0   4  -3  266.07   12.90
   0   4  -3  247.98   14.20
   0   4  -3  270.87   13.50
   0  -4   3  255.17   17.60
   0  -4   3  258.97   14.30
   0  -4   3  244.78   15.60
  -1   4  -3 1449.76   48.50
   1  -4   3 1462.35   55.19
   1  -4   3 1543.25   56.09
   1  -4   3 1460.45   48.50
   1  -4   3 1528.75   58.59
  -2   4  -3  989.10   35.40
   2  -4   3 1065.99   43.90
   2  -4   3 1001.60   33.40
   2  -4   3  941.01   42.00
   2  -4   3  991.90   38.00
   3  -4   3 1174.68   48.50
   3  -4   3 1155.58   43.00
   3  -4   3 1189.58   51.29
   3  -4   3 1166.88   40.80
   3  -4   3 1167.68   44.50
   4  -4   3  374.06   25.00
   4  -4   3  357.56   16.90
   4  -4   3  351.36   18.10
   4  -4   3  394.36   22.60
   4  -4   3  364.86   17.90
   5  -4   3   12.10    3.30
   5  -4   3   17.00    6.40
   5  -4   3   16.20    5.50
   5  -4   3   12.80    8.40
   5  -4   3   15.10    4.00
   6  -4   3   19.60    6.80
   6  -4   3   19.80    8.50
   6  -4   3   25.90    8.90
   6  -4   3   10.40    6.90
   7  -4   3   10.70    8.30
   7  -4   3   -2.00    5.60
   7  -4   3   -7.90    5.30
   8  -4   3   32.30    9.60
   8  -4   3    0.60    6.50
  11   3  -3   12.60   14.00
  11   3  -3  -18.30    8.20
  11   3  -3    5.30    5.30
  10   3  -3    3.50    5.30
  10   3  -3   -1.20    4.40
  10   3  -3   10.90    8.80
  10   3  -3  -11.60    9.20
   9   3  -3    2.50    5.30
   9   3  -3   -6.10    6.50
   9   3  -3   -0.50   10.60
   9   3  -3    1.50    4.70
   8   3  -3   -9.10    6.10
   8   3  -3   -2.90    3.80
   8   3  -3    3.60    6.20
   8   3  -3    3.70    5.10
   8   3  -3   -3.80    3.70
   7   3  -3  332.07   20.10
   7   3  -3  319.07   19.80
   7   3  -3  315.77   20.60
   7   3  -3  345.87   17.10
   7   3  -3  338.27   28.40
  -7  -3   3  336.97   17.50
   6   3  -3  315.67   18.70
   6   3  -3  308.37   15.60
   6   3  -3  303.17   18.60
   6   3  -3  297.27   18.60
   6   3  -3  319.17   25.30
  -6  -3   3  338.87   18.00
   5   3  -3   29.50    6.40
   5   3  -3   23.30    6.30
   5   3  -3   23.00    4.60
   5   3  -3   22.00    8.70
   5   3  -3   30.10    7.10
  -5  -3   3   18.30    6.90
  -5  -3   3   23.30    5.60
   4   3  -3  931.51   39.70
   4   3  -3 1035.70   39.10
   4   3  -3 1040.70   36.60
   4   3  -3 1021.60   39.90
   4   3  -3 1021.80   45.10
  -4  -3   3 1039.90   43.90
  -4  -3   3  995.80   40.40
  -4  -3   3  981.50   33.20
   3   3  -3   67.19    7.30
   3   3  -3   64.09    5.80
   3   3  -3   51.19    7.80
   3   3  -3   59.09    8.20
   3   3  -3   71.89    6.70
  -3  -3   3   64.19    7.50
  -3  -3   3   71.09   10.60
  -3  -3   3   59.39    4.10
   2   3  -3  392.26   18.70
   2   3  -3  408.76   19.70
   2   3  -3  369.86   16.80
   2   3  -3  335.97   21.10
  -2  -3   3  398.66   17.10
  -2  -3   3  384.86   17.90
  -2  -3   3  395.06   21.50
  -2  -3   3  424.46   22.50
   1   3  -3   -1.30    2.80
   1   3  -3   -2.40    2.60
   1   3  -3    0.30    2.60
   1   3  -3    0.70    2.40
   1   3  -3   -0.80    1.90
   1   3  -3    0.80    3.60
  -1  -3   3    1.10    3.90
  -1  -3   3    1.30    3.90
  -1  -3   3    6.30    3.10
  -1  -3   3   -0.60    1.60
  -1  -3   3   -0.70    3.30
   0   3  -3 1490.05   45.80
   0   3  -3 1355.56   48.30
   0   3  -3 1287.17   47.90
   0   3  -3 1330.17   50.39
   0  -3   3 1369.46   49.90
   0  -3   3 1345.37   48.20
   0  -3   3 1341.17   52.19
   0  -3   3 1395.46   50.19
  -1   3  -3  890.81   35.40
  -1   3  -3  854.51   28.90
   1  -3   3  798.92   31.40
   1  -3   3  804.92   31.00
   1  -3   3  819.22   34.80
   1  -3   3  798.22   32.40
  -2   3  -3   17.30    2.80
   2  -3   3   16.80    2.80
   2  -3   3   13.10    3.70
   2  -3   3   14.20    3.60
   2  -3   3   12.10    4.90
   2  -3   3   14.70    4.20
   3  -3   3   38.70    6.80
   3  -3   3   47.00    5.70
   3  -3   3   30.60    5.20
   3  -3   3   41.70    5.60
   3  -3   3   33.90    7.80
   4  -3   3  643.14   24.20
   4  -3   3  637.14   30.00
   4  -3   3  658.83   25.10
   4  -3   3  621.94   27.50
   4  -3   3  660.33   32.80
   5  -3   3   90.09   12.50
   5  -3   3   82.09    5.20
   5  -3   3   79.39    9.40
   5  -3   3   76.99    7.70
   5  -3   3   75.19    5.20
   5  -3   3   96.59   13.30
   6  -3   3    8.70    4.50
   6  -3   3   10.30    5.80
   6  -3   3   -0.50    3.80
   6  -3   3   10.90    6.20
   6  -3   3    5.00    4.50
   6  -3   3   12.70    5.90
   7  -3   3   72.49   10.70
   7  -3   3  110.59   14.00
   7  -3   3   90.49   11.80
   7  -3   3   88.19   15.80
   7  -3   3  128.09   17.20
   7  -3   3  131.29   12.30
   8  -3   3    0.70    5.70
   8  -3   3    5.10    6.50
   8  -3   3   12.40    7.00
   9  -3   3  108.19   17.80
  11   2  -3   -2.10    4.30
  11   2  -3  -10.60    7.60
  11   2  -3    3.60   11.90
  10   2  -3   32.50    8.20
  10   2  -3   27.20    6.80
  10   2  -3   39.80   11.90
  10   2  -3   49.40   18.10
   9   2  -3  166.48   13.90
   9   2  -3  190.18   24.80
   9   2  -3  185.78   18.70
   9   2  -3  168.18   13.00
   8   2  -3   -1.70    8.20
   8   2  -3    0.50    4.10
   8   2  -3    2.20    4.20
   8   2  -3   -4.60    4.00
   8   2  -3    3.70    5.90
   7   2  -3  365.66   22.40
   7   2  -3  364.96   20.10
   7   2  -3  405.06   20.90
   7   2  -3  384.36   18.70
   7   2  -3  379.06   30.00
   6   2  -3   16.20    4.20
   6   2  -3   14.70    5.20
   6   2  -3   14.70    6.20
   6   2  -3   17.80   10.00
   6   2  -3   20.80    5.50
  -6  -2   3   26.90    4.60
   5   2  -3    2.70    3.30
   5   2  -3    2.70    2.90
   5   2  -3   -1.30    3.70
   5   2  -3    1.90    3.20
  -5  -2   3    3.20    3.00
   4   2  -3   34.70    4.80
   4   2  -3   38.10    6.10
   4   2  -3   31.80    6.00
   4   2  -3   36.20    6.00
  -4  -2   3   40.70    6.20
  -4  -2   3   33.00    7.60
  -4  -2   3   26.30    2.50
   3   2  -3    0.10    2.50
   3   2  -3    2.10    2.30
   3   2  -3    1.80    3.00
   3   2  -3    4.20    2.90
   3   2  -3    0.30    2.50
  -3  -2   3    1.50    1.00
  -3  -2   3    2.50    3.90
  -3  -2   3   -0.70    2.50
  -3  -2   3   -3.40    1.30
   2   2  -3   54.99    6.90
   2   2  -3   58.99    9.60
   2   2  -3   46.70    7.60
   2   2  -3   48.90    5.40
   2   2  -3   36.60    4.10
   2   2  -3   45.40    4.80
  -2  -2   3   47.40    3.40
  -2  -2   3   57.19    7.10
  -2  -2   3   48.60    7.80
  -2  -2   3   41.80    4.40
  -2  -2   3   45.60    4.00
  -2  -2   3   59.29    7.70
   1   2  -3 1662.73   54.99
   1   2  -3 1633.24   54.99
   1   2  -3 1566.14   55.39
   1   2  -3 1539.95   58.49
   1   2  -3 1526.85   58.19
   1   2  -3 1626.04   53.69
  -1  -2   3 1677.73   53.29
  -1  -2   3 1586.94   54.39
  -1  -2   3 1518.35   58.79
  -1  -2   3 1604.24   57.79
  -1  -2   3 1665.13   53.49
  -1  -2   3 1632.54   55.99
   0   2  -3    2.60    1.40
   0   2  -3    2.70    3.00
   0   2  -3    2.10    2.90
   0   2  -3    2.80    2.20
   0   2  -3    4.00    2.60
   0  -2   3   -1.90    3.10
   0  -2   3    3.40    3.60
   0  -2   3    4.40    2.80
   0  -2   3    1.70    1.90
  -1   2  -3  233.18   13.70
  -1   2  -3  231.18   11.00
  -1   2  -3  253.07   10.70
   1  -2   3  239.78   12.20
   1  -2   3  218.78   11.20
   1  -2   3  228.58   11.70
   1  -2   3  250.07   11.20
   1  -2   3  241.18   13.60
  -2   2  -3  761.12   28.60
  -2   2  -3  688.93   24.40
  -2   2  -3  717.13   24.60
   2  -2   3  734.13   26.10
   2  -2   3  684.83   26.70
   2  -2   3  795.32   27.20
   2  -2   3  717.63   25.40
   2  -2   3  696.23   29.30
   2  -2   3  705.03   27.80
   3  -2   3  399.06   18.10
   3  -2   3  436.66   17.90
   3  -2   3  402.26   16.50
   3  -2   3  405.06   15.80
   3  -2   3  401.36   19.70
   4  -2   3 1247.88   48.00
   4  -2   3 1293.67   46.20
   4  -2   3 1239.18   42.30
   4  -2   3 1302.47   41.90
   4  -2   3 1247.78   48.00
   5  -2   3    9.00    4.80
   5  -2   3    2.60    4.50
   5  -2   3    9.20    1.20
   5  -2   3    7.20    5.00
   5  -2   3    3.40    4.00
   6  -2   3  299.07   17.70
   6  -2   3  300.27   20.60
   6  -2   3  282.87   19.60
   6  -2   3  297.97   17.20
   6  -2   3  311.37   18.10
   6  -2   3  294.97   18.50
   7  -2   3  263.97   21.00
   7  -2   3  270.47   19.50
   7  -2   3  273.77   17.30
   7  -2   3  292.57   17.80
   7  -2   3  258.27   18.30
   8  -2   3  105.49   11.50
   8  -2   3   68.89   11.00
   8  -2   3   85.29   15.50
   8  -2   3   87.99   12.00
   8  -2   3  105.99   12.60
   8  -2   3   77.19   11.80
   9  -2   3  -14.10    6.70
  11   1  -3    0.00   10.00
  10   1  -3  121.09   13.50
  10   1  -3  173.88   10.90
  10   1  -3  162.38   17.70
  10   1  -3  174.98   25.00
   9   1  -3   93.79   10.60
   9   1  -3   68.49   13.40
   9   1  -3   92.89    9.30
   9   1  -3   82.39    8.50
   9   1  -3   85.09   20.20
   8   1  -3  120.29   13.70
   8   1  -3  115.09    9.40
   8   1  -3   88.79    9.80
   8   1  -3  118.89   22.30
   8   1  -3  104.39    9.80
   8   1  -3  101.49    5.00
   7   1  -3   65.89    8.50
   7   1  -3   58.79    8.30
   7   1  -3   65.19    7.30
   7   1  -3   68.79   16.10
   7   1  -3   55.69    4.10
   7   1  -3   53.59    9.60
   6   1  -3  526.35   24.20
   6   1  -3  570.74   20.20
   6   1  -3  549.85   27.10
   6   1  -3  583.24   24.30
   6   1  -3  556.24   24.40
   5   1  -3  849.02   28.70
   5   1  -3  837.92   32.40
   5   1  -3  809.62   34.40
   5   1  -3  851.41   32.00
   5   1  -3  842.92   33.00
  -5  -1   3  843.12   31.00
   4   1  -3  103.89    8.10
   4   1  -3  110.99    7.50
   4   1  -3  115.29    8.90
   4   1  -3  112.49    7.90
   4   1  -3   96.79    8.70
   4   1  -3  115.69    5.50
  -4  -1   3  111.49    6.30
  -4  -1   3  106.69    7.70
   3   1  -3 4381.26  141.89
   3   1  -3 4450.35  140.99
   3   1  -3 4453.25  142.09
   3   1  -3 4531.15  137.99
   3   1  -3 4209.38  142.99
   3   1  -3 4244.78  149.69
   3   1  -3 4411.86  140.09
  -3  -1   3 4398.36  141.89
  -3  -1   3 4470.75  138.69
  -3  -1   3 4469.35  143.79
  -3  -1   3 4238.68  139.69
  -3  -1   3 4422.76  140.29
   2   1  -3  200.28   10.00
   2   1  -3  194.88   11.00
   2   1  -3  183.18    7.80
   2   1  -3  205.68   14.10
   2   1  -3  201.98   10.60
   2   1  -3  195.88    9.00
  -2  -1   3  190.98    9.70
  -2  -1   3  196.68    9.30
  -2  -1   3  201.08    8.00
  -2  -1   3  205.08    9.00
  -2  -1   3  182.98   14.10
  -2  -1   3  213.88   10.80
  -2  -1   3  191.88   11.20
   1   1  -3  954.80   32.00
   1   1  -3  912.41   30.70
   1   1  -3  876.21   33.10
   1   1  -3  938.11   31.10
   1   1  -3  881.21   30.40
   1   1  -3  807.42   35.30
   1   1  -3  901.31   32.50
  -1  -1   3  953.70   30.30
  -1  -1   3  915.01   33.90
  -1  -1   3  939.11   32.90
  -1  -1   3  918.61   31.50
  -1  -1   3  897.21   30.90
  -1  -1   3  886.91   36.40
  -1  -1   3  908.41   30.60
   0   1  -3 2874.81   88.89
   0   1  -3 2738.73   90.09
   0   1  -3 2801.02   89.29
   0   1  -3 2744.43   90.79
   0   1  -3 2756.92   88.19
   0  -1   3 2753.42   90.79
   0  -1   3 2718.73   87.89
   0  -1   3 2783.12   89.69
   0  -1   3 2501.45   91.39
   0  -1   3 2803.82   88.59
   0  -1   3 2901.51   87.49
  -1   1  -3  938.01   30.70
  -1   1  -3  885.61   31.30
  -1   1  -3  872.51   29.50
  -1   1  -3  873.51   29.50
   1  -1   3  915.91   28.00
   1  -1   3  828.52   31.60
   1  -1   3  844.42   30.90
   1  -1   3  841.42   29.80
   1  -1   3  821.92   30.10
   1  -1   3  855.41   29.50
  -2   1  -3  442.16   14.10
  -2   1  -3  406.96   14.10
   2  -1   3  425.16   16.90
   2  -1   3  431.96   15.30
   2  -1   3  417.36   16.50
   2  -1   3  427.46   18.30
   2  -1   3  420.26   15.80
   2  -1   3  409.96   17.20
   3  -1   3  834.32   32.40
   3  -1   3  845.72   32.30
   3  -1   3  804.82   28.20
   3  -1   3  875.01   27.90
   3  -1   3  848.82   31.90
   4  -1   3   12.10    1.70
   4  -1   3   14.00    1.50
   4  -1   3   13.40    5.10
   4  -1   3   13.70    4.70
   4  -1   3   11.10    4.30
   5  -1   3  345.87   21.10
   5  -1   3  371.66   19.90
   5  -1   3  353.96   17.40
   5  -1   3  343.07   18.50
   5  -1   3  374.46   20.00
   5  -1   3  395.86   18.20
   6  -1   3  129.69   13.40
   6  -1   3  117.99   11.50
   6  -1   3  114.69    9.80
   6  -1   3  113.29   10.70
   6  -1   3  139.09   11.80
   6  -1   3  112.39    9.20
   7  -1   3   88.89   11.00
   7  -1   3   79.69    8.30
   7  -1   3   76.19    9.90
   7  -1   3   81.09   15.00
   7  -1   3   86.49   12.30
   8  -1   3    4.70    5.50
   8  -1   3    3.40    4.70
   8  -1   3   -1.00    6.40
   8  -1   3    5.30    6.00
   8  -1   3   14.70    8.30
   8  -1   3   11.50    5.30
   9  -1   3    5.70    7.20
   9  -1   3    2.00    5.90
   9  -1   3   -3.10    6.70
   9  -1   3    6.90    5.50
   9  -1   3   -8.10    7.80
  10  -1   3  295.97   39.10
  10   0  -3   13.80    9.00
  10   0  -3   -2.90   11.30
  10   0  -3   -6.60    6.70
   9   0  -3   41.40    8.60
   9   0  -3   32.40    5.50
   9   0  -3   39.40   17.00
   9   0  -3   42.00    5.50
   9   0  -3   29.90   10.10
   8   0  -3   45.00    5.60
   8   0  -3   68.99   18.10
   8   0  -3   46.40    8.80
   8   0  -3   47.60   11.00
   8   0  -3   53.29    7.30
   7   0  -3  101.19    8.30
   7   0  -3   90.89    7.10
   7   0  -3   88.99    7.80
   7   0  -3   92.39    9.40
   7   0  -3  108.69   12.00
   6   0  -3   84.49    8.30
   6   0  -3   91.09    6.80
   6   0  -3   87.79    7.30
   6   0  -3   92.59    7.70
   6   0  -3   83.19   11.50
   5   0  -3  994.60   35.80
   5   0  -3 1001.30   34.90
   5   0  -3  978.00   36.70
   5   0  -3  961.00   39.20
   5   0  -3  953.30   35.20
   5   0  -3  902.01   37.50
   4   0  -3 1687.83   55.59
   4   0  -3 1543.85   57.49
   4   0  -3 1650.53   56.49
   4   0  -3 1663.03   55.89
   4   0  -3 1711.73   59.49
   4   0  -3 1622.74   56.89
  -4   0   3 1731.63   55.29
  -4   0   3 1630.14   56.69
   3   0  -3 3218.98   99.49
   3   0  -3 3179.58  100.69
   3   0  -3 2945.11  100.89
   3   0  -3 2930.91  108.29
   3   0  -3 3095.19  100.59
   3   0  -3 3049.50   99.69
   3   0  -3 3142.49  102.29
  -3   0   3 3071.09  100.99
  -3   0   3 3118.49  100.29
  -3   0   3 3232.18  100.29
  -3   0   3 3060.19   98.69
   2   0  -3 2166.98   72.49
   2   0  -3 2139.89   71.09
   2   0  -3 2288.57   73.29
   2   0  -3 2217.18   72.59
   2   0  -3 2112.69   78.09
   2   0  -3 2225.58   71.79
  -2   0   3 2283.87   79.29
  -2   0   3 2262.87   71.79
  -2   0   3 2256.47   72.39
  -2   0   3 2200.98   71.29
  -2   0   3 2212.38   72.59
   1   0  -3  314.57   12.50
   1   0  -3  329.07   12.80
   1   0  -3  322.57   12.90
   1   0  -3  324.57   13.10
   1   0  -3  305.17   16.20
   1   0  -3  308.37   11.80
   1   0  -3  309.87   12.20
  -1   0   3  329.97   12.40
  -1   0   3  295.27   16.60
  -1   0   3  319.97   13.30
  -1   0   3  320.77   13.30
  -1   0   3  315.47   12.30
  -1   0   3  309.77   11.90
   0   0  -3 1475.75   47.00
   0   0  -3 1527.45   47.90
   0   0  -3 1493.85   49.60
   0   0  -3 1475.55   47.90
   0   0  -3 1459.45   46.50
   0   0  -3 1462.45   46.70
   0   0  -3 1416.16   47.30
   0   0   3 1442.56   46.70
   0   0   3 1425.76   47.80
   0   0   3 1444.96   48.00
   0   0   3 1423.46   46.80
   0   0   3 1460.35   47.30
   0   0   3 1397.46   50.09
  -1   0  -3    6.50    2.10
  -1   0  -3    7.00    2.10
  -1   0  -3   11.50    3.30
  -1   0  -3    9.30    2.50
  -1   0  -3    4.60    1.70
   1   0   3    6.70    2.00
   1   0   3    6.60    3.10
   1   0   3    9.00    2.40
   1   0   3    9.90    2.10
   1   0   3    8.00    1.70
   1   0   3    9.40    2.60
   1   0   3    6.00    3.10
  -2   0  -3 1132.39   35.10
  -2   0  -3 1121.49   38.70
  -2   0  -3 1098.59   35.20
   2   0   3 1071.49   35.40
   2   0   3 1117.79   35.60
   2   0   3 1052.09   38.20
   2   0   3 1070.69   38.60
   2   0   3 1106.59   36.10
   3   0   3 2010.40   63.49
   3   0   3 1928.61   67.59
   3   0   3 1909.51   61.99
   3   0   3 1887.11   66.99
   3   0   3 2018.10   61.99
   4   0   3  143.19   11.40
   4   0   3  141.19    8.10
   4   0   3  126.19   10.00
   4   0   3  138.09    5.70
   5   0   3   15.90    3.60
   5   0   3   16.50    1.80
   5   0   3   10.70    3.90
   5   0   3   18.90    2.30
   5   0   3   13.70    6.40
   5   0   3   13.00    5.40
   6   0   3   59.59   11.10
   6   0   3   45.50    6.70
   6   0   3   49.80    5.60
   6   0   3   65.19   12.20
   6   0   3   58.59    7.50
   7   0   3  172.38   15.80
   7   0   3  177.78   12.70
   7   0   3  165.78   17.10
   7   0   3  173.88   13.70
   7   0   3  152.58   11.50
   7   0   3  172.88   10.80
   8   0   3  152.38   10.90
   8   0   3  160.18   14.40
   8   0   3  151.18   16.20
   8   0   3  178.28   13.60
   8   0   3  161.58   11.80
   8   0   3  153.88   18.30
   9   0   3  144.49   17.30
   9   0   3  173.58   21.00
   9   0   3  178.28   12.20
   9   0   3  185.08   16.00
   9   0   3  205.18   17.20
  10   0   3   17.30    8.20
  10   0   3  -11.50    9.50
  10   0   3   14.30   10.70
  10   0   3   -4.70    8.50
  10  -1  -3   33.40   15.80
  10  -1  -3   58.59   13.30
  10  -1  -3   46.00   10.80
   9  -1  -3   78.89   20.70
   9  -1  -3  112.49   16.50
   9  -1  -3   78.89   11.70
   8  -1  -3   25.30   14.00
   8  -1  -3   -1.60    5.50
   8  -1  -3   10.90    3.20
   8  -1  -3   10.90    3.30
   8  -1  -3   10.60   13.10
   8  -1  -3   -2.20    4.70
   7  -1  -3    6.90    3.60
   7  -1  -3    9.20    3.70
   7  -1  -3    4.00    5.60
   7  -1  -3    9.10    4.90
   7  -1  -3    4.30    4.10
   7  -1  -3    6.90    2.90
   6  -1  -3   40.00    8.40
   6  -1  -3   39.70    6.20
   6  -1  -3   34.80    7.10
   6  -1  -3   39.60    6.70
   6  -1  -3   39.60    5.40
   6  -1  -3   36.10    5.30
   5  -1  -3  103.99    7.90
   5  -1  -3  108.49    7.40
   5  -1  -3  120.99   10.00
   5  -1  -3  106.69   11.70
   5  -1  -3   92.69    8.10
   4  -1  -3  197.88   10.40
   4  -1  -3  196.78    9.90
   4  -1  -3  217.88   10.40
   4  -1  -3  187.68   11.70
   4  -1  -3  211.08   11.80
  -4   1   3  206.48    7.50
   3  -1  -3   12.60    5.30
   3  -1  -3    4.10    2.70
   3  -1  -3    2.60    1.90
   3  -1  -3    1.80    2.00
   3  -1  -3    3.50    2.00
   3  -1  -3    3.40    2.10
  -3   1   3    4.40    2.30
  -3   1   3    0.00    1.40
   2  -1  -3   59.19    5.20
   2  -1  -3   35.00    9.50
   2  -1  -3   54.19    4.30
   2  -1  -3   66.69    9.20
   2  -1  -3   49.10    3.20
   2  -1  -3   57.19    4.70
  -2   1   3   45.70    3.80
  -2   1   3   57.99    7.30
  -2   1   3   56.39    4.60
  -2   1   3   52.99    5.00
   1  -1  -3   59.29    8.50
   1  -1  -3   82.89    7.30
   1  -1  -3   91.19    5.60
   1  -1  -3   96.29    5.70
   1  -1  -3   90.09    5.20
  -1   1   3   89.99    8.10
  -1   1   3   84.39    5.10
  -1   1   3   93.09    5.80
  -1   1   3   96.59    6.10
   0  -1  -3  154.18    7.20
   0  -1  -3  166.88    8.00
   0  -1  -3  156.98    7.60
   0  -1  -3  165.28    7.50
   0  -1  -3  161.28   11.70
   0  -1  -3  181.58    8.90
   0   1   3  154.68    9.20
   0   1   3  164.28    8.00
   0   1   3  155.58    7.30
   0   1   3  121.19   11.70
   0   1   3  154.58    7.60
   0   1   3  151.18    7.50
  -1  -1  -3  946.21   32.20
  -1  -1  -3  948.01   30.50
  -1  -1  -3  943.11   31.90
  -1  -1  -3  935.01   31.40
  -1  -1  -3  939.71   33.30
  -1  -1  -3 1024.60   34.30
   1   1   3  939.91   32.10
   1   1   3  964.00   31.50
   1   1   3  948.81   33.20
   1   1   3  969.90   34.30
   1   1   3  927.01   30.60
   1   1   3  937.01   32.20
  -2  -1  -3  727.03   25.20
  -2  -1  -3  718.93   28.00
  -2  -1  -3  736.53   24.50
  -2  -1  -3  753.12   24.50
   2   1   3  714.33   24.40
   2   1   3  710.33   27.60
   2   1   3  726.33   25.30
   2   1   3  741.73   25.30
   2   1   3  738.53   28.10
  -3  -1  -3 7414.06  238.78
  -3  -1  -3 7624.74  229.98
  -3  -1  -3 7493.05  230.78
   3   1   3 7133.29  235.18
   3   1   3 7295.67  235.98
   3   1   3 7284.77  230.88
   3   1   3 7250.07  230.68
   4   1   3 3889.51  121.19
   4   1   3 3765.12  122.19
   4   1   3 3858.21  130.19
   4   1   3 3841.82  122.59
   4   1   3 3912.51  123.49
   4   1   3 3796.02  121.49
   5   1   3   53.89    5.70
   5   1   3   46.00    4.40
   5   1   3   51.39    4.10
   5   1   3   50.49    4.00
   5   1   3   52.89    4.30
   5   1   3   49.40    9.80
   6   1   3   39.40    6.30
   6   1   3   29.60    4.10
   6   1   3   45.90   10.40
   6   1   3   43.40   10.20
   6   1   3   32.40    4.70
   6   1   3   37.70    4.90
   6   1   3   33.60    4.50
   7   1   3   61.59    4.80
   7   1   3   67.69    8.70
   7   1   3   58.29    5.20
   7   1   3   65.49   12.70
   7   1   3   58.99    4.80
   7   1   3   66.59    5.80
   7   1   3   52.99   13.00
   7   1   3   60.49    5.90
   8   1   3  126.09   15.50
   8   1   3  123.99    8.60
   8   1   3  115.99   16.80
   8   1   3  123.49    6.10
   8   1   3  109.79    7.70
   8   1   3  144.89   12.30
   9   1   3   10.10   10.30
   9   1   3   -4.90    5.20
   9   1   3    6.90    8.30
   9   1   3    3.80    3.60
   9   1   3   17.10    8.60
  10   1   3  117.09   17.30
  10   1   3  152.48   21.40
  10   1   3   97.89   16.30
  10   1   3  118.19   20.60
  10  -2  -3   -7.50   14.10
   9  -2  -3   40.20   10.00
   9  -2  -3   34.00   11.00
   9  -2  -3   21.10   13.50
   8  -2  -3   -4.80    4.10
   8  -2  -3   -7.10    5.60
   8  -2  -3   -2.80    5.60
   7  -2  -3  545.75   28.20
   7  -2  -3  584.44   31.20
   7  -2  -3  560.34   22.90
   7  -2  -3  554.24   27.30
   7  -2  -3  550.54   21.90
   6  -2  -3   37.60    5.20
   6  -2  -3   43.30    7.60
   6  -2  -3   27.60    7.50
   6  -2  -3   44.30    4.30
   6  -2  -3   46.70    4.50
   6  -2  -3   45.70    5.00
   6  -2  -3   33.20    7.50
   5  -2  -3  191.38   13.40
   5  -2  -3  190.08   10.10
   5  -2  -3  177.48    8.80
   5  -2  -3  197.08   10.30
   5  -2  -3  194.28   13.60
   5  -2  -3  177.98    9.30
   4  -2  -3   50.09    8.90
   4  -2  -3   35.30    6.60
   4  -2  -3   44.40    5.40
   4  -2  -3   33.20    3.20
   4  -2  -3   34.10    3.50
   4  -2  -3   39.20    4.90
   4  -2  -3   37.80    6.70
   3  -2  -3  932.51   40.90
   3  -2  -3 1053.19   36.20
   3  -2  -3 1048.10   39.60
   3  -2  -3 1055.99   33.00
   3  -2  -3  978.60   38.70
   3  -2  -3 1024.60   35.70
  -3   2   3 1051.39   34.90
   2  -2  -3 1324.47   47.60
   2  -2  -3 1390.66   45.70
   2  -2  -3 1316.57   45.30
   2  -2  -3 1347.47   48.30
   2  -2  -3 1289.47   48.60
  -2   2   3 1384.36   45.20
  -2   2   3 1301.47   48.40
   1  -2  -3  316.27   14.30
   1  -2  -3  293.37   12.70
   1  -2  -3  291.97   13.10
   1  -2  -3  263.27   18.00
   1  -2  -3  303.77   12.80
  -1   2   3  279.57   14.30
  -1   2   3  277.17   14.00
  -1   2   3  297.67   12.80
   0  -2  -3 1707.23   55.99
   0  -2  -3 1454.65   51.09
   0  -2  -3 1606.64   50.09
   0  -2  -3 1474.05   50.79
   0  -2  -3 1473.85   50.69
   0   2   3 1460.95   49.60
   0   2   3 1380.46   56.39
   0   2   3 1478.05   50.39
   0   2   3 1476.05   50.99
   0   2   3 1627.24   50.89
   0   2   3 1485.45   51.49
  -1  -2  -3 1539.85   51.89
  -1  -2  -3 1493.35   51.89
  -1  -2  -3 1671.53   54.49
  -1  -2  -3 1552.74   51.99
  -1  -2  -3 1541.95   51.09
   1   2   3 1597.84   54.69
   1   2   3 1491.55   51.59
   1   2   3 1520.45   51.39
   1   2   3 1515.75   52.09
   1   2   3 1538.35   51.79
   1   2   3 1519.55   52.49
  -2  -2  -3 2237.28   73.39
  -2  -2  -3 2357.56   76.99
  -2  -2  -3 2200.88   73.39
  -2  -2  -3 2220.38   70.49
  -2  -2  -3 2288.87   71.39
   2   2   3 2240.78   73.49
   2   2   3 2213.78   73.79
   2   2   3 2190.28   74.99
   2   2   3 2271.17   71.99
   2   2   3 2126.39   78.29
  -3  -2  -3  147.49    6.10
  -3  -2  -3  130.89    7.40
  -3  -2  -3  136.49    7.80
  -3  -2  -3  143.59   10.90
   3   2   3  147.39    8.50
   3   2   3  147.49    6.40
   3   2   3  153.28   11.20
   3   2   3  130.59    8.30
  -4  -2  -3 1411.06   48.90
  -4  -2  -3 1406.26   47.70
   4   2   3 1493.35   49.10
   4   2   3 1405.86   49.20
   4   2   3 1447.56   45.40
   4   2   3 1439.86   49.90
   4   2   3 1394.86   55.29
   4   2   3 1443.86   46.00
  -5  -2  -3  135.49    6.30
   5   2   3  119.29   12.40
   5   2   3  132.49    8.70
   5   2   3  133.69    8.80
   5   2   3  131.99    5.80
   5   2   3  122.89    5.50
   5   2   3  130.49    8.50
   6   2   3  239.28   12.60
   6   2   3  241.38    9.90
   6   2   3  234.08    8.90
   6   2   3  225.58   13.60
   6   2   3  226.58   19.10
   6   2   3  237.18   13.00
   6   2   3  239.58    9.70
   7   2   3   32.80    7.00
   7   2   3   28.50    9.40
   7   2   3   27.30    3.70
   7   2   3   37.10    5.80
   7   2   3   35.50    5.60
   7   2   3   29.50    2.20
   8   2   3    1.40    3.10
   8   2   3    1.00    2.90
   8   2   3   -2.20    2.30
   8   2   3    0.80    7.00
   8   2   3   -2.10    5.80
   8   2   3    5.90    4.50
   9   2   3  135.69    9.00
   9   2   3  133.59   13.30
   9   2   3  137.29    8.40
   9   2   3  165.98   20.80
   9   2   3  164.28   18.80
  10   2   3   -1.30    2.10
  10   2   3    2.60    2.10
  10   2   3    1.00    8.30
  10   2   3   -7.60    8.20
  10   2   3   -0.80   10.20
  11   2   3    6.70    8.20
  11   2   3    6.00   19.90
   9  -3  -3   -7.10   10.20
   9  -3  -3   -4.00   12.60
   9  -3  -3  -19.20    6.50
   8  -3  -3  -13.00    5.40
   8  -3  -3   -6.70    6.20
   8  -3  -3   14.70   11.30
   7  -3  -3  662.83   37.50
   7  -3  -3  710.13   37.20
   7  -3  -3  684.93   32.40
   7  -3  -3  698.33   25.60
   7  -3  -3  701.93   34.40
   7  -3  -3  704.53   26.20
   6  -3  -3  178.78   15.50
   6  -3  -3  179.88   10.10
   6  -3  -3  171.68   14.60
   6  -3  -3  181.68   10.60
   5  -3  -3   34.20    5.30
   5  -3  -3   23.20    6.90
   5  -3  -3   37.30    5.60
   5  -3  -3   38.90    7.90
   4  -3  -3  936.21   33.80
   4  -3  -3  937.41   39.20
   4  -3  -3  807.42   36.70
   4  -3  -3  897.01   32.90
   4  -3  -3  891.21   37.80
   3  -3  -3  545.15   22.70
   3  -3  -3  558.04   24.70
   3  -3  -3  621.94   23.70
   3  -3  -3  570.74   27.10
   3  -3  -3  580.34   26.60
   2  -3  -3  119.79    8.20
   2  -3  -3  136.29    8.50
   2  -3  -3  127.19    7.70
   2  -3  -3  141.39   10.60
  -2   3   3  140.79    7.90
   1  -3  -3  975.80   41.30
   1  -3  -3  972.70   34.80
   1  -3  -3  914.11   31.70
   1  -3  -3  879.41   36.20
   1  -3  -3  997.50   31.80
  -1   3   3  936.61   31.60
  -1   3   3  893.31   33.50
   0  -3  -3   59.39    5.20
   0  -3  -3   70.49    9.10
   0  -3  -3   65.09    4.60
   0  -3  -3   73.89    6.70
   0  -3  -3   60.99    5.90
   0  -3  -3   68.59    6.40
   0   3   3   65.49    5.80
   0   3   3   69.19    5.40
   0   3   3   66.89    6.20
   0   3   3   69.89   11.70
   0   3   3   68.59    6.40
   0   3   3   64.09    5.40
  -1  -3  -3   79.19    7.90
  -1  -3  -3  102.39    9.80
  -1  -3  -3   90.69    6.80
  -1  -3  -3   96.29    7.40
   1   3   3   87.99    7.10
   1   3   3   91.09    9.10
   1   3   3   89.69    7.10
   1   3   3   94.89    6.30
   1   3   3   98.49    7.40
  -2  -3  -3 1505.95   51.19
  -2  -3  -3 1555.04   54.09
  -2  -3  -3 1548.65   51.99
  -2  -3  -3 1539.85   56.49
   2   3   3 1620.14   56.99
   2   3   3 1582.34   52.69
   2   3   3 1560.84   54.09
   2   3   3 1529.85   54.49
   2   3   3 1543.15   54.39
   2   3   3 1506.05   55.49
  -3  -3  -3   36.90    2.90
  -3  -3  -3   35.90    4.30
  -3  -3  -3   50.49    6.40
  -3  -3  -3   42.90    3.40
  -3  -3  -3   48.10    6.70
   3   3   3   49.90    6.60
   3   3   3   44.80    6.60
   3   3   3   50.49    7.20
   3   3   3   40.60    3.80
  -4  -3  -3 2986.70   94.99
  -4  -3  -3 3010.40   94.99
  -4  -3  -3 3076.69   99.89
   4   3   3 2971.00   95.89
   4   3   3 2978.30  100.99
   4   3   3 3081.29  106.49
   4   3   3 3021.60  100.39
  -5  -3  -3   28.00    2.60
  -5  -3  -3   29.70    4.90
   5   3   3   31.20    5.90
   5   3   3   25.10    8.40
   5   3   3   29.60    2.70
   5   3   3   28.00    5.60
  -6  -3  -3  570.94   21.90
   6   3   3  570.64   25.70
   6   3   3  594.74   25.00
   6   3   3  512.05   26.40
   6   3   3  578.04   19.90
   7   3   3  768.52   32.40
   7   3   3  777.52   33.30
   7   3   3  800.22   27.40
   7   3   3  772.42   42.60
   7   3   3  843.32   33.80
   8   3   3  240.18   16.20
   8   3   3  255.97   24.20
   8   3   3  263.87   15.30
   9   3   3    7.60    5.00
   9   3   3    4.60    4.00
   9   3   3    7.00    6.10
   9   3   3   15.80   11.20
  10   3   3   24.70   11.00
  10   3   3   10.00    7.20
  10   3   3   22.40   13.60
  10   3   3   21.40    5.30
  11   3   3  217.18   27.10
  11   3   3  199.68   10.90
  11   3   3  178.48   23.10
   8  -4  -3  180.88   18.50
   8  -4  -3  186.08   17.70
   8  -4  -3  205.68   24.60
   8  -4  -3  168.88   19.40
   7  -4  -3    8.00    8.10
   7  -4  -3   -8.90    5.30
   7  -4  -3    2.60    2.50
   7  -4  -3    3.60    2.70
   7  -4  -3   -4.40    5.20
   6  -4  -3   27.10    5.40
   6  -4  -3   26.10    5.00
   6  -4  -3   16.40    7.00
   5  -4  -3   12.60    3.90
   5  -4  -3    7.20    3.80
   5  -4  -3   12.80    6.70
   5  -4  -3    0.40    4.50
   4  -4  -3   31.10    8.00
   4  -4  -3   36.20    6.60
   4  -4  -3   39.90    4.70
   4  -4  -3   30.80    7.90
   4  -4  -3   27.00    3.80
   4  -4  -3   26.00    5.20
   3  -4  -3  269.87   14.80
   3  -4  -3  277.67   10.50
   3  -4  -3  270.17   17.50
   3  -4  -3  267.27   18.30
   3  -4  -3  258.57   14.30
  -3   4   3  283.27   12.30
   2  -4  -3    2.80    1.90
   2  -4  -3    3.00    3.80
   2  -4  -3   -1.60    2.80
   2  -4  -3    3.90    3.10
   1  -4  -3 1678.63   57.29
   1  -4  -3 1647.04   62.49
   1  -4  -3 1720.53   60.09
   1  -4  -3 1700.73   60.29
  -1   4   3 1730.13   56.89
   0  -4  -3  947.21   37.50
   0  -4  -3  875.91   35.60
   0  -4  -3  899.61   33.40
   0  -4  -3  882.01   34.40
   0  -4  -3  912.51   34.90
   0   4   3  898.91   33.50
   0   4   3  891.21   30.90
   0   4   3  817.42   32.90
   0   4   3  747.33   40.30
  -1  -4  -3  213.78   12.60
  -1  -4  -3  198.28   12.90
  -1  -4  -3  211.08   13.80
  -1  -4  -3  222.68   13.00
  -1  -4  -3  206.98   12.40
   1   4   3  226.38   12.50
   1   4   3  204.48   10.40
   1   4   3  228.18   15.90
   1   4   3  208.88   12.70
  -2  -4  -3  104.09    9.50
  -2  -4  -3  112.59    8.00
  -2  -4  -3  102.29    7.10
  -2  -4  -3  108.49    9.10
  -2  -4  -3   94.39    8.30
   2   4   3  106.99    9.00
   2   4   3  117.29   10.50
   2   4   3  101.99    7.80
   2   4   3  109.79    9.40
   2   4   3  109.59    8.20
   2   4   3  104.89    8.70
  -3  -4  -3  323.17   16.80
  -3  -4  -3  311.67   13.80
  -3  -4  -3  308.47   13.00
   3   4   3  343.57   16.90
   3   4   3  304.37   16.80
   3   4   3  296.77   18.40
   3   4   3  276.87   14.00
  -4  -4  -3 1951.70   68.19
  -4  -4  -3 1921.11   62.49
  -4  -4  -3 1987.80   62.79
   4   4   3 1922.21   73.19
   4   4   3 1872.01   68.99
   4   4   3 1965.80   68.59
   4   4   3 1885.41   63.89
  -5  -4  -3   36.10    2.30
  -5  -4  -3   32.50    3.10
  -5  -4  -3   42.70    6.80
   5   4   3   26.20    6.50
   5   4   3   27.70    6.40
   5   4   3   36.80    9.70
  -6  -4  -3  133.29    6.80
  -6  -4  -3  132.59    9.80
   6   4   3  157.18   12.20
   6   4   3  140.89   11.50
   6   4   3  149.29    7.40
   6   4   3  138.49   15.80
  -7  -4  -3  145.39    9.30
   7   4   3  122.99   11.80
   7   4   3  143.49   17.30
   7   4   3  142.49    7.10
   7   4   3  146.89   12.20
   8   4   3   25.10    6.30
   8   4   3   22.90    6.40
   8   4   3   28.40    3.10
   8   4   3   24.60   11.10
   9   4   3   11.90    7.10
   9   4   3   21.50   10.60
   9   4   3   26.10    8.10
  10   4   3  597.24   43.60
  10   4   3  567.54   28.00
  10   4   3  595.94   40.10
  11   4   3   95.89   24.60
  11   4   3   77.29   10.10
   8  -5  -3   53.69   12.50
   7  -5  -3   86.19   14.10
   7  -5  -3   72.89   13.70
   7  -5  -3   72.59   12.70
   7  -5  -3  101.29    8.40
   7  -5  -3   98.69    5.90
   6  -5  -3  363.26   17.40
   6  -5  -3  387.66   25.90
   6  -5  -3  378.26   26.40
   6  -5  -3  364.06   18.50
   5  -5  -3   15.80    4.70
   5  -5  -3   -0.90    5.50
   5  -5  -3    5.10    7.40
   4  -5  -3   32.00    9.00
   4  -5  -3   43.30    7.00
   4  -5  -3   30.80    6.00
   4  -5  -3   40.60    9.80
   3  -5  -3 1491.45   54.59
   3  -5  -3 1421.56   60.49
   3  -5  -3 1499.15   55.49
   2  -5  -3  387.16   16.30
   2  -5  -3  419.56   24.10
   2  -5  -3  368.36   19.80
   2  -5  -3  368.66   19.80
   1  -5  -3   13.30    4.70
  -1   5   3   -1.70    6.90
  -1   5   3   22.60    4.30
   0  -5  -3   25.00    5.80
   0  -5  -3   22.60    6.20
   0  -5  -3   41.10    7.40
   0  -5  -3   37.30    7.60
   0   5   3   26.20    5.70
   0   5   3   22.90    2.80
   0   5   3   29.20    6.00
   0   5   3   14.60    8.70
  -1  -5  -3   -3.20    2.80
  -1  -5  -3    9.00    4.50
  -1  -5  -3    0.00    2.90
  -1  -5  -3    3.80    3.20
   1   5   3    2.00    6.00
   1   5   3   -0.20    2.90
   1   5   3    2.40    2.40
  -2  -5  -3  455.95   23.10
  -2  -5  -3  485.35   22.20
  -2  -5  -3  438.76   23.60
  -2  -5  -3  457.25   22.60
   2   5   3  472.25   22.50
   2   5   3  447.46   20.50
   2   5   3  494.75   25.80
  -3  -5  -3   69.99    6.80
  -3  -5  -3   73.79   10.30
   3   5   3   68.79    8.10
   3   5   3   83.59   10.30
   3   5   3   79.99   10.30
  -4  -5  -3  112.89    7.70
  -4  -5  -3  128.29    7.40
  -4  -5  -3  116.19   12.20
   4   5   3  126.29   11.10
   4   5   3  114.89   10.80
   4   5   3  131.39   13.50
  -5  -5  -3  122.29   10.80
  -5  -5  -3  113.89    6.10
  -5  -5  -3  108.19    6.50
   5   5   3  107.79   10.50
   5   5   3  112.89   11.50
   5   5   3  114.19   15.70
  -6  -5  -3  403.96   21.00
   6   5   3  348.17   21.50
   6   5   3  400.36   27.40
   6   5   3  395.96   22.10
  -7  -5  -3  105.89   10.50
  -7  -5  -3  123.69    9.60
   7   5   3  118.99   16.50
   7   5   3  112.49   11.70
   7   5   3   94.69   13.30
   8   5   3  173.68   15.80
   8   5   3  187.48   15.40
   8   5   3  202.78   22.10
   9   5   3    7.50    5.40
   9   5   3   19.40   12.30
  10   5   3   83.19   20.50
  10   5   3   65.09   16.80
  10   5   3   84.19   12.20
   7  -6  -3   18.80    8.70
   7  -6  -3   15.70   10.80
   6  -6  -3   -2.90    3.60
   6  -6  -3   -4.90    5.90
   6  -6  -3    3.80    7.70
   5  -6  -3  168.18   12.40
   5  -6  -3  146.19   20.10
   5  -6  -3  167.18   18.10
   4  -6  -3    4.40    4.60
   4  -6  -3   10.10    6.20
   4  -6  -3    6.50    6.90
   3  -6  -3   72.49   10.40
   3  -6  -3   67.99   13.30
   3  -6  -3   83.79   11.20
   2  -6  -3   33.60    9.00
   2  -6  -3   55.99    9.30
   2  -6  -3   51.19    9.10
   1  -6  -3  182.28   12.20
   1  -6  -3  190.98   14.40
   1  -6  -3  183.28   14.10
   1  -6  -3  157.38   15.00
  -1   6   3  182.18   11.20
  -1   6   3  138.89   22.80
  -1   6   3  166.58   13.00
   0  -6  -3 2123.49   80.29
   0  -6  -3 2208.78   81.09
   0  -6  -3 2249.77   79.39
   0  -6  -3 2284.47   83.39
   0   6   3 2247.38   78.29
  -1  -6  -3   92.39   12.60
  -1  -6  -3  100.29   10.20
  -1  -6  -3   92.19   11.90
  -1  -6  -3   83.99    9.30
   1   6   3   87.09   15.80
   1   6   3  106.69    9.80
   1   6   3   88.79    6.40
  -2  -6  -3   -0.60    4.10
  -2  -6  -3    1.40    4.10
  -2  -6  -3    0.50    4.20
   2   6   3    0.70    3.10
   2   6   3   -6.40    6.10
   2   6   3    1.90    4.20
  -3  -6  -3  887.91   36.30
  -3  -6  -3  871.11   39.00
  -3  -6  -3  888.61   41.10
   3   6   3  933.01   42.10
   3   6   3  855.61   38.00
   3   6   3  853.51   36.40
  -4  -6  -3   24.60    7.00
  -4  -6  -3   19.40    4.80
   4   6   3   21.40    7.00
   4   6   3   27.90    9.30
   4   6   3   14.80    6.70
  -5  -6  -3  201.08   15.80
  -5  -6  -3  203.78   10.90
   5   6   3  198.18   18.70
  -6  -6  -3   22.80    6.80
  -6  -6  -3   27.60    3.00
   6   6   3   23.40    6.40
   6   6   3   32.00    8.50
   6   6   3   34.50   10.80
  -7  -6  -3    5.00    4.30
   7   6   3    8.20    9.40
   7   6   3   19.70    6.20
   7   6   3   21.10    7.50
   8   6   3   12.90   10.80
   8   6   3   30.60    8.80
   9   6   3   18.20   11.00
   9   6   3   24.40    8.60
   9   6   3   18.50   12.10
  10   6   3   19.50   10.20
  10   6   3    9.30    6.90
  10   6   3   -4.10   10.30
  11   6   3   93.89   22.00
  11   6   3   71.49   12.60
  11   6   3  100.19   21.50
   6  -7  -3   27.70    9.50
   5  -7  -3   49.10   13.80
   5  -7  -3   79.89   10.40
   4  -7  -3   75.29   10.70
   4  -7  -3   82.39   15.60
   4  -7  -3   48.30   11.60
   3  -7  -3   11.80    8.00
   3  -7  -3   15.70    6.90
   2  -7  -3   -2.10    4.60
   2  -7  -3    3.00    6.30
   1  -7  -3   48.90    7.70
   1  -7  -3   31.30    9.20
   1  -7  -3   54.79   11.20
   1  -7  -3   22.80    6.50
  -1   7   3   27.00   11.70
  -1   7   3   23.30    6.40
   0  -7  -3  219.38   15.70
   0  -7  -3  216.58   17.10
   0  -7  -3  228.28   18.60
   0   7   3  178.78   14.10
  -1  -7  -3  115.99   12.70
  -1  -7  -3  101.19   14.50
  -1  -7  -3  105.69   11.70
   1   7   3  110.69    6.60
   1   7   3   86.29   10.20
   1   7   3   95.19    5.60
   1   7   3   94.99   18.80
  -2  -7  -3  328.37   22.00
  -2  -7  -3  317.97   21.90
  -2  -7  -3  327.97   20.80
   2   7   3  353.16   25.90
   2   7   3  319.07   20.10
   2   7   3  320.97   15.80
  -3  -7  -3   13.60    5.30
  -3  -7  -3    9.80    6.80
  -3  -7  -3   21.70    7.40
   3   7   3   12.20    5.20
   3   7   3   13.90    6.70
  -4  -7  -3  315.27   18.30
  -4  -7  -3  308.67   21.40
   4   7   3  357.36   22.00
   4   7   3  344.07   24.60
   4   7   3  306.37   20.00
  -5  -7  -3   62.49   11.20
  -5  -7  -3   54.69    7.20
   5   7   3   54.19   13.30
   5   7   3   56.09   10.80
   5   7   3   55.19   11.80
  -6  -7  -3  665.03   34.00
  -6  -7  -3  667.33   25.40
   6   7   3  661.93   34.30
   6   7   3  666.03   39.70
  -7  -7  -3   -1.70    4.80
   7   7   3    4.60    8.40
   7   7   3    1.90    6.10
   8   7   3   17.50   11.60
   9   7   3   91.09   21.50
   9   7   3   95.39   16.20
   9   7   3   77.59   19.40
  10   7   3   34.40   14.30
  10   7   3   38.40   10.90
  10   7   3    8.50   12.40
  11   7   3   83.69   18.70
  11   7   3   61.89   19.20
  11   7   3   67.89   12.70
   4  -8  -3   42.10    8.00
   4  -8  -3   21.30   10.70
   4  -8  -3   35.20   10.90
   3  -8  -3    1.30    6.90
   3  -8  -3   15.50    8.40
   3  -8  -3   10.80    6.20
   2  -8  -3    9.30    6.70
   2  -8  -3    4.20    7.00
   1  -8  -3   17.40    8.10
   1  -8  -3   16.20    7.30
   0  -8  -3    0.30    5.90
   0  -8  -3    9.80    6.40
   0  -8  -3    3.20    6.20
   0   8   3   -1.10    5.70
   0   8   3   22.20   10.80
  -1  -8  -3   72.19   13.00
  -1  -8  -3   69.49   12.20
  -1  -8  -3   81.19   13.40
   1   8   3   55.29   14.70
   1   8   3   60.69    9.60
  -2  -8  -3   40.60    9.60
  -2  -8  -3   57.49   12.00
  -2  -8  -3   67.79   12.70
   2   8   3   32.40    8.40
   2   8   3   36.40   13.30
  -3  -8  -3   25.70    9.00
  -3  -8  -3   18.10    6.90
  -3  -8  -3   15.70    8.40
   3   8   3   12.80    6.50
   3   8   3   20.90    6.20
   3   8   3   18.00   10.20
  -4  -8  -3  182.48   17.80
  -4  -8  -3  174.48   14.20
   4   8   3  171.18   16.10
   4   8   3  154.38   13.80
   4   8   3  179.88   19.20
  -5  -8  -3   -0.90    3.30
  -5  -8  -3    0.10    5.80
   5   8   3    2.80    7.70
   5   8   3   -7.20    5.10
   5   8   3   -6.00    4.20
  -6  -8  -3  325.77   23.10
  -6  -8  -3  308.97   16.30
   6   8   3  310.07   23.90
   6   8   3  318.17   27.60
   6   8   3  313.47   23.20
  -7  -8  -3   -1.40    3.40
  -7  -8  -3   16.30    7.40
   7   8   3   12.40    8.10
   7   8   3   -5.20    7.60
   7   8   3    9.40    8.60
   8   8   3   88.59   20.20
   8   8   3   91.19   18.00
   8   8   3   94.09   15.80
   9   8   3   22.50   10.40
   9   8   3   22.90   15.00
   9   8   3   21.90    9.60
  10   8   3   95.69   21.50
  10   8   3   67.09   15.50
  10   8   3  114.39   37.90
   3  -9  -3   20.00    7.60
   3  -9  -3   12.40    9.90
   3  -9  -3   -9.10    7.70
   2  -9  -3   48.50   10.90
   2  -9  -3   40.20   12.00
   1  -9  -3  461.95   32.40
   1  -9  -3  425.56   28.30
   0  -9  -3   61.29   12.90
   0  -9  -3   58.09   14.00
   0   9   3   70.09   17.40
  -1  -9  -3   36.60   10.10
  -1  -9  -3   24.10   10.20
   1   9   3   38.50   13.60
  -2  -9  -3   -1.80    7.50
  -2  -9  -3    2.20    5.70
   2   9   3   -3.20    6.80
   2   9   3   -0.20    9.10
  -3  -9  -3  142.09   20.30
  -3  -9  -3  132.19   15.20
   3   9   3  145.09   21.40
   3   9   3  144.39   15.40
   3   9   3  141.19   11.10
  -4  -9  -3   31.10   10.70
  -4  -9  -3   56.09   11.00
   4   9   3   32.10    9.30
   4   9   3   30.10   12.90
   4   9   3   28.50    7.90
  -5  -9  -3   62.59   10.00
  -5  -9  -3   74.99   13.90
   5   9   3   55.79   10.90
   5   9   3   44.30   12.00
   5   9   3   68.79   17.10
  -6  -9  -3    4.90    6.40
  -6  -9  -3    2.20    4.20
   6   9   3    5.00    7.10
   6   9   3   19.70    8.90
   6   9   3   17.40   11.20
  -7  -9  -3   75.09    8.10
   7   9   3   74.99   18.20
   7   9   3   87.19   20.50
   8   9   3   36.20   13.20
   8   9   3   32.90   11.50
   8   9   3   35.10   15.50
   9   9   3   14.10   12.60
   9   9   3    3.30   10.10
   9   9   3    7.10    8.20
  10   9   3   84.39   21.80
  10   9   3   84.89   20.60
  10   9   3  126.79   20.40
   1 -10  -3   -0.10    7.00
   1 -10  -3   13.80    8.50
   0 -10  -3   68.59   14.10
   0 -10  -3   60.39   13.40
  -1 -10  -3  111.89   18.10
  -1 -10  -3   75.59   14.30
   1  10   3   91.49   20.50
  -2 -10  -3  119.99   18.20
  -2 -10  -3  126.69   19.30
   2  10   3  162.38   22.80
  -3 -10  -3   43.40   13.10
  -3 -10  -3   36.20    9.90
   3  10   3   32.20   15.60
   3  10   3   23.80   10.30
  -4 -10  -3  106.09   28.40
  -4 -10  -3   59.19   13.80
   4  10   3   69.89   20.50
   4  10   3   60.59   10.60
   4  10   3   71.79   13.20
  -5 -10  -3    6.60    6.20
  -5 -10  -3   14.70    9.60
   5  10   3    3.00    8.90
   5  10   3   -2.20   12.70
   5  10   3    1.70    7.30
  -6 -10  -3   50.09   13.20
  -6 -10  -3   15.90    7.00
   6  10   3    4.30   13.10
   6  10   3   30.70   10.90
   6  10   3   13.30    9.70
  -7 -10  -3  351.76   27.50
   7  10   3  327.97   32.00
   7  10   3  319.37   26.20
   7  10   3  301.67   26.50
   8  10   3    2.00    9.60
   8  10   3   12.80    9.50
   8  10   3   -7.10    9.10
   9  10   3   36.80   15.80
  -1 -11  -3    8.10    7.40
  -1 -11  -3  -17.00    7.70
  -3 -11  -3   13.50    9.70
  -3 -11  -3  -10.30    6.40
   3  11   3   54.29   17.50
  -4 -11  -3   22.40    8.20
  -4 -11  -3   44.10   13.70
   4  11   3   43.80   18.60
  -5 -11  -3    9.70    7.50
  -5 -11  -3   13.20    9.00
   5  11   3  -13.10   14.50
   5  11   3   39.20   10.70
  -6 -11  -3    5.10    8.60
  -6 -11  -3   35.70   12.60
   6  11   3   23.80   15.50
   6  11   3   30.70   12.50
   6  11   3   -4.70   11.10
   7  11   3   17.00   11.10
   7  11   3  -18.50   13.40
   7  11   3   -1.70   11.70
   8  11   3    2.60   14.60
   8  11   3   -5.60   10.80
   9  11   3   -0.40   12.10
  -4 -12  -3  -11.10    8.80
  -4 -12  -3   24.20   12.00
  -5 -12  -3   88.99   18.00
   5  12   3   31.50   24.20
  -6 -12  -3   10.80   17.20
   6  12   3   14.20   21.30
   7  12   3   -4.40   27.00
  -6 -11   4  153.48   23.60
  -5 -11   4   56.29   16.90
  -5 -11   4    4.00   12.00
  -5 -11   4   44.20   20.00
  -4 -11   4   -3.90   10.60
  -4 -11   4    4.10   13.30
  -4 -11   4   -2.20    9.90
  -3 -11   4   -2.70   13.00
  -3 -11   4   31.70   13.50
  -3 -11   4    3.10    9.20
  -2 -11   4   26.30   14.00
  -1 -11   4   38.30   14.90
   7  10  -4   -0.60   10.80
   7  10  -4   25.70   11.30
  -7 -10   4   31.40   15.80
   6  10  -4   -1.70   11.10
   6  10  -4  -10.80    9.20
  -6 -10   4   33.20   14.50
  -6 -10   4    8.90    9.70
  -6 -10   4   25.90   20.80
   5  10  -4  343.47   29.30
   5  10  -4  316.77   27.10
  -5 -10   4  342.67   26.70
  -5 -10   4  365.16   31.60
  -5 -10   4  329.27   33.00
  -4 -10   4  206.28   31.20
  -4 -10   4  173.68   20.10
  -4 -10   4  230.88   24.40
  -3 -10   4   14.60   10.20
  -3 -10   4   10.40   11.90
  -3 -10   4   27.40   11.70
  -2 -10   4   37.40   12.70
  -2 -10   4   39.10   11.80
  -2 -10   4   33.50   10.00
  -1 -10   4   33.30   13.10
  -1 -10   4   10.10   10.30
   0 -10   4   10.80   12.50
   0 -10   4   12.80    9.60
   0 -10   4   -8.70    8.50
   9   9  -4   31.00   15.30
   9   9  -4   38.20   13.00
   8   9  -4   41.90   16.00
   8   9  -4   42.90   14.00
   7   9  -4   89.99   17.00
   7   9  -4  102.89   21.20
  -7  -9   4  111.19   19.10
  -7  -9   4   91.99   21.10
   6   9  -4   10.50   10.50
   6   9  -4    2.50    8.60
  -6  -9   4   16.80   11.00
  -6  -9   4   -2.40    5.70
  -6  -9   4   13.60   13.10
   5   9  -4   32.60   11.90
   5   9  -4   83.19   15.50
  -5  -9   4   61.49   16.50
  -5  -9   4   46.30   11.00
  -5  -9   4   67.59   18.80
   4   9  -4   20.50   10.50
   4   9  -4   11.50    9.20
  -4  -9   4   35.70   14.20
  -4  -9   4   11.60    7.50
  -4  -9   4   27.50   11.60
   3   9  -4    6.70    6.60
  -3  -9   4    4.90    8.70
  -3  -9   4   -3.60   11.50
  -2  -9   4   58.79   13.70
  -2  -9   4   83.49   20.00
  -2  -9   4   27.40   10.30
  -1  -9   4   22.30    9.60
  -1  -9   4   33.40   13.30
  -1  -9   4   29.70   11.40
   0  -9   4  134.79   19.90
   0  -9   4  158.18   23.40
   0  -9   4  138.09   20.40
   1  -9   4   13.10    7.70
   1  -9   4   13.50   12.00
   1  -9   4   -9.20    6.50
   2  -9   4    5.30    9.10
   2  -9   4   28.90    9.20
  10   8  -4   35.40   11.50
  10   8  -4   56.29   18.50
   9   8  -4   44.30    9.80
   9   8  -4   36.70   12.00
   9   8  -4   21.60   13.30
   8   8  -4   58.49   18.00
   8   8  -4   76.79   16.00
   8   8  -4   59.99   11.00
   7   8  -4   13.50   10.10
   7   8  -4   -1.70    9.10
  -7  -8   4   12.20   12.00
  -7  -8   4   13.10    8.30
   6   8  -4   24.80   10.20
   6   8  -4   24.70   11.30
  -6  -8   4   25.80    6.80
  -6  -8   4   35.50   10.70
  -6  -8   4   31.90   13.90
   5   8  -4   22.50    8.90
   5   8  -4    2.70    7.80
  -5  -8   4   45.60   12.30
  -5  -8   4   25.50   17.10
  -5  -8   4   14.80    6.60
   4   8  -4  157.78   16.60
   4   8  -4  169.28   17.30
  -4  -8   4  171.28   22.90
  -4  -8   4  199.78   24.10
  -4  -8   4  164.98   16.30
   3   8  -4    8.10    7.30
   3   8  -4   10.20    7.10
  -3  -8   4   10.00    7.60
  -3  -8   4   15.00   12.20
  -3  -8   4    3.20    6.90
   2   8  -4   66.89   12.60
   2   8  -4   65.29   11.70
  -2  -8   4   71.69   17.30
  -2  -8   4   52.19   12.00
  -2  -8   4   90.19   15.80
   1   8  -4  171.28   15.60
  -1  -8   4  171.58   18.90
  -1  -8   4  190.08   19.80
  -1  -8   4  169.08   24.30
   0  -8   4  146.29   20.00
   0  -8   4   96.99   17.90
   0  -8   4  138.59   21.90
   1  -8   4   98.79   17.00
   1  -8   4  107.89   18.70
   1  -8   4  102.09   17.80
   2  -8   4   86.79   17.50
   2  -8   4   72.09   13.80
   2  -8   4   56.99   14.40
   3  -8   4   74.59   15.80
   3  -8   4   66.19   25.00
   3  -8   4   55.09   16.50
   4  -8   4   15.00    6.10
   4  -8   4    4.20   11.80
  10   7  -4  131.99   12.20
  10   7  -4  123.19   26.30
  10   7  -4  149.39   17.10
   9   7  -4   87.39   13.80
   9   7  -4   89.69   15.40
   9   7  -4   97.69   22.00
   8   7  -4   15.20    6.40
   8   7  -4    5.50    9.40
   8   7  -4    4.20    7.00
   7   7  -4   24.00   12.40
   7   7  -4   21.40    7.10
   7   7  -4   22.00   10.70
  -7  -7   4   30.60   14.30
  -7  -7   4    6.90    7.70
   6   7  -4    2.50    6.20
   6   7  -4   13.70    9.80
   6   7  -4    7.50    7.80
  -6  -7   4   12.60   11.80
  -6  -7   4   10.10    7.10
  -6  -7   4    3.70    3.80
   5   7  -4    0.90    5.40
   5   7  -4    1.20    6.50
   5   7  -4    9.50    8.20
  -5  -7   4    3.90    4.20
  -5  -7   4    4.90    6.90
  -5  -7   4   11.80   10.70
   4   7  -4    8.90    6.30
   4   7  -4   11.20    7.30
  -4  -7   4    3.70    8.90
  -4  -7   4   14.00    5.80
  -4  -7   4    6.20    7.70
   3   7  -4   -2.30    4.70
   3   7  -4   10.10    6.10
  -3  -7   4    3.50    6.60
  -3  -7   4    6.80    5.50
  -3  -7   4    7.30   10.80
   2   7  -4    8.40    5.80
   2   7  -4   -2.70    5.20
  -2  -7   4    5.00    5.50
  -2  -7   4    6.30    8.40
  -2  -7   4    4.30    6.80
   1   7  -4  466.35   23.60
   1   7  -4  545.55   28.20
   1   7  -4  493.75   25.90
  -1  -7   4  557.74   34.60
  -1  -7   4  577.84   32.20
  -1  -7   4  513.65   31.00
   0   7  -4  237.68   16.50
   0  -7   4  251.17   21.10
   0  -7   4  220.58   21.40
   0  -7   4  277.67   22.80
   1  -7   4  171.78   19.50
   1  -7   4  232.18   21.00
   1  -7   4  203.78   18.50
   2  -7   4  178.78   19.10
   2  -7   4  172.08   19.90
   2  -7   4  200.18   18.00
   3  -7   4   98.29   14.60
   3  -7   4  107.39   18.20
   3  -7   4   98.89   17.80
   4  -7   4   18.20   10.50
   4  -7   4    1.60    8.30
   4  -7   4   16.00    6.40
   5  -7   4   22.70   11.30
   5  -7   4   22.50    5.50
  10   6  -4   73.09   23.30
  10   6  -4   51.09   17.10
   9   6  -4  206.88   16.00
   9   6  -4  232.58   27.50
   9   6  -4  233.08   21.50
   8   6  -4  197.48   24.50
   8   6  -4  196.88   15.10
   8   6  -4  209.88   19.80
   7   6  -4  100.09   15.30
   7   6  -4   85.99   18.20
   7   6  -4   78.39   11.10
  -7  -6   4  114.29   20.60
   6   6  -4   -5.20    3.90
   6   6  -4    7.10    7.30
   6   6  -4    0.20    5.50
  -6  -6   4    9.60    6.40
  -6  -6   4   -2.30    2.30
  -6  -6   4   -4.30    8.20
   5   6  -4  233.18   15.90
   5   6  -4  270.67   21.80
   5   6  -4  237.68   18.80
  -5  -6   4  215.88   22.00
  -5  -6   4  233.78   19.70
  -5  -6   4  222.78   14.30
   4   6  -4   74.49   12.90
   4   6  -4   70.99   13.00
   4   6  -4   78.59   11.00
  -4  -6   4   67.39    9.50
  -4  -6   4   70.09   15.20
  -4  -6   4   74.29   13.20
   3   6  -4  110.89   11.70
   3   6  -4  152.28   13.90
   3   6  -4  143.89   13.50
  -3  -6   4  125.49   19.80
  -3  -6   4  123.29   14.50
   2   6  -4   25.70    6.80
   2   6  -4    7.70    5.80
  -2  -6   4   21.50    7.90
  -2  -6   4    9.40    8.60
   1   6  -4   41.20    8.50
   1   6  -4   28.90    6.20
   1   6  -4   47.40    8.20
  -1  -6   4   40.60    9.50
  -1  -6   4   40.70    8.00
  -1  -6   4   41.80   11.40
   0   6  -4  644.14   24.10
   0   6  -4  650.03   30.30
   0  -6   4  598.24   30.20
   0  -6   4  719.03   36.30
   0  -6   4  696.43   37.60
   0  -6   4  674.33   34.20
  -1   6  -4  349.57   18.60
   1  -6   4  383.66   26.10
   1  -6   4  337.57   20.40
   1  -6   4  346.57   22.70
   1  -6   4  338.87   24.60
   2  -6   4  486.15   30.30
   2  -6   4  488.75   27.40
   2  -6   4  547.55   32.80
   2  -6   4  442.16   24.30
   3  -6   4  211.68   15.10
   3  -6   4  213.58   25.00
   3  -6   4  196.78   18.30
   3  -6   4  230.08   19.10
   4  -6   4    4.40    4.90
   4  -6   4   -4.20    7.40
   4  -6   4   -7.40    5.50
   5  -6   4  117.69   18.80
   5  -6   4  142.69   16.00
   5  -6   4  167.58   11.60
   6  -6   4   10.90    2.90
   6  -6   4    7.50    7.10
  10   5  -4   18.10    7.10
  10   5  -4   26.50   12.60
  10   5  -4    6.30    7.40
  10   5  -4   25.20    9.70
   9   5  -4    9.10    7.80
   9   5  -4   17.10    6.00
   9   5  -4   19.50   12.20
   9   5  -4   13.40    7.60
   8   5  -4  456.65   23.20
   7   5  -4  128.89   11.10
   7   5  -4  139.79   19.00
   7   5  -4  153.68   14.70
   7   5  -4  129.89   14.50
  -7  -5   4  145.29   14.30
  -7  -5   4  133.39   21.00
   6   5  -4   -6.30    5.00
   6   5  -4    7.20    4.40
   6   5  -4    7.50    5.50
  -6  -5   4    7.80    6.10
  -6  -5   4    0.50    1.60
  -6  -5   4   19.40    9.20
   5   5  -4  435.46   24.90
   5   5  -4  434.06   28.30
  -5  -5   4  441.06   25.80
  -5  -5   4  393.96   16.50
  -5  -5   4  479.45   30.40
   4   5  -4  343.37   21.10
   4   5  -4  337.97   22.60
   4   5  -4  338.87   18.40
  -4  -5   4  341.37   22.20
  -4  -5   4  333.67   24.90
   3   5  -4  122.39   11.90
   3   5  -4  112.89   11.60
   3   5  -4  104.29    9.80
  -3  -5   4  105.99   12.10
  -3  -5   4  127.29   19.90
   2   5  -4   21.70    6.20
   2   5  -4   22.30    6.70
   2   5  -4   21.10    6.10
  -2  -5   4   28.20    8.10
  -2  -5   4   15.50    8.30
   1   5  -4   34.30    7.10
   1   5  -4   29.00    6.30
   1   5  -4   24.10    6.50
  -1  -5   4   19.90    8.20
  -1  -5   4   24.40    7.90
  -1  -5   4   24.20    5.70
   0   5  -4  373.26   16.10
   0   5  -4  296.97   15.70
   0   5  -4  339.57   18.50
   0  -5   4  360.96   19.20
   0  -5   4  361.26   24.10
   0  -5   4  348.57   23.40
  -1   5  -4  223.28   13.40
  -1   5  -4  213.48    9.20
   1  -5   4  233.88   18.90
   1  -5   4  213.88   14.30
   1  -5   4  250.87   17.10
  -2   5  -4  166.28   10.50
   2  -5   4  169.38   13.90
   2  -5   4  155.48   16.10
   2  -5   4  178.38   16.90
   2  -5   4  169.48   12.30
   3  -5   4  302.27   18.40
   3  -5   4  302.07   16.80
   3  -5   4  279.57   22.60
   4  -5   4  295.17   21.20
   4  -5   4  275.87   16.70
   4  -5   4  271.87   23.60
   4  -5   4  269.97   15.50
   5  -5   4   23.50    7.50
   5  -5   4   -3.00    6.30
   5  -5   4    5.10    3.20
   5  -5   4    8.50    4.30
   6  -5   4    1.50    2.30
   6  -5   4   14.80   10.70
   6  -5   4    5.00    2.20
   6  -5   4    0.60    6.70
   6  -5   4   -3.50    7.20
   7  -5   4   -8.80    6.70
   7  -5   4    3.40    6.50
  11   4  -4   -1.70   19.70
  11   4  -4    5.30   10.30
  11   4  -4   -0.50    6.00
  10   4  -4   38.70   11.00
  10   4  -4   67.99   20.10
  10   4  -4   69.59   10.10
  10   4  -4   59.49   11.70
   9   4  -4    9.40    6.20
   9   4  -4    8.30    7.70
   9   4  -4   10.10    5.80
   9   4  -4   -2.20   10.00
   8   4  -4   53.49   11.30
   8   4  -4   64.19   12.00
   8   4  -4   51.79    8.30
   8   4  -4   57.29   17.20
   7   4  -4    2.60    8.80
   7   4  -4   11.20    6.90
   7   4  -4    8.30    6.20
   7   4  -4   23.70    6.20
   7   4  -4   14.20    4.90
  -7  -4   4    8.70    5.40
   6   4  -4  126.19   12.50
   6   4  -4  158.48   13.40
   6   4  -4  136.29   17.30
   6   4  -4  152.68   10.90
   6   4  -4  162.48   14.40
  -6  -4   4  172.68   16.80
  -6  -4   4  145.09   13.40
   5   4  -4  423.56   19.80
   5   4  -4  395.96   22.70
   5   4  -4  412.96   21.90
  -5  -4   4  417.56   15.50
  -5  -4   4  428.46   23.90
   4   4  -4   33.70    6.90
   4   4  -4   30.30    6.30
   4   4  -4   37.10    9.70
   4   4  -4   35.80    6.80
   4   4  -4   52.19    9.10
  -4  -4   4   37.00   10.40
  -4  -4   4   38.60    8.50
  -4  -4   4   35.40    3.60
   3   4  -4   31.20    5.90
   3   4  -4   46.90    9.00
   3   4  -4   51.79    8.90
  -3  -4   4   53.49    9.60
  -3  -4   4   40.90   10.10
  -3  -4   4   37.20    4.10
   2   4  -4  445.86   22.30
   2   4  -4  482.95   22.40
   2   4  -4  421.56   20.40
  -2  -4   4  453.15   23.70
  -2  -4   4  456.75   26.10
  -2  -4   4  418.36   21.00
   1   4  -4  458.85   19.40
   1   4  -4  464.05   21.70
   1   4  -4  443.96   21.70
   1   4  -4  405.06   22.40
  -1  -4   4  468.55   23.70
  -1  -4   4  445.56   25.60
  -1  -4   4  461.85   21.40
   0   4  -4    3.70    2.80
   0   4  -4    2.60    3.10
   0   4  -4    3.50    3.40
   0  -4   4    8.40    3.70
   0  -4   4    3.00    4.80
   0  -4   4    0.50    4.10
   0  -4   4    1.40    3.90
  -1   4  -4   29.50    3.70
   1  -4   4   23.20    6.10
   1  -4   4   31.20    6.20
   1  -4   4   22.70    5.30
   1  -4   4   23.20    8.30
  -2   4  -4   46.10    4.90
   2  -4   4   47.60    8.30
   2  -4   4   52.29    5.60
   2  -4   4   58.29    6.80
   2  -4   4   58.89   11.30
   3  -4   4  125.19    9.00
   3  -4   4  119.09   12.30
   3  -4   4   97.29    9.50
   3  -4   4   98.79    7.10
   4  -4   4    0.00    3.10
   4  -4   4   10.00    2.80
   4  -4   4    2.80    2.10
   4  -4   4    6.40    5.50
   4  -4   4    3.10    3.30
   4  -4   4    6.70    6.10
   4  -4   4    1.40    2.20
   5  -4   4    5.90    5.60
   5  -4   4   18.10    6.50
   5  -4   4    0.90    3.00
   5  -4   4    0.00    2.40
   6  -4   4  597.64   50.89
   6  -4   4  574.04   31.40
   7  -4   4  293.67   19.60
   7  -4   4  324.07   25.40
   8  -4   4    3.70    7.00
   8  -4   4  -10.40    6.40
  11   3  -4   67.69   34.70
  11   3  -4   28.40    8.10
  11   3  -4   24.90   10.60
  10   3  -4   56.89    9.60
  10   3  -4   36.00   17.90
  10   3  -4   61.99   10.60
  10   3  -4   78.19   14.10
   9   3  -4  146.39   14.30
   9   3  -4  131.29   17.50
   9   3  -4  171.28   24.20
   9   3  -4  138.69   12.60
   8   3  -4   31.50    9.20
   8   3  -4   34.90    7.20
   8   3  -4   33.90    8.70
   8   3  -4   21.10   13.40
   8   3  -4   23.40    8.60
   7   3  -4  436.36   32.90
   7   3  -4  437.56   24.00
   7   3  -4  409.96   20.40
   7   3  -4  379.86   23.30
   7   3  -4  431.66   24.60
  -7  -3   4  443.56   21.50
   6   3  -4  862.31   37.00
   6   3  -4  798.42   44.50
   6   3  -4  819.62   32.50
   6   3  -4  837.82   36.40
   6   3  -4  761.12   35.90
  -6  -3   4  892.31   41.40
  -6  -3   4  799.92   35.30
   5   3  -4   46.90    8.40
   5   3  -4   66.79   13.80
   5   3  -4   43.70    7.80
   5   3  -4   54.19    8.70
   5   3  -4   53.09    6.80
  -5  -3   4   43.60    3.40
  -5  -3   4   72.39   12.30
  -5  -3   4   73.29    9.90
   4   3  -4  627.54   32.90
   4   3  -4  661.23   25.60
   4   3  -4  674.13   28.70
   4   3  -4  605.74   28.60
   4   3  -4  628.54   27.40
  -4  -3   4  588.24   22.20
  -4  -3   4  670.13   32.40
  -4  -3   4  674.63   29.80
   3   3  -4  659.03   30.30
   3   3  -4  721.53   30.10
   3   3  -4  761.52   29.10
   3   3  -4  709.53   27.60
   3   3  -4  720.63   33.10
  -3  -3   4  762.82   34.90
  -3  -3   4  714.73   31.40
  -3  -3   4  676.63   25.20
   2   3  -4  209.88   11.50
   2   3  -4  195.88   15.50
   2   3  -4  215.98   13.80
   2   3  -4  237.88   13.80
   2   3  -4  246.38   13.80
  -2  -3   4  216.28   14.20
  -2  -3   4  209.18   15.70
  -2  -3   4  194.68   10.00
  -2  -3   4  218.08   12.40
   1   3  -4   55.19    5.70
   1   3  -4   69.99   11.10
   1   3  -4   56.89    6.40
   1   3  -4   59.89    6.10
  -1  -3   4   65.89    8.90
  -1  -3   4   55.69    5.20
  -1  -3   4   63.19   10.20
  -1  -3   4   70.69    6.60
  -1  -3   4   75.69    9.50
   0   3  -4   65.19    6.60
   0   3  -4   59.99    6.50
   0   3  -4   62.79    6.30
   0   3  -4   67.19    4.20
   0  -3   4   63.09    7.20
   0  -3   4   70.19    8.50
   0  -3   4   61.69    6.10
   0  -3   4   73.79   10.80
  -1   3  -4  690.03   24.30
  -1   3  -4  633.84   25.00
   1  -3   4  607.94   29.30
   1  -3   4  615.94   26.80
   1  -3   4  599.84   27.10
   1  -3   4  638.24   25.40
  -2   3  -4  463.65   18.50
   2  -3   4  461.25   21.30
   2  -3   4  500.95   21.90
   2  -3   4  501.05   20.40
   2  -3   4  467.45   24.40
   3  -3   4  170.48    8.70
   3  -3   4  162.58    9.50
   3  -3   4  161.88    8.00
   3  -3   4  167.28   10.60
   3  -3   4  161.38   13.20
   3  -3   4  147.39   10.10
   4  -3   4  123.99    7.60
   4  -3   4  109.29   12.10
   4  -3   4   95.89    7.90
   4  -3   4  122.99    9.30
   4  -3   4  113.59    8.40
   4  -3   4  122.89    9.60
   5  -3   4   80.29    8.60
   5  -3   4   84.89   13.20
   5  -3   4   78.59    5.20
   5  -3   4   79.09    5.70
   5  -3   4   71.69    8.20
   5  -3   4   92.39   13.20
   5  -3   4   92.29    8.70
   6  -3   4   12.10    7.40
   6  -3   4   15.50    7.20
   6  -3   4    4.50    4.90
   6  -3   4    5.40    4.60
   6  -3   4    7.60    5.40
   6  -3   4   10.30    5.50
   7  -3   4   52.39    8.80
   7  -3   4   44.00   11.00
   7  -3   4   60.59   10.80
   7  -3   4   46.10    8.60
   7  -3   4   69.29    9.90
   8  -3   4    3.00    6.30
   8  -3   4   -3.00    5.60
   8  -3   4   -7.60    6.30
  11   2  -4   29.50    6.80
  11   2  -4   15.90   12.70
  10   2  -4   17.80   14.90
  10   2  -4   31.30    8.80
  10   2  -4   25.60   10.10
  10   2  -4   28.50    7.30
   9   2  -4  263.27   18.20
   9   2  -4  262.97   21.40
   9   2  -4  285.07   30.60
   9   2  -4  268.77   17.10
   8   2  -4  240.08   19.00
   8   2  -4  226.68   25.60
   8   2  -4  234.78   14.90
   8   2  -4  250.97   16.80
   8   2  -4  206.68   15.50
   7   2  -4  327.97   19.10
   7   2  -4  340.27   21.10
   7   2  -4  308.37   18.40
   7   2  -4  313.67   17.00
   7   2  -4  293.07   26.90
   6   2  -4  244.98   13.70
   6   2  -4  241.48   15.50
   6   2  -4  234.78   16.60
   6   2  -4  254.77   15.80
  -6  -2   4  258.27   14.50
   5   2  -4  198.28   13.50
   5   2  -4  202.98   13.30
   5   2  -4  195.98   13.70
   5   2  -4  208.68   11.70
  -5  -2   4  205.58   15.30
  -5  -2   4  205.78   16.50
  -5  -2   4  209.28    9.40
   4   2  -4 2697.53   92.39
   4   2  -4 2758.62   92.29
   4   2  -4 2591.84   92.79
   4   2  -4 2765.62   89.79
  -4  -2   4 2772.02   93.19
  -4  -2   4 2744.63   95.99
  -4  -2   4 2714.23   87.19
   3   2  -4 2541.65   83.49
   3   2  -4 2594.84   85.29
   3   2  -4 2384.86   86.29
   3   2  -4 2555.64   85.69
  -3  -2   4 2571.54   89.29
  -3  -2   4 2488.15   81.19
  -3  -2   4 2643.14   87.39
   2   2  -4    3.20    3.00
   2   2  -4   -2.20    2.10
   2   2  -4   -0.80    4.00
   2   2  -4    5.70    3.30
   2   2  -4    0.00    3.40
   2   2  -4    0.20    2.30
  -2  -2   4    1.30    2.20
  -2  -2   4    5.20    5.60
  -2  -2   4   -0.80    1.80
  -2  -2   4    3.60    3.50
  -2  -2   4    3.50    2.40
  -2  -2   4   -0.10    3.90
  -2  -2   4    1.20    1.60
   1   2  -4  477.25   19.70
   1   2  -4  453.85   20.00
   1   2  -4  398.46   22.00
   1   2  -4  469.85   18.40
   1   2  -4  436.66   20.90
  -1  -2   4  434.56   18.80
  -1  -2   4  493.85   22.80
  -1  -2   4  479.05   22.70
  -1  -2   4  475.45   18.00
  -1  -2   4  454.85   17.60
  -1  -2   4  454.45   17.60
  -1  -2   4  411.26   23.30
   0   2  -4    0.50    2.40
   0   2  -4    0.00    2.40
   0   2  -4   -0.80    2.90
   0   2  -4    1.50    1.60
   0   2  -4   -0.20    2.10
   0   2  -4   -0.90    3.10
   0  -2   4   -1.00    2.10
   0  -2   4    0.80    2.90
   0  -2   4   -3.40    3.30
   0  -2   4   -1.60    3.60
   0  -2   4    1.20    1.60
   0  -2   4   -1.10    1.70
  -1   2  -4  593.04   23.30
  -1   2  -4  599.54   24.30
  -1   2  -4  601.14   22.30
   1  -2   4  541.25   24.20
   1  -2   4  535.75   25.00
   1  -2   4  582.94   23.30
   1  -2   4  528.35   21.80
   1  -2   4  551.04   21.90
  -2   2  -4 1473.85   51.69
  -2   2  -4 1483.65   49.70
   2  -2   4 1584.74   52.99
   2  -2   4 1566.94   47.70
   2  -2   4 1450.55   54.99
   2  -2   4 1524.65   50.99
   2  -2   4 1454.55   51.79
   3  -2   4  850.81   29.50
   3  -2   4  838.92   30.40
   3  -2   4  819.22   30.50
   3  -2   4  841.12   31.90
   3  -2   4  812.22   34.30
   4  -2   4  284.67   12.70
   4  -2   4  295.17   11.90
   4  -2   4  300.77   15.50
   4  -2   4  269.07   16.90
   4  -2   4  301.47   17.30
   5  -2   4   23.60    6.00
   5  -2   4   28.00    2.40
   5  -2   4   23.50    6.40
   5  -2   4   29.90    2.80
   5  -2   4   32.30    7.80
   6  -2   4   42.20    7.60
   6  -2   4   45.70    9.40
   6  -2   4   42.60    7.10
   6  -2   4   38.90    8.70
   6  -2   4   43.10    8.50
   7  -2   4  204.38   17.30
   7  -2   4  174.88   13.70
   7  -2   4  178.68   15.80
   7  -2   4  209.18   17.30
   7  -2   4  226.98   15.00
   8  -2   4  275.87   19.80
   8  -2   4  295.27   19.00
   8  -2   4  326.67   21.70
   8  -2   4  267.27   18.20
   8  -2   4  278.67   22.00
   8  -2   4  256.57   20.00
   9  -2   4   21.20   11.70
  11   1  -4   12.80    3.60
  10   1  -4   -4.70   11.30
  10   1  -4  -10.60    7.10
  10   1  -4   -0.80    4.00
  10   1  -4  -10.50    5.80
   9   1  -4   64.89   13.10
   9   1  -4   59.59    9.70
   9   1  -4   63.09   19.10
   9   1  -4   69.69   10.10
   8   1  -4   49.40    8.30
   8   1  -4   53.39   16.60
   8   1  -4   38.30    6.60
   8   1  -4   42.50    8.20
   8   1  -4   30.60    3.60
   8   1  -4   52.99   11.90
   7   1  -4   19.00    5.50
   7   1  -4   15.20    5.30
   7   1  -4   13.60    6.60
   7   1  -4   26.20    5.70
   6   1  -4    5.60    3.40
   6   1  -4    4.90    4.10
   6   1  -4    4.20    3.40
   6   1  -4    3.50    5.10
  -6  -1   4   11.80    2.80
   5   1  -4   61.49    4.40
   5   1  -4   58.29    8.70
   5   1  -4   60.69    8.00
   5   1  -4   58.39    6.40
   5   1  -4   44.70    7.00
  -5  -1   4   69.19    6.70
  -5  -1   4   63.29    5.40
   4   1  -4    5.40    2.80
   4   1  -4    2.80    2.50
   4   1  -4    1.30    2.70
   4   1  -4    2.80    2.60
   4   1  -4    1.30    2.70
   4   1  -4    0.50    1.40
  -4  -1   4    1.10    3.20
  -4  -1   4   -1.20    1.40
   3   1  -4  893.71   33.60
   3   1  -4  872.41   32.60
   3   1  -4  878.61   33.30
   3   1  -4  871.81   31.70
   3   1  -4  904.71   29.80
  -3  -1   4  898.81   35.00
  -3  -1   4  869.81   30.30
  -3  -1   4  854.81   31.70
  -3  -1   4  851.91   33.40
   2   1  -4   51.69    6.90
   2   1  -4   45.10    5.20
   2   1  -4   47.60    4.40
   2   1  -4   53.19    6.70
   2   1  -4   55.19    5.10
   2   1  -4   59.09   10.00
   2   1  -4   54.09    3.80
  -2  -1   4   45.00    4.10
  -2  -1   4   52.09    4.80
  -2  -1   4   53.89    6.80
  -2  -1   4   52.89    6.20
  -2  -1   4   45.50    3.40
  -2  -1   4   45.50    4.40
  -2  -1   4   61.09   10.50
   1   1  -4   18.10    5.60
   1   1  -4   25.60    4.50
   1   1  -4   25.80    4.20
   1   1  -4   23.10    3.30
   1   1  -4   20.80    4.50
   1   1  -4   16.90    2.70
   1   1  -4   20.10    3.10
  -1  -1   4   16.40    3.30
  -1  -1   4   19.50    2.90
  -1  -1   4   19.70    4.10
  -1  -1   4   17.70    2.40
  -1  -1   4   29.00    5.80
  -1  -1   4   18.30    2.90
  -1  -1   4   24.70    6.90
   0   1  -4 1954.40   64.99
   0   1  -4 1939.61   62.29
   0   1  -4 1913.61   61.39
   0   1  -4 1900.31   62.79
   0   1  -4 1902.41   60.39
   0   1  -4 1914.31   63.79
   0  -1   4 1876.41   61.89
   0  -1   4 1809.12   61.39
   0  -1   4 1680.03   65.59
   0  -1   4 1847.82   60.99
   0  -1   4 1890.11   60.39
   0  -1   4 1889.11   64.49
   0  -1   4 1951.40   63.49
  -1   1  -4 1607.64   50.99
  -1   1  -4 1501.05   51.29
  -1   1  -4 1471.05   49.60
  -1   1  -4 1410.06   49.80
   1  -1   4 1489.15   50.19
   1  -1   4 1416.66   48.90
   1  -1   4 1551.84   51.99
   1  -1   4 1457.75   51.99
   1  -1   4 1447.26   49.10
  -2   1  -4 7434.36  238.28
  -2   1  -4 7549.94  235.08
   2  -1   4 7375.56  236.58
   2  -1   4 7375.86  236.48
   2  -1   4 7388.16  239.38
   2  -1   4 7723.23  238.38
   2  -1   4 7619.04  235.68
   2  -1   4 7681.43  235.78
   3  -1   4 2793.32   91.99
   3  -1   4 2990.30   95.59
   3  -1   4 2945.11   91.29
   3  -1   4 2791.72   93.69
   3  -1   4 2761.22   95.99
   3  -1   4 2920.91   94.79
   4  -1   4   53.49    7.90
   4  -1   4   50.59    8.00
   4  -1   4   44.20    5.90
   4  -1   4   48.20    3.70
   4  -1   4   52.59    5.00
   4  -1   4   51.29    3.30
   5  -1   4   36.60    5.70
   5  -1   4   39.70    8.20
   5  -1   4   36.50    7.60
   5  -1   4   48.00    8.20
   6  -1   4  193.78   14.50
   6  -1   4  200.18   14.50
   6  -1   4  188.38   12.10
   6  -1   4  175.08   15.40
   6  -1   4  186.88   14.30
   6  -1   4  169.58   11.60
   7  -1   4   31.00    7.30
   7  -1   4   24.70    6.40
   7  -1   4   53.49   10.70
   7  -1   4   37.90    9.30
   7  -1   4   32.10    6.70
   7  -1   4   36.60   10.10
   8  -1   4   36.20   10.40
   8  -1   4   41.20   10.10
   8  -1   4   38.50    7.90
   8  -1   4   45.90    8.30
   8  -1   4   34.70    6.40
   8  -1   4   51.09   12.30
   9  -1   4  130.59   15.70
   9  -1   4  116.39   12.50
   9  -1   4  120.79   11.20
   9  -1   4  112.39   15.30
   9  -1   4  157.58   14.10
   9  -1   4  126.39   18.30
  10   0  -4  103.29   13.40
  10   0  -4  130.99    7.30
   9   0  -4   95.09    8.40
   9   0  -4  107.19   24.20
   9   0  -4   72.69   13.90
   9   0  -4  101.89    9.10
   9   0  -4   58.39   12.00
   8   0  -4  541.65   25.00
   8   0  -4  549.74   22.30
   8   0  -4  553.04   27.20
   8   0  -4  581.44   32.40
   7   0  -4  159.18   11.10
   7   0  -4  177.98   15.50
   7   0  -4  176.58   13.10
   7   0  -4  157.48   11.30
   7   0  -4  164.18    9.70
   6   0  -4  482.35   20.10
   6   0  -4  481.45   21.70
   6   0  -4  529.55   23.30
   6   0  -4  457.35   21.50
   6   0  -4  501.45   26.20
   5   0  -4   71.69    7.40
   5   0  -4   61.59    9.40
   5   0  -4   79.19    6.00
   5   0  -4   64.29    7.00
   5   0  -4   63.99    6.80
   5   0  -4   72.59    7.00
  -5   0   4   83.29    6.10
   4   0  -4   12.20    3.60
   4   0  -4   14.40    3.90
   4   0  -4   17.20    4.00
   4   0  -4   15.80    3.10
   4   0  -4    8.90    3.30
   4   0  -4    9.90    4.50
  -4   0   4   14.40    3.30
  -4   0   4   12.40    3.00
   3   0  -4  476.85   19.80
   3   0  -4  455.65   26.10
   3   0  -4  497.75   18.90
   3   0  -4  467.05   19.40
   3   0  -4  499.55   20.30
   3   0  -4  487.25   21.20
   3   0  -4  468.35   20.10
  -3   0   4  491.35   20.20
  -3   0   4  503.55   19.60
  -3   0   4  521.45   26.20
   2   0  -4   42.30    4.40
   2   0  -4   39.60    5.10
   2   0  -4   35.50    4.90
   2   0  -4   38.30    4.00
   2   0  -4   28.80    3.20
   2   0  -4   37.40    4.20
  -2   0   4   35.90    4.30
  -2   0   4   35.50    3.50
  -2   0   4   42.80    5.50
  -2   0   4   25.70    7.80
  -2   0   4   36.30    4.60
  -2   0   4   40.30    3.70
   1   0  -4 1732.93   57.99
   1   0  -4 1652.23   56.69
   1   0  -4 1749.62   57.19
   1   0  -4 1804.52   58.59
   1   0  -4 1805.52   57.79
   1   0  -4 1772.12   57.79
   1   0  -4 1684.73   62.59
  -1   0   4 1740.43   56.89
  -1   0   4 1692.23   63.59
  -1   0   4 1726.03   57.39
  -1   0   4 1853.21   57.69
  -1   0   4 1825.42   58.89
  -1   0   4 1738.93   58.79
   0   0  -4 1909.81   61.29
   0   0  -4 1892.51   62.69
   0   0  -4 1945.81   62.79
   0   0  -4 1958.10   61.09
   0   0  -4 1938.21   62.19
   0   0  -4 1637.64   65.69
   0   0  -4 2091.19   65.59
   0   0  -4 1833.82   61.49
   0   0   4 1942.51   62.99
   0   0   4 1912.11   61.29
   0   0   4 1934.31   62.09
   0   0   4 1899.91   61.49
   0   0   4 1965.70   63.29
   0   0   4 1847.72   65.89
  -1   0  -4 1755.22   55.49
  -1   0  -4 1709.43   53.79
  -1   0  -4 1725.13   54.19
  -1   0  -4 1571.54   52.29
   1   0   4 1574.44   52.19
   1   0   4 1604.04   54.79
   1   0   4 1588.14   53.09
   1   0   4 1636.94   55.49
   1   0   4 1521.25   53.49
   1   0   4 1593.94   53.09
   1   0   4 1663.83   55.09
  -2   0  -4 1504.55   47.90
  -2   0  -4 1492.15   51.39
  -2   0  -4 1504.75   47.70
  -2   0  -4 1461.25   50.29
   2   0   4 1472.55   50.09
   2   0   4 1507.15   49.00
   2   0   4 1433.36   48.30
   2   0   4 1451.15   48.00
   2   0   4 1480.85   51.09
   2   0   4 1450.55   46.50
   2   0   4 1470.95   47.70
   2   0   4 1466.25   50.99
   3   0   4   62.69    6.20
   3   0   4   57.89    3.90
   3   0   4   57.69    4.20
   3   0   4   57.79    3.70
   3   0   4   60.29    6.40
   3   0   4   60.59    4.00
   4   0   4  238.28   14.70
   4   0   4  235.88    9.40
   4   0   4  235.68   14.40
   4   0   4  235.38   10.90
   5   0   4  485.35   17.10
   5   0   4  510.05   20.20
   5   0   4  470.45   24.20
   5   0   4  452.85   19.40
   5   0   4  465.45   16.60
   5   0   4  472.05   25.30
   6   0   4   74.99   11.70
   6   0   4   63.89    6.10
   6   0   4   66.69    8.70
   6   0   4   68.99    7.20
   6   0   4   69.09   10.40
   6   0   4   76.59   10.80
   7   0   4   13.70    3.80
   7   0   4   13.40    7.60
   7   0   4   10.30    4.60
   7   0   4   20.90    7.50
   7   0   4    9.40    5.90
   7   0   4   13.20    4.00
   8   0   4  197.28   13.50
   8   0   4  196.18   16.50
   8   0   4  174.28   17.20
   8   0   4  179.78   19.30
   8   0   4  196.38   12.00
   8   0   4  189.58   14.00
   9   0   4   54.69   12.00
   9   0   4   53.19   12.90
   9   0   4   50.49    7.50
   9   0   4   73.99   16.80
   9   0   4   62.99   10.10
  10   0   4   31.50   12.90
  10   0   4   26.60   13.60
  10   0   4   14.70   10.30
  10  -1  -4   18.70   11.50
  10  -1  -4   23.80   15.60
  10  -1  -4    6.00    7.80
   9  -1  -4   25.20    3.70
   9  -1  -4   10.50    7.70
   9  -1  -4   20.00    3.70
   9  -1  -4   25.30   15.50
   9  -1  -4   13.90    9.20
   8  -1  -4  504.95   26.40
   8  -1  -4  491.35   22.20
   8  -1  -4  559.64   31.70
   8  -1  -4  509.15   23.30
   7  -1  -4  217.18   12.10
   7  -1  -4  231.48   16.40
   7  -1  -4  237.18   13.30
   7  -1  -4  225.28   12.80
   7  -1  -4  244.48   18.80
   7  -1  -4  247.08   14.10
   6  -1  -4   25.50    5.10
   6  -1  -4   19.00    4.90
   6  -1  -4   30.70    8.10
   6  -1  -4   22.20    6.20
   5  -1  -4  696.03   28.40
   5  -1  -4  703.63   29.60
   5  -1  -4  675.63   31.40
   5  -1  -4  656.03   26.80
   5  -1  -4  727.23   27.30
   5  -1  -4  689.33   26.90
   4  -1  -4 1453.85   52.39
   4  -1  -4 1475.75   51.59
   4  -1  -4 1471.55   50.49
   4  -1  -4 1388.66   49.40
   4  -1  -4 1457.65   50.09
  -4   1   4 1477.25   49.00
   3  -1  -4  369.56   15.80
   3  -1  -4  367.76   16.40
   3  -1  -4  337.97   21.00
   3  -1  -4  363.26   16.70
   3  -1  -4  352.76   15.20
   3  -1  -4  347.87   14.10
  -3   1   4  355.76   17.00
  -3   1   4  390.26   15.90
   2  -1  -4 2093.29   69.19
   2  -1  -4 2111.49   69.49
   2  -1  -4 1999.70   74.29
   2  -1  -4 2135.19   68.29
   2  -1  -4 2094.19   66.19
  -2   1   4 2085.29   69.79
  -2   1   4 2028.80   67.89
   1  -1  -4  708.43   25.80
   1  -1  -4  697.93   28.30
   1  -1  -4  656.93   24.90
   1  -1  -4  717.73   22.90
   1  -1  -4  675.73   24.90
  -1   1   4  682.13   29.40
  -1   1   4  668.73   24.50
  -1   1   4  673.13   23.50
  -1   1   4  698.13   25.20
  -1   1   4  696.53   25.30
  -1   1   4  675.13   25.20
   0  -1  -4 1497.25   53.39
   0  -1  -4 1715.13   55.79
   0  -1  -4 1605.54   53.79
   0  -1  -4 1678.03   59.79
   0  -1  -4 1681.73   54.39
   0  -1  -4 1617.94   53.29
   0   1   4 1625.84   54.39
   0   1   4 1636.94   53.99
   0   1   4 1605.14   53.39
   0   1   4 1699.23   53.39
   0   1   4 1643.44   53.89
   0   1   4 1645.34   56.79
  -1  -1  -4 8373.76  260.07
  -1  -1  -4 8627.74  261.07
   1   1   4 7833.32  259.67
   1   1   4 8139.69  261.47
  -2  -1  -4 1796.92   59.59
  -2  -1  -4 1779.22   58.99
  -2  -1  -4 1755.62   57.29
  -2  -1  -4 1918.51   62.89
  -2  -1  -4 1884.91   58.09
  -2  -1  -4 1799.12   62.49
   2   1   4 1789.12   62.29
   2   1   4 1881.31   59.69
   2   1   4 1837.12   58.99
  -3  -1  -4 3154.88   98.79
  -3  -1  -4 3099.89   99.39
  -3  -1  -4 3163.08   99.19
   3   1   4 3124.99   99.29
   3   1   4 3189.78   97.69
   3   1   4 3064.29  104.29
   3   1   4 3128.39   97.49
   3   1   4 3136.09   99.99
   3   1   4 2996.10   99.79
   3   1   4 3179.98  104.79
   3   1   4 3099.69   98.99
  -4  -1  -4    3.80    0.70
   4   1   4   -1.10    1.70
   4   1   4    4.40    1.40
   4   1   4    3.60    3.60
   4   1   4    4.30    2.10
   4   1   4    4.20    2.00
   4   1   4    3.10    1.50
   4   1   4   -1.50    3.00
   5   1   4  358.96   14.90
   5   1   4  354.16   13.70
   5   1   4  344.17   14.30
   5   1   4  349.77   21.40
   5   1   4  347.07   20.40
   5   1   4  361.16   15.80
   6   1   4  561.54   21.00
   6   1   4  538.75   21.10
   6   1   4  571.94   23.80
   6   1   4  560.34   21.60
   6   1   4  599.64   31.60
   6   1   4  560.44   20.90
   6   1   4  544.75   29.40
   7   1   4   26.30    5.60
   7   1   4   26.80    4.00
   7   1   4   29.70   10.10
   7   1   4   27.30    3.60
   7   1   4   13.80    3.00
   7   1   4   20.10    4.30
   7   1   4   22.20    3.90
   7   1   4   22.00    8.20
   8   1   4  104.29   17.60
   8   1   4   92.99    7.50
   8   1   4   98.19    5.00
   8   1   4  121.19   17.70
   8   1   4   87.69    9.80
   8   1   4   87.69    7.00
   9   1   4   67.59   15.00
   9   1   4   78.79   14.40
   9   1   4   61.79    6.50
   9   1   4   85.89   18.00
   9   1   4   65.19   10.00
  10   1   4   97.69   13.00
  10   1   4  161.48   21.90
  10   1   4  104.79   17.60
  10   1   4  134.99   21.40
  10  -2  -4    8.50   12.90
   9  -2  -4  190.68   17.20
   9  -2  -4  196.38   25.60
   8  -2  -4   99.49   15.30
   8  -2  -4  132.39    7.80
   8  -2  -4  117.79    7.90
   8  -2  -4  117.99   13.50
   8  -2  -4  102.89   10.80
   7  -2  -4   20.70    6.10
   7  -2  -4   14.90    3.90
   7  -2  -4    7.90    7.40
   7  -2  -4    7.70    5.80
   7  -2  -4   11.40    3.90
   6  -2  -4    4.30    3.10
   6  -2  -4    8.00    5.90
   6  -2  -4    6.40    4.20
   6  -2  -4    0.10    4.60
   6  -2  -4    1.60    3.00
   5  -2  -4    7.30    4.80
   5  -2  -4   10.00    4.40
   5  -2  -4    9.30    3.40
   5  -2  -4    6.30    3.40
   4  -2  -4  197.38   12.90
   4  -2  -4  188.78   10.40
   4  -2  -4  195.88   10.90
   4  -2  -4  177.88   12.40
   3  -2  -4    2.70    2.60
   3  -2  -4    3.80    3.30
   3  -2  -4    6.50    3.20
   3  -2  -4    5.70    2.60
   3  -2  -4   10.00    3.80
  -3   2   4    5.10    2.20
   2  -2  -4 3145.59  105.69
   2  -2  -4 3303.17  104.19
   2  -2  -4 3135.09  105.89
   2  -2  -4 3011.30  107.49
   2  -2  -4 3255.07  103.79
  -2   2   4 3265.47  109.39
  -2   2   4 3300.07  103.99
   1  -2  -4 6042.40  190.08
   1  -2  -4 6024.50  189.58
   1  -2  -4 5240.48  197.48
   1  -2  -4 6285.07  190.38
   1  -2  -4 5923.01  188.48
   1  -2  -4 6173.78  188.98
  -1   2   4 5888.81  192.48
  -1   2   4 5860.81  188.88
  -1   2   4 6090.69  190.78
   0  -2  -4  925.51   36.30
   0  -2  -4  884.21   30.50
   0  -2  -4  832.32   30.60
   0  -2  -4  856.81   30.60
   0  -2  -4  819.92   30.30
   0  -2  -4  856.51   30.10
   0   2   4  840.32   30.30
   0   2   4  823.52   30.60
   0   2   4  769.02   39.50
   0   2   4  844.32   31.50
   0   2   4  828.12   30.90
  -1  -2  -4  345.87   16.60
  -1  -2  -4  327.87   14.50
  -1  -2  -4  315.07   12.50
  -1  -2  -4  320.37   13.20
  -1  -2  -4  334.47   14.00
  -1  -2  -4  307.17   13.90
   1   2   4  348.07   17.60
   1   2   4  311.17   13.90
   1   2   4  324.97   14.40
   1   2   4  302.27   14.00
   1   2   4  308.77   13.50
  -2  -2  -4    2.50    2.10
  -2  -2  -4   -2.70    1.70
  -2  -2  -4   -1.30    0.80
  -2  -2  -4    1.50    1.40
  -2  -2  -4   -1.00    2.50
   2   2   4    2.00    2.60
   2   2   4   -0.60    1.10
   2   2   4    1.40    2.20
   2   2   4    0.90    2.80
   2   2   4   -0.30    2.00
  -3  -2  -4 1104.99   38.80
  -3  -2  -4 1116.19   37.70
  -3  -2  -4 1104.19   43.20
  -3  -2  -4 1125.69   36.70
   3   2   4 1074.09   42.00
   3   2   4 1105.49   43.00
   3   2   4 1098.69   39.00
   3   2   4 1123.39   37.00
   3   2   4 1114.49   39.40
  -4  -2  -4  762.62   26.60
   4   2   4  716.43   32.30
   4   2   4  733.93   28.00
   4   2   4  769.02   28.70
   4   2   4  754.62   25.50
   4   2   4  738.33   33.30
  -5  -2  -4  389.66   17.00
  -5  -2  -4  375.26   14.20
   5   2   4  383.66   23.00
   5   2   4  376.86   14.20
   5   2   4  391.76   17.50
   5   2   4  347.57   21.40
   5   2   4  388.26   12.90
   5   2   4  373.56   16.80
   5   2   4  417.36   17.20
   6   2   4   11.30    4.00
   6   2   4   11.40    6.80
   6   2   4   11.50    4.00
   6   2   4   10.70    1.90
   6   2   4    6.90    3.30
   6   2   4    8.60    1.90
   7   2   4   73.29   14.80
   7   2   4   78.59    6.90
   7   2   4   72.59    7.80
   7   2   4   69.79    4.90
   7   2   4   63.99    4.40
   7   2   4   50.99    3.90
   7   2   4   64.19    6.60
   7   2   4   77.99   14.60
   8   2   4   -7.00    6.00
   8   2   4   -0.60    2.90
   8   2   4    2.20    3.90
   8   2   4   -2.40    6.80
   8   2   4    5.10    3.00
   9   2   4  557.54   38.30
   9   2   4  546.55   21.70
   9   2   4  527.75   35.20
   9   2   4  576.64   27.50
  10   2   4  246.18   25.00
  10   2   4  244.78   18.30
  10   2   4  273.77   27.50
  11   2   4   -6.60    9.50
  11   2   4    5.20    9.80
   9  -3  -4   54.09   12.50
   9  -3  -4   48.00   11.60
   8  -3  -4   83.79   13.80
   8  -3  -4   68.19   13.00
   8  -3  -4   75.39   12.60
   7  -3  -4   49.20    6.40
   7  -3  -4   67.79   11.80
   7  -3  -4   54.09   12.00
   7  -3  -4   39.60    9.00
   7  -3  -4   67.19    6.50
   6  -3  -4   24.60    4.90
   6  -3  -4   19.40    6.60
   6  -3  -4   21.80    7.80
   6  -3  -4   26.20    5.00
   6  -3  -4   17.80    6.20
   5  -3  -4    0.50    2.70
   5  -3  -4   -1.00    3.40
   5  -3  -4   -2.70    3.10
   5  -3  -4    1.40    3.30
   4  -3  -4  485.65   20.70
   4  -3  -4  462.05   24.30
   4  -3  -4  512.15   21.50
   4  -3  -4  484.75   24.50
   4  -3  -4  504.75   25.80
   3  -3  -4  188.08   10.90
   3  -3  -4  161.18   11.50
   3  -3  -4  180.98   12.70
   3  -3  -4  179.48   13.10
   3  -3  -4  168.68   10.30
  -3   3   4  185.48    9.50
   2  -3  -4  700.13   27.00
   2  -3  -4  715.93   27.20
   2  -3  -4  667.63   29.60
   2  -3  -4  717.03   27.40
   2  -3  -4  652.43   28.80
  -2   3   4  691.93   26.40
   1  -3  -4  115.59   13.40
   1  -3  -4  111.99    7.90
   1  -3  -4  113.19    9.00
   1  -3  -4  107.19    7.80
   1  -3  -4  109.49    6.80
  -1   3   4   90.99   15.90
  -1   3   4  113.39    5.00
  -1   3   4  106.79    7.40
  -1   3   4   96.19    8.40
   0  -3  -4   26.60    4.00
   0  -3  -4   15.40    4.00
   0  -3  -4   28.30    7.10
   0  -3  -4   17.80    4.00
   0  -3  -4   18.60    4.00
   0   3   4   15.50    3.90
   0   3   4   20.20    4.20
   0   3   4   23.60    4.00
   0   3   4   10.60    6.80
   0   3   4   19.20    4.20
   0   3   4   16.90    4.30
  -1  -3  -4   77.89    6.30
  -1  -3  -4   76.29    7.80
  -1  -3  -4   85.89    6.60
  -1  -3  -4   87.09    8.60
  -1  -3  -4   77.79    6.70
   1   3   4   95.99   10.40
   1   3   4   72.69    6.60
   1   3   4   77.49    7.80
   1   3   4   85.29    6.50
   1   3   4   73.89    6.50
   1   3   4   80.49    6.60
  -2  -3  -4   69.29    6.40
  -2  -3  -4   62.49    6.30
  -2  -3  -4   73.59    7.90
   2   3   4   73.69    8.20
   2   3   4   65.89    6.90
   2   3   4   64.59    6.50
   2   3   4   67.49    6.50
   2   3   4   56.79    6.30
   2   3   4   70.69    5.50
  -3  -3  -4 1389.46   49.10
  -3  -3  -4 1413.56   44.80
  -3  -3  -4 1342.27   45.90
  -3  -3  -4 1381.56   47.50
   3   3   4 1384.56   47.10
   3   3   4 1373.46   49.40
   3   3   4 1369.96   49.99
   3   3   4 1459.65   53.69
   3   3   4 1419.36   51.79
  -4  -3  -4  352.66   15.50
  -4  -3  -4  370.86   13.10
  -4  -3  -4  341.87   16.40
  -4  -3  -4  375.66   11.90
   4   3   4  328.27   16.60
   4   3   4  355.26   17.50
   4   3   4  314.47   19.00
   4   3   4  349.87   13.90
   4   3   4  339.57   20.60
  -5  -3  -4 1023.40   36.10
   5   3   4  997.60   38.70
   5   3   4  959.00   42.70
   5   3   4 1008.10   33.20
   5   3   4  984.40   37.90
   5   3   4  987.80   44.50
  -6  -3  -4   36.20    3.90
   6   3   4   24.30    8.50
   6   3   4   31.80   11.40
   6   3   4   27.80    5.80
   6   3   4   33.40    6.50
   7   3   4  199.28   13.10
   7   3   4  198.58   12.80
   7   3   4  193.48   19.20
   7   3   4  191.48   17.90
   7   3   4  191.88   13.00
   7   3   4  187.08    7.30
   8   3   4  365.16   28.70
   8   3   4  339.37   12.30
   8   3   4  380.16   18.70
   8   3   4  328.37   25.70
   8   3   4  377.06   19.90
   8   3   4  328.87   20.60
   9   3   4  116.89   21.40
   9   3   4  106.49   10.50
   9   3   4  114.69   10.60
   9   3   4  117.59   11.60
  10   3   4   77.69    8.60
  10   3   4   86.79   20.10
  10   3   4  108.39   19.60
  10   3   4   88.19    8.50
  11   3   4  116.89    7.60
  11   3   4  155.18   27.40
  12   3   4  -15.70   11.10
   8  -4  -4    6.60    6.70
   7  -4  -4   10.20    6.40
   7  -4  -4  -13.20    4.20
   7  -4  -4   -4.60    3.00
   7  -4  -4    0.30    3.10
   7  -4  -4    4.50    8.30
   6  -4  -4  297.97   17.40
   6  -4  -4  312.47   22.10
   6  -4  -4  332.17   22.50
   6  -4  -4  334.57   16.90
   5  -4  -4   12.60    5.90
   5  -4  -4   14.00    4.20
   5  -4  -4    7.80    4.10
   5  -4  -4   -0.20    4.40
   4  -4  -4   94.69    7.30
   4  -4  -4   94.19    8.30
   4  -4  -4   81.59    8.00
   4  -4  -4   76.89   11.40
   4  -4  -4   99.99   11.40
   3  -4  -4   -1.30    3.80
   3  -4  -4    1.90    2.60
   3  -4  -4   -1.70    3.00
   3  -4  -4    3.00    3.10
   3  -4  -4    0.30    4.00
   2  -4  -4    3.60    3.10
   2  -4  -4    4.00    3.50
   2  -4  -4    3.30    4.00
   2  -4  -4    3.30    2.10
  -2   4   4    4.90    3.00
   1  -4  -4 1436.16   55.69
   1  -4  -4 1501.55   53.49
   1  -4  -4 1474.85   53.49
   1  -4  -4 1520.85   48.80
  -1   4   4 1476.15   49.20
  -1   4   4 1460.45   50.99
   0  -4  -4  674.33   28.60
   0  -4  -4  715.23   29.70
   0  -4  -4  692.43   28.40
   0   4   4  700.53   26.60
   0   4   4  596.34   35.40
   0   4   4  703.83   27.70
   0   4   4  698.83   26.80
  -1  -4  -4   36.70    6.40
  -1  -4  -4   58.19    8.20
  -1  -4  -4   41.30    6.30
   1   4   4   44.80    6.60
   1   4   4   35.10    4.40
   1   4   4   48.80   10.10
  -2  -4  -4  422.86   18.10
  -2  -4  -4  416.96   19.60
  -2  -4  -4  381.26   18.80
   2   4   4  365.46   17.80
   2   4   4  406.26   22.00
   2   4   4  355.16   19.30
   2   4   4  386.06   18.80
   2   4   4  392.56   18.20
   2   4   4  407.96   19.70
  -3  -4  -4   24.80    3.70
  -3  -4  -4   20.80    3.30
  -3  -4  -4   23.30    5.40
   3   4   4   22.40    5.70
   3   4   4   20.60    6.70
   3   4   4   18.60    4.90
   3   4   4   13.50    3.50
   3   4   4   24.40    6.00
  -4  -4  -4   22.20    2.70
  -4  -4  -4   20.90    2.90
  -4  -4  -4   18.60    4.90
   4   4   4   15.10    3.10
   4   4   4   25.70    7.60
   4   4   4   31.70    6.00
   4   4   4   11.60    4.50
   4   4   4   14.80    6.00
  -5  -4  -4   34.80    6.10
  -5  -4  -4   35.90    2.80
  -5  -4  -4   41.70    3.00
   5   4   4   35.90    6.80
   5   4   4   40.70    7.30
   5   4   4   31.80    9.30
   5   4   4   29.30    3.60
  -6  -4  -4  104.39    8.10
   6   4   4   71.79   13.80
   6   4   4   74.89    8.80
   6   4   4   92.29    9.20
  -7  -4  -4    2.50    2.50
   7   4   4    8.50    7.40
   7   4   4    6.90    4.70
   7   4   4    7.40    4.20
   7   4   4    6.30    8.10
   8   4   4    9.40    7.80
   8   4   4   12.90    9.30
   8   4   4   17.30    6.10
   8   4   4    9.80    4.70
   9   4   4   -3.20    4.30
   9   4   4    4.60    5.70
   9   4   4    1.40    9.10
  10   4   4   26.80   11.90
  10   4   4   17.00   12.50
  10   4   4   19.10    6.40
  11   4   4   69.59    9.40
  11   4   4   60.59   18.10
   8  -5  -4  -16.10    7.70
   7  -5  -4   62.69   12.80
   7  -5  -4   90.29   20.70
   7  -5  -4   98.79    7.40
   7  -5  -4  142.59   16.00
   6  -5  -4  249.88   20.70
   6  -5  -4  235.18   14.00
   6  -5  -4  241.58   19.90
   5  -5  -4  114.59   10.50
   5  -5  -4  122.49   16.30
   5  -5  -4  118.39   10.10
   5  -5  -4  150.38   15.60
   4  -5  -4    4.20    3.80
   4  -5  -4    0.90    5.70
   4  -5  -4    9.40    4.60
   4  -5  -4    0.20    5.00
   3  -5  -4  253.07   17.60
   3  -5  -4  211.28   14.50
   3  -5  -4  204.78   17.40
   3  -5  -4  219.78   14.20
   2  -5  -4  435.86   25.90
   2  -5  -4  486.45   23.80
   2  -5  -4  471.85   23.10
  -2   5   4  504.85   21.40
   1  -5  -4  508.45   27.20
   1  -5  -4  499.15   27.60
   1  -5  -4  534.25   25.10
  -1   5   4  541.45   20.80
   0  -5  -4   33.70    7.20
   0  -5  -4   37.60    7.70
   0  -5  -4   45.30    7.50
   0   5   4   55.09   11.10
   0   5   4   39.80   11.90
   0   5   4   37.70    4.80
   0   5   4   46.00    7.00
  -1  -5  -4 1024.20   51.69
  -1  -5  -4 1111.79   43.20
  -1  -5  -4 1092.29   42.70
   1   5   4 1107.09   38.30
   1   5   4 1042.20   41.20
   1   5   4 1024.40   41.50
   1   5   4 1046.50   48.80
  -2  -5  -4   37.60    7.60
  -2  -5  -4   48.70    6.90
   2   5   4   62.29   12.10
   2   5   4   58.69    8.30
   2   5   4   46.10    6.80
  -3  -5  -4  420.26   21.40
  -3  -5  -4  404.86   18.50
   3   5   4  410.26   20.80
   3   5   4  370.56   23.00
   3   5   4  385.46   20.20
  -4  -5  -4  675.93   25.50
  -4  -5  -4  738.83   26.90
   4   5   4  621.84   31.20
   4   5   4  730.83   31.60
   4   5   4  683.13   27.90
   4   5   4  744.93   35.90
   4   5   4  700.73   32.40
  -5  -5  -4  637.44   22.30
  -5  -5  -4  607.54   28.20
  -5  -5  -4  614.74   21.90
   5   5   4  541.75   28.30
   5   5   4  592.14   28.70
   5   5   4  622.04   31.50
  -6  -5  -4   34.70    3.30
  -6  -5  -4   31.00    6.00
   6   5   4   55.79    9.40
   6   5   4   52.09   12.90
   6   5   4   35.20    7.90
  -7  -5  -4  157.88   11.30
  -7  -5  -4  138.19    6.60
   7   5   4  146.79   16.40
   7   5   4  118.49   16.60
   7   5   4  129.89   12.50
   7   5   4  169.28   14.10
   8   5   4   49.10   15.00
   8   5   4   33.00   11.80
   8   5   4   30.90    8.40
   9   5   4  144.59   14.20
   9   5   4  144.29   23.20
   9   5   4  134.69   20.30
  10   5   4   67.49   17.20
  10   5   4   83.49   12.40
  10   5   4   96.69   22.40
  11   5   4   19.30   13.20
   7  -6  -4   89.29    6.80
   7  -6  -4  105.39   16.10
   6  -6  -4  144.59   20.00
   6  -6  -4  176.78   11.70
   6  -6  -4  121.59   18.90
   5  -6  -4   27.90    9.40
   5  -6  -4   46.60   11.90
   5  -6  -4   46.10    7.50
   4  -6  -4    1.70    6.00
   4  -6  -4   -1.10    3.60
   4  -6  -4    0.90    6.00
   3  -6  -4    3.00    5.80
   3  -6  -4   11.60    5.40
   3  -6  -4   11.50    5.10
   3  -6  -4    7.90    6.10
   2  -6  -4   37.70    9.20
   2  -6  -4   48.70    8.60
   2  -6  -4   55.89   10.60
   1  -6  -4   -5.10    3.50
   1  -6  -4   12.20    5.40
   1  -6  -4    0.90    4.80
  -1   6   4   -2.70    7.10
   0  -6  -4  102.69   11.20
   0  -6  -4   83.69   11.90
   0  -6  -4   91.49   12.00
   0   6   4   67.49   16.60
   0   6   4   89.89    9.40
  -1  -6  -4   47.20    8.20
  -1  -6  -4   41.30    8.60
   1   6   4   44.90    5.40
   1   6   4   55.09   14.30
   1   6   4   53.09    8.50
  -2  -6  -4   38.40    8.70
  -2  -6  -4   43.40    7.40
   2   6   4   40.10   11.40
   2   6   4   26.90    6.60
   2   6   4   29.60    6.00
  -3  -6  -4   47.10    7.20
  -3  -6  -4   50.29    9.80
   3   6   4   44.50    8.00
   3   6   4   56.19   12.10
   3   6   4   41.70    8.40
  -4  -6  -4   27.00    7.10
  -4  -6  -4   15.00    4.40
   4   6   4   20.10    7.20
   4   6   4   18.90    6.60
  -5  -6  -4  840.82   31.00
  -5  -6  -4  789.92   36.90
   5   6   4  809.22   37.80
   5   6   4  858.61   42.90
   5   6   4  868.91   44.30
  -6  -6  -4   14.10    3.30
  -6  -6  -4   28.10    3.20
  -6  -6  -4   22.90    7.20
   6   6   4   26.70   10.10
   6   6   4   15.40    6.70
   6   6   4   31.00   11.10
   6   6   4   26.20    7.30
  -7  -6  -4   63.99    9.60
   7   6   4   47.30   12.50
   7   6   4   44.20   14.00
   7   6   4   67.79   11.70
   8   6   4   23.00   10.90
   8   6   4   11.30    6.90
   8   6   4   12.30   10.50
   9   6   4   10.30    7.20
   9   6   4   30.90   14.60
   9   6   4    6.00   10.80
  10   6   4   26.10   14.70
  10   6   4   21.00   11.00
  10   6   4   13.70    7.50
  11   6   4  109.59   15.10
  11   6   4  158.48   25.80
  11   6   4   98.39   23.60
   5  -7  -4  131.69   18.20
   5  -7  -4  132.09   19.40
   4  -7  -4   -0.30    4.10
   4  -7  -4    4.30    7.90
   4  -7  -4   -1.50    5.40
   3  -7  -4   10.90    7.60
   3  -7  -4    2.20    5.50
   3  -7  -4   24.10    8.90
   2  -7  -4  562.54   28.90
   2  -7  -4  522.45   32.60
   1  -7  -4   95.39   11.30
   1  -7  -4  110.39   11.10
   1  -7  -4   84.99   13.30
  -1   7   4   59.39   17.50
  -1   7   4   90.29   14.40
   0  -7  -4   22.90    5.40
   0  -7  -4   25.30    8.00
   0  -7  -4   29.80    8.50
   0   7   4   32.30    7.50
   0   7   4   24.60   14.00
  -1  -7  -4   81.29   12.10
  -1  -7  -4   59.59   10.80
   1   7   4   54.99    5.00
   1   7   4   57.99    6.40
   1   7   4   40.70   14.20
  -2  -7  -4  212.88   17.20
  -2  -7  -4  217.58   16.30
   2   7   4  188.68   11.90
   2   7   4  233.58   16.10
  -3  -7  -4  119.39   20.10
  -3  -7  -4   90.59   13.40
   3   7   4  104.99   11.70
   3   7   4  121.69   16.50
   3   7   4   92.79    9.50
  -4  -7  -4   24.50    5.90
  -4  -7  -4   15.60    6.80
   4   7   4   24.20    7.90
   4   7   4   16.50    8.90
   4   7   4   23.00    7.60
  -5  -7  -4    2.80    4.80
  -5  -7  -4   -1.10    2.70
   5   7   4   -2.00    6.20
   5   7   4   -2.40    4.70
   5   7   4    1.50    4.60
  -6  -7  -4    5.90    2.70
  -6  -7  -4   15.70    5.70
   6   7   4    9.50    7.60
   6   7   4    6.30    6.10
   6   7   4   11.60    8.50
  -7  -7  -4    1.00    1.30
  -7  -7  -4    3.00    5.40
   7   7   4   13.30   11.70
   7   7   4    4.80    6.40
   7   7   4    9.30    7.90
   8   7   4   96.79   20.70
   9   7   4  142.79   16.30
   9   7   4  115.09   23.60
   9   7   4  119.19   22.40
  10   7   4   12.80   11.60
  10   7   4   16.10   11.20
  10   7   4   22.10    8.90
  11   7   4    2.70   10.30
  11   7   4   -6.40   11.00
  11   7   4    9.10    7.30
   4  -8  -4   -9.50    5.40
   4  -8  -4    2.90    7.30
   4  -8  -4   -2.10    5.00
   3  -8  -4    7.30    6.30
   3  -8  -4   -1.80    6.70
   3  -8  -4   -8.70    6.10
   2  -8  -4   53.29   10.70
   2  -8  -4   20.80    9.20
   1  -8  -4  104.39   17.00
   1  -8  -4  138.39   15.10
   0  -8  -4   -1.80    6.00
   0  -8  -4   -1.60    5.40
   0   8   4   25.50   10.50
   0   8   4   -2.30    5.90
  -1  -8  -4  317.17   23.10
  -1  -8  -4  360.26   24.00
   1   8   4  245.58   26.80
  -2  -8  -4  100.89   14.40
  -2  -8  -4  123.09   14.50
   2   8   4  109.69   12.00
   2   8   4  107.19    8.40
   2   8   4  115.59   21.20
   2   8   4  128.69   12.70
  -3  -8  -4   17.90    7.80
  -3  -8  -4   26.90    7.90
   3   8   4   33.50   12.30
   3   8   4   18.30    5.90
   3   8   4   10.30    6.40
  -4  -8  -4   21.10    8.30
  -4  -8  -4   26.10    6.20
   4   8   4   18.60   10.60
   4   8   4   23.20   11.40
   4   8   4   20.30    6.90
  -5  -8  -4   17.50    7.90
  -5  -8  -4   16.30    5.50
   5   8   4   18.40   10.10
   5   8   4   10.10    7.10
   5   8   4   11.60    7.50
  -6  -8  -4  335.07   23.30
  -6  -8  -4  324.77   16.40
   6   8   4  300.47   23.10
   6   8   4  295.57   23.00
   6   8   4  328.17   27.70
  -7  -8  -4    5.50    6.20
  -7  -8  -4   -1.70    2.70
   7   8   4    4.70   10.40
   7   8   4   10.80    8.10
   7   8   4   18.40   10.50
   8   8   4    7.00   10.00
   8   8   4   19.40   10.40
   8   8   4    6.10    7.60
   9   8   4   25.20   15.90
   9   8   4   70.19   16.80
   9   8   4   40.70   11.60
  10   8   4   47.70   14.00
  10   8   4   56.99   31.10
  10   8   4   54.39   16.70
   3  -9  -4   -1.00    6.80
   3  -9  -4   -2.00    5.10
   3  -9  -4  -18.40    8.20
   2  -9  -4   36.40   11.40
   2  -9  -4   33.60   12.90
   2  -9  -4   52.39   11.10
   1  -9  -4   25.10   10.20
   1  -9  -4   24.40    9.50
   0  -9  -4   40.10   11.10
   0  -9  -4   32.10   10.50
   0   9   4   50.29   14.00
  -1  -9  -4   49.70   11.50
  -1  -9  -4   51.49   12.40
   1   9   4   43.80   16.50
  -2  -9  -4   10.30    6.50
  -2  -9  -4   11.30    9.00
   2   9   4   -1.80    8.20
   2   9   4   -2.20    6.30
  -3  -9  -4  110.39   17.50
  -3  -9  -4   89.29   13.90
   3   9   4   95.39   20.80
   3   9   4  104.49   14.50
   3   9   4   84.49    9.40
  -4  -9  -4   65.99   11.10
  -4  -9  -4   58.39   14.00
   4   9   4   42.20   11.40
   4   9   4   47.30   16.10
   4   9   4   54.89   15.00
  -5  -9  -4  131.49   18.80
  -5  -9  -4  106.99   11.80
   5   9   4  129.79   15.20
   5   9   4  113.49   13.30
   5   9   4  172.38   26.80
  -6  -9  -4    7.50    4.90
  -6  -9  -4   33.50    9.80
   6   9   4   23.40    9.80
   6   9   4   20.90    9.90
  -7  -9  -4   18.40    5.40
  -7  -9  -4   17.80    8.90
   7   9   4   23.50   12.10
   7   9   4   25.90   14.50
   8   9   4   24.90   11.20
   8   9   4   15.30   11.40
   8   9   4   25.70   10.70
   9   9   4  110.09   18.30
   9   9   4  102.69   22.10
   9   9   4  117.29   21.00
  10   9   4   55.09   13.40
  10   9   4   65.39   17.80
  10   9   4   26.10   15.60
   1 -10  -4   -0.30    8.10
   1 -10  -4   12.70    7.20
   0 -10  -4   83.79   15.00
   0 -10  -4   68.69   14.80
  -1 -10  -4   66.29   14.50
  -1 -10  -4   40.20   11.60
  -2 -10  -4   18.50    9.10
  -2 -10  -4   45.00   12.30
   2  10   4   46.20   15.30
  -3 -10  -4   51.39   11.80
  -3 -10  -4   61.89   14.40
   3  10   4   54.89   18.10
  -4 -10  -4   31.00   14.30
  -4 -10  -4   86.39   18.40
   4  10   4   36.40   12.40
   4  10   4   61.69   12.40
   4  10   4   64.19   20.50
  -5 -10  -4   54.59   13.50
  -5 -10  -4   39.00    9.50
   5  10   4   48.70   12.70
   5  10   4   32.20    9.90
   5  10   4   41.50   16.00
  -6 -10  -4    5.80    5.90
  -6 -10  -4    9.60    9.00
   6  10   4    1.10    8.40
   6  10   4    9.10   12.10
   6  10   4    3.40    8.60
  -7 -10  -4    2.30   10.70
   7  10   4    7.50   10.30
   7  10   4    6.70    8.10
   7  10   4    4.60   13.60
   8  10   4    9.40    9.30
   8  10   4    9.50    9.50
   8  10   4   14.90   12.10
   9  10   4   10.50   13.50
   9  10   4   41.50   19.70
  -1 -11  -4    4.30    6.60
  -1 -11  -4    7.90    7.80
  -2 -11  -4   27.30   12.60
  -2 -11  -4   37.70   14.00
   2  11   4   71.79   20.30
  -3 -11  -4   42.20   11.30
  -3 -11  -4   50.19   13.40
   3  11   4   76.69   19.60
  -4 -11  -4   34.80   11.30
  -4 -11  -4    3.20    7.60
   4  11   4   20.50   15.50
  -5 -11  -4   -8.70    6.60
  -5 -11  -4   11.70   10.50
   5  11   4   10.40   10.10
   5  11   4   -9.40   14.20
  -6 -11  -4   13.80    9.80
  -6 -11  -4   -6.60    7.00
   6  11   4   10.10   10.40
   6  11   4  -15.40   10.60
   6  11   4   -7.80   13.30
   7  11   4    9.30   15.40
   7  11   4   14.50   11.80
   7  11   4    3.80   12.10
   8  11   4   -3.10   10.40
   8  11   4   -1.50   15.70
   8  11   4   41.10   22.20
   9  11   4   -2.90   12.80
   9  11   4   21.40   21.70
  -4 -12  -4    9.60   11.50
  -4 -12  -4   -9.20    7.40
   4  12   4   42.10   28.10
  -5 -12  -4    1.80   16.60
   5  12   4   12.20   21.00
  -6 -12  -4   74.29   17.00
   6  12   4   46.50   24.70
  -5 -11   5   54.49   17.50
  -5 -11   5  -24.50   12.90
  -4 -11   5   -4.10   10.00
  -4 -11   5   44.70   13.00
  -3 -11   5  149.99   44.30
   8  10  -5  -16.30   10.00
   8  10  -5    2.30   13.30
   7  10  -5   17.10   14.60
   7  10  -5   23.00   13.60
  -7 -10   5   77.69   22.10
   6  10  -5   66.19   15.60
   6  10  -5   67.69   17.70
  -6 -10   5  118.59   21.00
  -6 -10   5   64.09   20.00
   5  10  -5   36.20   11.30
   5  10  -5  -16.70   11.90
  -5 -10   5   22.90   14.30
  -5 -10   5    5.00    9.20
  -4 -10   5   24.90   15.40
  -4 -10   5   20.10   12.40
  -4 -10   5    1.50    9.30
  -3 -10   5   17.40   11.90
  -3 -10   5  -15.60    8.00
  -3 -10   5   -6.80    7.80
  -2 -10   5   45.70   13.30
  -2 -10   5  100.19   18.90
  -2 -10   5   58.89   16.80
  -1 -10   5  316.17   27.50
  -1 -10   5  294.27   30.00
   0 -10   5   81.19   18.70
   0 -10   5  101.69   25.00
   0 -10   5  123.29   22.10
   9   9  -5   17.50   10.60
   9   9  -5    5.50   12.60
   8   9  -5    0.60    8.90
   8   9  -5   -1.00   10.30
   7   9  -5   24.20   14.60
   7   9  -5   38.00   13.50
  -7  -9   5   40.60   16.80
  -7  -9   5   83.39   20.20
   6   9  -5   -6.30   13.90
  -6  -9   5   -9.90    7.10
  -6  -9   5   17.40   10.70
  -6  -9   5   14.80   12.40
   5   9  -5   11.80    9.00
   5   9  -5   20.50    9.70
  -5  -9   5   13.10   10.70
  -5  -9   5    3.30    7.30
  -5  -9   5    4.10   12.00
   4   9  -5   77.09   14.50
   4   9  -5   61.29   13.60
  -4  -9   5   43.20   11.70
  -4  -9   5   82.19   21.60
   3   9  -5  -16.10    6.90
   3   9  -5  -17.70    9.00
  -3  -9   5    7.80    7.30
  -3  -9   5    7.60    8.60
  -3  -9   5   17.60   12.00
  -2  -9   5  237.28   27.20
  -2  -9   5  238.78   23.00
  -2  -9   5  218.98   22.80
  -1  -9   5  147.79   22.40
  -1  -9   5  143.09   24.30
  -1  -9   5  152.38   21.40
   0  -9   5    1.90   10.30
   0  -9   5    0.30    8.50
   0  -9   5    6.00    8.10
   1  -9   5    6.60   12.80
   2  -9   5   37.60    9.70
   2  -9   5    7.90    9.50
   2  -9   5    0.00   14.50
   9   8  -5   65.59   19.30
   9   8  -5   16.10   11.50
   9   8  -5   65.59   12.30
   8   8  -5   12.00   12.00
   8   8  -5   -7.70    5.20
   8   8  -5    6.20    9.20
   7   8  -5   28.70    9.80
   7   8  -5   29.40   11.10
   7   8  -5   21.80   12.10
  -7  -8   5   59.39   13.70
  -7  -8   5   12.40   13.40
   6   8  -5   23.20   10.90
   6   8  -5   42.50   12.20
  -6  -8   5   27.10   11.40
  -6  -8   5   21.60   14.10
   5   8  -5   97.39   16.70
   5   8  -5  105.39   16.90
  -5  -8   5  106.49   22.80
  -5  -8   5  104.59   13.60
  -5  -8   5   89.09   16.80
   4   8  -5   47.20   11.50
   4   8  -5   38.60   10.50
  -4  -8   5   34.50   12.40
  -4  -8   5   44.10   10.40
   3   8  -5   11.00    6.80
   3   8  -5    3.00    6.10
  -3  -8   5    5.10    9.30
  -3  -8   5   -3.60    7.00
  -3  -8   5   -4.50    5.20
   2   8  -5    8.20    7.50
   2   8  -5   12.10    7.90
  -2  -8   5   22.00   12.90
  -2  -8   5   27.60    9.70
  -2  -8   5   24.20   10.80
   1   8  -5   77.19   19.60
  -1  -8   5   82.49   18.70
  -1  -8   5   84.99   17.70
   0  -8   5  195.58   21.90
   0  -8   5  210.78   23.20
   0  -8   5  251.27   22.30
   1  -8   5  324.77   25.30
   1  -8   5  279.47   27.20
   1  -8   5  342.17   28.60
   2  -8   5   74.19   14.40
   2  -8   5   78.69   17.00
   3  -8   5   31.80   13.50
   3  -8   5   10.80    7.10
   3  -8   5   22.80   11.80
  10   7  -5   67.69   20.70
  10   7  -5   74.79   14.80
   9   7  -5  200.28   16.50
   9   7  -5  169.68   23.30
   9   7  -5  162.88   23.40
   8   7  -5  101.89   21.50
   8   7  -5  136.79   19.90
   8   7  -5  138.59   13.60
   7   7  -5  119.89   13.30
   7   7  -5  101.09   20.30
   7   7  -5  123.09   19.20
  -7  -7   5  159.18   17.60
  -7  -7   5  109.49   22.80
   6   7  -5  208.38   21.50
   6   7  -5  191.28   19.80
   6   7  -5  195.88   16.70
  -6  -7   5  201.08   13.90
  -6  -7   5  233.98   20.10
  -6  -7   5  235.28   25.60
   5   7  -5  244.78   21.80
   5   7  -5  251.57   18.90
   5   7  -5  273.47   21.80
  -5  -7   5  265.97   17.80
  -5  -7   5  289.27   40.30
  -5  -7   5  273.77   26.60
   4   7  -5   68.19   12.80
  -4  -7   5   51.59   15.50
  -4  -7   5   46.60    9.60
  -4  -7   5   76.29   15.10
   3   7  -5   62.39   11.90
   3   7  -5   75.19   10.10
  -3  -7   5   75.79   17.40
  -3  -7   5   96.19   16.40
  -3  -7   5   60.79   10.80
   2   7  -5   36.70    8.40
   2   7  -5   23.60    7.30
  -2  -7   5   26.90   11.70
  -2  -7   5   27.90    9.70
  -2  -7   5   21.20    7.80
   1   7  -5   -0.80    5.60
   1   7  -5   12.20    5.10
  -1  -7   5   -1.80    5.70
  -1  -7   5    6.20    5.80
  -1  -7   5    4.80    7.40
   0   7  -5   17.90    7.20
   0  -7   5   25.90    9.80
   0  -7   5   38.70   11.50
   0  -7   5   20.70   10.50
   1  -7   5    7.70   13.60
   1  -7   5   11.70    9.80
   2  -7   5   81.79   16.20
   2  -7   5   43.40   12.10
   2  -7   5   59.09   12.10
   3  -7   5   34.90   12.00
   3  -7   5   28.20   10.60
   4  -7   5  171.78   19.80
   4  -7   5  195.48   25.90
   4  -7   5  202.08   15.80
   5  -7   5   18.20   10.80
   5  -7   5   28.10    6.00
  10   6  -5    3.60    5.90
  10   6  -5    4.80    6.90
  10   6  -5   -9.20   11.20
   9   6  -5   11.80   12.00
   9   6  -5    6.60    6.00
   9   6  -5    4.20    7.80
   8   6  -5   38.50   14.90
   8   6  -5   39.90    8.30
   8   6  -5   30.00   10.60
   7   6  -5   90.89   12.00
   7   6  -5   80.29   14.50
   7   6  -5  110.59   20.10
  -7  -6   5   92.19   14.30
  -7  -6   5  108.39   21.50
   6   6  -5  234.08   16.60
   6   6  -5  194.08   18.60
   6   6  -5  217.88   21.90
  -6  -6   5  226.38   23.70
  -6  -6   5  229.78   13.00
  -6  -6   5  268.37   20.80
   5   6  -5  472.35   25.60
   5   6  -5  544.55   32.70
   5   6  -5  478.75   29.00
  -5  -6   5  543.55   25.10
  -5  -6   5  534.35   31.40
  -5  -6   5  484.05   34.30
   4   6  -5   85.09   14.60
   4   6  -5   58.79   10.20
   4   6  -5   79.59   13.30
  -4  -6   5   73.29   13.70
  -4  -6   5   77.29   16.30
   3   6  -5   -5.50    4.00
   3   6  -5   16.10    7.30
   3   6  -5    0.10    4.80
  -3  -6   5    3.10    7.00
  -3  -6   5   -1.10    4.90
   2   6  -5   99.59   13.40
   2   6  -5   82.19    9.10
  -2  -6   5  113.99   18.00
  -2  -6   5   99.29   15.10
   1   6  -5   30.40    7.40
   1   6  -5   27.40    7.60
  -1  -6   5   27.20    8.60
  -1  -6   5   32.10   11.40
   0   6  -5   75.49    8.90
   0   6  -5   81.69    7.40
   0  -6   5   85.29    9.60
   0  -6   5   77.99   13.00
   0  -6   5  113.49   18.50
  -1   6  -5  122.69   10.50
   1  -6   5  156.48   17.10
   1  -6   5  146.89   15.20
   1  -6   5  139.69   16.30
   1  -6   5  138.19   12.70
   2  -6   5   42.00    8.30
   2  -6   5   46.20   11.90
   2  -6   5   68.59   13.70
   2  -6   5   36.60    9.80
   3  -6   5   19.10    9.30
   3  -6   5    6.50    6.60
   3  -6   5    6.20    7.50
   4  -6   5   20.30    9.80
   4  -6   5    0.70    5.00
   4  -6   5    4.20   10.00
   5  -6   5  116.89   10.90
   5  -6   5  165.48   18.90
   5  -6   5  141.19   21.10
   6  -6   5  466.35   34.90
   6  -6   5  451.55   17.80
  10   5  -5   20.90   15.30
  10   5  -5   37.30    8.40
  10   5  -5   33.10   11.60
  10   5  -5   32.80   10.30
   9   5  -5  138.69   26.70
   9   5  -5  155.38   13.40
   9   5  -5  143.49   16.90
   9   5  -5  134.79   18.80
   8   5  -5   48.30   11.90
   8   5  -5   28.60   14.00
   8   5  -5   41.10   11.30
   8   5  -5   54.89    9.40
   7   5  -5  261.07   19.00
   7   5  -5  214.18   23.90
   7   5  -5  221.78   18.80
   7   5  -5  238.48   15.50
  -7  -5   5  205.98   21.90
  -7  -5   5  222.58   18.50
   6   5  -5  286.67   25.60
   6   5  -5  296.17   17.50
   6   5  -5  316.97   21.90
  -6  -5   5  329.77   26.00
  -6  -5   5  301.37   13.50
  -6  -5   5  282.27   12.00
   5   5  -5   66.79   14.10
   5   5  -5   47.70    8.20
   5   5  -5   64.59   11.80
  -5  -5   5   45.40   10.40
  -5  -5   5   60.99   14.50
  -5  -5   5   40.30    5.30
   4   5  -5  149.99   13.80
   4   5  -5  144.89   11.80
   4   5  -5  157.18   15.60
  -4  -5   5  137.19   14.60
  -4  -5   5  151.98   17.20
   3   5  -5  168.48   14.30
   3   5  -5  161.88   14.10
  -3  -5   5  165.08   17.30
  -3  -5   5  162.08   15.00
   2   5  -5   55.29    9.00
   2   5  -5   54.29   10.00
  -2  -5   5   49.99   10.20
   1   5  -5  131.39   11.70
   1   5  -5  123.99    8.90
  -1  -5   5  122.99   12.80
  -1  -5   5  131.79   18.70
  -1  -5   5  117.49   10.50
   0   5  -5  413.36   19.00
   0   5  -5  408.36   21.20
   0  -5   5  415.16   24.10
   0  -5   5  368.76   20.60
   0  -5   5  407.76   29.40
  -1   5  -5  884.61   31.10
  -1   5  -5  867.41   35.20
   1  -5   5  865.01   39.00
   1  -5   5  834.52   36.10
  -2   5  -5    5.10    3.40
   2  -5   5    7.30    5.00
   2  -5   5   -2.60    5.70
   2  -5   5    0.20    3.50
   3  -5   5   55.49    8.20
   3  -5   5   68.59   14.00
   3  -5   5   58.89   10.40
   3  -5   5   56.19   12.90
   4  -5   5   41.60   11.20
   4  -5   5   24.20    8.80
   4  -5   5   39.00    7.60
   4  -5   5   36.90    6.50
   5  -5   5   16.60    8.00
   5  -5   5   10.90    9.00
   6  -5   5   57.39   13.60
   6  -5   5   56.89   13.30
   6  -5   5   63.69    4.90
   6  -5   5   54.49    4.90
   7  -5   5    4.60    7.20
  10   4  -5  209.58   20.40
  10   4  -5  227.68   29.30
  10   4  -5  255.37   20.50
  10   4  -5  233.28   17.40
   9   4  -5  162.18   17.80
   9   4  -5  167.28   29.60
   9   4  -5  179.98   13.90
   9   4  -5  185.78   17.50
   8   4  -5  136.29   12.00
   8   4  -5  157.48   27.90
   7   4  -5  150.18   14.80
   7   4  -5  140.89   20.70
   7   4  -5  144.49   15.20
   7   4  -5  138.69   13.50
   7   4  -5  150.78   11.90
   6   4  -5   15.20    9.40
   6   4  -5   14.30    6.50
   6   4  -5   14.70    8.30
   6   4  -5   36.80    7.20
   6   4  -5   13.80    6.60
  -6  -4   5   22.00    8.90
  -6  -4   5   15.10    2.30
  -6  -4   5   12.50    5.80
   5   4  -5  159.58   11.70
   5   4  -5  129.29   12.80
   5   4  -5  173.38   17.60
   5   4  -5  148.19   13.60
   5   4  -5  163.38   13.20
  -5  -4   5  171.08   17.00
  -5  -4   5  152.78    7.80
  -5  -4   5  174.38   14.70
   4   4  -5 1445.86   53.89
   4   4  -5 1513.75   57.99
   4   4  -5 1471.55   55.39
   4   4  -5 1501.15   62.09
  -4  -4   5 1408.86   49.99
  -4  -4   5 1566.64   63.79
  -4  -4   5 1574.44   59.99
   3   4  -5   49.30    7.70
   3   4  -5   70.99   11.70
   3   4  -5   57.49    9.40
  -3  -4   5   61.89   12.30
  -3  -4   5   63.79   10.60
   2   4  -5   29.40    6.90
   2   4  -5   27.80    6.50
   2   4  -5   22.20    5.40
  -2  -4   5   32.40    7.80
  -2  -4   5   25.50    8.90
   1   4  -5  135.29    8.80
   1   4  -5  113.69   10.00
   1   4  -5  116.99   10.80
   1   4  -5  129.49   10.70
  -1  -4   5  119.99   10.80
  -1  -4   5  143.09   12.50
  -1  -4   5  147.79   14.20
  -1  -4   5  128.99   13.90
   0   4  -5  718.83   29.10
   0   4  -5  705.63   24.30
   0   4  -5  713.03   29.80
   0  -4   5  650.53   31.30
   0  -4   5  734.63   33.00
   0  -4   5  635.74   34.10
   0  -4   5  671.53   29.20
  -1   4  -5  478.85   21.40
  -1   4  -5  465.55   19.40
   1  -4   5  476.05   25.20
   1  -4   5  456.35   21.70
   1  -4   5  451.65   23.60
   1  -4   5  440.66   26.50
  -2   4  -5  209.18   11.20
   2  -4   5  218.48   13.20
   2  -4   5  220.58   13.90
   2  -4   5  217.48   17.50
   2  -4   5  216.18   14.70
   3  -4   5  206.48   12.50
   3  -4   5  194.48   12.40
   3  -4   5  199.88   13.90
   3  -4   5  223.18   17.70
   4  -4   5   10.70    6.20
   4  -4   5   18.40    4.20
   4  -4   5    6.60    3.70
   4  -4   5    9.70    7.10
   4  -4   5    6.70    4.40
   5  -4   5   14.60    6.50
   5  -4   5    9.00    7.70
   5  -4   5   -3.90    2.60
   5  -4   5    4.30    2.50
   6  -4   5   26.90    9.20
   6  -4   5    9.90    8.40
   6  -4   5   10.10    2.10
   6  -4   5   13.40    2.30
   7  -4   5  155.08   15.60
   7  -4   5  111.59   17.00
   7  -4   5  162.08   17.50
   7  -4   5  108.09   12.50
   8  -4   5   -1.30    8.10
   8  -4   5  -17.70    5.70
  10   3  -5  180.28   16.10
  10   3  -5  176.38   19.60
  10   3  -5  143.19   14.00
  10   3  -5  178.58   26.20
   9   3  -5  195.18   14.80
   9   3  -5  215.38   17.90
   9   3  -5  207.98   20.80
   9   3  -5  194.78   26.00
   8   3  -5   -1.90    5.60
   8   3  -5   -3.00    9.30
   8   3  -5   -2.50    5.80
   8   3  -5   -2.70    4.40
   7   3  -5  113.69   21.00
   7   3  -5  110.89   14.40
   7   3  -5  105.29   12.20
   7   3  -5  110.89   12.10
   7   3  -5  129.49   10.90
  -7  -3   5  123.19   11.00
   6   3  -5   33.30    8.00
   6   3  -5   55.99   10.00
   6   3  -5   50.59   13.40
   6   3  -5   53.39    9.10
  -6  -3   5   43.90    3.30
   5   3  -5    5.60    3.90
   5   3  -5    5.20    3.90
   5   3  -5   13.10    5.40
  -5  -3   5   -2.70    6.00
  -5  -3   5    7.00    2.00
  -5  -3   5    8.50    5.10
   4   3  -5  223.58   14.80
   4   3  -5  244.78   13.20
   4   3  -5  220.18   15.00
   4   3  -5  231.08   14.40
  -4  -3   5  247.78   18.20
  -4  -3   5  236.68   16.00
  -4  -3   5  229.28   10.20
   3   3  -5   -1.50    3.10
   3   3  -5   -3.00    2.50
   3   3  -5    0.50    2.40
   3   3  -5    2.40    4.20
   3   3  -5   -4.20    2.20
  -3  -3   5    1.00    4.00
  -3  -3   5   -4.00    4.20
  -3  -3   5   -0.20    1.30
   2   3  -5    7.70    3.70
   2   3  -5    2.50    3.30
   2   3  -5    1.40    2.80
   2   3  -5    1.30    3.30
  -2  -3   5    2.50    4.90
  -2  -3   5    2.80    6.20
  -2  -3   5    0.20    1.30
  -2  -3   5    1.80    2.30
  -2  -3   5   -0.70    3.80
   1   3  -5   44.10    6.30
   1   3  -5   45.60    7.20
   1   3  -5   39.10    8.30
   1   3  -5   37.20    4.90
  -1  -3   5   37.60    9.30
  -1  -3   5   41.80    4.60
  -1  -3   5   44.90    9.60
  -1  -3   5   52.49    8.40
  -1  -3   5   40.70    6.30
   0   3  -5 2642.84   90.59
   0   3  -5 2701.23   90.59
   0   3  -5 2725.83   85.39
   0  -3   5 2666.93   87.79
   0  -3   5 2690.33   95.39
   0  -3   5 2751.62   95.89
   0  -3   5 2618.44   92.19
   0  -3   5 2690.03   90.29
  -1   3  -5  730.63   27.50
   1  -3   5  653.93   32.30
   1  -3   5  712.23   30.00
   1  -3   5  708.73   29.90
  -2   3  -5 2321.17   77.69
  -2   3  -5 2354.36   78.79
   2  -3   5 2391.56   79.49
   2  -3   5 2324.27   85.59
   2  -3   5 2392.46   81.59
   3  -3   5  158.18    9.60
   3  -3   5  150.18   11.20
   3  -3   5  166.98   14.30
   4  -3   5    3.40    3.10
   4  -3   5   14.40    7.30
   4  -3   5    4.20    4.40
   4  -3   5    4.10    2.20
   4  -3   5    0.60    2.70
   4  -3   5    6.20    2.60
   5  -3   5  191.48   16.30
   5  -3   5  241.38   11.50
   5  -3   5  206.58   13.40
   5  -3   5  227.98   10.40
   5  -3   5  234.78   19.10
   5  -3   5  224.78   14.60
   6  -3   5   78.39   13.90
   6  -3   5   88.09   10.00
   6  -3   5   96.09    9.30
   6  -3   5  103.79   12.70
   7  -3   5    3.10    5.20
   7  -3   5   35.80    9.60
   7  -3   5  -10.80    5.30
   7  -3   5    5.00    4.90
   7  -3   5    2.60    5.70
   8  -3   5  164.08   15.00
   8  -3   5  193.08   19.60
  10   2  -5  136.09   13.50
  10   2  -5  151.68   29.30
  10   2  -5  104.09   16.80
  10   2  -5  121.19   12.60
   9   2  -5  130.99   12.40
   9   2  -5  103.89   16.10
   9   2  -5  118.19   25.70
   9   2  -5  109.79   12.60
   8   2  -5   30.30   15.50
   8   2  -5   25.70    7.20
   8   2  -5   20.00    7.50
   8   2  -5   25.10    8.50
   8   2  -5   26.90    8.50
   7   2  -5   57.79    9.70
   7   2  -5   70.59    9.10
   7   2  -5   54.99    9.80
   7   2  -5   84.99   12.60
  -7  -2   5   64.59    7.50
   6   2  -5   55.29    9.50
   6   2  -5   51.29    8.80
  -6  -2   5   65.89    7.70
  -6  -2   5   69.39    5.00
   5   2  -5   37.40    8.80
   5   2  -5   54.89    8.50
   5   2  -5   36.80    3.60
   5   2  -5   41.10    6.30
  -5  -2   5   32.70    3.70
  -5  -2   5   35.90    8.60
   4   2  -5  143.89    7.20
   4   2  -5  141.69   10.60
   4   2  -5  135.49    9.00
   4   2  -5  120.09   10.00
   4   2  -5  127.09   10.50
  -4  -2   5  129.79   11.00
  -4  -2   5  129.29    7.00
  -4  -2   5  134.09   12.10
   3   2  -5  344.27   15.50
   3   2  -5  338.47   16.60
   3   2  -5  323.77   17.00
   3   2  -5  327.07   17.60
  -3  -2   5  342.97   18.10
  -3  -2   5  369.26   20.40
  -3  -2   5  325.77   13.40
   2   2  -5  276.07   13.10
   2   2  -5  282.67   13.70
   2   2  -5  284.67   15.20
   2   2  -5  266.37   17.30
   2   2  -5  271.37   14.40
  -2  -2   5  260.17   13.10
  -2  -2   5  276.17   13.70
  -2  -2   5  296.87   16.10
  -2  -2   5  282.67   17.40
  -2  -2   5  287.47   20.50
   1   2  -5   66.99    7.30
   1   2  -5   68.89    6.60
   1   2  -5   65.49    8.20
   1   2  -5   55.29    6.30
   1   2  -5   63.99    5.70
   1   2  -5   64.69    5.30
  -1  -2   5   75.49   12.00
  -1  -2   5   72.59    5.40
  -1  -2   5   63.69    5.00
  -1  -2   5   53.29    5.70
  -1  -2   5   63.99    7.40
  -1  -2   5   59.19    9.50
   0   2  -5  943.71   37.80
   0   2  -5  934.31   36.30
   0   2  -5  987.50   36.10
   0   2  -5  983.30   35.60
   0   2  -5 1053.09   38.70
   0  -2   5  989.70   40.00
   0  -2   5  980.30   33.90
   0  -2   5 1025.90   41.50
   0  -2   5  989.10   37.70
   0  -2   5  982.90   34.70
   0  -2   5  954.60   35.70
  -1   2  -5  410.46   17.60
  -1   2  -5  389.36   17.70
   1  -2   5  391.46   18.20
   1  -2   5  384.86   16.80
   1  -2   5  374.16   20.10
   1  -2   5  380.66   17.40
  -2   2  -5    1.20    2.20
  -2   2  -5    1.10    1.70
   2  -2   5   -3.50    2.90
   2  -2   5    0.60    2.40
   2  -2   5    0.20    3.50
   2  -2   5    0.10    1.80
   3  -2   5   87.89    8.30
   3  -2   5   70.19    8.60
   3  -2   5   81.19    5.90
   3  -2   5   88.49    7.10
   3  -2   5   91.59    5.40
   4  -2   5  145.49   10.80
   4  -2   5  144.19    7.60
   4  -2   5  138.89   12.00
   4  -2   5  137.39    8.60
   4  -2   5  141.49    9.30
   5  -2   5   78.59    8.50
   5  -2   5   78.99    7.50
   5  -2   5   83.99   12.20
   5  -2   5   76.89    5.40
   5  -2   5   85.59    4.80
   5  -2   5   86.69    9.00
   6  -2   5  104.69    9.90
   6  -2   5  107.19   11.60
   6  -2   5   92.99   10.40
   6  -2   5  104.99   11.00
   6  -2   5  114.99   12.90
   6  -2   5   99.99    9.20
   7  -2   5  173.68   15.40
   7  -2   5  178.98   16.20
   7  -2   5  159.88   13.10
   7  -2   5  179.58   14.10
   7  -2   5  163.58   14.00
   7  -2   5  186.88   16.80
   8  -2   5  339.07   23.40
   8  -2   5  337.97   19.00
   8  -2   5  264.17   20.60
   8  -2   5  340.67   22.60
   8  -2   5  292.97   22.20
   8  -2   5  278.77   18.60
   9  -2   5   -2.20    6.00
  10   1  -5    9.40    9.40
  10   1  -5   -4.20    6.70
  10   1  -5    9.90    5.00
   9   1  -5  151.78   15.60
   9   1  -5  160.58   28.00
   9   1  -5  120.59   12.40
   9   1  -5  162.18   18.20
   8   1  -5  246.98   23.20
   8   1  -5  225.68   21.80
   8   1  -5  255.67   16.90
   7   1  -5   12.70    4.70
   7   1  -5   12.70    6.50
   7   1  -5    9.40    2.70
   7   1  -5   12.50    5.50
   7   1  -5   12.50    5.50
   6   1  -5  526.55   23.90
   6   1  -5  537.35   27.30
   6   1  -5  514.55   19.80
   6   1  -5  513.75   24.80
   6   1  -5  553.84   25.10
   5   1  -5  737.43   25.70
   5   1  -5  709.13   34.40
   5   1  -5  681.43   28.60
   5   1  -5  701.63   30.30
  -5  -1   5  730.33   29.80
   4   1  -5  504.15   21.80
   4   1  -5  505.45   24.10
   4   1  -5  513.95   23.80
   4   1  -5  528.35   23.00
   4   1  -5  556.64   21.00
   4   1  -5  529.65   23.60
  -4  -1   5  540.45   20.90
  -4  -1   5  529.75   24.80
   3   1  -5    0.60    2.50
   3   1  -5    3.10    2.70
   3   1  -5    2.90    2.90
   3   1  -5    0.50    2.50
   3   1  -5   -0.40    2.50
  -3  -1   5    1.50    5.30
  -3  -1   5   -2.30    2.60
  -3  -1   5   -0.80    1.20
  -3  -1   5   -2.50    2.20
   2   1  -5  665.13   24.20
   2   1  -5  588.94   30.80
   2   1  -5  635.44   25.40
   2   1  -5  636.54   24.90
   2   1  -5  645.24   26.10
   2   1  -5  645.74   23.10
  -2  -1   5  620.94   24.70
  -2  -1   5  639.54   23.00
  -2  -1   5  615.44   23.90
  -2  -1   5  686.13   28.00
  -2  -1   5  674.23   33.30
  -2  -1   5  630.84   24.50
  -2  -1   5  667.63   27.00
   1   1  -5    2.50    2.60
   1   1  -5   -0.10    2.30
   1   1  -5    1.10    2.00
   1   1  -5    2.90    3.00
   1   1  -5    9.20    5.10
   1   1  -5    3.00    1.90
  -1  -1   5    2.00    4.50
  -1  -1   5    3.90    2.30
  -1  -1   5    1.40    1.40
  -1  -1   5   -2.20    2.60
  -1  -1   5    2.30    1.80
  -1  -1   5    6.40    2.20
  -1  -1   5   -2.70    3.40
   0   1  -5  229.98   13.30
   0   1  -5  230.98   10.90
   0   1  -5  209.68    9.90
   0   1  -5  230.48   11.40
   0   1  -5  174.68   11.90
   0   1  -5  216.58    9.00
   0  -1   5  211.28   12.90
   0  -1   5  213.38    9.10
   0  -1   5  224.38   10.60
   0  -1   5  237.68   13.10
   0  -1   5  231.38    9.80
  -1   1  -5  431.56   18.20
  -1   1  -5  405.76   16.50
  -1   1  -5  426.96   15.00
  -1   1  -5  408.06   18.20
   1  -1   5  402.66   16.60
   1  -1   5  395.16   17.40
   1  -1   5  389.06   15.70
   1  -1   5  401.66   19.10
   1  -1   5  428.36   22.10
   1  -1   5  402.06   16.40
   1  -1   5  396.86   14.20
  -2   1  -5  107.39    6.10
   2  -1   5  101.59    6.30
   2  -1   5  119.99    6.30
   2  -1   5   97.19    7.00
   2  -1   5  129.79    9.10
   2  -1   5  103.69    8.90
   3  -1   5   40.70    4.60
   3  -1   5   34.90    4.70
   3  -1   5   38.60    6.90
   3  -1   5   37.60    4.30
   3  -1   5   39.00    3.60
   3  -1   5   42.50    5.50
   4  -1   5   90.59    5.20
   4  -1   5   92.79    8.30
   4  -1   5   82.19    5.70
   4  -1   5   94.59    9.50
   4  -1   5   87.79    8.60
   5  -1   5  233.68   10.00
   5  -1   5  250.57   16.20
   5  -1   5  238.58   15.50
   5  -1   5  228.68   15.40
   5  -1   5  247.78   12.50
   5  -1   5  243.88    9.40
   6  -1   5    1.60    3.70
   6  -1   5    8.60    5.20
   6  -1   5    3.20    5.60
   6  -1   5    2.00    4.90
   6  -1   5    6.90    3.60
   6  -1   5   -0.10    3.20
   7  -1   5    0.70    6.90
   7  -1   5    1.80    5.40
   7  -1   5    1.60    6.00
   7  -1   5    0.70    3.10
   7  -1   5    0.60    4.10
   7  -1   5    0.40    3.70
   8  -1   5  144.69   11.40
   8  -1   5  170.98   16.30
   8  -1   5  128.49   15.30
   8  -1   5  169.48   12.80
   8  -1   5  164.18   14.50
   8  -1   5  144.29   16.80
   9  -1   5   84.09   12.30
   9  -1   5  149.88   17.70
   9  -1   5  115.19   17.70
   9  -1   5  136.49   16.50
   9  -1   5  126.59   12.90
  10   0  -5  124.19   19.00
  10   0  -5  149.69   14.40
  10   0  -5  112.29   24.70
  10   0  -5  109.09   14.20
   9   0  -5   18.60    8.50
   9   0  -5   14.50    7.30
   9   0  -5   22.10    5.70
   9   0  -5   29.40   15.80
   8   0  -5  109.59   11.50
   8   0  -5   95.59    7.40
   8   0  -5  126.39   16.70
   8   0  -5   90.39    9.30
   8   0  -5  117.79   10.60
   7   0  -5   81.69    9.00
   7   0  -5   79.19    6.60
   7   0  -5   72.79   10.30
   7   0  -5   96.99   13.50
   6   0  -5  189.28   12.70
   6   0  -5  208.58   13.40
   6   0  -5  207.48   10.80
   6   0  -5  164.78   14.80
   6   0  -5  194.98   12.50
   5   0  -5  289.67   17.90
   5   0  -5  272.27   15.50
   5   0  -5  295.57   15.40
   5   0  -5  285.67   13.40
   5   0  -5  276.27   15.30
   5   0  -5  308.87   15.60
  -5   0   5  299.97   14.30
   4   0  -5  791.22   30.70
   4   0  -5  809.12   29.10
   4   0  -5  796.52   31.00
   4   0  -5  830.82   31.60
   4   0  -5  791.32   33.20
   4   0  -5  750.32   31.00
  -4   0   5  779.02   30.70
  -4   0   5  823.52   31.30
   3   0  -5 1946.01   68.09
   3   0  -5 2023.90   69.59
   3   0  -5 1983.10   67.79
   3   0  -5 1995.00   67.79
   3   0  -5 2080.99   66.39
  -3   0   5 1956.70   67.39
  -3   0   5 2060.19   68.59
  -3   0   5 2065.99   78.99
   2   0  -5 7306.87  231.38
   2   0  -5 7128.79  230.58
   2   0  -5 6714.83  237.78
   2   0  -5 7324.97  231.28
   2   0  -5 7398.66  230.58
  -2   0   5 7679.13  240.98
  -2   0   5 7814.72  232.58
  -2   0   5 7160.78  230.28
  -2   0   5 6967.50  229.58
  -2   0   5 7162.88  229.58
  -2   0   5 7499.55  231.68
   1   0  -5  449.06   17.40
   1   0  -5  438.16   18.10
   1   0  -5  446.36   17.80
   1   0  -5  460.75   17.80
   1   0  -5  463.65   17.10
   1   0  -5  424.96   16.50
   1   0  -5  401.26   21.40
  -1   0   5  423.36   17.10
  -1   0   5  431.16   17.00
  -1   0   5  436.86   23.40
  -1   0   5  433.46   16.60
  -1   0   5  447.16   18.70
  -1   0   5  421.36   18.60
   0   0  -5   16.40    3.30
   0   0  -5   13.20    2.30
   0   0  -5   14.80    3.00
   0   0  -5    9.70    4.70
   0   0  -5   11.90    3.00
   0   0  -5    9.10    2.10
   0   0  -5    7.20    3.90
   0   0  -5    9.80    2.00
   0   0   5   10.80    2.70
   0   0   5    7.90    5.30
   0   0   5   13.50    5.10
   0   0   5    9.10    2.00
   0   0   5   13.10    3.30
   0   0   5    9.40    2.00
   0   0   5   17.10    3.90
  -1   0  -5  612.84   21.70
  -1   0  -5  635.74   23.00
  -1   0  -5  634.34   24.20
  -1   0  -5  618.94   22.60
  -1   0  -5  619.44   20.00
  -1   0  -5  650.33   24.50
  -1   0  -5  668.23   25.10
  -1   0  -5  691.93   24.30
   1   0   5  598.74   22.30
   1   0   5  593.94   25.30
   1   0   5  599.34   22.50
   1   0   5  582.44   25.20
   1   0   5  606.34   21.40
  -2   0  -5  192.88    8.60
  -2   0  -5  189.58    8.70
  -2   0  -5  186.78   10.10
  -2   0  -5  186.48    8.60
   2   0   5  182.28    8.00
   2   0   5  201.58   10.30
   2   0   5  208.38    9.00
   2   0   5  196.48   11.20
   2   0   5  184.28   11.10
   2   0   5  185.68    9.20
  -3   0  -5   45.10    2.80
  -3   0  -5   42.00    2.80
  -3   0  -5   43.70    5.30
   3   0   5   46.00    5.90
   3   0   5   44.50    3.70
   3   0   5   41.60    4.30
   3   0   5   50.79    7.30
   3   0   5   38.70    3.40
   3   0   5   39.30    3.90
   3   0   5   41.30    2.90
   3   0   5   46.60    5.60
   4   0   5   90.69    8.80
   4   0   5   82.59    5.30
   4   0   5   86.29    5.40
   4   0   5   84.59    5.20
   4   0   5   80.79    4.90
   4   0   5   74.49    7.90
   4   0   5   73.29    8.00
   5   0   5    1.00    1.60
   5   0   5    3.70    2.40
   5   0   5    1.00    2.20
   5   0   5    1.00    1.70
   5   0   5    5.30    4.50
   5   0   5    4.20    4.40
   5   0   5    4.00    1.90
   5   0   5    3.40    4.00
   6   0   5  114.79    5.70
   6   0   5  106.79    5.40
   6   0   5  121.39    8.00
   6   0   5  129.59   13.00
   6   0   5  112.49    8.30
   6   0   5  117.59   12.30
   7   0   5   70.79   12.00
   7   0   5   49.00    7.40
   7   0   5   81.49    8.80
   7   0   5   68.19   12.80
   7   0   5   64.89    6.30
   7   0   5   82.69   13.20
   8   0   5  337.87   16.60
   8   0   5  361.46   24.50
   8   0   5  356.76   20.00
   8   0   5  356.06   26.10
   8   0   5  328.97   18.60
   8   0   5  343.27   22.90
   9   0   5  404.46   26.10
   9   0   5  495.45   25.50
   9   0   5  544.95   32.80
   9   0   5  564.34   35.70
   9   0   5  547.95   30.90
  10   0   5   15.40   11.30
  10   0   5   -9.10    9.00
  10   0   5   -0.60    9.00
  10  -1  -5    5.40   14.60
  10  -1  -5  -11.50    8.30
  10  -1  -5  -19.50   12.20
   9  -1  -5   61.09   11.30
   9  -1  -5  101.79   23.60
   9  -1  -5   89.59   15.60
   9  -1  -5   96.09    8.10
   8  -1  -5   16.20    9.10
   8  -1  -5   23.10    5.70
   8  -1  -5   29.30    6.00
   8  -1  -5   22.40    5.00
   7  -1  -5   45.50    7.30
   7  -1  -5   25.10    7.40
   7  -1  -5   44.30    9.90
   7  -1  -5   39.10    6.30
   7  -1  -5   47.40    7.30
   6  -1  -5   -1.10    4.20
   6  -1  -5    0.00    5.50
   6  -1  -5   -0.20    2.60
   6  -1  -5   -1.10    3.00
   6  -1  -5    3.90    2.70
   5  -1  -5  208.88   12.10
   5  -1  -5  199.18   10.70
   5  -1  -5  208.88   13.50
   5  -1  -5  203.08   12.30
   5  -1  -5  218.18   15.70
   5  -1  -5  223.58   12.40
   4  -1  -5   50.19    7.10
   4  -1  -5   42.50    4.50
   4  -1  -5   40.10    5.70
   4  -1  -5   34.10    7.10
   4  -1  -5   45.70    6.10
   4  -1  -5   48.00    6.30
  -4   1   5   50.79    5.20
   3  -1  -5    6.70    2.90
   3  -1  -5   10.40    3.40
   3  -1  -5    5.30    2.10
   3  -1  -5    5.80    3.20
   3  -1  -5    6.10    2.80
  -3   1   5    9.20    3.30
  -3   1   5    7.50    3.00
   2  -1  -5  715.03   33.60
   2  -1  -5  764.22   28.80
   2  -1  -5  795.42   29.00
   2  -1  -5  759.02   26.00
   2  -1  -5  794.62   28.30
   2  -1  -5  753.02   28.30
  -2   1   5  792.12   35.90
  -2   1   5  760.52   29.20
  -2   1   5  748.33   26.50
   1  -1  -5   10.00    2.90
   1  -1  -5   12.30    3.30
   1  -1  -5   12.30    2.40
   1  -1  -5    9.20    2.70
   1  -1  -5   11.40    5.90
   1  -1  -5   10.70    2.70
   1  -1  -5   14.30    4.80
  -1   1   5    8.50    3.00
  -1   1   5   12.30    3.40
  -1   1   5    5.50    5.80
  -1   1   5    9.10    2.60
  -1   1   5    8.30    2.70
  -1   1   5   13.50    3.30
   0  -1  -5 1483.35   54.69
   0  -1  -5 1462.15   47.90
   0  -1  -5 1373.06   47.30
   0  -1  -5 1411.06   47.00
   0  -1  -5 1484.35   50.39
   0  -1  -5 1412.46   48.40
   0   1   5 1441.56   51.89
   0   1   5 1364.16   47.50
   0   1   5 1434.26   48.50
   0   1   5 1351.66   47.70
   0   1   5 1403.06   47.20
   0   1   5 1447.16   47.50
  -1  -1  -5  811.22   28.80
  -1  -1  -5  789.82   30.20
  -1  -1  -5  784.52   28.20
  -1  -1  -5  868.61   31.70
  -1  -1  -5  768.52   27.70
  -1  -1  -5  809.82   26.70
   1   1   5  769.62   28.30
   1   1   5  822.72   30.90
   1   1   5  776.92   26.90
   1   1   5  792.32   27.90
   1   1   5  836.12   33.00
  -2  -1  -5 4851.81  154.78
  -2  -1  -5 5080.79  160.78
  -2  -1  -5 5016.40  157.48
  -2  -1  -5 5013.50  160.28
  -2  -1  -5 5076.99  156.88
  -2  -1  -5 4954.40  154.78
   2   1   5 4795.32  157.38
   2   1   5 4926.31  160.08
   2   1   5 4905.91  154.68
   2   1   5 5128.09  157.38
   2   1   5 4865.91  156.58
   2   1   5 4920.61  160.28
  -3  -1  -5 1331.17   43.30
  -3  -1  -5 1302.77   42.60
  -3  -1  -5 1241.58   50.39
  -3  -1  -5 1283.57   43.80
   3   1   5 1333.57   48.60
   3   1   5 1338.57   44.40
   3   1   5 1323.37   43.80
   3   1   5 1344.17   48.40
   3   1   5 1317.77   41.50
   3   1   5 1267.17   44.20
  -4  -1  -5  309.97   11.30
  -4  -1  -5  290.47   19.40
   4   1   5  311.67   13.50
   4   1   5  305.37   13.20
   4   1   5  319.77   11.30
   4   1   5  320.97   12.80
   4   1   5  304.17   13.10
   4   1   5  300.97   17.60
   4   1   5  316.27   18.00
   4   1   5  338.87   11.60
   5   1   5  465.05   25.60
   5   1   5  484.05   19.00
   5   1   5  467.95   17.90
   5   1   5  539.15   18.10
   5   1   5  493.65   19.20
   5   1   5  504.55   19.80
   5   1   5  516.45   19.80
   5   1   5  492.15   25.60
   6   1   5  161.48    7.90
   6   1   5  154.68    9.20
   6   1   5  146.89   15.90
   6   1   5  133.49   14.30
   6   1   5  150.48    8.70
   6   1   5  153.68    8.10
   6   1   5  147.99    9.70
   7   1   5  282.57   21.90
   7   1   5  272.77   15.10
   7   1   5  265.97   12.40
   7   1   5  268.77   12.10
   7   1   5  268.97   11.80
   7   1   5  310.07   21.40
   7   1   5  284.77   12.50
   7   1   5  266.37   15.00
   8   1   5    0.50    2.70
   8   1   5    1.10    1.30
   8   1   5   -1.70    5.60
   8   1   5    8.20    6.90
   8   1   5    3.30    1.40
   8   1   5   -4.40    6.10
   8   1   5   -0.60    2.40
   9   1   5   28.70    6.50
   9   1   5   30.70   12.40
   9   1   5   46.50   14.20
   9   1   5   22.00    9.60
  10   1   5   56.19   12.70
  10   1   5   50.99    9.20
  10   1   5   73.59   16.60
  10   1   5   86.59   16.90
  11   1   5   59.49   23.80
  11   1   5   37.60   14.40
  11   1   5   54.99   20.60
   9  -2  -5   -4.10    6.10
   9  -2  -5  -12.40   11.00
   8  -2  -5   62.99   13.20
   8  -2  -5   98.39    7.60
   8  -2  -5   58.39   11.70
   8  -2  -5   62.09    9.50
   8  -2  -5   72.29    7.80
   7  -2  -5   88.99    9.70
   7  -2  -5   78.99    7.80
   7  -2  -5   87.29    8.50
   7  -2  -5   97.49   13.50
   6  -2  -5    9.80    6.30
   6  -2  -5    9.20    4.00
   6  -2  -5   14.20    4.60
   6  -2  -5   11.90    5.50
   6  -2  -5   14.30    4.50
   5  -2  -5  206.38   13.80
   5  -2  -5  192.18   11.60
   5  -2  -5  194.18   11.80
   5  -2  -5  182.48   13.50
   4  -2  -5   28.30    6.10
   4  -2  -5   23.10    6.40
   4  -2  -5   21.50    4.90
   3  -2  -5  234.08   12.10
   3  -2  -5  250.77   12.70
   3  -2  -5  215.28   15.60
   3  -2  -5  240.68   13.80
   3  -2  -5  232.78   13.70
  -3   2   5  240.78   12.30
   2  -2  -5  683.63   26.30
   2  -2  -5  658.33   25.70
   2  -2  -5  646.24   27.00
   2  -2  -5  671.93   27.20
  -2   2   5  722.23   32.10
   1  -2  -5  645.14   25.20
   1  -2  -5  672.53   24.50
   1  -2  -5  555.94   31.90
   1  -2  -5  642.64   24.80
   1  -2  -5  632.74   26.20
   1  -2  -5  675.63   24.90
  -1   2   5  628.84   28.80
  -1   2   5  659.93   24.70
  -1   2   5  626.14   25.60
  -1   2   5  576.44   24.00
  -1   2   5  625.74   21.00
   0  -2  -5  279.07   12.40
   0  -2  -5  283.47   13.90
   0  -2  -5  272.17   12.70
   0  -2  -5  299.67   13.70
   0  -2  -5  296.57   18.10
   0  -2  -5  277.77   13.10
   0   2   5  280.27   13.00
   0   2   5  268.97   13.00
   0   2   5  277.37   14.80
   0   2   5  210.38   18.00
   0   2   5  260.97   12.80
  -1  -2  -5 2446.16   79.19
  -1  -2  -5 2422.66   80.19
  -1  -2  -5 2465.05   80.89
  -1  -2  -5 2542.05   82.39
  -1  -2  -5 2470.05   81.29
   1   2   5 2510.75   86.99
   1   2   5 2412.76   81.09
   1   2   5 2565.34   84.59
   1   2   5 2395.66   81.29
   1   2   5 2421.56   80.69
  -2  -2  -5  585.94   22.50
  -2  -2  -5  584.04   19.70
  -2  -2  -5  606.04   21.40
  -2  -2  -5  617.34   26.00
  -2  -2  -5  570.94   22.90
  -2  -2  -5  572.34   24.70
   2   2   5  588.64   21.80
   2   2   5  588.54   25.90
   2   2   5  623.14   24.80
   2   2   5  581.54   23.10
   2   2   5  576.14   23.00
  -3  -2  -5    8.80    2.20
  -3  -2  -5   12.40    4.60
  -3  -2  -5   15.30    2.70
   3   2   5    9.10    4.50
   3   2   5   13.50    4.20
   3   2   5   10.10    2.20
   3   2   5   14.60    3.60
  -4  -2  -5  256.97   11.50
  -4  -2  -5  262.77   11.40
   4   2   5  261.47   13.20
   4   2   5  260.67   12.80
   4   2   5  260.97   10.90
   4   2   5  268.77   16.40
   4   2   5  260.57   16.70
  -5  -2  -5  135.29    6.40
  -5  -2  -5  118.69    7.80
   5   2   5  124.09    6.60
   5   2   5  132.59   12.70
   5   2   5  131.49    8.90
   5   2   5  134.49   12.70
   5   2   5  127.59    8.40
   5   2   5  120.49    7.80
   6   2   5   20.00    3.10
   6   2   5   28.90    5.40
   6   2   5   34.40    5.30
   6   2   5   23.90    1.60
   6   2   5   36.00   10.30
   6   2   5   30.20    9.30
   6   2   5   21.90    5.00
   7   2   5   64.99    7.50
   7   2   5   57.29    4.70
   7   2   5   69.99    7.00
   7   2   5   75.99    3.90
   7   2   5   85.09   15.30
   7   2   5   84.39    4.10
   7   2   5   74.49    6.80
   7   2   5   71.89   13.50
   8   2   5    2.30    1.50
   8   2   5    6.90    7.70
   8   2   5    8.90    2.20
   8   2   5    6.80    3.50
   8   2   5    6.00    8.60
   8   2   5    0.60    3.40
   9   2   5   10.00    8.80
   9   2   5   -1.60    4.40
   9   2   5    0.00    2.80
   9   2   5    0.80    2.80
  10   2   5   56.89    9.60
  10   2   5   63.19   17.50
  10   2   5   59.79   13.80
  10   2   5   62.79   16.20
  11   2   5   16.50   10.80
  11   2   5    4.30   12.10
   9  -3  -5   41.60   11.20
   9  -3  -5   53.59   18.50
   9  -3  -5   40.00   13.40
   8  -3  -5  127.59   17.80
   8  -3  -5  188.48   10.10
   8  -3  -5  191.88   17.30
   8  -3  -5  154.08   15.40
   8  -3  -5  172.98    9.80
   7  -3  -5  208.58   18.40
   7  -3  -5  238.38   18.60
   7  -3  -5  205.38   12.60
   7  -3  -5  217.68   16.50
   7  -3  -5  182.68   19.20
   6  -3  -5   23.30    6.90
   6  -3  -5   16.30    7.00
   6  -3  -5   22.70    5.20
   6  -3  -5   23.00    5.10
   6  -3  -5   32.70   10.10
   5  -3  -5    5.60    3.20
   5  -3  -5    1.90    4.90
   5  -3  -5    6.10    4.40
   5  -3  -5    6.60    4.10
   4  -3  -5  255.37   13.40
   4  -3  -5  223.48   15.60
   4  -3  -5  231.28   13.30
   4  -3  -5  247.18   18.90
   3  -3  -5  370.86   19.40
   3  -3  -5  348.97   17.00
   3  -3  -5  375.56   17.80
   3  -3  -5  373.66   19.90
   3  -3  -5  374.76   19.70
  -3   3   5  370.76   16.60
   2  -3  -5   10.30    3.70
   2  -3  -5    3.20    2.70
   2  -3  -5    7.10    3.70
   2  -3  -5    7.10    3.20
   2  -3  -5    4.80    3.90
   1  -3  -5    5.00    2.90
   1  -3  -5    6.20    3.10
   1  -3  -5    4.70    2.90
   1  -3  -5    4.60    2.90
   1  -3  -5    1.20    2.40
  -1   3   5    0.70    6.00
  -1   3   5   11.80    4.80
  -1   3   5    6.80    1.00
   0  -3  -5 2016.90   67.39
   0  -3  -5 2141.49   66.89
   0  -3  -5 1965.20   67.49
   0  -3  -5 1984.70   68.19
   0  -3  -5 2009.50   67.89
   0   3   5 1733.43   76.79
   0   3   5 2052.69   67.49
   0   3   5 1889.31   65.49
   0   3   5 2038.20   68.79
  -1  -3  -5  662.23   26.80
  -1  -3  -5  670.83   26.60
  -1  -3  -5  729.33   30.80
  -1  -3  -5  677.63   26.80
  -1  -3  -5  660.93   26.10
   1   3   5  647.24   26.60
   1   3   5  641.94   26.60
   1   3   5  749.82   33.70
   1   3   5  666.13   27.40
   1   3   5  652.83   26.50
  -2  -3  -5  205.98   11.50
  -2  -3  -5  202.68   10.00
  -2  -3  -5  200.38   11.50
  -2  -3  -5  223.78   15.50
   2   3   5  211.08   14.40
   2   3   5  200.48   10.60
   2   3   5  197.98   11.50
   2   3   5  195.28   11.80
   2   3   5  194.68   11.70
  -3  -3  -5  997.30   39.20
  -3  -3  -5 1001.10   33.30
  -3  -3  -5 1030.00   37.50
  -3  -3  -5 1034.90   33.40
   3   3   5 1023.80   38.00
   3   3   5 1007.20   41.80
   3   3   5 1034.30   36.00
   3   3   5 1027.50   40.20
   3   3   5 1026.80   38.80
  -4  -3  -5  915.61   34.80
  -4  -3  -5  914.31   31.40
  -4  -3  -5  941.21   33.40
   4   3   5  936.31   40.30
   4   3   5  930.31   32.30
   4   3   5  907.51   38.70
   4   3   5  931.31   36.00
   4   3   5  889.01   35.00
  -5  -3  -5   17.70    3.80
   5   3   5   22.40    6.90
   5   3   5   16.20    4.50
   5   3   5   16.50    2.60
   5   3   5   22.50    5.20
   5   3   5   14.70    7.30
  -6  -3  -5   46.80    4.40
   6   3   5   47.30    7.20
   6   3   5   41.50   11.70
   6   3   5   42.90    3.50
   6   3   5   43.60   10.60
   6   3   5   49.50    8.00
   7   3   5  154.18   17.40
   7   3   5  175.68   11.90
   7   3   5  194.28   12.80
   7   3   5  136.89   15.80
   8   3   5   12.40    8.30
   8   3   5    7.10    7.90
   8   3   5    3.90    3.70
   8   3   5   22.20    5.20
   9   3   5   54.09   16.30
   9   3   5   30.70    6.40
   9   3   5   41.70   10.70
  10   3   5  140.29   23.20
  10   3   5  137.89   20.60
  10   3   5  128.89    9.80
  10   3   5  131.79   10.50
  11   3   5  142.99   24.80
   8  -4  -5   34.70    9.20
   8  -4  -5   33.10   10.60
   8  -4  -5   36.10   10.40
   7  -4  -5  193.18   11.70
   7  -4  -5  182.08   18.60
   7  -4  -5  216.18   18.10
   7  -4  -5  181.98   17.40
   6  -4  -5   31.60    6.30
   6  -4  -5   28.40    6.10
   6  -4  -5   30.90    8.90
   6  -4  -5   27.50    7.90
   5  -4  -5    1.20    3.50
   5  -4  -5   11.00    4.60
   5  -4  -5    6.00    5.50
   5  -4  -5    3.30    5.00
   4  -4  -5   44.10    8.90
   4  -4  -5   42.80    7.10
   4  -4  -5   46.70    7.10
   4  -4  -5   37.00    8.20
   4  -4  -5   59.59   10.80
   3  -4  -5   14.70    4.50
   3  -4  -5   16.60    5.90
   3  -4  -5   16.20    4.20
   3  -4  -5   13.80    5.60
   3  -4  -5   17.00    5.10
  -3   4   5   21.60    3.80
   2  -4  -5   10.20    3.90
   2  -4  -5    1.00    3.80
   2  -4  -5    6.80    3.00
   2  -4  -5    7.90    4.60
   2  -4  -5    9.60    4.80
  -2   4   5   14.20    3.90
   1  -4  -5  122.49    7.20
   1  -4  -5  108.69    9.10
   1  -4  -5  100.39    9.70
   1  -4  -5  112.09    9.30
  -1   4   5  106.59    9.30
  -1   4   5   84.99   17.40
  -1   4   5  144.19    9.40
  -1   4   5  123.39    5.90
   0  -4  -5  172.68   11.80
   0  -4  -5  178.88    9.50
   0  -4  -5  166.08   11.40
   0  -4  -5  159.68   11.10
   0   4   5  172.48   10.80
   0   4   5  181.28   11.20
   0   4   5  165.58    9.60
   0   4   5  148.19   16.70
  -1  -4  -5    9.50    4.00
  -1  -4  -5   13.60    4.60
  -1  -4  -5    6.60    3.20
   1   4   5    8.90    6.90
   1   4   5   11.80    3.90
   1   4   5   14.30    4.30
  -2  -4  -5 1143.29   43.80
  -2  -4  -5 1161.88   42.00
  -2  -4  -5 1167.18   43.70
   2   4   5 1148.39   43.30
   2   4   5 1143.29   44.30
   2   4   5 1129.29   44.70
   2   4   5 1187.28   48.40
   2   4   5 1178.28   43.10
  -3  -4  -5   70.59    4.90
  -3  -4  -5   70.69    5.70
  -3  -4  -5   73.79    7.70
   3   4   5   78.39    9.70
   3   4   5   62.99    7.10
   3   4   5   68.29    7.70
   3   4   5   63.99    6.10
   3   4   5   68.39    7.40
  -4  -4  -5  271.17   11.40
  -4  -4  -5  258.37    9.80
  -4  -4  -5  251.57   14.30
   4   4   5  252.67   16.70
   4   4   5  251.97   14.90
   4   4   5  246.68   18.00
   4   4   5  247.58   13.60
   4   4   5  249.58   15.20
  -5  -4  -5  174.58   11.30
  -5  -4  -5  179.38    8.10
   5   4   5  183.08   16.30
   5   4   5  185.38   15.30
   5   4   5  173.28   13.00
   5   4   5  166.58    9.00
   5   4   5  182.88   12.70
  -6  -4  -5    8.80    2.90
   6   4   5    3.70    4.10
   6   4   5   -0.30    1.40
   6   4   5    8.60    4.50
   6   4   5    1.90    5.80
   6   4   5    4.40    5.80
  -7  -4  -5   -2.90    2.20
   7   4   5   -5.70    5.90
   7   4   5    3.20    4.20
   7   4   5   -4.90    3.40
   7   4   5   -5.70    5.00
   8   4   5    4.10    7.60
   8   4   5   -2.80    7.30
   8   4   5    1.60    3.90
   8   4   5    8.20    4.50
   9   4   5   89.39   18.10
   9   4   5   77.79   31.60
   9   4   5   73.79   10.50
  10   4   5  140.69   25.30
  10   4   5  146.89   12.30
  10   4   5  171.58   20.90
  11   4   5    0.80   12.70
  11   4   5    8.20    4.90
   8  -5  -5    6.80    7.80
   7  -5  -5    6.40    7.40
   7  -5  -5    5.20    4.00
   6  -5  -5   48.70   11.10
   6  -5  -5   42.50    7.20
   6  -5  -5   44.00   11.00
   5  -5  -5   81.09    9.10
   5  -5  -5   78.69   13.20
   5  -5  -5   85.69   11.10
   5  -5  -5   88.59   14.40
   4  -5  -5  200.98   17.40
   4  -5  -5  210.68   13.90
   4  -5  -5  213.48   14.80
   4  -5  -5  214.78   17.80
   3  -5  -5  576.04   26.30
   3  -5  -5  611.64   31.50
   3  -5  -5  567.04   27.20
   3  -5  -5  592.04   30.20
  -3   5   5  558.24   23.90
   2  -5  -5  202.78   14.00
   2  -5  -5  214.68   15.90
   2  -5  -5  234.98   15.10
   2  -5  -5  223.88   17.00
  -2   5   5  240.38   13.50
   1  -5  -5   -2.40    2.70
   1  -5  -5   -1.30    3.50
   1  -5  -5    0.80    3.50
  -1   5   5    5.70    3.70
  -1   5   5    2.10    2.00
  -1   5   5    0.90    2.40
  -1   5   5   -7.90    6.80
   0  -5  -5  260.17   16.40
   0  -5  -5  237.98   15.10
   0  -5  -5  241.98   15.40
   0   5   5  172.78   20.20
   0   5   5  253.37   14.30
   0   5   5  231.88   13.20
   0   5   5  247.98   13.30
  -1  -5  -5   43.40    7.90
  -1  -5  -5   33.80    6.50
  -1  -5  -5   39.80    7.30
   1   5   5   53.49   13.50
   1   5   5   45.40    6.50
   1   5   5   39.40    6.70
   1   5   5   45.50    7.70
  -2  -5  -5  194.08   13.60
  -2  -5  -5  194.98   12.30
   2   5   5  187.18   11.60
   2   5   5  169.08   12.40
   2   5   5  190.08   16.90
  -3  -5  -5  140.19    9.50
  -3  -5  -5  138.39    8.50
  -3  -5  -5  139.89   11.50
   3   5   5  123.89   10.70
   3   5   5  149.19   14.30
   3   5   5  125.19   10.90
  -4  -5  -5  169.28    9.40
  -4  -5  -5  163.68    9.40
   4   5   5  172.18   12.80
   4   5   5  161.88   15.40
   4   5   5  158.38   12.90
   4   5   5  150.58   10.10
   4   5   5  174.98   13.70
  -5  -5  -5   65.29    5.10
  -5  -5  -5   70.89    4.60
  -5  -5  -5   80.69    8.60
   5   5   5   76.79   10.70
   5   5   5   67.19   10.30
   5   5   5   65.39   11.80
   5   5   5   64.79   12.70
   5   5   5   76.39    6.80
  -6  -5  -5   -2.30    1.10
  -6  -5  -5    2.00    1.50
  -6  -5  -5   -2.00    2.70
   6   5   5    3.10    6.70
   6   5   5   -1.30    2.90
   6   5   5   -3.00    5.00
   6   5   5    2.70    5.10
  -7  -5  -5  555.94   25.10
   7   5   5  565.64   29.30
   7   5   5  496.65   32.10
   7   5   5  579.24   35.90
   7   5   5  603.14   28.70
   8   5   5  668.03   41.30
   8   5   5  707.43   39.90
   8   5   5  556.84   34.30
   8   5   5  665.53   31.70
   9   5   5  156.18   19.90
   9   5   5  172.48   15.10
   9   5   5  171.88   23.30
  10   5   5    9.80   11.60
  10   5   5   -1.50    8.60
  10   5   5    6.00    5.30
  11   5   5  107.19   24.30
   7  -6  -5   -8.70   10.40
   6  -6  -5   13.80    5.70
   6  -6  -5   19.60    9.40
   5  -6  -5   13.70    5.50
   5  -6  -5    7.20    7.90
   5  -6  -5   -1.30    6.70
   4  -6  -5    7.80    7.80
   4  -6  -5    4.70    4.80
   4  -6  -5   10.40    6.90
   3  -6  -5   68.59   12.10
   3  -6  -5   46.30   10.60
   3  -6  -5   61.59    9.90
   3  -6  -5   46.00    8.40
   2  -6  -5  145.29   14.00
   2  -6  -5  131.79   12.40
   2  -6  -5  132.39   14.50
   2  -6  -5  145.49   12.50
  -2   6   5  116.79   10.50
   1  -6  -5    0.10    3.70
   1  -6  -5   -1.10    3.70
   1  -6  -5    3.80    3.20
  -1   6   5   -7.90    7.50
  -1   6   5    7.00    3.10
   0  -6  -5  104.79   11.70
   0  -6  -5   97.59   10.10
   0  -6  -5  119.29   11.90
   0   6   5  117.19   10.10
   0   6   5  121.49    9.10
   0   6   5  109.59    7.30
   0   6   5  110.19   21.20
  -1  -6  -5   55.79    9.20
  -1  -6  -5   40.90    8.00
  -1  -6  -5   40.90    8.70
   1   6   5   40.20   14.00
  -2  -6  -5  381.66   22.40
  -2  -6  -5  415.06   21.50
   2   6   5  402.26   21.60
   2   6   5  387.56   27.30
   2   6   5  383.16   18.80
  -3  -6  -5   -3.50    3.90
  -3  -6  -5    0.90    2.80
   3   6   5   -4.20    4.00
   3   6   5   -3.90    3.40
   3   6   5    3.30    6.70
  -4  -6  -5  158.48   13.50
  -4  -6  -5  145.59   10.20
   4   6   5  155.28   13.10
   4   6   5  139.59   15.60
   4   6   5  141.79   13.10
  -5  -6  -5   53.39    5.60
  -5  -6  -5   55.79    5.70
  -5  -6  -5   66.29   10.40
   5   6   5   61.19   10.40
   5   6   5   68.59   14.00
   5   6   5   48.20   10.60
  -6  -6  -5   10.70    2.50
  -6  -6  -5    8.70    4.90
   6   6   5   15.90    7.30
   6   6   5    8.40    6.70
   6   6   5   25.00    6.80
   6   6   5   15.80    8.40
  -7  -6  -5   39.90    7.20
  -7  -6  -5   27.70    3.30
   7   6   5   42.00    9.60
   7   6   5   37.40   12.80
   7   6   5   43.90   11.80
   8   6   5  111.79   21.20
   8   6   5   92.09   14.00
   8   6   5  122.39   20.40
   9   6   5   94.69   20.20
   9   6   5   84.49   13.10
   9   6   5   84.99   18.60
  10   6   5   16.50   13.30
  10   6   5   35.60    9.80
  10   6   5   10.50    9.90
  11   6   5   60.99   11.40
  11   6   5   64.79   19.60
  11   6   5   64.99   18.40
   5  -7  -5    2.60    6.50
   5  -7  -5   -8.60    6.80
   4  -7  -5    9.60    6.00
   4  -7  -5   10.40    7.50
   4  -7  -5    1.30    6.70
   3  -7  -5  185.48   18.20
   3  -7  -5  194.68   15.60
   3  -7  -5  254.47   21.40
   2  -7  -5   85.99   15.00
   2  -7  -5  102.49   17.40
   2  -7  -5  111.89   17.70
   1  -7  -5  346.47   21.80
   1  -7  -5  375.76   24.80
   1  -7  -5  342.67   31.10
  -1   7   5  291.67   22.60
   0  -7  -5   35.50    9.20
   0  -7  -5   55.49   10.00
   0  -7  -5   45.10   10.00
   0   7   5   43.90    8.20
   0   7   5   36.80   14.00
  -1  -7  -5   46.20   10.20
  -1  -7  -5   49.99   10.00
   1   7   5   47.10    8.80
   1   7   5   53.99   15.20
   1   7   5   55.49    5.90
  -2  -7  -5  384.76   23.70
  -2  -7  -5  400.66   23.00
   2   7   5  376.86   18.60
   2   7   5  383.36   22.20
   2   7   5  386.46   29.60
  -3  -7  -5   33.90    9.20
  -3  -7  -5   25.20    6.80
   3   7   5   13.50    9.20
   3   7   5   24.60    7.10
   3   7   5   16.90    6.20
  -4  -7  -5   44.40    7.60
  -4  -7  -5   45.00   10.40
   4   7   5   51.89   10.20
   4   7   5   61.29   14.30
   4   7   5   68.89   11.60
  -5  -7  -5    3.90    2.90
  -5  -7  -5    6.00    5.30
   5   7   5   -6.00    4.50
   5   7   5    4.60    5.20
   5   7   5    9.80    8.40
  -6  -7  -5    0.40    2.40
  -6  -7  -5    5.90    6.20
   6   7   5    4.20    7.80
   6   7   5    4.00    6.70
   6   7   5    0.70    5.50
  -7  -7  -5   16.80    2.60
  -7  -7  -5   23.80    7.40
   7   7   5   28.00   12.10
   7   7   5   34.30   11.20
   7   7   5   26.90    9.40
   8   7   5   78.99   19.40
   9   7   5  220.28   26.00
   9   7   5  207.98   19.20
   9   7   5  243.98   24.90
  10   7   5   20.60   12.40
  10   7   5    1.80    8.40
  10   7   5    5.10    7.90
  11   7   5   39.40   16.30
  11   7   5    8.60    6.80
  11   7   5   11.00   11.90
   4  -8  -5  -16.40    5.30
   4  -8  -5    0.40    5.40
   4  -8  -5    7.00    7.60
   3  -8  -5    8.60    7.00
   3  -8  -5   16.10    8.30
   3  -8  -5   23.00    6.70
   2  -8  -5   -1.90    5.70
   2  -8  -5    2.00    6.80
   2  -8  -5   -0.20    6.70
   1  -8  -5   63.09   12.10
   1  -8  -5   46.50   11.60
   0  -8  -5   15.70    7.40
   0  -8  -5   16.90    8.20
   0   8   5   24.50   12.80
   0   8   5   -6.40    7.20
  -1  -8  -5    1.30    6.30
  -1  -8  -5    1.30    4.80
   1   8   5   17.20   11.10
   1   8   5    0.90    5.20
  -2  -8  -5   14.00    5.90
  -2  -8  -5    3.30    5.80
   2   8   5   -3.30    3.60
   2   8   5    5.40    9.60
   2   8   5   -5.10    5.10
  -3  -8  -5  430.36   24.90
  -3  -8  -5  448.26   27.50
   3   8   5  432.26   25.70
   3   8   5  432.66   22.00
   3   8   5  436.16   33.20
  -4  -8  -5  209.08   15.50
  -4  -8  -5  202.58   18.50
   4   8   5  202.68   15.60
   4   8   5  224.68   23.30
  -5  -8  -5   15.50    7.40
  -5  -8  -5   -3.20    6.60
   5   8   5    5.40    6.30
   5   8   5    5.50    6.80
   5   8   5    8.50   10.20
  -6  -8  -5   81.29   14.00
  -6  -8  -5   79.29    8.00
   6   8   5   89.09   15.00
   6   8   5   92.49   15.10
   6   8   5   80.99   17.50
  -7  -8  -5   -6.20    2.40
  -7  -8  -5    5.90    6.90
   7   8   5    3.30    7.10
   7   8   5   14.90    8.90
   8   8   5    5.40   10.50
   8   8   5   10.00    9.80
   8   8   5    8.60    7.40
   9   8   5   18.40    8.60
   9   8   5    1.60   11.60
   9   8   5    2.70    8.20
  10   8   5   15.70   10.30
  10   8   5    9.40    9.30
  10   8   5   -6.00   15.40
   3  -9  -5   -4.50    8.40
   3  -9  -5    4.00    7.90
   3  -9  -5   18.70    6.90
   2  -9  -5   31.20    8.90
   2  -9  -5   18.50    8.20
   2  -9  -5    8.60    7.10
   1  -9  -5    4.70    7.70
   1  -9  -5    7.00    7.40
   0  -9  -5   -4.70    6.30
   0  -9  -5    6.40    6.30
   0   9   5   17.50   13.10
  -1  -9  -5   36.60   11.60
  -1  -9  -5   45.10   12.00
   1   9   5   40.60   16.60
  -2  -9  -5  146.39   18.40
  -2  -9  -5  142.99   16.80
   2   9   5  116.89   23.90
   2   9   5  130.09   16.40
  -3  -9  -5    5.30    8.00
  -3  -9  -5    7.70    6.00
   3   9   5   -0.90    6.30
   3   9   5    3.20   12.00
   3   9   5    5.30    5.20
  -4  -9  -5  143.39   19.20
  -4  -9  -5  114.59   14.80
   4   9   5  117.69   16.40
   4   9   5  133.59   24.20
  -5  -9  -5   43.30   11.10
  -5  -9  -5   36.20    7.90
   5   9   5   43.50   10.70
   5   9   5   55.59   17.80
   5   9   5   56.29   12.30
  -6  -9  -5   27.70    6.00
  -6  -9  -5   19.90    8.50
   6   9   5   26.70   10.00
   6   9   5   29.10   10.30
  -7  -9  -5  -10.10    3.60
  -7  -9  -5   11.40    8.30
   7   9   5    2.00    8.60
   7   9   5   -6.60    9.50
   8   9   5   49.00   16.60
   8   9   5   53.49   13.40
   8   9   5   35.00   11.90
   9   9   5  269.57   29.80
   9   9   5  262.77   25.80
   9   9   5  221.08   21.40
  10   9   5   12.90   11.60
  10   9   5   17.10   10.00
  10   9   5    4.60   12.30
   1 -10  -5    9.70    7.10
   1 -10  -5    4.30    8.10
   1 -10  -5    4.00    7.10
   0 -10  -5   21.80    9.40
   0 -10  -5   42.50   11.00
  -1 -10  -5   -5.60    6.70
  -1 -10  -5   16.40    7.20
   1  10   5   33.00   14.80
  -2 -10  -5    6.00    8.20
  -2 -10  -5   17.10    8.20
   2  10   5   29.70   14.90
  -3 -10  -5   64.49   12.90
  -3 -10  -5   87.49   16.70
   3  10   5   69.59   19.70
   3  10   5   80.89   13.80
  -4 -10  -5    6.60    8.70
   4  10   5  -11.50    6.90
  -5 -10  -5  175.68   16.40
  -5 -10  -5  193.38   20.70
   5  10   5  187.68   16.90
   5  10   5  210.58   19.40
   5  10   5  181.88   27.40
  -6 -10  -5   51.89   11.90
  -6 -10  -5   32.40    8.20
   6  10   5   35.80   11.70
   6  10   5   60.29   14.00
   6  10   5   49.40   18.50
  -7 -10  -5   44.30   12.30
   7  10   5   47.40   13.70
   7  10   5   18.30   11.50
   7  10   5   23.60   14.10
   8  10   5    5.80   13.70
   8  10   5   20.10   12.50
   8  10   5   20.00   10.70
   9  10   5   59.89   20.20
   9  10   5   34.90   15.00
  -1 -11  -5   19.90    8.80
  -1 -11  -5   24.50   10.40
  -2 -11  -5   22.40   12.00
   2  11   5   75.39   20.50
  -3 -11  -5   12.20    8.60
  -3 -11  -5   -4.90    5.40
   3  11   5   52.19   17.00
  -4 -11  -5   66.19   13.70
  -4 -11  -5   68.39   14.20
   4  11   5   84.69   24.00
  -5 -11  -5  116.39   18.50
  -5 -11  -5   93.29   14.90
   5  11   5  154.18   20.80
   5  11   5   88.99   23.80
  -6 -11  -5   34.20   11.60
  -6 -11  -5   12.00    8.20
   6  11   5    9.30   14.50
   6  11   5   16.10   11.00
   7  11   5    4.70   12.00
   7  11   5   -3.20    8.60
   7  11   5   13.70   15.30
   8  11   5   29.50   14.10
   8  11   5   37.60   18.00
   9  11   5    9.70   14.60
  -4 -12  -5   77.09   15.60
  -4 -12  -5  101.99   17.80
   4  12   5  108.39   26.90
  -6 -12  -5   41.10   13.60
   6  12   5  -23.20   17.10
   7  12   5  -60.49   22.00
  -5 -11   6   55.79   17.40
  -4 -11   6   25.10   19.50
  -4 -11   6  -22.00   10.50
   8  10  -6   26.30   16.20
   8  10  -6   41.90   16.10
   7  10  -6  -20.50   11.80
   7  10  -6  -11.90   10.90
   6  10  -6   -6.30   13.60
   6  10  -6   45.50   14.40
  -6 -10   6   57.79   16.40
  -6 -10   6   13.20   13.50
  -5 -10   6   24.10   12.20
  -5 -10   6    3.50   10.90
  -5 -10   6   44.50   16.50
  -4 -10   6   26.50   11.20
  -4 -10   6   42.90   14.70
  -3 -10   6   15.20   10.10
  -3 -10   6   -1.10    9.30
  -3 -10   6    2.80   12.20
  -2 -10   6   33.50   14.00
  -2 -10   6   26.10   10.50
  -1 -10   6    6.50    9.20
  -1 -10   6    3.90    9.10
   0 -10   6   77.19   23.70
   9   9  -6   30.80   16.80
   9   9  -6   39.70   13.30
   8   9  -6   33.80   15.20
   8   9  -6   54.69   14.10
  -8  -9   6   79.09   20.40
   7   9  -6   10.40    9.90
   7   9  -6   -5.70   10.80
  -7  -9   6   12.70   21.10
   6   9  -6   57.09   16.70
   6   9  -6   70.09   16.20
  -6  -9   6   60.59   12.70
  -6  -9   6   72.59   17.80
  -6  -9   6   91.39   21.00
   5   9  -6    7.50    8.50
   5   9  -6   -4.70    7.80
  -5  -9   6  -11.90   10.30
  -5  -9   6   -3.20    9.40
  -5  -9   6    2.00    6.60
   4   9  -6   15.20   10.10
   4   9  -6   -1.10    8.60
  -4  -9   6   14.30   13.80
  -4  -9   6   -5.90    9.20
  -3  -9   6    0.10    6.90
  -3  -9   6   -4.70    8.60
  -3  -9   6    8.70   12.20
  -2  -9   6   98.59   21.10
  -2  -9   6   85.09   16.70
  -2  -9   6   79.29   17.20
  -1  -9   6    2.60    6.80
  -1  -9   6    8.20   12.30
  -1  -9   6   -6.20    7.00
   0  -9   6   13.40    9.10
   0  -9   6    2.80    7.60
   0  -9   6   -9.40   10.20
   1  -9   6   46.20   15.20
   1  -9   6   32.70   13.90
   1  -9   6   17.00   10.10
   2  -9   6   -4.30   11.80
   9   8  -6   49.80   16.30
   9   8  -6   42.40    9.50
   8   8  -6    7.00    9.20
   8   8  -6    5.70   11.40
   8   8  -6   17.00    8.10
  -8  -8   6   29.50   13.40
   7   8  -6   87.39   13.90
   7   8  -6  129.89   19.90
   7   8  -6   95.59   20.60
  -7  -8   6  133.39   19.80
  -7  -8   6   78.89   20.50
   6   8  -6  363.56   28.40
   6   8  -6  331.07   28.10
  -6  -8   6  346.17   21.40
  -6  -8   6  360.86   29.30
  -6  -8   6  378.66   35.40
   5   8  -6   77.99   14.50
   5   8  -6   68.79   14.70
  -5  -8   6   50.89   13.30
  -5  -8   6   88.79   19.90
  -5  -8   6   80.39   12.70
   4   8  -6   11.20    7.80
   4   8  -6   13.50    8.50
  -4  -8   6   19.00   10.90
  -4  -8   6   34.80   15.10
  -4  -8   6    1.50    6.10
   3   8  -6  195.48   18.20
   3   8  -6  202.38   16.60
  -3  -8   6  208.08   22.20
  -3  -8   6  231.38   26.20
  -3  -8   6  203.18   20.00
   2   8  -6   35.40    9.00
   2   8  -6   33.00    9.00
  -2  -8   6   26.70   11.50
  -2  -8   6   24.60    9.60
  -1  -8   6   -3.40    6.80
  -1  -8   6   -5.60    6.30
   0  -8   6  293.27   34.00
   0  -8   6  301.57   26.90
   0  -8   6  333.27   26.60
   1  -8   6   26.70   11.60
   1  -8   6    8.50    7.20
   1  -8   6   23.60   11.30
   2  -8   6   93.09   18.20
   2  -8   6   98.09   19.60
   2  -8   6   90.19   14.70
   3  -8   6   16.80    7.80
   3  -8   6   -4.60    7.30
   3  -8   6   -6.70   11.10
  10   7  -6   12.30   10.60
  10   7  -6   25.70   12.90
  10   7  -6   32.70    8.00
   9   7  -6   35.70   14.00
   9   7  -6   37.10   12.10
   9   7  -6   37.20    8.70
   8   7  -6   52.09   15.00
   8   7  -6   54.89   10.40
   8   7  -6   54.99   16.10
  -8  -7   6   68.79   19.70
   7   7  -6    9.40    6.60
   7   7  -6   -2.40    7.00
  -7  -7   6   10.30    8.80
  -7  -7   6    7.60   11.60
   6   7  -6   12.40    8.70
   6   7  -6   21.20    8.20
   6   7  -6   20.10   10.60
  -6  -7   6   20.30    6.20
  -6  -7   6   10.40    9.00
  -6  -7   6   21.80   13.60
   5   7  -6    0.90    7.00
   5   7  -6   -0.20    4.90
  -5  -7   6    4.00    8.60
  -5  -7   6   -2.70    6.20
  -5  -7   6   -4.40    4.50
   4   7  -6    5.20    7.10
   4   7  -6    1.50    6.30
   4   7  -6    4.20    7.10
  -4  -7   6    6.20    8.80
  -4  -7   6  -15.70    6.20
   3   7  -6    4.80    5.80
   3   7  -6    1.50    5.80
  -3  -7   6    5.60    6.80
  -3  -7   6    3.20    8.80
   2   7  -6  134.49   13.90
   2   7  -6  111.79   10.90
  -2  -7   6  173.08   25.30
  -2  -7   6  139.79   19.40
   1   7  -6  156.08   14.30
  -1  -7   6  167.38   20.40
  -1  -7   6  161.48   17.90
   0   7  -6  199.68   16.20
   0  -7   6  212.18   19.70
   0  -7   6  182.38   22.80
   0  -7   6  209.68   20.70
   1  -7   6    0.70    7.40
   1  -7   6    8.60    8.10
   1  -7   6   13.20    9.20
   2  -7   6   12.60    8.10
   2  -7   6    6.50    9.00
   2  -7   6   13.30    9.30
   3  -7   6   17.50    7.50
   3  -7   6   19.10   12.00
   4  -7   6   36.30   14.00
   4  -7   6   27.50   11.90
   4  -7   6   30.10    7.40
   5  -7   6   10.20    4.90
   5  -7   6    0.10   10.60
  10   6  -6  138.89   20.80
  10   6  -6  151.68   14.30
  10   6  -6  101.29   24.00
   9   6  -6   77.49   11.70
   9   6  -6   97.09   23.20
   9   6  -6  100.79   17.00
   8   6  -6   36.10   14.10
   8   6  -6   24.10   10.90
   8   6  -6   34.30    8.30
   7   6  -6    2.40    7.80
   7   6  -6   -0.70    4.80
   7   6  -6   -3.30    6.70
  -7  -6   6    2.10    6.70
  -7  -6   6   16.00   11.10
   6   6  -6   26.80    8.00
   6   6  -6   29.30   12.10
   6   6  -6   22.10    8.80
  -6  -6   6   44.40   15.30
  -6  -6   6   10.40    4.50
  -6  -6   6   25.10    9.70
   5   6  -6  248.78   21.60
   5   6  -6  247.08   19.90
   5   6  -6  243.28   17.40
  -5  -6   6  258.47   21.30
  -5  -6   6  268.07   25.70
   4   6  -6   11.50    7.50
   4   6  -6   17.00    6.70
   4   6  -6   12.50    7.70
  -4  -6   6    9.80   10.30
  -4  -6   6   22.50    9.00
   3   6  -6   69.79   12.40
   3   6  -6   73.69   11.60
   3   6  -6   60.89   10.80
  -3  -6   6   67.49   13.30
  -3  -6   6   89.59   17.60
   2   6  -6    4.60    5.10
   2   6  -6    9.80    4.70
  -2  -6   6    6.80    8.90
  -2  -6   6    4.90    6.00
   1   6  -6  115.59    9.20
   1   6  -6  122.69   12.50
  -1  -6   6  115.49   15.90
  -1  -6   6  126.79   20.50
   0   6  -6   -2.70    4.20
   0   6  -6    9.20    5.40
   0  -6   6   12.60    6.90
   0  -6   6    7.10    7.10
  -1   6  -6   95.19    9.50
   1  -6   6   75.39   12.80
   1  -6   6   74.59   11.20
   1  -6   6   90.79   17.90
   2  -6   6  106.09   15.10
   2  -6   6   74.29   15.00
   2  -6   6   92.99   16.70
   3  -6   6    8.60    8.20
   3  -6   6    1.20    9.10
   3  -6   6    7.80    6.30
   4  -6   6   28.70   11.30
   4  -6   6   15.10    6.40
   4  -6   6    0.30    7.80
   5  -6   6   25.30   10.50
   5  -6   6   41.10   12.40
   5  -6   6   32.70    6.40
   6  -6   6   73.79   15.30
  10   5  -6  147.89   13.80
  10   5  -6  123.79   27.30
  10   5  -6  126.79   18.70
   9   5  -6   81.99   22.30
   9   5  -6   63.09   13.00
   9   5  -6   73.79   14.50
   8   5  -6   59.99   17.80
   8   5  -6   71.39   13.10
   8   5  -6  108.79   11.40
   8   5  -6   87.19   15.50
   7   5  -6    3.90    4.70
   7   5  -6    5.80    6.40
   7   5  -6  -10.20    5.80
   7   5  -6    6.40    6.40
  -7  -5   6    5.20    6.90
  -7  -5   6    9.80    8.80
   6   5  -6  257.37   16.60
   6   5  -6  261.37   24.00
   6   5  -6  266.07   20.30
  -6  -5   6  243.58   12.40
  -6  -5   6  277.87   24.50
  -6  -5   6  285.47   21.00
   5   5  -6    1.40    4.10
   5   5  -6    4.20    5.90
   5   5  -6    4.50    6.50
  -5  -5   6    9.40    8.60
  -5  -5   6    4.50    5.00
   4   5  -6    9.70    6.10
   4   5  -6    0.90    5.80
   4   5  -6    0.80    4.30
  -4  -5   6   -6.00    4.50
  -4  -5   6    4.20    7.30
   3   5  -6   32.30    8.60
   3   5  -6   25.30    7.80
   3   5  -6   31.50    7.10
  -3  -5   6   27.60   10.50
  -3  -5   6   31.70    9.60
   2   5  -6  100.99    9.70
   2   5  -6  100.29   11.50
   2   5  -6   98.39   10.50
  -2  -5   6  109.39   15.10
  -2  -5   6  104.29   17.40
   1   5  -6  457.45   24.00
   1   5  -6  456.35   19.40
  -1  -5   6  419.36   28.60
  -1  -5   6  431.06   23.00
  -1  -5   6  450.45   29.70
   0   5  -6  126.29   11.30
   0   5  -6  130.99   10.60
   0  -5   6  137.69   11.60
   0  -5   6  132.59   13.90
   0  -5   6  124.49   18.60
  -1   5  -6  191.78   16.70
   1  -5   6  162.28   14.60
   1  -5   6  143.39   12.10
   1  -5   6  162.18   12.60
   1  -5   6  165.38   17.20
  -2   5  -6   19.40    4.90
   2  -5   6   20.90    7.30
   2  -5   6   22.50    5.80
   2  -5   6   27.60   10.50
   3  -5   6   98.79   16.20
   3  -5   6   84.79   12.20
   3  -5   6   82.29    8.90
   4  -5   6    2.60    3.80
   4  -5   6   15.30   13.50
   4  -5   6   15.70    8.80
   4  -5   6   14.50    6.40
   5  -5   6   54.79   13.90
   5  -5   6   70.89    7.40
   5  -5   6   63.99   13.90
   5  -5   6   61.79    8.70
   6  -5   6  102.69    6.40
   6  -5   6   83.69    6.20
   6  -5   6   62.69   14.60
   6  -5   6   91.19   16.30
   7  -5   6   32.90    9.70
   7  -5   6   20.80   10.60
  10   4  -6    7.30    6.80
  10   4  -6   12.90   10.60
   9   4  -6    0.80    5.10
   9   4  -6   10.40    8.80
   9   4  -6   -7.00    5.50
   9   4  -6    5.30   10.40
   8   4  -6   22.20   13.20
   8   4  -6   17.90    8.40
   8   4  -6   14.00    7.90
   8   4  -6   23.70    7.40
   7   4  -6  159.18   12.80
   7   4  -6  161.68   21.20
   7   4  -6  156.48   15.40
   7   4  -6  160.68   16.00
  -7  -4   6  139.59   16.80
  -7  -4   6  174.78   15.30
   6   4  -6   23.00    6.10
   6   4  -6   21.50    7.90
   6   4  -6   17.70    6.70
   6   4  -6   19.50    6.00
   6   4  -6   19.80   10.20
  -6  -4   6   14.70    3.00
  -6  -4   6   32.50   10.70
  -6  -4   6   43.60    8.90
   5   4  -6   17.80    8.50
   5   4  -6   15.00    5.30
   5   4  -6   28.20    8.00
   5   4  -6   13.60    5.70
  -5  -4   6    4.40    2.20
  -5  -4   6   25.60    9.90
  -5  -4   6   11.30    6.60
   4   4  -6  418.26   23.40
   4   4  -6  439.56   26.80
   4   4  -6  383.86   23.80
   4   4  -6  397.86   20.40
  -4  -4   6  464.85   25.70
   3   4  -6  377.06   21.50
   3   4  -6  386.76   19.70
   3   4  -6  404.66   23.40
  -3  -4   6  384.96   23.40
  -3  -4   6  386.36   25.60
   2   4  -6  496.75   24.50
   2   4  -6  469.15   22.60
   2   4  -6  483.65   23.80
  -2  -4   6  490.95   26.10
  -2  -4   6  436.86   27.90
   1   4  -6  279.87   16.70
   1   4  -6  310.27   18.00
   1   4  -6  304.57   14.80
  -1  -4   6  273.17   16.30
  -1  -4   6  287.97   21.40
  -1  -4   6  329.97   22.30
  -1  -4   6  313.17   19.40
   0   4  -6   -0.10    4.10
   0   4  -6    6.80    3.70
   0  -4   6   12.10    4.20
   0  -4   6    5.40    5.70
   0  -4   6    5.00    5.50
   0  -4   6    7.20    7.40
  -1   4  -6   84.09    7.50
   1  -4   6   87.99   10.30
   1  -4   6  103.69   12.80
   1  -4   6   82.09   10.30
   1  -4   6  102.09    9.00
  -2   4  -6   85.19    7.00
   2  -4   6   81.99    8.20
   2  -4   6   85.89   10.20
   2  -4   6   99.39   15.40
   2  -4   6   82.89    9.40
   3  -4   6   71.29    8.00
   3  -4   6   63.39    9.80
   3  -4   6   70.29   13.70
   3  -4   6   63.09    8.40
   4  -4   6  118.99   13.40
   4  -4   6  107.29    8.70
   4  -4   6  121.99   10.70
   4  -4   6  119.39    9.90
   5  -4   6    0.60    3.50
   5  -4   6    0.60    2.90
   5  -4   6   11.70    8.70
   5  -4   6    5.10    6.60
   6  -4   6   58.59    8.90
   6  -4   6   79.79    7.50
   6  -4   6   81.79   15.90
   6  -4   6   59.59   14.20
   6  -4   6   71.39    4.80
   7  -4   6  187.78   20.00
   7  -4   6  116.39   15.70
   7  -4   6  189.28   19.90
   8  -4   6   41.90   11.30
  10   3  -6    7.20    7.40
  10   3  -6    2.50    9.00
  10   3  -6   -2.20    9.20
   9   3  -6   -0.20   11.80
   9   3  -6   -4.70    7.20
   9   3  -6   -4.20    4.90
   9   3  -6    0.60    5.40
   8   3  -6   83.79   11.00
   8   3  -6   58.19   12.50
   8   3  -6   85.89   13.40
   8   3  -6   84.79   20.60
   7   3  -6  496.75   26.90
   7   3  -6  443.86   34.80
   7   3  -6  443.06   22.70
   7   3  -6  413.26   25.30
   7   3  -6  494.85   27.70
  -7  -3   6  498.25   25.50
   6   3  -6    5.80    5.80
   6   3  -6    3.80    4.00
   6   3  -6   -2.00    6.20
   6   3  -6    1.70    3.60
   6   3  -6    7.00    5.90
  -6  -3   6    1.80    5.60
  -6  -3   6    8.70    4.20
  -6  -3   6   -0.30    1.80
   5   3  -6  155.88   13.20
   5   3  -6  154.68   11.20
   5   3  -6  179.48   13.80
   5   3  -6  190.18   14.40
  -5  -3   6  180.18   14.50
  -5  -3   6  167.48   16.60
   4   3  -6   76.99    8.80
   4   3  -6   85.09    8.10
   4   3  -6   95.79    9.60
   4   3  -6   99.89   10.40
  -4  -3   6  109.29   15.90
  -4  -3   6   68.19    5.40
  -4  -3   6  111.89   14.10
   3   3  -6  293.47   17.80
   3   3  -6  358.46   17.30
   3   3  -6  326.47   16.20
   3   3  -6  315.87   18.00
  -3  -3   6  342.37   20.00
  -3  -3   6  305.07   13.80
  -3  -3   6  327.37   21.60
   2   3  -6   73.19    8.10
   2   3  -6   53.59    6.20
  -2  -3   6   65.29   11.60
  -2  -3   6   60.89   13.10
  -2  -3   6   77.99   10.80
   1   3  -6  714.53   29.20
   1   3  -6  679.03   27.50
   1   3  -6  681.33   27.80
  -1  -3   6  679.03   30.60
  -1  -3   6  642.44   29.70
  -1  -3   6  647.94   34.60
  -1  -3   6  694.63   33.70
   0   3  -6  164.18    7.70
   0   3  -6  186.68   11.70
   0   3  -6  172.28   11.30
   0   3  -6  182.58   12.50
   0  -3   6  181.18   11.10
   0  -3   6  176.78   12.80
   0  -3   6  154.38   14.20
   0  -3   6  177.08    9.50
   0  -3   6  179.08   15.30
  -1   3  -6  571.04   23.30
   1  -3   6  494.35   24.50
   1  -3   6  537.35   27.50
   1  -3   6  521.95   22.90
   1  -3   6  532.95   28.30
  -2   3  -6   72.69    6.50
  -2   3  -6   79.39    7.10
   2  -3   6   77.89   12.70
   2  -3   6   86.39    9.90
   2  -3   6   81.99    8.60
   2  -3   6   77.09    7.20
   3  -3   6    1.70    4.60
   3  -3   6    5.10    2.50
   3  -3   6    7.70    6.10
   3  -3   6    4.50    3.80
   4  -3   6  934.81   46.90
   4  -3   6  927.71   36.40
   4  -3   6  938.01   38.60
   4  -3   6  928.51   34.30
   5  -3   6  157.78    8.90
   5  -3   6  154.88    8.60
   5  -3   6  157.38   15.30
   5  -3   6  143.89   12.50
   5  -3   6  147.39    7.50
   5  -3   6  150.88    9.80
   6  -3   6   18.90    2.10
   6  -3   6   19.10    7.30
   6  -3   6   18.20    2.30
   6  -3   6   15.90    7.40
   6  -3   6   16.60    8.10
   6  -3   6    7.60    4.70
   7  -3   6  210.08   19.30
   7  -3   6  170.28   14.90
   7  -3   6  179.68   18.60
   7  -3   6  160.28   12.60
   8  -3   6    9.20    8.10
   8  -3   6    1.10    5.90
  10   2  -6   11.50    7.60
  10   2  -6   -4.70   16.30
   9   2  -6  113.49   13.20
   9   2  -6  106.19   16.60
   9   2  -6  105.59   23.80
   8   2  -6    6.60    8.70
   8   2  -6   11.10    6.40
   8   2  -6   18.80    7.00
   8   2  -6   26.70   14.00
   7   2  -6  106.09   11.50
   7   2  -6  114.09   13.30
   7   2  -6   97.09   11.30
   7   2  -6  101.59   10.30
   6   2  -6  185.98   12.40
   6   2  -6  181.18   14.70
   6   2  -6  165.68   13.50
   6   2  -6  174.18   14.00
  -6  -2   6  185.18   13.50
  -6  -2   6  164.38    9.50
   5   2  -6   99.49   10.40
   5   2  -6  106.39   10.20
   5   2  -6  104.09    8.90
   5   2  -6  100.19   10.30
   5   2  -6  103.59    6.50
  -5  -2   6  121.39   12.60
  -5  -2   6  109.29   10.60
   4   2  -6  365.26   17.10
   4   2  -6  369.16   19.20
   4   2  -6  346.97   14.80
   4   2  -6  354.56   18.80
   4   2  -6  324.37   18.80
  -4  -2   6  356.16   19.80
  -4  -2   6  371.16   21.90
  -4  -2   6  338.67   14.60
   3   2  -6 1208.08   44.40
   3   2  -6 1135.79   41.60
   3   2  -6 1081.39   44.30
   3   2  -6 1181.08   43.20
  -3  -2   6 1183.28   47.60
  -3  -2   6 1136.59   39.60
  -3  -2   6 1122.89   53.99
  -3  -2   6 1182.98   45.70
   2   2  -6  379.76   18.30
   2   2  -6  349.37   16.30
   2   2  -6  356.46   16.70
   2   2  -6  346.97   18.30
  -2  -2   6  399.96   21.70
  -2  -2   6  367.66   24.90
  -2  -2   6  377.76   15.20
  -2  -2   6  352.16   17.10
  -2  -2   6  381.76   19.90
   1   2  -6    5.10    2.60
   1   2  -6   -0.10    2.40
   1   2  -6    0.30    2.90
   1   2  -6   12.70    5.20
   1   2  -6   -0.70    2.00
  -1  -2   6    2.30    6.10
  -1  -2   6    1.00    2.20
  -1  -2   6    1.90    1.70
  -1  -2   6   -0.10    4.10
  -1  -2   6    1.80    3.30
  -1  -2   6    2.00    1.80
   0   2  -6  346.27   15.80
   0   2  -6  349.67   16.40
   0   2  -6  375.06   18.80
   0  -2   6  321.17   20.70
   0  -2   6  305.57   19.10
   0  -2   6  338.97   14.00
   0  -2   6  348.67   16.00
   0  -2   6  352.16   18.00
  -1   2  -6    1.50    2.70
  -1   2  -6   -0.60    2.10
   1  -2   6    2.70    4.20
   1  -2   6    0.10    1.40
   1  -2   6    0.80    2.70
   1  -2   6    6.20    4.50
   1  -2   6    1.00    2.40
  -2   2  -6  165.78    9.40
  -2   2  -6  186.58   11.30
   2  -2   6  175.98   11.20
   2  -2   6  179.98   12.90
   2  -2   6  181.38    9.90
   2  -2   6  177.48   13.60
  -3   2  -6   64.99    3.80
   3  -2   6   57.79    5.50
   3  -2   6   63.99    3.80
   3  -2   6   70.49    8.60
   3  -2   6   74.39   10.80
   3  -2   6   75.29    7.10
   4  -2   6    0.90    2.30
   4  -2   6    3.60    4.60
   4  -2   6    5.60    5.70
   4  -2   6    2.90    2.70
   5  -2   6    2.40    2.40
   5  -2   6    9.10    7.30
   5  -2   6    1.80    3.10
   5  -2   6    2.20    4.40
   5  -2   6    3.20    2.10
   5  -2   6    1.90    2.60
   6  -2   6   13.40    4.20
   6  -2   6   10.20    6.20
   6  -2   6   10.90    5.10
   6  -2   6   10.70    6.50
   6  -2   6    6.40    5.40
   7  -2   6  334.47   23.80
   7  -2   6  343.77   20.60
   7  -2   6  333.57   21.50
   7  -2   6  330.97   23.40
   7  -2   6  340.27   19.70
   7  -2   6  345.57   18.00
   8  -2   6  184.38   18.00
   8  -2   6  194.18   14.70
   8  -2   6  177.88   17.10
   8  -2   6  244.28   20.30
   9  -2   6   30.70   10.90
  10   1  -6  238.48   23.00
  10   1  -6  224.78   32.00
  10   1  -6  272.27   20.20
   9   1  -6   -3.90   10.50
   9   1  -6   -5.90    6.50
   9   1  -6    0.50    5.10
   9   1  -6    3.40    6.40
   8   1  -6  202.48   15.40
   8   1  -6  207.08   19.50
   8   1  -6  188.88   15.20
   7   1  -6   20.70    5.80
   7   1  -6   23.30    8.40
   7   1  -6   25.10    6.90
   7   1  -6   18.10    3.30
   7   1  -6   19.80    6.60
   6   1  -6  218.38   15.00
   6   1  -6  210.08   14.80
   6   1  -6  251.37   11.10
   6   1  -6  201.88   16.30
   6   1  -6  248.68   14.70
  -6  -1   6  223.28   12.70
  -6  -1   6  228.58   13.80
   5   1  -6  363.36   19.70
   5   1  -6  386.06   15.70
   5   1  -6  386.36   21.10
   5   1  -6  363.96   19.50
   5   1  -6  354.06   18.30
  -5  -1   6  381.56   17.30
  -5  -1   6  388.66   19.80
  -5  -1   6  395.16   21.20
   4   1  -6   78.39    8.50
   4   1  -6   73.39    8.00
   4   1  -6   86.89    5.90
   4   1  -6   71.39    7.20
   4   1  -6   81.59    8.10
  -4  -1   6   81.09    8.50
  -4  -1   6   98.39    9.50
  -4  -1   6   91.79    6.50
   3   1  -6  111.79    8.70
   3   1  -6  103.79    6.50
   3   1  -6  104.79    8.80
   3   1  -6  104.09    7.70
   3   1  -6  100.39    8.80
   3   1  -6  109.29    8.70
  -3  -1   6   92.79    9.00
  -3  -1   6  121.29   14.30
  -3  -1   6  110.69    6.60
  -3  -1   6  118.09   10.00
   2   1  -6  179.48   10.90
   2   1  -6  178.38    9.00
   2   1  -6  179.48    9.80
   2   1  -6  192.98   10.60
   2   1  -6  172.28   11.10
   2   1  -6  174.18   11.40
  -2  -1   6  198.38   13.40
  -2  -1   6  177.98    8.90
  -2  -1   6  168.58    9.90
  -2  -1   6  173.48   10.10
  -2  -1   6  189.68   16.90
  -2  -1   6  192.58   12.30
   1   1  -6  263.67   12.10
   1   1  -6  282.07   12.30
   1   1  -6  234.28   13.30
   1   1  -6  259.47   13.30
   1   1  -6  254.87   14.10
   1   1  -6  256.27   12.00
   1   1  -6  280.47   17.50
  -1  -1   6  261.07   11.50
  -1  -1   6  273.47   12.00
  -1  -1   6  283.77   15.00
  -1  -1   6  239.48   18.30
  -1  -1   6  257.37   15.30
  -1  -1   6  253.07   11.90
  -1  -1   6  259.77   12.60
   0   1  -6  114.49    7.80
   0   1  -6  128.39    9.10
   0   1  -6  123.39   10.00
   0   1  -6  108.99    8.00
   0   1  -6  102.09    9.30
   0   1  -6  116.69    7.20
   0   1  -6  111.99    6.00
   0  -1   6   94.49   11.00
   0  -1   6  111.19    8.70
   0  -1   6  126.49   10.10
   0  -1   6  117.59    6.10
   0  -1   6  113.29    6.60
   0  -1   6  112.19    6.80
   0  -1   6  101.19    7.30
  -1   1  -6 2242.68   70.69
  -1   1  -6 2005.70   69.89
  -1   1  -6 2025.20   67.29
  -1   1  -6 1961.10   67.89
  -1   1  -6 2225.78   66.59
   1  -1   6 1913.51   71.99
   1  -1   6 2017.20   71.49
   1  -1   6 2033.80   69.19
   1  -1   6 1998.80   64.49
   1  -1   6 1981.00   67.39
   1  -1   6 1948.11   67.39
   1  -1   6 1985.30   66.39
  -2   1  -6    7.80    2.30
  -2   1  -6    6.30    2.20
  -2   1  -6    0.90    2.30
   2  -1   6    2.50    2.20
   2  -1   6    3.90    4.00
   2  -1   6    4.90    2.10
   2  -1   6    4.50    2.70
   2  -1   6    4.40    2.80
   2  -1   6   -2.20    3.50
  -3   1  -6   52.39    3.60
   3  -1   6   53.19    5.40
   3  -1   6   61.59    5.30
   3  -1   6   56.79    4.80
   3  -1   6   62.49    7.10
   3  -1   6   56.89    4.80
   3  -1   6   62.99    9.20
   4  -1   6  483.05   18.10
   4  -1   6  472.15   18.00
   4  -1   6  477.85   24.00
   4  -1   6  466.55   19.30
   4  -1   6  470.65   22.90
   5  -1   6  380.36   16.30
   5  -1   6  412.46   17.00
   5  -1   6  410.26   21.80
   5  -1   6  386.66   15.10
   5  -1   6  406.06   22.40
   5  -1   6  402.06   20.60
   6  -1   6  196.28    7.30
   6  -1   6  179.08   11.00
   6  -1   6  198.48   15.20
   6  -1   6  181.98   14.40
   6  -1   6  181.68    7.30
   6  -1   6  174.88   11.90
   6  -1   6  202.98   16.00
   7  -1   6    5.60    6.80
   7  -1   6    6.10    3.50
   7  -1   6    1.10    3.60
   7  -1   6   10.30    7.10
   7  -1   6    2.30    4.50
   7  -1   6    9.70    6.30
   8  -1   6    7.80    6.90
   8  -1   6    2.60    5.00
   8  -1   6   18.80   10.10
   8  -1   6   11.10    4.80
   8  -1   6    2.30    7.90
   9  -1   6  166.78   15.70
   9  -1   6  188.08   18.60
   9  -1   6  166.78   27.80
   9  -1   6  161.38   20.70
  10   0  -6   23.60    5.40
  10   0  -6   22.60   16.00
  10   0  -6   11.50   11.20
  10   0  -6    6.30    7.70
   9   0  -6   66.09   18.80
   9   0  -6   57.19    9.30
   9   0  -6   57.89   10.50
   9   0  -6   52.09   12.60
   8   0  -6   27.50    4.80
   8   0  -6   30.60    8.10
   8   0  -6   45.60    8.50
   8   0  -6   30.10   10.20
   7   0  -6  140.69    9.10
   7   0  -6  139.19   12.50
   7   0  -6  136.29   11.80
   7   0  -6  135.99   14.70
   7   0  -6  115.89   10.70
   6   0  -6   38.80    5.30
   6   0  -6   37.70    7.00
   6   0  -6   33.10    8.40
   6   0  -6   37.90    7.10
   6   0  -6   53.49    8.00
   5   0  -6  109.29    7.60
   5   0  -6  111.99    9.60
   5   0  -6  114.39   11.30
   5   0  -6  105.49    8.80
   5   0  -6   96.69    9.10
  -5   0   6  123.69    9.10
   4   0  -6   67.39    5.60
   4   0  -6   52.39    7.00
   4   0  -6   60.59    8.70
   4   0  -6   58.59    8.40
   4   0  -6   60.09    7.70
  -4   0   6   61.09    6.80
  -4   0   6   63.59    7.40
   3   0  -6  420.86   20.00
   3   0  -6  400.86   18.60
   3   0  -6  415.66   18.80
   3   0  -6  441.56   19.70
   3   0  -6  413.86   18.50
   3   0  -6  430.66   17.30
  -3   0   6  400.06   18.00
  -3   0   6  458.55   28.10
  -3   0   6  444.26   20.20
  -3   0   6  431.96   21.10
   2   0  -6  196.98   10.90
   2   0  -6  187.48   11.30
   2   0  -6  187.68   10.20
   2   0  -6  190.78   10.60
   2   0  -6  200.28   11.20
   2   0  -6  196.88    9.60
  -2   0   6  211.88   12.00
  -2   0   6  188.88    9.80
  -2   0   6  191.88   11.80
  -2   0   6  189.28   16.80
   1   0  -6 1110.29   38.40
   1   0  -6 1119.39   39.90
   1   0  -6 1097.19   39.10
   1   0  -6 1064.29   37.60
   1   0  -6 1063.89   44.10
   1   0  -6 1105.19   39.10
   1   0  -6 1135.89   38.10
  -1   0   6 1054.09   46.30
  -1   0   6 1076.09   38.00
  -1   0   6 1107.99   40.40
  -1   0   6 1088.59   40.50
  -1   0   6 1116.49   37.80
   0   0  -6 5435.36  170.28
   0   0  -6 5347.46  167.68
   0   0  -6 5219.68  168.58
   0   0  -6 4842.42  174.88
   0   0  -6 5335.67  170.08
   0   0  -6 5366.86  169.48
   0   0  -6 5814.42  173.98
   0   0   6 5214.98  168.38
   0   0   6 5241.18  169.08
   0   0   6 5159.78  175.68
   0   0   6 5195.68  167.98
   0   0   6 5513.45  170.98
   0   0   6 5522.95  173.48
  -1   0  -6  808.52   29.00
  -1   0  -6  801.62   26.00
  -1   0  -6  898.41   31.20
  -1   0  -6  805.82   27.80
  -1   0  -6  852.01   31.80
  -1   0  -6  789.42   29.20
  -1   0  -6  788.02   29.00
  -1   0  -6  821.62   30.60
   1   0   6  778.02   28.50
   1   0   6  712.23   32.50
   1   0   6  782.72   28.80
   1   0   6  780.52   29.80
   1   0   6  812.02   31.10
   1   0   6  812.12   32.80
   1   0   6  797.42   27.50
  -2   0  -6    1.20    1.70
  -2   0  -6    4.30    2.10
  -2   0  -6    2.10    3.10
  -2   0  -6    0.70    2.50
  -2   0  -6    3.30    1.80
   2   0   6    0.10    1.60
   2   0   6   -0.60    2.10
   2   0   6    4.70    1.70
   2   0   6   -0.80    3.10
   2   0   6    1.90    2.00
   2   0   6    3.00    3.30
   2   0   6    0.00    3.30
  -3   0  -6   74.69    7.10
  -3   0  -6   78.39    4.80
   3   0   6   73.89    5.80
   3   0   6   89.39    5.00
   3   0   6   75.49    7.90
   3   0   6   84.79    5.50
   3   0   6   81.09    8.10
   3   0   6   78.49    7.10
   4   0   6  253.27   15.40
   4   0   6  255.17   15.50
   4   0   6  256.87   10.20
   4   0   6  252.57   11.20
   4   0   6  242.18   11.00
   4   0   6  253.27   11.60
   4   0   6  270.37   15.00
   5   0   6   -0.40    3.80
   5   0   6    1.50    1.70
   5   0   6    3.60    4.50
   5   0   6   -0.80    1.70
   5   0   6    0.30    1.90
   5   0   6    8.70    5.40
   6   0   6  146.29    9.30
   6   0   6  173.78   14.50
   6   0   6  154.98    9.30
   6   0   6  147.19   13.90
   6   0   6  151.18    7.70
   6   0   6  153.78    7.80
   7   0   6    6.40    2.90
   7   0   6    6.60    6.60
   7   0   6    8.20    5.90
   7   0   6    9.50    4.50
   7   0   6    9.00    3.80
   8   0   6   24.40    9.30
   8   0   6   24.40    4.90
   8   0   6   32.00    6.80
   8   0   6   27.90    9.20
   8   0   6   33.00    9.80
   8   0   6   24.70    5.80
   9   0   6    4.40    4.30
   9   0   6   -2.40    7.80
   9   0   6    6.70    5.10
  10   0   6    5.40    9.70
  10   0   6  -10.60    9.10
  10   0   6    6.00   10.40
  10  -1  -6   -2.20    3.00
  10  -1  -6  -16.40    7.30
   9  -1  -6  174.18   29.40
   9  -1  -6  124.49   18.80
   9  -1  -6  129.29   14.60
   9  -1  -6  142.19   11.00
   8  -1  -6   11.10    7.00
   8  -1  -6   15.90    8.20
   8  -1  -6   20.40    6.20
   8  -1  -6   13.20    5.10
   7  -1  -6    6.70    5.40
   7  -1  -6    3.90    7.20
   7  -1  -6    1.50    4.50
   7  -1  -6    2.00    2.60
   7  -1  -6   -2.50    3.30
   6  -1  -6    1.70    4.00
   6  -1  -6    5.00    4.50
   6  -1  -6    0.90    5.40
   6  -1  -6    1.60    3.00
   5  -1  -6  219.58   14.20
   5  -1  -6  204.78   15.70
   5  -1  -6  206.18   12.80
   5  -1  -6  216.58   12.50
   5  -1  -6  233.98   13.50
   5  -1  -6  210.88   10.40
  -5   1   6  198.48   11.00
   4  -1  -6   57.39    6.20
   4  -1  -6   42.00    7.80
   4  -1  -6   44.90    6.70
   4  -1  -6   53.99    7.30
   4  -1  -6   45.40    7.10
   4  -1  -6   46.10    4.40
  -4   1   6   53.59    7.00
   3  -1  -6  181.18   10.80
   3  -1  -6  197.58   10.80
   3  -1  -6  184.28    8.80
   3  -1  -6  185.68   11.30
  -3   1   6  190.48    9.20
  -3   1   6  193.48   17.10
   2  -1  -6  388.86   17.30
   2  -1  -6  414.36   15.20
   2  -1  -6  376.76   16.70
   2  -1  -6  391.86   17.60
   2  -1  -6  406.26   17.30
   2  -1  -6  389.36   22.00
  -2   1   6  379.16   18.00
  -2   1   6  382.46   17.40
  -2   1   6  385.76   16.00
  -2   1   6  396.46   23.90
   1  -1  -6 4985.10  160.28
   1  -1  -6 5096.39  160.88
   1  -1  -6 4941.51  160.38
   1  -1  -6 5259.47  161.88
   1  -1  -6 4832.42  165.58
   1  -1  -6 5180.18  159.28
  -1   1   6 4858.11  160.48
  -1   1   6 5102.29  160.48
  -1   1   6 5048.90  160.88
  -1   1   6 4902.71  168.78
  -1   1   6 5184.38  162.18
  -1   1   6 5012.10  160.98
   0  -1  -6  448.46   17.30
   0  -1  -6  450.85   17.90
   0   1   6  418.76   17.20
   0   1   6  439.36   17.70
   0   1   6  456.85   18.80
   0   1   6  411.26   16.70
   0   1   6  409.76   21.60
   0   1   6  422.66   17.60
  -1  -1  -6   12.70    3.10
  -1  -1  -6   10.40    4.30
  -1  -1  -6   10.60    2.50
  -1  -1  -6   13.60    4.00
  -1  -1  -6   16.60    3.60
  -1  -1  -6    9.40    2.10
   1   1   6   13.60    2.40
   1   1   6    6.40    2.50
   1   1   6   11.90    6.50
   1   1   6   12.50    3.50
   1   1   6   11.30    2.90
   1   1   6   14.80    3.90
   1   1   6   12.10    4.70
  -2  -1  -6  459.85   20.60
  -2  -1  -6  462.55   21.00
  -2  -1  -6  462.45   18.30
  -2  -1  -6  465.45   17.80
  -2  -1  -6  448.26   15.80
   2   1   6  448.26   15.80
   2   1   6  450.95   20.70
   2   1   6  437.66   18.00
   2   1   6  453.95   17.50
  -3  -1  -6  674.53   24.00
  -3  -1  -6  656.53   28.30
   3   1   6  691.83   28.50
   3   1   6  690.13   25.00
   3   1   6  661.23   22.00
   3   1   6  647.44   28.30
   3   1   6  664.23   25.10
   3   1   6  668.13   24.50
  -4  -1  -6  137.79    6.40
   4   1   6  123.69   10.70
   4   1   6  145.99   11.20
   4   1   6  128.39    7.80
   4   1   6  129.89    7.80
   4   1   6  136.89    5.50
   4   1   6  123.59    7.30
   5   1   6   80.49    4.60
   5   1   6   84.29   10.00
   5   1   6   83.89    4.50
   5   1   6   83.79    6.40
   5   1   6   86.59   10.30
   5   1   6   83.29    6.30
   6   1   6  490.25   17.70
   6   1   6  478.95   27.10
   6   1   6  468.55   19.70
   6   1   6  467.25   17.60
   6   1   6  498.65   27.60
   6   1   6  484.75   19.90
   7   1   6   19.30    4.30
   7   1   6   17.70    3.40
   7   1   6   18.00    2.80
   7   1   6   17.50    8.20
   7   1   6   15.70    7.50
   7   1   6   16.00    3.40
   8   1   6  106.99   16.70
   8   1   6   95.89    5.20
   8   1   6   82.69    4.90
   8   1   6   77.49    5.70
   8   1   6   81.79    8.80
   8   1   6   86.79   13.10
   8   1   6   98.39   15.00
   8   1   6   86.89    8.50
   9   1   6   63.19   13.30
   9   1   6   88.59   16.80
   9   1   6   60.39    8.60
  10   1   6  130.69   19.30
  10   1   6  119.59   20.50
  10   1   6  145.09   22.20
  11   1   6  184.18   21.80
  11   1   6  159.68   25.90
  11   1   6  180.38   34.90
   9  -2  -6   60.49    6.40
   9  -2  -6   45.30   11.40
   8  -2  -6   24.60    9.90
   8  -2  -6   29.10    6.30
   8  -2  -6   26.10    9.00
   8  -2  -6   29.70    7.50
   7  -2  -6   -1.00    6.60
   7  -2  -6    0.20    3.90
   7  -2  -6   -0.50    3.90
   7  -2  -6    0.20    3.70
   7  -2  -6   -4.50    5.30
   6  -2  -6   98.89    9.00
   6  -2  -6   73.09   12.20
   6  -2  -6   84.19   11.50
   6  -2  -6   76.39    8.70
   5  -2  -6   69.99    9.90
   5  -2  -6   63.99    8.50
   5  -2  -6   38.20    6.70
   5  -2  -6   61.29    7.20
   5  -2  -6   45.80    9.20
   4  -2  -6  436.26   20.20
   4  -2  -6  460.85   20.80
   4  -2  -6  434.76   22.10
   4  -2  -6  451.45   21.70
  -4   2   6  461.15   19.80
   3  -2  -6  185.08   11.10
   3  -2  -6  169.58   11.30
   3  -2  -6  171.18   10.50
   3  -2  -6  168.78   11.50
  -3   2   6  177.18   10.90
   2  -2  -6   66.09    6.60
   2  -2  -6   67.89    6.60
   2  -2  -6   66.99    8.10
   2  -2  -6   77.19    6.90
   2  -2  -6   67.89    6.20
  -2   2   6   63.99    6.90
  -2   2   6   92.79   13.60
   1  -2  -6  569.14   25.10
   1  -2  -6  580.94   23.30
   1  -2  -6  573.34   22.60
   1  -2  -6  556.74   22.70
   1  -2  -6  574.84   23.10
  -1   2   6  573.44   23.10
  -1   2   6  559.34   20.00
  -1   2   6  506.05   27.30
   0  -2  -6  521.45   20.20
   0  -2  -6  514.15   20.60
   0  -2  -6  540.65   27.50
   0  -2  -6  552.04   21.50
   0  -2  -6  521.05   20.80
   0   2   6  506.85   21.00
   0   2   6  525.65   19.20
   0   2   6  502.25   20.30
   0   2   6  511.05   24.30
   0   2   6  478.95   20.60
   0   2   6  425.86   28.20
   0   2   6  505.15   21.10
  -1  -2  -6 1726.93   59.09
  -1  -2  -6 1707.53   58.39
  -1  -2  -6 1684.63   56.49
  -1  -2  -6 1769.42   60.39
  -1  -2  -6 1941.21   64.29
  -1  -2  -6 1649.33   57.49
   1   2   6 1800.02   60.99
   1   2   6 1648.04   58.19
   1   2   6 1789.12   61.09
   1   2   6 1672.13   58.79
   1   2   6 1700.93   56.99
   1   2   6 1648.54   65.39
  -2  -2  -6   18.50    5.00
  -2  -2  -6   18.70    2.10
  -2  -2  -6   16.10    3.60
  -2  -2  -6   14.20    2.90
  -2  -2  -6   27.30    4.70
  -2  -2  -6   18.30    5.40
   2   2   6   14.60    5.50
   2   2   6   22.90    5.40
   2   2   6   21.60    4.20
   2   2   6   15.70    2.90
   2   2   6   15.80    4.10
  -3  -2  -6 1038.90   34.80
  -3  -2  -6 1036.50   35.60
  -3  -2  -6 1018.20   41.40
   3   2   6 1061.09   41.50
   3   2   6 1027.00   40.30
   3   2   6 1053.29   37.70
   3   2   6  979.30   37.00
  -4  -2  -6   11.70    2.50
  -4  -2  -6   15.20    2.90
   4   2   6   14.70    3.50
   4   2   6   19.00    6.10
   4   2   6   14.70    3.80
   4   2   6   15.30    5.50
   4   2   6   17.30    2.80
  -5  -2  -6    0.40    1.40
  -5  -2  -6    1.30    1.80
   5   2   6    5.20    5.10
   5   2   6   -2.70    3.80
   5   2   6   -1.80    2.50
   5   2   6   -1.10    1.40
   5   2   6   -1.80    2.00
   6   2   6  331.67   22.50
   6   2   6  345.47   16.70
   6   2   6  330.67   21.90
   6   2   6  334.17   15.80
   6   2   6  320.47   13.80
   7   2   6  189.68   17.40
   7   2   6  165.88   10.40
   7   2   6  188.38   18.30
   7   2   6  199.78   11.60
   7   2   6  168.28    9.00
   7   2   6  188.38   11.50
   8   2   6  245.68   14.30
   8   2   6  250.27   13.80
   8   2   6  239.88   22.40
   8   2   6  270.07   22.60
   8   2   6  244.18   12.60
   8   2   6  244.08   12.80
   9   2   6  114.09    8.20
   9   2   6  124.19   21.40
  10   2   6   91.19   17.70
  10   2   6   63.39   14.20
  10   2   6   78.09   18.20
  11   2   6  101.39   22.30
  11   2   6   83.99   21.20
  11   2   6  103.89   17.40
   9  -3  -6    3.10   13.50
   8  -3  -6  173.78   17.40
   8  -3  -6  145.79   14.80
   8  -3  -6  175.88   20.00
   8  -3  -6  150.98   10.50
   7  -3  -6   18.30    7.60
   7  -3  -6   14.40    6.40
   7  -3  -6   10.80    5.00
   7  -3  -6   -1.00    7.20
   6  -3  -6  124.79   14.70
   6  -3  -6  101.99    9.20
   6  -3  -6  105.29   14.30
   6  -3  -6  106.09   11.60
   6  -3  -6  113.59    9.90
   5  -3  -6  293.77   16.50
   5  -3  -6  320.17   19.40
   5  -3  -6  317.97   19.90
   5  -3  -6  300.97   16.30
   4  -3  -6  867.01   34.70
   4  -3  -6  917.41   37.50
   4  -3  -6  842.22   36.90
   4  -3  -6  843.22   33.70
  -4   3   6  841.82   32.20
   3  -3  -6  475.15   21.50
   3  -3  -6  488.85   23.90
   3  -3  -6  430.66   24.60
   3  -3  -6  506.55   24.00
   3  -3  -6  502.35   22.20
  -3   3   6  493.05   21.40
   2  -3  -6  646.64   26.70
   2  -3  -6  633.24   27.60
   2  -3  -6  663.83   27.80
   2  -3  -6  619.34   26.00
   2  -3  -6  654.73   28.20
  -2   3   6  619.04   30.80
   1  -3  -6   69.29    6.50
   1  -3  -6   76.39    6.90
   1  -3  -6   73.49    7.00
   1  -3  -6   79.99    7.70
   1  -3  -6   71.69    7.10
  -1   3   6   76.79   11.30
  -1   3   6   60.59    6.50
  -1   3   6   54.29   13.80
  -1   3   6   63.69    3.20
   0  -3  -6  205.48   11.40
   0  -3  -6  186.58   11.30
   0  -3  -6  205.48   12.30
   0  -3  -6  202.18   11.10
   0  -3  -6  179.78   11.20
   0   3   6  189.18   13.00
   0   3   6  174.08   17.90
   0   3   6  197.38   10.00
   0   3   6  204.98   11.50
  -1  -3  -6 2139.39   71.89
  -1  -3  -6 2109.79   72.59
  -1  -3  -6 2132.39   73.19
  -1  -3  -6 2170.58   73.29
  -1  -3  -6 2129.79   70.89
   1   3   6 2197.98   81.99
   1   3   6 2198.48   73.59
   1   3   6 2083.89   74.69
   1   3   6 2078.19   73.19
  -2  -3  -6  105.49    7.00
  -2  -3  -6  107.49    8.30
  -2  -3  -6  117.19    6.40
  -2  -3  -6  117.39    9.10
  -2  -3  -6  118.99    8.50
   2   3   6  111.99    7.60
   2   3   6  112.19    9.00
   2   3   6  128.59    9.00
   2   3   6  106.79    8.50
   2   3   6  138.19   12.30
  -3  -3  -6 1122.29   38.60
  -3  -3  -6 1126.29   36.40
  -3  -3  -6 1133.49   40.70
   3   3   6 1187.58   46.40
   3   3   6 1102.49   41.40
   3   3   6 1092.19   39.60
   3   3   6 1096.79   42.00
   3   3   6 1127.39   43.70
  -4  -3  -6   20.10    4.20
  -4  -3  -6   25.70    3.30
  -4  -3  -6   22.20    3.60
   4   3   6   20.70    6.50
   4   3   6   18.80    4.60
   4   3   6   18.00    4.50
   4   3   6   26.60    7.60
  -5  -3  -6   40.20    5.80
  -5  -3  -6   41.10    4.80
   5   3   6   46.10    6.80
   5   3   6   50.09   10.80
   5   3   6   43.10    4.10
   5   3   6   43.00    9.70
   5   3   6   49.80    7.50
  -6  -3  -6 1609.04   54.19
   6   3   6 1607.34   59.19
   6   3   6 1690.83   66.19
   6   3   6 1602.74   53.79
   6   3   6 1597.94   57.89
   7   3   6  888.81   43.80
   7   3   6  945.21   46.00
   7   3   6  852.31   36.20
   7   3   6  863.21   30.40
   7   3   6  881.91   35.20
   8   3   6   59.19   14.10
   8   3   6   33.00    6.80
   8   3   6   37.00   12.90
   8   3   6   41.80    6.90
   9   3   6   24.80    5.10
   9   3   6   24.20   12.00
   9   3   6   22.40   11.60
  10   3   6    7.10   10.10
  10   3   6   -0.70    3.80
  10   3   6   -6.00   11.00
  10   3   6    5.20    4.10
  11   3   6    5.00    2.20
  11   3   6  -14.50   11.00
   8  -4  -6   11.00    4.70
   8  -4  -6   15.40   10.80
   8  -4  -6    9.30    7.70
   8  -4  -6   10.90    8.40
   7  -4  -6   13.60    8.90
   7  -4  -6    9.20    4.20
   7  -4  -6   15.90    7.20
   7  -4  -6    8.50    7.20
   6  -4  -6   43.60    9.20
   6  -4  -6   48.90    7.60
   6  -4  -6   41.40   10.30
   5  -4  -6    4.50    5.30
   5  -4  -6    3.00    4.00
   5  -4  -6    0.30    3.50
   5  -4  -6   -0.80    4.90
   4  -4  -6    6.30    4.90
   4  -4  -6    3.30    3.50
   4  -4  -6   -0.10    4.40
   4  -4  -6   -3.30    3.40
   4  -4  -6    3.10    6.60
   3  -4  -6  307.57   18.60
   3  -4  -6  279.67   15.10
   3  -4  -6  286.27   18.60
   3  -4  -6  286.47   16.00
   3  -4  -6  301.47   17.00
  -3   4   6  308.77   15.20
   2  -4  -6    6.20    3.90
   2  -4  -6   -5.30    3.20
   2  -4  -6    1.60    3.20
   2  -4  -6   -3.10    2.50
   2  -4  -6    1.60    3.90
  -2   4   6    2.20    5.10
   1  -4  -6  234.68   11.90
   1  -4  -6  259.67   14.90
   1  -4  -6  239.08   15.00
   1  -4  -6  236.48   13.90
   1  -4  -6  212.48   13.30
  -1   4   6  161.98   20.50
   0  -4  -6   14.60    4.20
   0  -4  -6   13.40    4.50
   0  -4  -6    9.30    3.70
   0  -4  -6   14.30    4.50
   0  -4  -6   15.00    3.90
   0   4   6   18.20    9.30
   0   4   6   16.20    4.60
   0   4   6   13.30    3.50
   0   4   6   14.10    5.30
  -1  -4  -6  226.58   12.90
  -1  -4  -6  210.28   13.10
  -1  -4  -6  209.68   12.20
  -1  -4  -6  222.48   13.30
   1   4   6  216.18   19.10
   1   4   6  220.08   12.80
   1   4   6  198.38   12.30
  -2  -4  -6  788.02   32.00
  -2  -4  -6  771.02   30.30
   2   4   6  758.22   31.50
   2   4   6  752.32   32.60
   2   4   6  805.72   32.00
   2   4   6  838.02   38.20
  -3  -4  -6  112.39    7.40
  -3  -4  -6  109.19    8.90
   3   4   6  118.19    8.20
   3   4   6   94.69   11.10
   3   4   6   91.99    9.00
   3   4   6  126.19    9.80
   3   4   6  132.29   11.40
  -4  -4  -6  389.36   13.80
  -4  -4  -6  372.46   18.60
  -4  -4  -6  392.36   15.80
  -4  -4  -6  395.66   14.10
   4   4   6  376.76   20.10
   4   4   6  391.96   23.60
   4   4   6  400.96   22.00
   4   4   6  393.26   17.30
   4   4   6  392.46   19.60
  -5  -4  -6  176.98   11.30
  -5  -4  -6  169.78    8.50
   5   4   6  162.28   12.00
   5   4   6  193.38   13.40
   5   4   6  172.58   16.10
   5   4   6  167.58   12.90
   5   4   6  182.78   15.20
  -6  -4  -6   -0.60    2.30
   6   4   6   -1.10    5.90
   6   4   6   -2.10    3.50
   6   4   6    0.70    1.60
   6   4   6   -1.40    5.10
   6   4   6    1.30    3.60
   7   4   6  643.34   36.10
   7   4   6  667.63   38.20
   7   4   6  642.84   30.50
   7   4   6  653.33   29.60
   8   4   6   78.99   11.20
   8   4   6   88.89   11.20
   8   4   6  105.69   18.40
   8   4   6   67.09   16.00
   9   4   6   27.50   11.60
   9   4   6   34.60   21.90
   9   4   6   21.80    6.20
  10   4   6   38.60    7.60
  10   4   6   59.89   18.40
  10   4   6   33.90   12.80
  11   4   6  114.19   23.80
  11   4   6   99.79   10.10
  11   4   6  108.29   25.50
   8  -5  -6   25.10   15.80
   7  -5  -6  267.17   21.50
   7  -5  -6  256.57   22.10
   7  -5  -6  257.87   23.20
   6  -5  -6    1.10    6.30
   6  -5  -6    0.90    5.50
   6  -5  -6    4.30    4.50
   5  -5  -6   19.30    6.00
   5  -5  -6   15.80    7.40
   4  -5  -6  253.07   19.40
   4  -5  -6  242.78   19.20
   4  -5  -6  253.87   15.80
   4  -5  -6  254.77   16.50
   3  -5  -6   88.59    9.90
   3  -5  -6  105.09   10.00
   3  -5  -6   97.69    5.80
   3  -5  -6  103.49   13.60
   3  -5  -6  109.19   12.40
   2  -5  -6   60.29    9.80
   2  -5  -6   75.59   11.10
   2  -5  -6   66.39    4.90
   2  -5  -6   65.99   10.00
   2  -5  -6   65.79    9.10
  -2   5   6   72.09    7.50
   1  -5  -6    4.80    4.50
   1  -5  -6    4.60    2.50
   1  -5  -6    7.60    5.00
   1  -5  -6    2.70    4.20
   1  -5  -6   14.60    5.40
  -1   5   6    6.30    2.00
  -1   5   6   10.20    9.30
  -1   5   6    0.80    3.80
  -1   5   6   14.00    4.90
   0  -5  -6  500.15   24.60
   0  -5  -6  554.94   25.50
   0  -5  -6  531.65   25.70
   0   5   6  548.35   24.30
   0   5   6  428.16   34.00
   0   5   6  505.05   21.90
  -1  -5  -6  266.77   16.10
  -1  -5  -6  242.98   15.40
  -1  -5  -6  257.07   15.80
   1   5   6  247.38   15.40
   1   5   6  269.57   14.60
   1   5   6  238.48   22.10
   1   5   6  242.58   14.60
  -2  -5  -6    8.20    4.60
  -2  -5  -6   11.20    4.00
   2   5   6   12.10    4.90
   2   5   6   15.40    5.20
   2   5   6   16.00    8.60
  -3  -5  -6   -0.20    2.20
  -3  -5  -6    1.90    3.30
  -3  -5  -6    0.40    1.90
   3   5   6   -3.40    2.90
   3   5   6   -0.90    4.00
   3   5   6    0.50    5.20
  -4  -5  -6   55.39    5.50
  -4  -5  -6   59.99    4.80
   4   5   6   66.29   10.70
   4   5   6   65.39    9.80
   4   5   6   51.39    8.40
   4   5   6   54.09   11.40
  -5  -5  -6   63.69    4.00
  -5  -5  -6   72.19    5.50
  -5  -5  -6   56.59    8.70
   5   5   6   72.39   10.40
   5   5   6   74.09    6.40
   5   5   6   82.29   14.50
  -6  -5  -6  107.79    9.40
  -6  -5  -6  120.09    9.10
   6   5   6  112.89   11.00
   6   5   6  130.39   14.50
   6   5   6  103.29   11.30
   6   5   6  113.79   14.90
   6   5   6  100.49    6.90
  -7  -5  -6   36.70    6.40
   7   5   6   51.79   12.70
   7   5   6   57.09   14.40
   7   5   6   47.10    8.80
   7   5   6   51.09    9.60
   8   5   6    0.90    7.80
   8   5   6   15.60    6.40
   8   5   6   16.00   10.30
   8   5   6   10.40    5.70
   9   5   6    5.60    5.30
   9   5   6   17.00   11.40
   9   5   6   11.60    9.60
  10   5   6  103.19   11.40
  10   5   6   89.89   21.80
  10   5   6  103.29   21.10
  11   5   6  116.39   19.80
  11   5   6  109.09   21.90
   6  -6  -6    2.80    6.80
   6  -6  -6    4.70    6.90
   5  -6  -6   26.10    7.00
   5  -6  -6   15.00    8.70
   5  -6  -6   34.90    9.70
   4  -6  -6    8.40    5.80
   4  -6  -6   -2.20    5.60
   4  -6  -6    1.50    6.60
   3  -6  -6   99.89   10.70
   3  -6  -6  101.09   14.50
   3  -6  -6   96.89   14.10
   2  -6  -6   11.70    6.10
   2  -6  -6   13.70    5.70
   2  -6  -6   12.50    6.60
   2  -6  -6   17.60    6.20
  -2   6   6    7.30    4.40
   1  -6  -6   11.70    6.10
   1  -6  -6   22.80    5.60
   1  -6  -6   19.00    6.30
   1  -6  -6   26.20    7.60
  -1   6   6   16.30   11.70
  -1   6   6   13.40    4.80
  -1   6   6   16.90    3.40
   0  -6  -6    4.10    4.70
   0  -6  -6   20.20    5.50
   0  -6  -6   12.80    5.40
   0   6   6    5.60    4.80
   0   6   6   11.40    4.30
   0   6   6   19.20    5.10
   0   6   6    6.70    9.30
  -1  -6  -6   -1.30    2.80
  -1  -6  -6    1.80    4.60
   1   6   6   -1.30    4.50
   1   6   6   -3.30    6.60
   1   6   6    0.90    4.00
  -2  -6  -6  188.68   14.80
  -2  -6  -6  222.88   14.50
   2   6   6  204.28   20.70
   2   6   6  202.58   12.80
   2   6   6  190.58   14.20
  -3  -6  -6 1110.99   45.50
  -3  -6  -6 1060.39   42.30
   3   6   6 1114.69   43.70
   3   6   6 1063.89   44.50
  -4  -6  -6  190.98   12.00
  -4  -6  -6  172.68   14.10
   4   6   6  202.58   15.20
   4   6   6  212.48   19.40
   4   6   6  214.48   15.70
  -5  -6  -6   28.60    4.10
  -5  -6  -6   45.30    8.90
  -5  -6  -6   31.20    4.90
   5   6   6   33.40    8.30
   5   6   6   30.80    9.10
   5   6   6   32.50   11.20
  -6  -6  -6   -3.20    1.80
  -6  -6  -6   -0.80    1.90
  -6  -6  -6    6.40    4.90
   6   6   6   -1.80    5.40
   6   6   6   -6.50    5.90
   6   6   6   -1.10    4.70
   6   6   6    6.80    6.00
  -7  -6  -6   59.69    8.60
   7   6   6   50.39   10.20
   7   6   6   77.49   14.90
   7   6   6   69.39   16.40
   8   6   6    7.10    8.60
   8   6   6    3.70    8.90
   8   6   6    4.90    6.40
   9   6   6    1.40    5.90
   9   6   6    5.20    8.70
   9   6   6    2.40    9.10
  10   6   6   91.19   13.70
  10   6   6  121.09   22.70
  10   6   6  163.68   21.00
  11   6   6   14.50   11.40
  11   6   6    8.00   11.70
  11   6   6   10.00    6.30
   5  -7  -6   12.60    7.90
   5  -7  -6   18.60    7.00
   4  -7  -6  108.79   11.70
   4  -7  -6  103.09   16.00
   4  -7  -6  105.39   16.50
   3  -7  -6   90.19   14.60
   3  -7  -6   82.89   12.20
   3  -7  -6   98.19   16.10
   2  -7  -6  213.48   33.90
   1  -7  -6  169.38   15.10
   1  -7  -6  190.68   17.30
  -1   7   6  111.69   24.30
  -1   7   6  168.68    8.80
   0  -7  -6  197.58   16.70
   0  -7  -6  159.98   14.90
   0  -7  -6  169.58   14.90
   0   7   6  150.78   13.10
   0   7   6  126.29   24.70
  -1  -7  -6  491.25   26.90
  -1  -7  -6  500.15   27.30
   1   7   6  411.36   34.80
   1   7   6  472.95   25.00
  -2  -7  -6   73.69   12.10
  -2  -7  -6   53.29    9.00
   2   7   6   56.29   15.90
   2   7   6   57.09    7.60
   2   7   6   62.29   10.40
  -3  -7  -6  844.82   40.10
  -3  -7  -6  881.51   37.60
   3   7   6  956.10   48.60
   3   7   6  842.92   36.40
   3   7   6  834.42   38.80
  -4  -7  -6   75.39   12.40
  -4  -7  -6   52.69    7.90
   4   7   6   52.09   10.30
   4   7   6   65.19   15.10
   4   7   6   66.09   11.50
  -5  -7  -6   68.69    7.30
  -5  -7  -6   60.59   11.00
   5   7   6   51.79   10.60
   5   7   6   85.79   10.90
   5   7   6   85.09   17.00
  -6  -7  -6  138.89   13.40
  -6  -7  -6  139.09    8.90
   6   7   6  127.39   14.00
   6   7   6  112.39   14.50
   6   7   6  167.58   20.40
  -7  -7  -6   58.09   10.30
   7   7   6   74.69   15.40
   7   7   6   69.59   12.50
   7   7   6   59.99   15.30
   8   7   6  402.56   32.80
   8   7   6  344.17   30.00
   9   7   6  269.17   28.40
   9   7   6  226.28   24.10
   9   7   6  197.18   19.40
  10   7   6   31.10   12.20
  10   7   6   -2.40   10.70
  10   7   6    3.10    5.80
  11   7   6    1.30   11.80
  11   7   6   -5.60    5.40
   4  -8  -6   21.90   11.10
   4  -8  -6   40.50   11.30
   4  -8  -6   58.79   10.30
   3  -8  -6   20.00    7.70
   3  -8  -6    9.30    7.70
   3  -8  -6    0.20    6.70
   2  -8  -6   -5.40    5.30
   2  -8  -6    3.20    7.60
   2  -8  -6    6.00    6.30
   1  -8  -6   35.50   10.30
   1  -8  -6   34.10   10.40
   1  -8  -6   18.10    7.80
   0  -8  -6   31.10    9.60
   0  -8  -6   24.60    9.00
   0   8   6    7.30    6.60
   0   8   6   32.30   14.80
  -1  -8  -6   14.20    6.80
  -1  -8  -6   18.90    8.20
   1   8   6   13.90   11.50
   1   8   6   13.50    6.70
  -2  -8  -6   29.30    7.60
  -2  -8  -6   23.50    7.90
   2   8   6   20.80    5.80
   2   8   6   24.10    8.00
   2   8   6   18.00   11.90
  -3  -8  -6  164.88   14.60
  -3  -8  -6  179.98   16.90
   3   8   6  142.29   11.80
   3   8   6  160.88   15.00
   3   8   6  147.29   21.70
  -4  -8  -6  150.78   15.80
  -4  -8  -6  154.68   13.30
   4   8   6  145.59   21.10
   4   8   6  153.68   15.70
  -5  -8  -6  218.38   17.90
  -5  -8  -6  218.08   14.40
   5   8   6  219.88   18.20
   5   8   6  210.28   22.80
   5   8   6  188.58   17.20
  -6  -8  -6    3.40    3.40
  -6  -8  -6   18.00    6.80
   6   8   6    5.30   10.20
   6   8   6   -3.40    7.10
   6   8   6   13.50    8.30
  -7  -8  -6  126.89    8.70
  -7  -8  -6  153.88   14.80
   7   8   6  146.69   21.30
   7   8   6  147.09   19.30
   8   8   6  208.68   22.20
   8   8   6  192.88   19.30
   8   8   6  171.78   24.80
   9   8   6  236.98   25.20
   9   8   6  217.78   26.70
   9   8   6  204.68   20.20
  10   8   6   -6.70    8.20
  10   8   6   -2.70    7.50
   3  -9  -6   15.60    8.00
   3  -9  -6    4.50    8.30
   3  -9  -6   11.40    9.00
   2  -9  -6  172.88   24.50
   2  -9  -6  180.08   26.50
   2  -9  -6  194.18   28.10
   1  -9  -6  307.17   24.30
   1  -9  -6  315.67   22.80
   1  -9  -6  250.47   23.50
   0  -9  -6   34.30   10.40
   0  -9  -6   37.20    9.60
   0   9   6   37.10   16.60
  -1  -9  -6   47.70   11.70
  -1  -9  -6   57.99   13.50
   1   9   6   54.49   17.40
  -2  -9  -6   12.70    7.80
  -2  -9  -6    3.00    5.80
   2   9   6    9.70   12.60
   2   9   6   -6.90    6.60
  -3  -9  -6  139.29   14.60
  -3  -9  -6  145.29   17.00
   3   9   6  137.49   25.80
   3   9   6  135.09   12.00
   3   9   6  135.89   15.30
  -4  -9  -6  124.89   13.30
  -4  -9  -6  134.99   15.70
   4   9   6  107.79   12.20
   4   9   6  170.98   16.60
   4   9   6  128.79   23.60
  -5  -9  -6   26.20    7.30
  -5  -9  -6   29.20    8.90
   5   9   6   31.10    9.80
   5   9   6   38.20   10.00
   5   9   6   50.49   17.00
  -6  -9  -6    5.90    4.40
  -6  -9  -6    3.80    6.90
   6   9   6   10.20    8.30
   6   9   6    0.80    7.20
   6   9   6   -0.50   10.20
  -7  -9  -6  191.68   12.30
  -7  -9  -6  211.18   18.40
   7   9   6  176.08   19.60
   7   9   6  191.98   25.80
   8   9   6   87.49   16.30
   8   9   6   36.40   16.10
   8   9   6   48.00   13.80
   9   9   6   10.60   11.60
   9   9   6   45.80   12.10
   9   9   6   34.70   15.40
  10   9   6  101.69   22.10
  10   9   6  131.09   28.20
  10   9   6   87.69   15.50
   1 -10  -6   11.60    8.70
   1 -10  -6   11.20    8.80
   1 -10  -6   36.00   10.20
   0 -10  -6    1.70    7.30
   0 -10  -6    9.70    6.40
  -1 -10  -6   27.10    9.70
  -1 -10  -6   10.80    7.60
  -2 -10  -6   -0.90    6.60
  -2 -10  -6   19.10    9.30
  -3 -10  -6   -0.50    5.90
  -3 -10  -6   21.30   10.10
  -4 -10  -6  112.69   18.10
  -4 -10  -6  165.28   19.30
   4  10   6  141.09   16.30
   4  10   6  116.59   16.20
   4  10   6  102.59   24.60
  -5 -10  -6   14.10    6.90
  -5 -10  -6   21.70   10.60
   5  10   6    7.00    9.60
   5  10   6   18.40    9.40
   5  10   6    1.50   12.90
  -6 -10  -6    8.60    7.90
  -6 -10  -6    0.60    5.50
   6  10   6    0.40    8.90
   6  10   6   -5.00    7.70
   6  10   6  -12.80   11.50
  -7 -10  -6   15.90   10.10
  -7 -10  -6   -3.50    6.10
   7  10   6   16.00   10.20
   7  10   6   11.40   10.00
   7  10   6    0.80   10.60
   8  10   6   97.29   17.00
   8  10   6   82.09   18.20
   8  10   6   79.29   20.20
   9  10   6   12.60   15.20
  -1 -11  -6   -9.00    6.00
  -1 -11  -6   15.80    7.70
   1  11   6   91.09   28.00
  -2 -11  -6   -3.00   11.00
   2  11   6   83.19   22.90
  -3 -11  -6   84.99   16.30
  -3 -11  -6  106.29   16.60
   3  11   6  106.89   23.10
  -4 -11  -6   -2.30    8.00
  -4 -11  -6    4.10    9.10
   4  11   6   22.80   16.40
  -5 -11  -6   89.69   16.30
  -5 -11  -6   51.39   10.80
   5  11   6   50.99   19.90
   5  11   6   79.39   15.80
  -6 -11  -6   15.10    8.00
  -6 -11  -6   84.49   13.80
   6  11   6   60.59   20.40
   6  11   6   31.10   14.40
   7  11   6  -23.40   19.70
   7  11   6    3.10    9.70
   7  11   6    1.10   10.90
   8  11   6   -4.10   11.00
   8  11   6   39.40   20.70
   9  11   6   -5.20   12.60
  -4 -12  -6    6.40    9.40
  -4 -12  -6    5.10   10.90
   5  12   6   16.80   17.70
  -6 -12  -6   32.70   18.00
   6  12   6   34.60   22.50
   7  12   6   33.70   18.60
   8  10  -7  -34.00   14.70
   7  10  -7   91.59   19.90
   7  10  -7   78.89   21.30
   6  10  -7  116.89   16.90
  -6 -10   7   65.89   22.40
  -6 -10   7   71.89   18.90
  -5 -10   7    1.50   11.60
  -5 -10   7  -17.90    8.60
  -5 -10   7   41.20   17.40
  -4 -10   7   45.00   12.50
  -4 -10   7   81.59   17.40
  -4 -10   7   46.90   15.90
  -3 -10   7   31.20   17.40
  -3 -10   7    8.70    9.30
  -2 -10   7    3.20   13.70
  -2 -10   7   12.80   11.20
  -2 -10   7   32.70   12.00
  -1 -10   7   53.89   18.50
  -1 -10   7   55.79   18.30
  -1 -10   7   54.49   14.10
   0 -10   7  -31.00   10.90
   8   9  -7  -18.30   11.10
  -8  -9   7   22.80   14.20
   7   9  -7    4.00   10.20
   7   9  -7   -1.00   11.50
  -7  -9   7    9.10   14.00
   6   9  -7    2.10    9.40
   6   9  -7  -14.90    9.00
  -6  -9   7  -11.40    8.40
  -6  -9   7   14.40   12.20
  -6  -9   7   20.20   13.40
   5   9  -7   34.70   13.10
   5   9  -7   44.40   13.60
  -5  -9   7   64.99   19.70
  -5  -9   7   46.70   13.90
  -5  -9   7   46.80   12.10
   4   9  -7   -5.60   12.30
   4   9  -7   25.50   10.20
  -4  -9   7   17.20   11.30
  -4  -9   7   19.50   11.90
  -4  -9   7    8.10    8.50
  -3  -9   7   24.80   12.60
  -3  -9   7   21.10   13.70
  -3  -9   7   30.00   10.60
  -2  -9   7   14.30    9.90
  -2  -9   7    4.50    9.10
  -2  -9   7   16.30   12.60
  -1  -9   7   55.19   17.20
  -1  -9   7   73.49   15.60
  -1  -9   7   54.29   14.60
   0  -9   7   34.60   12.20
   0  -9   7   29.60   11.80
   1  -9   7   14.00    9.20
   1  -9   7   40.80   14.10
  10   8  -7   65.99   17.10
   9   8  -7    4.90   10.00
   9   8  -7   19.20   14.20
   9   8  -7   30.30    9.40
   8   8  -7   -0.20    9.00
   8   8  -7    8.20    6.70
   8   8  -7   -9.10    8.20
  -8  -8   7   39.50   17.20
   7   8  -7    8.20   10.50
   7   8  -7   11.00   11.90
   7   8  -7    3.50    6.50
  -7  -8   7   17.60   12.60
  -7  -8   7   14.00   14.20
   6   8  -7   11.70   10.70
   6   8  -7   21.90    9.30
   6   8  -7   13.90   10.20
  -6  -8   7   29.10   13.20
  -6  -8   7   14.00    7.30
  -6  -8   7   15.90   14.10
   5   8  -7    2.70    8.40
   5   8  -7   -0.80    7.70
  -5  -8   7   -3.00   10.50
  -5  -8   7   17.80   10.20
  -5  -8   7   -4.60    5.50
   4   8  -7   72.29   13.00
   4   8  -7   50.39   11.50
  -4  -8   7   51.29   14.10
  -4  -8   7   24.20    9.50
  -4  -8   7   74.09   18.10
   3   8  -7   34.10    9.20
   3   8  -7   15.10    7.90
  -3  -8   7   42.60   11.40
  -3  -8   7   37.40   12.30
  -3  -8   7   44.20   15.70
   2   8  -7   47.30   10.20
  -2  -8   7   56.49   14.20
  -2  -8   7   31.30   11.90
  -2  -8   7   17.40   12.00
  -1  -8   7   39.20   15.20
  -1  -8   7   27.90   10.10
  -1  -8   7   24.90   10.60
   0  -8   7    3.50    8.90
   0  -8   7   -2.90    6.30
   0  -8   7   19.30   12.10
   1  -8   7  146.69   25.00
   1  -8   7  134.39   20.00
   1  -8   7  153.78   23.30
   2  -8   7  135.59   22.50
   2  -8   7  142.29   24.20
   2  -8   7  144.89   23.00
   3  -8   7   -2.10    7.00
   3  -8   7   -5.30    9.80
   3  -8   7   -1.30   11.40
  10   7  -7   31.80    8.30
   9   7  -7   78.79   18.70
   9   7  -7   63.69   10.80
   9   7  -7   82.39   20.70
   8   7  -7  -14.70    7.30
   8   7  -7    0.20    8.70
   8   7  -7   -0.30    6.30
  -8  -7   7   41.40   13.70
   7   7  -7   43.60   10.70
   7   7  -7   55.89   13.90
   7   7  -7   37.60   15.00
  -7  -7   7   48.50   15.00
  -7  -7   7   73.19   14.90
   6   7  -7   26.90   10.30
   6   7  -7   25.90   11.10
   6   7  -7   18.90   11.00
  -6  -7   7   10.00    5.50
  -6  -7   7   11.00   11.90
   5   7  -7   81.29   15.10
   5   7  -7   74.49   15.50
   5   7  -7   71.99   13.30
  -5  -7   7  112.59   18.30
   4   7  -7   17.40    8.10
   4   7  -7   -2.60    5.40
   4   7  -7   15.60    7.70
  -4  -7   7   14.70   10.60
  -4  -7   7    8.70    8.70
   3   7  -7   81.99   10.70
   3   7  -7   64.69   12.80
  -3  -7   7  100.49   21.00
  -3  -7   7   83.49   16.10
   2   7  -7   11.50    5.60
   2   7  -7   16.00    6.30
  -2  -7   7    5.10   10.10
  -2  -7   7    6.90    7.50
   1   7  -7   42.30   10.00
  -1  -7   7   58.39   14.00
  -1  -7   7   75.09   18.00
   0  -7   7   31.60   13.20
   0  -7   7   51.39   19.40
   1  -7   7   14.80    9.80
   1  -7   7   24.10    9.40
   1  -7   7   21.10   11.50
   2  -7   7  126.89   24.30
   2  -7   7  103.49   16.20
   2  -7   7   78.69   16.60
   3  -7   7    5.80   10.80
   3  -7   7   17.50   12.30
   3  -7   7   12.70    5.70
   4  -7   7    5.10    8.60
   4  -7   7   12.50   12.30
   4  -7   7    4.10    9.70
  10   6  -7  109.59   12.30
  10   6  -7  104.79   18.60
  10   6  -7   80.19   21.10
   9   6  -7   11.40    8.90
   9   6  -7   22.70   14.30
   9   6  -7   26.50    8.60
   8   6  -7  398.96   29.20
   8   6  -7  357.46   33.90
   8   6  -7  348.17   23.10
  -8  -6   7  414.36   35.00
   7   6  -7   16.40   12.40
   7   6  -7   20.60   14.20
   7   6  -7   13.60    7.20
  -7  -6   7   24.20   13.10
  -7  -6   7   16.90   10.30
   6   6  -7   19.10   10.60
   6   6  -7   -1.00    5.80
   6   6  -7   10.10    8.40
  -6  -6   7    9.60    7.10
  -6  -6   7   27.70   12.90
   5   6  -7  259.27   22.90
   5   6  -7  264.77   21.40
   5   6  -7  245.48   18.40
  -5  -6   7  266.17   22.10
  -5  -6   7  267.87   26.40
   4   6  -7   30.90    8.10
   4   6  -7   41.40   11.60
  -4  -6   7   12.90    9.10
  -4  -6   7   24.70   12.00
   3   6  -7   86.69   11.00
   3   6  -7  128.09   13.70
   3   6  -7   85.59   12.60
  -3  -6   7  113.09   20.20
  -3  -6   7  109.79   16.40
   2   6  -7  253.17   18.90
   2   6  -7  263.07   15.70
  -2  -6   7  278.17   21.90
  -2  -6   7  259.17   24.30
   1   6  -7   38.10    5.20
  -1  -6   7   37.20   10.20
  -1  -6   7   38.30   12.90
   0   6  -7    2.30    4.90
   0  -6   7    1.50    4.20
   0  -6   7    4.40    6.10
   0  -6   7    0.00    6.30
  -1   6  -7   75.39   10.20
   1  -6   7   70.69   13.10
   1  -6   7  100.59   19.50
   2  -6   7  224.08   23.40
   3  -6   7  181.98   17.20
   3  -6   7  201.18   21.50
   3  -6   7  229.28   23.00
   4  -6   7   17.30    7.10
   4  -6   7   14.00   11.10
   4  -6   7    8.60    8.30
   5  -6   7   97.29   19.30
   5  -6   7   89.59   17.10
   5  -6   7  102.19   10.10
   6  -6   7  221.08   11.30
   6  -6   7  282.47   25.80
  10   5  -7    7.70    8.30
  10   5  -7    2.30    7.50
  10   5  -7   10.90    6.50
  10   5  -7   -0.10   10.90
   9   5  -7   -3.20   11.40
   9   5  -7   -6.80    5.80
   9   5  -7    2.00    8.20
   8   5  -7  279.47   23.40
   8   5  -7  274.17   22.20
   8   5  -7  284.17   18.70
   8   5  -7  270.07   29.30
   7   5  -7   25.30    6.90
   7   5  -7   16.90    9.20
   7   5  -7   15.90   12.90
   7   5  -7   39.00   14.40
  -7  -5   7   49.00   14.30
  -7  -5   7   26.00    8.80
   6   5  -7   35.50   10.20
   6   5  -7   44.70    9.10
   6   5  -7   44.20   13.80
  -6  -5   7   51.89   10.80
  -6  -5   7   47.90   15.20
   5   5  -7    8.90    5.80
   5   5  -7    9.40    7.70
   5   5  -7    9.40    7.00
  -5  -5   7    8.70    6.50
  -5  -5   7   12.30    9.10
   4   5  -7  328.27   21.90
   4   5  -7  290.97   22.30
   4   5  -7  310.07   18.90
  -4  -5   7  329.27   23.40
  -4  -5   7  351.46   27.20
   3   5  -7   -5.30    4.20
   3   5  -7   -0.80    5.10
   3   5  -7   -0.70    4.20
  -3  -5   7    2.20    6.10
  -3  -5   7   -0.10    5.70
   2   5  -7  401.66   22.60
   2   5  -7  414.46   21.50
   2   5  -7  412.06   23.80
  -2  -5   7  407.36   28.90
  -2  -5   7  417.26   26.00
   1   5  -7  211.38   11.20
   1   5  -7  206.98   15.70
  -1  -5   7  216.28   18.10
  -1  -5   7  176.68   19.00
   0   5  -7  103.19   10.50
   0  -5   7  103.89   18.10
   0  -5   7  115.59   13.60
   0  -5   7  115.19   12.80
   0  -5   7   82.39    9.00
  -1   5  -7   18.80    5.50
   1  -5   7   29.50    6.90
   1  -5   7   16.80    9.40
   1  -5   7   26.30    8.10
   1  -5   7   28.60    7.10
  -2   5  -7  104.29    9.20
   2  -5   7  131.79   13.90
   2  -5   7  142.39   20.90
   2  -5   7  121.09   10.80
   2  -5   7  110.69   10.90
   3  -5   7  431.76   25.10
   3  -5   7  410.76   22.00
   3  -5   7  456.95   20.10
   3  -5   7  474.05   30.50
   4  -5   7    6.90    5.40
   4  -5   7   -4.10    3.30
   4  -5   7   -7.00    6.20
   4  -5   7    5.80    8.00
   5  -5   7    5.60    4.70
   5  -5   7    3.70    7.70
   5  -5   7    5.00    9.10
   6  -5   7    7.90    9.30
   6  -5   7   21.20   12.20
   6  -5   7   15.90    4.20
   6  -5   7   22.00    4.10
   7  -5   7  -17.40    8.60
  10   4  -7    0.80   11.80
  10   4  -7   20.00    7.80
  10   4  -7   -6.90    8.00
  10   4  -7    9.20    7.80
   9   4  -7   -1.20    6.00
   9   4  -7  -13.20    8.70
   9   4  -7   19.30    9.40
   9   4  -7   -3.50    5.10
   8   4  -7   57.49   12.10
   8   4  -7   74.19   14.20
   8   4  -7   47.20    9.50
   8   4  -7   78.29   20.30
   7   4  -7   53.09    9.50
   7   4  -7   67.79   18.30
   7   4  -7   51.19   10.90
   7   4  -7   45.70   11.20
  -7  -4   7   59.59   15.20
  -7  -4   7   69.29   12.40
   6   4  -7   47.50   10.70
   6   4  -7   49.20    9.90
   6   4  -7   46.50   13.90
   6   4  -7   63.89    9.50
  -6  -4   7   80.09   16.20
  -6  -4   7   56.39   10.40
  -6  -4   7   35.30    4.90
   5   4  -7  377.36   21.50
   5   4  -7  340.47   22.40
   5   4  -7  356.96   27.10
   5   4  -7  368.76   19.80
  -5  -4   7  403.86   24.90
  -5  -4   7  354.66   26.40
   4   4  -7  425.86   23.90
   4   4  -7  412.96   26.40
   4   4  -7  407.26   20.80
   4   4  -7  392.56   21.40
  -4  -4   7  424.76   28.40
  -4  -4   7  408.86   25.10
   3   4  -7   43.80    9.50
   3   4  -7   50.69    9.40
  -3  -4   7   44.30   10.00
  -3  -4   7   54.69   14.50
   2   4  -7  280.77   16.60
   2   4  -7  273.67   17.10
   2   4  -7  311.47   18.60
  -2  -4   7  311.17   20.40
  -2  -4   7  274.97   23.90
  -2  -4   7  254.57   21.30
   1   4  -7    2.00    4.00
   1   4  -7   -1.30    2.60
  -1  -4   7    0.40    3.40
  -1  -4   7    5.50    7.10
  -1  -4   7   -3.40    6.30
  -1  -4   7    7.70    5.20
   0   4  -7  250.97   15.20
   0   4  -7  193.68   16.40
   0  -4   7  215.68   19.30
   0  -4   7  215.48   16.40
   0  -4   7  218.88   18.50
   0  -4   7  210.48   13.90
   1  -4   7   33.00    6.60
   1  -4   7   32.10    8.00
   1  -4   7   43.10   10.20
   1  -4   7   26.70   11.00
  -2   4  -7   97.99    7.60
  -2   4  -7   85.19    7.60
   2  -4   7  111.29   16.90
   2  -4   7  101.59    9.20
   2  -4   7   93.29   10.90
   2  -4   7   98.09   12.60
   3  -4   7   95.09   15.50
   3  -4   7   70.09   10.50
   3  -4   7   65.89    8.90
   3  -4   7   65.49    7.50
   4  -4   7   12.10    4.00
   4  -4   7   29.30    9.40
   4  -4   7   24.50    5.70
   4  -4   7   24.40    6.60
   5  -4   7   -1.30    3.70
   5  -4   7   13.40    7.70
   5  -4   7    7.00    9.20
   5  -4   7   -0.10    2.70
   6  -4   7  200.98   21.30
   6  -4   7  218.88   22.00
   6  -4   7  230.88   10.50
   6  -4   7  228.08   11.20
   7  -4   7  226.08   23.10
   7  -4   7  217.48   18.80
   7  -4   7  234.68   22.90
   8  -4   7    1.00    7.90
  10   3  -7   -1.40   10.00
  10   3  -7    4.20    6.40
  10   3  -7    1.80    5.90
  10   3  -7   -4.00   11.30
   9   3  -7   -0.20    5.50
   9   3  -7   -2.50    6.00
   9   3  -7    4.20   11.90
   9   3  -7   -5.30    6.90
   8   3  -7    8.60    5.70
   8   3  -7   -2.60    6.50
   8   3  -7   -2.50    5.80
   8   3  -7    3.40   11.70
   7   3  -7   57.19    9.50
   7   3  -7   91.89   19.90
   7   3  -7   65.19   11.90
   7   3  -7   63.09   11.70
  -7  -3   7   70.49   11.10
   6   3  -7    5.00    5.70
   6   3  -7   -0.20    4.00
   6   3  -7   -0.40    4.90
   6   3  -7   -4.70    3.30
  -6  -3   7   -4.20    4.00
  -6  -3   7    8.40    6.20
   5   3  -7  107.49   11.30
   5   3  -7  117.69   11.70
   5   3  -7   89.89   12.20
   5   3  -7  100.99    9.30
  -5  -3   7   80.99    6.30
  -5  -3   7  108.29   12.20
   4   3  -7  101.09   10.30
   4   3  -7   93.09    9.10
   4   3  -7  111.49   11.40
   4   3  -7  102.59   10.20
  -4  -3   7  120.49   17.10
  -4  -3   7  101.29   11.60
   3   3  -7   55.49    7.80
   3   3  -7   61.09    9.40
   3   3  -7   38.20    6.70
  -3  -3   7   39.30   12.30
  -3  -3   7   53.99    9.80
  -3  -3   7   63.99   12.20
   2   3  -7  165.48   10.70
   2   3  -7  176.78   12.60
   2   3  -7  149.39   10.70
  -2  -3   7  182.08   18.30
  -2  -3   7  183.78   14.20
  -2  -3   7  179.98   16.00
   1   3  -7   61.09    7.90
   1   3  -7   61.09    6.90
  -1  -3   7   60.59   11.80
  -1  -3   7   74.39   14.00
  -1  -3   7   67.19   10.30
  -1  -3   7   54.39    6.30
   0   3  -7  327.77   17.20
   0   3  -7  299.27   14.70
   0   3  -7  345.97   13.50
   0   3  -7  361.36   17.90
   0  -3   7  321.47   19.20
   0  -3   7  345.07   22.00
   0  -3   7  330.77   14.80
   0  -3   7  330.47   22.80
   0  -3   7  326.17   16.80
   1  -3   7  534.45   25.90
   1  -3   7  538.65   29.50
   1  -3   7  524.85   29.40
   1  -3   7  554.34   24.00
   1  -3   7  551.34   21.10
  -2   3  -7   88.89    7.30
   2  -3   7   85.89    7.80
   2  -3   7   89.69   12.90
   2  -3   7   92.09   14.20
   3  -3   7  737.53   34.30
   3  -3   7  755.72   32.30
   3  -3   7  745.83   29.60
   4  -3   7   16.80    6.20
   4  -3   7   21.30    5.50
   4  -3   7    7.10    6.40
   5  -3   7   38.20    6.60
   5  -3   7   60.09   12.80
   5  -3   7   41.10    5.30
   5  -3   7   39.70    8.90
   6  -3   7  157.08   17.90
   6  -3   7  164.88   14.40
   6  -3   7  154.68    7.50
   6  -3   7  180.18   18.70
   6  -3   7  143.69   10.50
   6  -3   7  154.68    8.30
   7  -3   7   22.50   10.80
   7  -3   7    0.70    7.10
   7  -3   7    1.90    5.90
   8  -3   7  116.69   17.10
   8  -3   7  124.59   12.80
   8  -3   7  174.38   19.60
  10   2  -7   -2.60   11.10
  10   2  -7    1.50    5.40
  10   2  -7  -23.90    7.80
  10   2  -7   -4.80    6.80
   9   2  -7   11.00    7.30
   9   2  -7   21.70    7.80
   9   2  -7   17.30    9.40
   9   2  -7   21.70   14.00
   8   2  -7  240.98   18.50
   8   2  -7  212.68   26.50
   8   2  -7  224.68   20.80
   8   2  -7  227.28   16.40
   7   2  -7   15.00    7.00
   7   2  -7   17.00    6.20
   7   2  -7   17.20    7.80
   7   2  -7   21.10    6.90
   6   2  -7  384.06   19.70
   6   2  -7  349.87   15.00
   6   2  -7  354.96   21.80
   6   2  -7  341.17   21.00
   6   2  -7  375.86   21.60
  -6  -2   7  343.37   16.40
  -6  -2   7  342.97   22.80
   5   2  -7    1.60    2.90
   5   2  -7   -1.80    4.40
   5   2  -7    1.20    4.00
   5   2  -7   -2.50    1.60
   5   2  -7    3.90    4.80
  -5  -2   7    1.10    5.70
  -5  -2   7   -1.30    1.90
  -5  -2   7    3.00    4.60
   4   2  -7  340.27   19.60
   4   2  -7  366.16   17.80
   4   2  -7  358.56   15.70
   4   2  -7  358.36   19.40
   4   2  -7  351.66   19.70
  -4  -2   7  358.96   22.30
  -4  -2   7  338.77   15.30
  -4  -2   7  372.76   20.80
   3   2  -7    3.20    3.60
   3   2  -7    0.60    2.60
   3   2  -7   -0.10    2.00
   3   2  -7    1.90    2.90
   3   2  -7   -0.70    2.90
  -3  -2   7    5.80    5.20
  -3  -2   7    3.30    2.20
  -3  -2   7    2.10    7.10
  -3  -2   7    0.10    3.50
   2   2  -7    2.90    2.80
   2   2  -7    3.70    3.40
   2   2  -7    5.30    3.40
   2   2  -7    5.00    3.90
  -2  -2   7    1.50    5.70
  -2  -2   7    6.50    5.50
  -2  -2   7    5.20    4.00
   1   2  -7 4582.74  146.39
   1   2  -7 4579.14  145.29
  -1  -2   7 4564.64  153.38
  -1  -2   7 4568.84  150.68
  -1  -2   7 4521.75  158.28
  -1  -2   7 4346.06  146.99
  -1  -2   7 4525.65  145.39
   0   2  -7  194.08   12.70
   0   2  -7  199.78   12.10
   0   2  -7  222.48   12.00
   0  -2   7  223.68   10.20
   0  -2   7  206.38   15.60
   0  -2   7  225.58   12.10
   0  -2   7  223.78   14.30
   0  -2   7  200.28   16.80
  -1   2  -7  100.29    8.00
  -1   2  -7   99.69    7.80
  -1   2  -7   98.19    9.90
   1  -2   7  108.79    5.90
   1  -2   7  107.39    7.80
   1  -2   7   95.39    9.00
   1  -2   7  121.59   11.50
   1  -2   7  116.39   12.10
  -2   2  -7   61.79    5.80
   2  -2   7   62.69    6.10
   2  -2   7   63.59   11.00
   2  -2   7   58.29   10.40
   2  -2   7   60.79    8.40
   2  -2   7   56.49    4.00
   3  -2   7  411.36   19.80
   3  -2   7  408.96   23.30
   3  -2   7  397.36   17.60
   3  -2   7  419.46   22.10
   4  -2   7    4.00    2.50
   4  -2   7    8.00    5.60
   4  -2   7    8.40    3.90
   4  -2   7    5.20    2.40
   5  -2   7  106.99    8.50
   5  -2   7  119.99   11.70
   5  -2   7  118.99    7.20
   5  -2   7  128.19    8.80
   5  -2   7  104.99    7.60
   5  -2   7  125.99    9.10
   5  -2   7   95.49   15.00
   6  -2   7   86.19    5.50
   6  -2   7   78.89   10.50
   6  -2   7   82.29   13.80
   6  -2   7   92.49    8.70
   6  -2   7   79.99    7.40
   7  -2   7   37.00    5.80
   7  -2   7   42.30    7.90
   7  -2   7   44.10   12.50
   7  -2   7   18.60    8.30
   7  -2   7   37.60    7.50
   7  -2   7   37.80    9.70
   8  -2   7   21.60    9.80
   8  -2   7   11.40    6.00
   8  -2   7   10.50    9.30
   9  -2   7    7.60    9.80
   9  -2   7   34.60   12.90
  10   1  -7  -10.10    8.90
  10   1  -7   -3.10   14.60
  10   1  -7    1.20    8.20
  10   1  -7    9.00    7.00
   9   1  -7   92.99   23.30
   9   1  -7   81.79   15.40
   9   1  -7   95.49   13.20
   9   1  -7   80.39   12.20
   8   1  -7  123.59   13.00
   8   1  -7  124.49   12.30
   8   1  -7  101.29   15.70
   7   1  -7   24.90    6.90
   7   1  -7   26.10    9.00
   7   1  -7   16.40    5.90
   7   1  -7   10.10    6.00
   7   1  -7   16.30    3.50
   6   1  -7  610.94   27.70
   6   1  -7  599.74   23.40
   6   1  -7  593.94   30.60
   6   1  -7  595.64   28.80
  -6  -1   7  641.64   28.20
   5   1  -7   17.80    6.50
   5   1  -7   18.90    3.60
   5   1  -7   23.80    5.90
   5   1  -7   15.40    5.10
   5   1  -7   28.10    6.90
  -5  -1   7   26.00    7.40
  -5  -1   7   26.90    5.80
   4   1  -7  633.14   28.00
   4   1  -7  598.74   27.20
   4   1  -7  626.34   27.90
   4   1  -7  655.73   23.80
   4   1  -7  608.44   25.90
  -4  -1   7  595.84   28.80
  -4  -1   7  574.04   26.40
  -4  -1   7  611.94   28.30
   3   1  -7   76.39    7.50
   3   1  -7   81.59    8.20
   3   1  -7   71.39    6.80
   3   1  -7   73.19    7.30
   3   1  -7   60.99    5.20
  -3  -1   7   60.79    5.20
  -3  -1   7   84.19    8.80
  -3  -1   7   69.09   14.50
  -3  -1   7   71.09   10.30
   2   1  -7 1534.35   56.39
   2   1  -7 1570.24   55.29
   2   1  -7 1505.95   55.89
   2   1  -7 1505.95   52.49
   2   1  -7 1613.54   54.49
   2   1  -7 1540.15   53.39
  -2  -1   7 1546.15   58.49
  -2  -1   7 1531.45   65.69
  -2  -1   7 1627.54   57.69
  -2  -1   7 1522.55   52.39
   1   1  -7  280.47   14.70
   1   1  -7  273.97   12.80
   1   1  -7  276.37   14.20
   1   1  -7  268.47   12.70
   1   1  -7  258.97   12.40
   1   1  -7  273.37   14.80
  -1  -1   7  267.77   16.30
  -1  -1   7  276.07   15.60
  -1  -1   7  250.67   12.20
  -1  -1   7  261.37   12.10
  -1  -1   7  257.37   13.20
  -1  -1   7  243.98   19.40
   0   1  -7  401.36   15.10
   0   1  -7  370.56   17.60
   0   1  -7  338.27   19.80
   0   1  -7  393.86   16.40
   0   1  -7  416.36   17.80
   0   1  -7  383.46   20.40
   0  -1   7  382.46   15.00
   0  -1   7  374.26   15.70
   0  -1   7  389.46   18.90
   0  -1   7  334.87   22.50
   0  -1   7  398.16   17.20
   0  -1   7  421.86   20.80
  -1   1  -7  430.76   16.80
  -1   1  -7  399.06   16.70
  -1   1  -7  423.16   19.70
  -1   1  -7  363.96   16.90
   1  -1   7  377.86   19.90
   1  -1   7  368.76   18.30
   1  -1   7  391.96   17.00
   1  -1   7  391.96   14.10
   1  -1   7  368.06   15.70
   1  -1   7  376.86   21.70
  -2   1  -7 2474.55   80.79
  -2   1  -7 2567.14   81.79
  -2   1  -7 2485.95   79.79
   2  -1   7 2434.16   82.69
   2  -1   7 2128.19   81.39
   2  -1   7 2458.65   80.89
   2  -1   7 2482.85   80.09
   2  -1   7 2566.34   86.39
   2  -1   7 2453.75   85.69
  -3   1  -7   29.20    3.40
   3  -1   7   36.00    4.70
   3  -1   7   31.90    5.60
   3  -1   7   43.10    8.10
   3  -1   7   29.80    7.40
   3  -1   7   28.00    4.30
   3  -1   7   27.20    2.00
   3  -1   7   36.80    5.50
   4  -1   7   15.10    6.50
   4  -1   7   15.50    3.20
   4  -1   7   14.60    2.40
   4  -1   7    9.70    4.40
   4  -1   7   19.70    4.40
   4  -1   7   16.60    5.70
   5  -1   7 2013.60   67.29
   5  -1   7 1940.71   74.49
   5  -1   7 2047.40   73.59
   5  -1   7 1989.20   70.49
   5  -1   7 1991.70   65.49
   5  -1   7 1960.50   65.49
   6  -1   7    0.70    5.40
   6  -1   7    3.40    1.80
   6  -1   7    6.20    2.90
   6  -1   7    8.20    5.50
   6  -1   7    8.30    2.40
   6  -1   7    1.70    4.50
   7  -1   7   76.19    7.60
   7  -1   7   90.59   11.00
   7  -1   7  102.29   16.30
   7  -1   7   99.99   12.40
   7  -1   7   73.09   11.50
   7  -1   7  102.99    8.90
   8  -1   7  126.19   13.40
   8  -1   7  144.99   17.10
   8  -1   7  134.49   10.60
   8  -1   7  133.09   14.60
   8  -1   7  158.68   16.60
   8  -1   7  157.48   15.20
   9  -1   7   17.90   12.30
   9  -1   7    1.60    6.50
   9  -1   7   24.40   10.90
  10   0  -7  135.39   12.00
  10   0  -7  151.08   33.60
  10   0  -7   99.59   27.10
   9   0  -7    7.20   11.50
   9   0  -7   -1.30    8.70
   9   0  -7   -1.10    4.50
   9   0  -7    1.80    7.00
   8   0  -7   10.60    8.40
   8   0  -7    0.50    3.40
   8   0  -7   16.60    6.40
   8   0  -7   16.30    8.60
   7   0  -7   26.40    5.00
   7   0  -7   29.00    7.80
   7   0  -7   29.90    7.50
   7   0  -7   29.80    7.20
   7   0  -7   49.30   10.40
   6   0  -7   38.60    9.10
   6   0  -7   42.50    7.50
   6   0  -7   41.10    7.80
   6   0  -7   43.60    5.90
   6   0  -7   55.79    9.20
  -6   0   7   43.80    6.40
   5   0  -7  228.18   13.30
   5   0  -7  229.18   12.10
   5   0  -7  239.18   14.90
   5   0  -7  220.58   14.40
   5   0  -7  217.18   16.20
   5   0  -7  235.28   14.40
  -5   0   7  230.48   14.00
   4   0  -7    0.70    2.50
   4   0  -7   -1.90    3.30
   4   0  -7    2.60    3.60
   4   0  -7    6.20    3.90
   4   0  -7    6.70    3.30
   4   0  -7   -0.30    3.20
  -4   0   7    7.80    4.10
   3   0  -7  560.54   25.10
   3   0  -7  582.54   22.80
   3   0  -7  566.34   24.20
   3   0  -7  585.54   25.90
   3   0  -7  568.54   24.80
  -3   0   7  615.24   26.80
  -3   0   7  622.44   25.80
  -3   0   7  616.84   35.30
   2   0  -7    1.60    2.20
   2   0  -7    1.80    2.50
   2   0  -7   -1.80    2.20
   2   0  -7    1.40    2.60
   2   0  -7    1.00    2.50
   2   0  -7   -1.40    2.00
  -2   0   7   -2.90    1.50
  -2   0   7   -2.80    2.40
  -2   0   7    1.90    3.30
  -2   0   7   -1.00    5.10
   1   0  -7  260.47   12.40
   1   0  -7  258.77   13.20
   1   0  -7  245.08   11.90
   1   0  -7  265.67   13.90
   1   0  -7  276.47   12.70
  -1   0   7  267.57   19.70
  -1   0   7  281.57   14.90
  -1   0   7  240.98   11.80
  -1   0   7  254.97   12.60
  -1   0   7  275.27   13.40
  -1   0   7  257.07   14.60
   0   0  -7  577.54   21.90
   0   0  -7  561.14   22.40
   0   0  -7  535.15   19.70
   0   0  -7  478.75   26.00
   0   0  -7  525.35   20.70
   0   0  -7  568.54   25.20
   0   0  -7  531.45   22.00
   0   0  -7  519.55   20.10
   0   0   7  481.85   26.80
   0   0   7  530.95   23.30
   0   0   7  511.55   21.10
   0   0   7  516.65   20.00
   0   0   7  529.45   20.50
   0   0   7  534.45   22.90
  -1   0  -7  208.68   10.80
  -1   0  -7  219.58   13.10
  -1   0  -7  203.38   10.90
  -1   0  -7  212.48   10.90
  -1   0  -7  235.68   12.90
  -1   0  -7  212.78    8.10
  -1   0  -7  208.58   12.00
  -1   0  -7  219.38    9.90
   1   0   7  226.78    9.70
   1   0   7  201.78   10.20
   1   0   7  221.58   14.70
   1   0   7  205.28   10.60
   1   0   7  206.28   12.70
   1   0   7  165.98   13.90
   1   0   7  194.28   11.50
  -2   0  -7  716.13   28.20
  -2   0  -7  711.43   26.10
   2   0   7  729.73   25.50
   2   0   7  778.02   30.60
   2   0   7  746.83   31.20
   2   0   7  688.43   27.80
   2   0   7  746.13   27.30
   2   0   7  710.13   29.90
  -3   0  -7   49.90    6.00
  -3   0  -7   57.39    4.60
   3   0   7   64.29    7.60
   3   0   7   57.29    8.40
   3   0   7   58.29    5.10
   3   0   7   60.39    5.50
   3   0   7   60.19    4.30
   4   0   7  104.39    7.20
   4   0   7   99.09    6.10
   4   0   7  112.49   10.70
   4   0   7  106.99    6.90
   4   0   7   90.49    9.70
   4   0   7  107.09    9.20
   5   0   7  346.97   14.30
   5   0   7  307.37   14.80
   5   0   7  319.67   20.00
   5   0   7  345.87   13.50
   5   0   7  351.06   14.70
   5   0   7  366.36   19.70
   5   0   7  338.07   20.20
   6   0   7    1.00    2.20
   6   0   7    5.40    2.30
   6   0   7   -1.40    4.30
   6   0   7   -3.60    5.50
   6   0   7    2.30    2.30
   6   0   7   -2.20    4.10
   6   0   7    0.60    2.20
   7   0   7  166.28   15.70
   7   0   7  167.48    9.90
   7   0   7  146.79    9.80
   7   0   7  170.28    7.50
   7   0   7  180.28   16.30
   7   0   7  188.98   16.30
   8   0   7  413.76   27.60
   8   0   7  431.96   23.90
   8   0   7  410.96   27.20
   8   0   7  411.56   18.00
   8   0   7  422.86   19.50
   8   0   7  408.26   27.20
   9   0   7    6.30    8.80
   9   0   7    5.30    9.40
   9   0   7    4.10    8.70
   9   0   7   22.30    6.50
  10   0   7  149.59   18.00
  10   0   7   77.19   16.40
   9  -1  -7  148.99   15.70
   9  -1  -7  140.49   11.90
   9  -1  -7  167.48   32.30
   8  -1  -7  217.88   14.00
   8  -1  -7  214.18   15.60
   8  -1  -7  240.98   17.80
   8  -1  -7  230.38   21.10
   7  -1  -7   61.79   10.40
   7  -1  -7   72.69    7.70
   6  -1  -7  151.68   14.90
   6  -1  -7  126.59   11.40
   6  -1  -7  145.99   10.50
   6  -1  -7  138.69    7.40
   6  -1  -7  146.29   12.40
   5  -1  -7 1467.05   55.29
   5  -1  -7 1555.24   55.99
   5  -1  -7 1410.26   50.79
   5  -1  -7 1610.24   54.69
   5  -1  -7 1580.04   60.09
   5  -1  -7 1517.95   56.79
  -5   1   7 1495.75   55.19
   4  -1  -7  269.77   14.10
   4  -1  -7  261.07   14.80
   4  -1  -7  266.27   17.00
   4  -1  -7  262.67   14.90
   4  -1  -7  255.07   11.60
  -4   1   7  267.67   15.20
   3  -1  -7  590.04   24.30
   3  -1  -7  565.74   21.20
   3  -1  -7  574.44   24.70
   3  -1  -7  575.84   23.40
   3  -1  -7  578.84   24.50
  -3   1   7  603.44   34.10
  -3   1   7  522.25   21.80
   2  -1  -7   50.89    4.40
   2  -1  -7   48.00    5.50
   2  -1  -7   48.30    5.20
   2  -1  -7   47.90    5.60
   2  -1  -7   58.89    7.50
  -2   1   7   46.40    5.00
  -2   1   7   42.30    6.90
  -2   1   7   60.39   12.30
   1  -1  -7  230.38   12.30
   1  -1  -7  208.98   10.90
   1  -1  -7  214.28   11.70
   1  -1  -7  248.98   11.50
   1  -1  -7  233.68   15.10
   1  -1  -7  222.58   10.50
  -1   1   7  208.78   12.40
  -1   1   7  202.98   12.50
  -1   1   7  216.58   11.40
  -1   1   7  220.58   11.70
  -1   1   7  195.88   16.60
   0  -1  -7 1495.45   53.19
   0  -1  -7 1425.96   48.20
   0  -1  -7 1477.85   49.99
   0  -1  -7 1490.85   57.89
   0  -1  -7 1382.36   48.70
   0   1   7 1406.26   55.79
   0   1   7 1378.56   49.30
   0   1   7 1382.36   48.40
   0   1   7 1459.25   50.89
   0   1   7 1431.56   49.20
  -1  -1  -7   -1.60    2.10
  -1  -1  -7    5.30    2.00
  -1  -1  -7   -1.30    4.20
  -1  -1  -7    3.70    2.30
  -1  -1  -7    1.10    2.50
  -1  -1  -7    1.60    3.00
   1   1   7    3.30    2.10
   1   1   7    0.70    2.10
   1   1   7    1.50    1.70
   1   1   7    0.30    2.70
   1   1   7    0.60    5.00
   1   1   7    2.10    4.30
   1   1   7    0.10    3.00
  -2  -1  -7  146.19   11.60
  -2  -1  -7  121.59    7.60
  -2  -1  -7  124.29    7.70
  -2  -1  -7  132.19    6.30
   2   1   7  134.99    6.20
   2   1   7  112.89    8.10
   2   1   7  127.69    7.40
   2   1   7  139.19   10.60
   2   1   7  134.19    8.20
   2   1   7  127.09    9.30
   2   1   7  150.78   11.80
  -3  -1  -7   38.70    6.70
  -3  -1  -7   33.50    4.60
   3   1   7   36.80    4.90
   3   1   7   31.50    2.60
   3   1   7   33.00    4.90
   3   1   7   43.90    7.60
   3   1   7   29.60    4.00
   3   1   7   42.40    7.30
  -4  -1  -7  307.77   12.70
   4   1   7  321.17   18.10
   4   1   7  323.47   14.50
   4   1   7  320.57   11.40
   4   1   7  307.77   18.20
   5   1   7 1146.09   46.80
   5   1   7 1156.88   37.40
   5   1   7 1115.59   40.40
   5   1   7 1134.19   47.00
   5   1   7 1101.19   36.80
   6   1   7  995.70   32.70
   6   1   7  932.01   32.20
   6   1   7  995.70   35.90
   6   1   7  987.20   43.70
   6   1   7  944.21   34.20
   6   1   7  973.20   43.60
   6   1   7  977.50   35.10
   7   1   7   12.60    3.40
   7   1   7    5.00    3.20
   7   1   7   10.80    2.30
   7   1   7   10.20    7.00
   7   1   7   15.20    7.70
   7   1   7   19.80    8.80
   7   1   7    6.20    1.70
   8   1   7  110.49    6.50
   8   1   7  153.68   17.10
   8   1   7  116.49   15.20
   8   1   7   95.39    5.90
   8   1   7  106.59    8.60
   8   1   7  111.19   10.40
   8   1   7  113.59    6.60
   8   1   7  124.99   18.40
   9   1   7   33.50   11.10
   9   1   7   34.60   11.60
   9   1   7   23.10   11.30
  10   1   7   70.69   16.40
  10   1   7   73.69   16.90
  10   1   7   28.50   12.10
  11   1   7   10.20   10.50
  11   1   7    5.00   11.90
   9  -2  -7    4.20    4.50
   9  -2  -7   -8.50    8.60
   9  -2  -7    7.50    8.70
   8  -2  -7    5.70    4.80
   8  -2  -7    7.00    7.50
   8  -2  -7   -4.70    5.50
   8  -2  -7  -12.40    3.90
   7  -2  -7    0.30    6.00
   7  -2  -7    8.20    4.90
   7  -2  -7   -7.50    5.90
   7  -2  -7    5.60    4.90
   6  -2  -7   87.49    9.50
   6  -2  -7  100.29   14.30
   6  -2  -7  116.69   10.60
   6  -2  -7  113.79   12.30
   6  -2  -7  120.19   10.50
   5  -2  -7    0.50    4.40
   5  -2  -7    1.90    3.30
   5  -2  -7    3.60    5.40
   5  -2  -7   -4.70    3.20
   5  -2  -7    2.30    3.40
   4  -2  -7   55.09    8.00
   4  -2  -7   52.09    7.50
   4  -2  -7   54.89    7.80
   4  -2  -7   48.30    8.10
  -4   2   7   64.89    6.80
   3  -2  -7    9.50    4.50
   3  -2  -7    5.60    3.80
   3  -2  -7    8.80    3.70
   3  -2  -7   16.50    4.90
  -3   2   7    3.80    5.50
   2  -2  -7 1434.66   50.49
   2  -2  -7 1364.06   50.39
   2  -2  -7 1404.46   49.90
   2  -2  -7 1400.26   50.49
  -2   2   7 1331.77   44.80
  -2   2   7 1407.66   50.79
  -2   2   7 1484.35   59.59
   1  -2  -7  283.37   14.40
   1  -2  -7  294.17   16.30
   1  -2  -7  274.07   13.80
   1  -2  -7  264.47   13.50
   1  -2  -7  265.97   13.50
  -1   2   7  278.87   12.00
  -1   2   7  243.18   18.20
  -1   2   7  271.27   14.40
   0  -2  -7  158.18   10.80
   0  -2  -7  159.28    8.70
   0  -2  -7  147.99    9.30
   0  -2  -7  163.28    9.90
   0  -2  -7  144.29    8.80
   0   2   7  158.88    8.50
   0   2   7  140.19    9.10
   0   2   7  148.89    8.80
   0   2   7  142.79   12.40
   0   2   7  150.58    9.80
   0   2   7  109.19   14.20
  -1  -2  -7 5033.00  163.48
  -1  -2  -7 5092.29  164.38
  -1  -2  -7 5788.02  171.78
  -1  -2  -7 5123.39  165.28
  -1  -2  -7 5397.56  167.28
   1   2   7 4825.92  173.48
   1   2   7 4868.61  164.08
   1   2   7 4970.70  162.78
   1   2   7 5158.78  167.98
   1   2   7 5044.80  164.88
  -2  -2  -7   47.20    5.90
  -2  -2  -7   31.10    2.80
  -2  -2  -7   31.70    4.20
  -2  -2  -7   47.60    6.70
   2   2   7   46.60    6.30
   2   2   7   30.20    5.30
   2   2   7   44.60    9.10
   2   2   7   28.20    3.00
   2   2   7   29.50    4.10
   2   2   7   38.90    7.10
  -3  -2  -7   33.70    2.10
  -3  -2  -7   37.90    4.00
  -3  -2  -7   41.70    5.20
  -3  -2  -7   33.80    3.10
   3   2   7   41.00    8.30
   3   2   7   32.90    5.10
   3   2   7   34.80    3.90
   3   2   7   35.80    5.50
   3   2   7   39.40    7.20
  -4  -2  -7  301.57   13.10
  -4  -2  -7  270.47   11.70
  -4  -2  -7  277.77   13.20
   4   2   7  287.67   17.60
   4   2   7  283.87   12.80
   4   2   7  281.97   14.20
   4   2   7  297.07   18.10
   4   2   7  315.97   14.90
  -5  -2  -7   12.30    2.40
   5   2   7    8.20    2.60
   5   2   7    6.00    3.50
   5   2   7   13.40    6.00
   5   2   7   13.10    6.00
   5   2   7    4.50    3.30
   6   2   7  349.67   16.40
   6   2   7  347.37   22.70
   6   2   7  301.17   21.40
   6   2   7  336.77   16.90
   7   2   7   -0.60    5.50
   7   2   7    8.10    7.40
   7   2   7    5.40    3.30
   7   2   7    4.50    2.90
   8   2   7   46.50   12.50
   8   2   7   27.40    9.30
   8   2   7   32.10    5.70
   8   2   7   22.30    4.80
   9   2   7  136.39    9.20
   9   2   7  170.98   20.50
   9   2   7  147.09   18.20
   9   2   7  146.19    9.90
  10   2   7   47.70   15.30
  10   2   7   38.30   13.30
  10   2   7   44.90   14.50
  11   2   7   43.10   14.90
  11   2   7    1.80    9.70
   9  -3  -7    2.90    3.50
   8  -3  -7   49.20    7.60
   8  -3  -7   37.30   12.40
   8  -3  -7   58.79   12.10
   8  -3  -7   34.60    9.00
   7  -3  -7   26.20    7.80
   7  -3  -7   29.70    6.70
   7  -3  -7   20.90   10.30
   7  -3  -7   34.80    9.90
   6  -3  -7   61.09   10.00
   6  -3  -7   84.79    8.80
   6  -3  -7   78.39   13.90
   6  -3  -7   74.49   15.90
   5  -3  -7  129.29   12.30
   5  -3  -7  128.39   13.00
   5  -3  -7  122.49   10.70
   5  -3  -7  143.29   11.00
   4  -3  -7  142.09   11.90
   4  -3  -7  140.09   12.30
   4  -3  -7  154.28   11.60
   4  -3  -7  155.18   11.20
   3  -3  -7    2.80    4.00
   3  -3  -7    7.70    3.80
   3  -3  -7    2.10    3.30
   3  -3  -7    9.40    4.10
  -3   3   7    2.00    3.70
   2  -3  -7  274.57   15.00
   2  -3  -7  257.07   14.10
   2  -3  -7  226.48   14.40
   2  -3  -7  249.18   15.10
   2  -3  -7  252.27   16.80
  -2   3   7  259.07   15.10
  -2   3   7  280.07   19.70
   1  -3  -7  384.96   18.60
   1  -3  -7  409.86   19.60
   1  -3  -7  434.66   19.70
   1  -3  -7  398.56   19.40
   1  -3  -7  418.36   19.20
  -1   3   7  400.16   14.80
  -1   3   7  398.76   14.50
  -1   3   7  377.16   23.00
  -1   3   7  413.06   19.10
   0  -3  -7 1162.28   44.30
   0  -3  -7 1248.78   43.90
   0  -3  -7 1301.07   45.40
   0  -3  -7 1265.77   45.40
   0  -3  -7 1164.48   44.10
   0   3   7 1168.88   48.00
  -1  -3  -7 1466.05   49.80
  -1  -3  -7 1471.85   50.99
  -1  -3  -7 1423.76   51.39
  -1  -3  -7 1431.46   52.19
  -1  -3  -7 1528.25   53.19
   1   3   7 1393.56   52.09
   1   3   7 1390.86   60.99
   1   3   7 1470.25   51.99
   1   3   7 1481.25   53.69
  -2  -3  -7  629.84   26.00
  -2  -3  -7  663.53   24.90
  -2  -3  -7  632.64   23.20
   2   3   7  635.54   27.00
   2   3   7  632.84   26.40
   2   3   7  643.24   27.80
   2   3   7  677.03   32.60
  -3  -3  -7 1113.49   38.30
  -3  -3  -7 1104.19   40.00
  -3  -3  -7 1088.59   35.60
   3   3   7 1100.59   40.90
   3   3   7 1112.59   46.00
   3   3   7 1084.29   39.30
   3   3   7 1056.09   41.40
   3   3   7 1095.59   43.30
  -4  -3  -7  582.64   24.10
  -4  -3  -7  586.14   22.60
  -4  -3  -7  609.84   23.00
   4   3   7  616.84   25.60
   4   3   7  598.64   26.20
   4   3   7  616.74   29.00
   4   3   7  619.74   30.50
   4   3   7  590.34   23.30
  -5  -3  -7  328.37   14.90
  -5  -3  -7  299.47   14.30
   5   3   7  314.27   14.10
   5   3   7  318.37   17.40
   5   3   7  320.17   20.60
   5   3   7  346.87   22.30
   5   3   7  325.77   16.70
  -6  -3  -7   14.90    2.90
   6   3   7   12.00    4.20
   6   3   7   12.80    5.00
   6   3   7   11.50    2.70
   6   3   7    6.60    8.20
   6   3   7    9.50    6.90
   7   3   7   75.59    8.30
   7   3   7   69.29   13.60
   7   3   7   76.29    7.60
   7   3   7   78.19    8.70
   7   3   7  103.89   14.10
   8   3   7   31.30   11.50
   8   3   7   18.50    5.30
   8   3   7   11.20    8.50
   8   3   7   11.70    2.70
   8   3   7   10.10    4.50
   9   3   7   54.29    7.80
   9   3   7   39.60   13.50
   9   3   7   68.59   17.00
   9   3   7   45.40    7.50
  10   3   7   97.29   20.00
  10   3   7  112.89   20.90
  11   3   7  -10.50   11.70
  11   3   7    6.00   10.60
  11   3   7   -0.20   11.40
   8  -4  -7   68.99   14.00
   8  -4  -7   76.59   14.00
   8  -4  -7   87.69    8.60
   8  -4  -7   56.59   12.10
   7  -4  -7    6.20    7.50
   7  -4  -7   11.80    4.80
   7  -4  -7   18.90    7.90
   7  -4  -7   12.10    8.10
   6  -4  -7   48.60    9.70
   6  -4  -7   34.00    7.40
   6  -4  -7   33.70    9.50
   5  -4  -7   68.69   11.50
   5  -4  -7   69.39    9.70
   5  -4  -7   65.29    9.00
   5  -4  -7   60.19   11.10
   4  -4  -7    1.00    4.30
   4  -4  -7   -3.10    4.10
   4  -4  -7    6.60    4.60
   4  -4  -7    1.00    3.50
   3  -4  -7  232.98   16.40
   3  -4  -7  227.98   14.40
   3  -4  -7  234.68   15.10
   3  -4  -7  266.37   17.20
  -3   4   7  246.18   14.10
   2  -4  -7   41.70    7.50
   2  -4  -7   50.59    8.50
   2  -4  -7   48.60    7.70
   2  -4  -7   52.09    8.40
   2  -4  -7   37.10    6.50
  -2   4   7   59.19   10.70
   1  -4  -7  201.08   12.90
   1  -4  -7  190.88   12.80
   1  -4  -7  186.28   13.20
   1  -4  -7  191.98   11.40
   1  -4  -7  185.58   12.40
  -1   4   7  136.59   19.80
  -1   4   7  180.08   15.00
  -1   4   7  189.08   12.30
   0  -4  -7  180.08   11.60
   0  -4  -7  197.78   12.60
   0  -4  -7  174.28   10.90
   0  -4  -7  177.58   12.00
   0  -4  -7  171.98   11.80
   0   4   7  170.78   13.40
   0   4   7  178.78    9.90
   0   4   7  185.88   12.00
   0   4   7  132.09   17.90
  -1  -4  -7  194.58   12.20
  -1  -4  -7  188.98   12.00
  -1  -4  -7  196.68   11.20
  -1  -4  -7  196.08   12.00
  -1  -4  -7  195.68   12.70
   1   4   7  187.28   12.20
   1   4   7  188.58   11.70
   1   4   7  196.38   19.30
   1   4   7  172.68   12.50
  -2  -4  -7 2212.88   78.59
  -2  -4  -7 2308.57   77.29
  -2  -4  -7 2261.47   75.79
   2   4   7 2385.86   87.89
   2   4   7 2341.37   79.19
   2   4   7 2262.77   79.39
   2   4   7 2194.88   81.99
  -3  -4  -7  337.67   13.70
  -3  -4  -7  313.57   16.80
  -3  -4  -7  342.67   15.20
   3   4   7  335.97   18.60
   3   4   7  337.47   19.60
   3   4   7  318.67   17.50
   3   4   7  330.67   21.70
  -4  -4  -7  616.64   25.70
  -4  -4  -7  590.54   19.70
  -4  -4  -7  590.94   22.60
  -4  -4  -7  587.34   19.70
   4   4   7  583.24   26.30
   4   4   7  549.74   26.70
   4   4   7  605.04   29.00
   4   4   7  566.34   30.80
  -5  -4  -7    2.50    3.10
  -5  -4  -7    2.80    2.20
   5   4   7   -0.10    3.10
   5   4   7    1.20    5.90
   5   4   7    1.40    5.10
   5   4   7    1.10    3.80
   5   4   7    1.20    1.80
  -6  -4  -7   25.80    4.90
   6   4   7   22.20    4.00
   6   4   7   21.50    6.10
   6   4   7   31.50    9.30
   6   4   7   32.70    6.60
   6   4   7   19.30    8.90
   7   4   7  343.37   24.60
   7   4   7  318.07   13.90
   7   4   7  355.86   19.30
   7   4   7  364.06   26.50
   7   4   7  340.77   20.20
   8   4   7   55.79    9.30
   8   4   7   47.20   12.90
   8   4   7   36.60    8.00
   8   4   7   50.69   14.70
   9   4   7  254.47   24.20
   9   4   7  207.38   15.10
  10   4   7   25.60    6.50
  10   4   7   32.40   14.80
  10   4   7   49.70   15.00
  11   4   7    8.10   12.50
  11   4   7   -3.70    6.70
  11   4   7  -16.20    8.50
   7  -5  -7   68.99   14.20
   7  -5  -7   63.79   12.10
   7  -5  -7   36.20    7.30
   7  -5  -7   55.79   12.90
   6  -5  -7   62.69   12.20
   6  -5  -7   81.29   13.50
   6  -5  -7   81.99    9.50
   5  -5  -7   80.19   12.90
   5  -5  -7   80.19   10.50
   5  -5  -7   62.49   12.00
   4  -5  -7  141.79   12.20
   4  -5  -7  149.49   12.80
   4  -5  -7  132.89   16.70
   4  -5  -7  150.38   15.30
   3  -5  -7  267.97   16.80
   3  -5  -7  326.27   20.20
   3  -5  -7  298.67   20.20
   3  -5  -7  259.27   17.40
   3  -5  -7  242.58   14.60
  -3   5   7  293.57   15.70
   2  -5  -7   53.79    8.80
   2  -5  -7   49.99    9.40
   2  -5  -7   53.29    9.30
   2  -5  -7   38.40    7.70
   2  -5  -7   41.30    5.00
  -2   5   7   44.60    8.50
   1  -5  -7  268.97   16.80
   1  -5  -7  230.58   16.30
   1  -5  -7  247.78   15.80
   1  -5  -7  252.87   15.80
  -1   5   7  154.98   32.70
  -1   5   7  223.68   15.80
   0  -5  -7   92.49    7.60
   0  -5  -7   79.09    9.00
   0  -5  -7   81.29    8.90
   0   5   7   91.59   19.80
   0   5   7   93.99    7.40
   0   5   7   90.29    9.00
   0   5   7   89.39   10.20
  -1  -5  -7    2.70    3.80
  -1  -5  -7    0.50    3.30
  -1  -5  -7    6.40    4.70
  -1  -5  -7    3.10    3.40
   1   5   7   16.20    4.20
   1   5   7    4.70    4.30
   1   5   7    2.70    4.00
   1   5   7    2.50    7.70
  -2  -5  -7 2262.67   80.99
  -2  -5  -7 2316.97   79.49
   2   5   7 2246.08   80.49
   2   5   7 2242.58   79.69
   2   5   7 2375.76   91.29
  -3  -5  -7  135.49   11.30
  -3  -5  -7  138.59    9.60
   3   5   7  132.29   11.20
   3   5   7  147.69   15.80
   3   5   7  116.19   10.80
  -4  -5  -7  177.58   13.90
  -4  -5  -7  174.98    8.50
  -4  -5  -7  165.18    9.80
   4   5   7  181.58   13.40
   4   5   7  139.59   15.40
   4   5   7  136.49   12.00
   4   5   7  161.98   13.70
  -5  -5  -7  355.36   12.70
  -5  -5  -7  363.06   13.00
  -5  -5  -7  374.76   19.50
  -5  -5  -7  376.36   15.80
   5   5   7  366.66   20.70
   5   5   7  360.06   22.80
   5   5   7  351.76   23.10
   5   5   7  363.66   25.40
  -6  -5  -7   58.09    5.00
  -6  -5  -7   61.29    7.20
   6   5   7   59.59    9.70
   6   5   7   65.39    9.90
   6   5   7   48.80   13.20
   6   5   7   50.89    5.30
   6   5   7   76.39   13.20
  -7  -5  -7  612.94   27.20
   7   5   7  659.83   31.10
   7   5   7  609.04   23.60
   7   5   7  703.43   37.80
   7   5   7  638.44   32.50
   7   5   7  718.83   40.30
   8   5   7  263.67   25.30
   8   5   7  283.17   18.80
   8   5   7  289.77   24.60
   9   5   7   25.10    7.70
   9   5   7   21.70   10.80
   9   5   7   20.60   12.00
  10   5   7   61.59   10.40
  10   5   7   39.00   16.60
  10   5   7   49.99   15.00
  11   5   7   60.49   16.40
  11   5   7   66.49   10.70
   6  -6  -7   21.70    9.50
   6  -6  -7   11.00    7.70
   6  -6  -7   24.10    6.70
   5  -6  -7  229.78   20.50
   5  -6  -7  221.08   20.30
   5  -6  -7  219.88   15.70
   4  -6  -7    5.90    5.40
   4  -6  -7    2.40    5.80
   4  -6  -7    6.30    6.40
   3  -6  -7  101.19   14.60
   3  -6  -7  107.39   13.00
   3  -6  -7   68.69   12.50
   2  -6  -7    2.60    4.40
   2  -6  -7   19.00    6.60
   2  -6  -7    5.10    5.50
   2  -6  -7    6.60    5.90
  -2   6   7   -2.70    4.50
   1  -6  -7   -1.60    3.40
   1  -6  -7   -2.30    3.30
   1  -6  -7   -0.30    4.30
   1  -6  -7    3.00    5.00
  -1   6   7   -2.40    8.80
  -1   6   7    2.40    3.50
   0  -6  -7   13.20    5.50
   0  -6  -7   16.80    6.00
   0  -6  -7   14.70    6.40
   0  -6  -7    8.20    5.50
   0   6   7   15.20    5.90
   0   6   7    1.50    9.30
   0   6   7   14.90    5.60
  -1  -6  -7  150.68   12.60
   1   6   7  118.89   11.30
   1   6   7  118.59   10.80
   1   6   7  124.89   24.50
  -2  -6  -7  100.69   10.90
  -2  -6  -7   94.69   10.30
   2   6   7   82.79    9.10
   2   6   7   99.29   21.20
   2   6   7  107.89   13.00
  -3  -6  -7   92.69   10.50
  -3  -6  -7   93.79    8.80
   3   6   7   85.29    9.80
   3   6   7   89.89   10.60
   3   6   7  110.79   18.80
  -4  -6  -7   -0.40    4.50
  -4  -6  -7   -2.20    2.10
   4   6   7    2.10    4.30
   4   6   7    4.70    4.80
   4   6   7   -2.20    6.40
  -5  -6  -7   28.30    7.40
  -5  -6  -7   40.00    5.50
  -5  -6  -7   30.10    4.00
   5   6   7   21.80    6.70
   5   6   7   26.10    9.70
   5   6   7   15.10    7.30
  -6  -6  -7  254.97    9.70
  -6  -6  -7  276.47   12.50
  -6  -6  -7  261.57   10.00
  -6  -6  -7  254.97   17.00
   6   6   7  259.97   19.10
   6   6   7  247.78   18.20
   6   6   7  266.87   23.30
   6   6   7  269.87   21.00
  -7  -6  -7   11.00    4.70
   7   6   7    4.90    9.00
   7   6   7    7.40    6.40
   7   6   7   16.90    8.70
   8   6   7  518.55   28.70
   8   6   7  553.34   35.20
   8   6   7  508.55   36.70
   9   6   7   28.50   12.40
   9   6   7   31.80   14.10
   9   6   7   36.80    9.70
  10   6   7   13.00   10.60
  10   6   7   12.90   12.40
  10   6   7    6.80    6.70
  11   6   7   -0.40    6.40
  11   6   7   -2.40   10.20
   5  -7  -7  211.18   15.70
   5  -7  -7  178.88   18.80
   5  -7  -7  168.38   19.60
   4  -7  -7    6.10    5.30
   4  -7  -7   -7.70    4.90
   4  -7  -7   -1.30    5.80
   3  -7  -7  208.78   16.50
   3  -7  -7  179.48   18.50
   3  -7  -7  223.88   20.50
   2  -7  -7  262.77   20.80
   2  -7  -7  207.68   17.00
   2  -7  -7  239.08   20.40
   1  -7  -7    3.90    5.40
   1  -7  -7   -3.30    4.30
   1  -7  -7    4.40    5.60
  -1   7   7   17.60   12.00
   0  -7  -7   -2.70    4.40
   0  -7  -7    3.70    4.90
   0   7   7    4.20    9.20
   0   7   7    5.90    3.20
   0   7   7   10.70    5.30
   0   7   7   -8.90    4.60
  -1  -7  -7  194.48   16.00
  -1  -7  -7  196.58   16.10
   1   7   7  168.18   23.60
   1   7   7  193.88   14.70
   1   7   7  192.88   13.20
  -2  -7  -7   72.89   10.50
  -2  -7  -7   90.39   13.00
   2   7   7   72.99    8.90
   2   7   7   74.59   11.40
   2   7   7   65.69   17.50
  -3  -7  -7   11.00    4.90
  -3  -7  -7    3.90    5.00
   3   7   7    5.20    5.10
   3   7   7   -0.60    8.20
   3   7   7    1.70    4.70
  -4  -7  -7   62.39   11.00
  -4  -7  -7   45.20    8.00
   4   7   7   60.29   12.10
   4   7   7   53.79   14.80
   4   7   7   65.19   13.20
  -5  -7  -7    0.30    3.70
  -5  -7  -7    6.30    3.70
   5   7   7   -4.40    4.20
   5   7   7   -6.20    6.50
   5   7   7    6.70    5.70
  -6  -7  -7  258.67   18.00
  -6  -7  -7  220.78   11.50
  -6  -7  -7  266.27   13.40
   6   7   7  257.57   19.30
   6   7   7  264.07   24.70
   6   7   7  241.18   20.00
  -7  -7  -7   50.89    5.20
  -7  -7  -7   74.19   10.40
   7   7   7   64.49   14.50
   7   7   7   78.29   18.30
   7   7   7   73.49   12.80
   8   7   7   41.90   10.60
   8   7   7   31.50   14.40
   8   7   7   12.50    9.80
   9   7   7   -3.90    6.40
   9   7   7   18.70   13.00
   9   7   7    1.70    9.10
  10   7   7    2.50    6.40
  10   7   7    4.30    9.70
  10   7   7   -9.30   10.80
  11   7   7   22.00   16.20
  11   7   7   15.90   13.00
  11   7   7   21.10    8.40
   4  -8  -7  120.59   13.00
   4  -8  -7   91.19   15.60
   4  -8  -7  105.09   17.10
   3  -8  -7   18.10    8.80
   3  -8  -7   30.50    8.50
   3  -8  -7   15.60    7.90
   2  -8  -7  117.69   13.10
   2  -8  -7   79.19   14.60
   2  -8  -7   70.59   13.70
   1  -8  -7   95.99   14.30
   1  -8  -7   92.79   14.80
   1  -8  -7  103.79   16.10
   0  -8  -7   82.59   16.30
   0  -8  -7   84.49   13.70
   0  -8  -7   99.59   14.70
   0   8   7   80.19   21.50
   0   8   7  103.09   13.30
  -1  -8  -7   37.80    9.30
  -1  -8  -7   44.80   10.70
   1   8   7   62.29    6.60
   1   8   7   21.90   13.30
   1   8   7   37.60    9.80
  -2  -8  -7    5.50    5.50
  -2  -8  -7   19.10    7.20
   2   8   7    8.10    5.40
   2   8   7   13.80    7.30
   2   8   7    2.90    9.30
  -3  -8  -7    3.60    6.60
  -3  -8  -7   18.40    5.90
   3   8   7   -2.70    5.10
   3   8   7   18.70   13.30
   3   8   7    9.30    7.20
  -4  -8  -7    6.50    4.90
  -4  -8  -7    8.30    6.70
   4   8   7   -1.10    5.40
   4   8   7    9.70    7.30
   4   8   7    0.60    9.50
  -5  -8  -7  139.79   11.40
  -5  -8  -7  134.79   14.50
   5   8   7  129.19   14.40
   5   8   7  128.89   14.60
   5   8   7  146.59   20.50
  -6  -8  -7   10.70    5.60
  -6  -8  -7    5.90    3.80
   6   8   7   19.90   12.60
   6   8   7   10.40    7.30
   6   8   7    9.80    9.00
  -7  -8  -7  118.69    8.70
  -7  -8  -7  136.59   14.10
   7   8   7  130.09   15.10
   7   8   7  134.49   17.00
   7   8   7  140.39   20.80
   8   8   7  104.29   15.90
   8   8   7   96.19   18.10
   8   8   7   95.19   21.10
   9   8   7    7.10   10.40
   9   8   7   -3.60    5.20
   9   8   7   24.60   13.00
  10   8   7  -24.80   14.50
   1  -9  -7    2.40    6.70
   1  -9  -7   12.60    7.60
   1  -9  -7    5.10    6.20
   0  -9  -7   17.10    8.80
   0  -9  -7    7.00    7.30
   0  -9  -7   10.70    8.20
   0   9   7   13.30   13.50
  -1  -9  -7  123.79   17.40
  -1  -9  -7   95.59   15.10
   1   9   7   84.49   21.90
  -2  -9  -7  313.27   23.90
   2   9   7  267.57   31.30
   2   9   7  268.37   21.00
   2   9   7  307.57   20.20
  -3  -9  -7    2.50    7.40
  -3  -9  -7    2.10    6.00
   3   9   7    7.10   14.10
   3   9   7   -0.60    5.90
   3   9   7   -7.50    5.80
  -4  -9  -7  391.46   23.80
  -4  -9  -7  375.26   26.10
   4   9   7  352.16   24.60
   4   9   7  355.66   33.60
   4   9   7  367.56   22.10
  -5  -9  -7  153.28   16.30
  -5  -9  -7  145.89   13.30
   5   9   7  148.79   16.50
   5   9   7  153.68   23.20
   5   9   7  146.09   15.50
  -6  -9  -7   16.00    8.50
  -6  -9  -7    3.40    4.60
   6   9   7    2.20   11.70
   6   9   7   11.10    8.50
   6   9   7   11.60    8.10
  -7  -9  -7   10.50    6.00
  -7  -9  -7   38.30    9.90
   7   9   7   20.30   12.40
   7   9   7   22.00   10.50
   7   9   7   21.00   15.60
   8   9   7   28.70   11.90
   8   9   7   54.59   12.10
   8   9   7   18.10   13.00
   9   9   7   80.99   18.40
   9   9   7   74.19   20.50
   9   9   7  100.19   17.10
  10   9   7   15.70   15.40
  10   9   7   25.00   11.40
   1 -10  -7  -15.80    6.60
   1 -10  -7    5.60    7.10
   1 -10  -7  -11.10    7.40
   0 -10  -7   10.10   10.40
   0 -10  -7   18.10    6.70
   0 -10  -7   17.20    8.70
  -1 -10  -7   21.80    7.90
  -1 -10  -7    6.40    6.80
   1  10   7   39.10   16.20
  -2 -10  -7  274.57   23.30
  -2 -10  -7  270.47   22.50
   2  10   7  258.97   31.90
  -3 -10  -7   10.30    7.30
  -3 -10  -7    5.10    8.50
   3  10   7   16.10   12.80
   3  10   7   13.50    8.50
  -4 -10  -7   44.00   12.80
  -4 -10  -7   23.90    8.20
   4  10   7   20.10   16.80
   4  10   7   16.60    8.30
   4  10   7   15.20   10.90
  -5 -10  -7    1.30    5.60
  -5 -10  -7   28.90    9.50
   5  10   7    5.30    9.50
   5  10   7   -8.10    7.50
   5  10   7   -4.50   12.60
  -6 -10  -7    7.00    6.00
  -6 -10  -7    9.60    9.20
   6  10   7    9.10   14.50
   6  10   7  -18.40    7.10
  -7 -10  -7   46.20   16.50
  -7 -10  -7    9.90    7.10
   7  10   7   17.10   10.50
   7  10   7   22.70   12.00
   7  10   7   37.10   18.30
   8  10   7  -11.00   11.90
   8  10   7   -9.80    8.90
   8  10   7    4.40    8.70
   9  10   7   99.19   24.60
   9  10   7  105.89   18.10
  -1 -11  -7   26.80    8.80
  -1 -11  -7    9.70   10.90
  -1 -11  -7    4.10    7.30
   1  11   7  105.39   26.50
   2  11   7  228.68   30.50
  -3 -11  -7   85.49   16.30
  -3 -11  -7   58.79   12.70
   3  11   7   67.99   19.70
  -4 -11  -7   -3.50    8.20
  -4 -11  -7   -5.70    5.90
   4  11   7   -2.90   13.30
  -5 -11  -7  188.18   20.70
  -5 -11  -7   95.49   14.10
   5  11   7  127.09   21.80
   5  11   7  108.79   26.40
  -6 -11  -7   -5.80    6.50
  -6 -11  -7   26.50   11.40
   6  11   7   19.70   17.80
   6  11   7   -5.50   10.50
   6  11   7   -8.30   11.30
   7  11   7  -11.10   10.80
   7  11   7   30.20   11.50
   8  11   7   50.39   14.20
   8  11   7   67.29   22.40
   9  11   7   34.40   14.50
   3  12   7  152.28   43.50
  -4 -12  -7   20.00   11.10
   4  12   7   64.59   20.60
  -5 -12  -7   -2.50    9.90
   5  12   7   12.50   18.50
   6  12   7    9.60   18.60
   7  12   7  -14.20   15.40
   7  10  -8    0.90   14.10
  -6 -10   8   15.40   17.90
  -5 -10   8   34.00   13.90
  -5 -10   8   60.29   16.40
  -4 -10   8  117.69   18.40
  -4 -10   8  140.29   25.00
  -3 -10   8   15.10   17.40
  -3 -10   8  -17.90   16.70
  -3 -10   8   -0.90    9.70
  -2 -10   8   -2.70    9.20
  -2 -10   8  -13.10   13.40
  -2 -10   8   23.80   11.40
  -1 -10   8   13.90   12.90
   8   9  -8   -3.40   14.00
   8   9  -8   26.60   13.60
   7   9  -8  -21.90    8.10
   7   9  -8    4.70   12.30
  -7  -9   8    7.30   14.70
   6   9  -8    9.00   11.50
   6   9  -8   -8.80   10.50
  -6  -9   8   -1.20   11.70
  -6  -9   8   29.10   17.90
   5   9  -8   27.40   12.40
   5   9  -8   -8.70   10.50
  -5  -9   8   18.70   14.00
  -5  -9   8    6.10    9.60
  -5  -9   8   36.80   14.20
   4   9  -8   85.19   20.30
  -4  -9   8  108.49   23.80
  -4  -9   8   62.99   14.30
  -4  -9   8   92.09   18.50
  -3  -9   8   45.70   16.90
  -3  -9   8   28.50   12.20
  -3  -9   8   14.90   10.70
  -2  -9   8  127.89   25.50
  -2  -9   8  161.38   24.30
  -2  -9   8  158.78   22.10
  -1  -9   8   53.89   15.70
  -1  -9   8   25.30   11.60
  -1  -9   8   24.80   10.90
   0  -9   8   60.79   14.40
   0  -9   8   63.99   18.10
   0  -9   8   37.40   12.00
   1  -9   8  185.78   31.30
   2  -9   8   25.80   15.50
   9   8  -8  152.08   16.50
   9   8  -8   94.19   24.90
   9   8  -8  107.39   20.40
   8   8  -8   -1.40    8.80
   8   8  -8   -9.00   10.90
   8   8  -8   13.80    7.60
  -8  -8   8   12.80   12.10
   7   8  -8   75.99   17.90
   7   8  -8   47.70   11.60
   7   8  -8   34.50   15.10
  -7  -8   8   40.20   14.90
   6   8  -8   64.99   12.90
   6   8  -8   57.19   19.50
   6   8  -8   37.30   16.50
  -6  -8   8   53.09   16.20
  -6  -8   8   64.99   20.40
  -6  -8   8   50.89   10.80
   5   8  -8    4.20    9.00
   5   8  -8   -1.90    9.40
  -5  -8   8    5.70   10.90
  -5  -8   8    2.80    7.10
  -5  -8   8   19.70   10.20
   4   8  -8   34.50   10.20
   4   8  -8   24.00   10.70
  -4  -8   8   32.40   10.50
  -4  -8   8   56.79   18.50
  -4  -8   8   40.40   13.70
   3   8  -8   96.59   12.90
   3   8  -8  159.98   17.20
  -3  -8   8   91.29   20.40
  -2  -8   8    0.20    7.40
  -2  -8   8   -6.40    9.60
  -2  -8   8   -6.00    7.30
  -1  -8   8   89.19   17.10
  -1  -8   8   90.59   17.50
  -1  -8   8   69.29   17.90
   0  -8   8   61.99   18.00
   0  -8   8   27.50   12.00
   0  -8   8   71.79   14.80
   1  -8   8   25.50   12.60
   1  -8   8   31.20   11.40
   2  -8   8   27.10   10.10
   2  -8   8  -12.30   11.20
   2  -8   8   12.90   10.50
   3  -8   8   -3.20   12.00
  10   7  -8   26.40    8.60
   9   7  -8  132.49   14.50
   9   7  -8  107.39   29.30
   9   7  -8  113.49   19.70
   8   7  -8   15.10    9.50
   8   7  -8   19.10    9.00
   8   7  -8   17.90   12.70
  -8  -7   8    7.00   12.50
   7   7  -8   -6.00    8.10
   7   7  -8   12.60    7.60
   7   7  -8   12.60   10.60
  -7  -7   8   15.00   10.00
  -7  -7   8   -0.40   10.80
   6   7  -8   62.49   14.60
   6   7  -8   50.19   10.90
   6   7  -8   40.40   14.00
  -6  -7   8   44.00   13.10
  -6  -7   8   55.49    9.30
  -6  -7   8   71.29   19.30
   5   7  -8   15.90    8.70
   5   7  -8   -5.20    6.20
   5   7  -8   -5.00    7.00
  -5  -7   8    4.00   11.60
  -5  -7   8    5.30    8.60
   4   7  -8   13.40    8.80
   4   7  -8   27.90    9.40
   4   7  -8   29.00    9.50
  -4  -7   8   33.90   11.00
   3   7  -8  200.48   18.70
   3   7  -8  179.58   14.90
  -3  -7   8  218.58   21.70
  -3  -7   8  210.08   25.10
   2   7  -8    3.70    6.40
   2   7  -8   -0.30    4.60
  -2  -7   8   -3.30    6.00
  -2  -7   8    9.60   10.60
  -1  -7   8   87.19   20.60
  -1  -7   8   65.39   14.80
   0  -7   8   52.49   13.40
   0  -7   8   34.90   14.90
   1  -7   8   99.39   17.50
   2  -7   8  402.76   33.00
   2  -7   8  423.06   28.50
   2  -7   8  430.06   34.30
   3  -7   8   12.10   12.00
   3  -7   8   16.30    7.50
   3  -7   8   18.70   10.20
   4  -7   8   20.40   11.90
   4  -7   8   14.40    6.20
   4  -7   8   19.90   10.40
  10   6  -8   17.80    8.00
   9   6  -8  129.79   27.20
   9   6  -8  120.39   19.50
   9   6  -8  127.59   13.90
   8   6  -8   17.90    7.80
   8   6  -8   34.00   15.40
   8   6  -8   32.90   11.10
  -8  -6   8   51.59   16.40
   7   6  -8   50.29   13.30
   7   6  -8   54.59   16.80
  -7  -6   8   36.40   14.90
  -7  -6   8   38.40   13.20
   6   6  -8  375.86   27.30
   6   6  -8  371.66   30.10
   6   6  -8  380.56   23.60
  -6  -6   8  397.06   38.30
  -6  -6   8  404.56   28.80
   5   6  -8   90.19   13.10
   5   6  -8  103.69   16.40
   5   6  -8   89.99   16.40
  -5  -6   8  113.79   18.10
  -5  -6   8  153.18   25.10
   4   6  -8   58.09   13.10
   4   6  -8   64.09   11.30
   4   6  -8   42.20   10.90
  -4  -6   8   75.19   18.00
  -4  -6   8   54.39   13.10
   3   6  -8  251.67   18.20
   3   6  -8  256.47   20.20
   3   6  -8  269.47   19.40
  -3  -6   8  235.98   21.10
  -3  -6   8  273.67   25.90
   2   6  -8   82.29    8.80
   2   6  -8  124.49   16.10
   2   6  -8   91.99   14.40
  -2  -6   8  110.19   17.00
  -2  -6   8   93.69   19.20
   1   6  -8   10.60    5.30
  -1  -6   8   13.60   10.10
  -1  -6   8   13.80    8.10
   0   6  -8   99.59   11.40
   0  -6   8  107.99   16.90
   0  -6   8  117.99   20.90
   1  -6   8   20.10   11.80
   1  -6   8   32.20    9.60
   2  -6   8    7.50    7.30
   2  -6   8   -4.10    9.80
   3  -6   8  182.18   22.20
   3  -6   8  177.48   17.00
   3  -6   8  148.09   22.20
   4  -6   8   22.20   12.00
   4  -6   8   55.29   10.20
   4  -6   8   44.60   14.30
   5  -6   8  224.48   25.60
   5  -6   8  218.98   17.10
   6  -6   8   58.29    6.30
  10   5  -8   13.80   10.20
  10   5  -8   13.00   13.40
  10   5  -8   15.50    9.40
  10   5  -8   19.70    7.00
   9   5  -8   18.80    9.00
   9   5  -8   14.10    8.40
   9   5  -8   13.60   12.70
   9   5  -8   34.30    7.40
   8   5  -8   26.00   10.10
   8   5  -8   33.20    8.10
   8   5  -8   34.70   15.20
   8   5  -8   39.60   10.50
   7   5  -8    3.70    6.60
   7   5  -8    2.40    7.80
   7   5  -8    4.60    9.60
   7   5  -8    3.50    6.10
  -7  -5   8   -3.00   10.50
   6   5  -8   -1.80    5.30
   6   5  -8   -0.10    6.10
   6   5  -8    5.70    7.80
   6   5  -8    4.80    5.90
  -6  -5   8   13.30    6.00
  -6  -5   8   -0.10    9.40
   5   5  -8    0.10    6.80
   5   5  -8   -3.50    4.10
   5   5  -8    4.80    5.80
  -5  -5   8   14.10   10.70
  -5  -5   8   -0.60    6.00
   4   5  -8  214.68   16.10
   4   5  -8  248.08   22.20
  -4  -5   8  245.88   20.60
  -4  -5   8  237.68   23.10
   3   5  -8   -4.20    4.30
   3   5  -8    5.00    5.80
   3   5  -8    2.10    4.80
  -3  -5   8   -7.40    5.00
  -3  -5   8    6.80    8.70
   2   5  -8   44.90    9.80
   2   5  -8   17.20    6.30
   2   5  -8   29.90    7.40
  -2  -5   8   27.50    9.30
  -2  -5   8   26.00   11.20
   1   5  -8    7.70    3.20
   1   5  -8   19.90    4.20
   1   5  -8    6.70    4.60
   1   5  -8    4.20    4.80
  -1  -5   8   11.80    7.20
  -1  -5   8   -2.20    5.50
  -1  -5   8    4.70    8.50
   0   5  -8  451.25   24.30
   0  -5   8  460.25   26.50
   0  -5   8  475.85   29.50
   0  -5   8  460.45   27.80
   0  -5   8  467.95   31.60
  -1   5  -8    8.40    6.50
   1  -5   8    4.80    4.70
   1  -5   8   11.10    9.30
   1  -5   8    6.80    5.80
   1  -5   8   18.80    8.60
  -2   5  -8  273.97   16.70
   2  -5   8  297.77   19.50
   2  -5   8  281.47   24.30
   2  -5   8  280.47   20.50
   3  -5   8   20.00    7.50
   3  -5   8   32.40    7.40
   3  -5   8   10.50    4.70
   3  -5   8   23.50   11.30
   4  -5   8  183.78   15.60
   4  -5   8  160.48   20.10
   5  -5   8   13.20    7.80
   5  -5   8   22.80    6.30
   6  -5   8   28.40    4.50
   6  -5   8   28.30   12.70
   6  -5   8    4.10    9.50
   7  -5   8   83.89   21.20
   7  -5   8   72.39   17.20
  10   4  -8  166.78   18.20
  10   4  -8  133.99   13.60
  10   4  -8   91.19   16.50
  10   4  -8   97.59   25.00
   9   4  -8  125.79   26.40
   9   4  -8  120.59   13.40
   9   4  -8  123.39   17.80
   9   4  -8  116.29   17.80
   8   4  -8   77.09   12.90
   8   4  -8   97.09   22.90
   8   4  -8   98.09   16.40
   8   4  -8   52.29   12.30
   7   4  -8  626.54   35.20
   7   4  -8  642.54   30.90
   7   4  -8  661.13   35.20
   7   4  -8  634.84   43.80
  -7  -4   8  656.83   35.10
  -7  -4   8  693.93   40.50
   6   4  -8   50.79    9.00
   6   4  -8   54.19   10.50
   6   4  -8   60.29   12.40
   6   4  -8   73.99   17.30
  -6  -4   8   69.29   12.50
  -6  -4   8   43.90   14.00
   5   4  -8  121.89   12.30
   5   4  -8  124.59   16.20
   5   4  -8  120.59   13.40
   5   4  -8  124.69   11.20
  -5  -4   8  137.09   15.00
  -5  -4   8  149.39   22.00
   4   4  -8   43.40   11.30
   4   4  -8   53.19    8.70
   4   4  -8   41.20    9.60
   4   4  -8   48.00    8.40
  -4  -4   8   52.79   13.30
  -4  -4   8   47.90   10.90
   3   4  -8    8.70    6.40
   3   4  -8   13.10    5.40
   3   4  -8   13.10    6.00
  -3  -4   8   16.80    7.70
  -3  -4   8   13.00    7.40
   2   4  -8 1822.82   68.39
   2   4  -8 1801.42   70.29
   2   4  -8 1830.62   69.59
  -2  -4   8 1926.51   74.19
  -2  -4   8 1914.61   78.19
  -2  -4   8 2098.39   83.59
   1   4  -8   92.99   10.00
   1   4  -8  102.49   10.70
   1   4  -8   77.79    8.80
   1   4  -8   97.69    8.80
  -1  -4   8  121.19   15.20
  -1  -4   8   96.99   10.50
  -1  -4   8  111.29   17.60
  -1  -4   8  111.09   18.70
   0   4  -8  143.79   12.00
   0   4  -8  168.18   13.20
   0  -4   8  176.98   17.40
   0  -4   8  135.79   11.20
   0  -4   8  153.98   14.40
   0  -4   8  134.09   19.10
   1  -4   8   95.79    9.40
   1  -4   8   88.29   15.90
   1  -4   8  106.89   16.40
   1  -4   8  100.19   13.60
  -2   4  -8   93.79    8.40
   2  -4   8  138.49   19.70
   2  -4   8  106.09   12.90
   2  -4   8   88.79    9.10
   2  -4   8  122.09   12.60
   3  -4   8  121.89   12.70
   3  -4   8  137.09   19.50
   3  -4   8  129.49   10.30
   3  -4   8  134.59   13.10
   4  -4   8   81.49   10.00
   4  -4   8   53.19    8.90
   4  -4   8   52.99    9.70
   4  -4   8   65.19   14.60
   5  -4   8   70.19   15.00
   5  -4   8   69.89   11.60
   5  -4   8   61.29    6.90
   5  -4   8   95.19    9.60
   6  -4   8   25.80    4.80
   6  -4   8   23.90    3.90
   6  -4   8   26.60   10.50
   6  -4   8   45.00   14.80
   7  -4   8   19.50    8.40
   7  -4   8   29.50   10.30
   7  -4   8   35.60   12.90
   8  -4   8   10.00   10.80
  10   3  -8  105.19   17.70
  10   3  -8  100.89   25.40
  10   3  -8   96.59   13.20
  10   3  -8  105.59   15.80
   9   3  -8   16.60    8.00
   9   3  -8    5.30    8.80
   9   3  -8   20.20    7.60
   9   3  -8    7.90   12.80
   8   3  -8   28.00    8.80
   8   3  -8   24.30    7.60
   8   3  -8   34.30   15.80
   8   3  -8   23.50    9.70
   7   3  -8  202.08   18.10
   7   3  -8  198.98   14.80
   7   3  -8  235.68   19.10
   7   3  -8  186.18   23.60
  -7  -3   8  217.58   20.10
   6   3  -8   26.90    8.40
   6   3  -8   36.00    9.30
   6   3  -8   41.20    8.00
   6   3  -8   31.80    7.60
  -6  -3   8   38.00    8.90
  -6  -3   8   25.60    9.30
   5   3  -8  104.19   10.90
   5   3  -8  120.79   12.40
   5   3  -8  125.39   10.80
   5   3  -8  145.29   13.70
  -5  -3   8  123.79   15.00
  -5  -3   8  140.19   13.70
   4   3  -8  187.68   14.60
   4   3  -8  210.68   13.50
   4   3  -8  215.48   16.00
  -4  -3   8  188.18   17.90
  -4  -3   8  195.78   16.70
   3   3  -8  349.57   18.50
   3   3  -8  306.27   17.50
   3   3  -8  358.36   20.40
  -3  -3   8  369.16   22.30
  -3  -3   8  360.76   24.30
  -3  -3   8  352.26   28.70
   2   3  -8  243.28   13.70
   2   3  -8  238.68   15.90
   2   3  -8  234.78   14.20
  -2  -3   8  262.77   23.20
  -2  -3   8  266.07   20.20
  -2  -3   8  244.78   17.50
   1   3  -8  777.42   32.60
   1   3  -8  797.02   34.00
  -1  -3   8  817.92   36.50
  -1  -3   8  775.22   32.80
  -1  -3   8  808.92   42.50
  -1  -3   8  845.72   40.80
   0   3  -8  156.58   11.70
   0   3  -8  163.28    8.60
   0   3  -8  146.59   11.20
   0   3  -8  169.18   10.10
   0  -3   8  154.78   17.00
   0  -3   8  158.28    9.30
   0  -3   8  137.19   14.80
   0  -3   8  152.28   10.90
   0  -3   8  189.98   14.30
  -1   3  -8  846.42   33.60
  -1   3  -8  862.31   35.00
   1  -3   8  795.42   39.90
   1  -3   8  717.13   39.00
   1  -3   8  824.82   33.30
   1  -3   8  850.11   36.40
   1  -3   8  830.62   30.00
  -2   3  -8    4.90    2.80
   2  -3   8   -0.80    4.40
   2  -3   8   -4.30    3.40
   2  -3   8   -1.00    6.20
   2  -3   8   -2.80    1.60
   2  -3   8    3.40    3.10
  -3   3  -8  272.47   12.70
   3  -3   8  252.57   18.90
   3  -3   8  287.87   21.20
   3  -3   8  297.17   15.40
   3  -3   8  305.87   17.90
   4  -3   8 1202.28   44.30
   4  -3   8 1199.38   50.79
   4  -3   8 1185.98   54.09
   4  -3   8 1259.57   47.80
   5  -3   8   23.50    4.10
   5  -3   8   26.30   10.20
   5  -3   8   25.90    4.90
   5  -3   8   28.20    7.90
   5  -3   8   23.90    6.00
   6  -3   8   64.09   11.60
   6  -3   8   51.19    6.20
   6  -3   8   57.19    5.20
   6  -3   8   35.90   10.30
   6  -3   8   46.90    6.00
   6  -3   8   55.39   13.70
   7  -3   8   66.79   10.80
   7  -3   8   75.69   14.50
   8  -3   8    8.60   11.30
   8  -3   8    2.30    7.40
  10   2  -8   16.30    7.50
  10   2  -8   -4.80    7.40
  10   2  -8    2.40    9.60
   9   2  -8   34.30    9.60
   9   2  -8   35.50   15.00
   9   2  -8   36.40   11.40
   9   2  -8   27.40    9.00
   8   2  -8    9.80    7.20
   8   2  -8   -0.90    6.10
   8   2  -8    0.10    5.00
   7   2  -8    4.40    6.50
   7   2  -8    3.60    4.70
   7   2  -8   -3.20    5.70
   6   2  -8  122.69   11.80
   6   2  -8  157.18   12.20
   6   2  -8  153.58   14.00
   6   2  -8  154.48   14.70
   6   2  -8  134.29    8.40
  -6  -2   8  114.39   13.10
   5   2  -8   20.10    3.90
   5   2  -8   17.10    5.60
   5   2  -8   14.80    5.20
   5   2  -8   12.80    6.10
   5   2  -8   15.30    6.00
  -5  -2   8   21.80    6.80
  -5  -2   8   35.50   10.00
   4   2  -8  457.25   24.00
   4   2  -8  447.56   19.60
   4   2  -8  445.16   23.80
  -4  -2   8  467.45   25.30
  -4  -2   8  514.75   27.70
   3   2  -8  288.57   15.30
   3   2  -8  305.27   17.50
   3   2  -8  297.97   16.30
   3   2  -8  301.07   14.50
   3   2  -8  260.97   16.60
  -3  -2   8  292.27   20.10
  -3  -2   8  275.57   25.10
  -3  -2   8  283.17   18.40
   2   2  -8  464.75   22.40
   2   2  -8  479.05   20.90
   2   2  -8  454.55   20.40
  -2  -2   8  446.06   25.80
  -2  -2   8  468.15   24.30
  -2  -2   8  404.56   29.60
   1   2  -8  203.68   12.90
   1   2  -8  203.58   11.60
   1   2  -8  196.68   10.70
  -1  -2   8  189.78   10.50
  -1  -2   8  180.58   13.70
  -1  -2   8  181.18   15.30
  -1  -2   8  186.38   18.10
  -1  -2   8  178.98   11.50
   0   2  -8  410.36   21.50
   0   2  -8  464.45   21.20
   0   2  -8  463.45   20.30
   0  -2   8  477.05   23.40
   0  -2   8  463.25   25.50
   0  -2   8  426.96   27.10
   0  -2   8  455.75   20.50
  -1   2  -8  317.17   16.70
  -1   2  -8  348.07   17.00
  -1   2  -8  353.66   13.00
   1  -2   8  347.07   21.20
   1  -2   8  340.97   16.70
   1  -2   8  344.57   18.90
   1  -2   8  336.57   13.60
   1  -2   8  345.57   22.50
  -2   2  -8   87.79    7.50
   2  -2   8  106.19   12.10
   2  -2   8  108.29    8.10
   2  -2   8   88.69   11.10
   2  -2   8   98.39    5.30
   2  -2   8   80.89    8.90
  -3   2  -8   16.70    3.40
   3  -2   8   16.30    7.10
   3  -2   8   20.30    2.60
   3  -2   8   14.90    5.10
   3  -2   8   16.50    4.40
   3  -2   8   15.80    6.90
   4  -2   8  683.33   32.20
   4  -2   8  681.03   26.30
   4  -2   8  662.03   23.70
   4  -2   8  669.73   28.70
   4  -2   8  644.84   33.80
   5  -2   8  121.89    8.10
   5  -2   8  107.49    7.40
   5  -2   8  128.39   12.60
   5  -2   8  112.59    7.60
   5  -2   8   97.49    8.70
   5  -2   8  116.29   13.70
   6  -2   8   24.40    4.60
   6  -2   8   23.70    3.60
   6  -2   8   20.70    4.10
   6  -2   8   24.30    7.90
   6  -2   8   27.70    9.60
   7  -2   8  200.58   17.80
   7  -2   8  159.28   13.00
   7  -2   8  167.98   18.90
   7  -2   8  204.28   19.60
   8  -2   8   19.60   10.80
   8  -2   8   74.79   14.90
   8  -2   8   30.80    7.80
   8  -2   8   18.10    8.70
   9  -2   8   25.10   12.60
  10   1  -8   31.00   13.70
  10   1  -8   57.59   10.90
  10   1  -8   46.50   29.30
   9   1  -8   87.69   13.40
   9   1  -8  154.38   20.40
   9   1  -8  123.09   25.70
   9   1  -8  108.29   14.80
   8   1  -8   34.50    8.80
   8   1  -8   26.30   10.20
   7   1  -8  149.39   16.80
   7   1  -8  177.68   14.10
   7   1  -8  164.08    9.70
   7   1  -8  172.68   14.80
   6   1  -8  593.24   29.20
   6   1  -8  602.94   27.90
   6   1  -8  625.54   29.90
   6   1  -8  578.74   23.60
   6   1  -8  587.64   30.80
  -6  -1   8  608.74   28.70
   5   1  -8   -1.10    2.20
   5   1  -8   -2.60    4.10
   5   1  -8    1.50    4.10
   5   1  -8    2.70    4.30
   5   1  -8   -1.20    3.70
  -5  -1   8    3.40    4.90
   4   1  -8    4.60    3.50
   4   1  -8    0.50    3.80
   4   1  -8    3.40    2.50
   4   1  -8   -2.20    3.90
   4   1  -8    5.50    4.70
  -4  -1   8    6.20    4.70
  -4  -1   8   -1.10    3.60
   3   1  -8  383.76   16.90
   3   1  -8  380.86   18.30
   3   1  -8  402.06   19.70
   3   1  -8  410.76   20.30
   3   1  -8  378.16   20.10
  -3  -1   8  415.66   22.60
  -3  -1   8  378.56   28.80
  -3  -1   8  389.46   21.40
   2   1  -8  158.28   10.20
   2   1  -8  156.18   11.20
   2   1  -8  162.58   11.20
   2   1  -8  157.18    9.90
   2   1  -8  163.08    9.50
  -2  -1   8  157.58   13.00
  -2  -1   8  160.38   17.30
  -2  -1   8  164.48   12.70
   1   1  -8  171.58   11.10
   1   1  -8  114.39   12.80
   1   1  -8  152.68    9.40
   1   1  -8  165.28    9.60
   1   1  -8  148.79   10.40
   1   1  -8  162.68    9.10
  -1  -1   8  153.98   16.20
  -1  -1   8  152.98   12.60
  -1  -1   8  166.28   12.20
  -1  -1   8  144.69    9.60
   0   1  -8   14.90    4.60
   0   1  -8   21.10    6.20
   0   1  -8   12.70    3.70
   0   1  -8   15.00    2.90
   0   1  -8   16.60    3.90
   0  -1   8   18.30    6.50
   0  -1   8   17.50    7.70
   0  -1   8   15.80    4.10
   0  -1   8   20.50    5.60
  -1   1  -8  178.88   10.00
  -1   1  -8  177.58   10.40
  -1   1  -8  140.19    9.10
   1  -1   8  160.98    9.70
   1  -1   8  133.49   13.30
   1  -1   8  139.39   12.00
   1  -1   8  166.98   11.60
  -2   1  -8  124.29    8.60
  -2   1  -8  123.39    7.50
  -2   1  -8  143.89    8.70
   2  -1   8  132.39    9.50
   2  -1   8   90.49    8.70
   2  -1   8  142.99   12.50
   2  -1   8  117.49    9.50
   2  -1   8  107.29   10.80
  -3   1  -8   43.10    4.40
   3  -1   8   37.60    6.30
   3  -1   8   37.60    5.30
   3  -1   8   31.90    8.10
   3  -1   8   41.40    8.90
   3  -1   8   39.10    6.40
   4  -1   8 1304.07   51.79
   4  -1   8 1468.25   55.29
   4  -1   8 1317.17   58.99
   4  -1   8 1479.85   50.69
   4  -1   8 1431.36   48.70
   5  -1   8  287.97   18.80
   5  -1   8  268.27   12.50
   5  -1   8  247.08   13.80
   5  -1   8  249.18   10.20
   5  -1   8  274.07   19.40
   5  -1   8  270.37   15.10
   6  -1   8  213.58   16.90
   6  -1   8  208.68   11.20
   6  -1   8  187.88   17.80
   6  -1   8  188.38   11.70
   6  -1   8  211.98   10.00
   6  -1   8  202.88   14.20
   7  -1   8  368.96   21.50
   7  -1   8  365.16   25.20
   7  -1   8  342.77   15.20
   7  -1   8  356.86   18.30
   7  -1   8  363.36   23.80
   8  -1   8    4.30    4.30
   8  -1   8    9.20    6.60
   8  -1   8   -8.50    5.50
   8  -1   8   10.40    9.30
   9  -1   8  116.99   19.80
   9  -1   8   86.99   17.40
  10   0  -8   12.80    9.60
   9   0  -8    2.30    5.40
   9   0  -8   -8.40    7.70
   9   0  -8   -0.50    7.60
   8   0  -8    8.20    6.20
   8   0  -8    5.50    8.10
   8   0  -8    6.30    6.00
   8   0  -8    1.60    3.60
   7   0  -8  153.78   28.10
   7   0  -8  149.79   14.00
   7   0  -8  127.69    9.60
   6   0  -8    6.70    5.10
   6   0  -8    7.10    5.30
   6   0  -8    5.10    3.10
   6   0  -8    0.00    4.80
   6   0  -8    8.80    5.20
   5   0  -8  220.38   14.80
   5   0  -8  212.98   14.20
   5   0  -8  220.58   16.30
   5   0  -8  225.88   15.10
   5   0  -8  208.28   11.90
  -5   0   8  224.98   14.80
   4   0  -8  158.78    9.70
   4   0  -8  156.78   13.50
   4   0  -8  141.79   11.50
   4   0  -8  166.98   10.80
   4   0  -8  131.59   13.60
  -4   0   8  154.08   11.60
  -4   0   8  163.18   12.50
   3   0  -8  625.34   27.80
   3   0  -8  636.34   27.30
   3   0  -8  576.94   25.80
   3   0  -8  640.04   27.80
   3   0  -8  622.94   26.30
   3   0  -8  645.54   24.90
  -3   0   8  637.44   29.00
  -3   0   8  653.53   28.00
  -3   0   8  686.23   38.90
   2   0  -8    2.30    2.50
   2   0  -8    5.60    3.60
   2   0  -8    5.40    2.40
   2   0  -8    4.40    3.40
   2   0  -8    6.00    3.30
   2   0  -8   10.60    3.60
  -2   0   8    5.20    4.50
  -2   0   8   13.20    7.90
  -2   0   8    4.70    3.40
   1   0  -8  220.88   11.10
   1   0  -8  220.88   12.30
   1   0  -8  205.08   11.00
   1   0  -8  213.38   11.00
   1   0  -8  200.08   11.80
   1   0  -8  203.68   12.40
  -1   0   8  206.98   13.40
  -1   0   8  190.78   17.80
  -1   0   8  208.98   13.50
  -1   0   8  206.08   11.50
   0   0  -8 3148.98  103.79
   0   0  -8 3206.68  100.79
   0   0  -8 3120.69  103.19
   0   0  -8 3269.27  104.29
   0   0  -8 3095.69  102.19
   0   0  -8 3188.98  110.89
   0   0  -8 3203.58  101.39
   0   0   8 2978.70  102.39
   0   0   8 3084.49  101.29
   0   0   8 3166.78  105.19
   0   0   8 2983.90  111.39
   0   0   8 3061.79  105.69
  -1   0  -8 2628.64   86.89
  -1   0  -8 2573.94   84.89
  -1   0  -8 2628.84   82.99
  -1   0  -8 2737.83   87.09
   1   0   8 2544.55   84.79
   1   0   8 2549.15   86.49
   1   0   8 2645.34   88.49
   1   0   8 2635.84   89.69
   1   0   8 2593.84   93.39
  -2   0  -8  148.69    8.30
  -2   0  -8  160.28    9.90
  -2   0  -8  139.69    9.70
   2   0   8  162.88   11.60
   2   0   8  140.39    8.30
   2   0   8  141.39    8.90
   2   0   8  150.08   12.00
   2   0   8  154.08   12.50
   2   0   8  136.49    9.70
  -3   0  -8  257.77   12.00
  -3   0  -8  249.97   14.10
   3   0   8  251.47   15.70
   3   0   8  257.17   16.40
   3   0   8  259.47   12.50
   3   0   8  274.37   15.30
   3   0   8  225.78   13.00
  -4   0  -8  262.37   11.60
   4   0   8  270.87   11.90
   4   0   8  260.57   17.20
   4   0   8  311.87   16.60
   4   0   8  301.17   18.30
   4   0   8  265.37   13.90
   4   0   8  296.87   13.50
   5   0   8  270.17   12.10
   5   0   8  277.47   16.90
   5   0   8  259.47   13.60
   5   0   8  275.57   13.10
   5   0   8  298.57   18.70
   5   0   8  271.67   18.30
   6   0   8    2.50    2.70
   6   0   8    1.40    4.50
   6   0   8    0.70    5.30
   6   0   8    5.10    2.50
   6   0   8    6.50    2.80
   6   0   8    3.50    5.50
   6   0   8    0.60    2.00
   7   0   8    5.10    1.90
   7   0   8    6.00    2.60
   7   0   8   -3.90    2.10
   7   0   8    1.00    2.20
   7   0   8   -1.50    4.90
   7   0   8  -10.50    4.50
   7   0   8   -1.80    6.80
   8   0   8   20.20    4.30
   8   0   8   36.40    8.60
   8   0   8   35.00   11.10
   8   0   8   14.60    9.50
   8   0   8   21.00    8.40
   9   0   8    1.60    9.90
   9   0   8    1.50    5.40
   9   0   8    7.90    9.10
   9   0   8   13.50    9.20
  10   0   8  -12.50    9.20
  10   0   8   17.20   11.30
   9  -1  -8   18.70    8.50
   9  -1  -8   19.00    8.50
   9  -1  -8   28.70   11.30
   8  -1  -8   18.40    9.60
   8  -1  -8    9.20    4.80
   8  -1  -8   17.50    7.10
   8  -1  -8   24.90    8.90
   7  -1  -8   73.39   10.70
   7  -1  -8   90.19   14.70
   7  -1  -8   62.79    8.10
   7  -1  -8   92.09   14.90
   6  -1  -8  167.58   13.60
   6  -1  -8  188.38   12.50
   6  -1  -8  152.98   15.40
   6  -1  -8  153.58    7.50
   6  -1  -8  162.48   13.10
   5  -1  -8    0.80    4.00
   5  -1  -8    6.30    2.40
   5  -1  -8   11.90    3.90
   5  -1  -8   10.00    5.20
   5  -1  -8    7.80    6.00
   5  -1  -8    9.20    4.80
  -5   1   8    7.80    4.10
   4  -1  -8    8.50    2.90
   4  -1  -8    9.30    4.40
   4  -1  -8    5.30    3.90
   4  -1  -8    5.50    3.90
   4  -1  -8    2.70    3.10
   4  -1  -8    5.30    4.70
  -4   1   8    6.30    6.30
   3  -1  -8  516.65   20.20
   3  -1  -8  519.05   23.80
   3  -1  -8  502.45   23.30
   3  -1  -8  538.85   23.50
   3  -1  -8  557.44   25.50
   3  -1  -8  526.85   22.30
  -3   1   8  513.75   24.50
  -3   1   8  550.04   33.60
  -3   1   8  490.25   21.30
   2  -1  -8  263.17   13.60
   2  -1  -8  244.88   14.10
   2  -1  -8  260.97   12.00
   2  -1  -8  273.77   14.40
   2  -1  -8  274.87   13.30
  -2   1   8  208.38   19.60
  -2   1   8  252.07   15.00
  -2   1   8  275.57   14.10
   1  -1  -8  209.48   11.00
   1  -1  -8  226.88   11.60
   1  -1  -8  229.78   12.90
   1  -1  -8  208.38   12.10
   1  -1  -8  226.58   11.60
  -1   1   8  204.38   17.90
  -1   1   8  245.88   13.80
   0  -1  -8 2620.34   85.19
   0  -1  -8 2645.34   84.49
   0  -1  -8 2697.73   99.29
   0  -1  -8 2650.93   86.29
   0   1   8 2605.04   86.69
   0   1   8 2511.35   85.79
   0   1   8 2533.45   84.69
   0   1   8 2565.34   87.19
   0   1   8 2388.96   92.99
  -1  -1  -8 1585.74   54.89
  -1  -1  -8 1835.32   61.19
  -1  -1  -8 1701.13   57.79
  -1  -1  -8 1576.54   54.19
  -1  -1  -8 1600.04   52.69
   1   1   8 1520.75   55.79
   1   1   8 1345.17   62.19
   1   1   8 1554.24   54.79
   1   1   8 1583.94   56.19
   1   1   8 1596.94   60.29
  -2  -1  -8   41.20    3.70
  -2  -1  -8   50.09    6.70
  -2  -1  -8   37.60    5.00
  -2  -1  -8   44.30    5.70
   2   1   8   50.19    8.70
   2   1   8   39.30    7.00
   2   1   8   37.50    5.70
   2   1   8   52.39    9.40
   2   1   8   37.80    3.40
   2   1   8   36.70    5.30
  -3  -1  -8  907.11   38.10
  -3  -1  -8  943.71   32.50
  -3  -1  -8  961.30   34.30
  -3  -1  -8  969.00   35.50
   3   1   8  948.91   31.90
   3   1   8  908.41   37.80
   3   1   8  960.20   35.20
   3   1   8  952.30   39.30
   3   1   8  942.11   35.50
   3   1   8 1064.49   40.20
  -4  -1  -8    7.60    2.50
   4   1   8    4.40    4.90
   4   1   8    8.60    4.60
   4   1   8    7.10    4.80
   4   1   8    7.30    3.40
   4   1   8    5.70    2.90
   4   1   8    4.70    1.60
   5   1   8    9.30    5.50
   5   1   8    3.70    6.10
   5   1   8    8.00    5.60
   5   1   8    5.40    1.70
   5   1   8    9.30    3.10
   6   1   8  320.17   15.40
   6   1   8  307.67   14.90
   6   1   8  337.47   22.00
   6   1   8  327.97   20.90
   6   1   8  309.17   11.80
   6   1   8  324.37   20.80
   6   1   8  286.27   11.40
   7   1   8  265.87   10.30
   7   1   8  278.77   13.60
   7   1   8  263.47   20.10
   7   1   8  273.97   10.20
   7   1   8  269.77   21.00
   7   1   8  313.27   21.60
   7   1   8  269.37   13.90
   8   1   8   25.80   10.00
   8   1   8   32.20   11.30
   8   1   8   32.50   11.70
   8   1   8   41.30    4.70
   8   1   8   29.90    5.60
   9   1   8  254.27   22.00
   9   1   8  259.07   22.90
   9   1   8  232.18   22.70
  10   1   8    0.60    7.90
  10   1   8   11.80   10.80
  10   1   8   20.80   11.60
  11   1   8  402.76   30.70
  11   1   8  405.26   32.70
   9  -2  -8  268.47   16.50
   9  -2  -8  268.87   21.90
   8  -2  -8   24.10    6.70
   8  -2  -8    7.60    7.70
   8  -2  -8   10.50    9.20
   8  -2  -8   14.00    6.20
   7  -2  -8   84.29    9.90
   7  -2  -8  102.19   11.10
   7  -2  -8   85.99   15.80
   7  -2  -8  103.09   14.40
   6  -2  -8   85.99   10.20
   6  -2  -8  110.19   10.50
   6  -2  -8  104.19   13.40
   6  -2  -8  110.19   10.70
   6  -2  -8   89.29   14.00
   5  -2  -8    3.50    3.80
   5  -2  -8    5.20    4.90
   5  -2  -8    3.80    3.70
   5  -2  -8   -5.00    5.10
   5  -2  -8    1.80    4.50
  -5   2   8    9.00    4.10
   4  -2  -8   86.19    8.70
   4  -2  -8   84.19    9.30
   4  -2  -8   91.79    9.30
   4  -2  -8   88.09    9.10
  -4   2   8  111.29    9.20
   3  -2  -8   12.50    4.50
   3  -2  -8    6.20    3.90
  -3   2   8   -0.30    5.90
   2  -2  -8    8.60    4.10
   2  -2  -8   11.10    4.20
   2  -2  -8    3.70    2.90
   2  -2  -8    7.30    3.50
  -2   2   8    7.30    2.40
  -2   2   8    1.20    6.40
  -2   2   8    5.30    3.70
   1  -2  -8  116.49    8.30
   1  -2  -8  112.59    8.40
   1  -2  -8  126.59    9.20
   1  -2  -8  132.29    9.60
  -1   2   8  129.99    7.90
  -1   2   8   81.79   17.10
  -1   2   8  135.59   14.60
  -1   2   8  129.29    9.70
   0  -2  -8   26.40    4.40
   0  -2  -8   25.20    4.40
   0  -2  -8   30.20    5.40
   0   2   8   13.30    8.50
   0   2   8   42.50    6.50
   0   2   8   34.00    8.50
  -1  -2  -8 1348.86   47.60
  -1  -2  -8 1412.76   49.60
  -1  -2  -8 1446.36   46.50
  -1  -2  -8 1368.36   50.39
   1   2   8 1423.96   47.20
   1   2   8 1155.98   56.79
   1   2   8 1431.66   53.39
   1   2   8 1392.06   48.70
   1   2   8 1370.26   49.50
  -2  -2  -8  452.75   16.60
  -2  -2  -8  433.66   19.10
  -2  -2  -8  433.26   18.40
   2   2   8  456.65   17.20
   2   2   8  481.95   26.20
   2   2   8  464.75   22.70
   2   2   8  441.66   19.80
  -3  -2  -8  533.45   20.30
  -3  -2  -8  492.55   17.60
  -3  -2  -8  481.15   16.80
  -3  -2  -8  502.05   20.40
   3   2   8  490.45   17.20
   3   2   8  460.85   21.00
   3   2   8  495.95   25.50
   3   2   8  489.65   21.40
   3   2   8  455.05   23.70
  -4  -2  -8   -2.40    1.60
  -4  -2  -8   -0.10    2.00
  -4  -2  -8    0.50    1.40
   4   2   8    5.50    3.10
   4   2   8   -3.00    3.50
   4   2   8    1.90    4.90
   4   2   8    2.20    2.70
  -5  -2  -8  325.07   13.90
   5   2   8  333.97   16.80
   5   2   8  327.67   20.90
   5   2   8  315.97   20.50
   6   2   8  245.78   14.20
   6   2   8  237.98   18.80
   6   2   8  269.17   14.30
   6   2   8  278.97   20.40
   7   2   8  120.29   15.10
   7   2   8  151.08   10.70
   7   2   8  143.79   15.40
   8   2   8   17.00    4.70
   8   2   8   20.70    4.70
   8   2   8    9.00    8.30
   8   2   8    9.30    9.30
   9   2   8   38.90   12.30
   9   2   8   34.60    5.40
   9   2   8   41.80    5.90
   9   2   8   30.80   12.50
   9   2   8   30.30   11.30
  10   2   8    4.50   10.20
  10   2   8    3.20    9.70
  10   2   8   -1.80    7.60
  11   2   8   50.29   14.90
  11   2   8   79.49   19.40
  11   2   8   98.29   19.00
   8  -3  -8  -10.50    8.00
   7  -3  -8  286.37   21.80
   7  -3  -8  287.77   19.50
   7  -3  -8  286.37   17.70
   7  -3  -8  300.27   24.30
   6  -3  -8    7.20    5.40
   6  -3  -8    4.20    5.90
   6  -3  -8    3.30    6.60
   6  -3  -8    7.50    5.10
   5  -3  -8   22.40    6.20
   5  -3  -8   31.50    7.20
   5  -3  -8   35.00    7.50
   5  -3  -8   35.60    8.20
   4  -3  -8  338.77   19.20
   4  -3  -8  375.76   19.50
   4  -3  -8  392.56   20.90
   4  -3  -8  363.76   20.90
  -4   3   8  353.76   18.70
   3  -3  -8    7.30    4.40
   3  -3  -8   16.60    5.30
   3  -3  -8    8.70    4.90
   3  -3  -8    6.80    4.30
  -3   3   8   14.40    4.70
  -3   3   8    8.20    7.20
   2  -3  -8   32.30    6.30
   2  -3  -8   39.10    7.10
   2  -3  -8   43.20    7.50
   2  -3  -8   36.00    6.80
  -2   3   8   47.60    7.60
  -2   3   8   49.99   11.70
   1  -3  -8  177.68   12.00
   1  -3  -8  182.28   11.60
   1  -3  -8  194.28   11.80
   1  -3  -8  173.78   11.70
  -1   3   8  173.58   16.10
  -1   3   8  188.08    8.60
  -1   3   8  210.38   12.70
  -1   3   8  133.49   19.10
   0  -3  -8  185.48   11.20
   0  -3  -8  170.18   10.40
   0  -3  -8  191.58   11.60
   0   3   8  180.08   11.70
   0   3   8  172.18   14.60
   0   3   8  170.88    9.30
  -1  -3  -8 2902.81   95.89
  -1  -3  -8 2908.01   93.79
  -1  -3  -8 2874.11   96.79
  -1  -3  -8 2898.41   95.09
   1   3   8 2869.91   97.09
   1   3   8 2958.40   99.59
   1   3   8 2821.32   96.29
   1   3   8 2646.54  107.69
  -2  -3  -8   87.19    6.70
  -2  -3  -8   85.49    7.40
   2   3   8   78.19   11.70
   2   3   8   91.79    9.10
   2   3   8   81.49    7.90
  -3  -3  -8    9.70    1.80
  -3  -3  -8   11.00    3.00
  -3  -3  -8   11.50    4.00
   3   3   8   13.00    4.20
   3   3   8   12.30    5.30
   3   3   8   10.20    4.20
   3   3   8   16.70    7.00
  -4  -3  -8  472.95   21.10
  -4  -3  -8  575.64   25.00
  -4  -3  -8  526.35   20.40
   4   3   8  498.05   25.80
   4   3   8  467.95   22.90
   4   3   8  474.95   27.00
   4   3   8  515.35   22.80
  -5  -3  -8  281.77   13.70
  -5  -3  -8  266.57   12.80
  -5  -3  -8  293.87   13.70
   5   3   8  298.07   20.80
  -6  -3  -8  234.88   11.80
   6   3   8  289.97   21.30
   6   3   8  260.07   19.80
   6   3   8  268.47   16.10
   6   3   8  269.07   15.20
   7   3   8  150.98   11.10
   7   3   8  151.38   16.20
   7   3   8  127.69   16.30
   7   3   8  143.79   11.70
   8   3   8    8.40    4.40
   8   3   8   22.60   10.10
   8   3   8   14.20    5.30
   8   3   8   11.20    9.50
   9   3   8   23.10    6.30
   9   3   8   36.30    6.80
   9   3   8   30.50   12.00
   9   3   8   29.20   12.60
  10   3   8  172.58   20.40
  10   3   8  146.89   10.50
  10   3   8  148.79   21.80
  11   3   8  -12.90   10.30
  11   3   8    3.70   11.70
   8  -4  -8   16.00    8.70
   8  -4  -8   15.10    6.70
   7  -4  -8   17.60    9.10
   7  -4  -8    8.30    5.20
   7  -4  -8    1.70    6.80
   7  -4  -8   -1.60    6.70
   6  -4  -8  262.37   20.00
   6  -4  -8  221.38   20.90
   6  -4  -8  243.28   21.40
   6  -4  -8  266.77   16.90
   5  -4  -8   11.60    6.50
   4  -4  -8   13.60    5.80
   4  -4  -8    6.10    5.10
   4  -4  -8    2.50    4.30
   4  -4  -8   16.20    6.80
  -4   4   8   16.00    7.40
   3  -4  -8  157.58   12.40
   3  -4  -8  158.58   13.10
   3  -4  -8  153.38   11.70
   3  -4  -8  140.39   12.70
  -3   4   8  149.59   11.50
   2  -4  -8  546.75   27.20
   2  -4  -8  584.44   26.90
   2  -4  -8  583.74   27.10
   2  -4  -8  604.94   26.30
  -2   4   8  618.84   31.70
  -2   4   8  452.55   27.00
   1  -4  -8   24.10    6.00
   1  -4  -8   27.80    6.60
   1  -4  -8   30.70    6.10
   1  -4  -8   29.60    6.30
  -1   4   8    5.90    9.40
  -1   4   8   31.10    9.10
  -1   4   8   38.60    6.90
   0  -4  -8   65.89    7.20
   0  -4  -8   63.59    7.50
   0  -4  -8   64.59    7.10
   0  -4  -8   58.09    7.80
   0   4   8   56.39    5.70
   0   4   8   44.60   14.00
   0   4   8   73.09   12.20
  -1  -4  -8   -1.70    2.70
  -1  -4  -8    1.90    2.60
  -1  -4  -8   -3.80    2.40
  -1  -4  -8    0.30    2.10
   1   4   8   -4.00    2.30
   1   4   8   -2.20    2.90
   1   4   8    5.00    4.80
   1   4   8   -9.00    5.30
  -2  -4  -8    8.70    3.10
  -2  -4  -8   -1.30    3.10
  -2  -4  -8    7.80    3.40
   2   4   8   12.90    5.30
   2   4   8    5.60    7.30
   2   4   8    8.40    4.20
  -3  -4  -8  125.69    7.20
  -3  -4  -8  133.69    8.60
   3   4   8  149.49   11.10
   3   4   8  131.49   10.60
   3   4   8  128.59   11.30
   3   4   8  132.89   14.40
  -4  -4  -8   81.09    7.80
  -4  -4  -8   78.19    3.80
  -4  -4  -8   71.29    6.00
  -4  -4  -8   90.09    4.20
   4   4   8   74.09   11.60
   4   4   8   82.89   14.00
   4   4   8   92.49    8.80
   4   4   8   73.19    8.50
  -5  -4  -8  937.91   32.70
  -5  -4  -8  889.11   34.80
   5   4   8  886.81   38.00
   5   4   8  851.31   36.40
   5   4   8  895.51   40.90
  -6  -4  -8   -2.10    2.50
   6   4   8   -3.70    6.00
   6   4   8    3.40    3.90
   6   4   8   -0.80    3.70
   6   4   8    0.40    5.40
   6   4   8    7.20    3.00
   7   4   8  183.58   13.60
   7   4   8  171.98    9.60
   7   4   8  186.88   14.60
   7   4   8  166.28   17.50
   7   4   8  210.08   20.70
   8   4   8    8.10    5.70
   8   4   8   18.10   10.10
   8   4   8   12.30    9.70
   8   4   8   17.00    6.00
   9   4   8   57.99    9.30
   9   4   8   41.00   24.20
   9   4   8   46.00   14.00
  10   4   8   -9.40    8.20
  10   4   8    7.00    5.10
  10   4   8  -13.40    8.60
  11   4   8   31.40   22.20
  11   4   8   13.50   12.50
   7  -5  -8    2.00    6.30
   7  -5  -8   -6.50    5.90
   7  -5  -8  -12.00    9.40
   6  -5  -8  331.67   19.60
   6  -5  -8  328.57   23.40
   6  -5  -8  357.86   25.20
   5  -5  -8   57.89   11.20
   5  -5  -8   46.00    8.80
   5  -5  -8   42.70   11.00
   4  -5  -8   10.00    7.00
   3  -5  -8  184.78   15.50
   3  -5  -8  192.08   15.00
   3  -5  -8  202.28   14.30
   3  -5  -8  182.28   15.80
   2  -5  -8    0.90    3.50
   2  -5  -8   13.50    5.60
   2  -5  -8   14.90    5.60
   2  -5  -8   17.00    6.50
  -2   5   8    7.30    5.90
   1  -5  -8    3.30    4.00
   1  -5  -8   -4.90    2.80
   1  -5  -8   -1.30    3.50
   1  -5  -8    2.80    4.30
   1  -5  -8    0.40    3.70
  -1   5   8    3.30    9.60
  -1   5   8    2.60    3.70
  -1   5   8   -3.20    4.10
   0  -5  -8   76.29    9.00
   0  -5  -8   92.69    9.50
   0  -5  -8   77.69    8.60
   0  -5  -8   69.99    9.90
   0   5   8   84.09    9.40
   0   5   8   87.59   12.80
   0   5   8   41.00   15.10
   0   5   8   71.29    6.50
  -1  -5  -8   40.20    6.80
  -1  -5  -8   33.50    6.60
  -1  -5  -8   58.49    9.30
   1   5   8   37.20   14.30
   1   5   8   32.50    7.20
   1   5   8   46.10    7.70
   1   5   8   47.30    9.00
  -2  -5  -8    8.80    5.10
  -2  -5  -8    5.60    3.60
  -2  -5  -8    9.80    3.80
   2   5   8   17.00    6.00
   2   5   8   11.30    9.40
   2   5   8    7.30    4.80
  -3  -5  -8  757.22   29.10
  -3  -5  -8  774.42   30.80
  -3  -5  -8  768.62   33.10
   3   5   8  770.72   34.10
   3   5   8  758.02   33.40
   3   5   8  785.92   41.10
  -4  -5  -8  114.89   10.20
  -4  -5  -8  109.09    7.20
  -4  -5  -8  127.09    8.50
  -4  -5  -8  114.09    6.80
   4   5   8  113.89   11.80
   4   5   8  105.49   10.70
   4   5   8  113.39   14.70
   4   5   8  105.59   10.70
  -5  -5  -8  342.47   18.50
  -5  -5  -8  343.07   15.20
   5   5   8  360.26   30.10
   5   5   8  340.97   22.10
   5   5   8  312.07   24.00
   5   5   8  295.17   19.10
  -6  -5  -8  159.38    9.20
  -6  -5  -8  163.78   11.50
   6   5   8  159.48   13.30
   6   5   8  176.38   18.40
   6   5   8  168.18   16.70
   6   5   8  173.18   13.70
  -7  -5  -8   -0.10    3.30
   7   5   8    4.10    7.80
   7   5   8    5.80    5.00
   7   5   8   -1.50    6.50
   7   5   8    1.90    5.30
   7   5   8    5.20    3.60
   8   5   8   -3.90    7.20
   8   5   8    7.20    9.40
   8   5   8   20.90    7.10
   9   5   8   98.49   19.20
   9   5   8   56.09   10.10
   9   5   8   62.29   17.40
  10   5   8   -3.00   10.70
  10   5   8    2.10    5.40
  10   5   8   -2.30    8.30
  11   5   8    7.10   11.20
  11   5   8   20.80    7.50
   6  -6  -8   26.90   10.00
   6  -6  -8   29.60    7.60
   5  -6  -8   50.79   11.30
   5  -6  -8   64.19   10.10
   5  -6  -8   60.59   12.90
   4  -6  -8   66.19   10.40
   4  -6  -8   47.10   11.50
   4  -6  -8   84.29   14.10
   3  -6  -8   -1.10    5.30
   2  -6  -8  217.58   19.00
   2  -6  -8  327.37   20.80
   2  -6  -8  279.97   20.50
   2  -6  -8  319.27   19.10
  -2   6   8  285.37   17.50
   1  -6  -8  516.75   25.90
   1  -6  -8  467.15   26.10
   1  -6  -8  441.16   26.20
   1  -6  -8  427.56   26.60
  -1   6   8  473.25   24.00
  -1   6   8  537.85   30.60
   0  -6  -8  525.05   26.50
   0  -6  -8  515.35   26.80
   0  -6  -8  521.15   26.10
   0  -6  -8  518.85   27.10
   0   6   8  520.25   26.60
   0   6   8  385.46   35.90
   0   6   8  485.15   26.80
   0   6   8  521.65   25.40
  -1  -6  -8   -1.20    3.60
  -1  -6  -8   -0.90    4.40
  -1  -6  -8    3.50    5.00
   1   6   8   -2.10    7.90
   1   6   8    1.10    4.50
   1   6   8    8.20    5.30
  -2  -6  -8  161.68   13.60
  -2  -6  -8  169.08   12.80
  -2  -6  -8  162.68   11.80
   2   6   8  161.58   13.20
   2   6   8  165.48   20.70
   2   6   8  181.18   13.50
  -3  -6  -8   30.70    6.10
  -3  -6  -8   23.70    5.70
  -3  -6  -8   28.40    7.60
   3   6   8   29.60    7.80
   3   6   8   28.30   11.90
   3   6   8   24.30    7.40
  -4  -6  -8    8.80    5.30
  -4  -6  -8   13.80    4.50
  -4  -6  -8   11.00    3.90
   4   6   8    9.00    5.90
   4   6   8   12.20    6.80
   4   6   8   10.80    8.70
  -5  -6  -8   11.00    3.00
  -5  -6  -8   11.70    5.70
  -5  -6  -8   11.10    3.60
   5   6   8   10.30    8.40
   5   6   8   17.50    7.60
   5   6   8    8.90    5.90
  -6  -6  -8  422.06   22.70
  -6  -6  -8  450.25   18.70
   6   6   8  449.66   25.00
   6   6   8  449.36   28.00
   6   6   8  463.85   31.90
   6   6   8  385.96   24.70
  -7  -6  -8  229.88   15.00
  -7  -6  -8  218.48   10.70
   7   6   8  226.98   23.30
   7   6   8  221.78   20.70
   7   6   8  231.18   17.60
   8   6   8    4.40    9.20
   9   6   8   74.09   12.50
   9   6   8   51.29   14.60
   9   6   8   50.69   16.20
  10   6   8    0.50   12.70
  10   6   8   11.50   10.60
  10   6   8    9.10    7.00
  11   6   8  336.77   22.20
  11   6   8  266.37   28.60
  11   6   8  334.27   33.90
   5  -7  -8   33.10   11.20
   5  -7  -8   43.80    8.50
   5  -7  -8   16.90    8.60
   4  -7  -8   15.70    6.80
   4  -7  -8   11.80    7.20
   4  -7  -8   -6.10    6.50
   3  -7  -8   58.79   10.70
   3  -7  -8   48.50   11.20
   3  -7  -8   33.20   10.20
   2  -7  -8    3.70    6.10
   2  -7  -8    4.90    6.80
   2  -7  -8    6.20    6.00
   1  -7  -8   -2.50    4.70
   1  -7  -8    3.00    5.50
   1  -7  -8   -0.80    5.40
  -1   7   8  -10.90    4.90
  -1   7   8    3.40   10.50
   0  -7  -8    9.90    6.50
   0  -7  -8    9.10    6.00
   0  -7  -8    5.60    6.00
   0   7   8   37.10    8.30
   0   7   8    6.20   10.60
   0   7   8   15.60    6.90
  -1  -7  -8  204.18   16.60
  -1  -7  -8  225.98   16.00
  -1  -7  -8  229.78   17.10
   1   7   8  217.58   15.00
   1   7   8  192.98   15.60
   1   7   8  188.98   24.20
  -2  -7  -8   -1.30    3.40
  -2  -7  -8   -0.20    4.60
   2   7   8   -1.70    5.50
   2   7   8   -4.90    7.50
   2   7   8   -0.60    4.70
  -3  -7  -8  256.37   18.70
  -3  -7  -8  265.97   17.00
   3   7   8  262.47   17.50
   3   7   8  264.17   18.70
   3   7   8  299.47   27.50
  -4  -7  -8  547.95   25.30
  -4  -7  -8  533.25   28.50
   4   7   8  558.54   37.30
   4   7   8  502.15   27.60
   4   7   8  503.85   28.50
  -5  -7  -8   72.29    7.90
  -5  -7  -8   68.29   11.10
   5   7   8   91.69   13.40
   5   7   8   81.89   18.20
   5   7   8   92.59   14.40
  -6  -7  -8    1.30    2.50
  -6  -7  -8    4.90    3.30
  -6  -7  -8    0.30    4.10
   6   7   8    2.90    7.10
   6   7   8   -5.90    7.90
   6   7   8    1.70    6.10
  -7  -7  -8   14.80    3.60
  -7  -7  -8   13.50    6.30
   7   7   8    8.30    9.60
   7   7   8    1.30    7.30
   7   7   8    4.00    5.80
   8   7   8  164.98   16.90
   8   7   8  118.39   19.90
   8   7   8  168.58   23.50
   9   7   8   35.40   15.50
   9   7   8   17.50    9.00
   9   7   8   32.90   12.70
  10   7   8   -7.00   10.30
  10   7   8   15.80   11.20
  10   7   8   13.80    7.90
  11   7   8   25.10   16.00
  11   7   8   -4.30    7.10
  11   7   8    7.50   12.20
   4  -8  -8   25.90    7.90
   4  -8  -8    0.50    8.00
   4  -8  -8    8.40    7.80
   3  -8  -8   39.90   10.90
   3  -8  -8   55.69   10.70
   3  -8  -8   50.89   12.40
   2  -8  -8    7.50    8.10
   2  -8  -8    7.70    6.10
   2  -8  -8    0.30    6.30
   1  -8  -8    3.90    5.80
   1  -8  -8    1.70    5.40
   1  -8  -8   -2.00    6.20
   0  -8  -8  160.08   17.40
   0  -8  -8  140.09   15.10
   0  -8  -8  146.79   15.10
   0   8   8  115.19   26.20
   0   8   8  132.29   16.00
  -1  -8  -8 1153.98   50.09
  -1  -8  -8 1130.49   48.70
  -1  -8  -8 1129.59   49.90
   1   8   8 1040.60   46.00
   1   8   8 1038.00   46.70
  -2  -8  -8   21.40    7.70
  -2  -8  -8   18.10    7.20
   2   8   8   23.10    7.60
   2   8   8   25.40    7.00
   2   8   8    8.00   11.70
  -3  -8  -8   31.50    8.60
  -3  -8  -8   38.80    8.50
   3   8   8   33.90    9.40
   3   8   8   36.00   16.60
   3   8   8   47.10    9.50
  -4  -8  -8   93.29   14.20
  -4  -8  -8   95.59   10.40
   4   8   8  118.89   16.30
   4   8   8   96.19   20.80
   4   8   8   87.09   13.40
  -5  -8  -8  149.39   12.20
  -5  -8  -8  154.68   15.90
   5   8   8  202.58   24.70
   5   8   8  155.68   15.90
   5   8   8  155.78   15.90
  -6  -8  -8  227.18   17.60
   6   8   8  196.78   18.90
   6   8   8  208.78   24.60
   6   8   8  204.98   18.60
  -7  -8  -8   11.80    6.60
  -7  -8  -8   -3.40    3.00
   7   8   8    3.00   10.40
   7   8   8    1.40    7.00
   7   8   8   14.20    9.90
   8   8   8   58.49   13.60
   8   8   8   42.30   16.50
   8   8   8   54.99   15.40
   9   8   8    1.70    7.00
   9   8   8   17.50   12.20
   9   8   8   -1.90    9.80
  10   8   8   36.60   17.60
   2  -9  -8   28.60   11.50
   2  -9  -8   52.59   12.00
   2  -9  -8   36.60   13.30
   1  -9  -8   15.90    8.00
   1  -9  -8   18.70    9.10
   1  -9  -8   20.00    8.00
   0  -9  -8   60.99   12.60
   0  -9  -8   51.79   12.00
   0  -9  -8   43.80   10.80
  -1  -9  -8  174.78   18.00
  -1  -9  -8  176.68   16.90
  -1  -9  -8  183.88   18.20
   1   9   8  134.89   28.30
  -2  -9  -8   56.89   12.60
  -2  -9  -8   77.09   13.00
   2   9   8   71.79    9.40
   2   9   8   46.00   18.20
   2   9   8   59.99   11.80
  -3  -9  -8   15.60    7.10
  -3  -9  -8   10.00    9.10
   3   9   8   16.70    7.80
   3   9   8   13.60    8.90
   3   9   8    9.20   12.40
  -4  -9  -8   44.10    9.40
  -4  -9  -8   64.89   13.20
   4   9   8   23.50    8.70
   4   9   8   43.10   18.40
   4   9   8   31.80   10.40
  -5  -9  -8    9.70    6.80
  -5  -9  -8   -1.70    4.10
   5   9   8    0.50    7.40
   5   9   8    7.10    6.90
  -6  -9  -8  105.89   15.20
  -6  -9  -8   76.89    9.70
   6   9   8  105.09   23.70
   6   9   8   83.39   15.40
   6   9   8   85.39   15.30
  -7  -9  -8  454.85   28.00
  -7  -9  -8  432.96   20.70
   7   9   8  471.75   30.90
   7   9   8  432.26   37.60
   7   9   8  409.96   30.40
   8   9   8   59.29   14.90
   8   9   8   59.49   13.80
   8   9   8   70.09   21.70
   9   9   8   93.79   22.40
   9   9   8   77.49   15.20
   9   9   8   66.09   16.50
  10   9   8    6.60    9.00
  10   9   8    7.00   14.10
  10   9   8  -13.40    9.10
   1 -10  -8   35.90    9.40
   1 -10  -8   20.10    9.40
   1 -10  -8   17.10    8.20
   0 -10  -8  165.18   17.70
   0 -10  -8  155.78   28.00
  -1 -10  -8  227.38   21.00
  -1 -10  -8  259.57   22.60
  -1 -10  -8  286.17   22.60
   1  10   8  243.78   31.50
  -2 -10  -8  168.68   18.60
  -2 -10  -8  153.98   16.90
  -2 -10  -8  154.38   16.80
   2  10   8  105.69   23.40
  -3 -10  -8   -0.20    5.70
  -3 -10  -8   12.30    8.30
   3  10   8   18.70   13.50
   3  10   8    2.10    9.80
  -4 -10  -8   34.60   12.20
  -4 -10  -8   22.60    8.40
   4  10   8   27.70   16.20
   4  10   8   13.10   10.00
   4  10   8   11.30    8.50
  -5 -10  -8   53.59   10.50
  -5 -10  -8   63.99   13.70
   5  10   8   48.20   21.10
   5  10   8   55.79   14.00
   5  10   8   35.40   11.70
  -6 -10  -8    9.30    6.20
  -6 -10  -8   48.80   12.00
   6  10   8    6.00   12.90
   6  10   8   10.70   10.70
   6  10   8    6.80   10.60
  -7 -10  -8    0.30    7.30
   7  10   8   -4.10    8.60
   7  10   8    9.50   11.50
   7  10   8    1.60   15.10
   8  10   8   33.70   18.20
   8  10   8   20.90   10.70
   8  10   8   27.20   12.50
   9  10   8   75.59   15.60
   9  10   8   35.00   19.80
  -1 -11  -8  144.79   20.70
  -1 -11  -8  109.09   17.20
  -1 -11  -8   98.49   16.20
   1  11   8  132.49   28.20
   2  11   8  204.38   27.30
  -3 -11  -8   20.80   10.00
  -3 -11  -8   -1.20    6.90
  -3 -11  -8   -0.20    6.90
   3  11   8   23.50   13.80
  -4 -11  -8   19.40    9.30
  -4 -11  -8   25.00    9.00
   4  11   8    9.90   14.80
  -5 -11  -8   47.10   13.10
  -5 -11  -8   -0.90    7.10
   5  11   8   14.40   15.50
  -6 -11  -8  116.59   19.00
  -6 -11  -8   49.99   10.60
   6  11   8   90.39   17.30
   6  11   8   49.10   21.30
   6  11   8   73.79   16.40
   7  11   8   59.39   25.90
   7  11   8   66.89   14.20
   7  11   8   36.50   14.70
   8  11   8  256.97   38.30
   8  11   8  233.98   25.10
   8  11   8  271.97   33.40
   9  11   8   -0.80   13.90
   3  12   8  258.87   36.10
  -4 -12  -8   -2.20    9.50
  -4 -12  -8    8.50   11.30
  -4 -12  -8   -4.20    7.40
  -5 -12  -8   -9.60    7.70
   5  12   8   28.60   18.50
   7  12   8   55.49   18.80
  -5 -10   9   21.00   22.10
  -5 -10   9    3.60   13.80
  -4 -10   9   -2.90   12.90
  -4 -10   9    1.70   11.10
  -3 -10   9  -13.30    8.90
  -3 -10   9   25.90   12.60
   8   9  -9   -5.70   15.00
   8   9  -9   -1.50   11.10
   7   9  -9   67.09   16.30
   7   9  -9   50.49   18.40
   6   9  -9    1.50   11.60
   6   9  -9  -16.20   12.50
  -6  -9   9   -4.30   10.60
  -6  -9   9   23.60   15.00
  -5  -9   9   32.20   16.80
  -5  -9   9   46.40   14.60
  -5  -9   9   -2.30   10.10
  -4  -9   9  125.79   28.80
  -4  -9   9  154.18   23.70
  -4  -9   9   95.59   16.30
  -3  -9   9   11.80    9.30
  -3  -9   9   22.50   11.30
  -3  -9   9   41.30   17.20
  -2  -9   9    0.90   12.40
  -2  -9   9  -16.40    6.50
  -2  -9   9   13.90   11.90
  -1  -9   9   25.60   16.20
   0  -9   9  155.08   29.90
   0  -9   9  140.49   22.40
   0  -9   9   95.49   19.70
   1  -9   9   91.89   23.80
   8   8  -9   73.89   20.90
  -8  -8   9  161.08   28.90
   7   8  -9   56.19   17.00
   7   8  -9   90.59   17.30
   7   8  -9   68.29   12.10
  -7  -8   9   43.90   19.00
   6   8  -9  101.69   21.80
   6   8  -9  113.39   20.30
   6   8  -9  140.39   19.00
  -6  -8   9   90.09   14.40
  -6  -8   9   88.99   21.80
  -6  -8   9  125.89   21.20
   5   8  -9   84.29   15.70
   5   8  -9   99.89   17.90
   5   8  -9   71.29   15.50
  -5  -8   9   58.99   18.80
  -5  -8   9  106.49   19.60
  -5  -8   9   44.40   10.90
   4   8  -9   67.09   12.30
   4   8  -9   65.59   14.50
  -4  -8   9   94.19   21.80
  -3  -8   9  224.08   24.30
  -3  -8   9  223.48   34.10
  -2  -8   9   71.09   16.60
  -2  -8   9   40.60   16.40
  -1  -8   9   18.10    9.60
  -1  -8   9   18.00   10.30
  -1  -8   9    5.00   12.20
   0  -8   9   57.89   14.90
   0  -8   9   68.59   18.70
   0  -8   9   94.29   17.60
   1  -8   9   -3.60    7.00
   1  -8   9   -3.40   12.10
   1  -8   9   -8.10    8.50
   2  -8   9   94.09   19.50
   2  -8   9  112.19   17.80
   2  -8   9   96.69   21.70
   3  -8   9   -1.70   15.90
   9   7  -9   -1.90    9.50
   9   7  -9    6.80   13.80
   8   7  -9   13.50    9.00
   8   7  -9   32.60    9.40
   8   7  -9    9.00   13.70
  -8  -7   9   -2.50   11.00
   7   7  -9    2.20    8.80
   7   7  -9    3.10    7.30
   7   7  -9    7.10   11.60
  -7  -7   9  -15.00    9.20
   6   7  -9   10.50    7.90
   6   7  -9   28.90   12.60
   6   7  -9   13.40   10.10
  -6  -7   9   27.30    9.30
  -6  -7   9    1.00   10.50
   5   7  -9   23.50    9.00
   5   7  -9    6.60    8.80
   5   7  -9   13.20    8.60
  -5  -7   9   24.10    9.70
  -5  -7   9   21.80   13.60
   4   7  -9    7.00    7.80
   4   7  -9    4.20    7.90
   4   7  -9    6.20    7.00
  -4  -7   9   17.40   13.50
  -4  -7   9    7.90    9.80
   3   7  -9   -3.30    7.30
   3   7  -9   -6.80    4.80
  -3  -7   9   -2.80    9.70
  -3  -7   9   10.50    9.40
   2   7  -9  109.99   16.70
  -2  -7   9  105.79   21.50
  -2  -7   9  109.39   18.80
   1   7  -9  216.68   19.60
  -1  -7   9  209.18   31.10
   0  -7   9   18.70   10.30
   0  -7   9   22.70   13.00
   1  -7   9  200.38   21.40
   1  -7   9  178.28   27.50
   2  -7   9   95.19   16.70
   2  -7   9  122.49   20.60
   2  -7   9   81.69   19.30
   3  -7   9  163.88   24.40
   3  -7   9  212.68   24.00
   3  -7   9  181.98   34.40
   4  -7   9   10.20    5.80
   4  -7   9    1.10   11.60
   4  -7   9    1.60    8.90
  10   6  -9   37.50    9.60
   9   6  -9   16.40   12.60
   9   6  -9   19.00    7.60
   8   6  -9  239.48   27.20
   8   6  -9  215.88   18.80
   8   6  -9  208.58   21.30
  -8  -6   9  253.27   28.20
   7   6  -9   29.80    8.90
   7   6  -9   42.00   12.00
   7   6  -9   51.89   17.00
  -7  -6   9   37.90   15.70
   6   6  -9    5.10    8.00
   6   6  -9    0.70    8.70
  -6  -6   9    8.30    8.80
  -6  -6   9   -2.50    9.00
   5   6  -9   15.20    7.80
   5   6  -9    2.00    8.20
   5   6  -9    6.40    9.00
  -5  -6   9   13.40    8.20
  -5  -6   9   25.10   12.70
   4   6  -9    0.00    6.10
   4   6  -9    6.80    6.70
   4   6  -9   -4.80    5.30
  -4  -6   9   -4.60    5.50
  -4  -6   9    5.90   10.90
   3   6  -9  449.66   26.00
   3   6  -9  500.05   29.40
   3   6  -9  427.36   26.50
  -3  -6   9  549.05   37.40
  -3  -6   9  484.65   31.70
   2   6  -9  117.49   16.30
   2   6  -9  106.79    9.70
   2   6  -9  143.29   17.50
  -2  -6   9  137.89   19.20
  -2  -6   9  114.49   21.30
   1   6  -9   14.20    6.60
  -1  -6   9   16.00    8.40
  -1  -6   9   16.70    9.90
   0   6  -9   55.89   10.10
   0  -6   9   59.69   17.10
   0  -6   9   69.09   13.60
   1  -6   9  289.27   27.30
   2  -6   9   35.10   10.70
   2  -6   9   49.80   14.90
   3  -6   9   30.40   13.00
   3  -6   9   20.70    8.80
   4  -6   9   47.80   13.50
   4  -6   9   62.29   11.10
   4  -6   9   81.49   19.10
   5  -6   9   68.89   16.40
   5  -6   9   33.30    7.40
   5  -6   9   53.89   15.80
   9   5  -9   -1.90    6.60
   9   5  -9    7.20   12.30
   9   5  -9    0.10    6.00
   9   5  -9    9.20    9.30
   8   5  -9  102.09   15.80
   8   5  -9  118.29   23.80
   8   5  -9  132.39   13.50
   8   5  -9  105.49   17.40
  -8  -5   9  136.29   23.40
   7   5  -9   13.70    8.90
   7   5  -9   23.20    8.90
   7   5  -9    2.30    7.70
  -7  -5   9    6.70   12.20
   6   5  -9   -6.20    5.30
   6   5  -9    7.30    6.10
   6   5  -9   -2.10    7.30
  -6  -5   9   12.30    8.20
  -6  -5   9    8.90   10.90
   5   5  -9   14.60    6.50
   5   5  -9   31.70    9.40
   5   5  -9   38.50   12.90
  -5  -5   9   15.00   10.00
  -5  -5   9   24.80    8.70
   4   5  -9    1.60    5.10
   4   5  -9    5.70    5.90
   4   5  -9   13.60    7.80
  -4  -5   9  -10.40    5.10
  -4  -5   9    6.00    9.10
   3   5  -9  205.18   17.20
   3   5  -9  213.08   17.10
   3   5  -9  182.78   15.30
  -3  -5   9  198.48   29.50
  -3  -5   9  205.88   22.00
   2   5  -9  178.18   14.50
   2   5  -9  160.88   12.90
   2   5  -9  160.68   15.30
  -2  -5   9  185.78   19.80
  -2  -5   9  155.08   16.10
   1   5  -9    4.90    3.00
   1   5  -9    1.10    5.40
   1   5  -9    7.10    5.50
  -1  -5   9   14.30    8.50
  -1  -5   9    3.50    8.40
  -1  -5   9    3.10    6.80
   0   5  -9  330.07   20.60
   0  -5   9  370.86   26.60
   0  -5   9  371.16   28.40
   0  -5   9  361.36   24.30
   0  -5   9  311.57   19.60
  -1   5  -9   51.29    8.20
   1  -5   9   51.09   11.90
   1  -5   9   53.29   14.00
   1  -5   9   70.09   13.10
   1  -5   9   49.50    8.40
   2  -5   9   30.10    9.90
   2  -5   9   45.60   10.00
   2  -5   9   16.60   10.20
   2  -5   9   26.70    9.60
   3  -5   9  896.41   42.20
   3  -5   9  826.32   47.20
   4  -5   9   53.59   15.10
   4  -5   9   41.50    9.40
   5  -5   9  -13.10    7.80
   5  -5   9   19.50    6.40
   5  -5   9   17.20   11.40
   6  -5   9  170.98   10.80
   6  -5   9  182.78   22.60
   7  -5   9   -1.70    8.10
  10   4  -9    7.60   13.80
  10   4  -9   10.50    8.30
   9   4  -9    4.30   12.90
   9   4  -9  -12.60    4.50
   9   4  -9    4.60    7.60
   9   4  -9    0.10    7.60
   8   4  -9    9.20    9.30
   8   4  -9   11.30    8.50
   8   4  -9    5.20   12.10
   8   4  -9    8.30    6.30
   7   4  -9    3.90    7.80
   7   4  -9   -2.10    5.10
  -7  -4   9   13.20   10.60
   6   4  -9  229.98   19.70
   6   4  -9  195.68   15.50
   6   4  -9  220.58   23.90
   6   4  -9  220.28   17.90
  -6  -4   9  230.98   22.80
  -6  -4   9  274.77   21.00
   5   4  -9  297.37   20.10
   5   4  -9  290.57   18.40
   5   4  -9  281.07   21.00
   5   4  -9  290.57   24.80
  -5  -4   9  355.26   24.40
  -5  -4   9  349.07   26.70
   4   4  -9   48.50    8.40
   4   4  -9   51.89   11.20
   4   4  -9   71.49   14.00
   4   4  -9   43.80    8.60
  -4  -4   9   66.59   13.20
  -4  -4   9   72.19   16.00
   3   4  -9  193.68   16.00
   3   4  -9  196.88   14.40
   3   4  -9  196.18   17.00
  -3  -4   9  187.98   22.60
  -3  -4   9  222.08   20.80
  -3  -4   9  215.18   18.60
   2   4  -9   -3.00    4.10
   2   4  -9   -1.80    3.70
   2   4  -9   -3.50    3.80
  -2  -4   9   -1.90    6.80
  -2  -4   9    3.70    7.60
  -2  -4   9    3.00    5.40
   1   4  -9  188.88   14.60
   1   4  -9  155.38   13.00
   1   4  -9  180.68   13.90
  -1  -4   9  207.58   19.40
  -1  -4   9  181.98   19.70
  -1  -4   9  241.48   20.90
   0   4  -9  113.59   11.30
   0   4  -9   98.79   10.90
   0  -4   9  111.29   12.90
   0  -4   9  117.69   18.50
   0  -4   9   92.89   16.80
   0  -4   9  104.49   10.00
   1  -4   9   17.60    6.90
   1  -4   9   36.30    6.60
   1  -4   9   44.10   12.50
   1  -4   9   32.00   10.30
  -2   4  -9    5.80    3.80
   2  -4   9   -6.60    3.30
   2  -4   9    0.90    5.60
   2  -4   9   -1.70    5.20
   2  -4   9    4.90    7.10
   3  -4   9  187.48   16.50
   3  -4   9  175.78   15.50
   3  -4   9  185.88   13.00
   3  -4   9  178.08   19.10
   4  -4   9   84.79   10.50
   4  -4   9   61.99   14.70
   4  -4   9   49.30   10.10
   4  -4   9   42.60   10.50
   5  -4   9   74.99    8.00
   5  -4   9  114.39   11.30
   5  -4   9   99.89   19.10
   5  -4   9   95.29   10.60
   6  -4   9  152.78   23.00
   6  -4   9  181.88   20.60
   6  -4   9  162.68   11.10
   6  -4   9  146.49    9.30
   7  -4   9  -14.90    5.60
   7  -4   9    0.10    6.20
   7  -4   9   20.40   12.00
  10   3  -9   31.80   17.90
  10   3  -9   89.79   20.70
  10   3  -9    5.30    8.40
  10   3  -9   28.50   12.80
   9   3  -9   83.49   14.00
   9   3  -9   76.49   15.00
   9   3  -9   66.09   20.80
   9   3  -9   95.49   13.50
   8   3  -9   52.59   12.20
   8   3  -9   62.59   13.40
   8   3  -9   47.30   19.20
   8   3  -9   42.70    9.70
   7   3  -9  316.17   28.70
   7   3  -9  309.67   19.40
  -7  -3   9  287.67   24.20
   6   3  -9    5.00    6.30
   6   3  -9    4.90    6.00
   6   3  -9    7.10    5.60
  -6  -3   9    8.20    5.90
  -6  -3   9   28.20   10.20
   5   3  -9    3.60    4.80
   5   3  -9   13.10    6.30
   5   3  -9   -0.80    5.30
  -5  -3   9   18.10    7.90
  -5  -3   9    2.20    6.10
   4   3  -9   91.19   10.30
   4   3  -9   86.39    9.30
   4   3  -9   91.49   14.30
  -4  -3   9   87.49   15.60
  -4  -3   9   91.09   13.90
   3   3  -9   82.29    9.10
   3   3  -9   80.89    9.10
   3   3  -9   86.79   10.30
  -3  -3   9  100.09   20.00
  -3  -3   9   86.49   13.60
   2   3  -9    3.60    4.80
   2   3  -9   -2.40    2.80
  -2  -3   9   13.00    5.80
  -2  -3   9    3.00    6.70
  -2  -3   9    9.70    8.80
   1   3  -9  125.89   11.40
   1   3  -9  103.89   11.00
   1   3  -9  132.09   10.90
  -1  -3   9  138.49   15.60
  -1  -3   9  144.59   21.40
  -1  -3   9  121.69   12.60
   0   3  -9   91.99    6.90
   0   3  -9   91.09    9.40
   0   3  -9   90.99    8.00
   0   3  -9   86.69    9.20
   0  -3   9  106.79   11.50
   0  -3   9   90.59    9.20
   0  -3   9  102.69   17.80
  -1   3  -9   23.60    6.50
  -1   3  -9   17.80    4.90
   1  -3   9   14.70    6.30
   1  -3   9   10.80    2.90
   1  -3   9   16.80    9.40
   1  -3   9   18.70    7.30
   1  -3   9   14.20    4.60
  -2   3  -9   83.09    8.00
   2  -3   9  105.09   16.20
   2  -3   9   88.09   10.40
   2  -3   9  106.99   16.00
   2  -3   9   81.89    8.40
  -3   3  -9  149.09    9.00
   3  -3   9  137.59    7.50
   3  -3   9  129.59   12.40
   3  -3   9  158.58   16.60
   3  -3   9  149.29   10.80
   3  -3   9  144.69   14.40
   4  -3   9   89.19    9.90
   4  -3   9   96.89   11.80
   4  -3   9  119.69   18.40
   4  -3   9   70.79    5.30
   4  -3   9   84.29    7.80
   5  -3   9  116.39   19.00
   5  -3   9  109.09    8.50
   5  -3   9  115.29   13.20
   5  -3   9  103.49   10.70
   6  -3   9   25.30    4.10
   6  -3   9   14.90    5.10
   6  -3   9   27.30    7.90
   6  -3   9    2.40    9.20
   7  -3   9   -1.80    7.40
   7  -3   9    5.70    5.60
   7  -3   9    2.00    7.90
   8  -3   9   93.99   16.80
   8  -3   9   45.80   12.70
   9   2  -9   -1.50    6.20
   9   2  -9   -0.50   12.10
   9   2  -9   -4.00    6.80
   9   2  -9    0.80    8.00
   8   2  -9   23.60   10.20
   8   2  -9   25.10    8.20
   8   2  -9   34.10    9.90
   7   2  -9    9.30   13.80
   7   2  -9   17.60   11.30
   7   2  -9    8.40    6.40
   6   2  -9  224.58   12.60
   6   2  -9  282.87   19.70
   6   2  -9  237.38   17.60
   6   2  -9  280.37   20.30
   6   2  -9  237.58   16.10
  -6  -2   9  267.27   18.90
  -6  -2   9  284.77   20.70
   5   2  -9  461.75   26.10
   5   2  -9  550.14   27.60
   5   2  -9  506.85   24.50
   5   2  -9  509.55   27.30
   5   2  -9  515.45   22.00
  -5  -2   9  533.65   30.00
  -5  -2   9  546.05   28.80
   4   2  -9  402.06   21.40
   4   2  -9  340.37   20.80
   4   2  -9  375.16   19.40
   4   2  -9  352.16   22.20
   4   2  -9  397.96   17.90
  -4  -2   9  347.07   31.10
  -4  -2   9  409.46   26.30
  -4  -2   9  394.96   25.00
   3   2  -9   30.40    6.60
   3   2  -9   33.00    5.40
   3   2  -9   39.00    8.30
   3   2  -9   39.50    7.20
  -3  -2   9   39.30   10.60
  -3  -2   9   32.40   14.00
  -3  -2   9   45.10    9.10
   2   2  -9  371.46   18.10
   2   2  -9  368.06   18.20
   2   2  -9  357.56   19.90
  -2  -2   9  392.56   22.40
  -2  -2   9  366.36   28.80
  -2  -2   9  370.16   23.70
   1   2  -9 1262.57   45.00
   1   2  -9 1248.68   46.30
   1   2  -9 1300.37   48.70
  -1  -2   9 1392.06   55.29
  -1  -2   9 1148.99   57.69
  -1  -2   9 1252.37   50.99
   0   2  -9  485.45   22.30
   0   2  -9  458.35   20.90
   0   2  -9  444.56   22.90
   0  -2   9  463.65   21.30
   0  -2   9  444.46   18.40
   0  -2   9  467.55   24.20
   0  -2   9  465.25   26.70
   0  -2   9  417.16   28.50
  -1   2  -9  296.17   15.80
  -1   2  -9  301.17   16.10
  -1   2  -9  319.27   12.70
   1  -2   9  300.07   18.10
   1  -2   9  291.57   15.60
   1  -2   9  286.97   12.30
   1  -2   9  273.77   19.90
   1  -2   9  258.67   20.80
  -2   2  -9  722.83   28.70
   2  -2   9  692.73   23.90
   2  -2   9  719.23   35.90
   2  -2   9  700.23   36.90
   2  -2   9  639.64   34.10
   2  -2   9  704.63   28.60
  -3   2  -9  266.07   12.90
   3  -2   9  276.67   14.30
   3  -2   9  260.97    9.50
   3  -2   9  219.58   18.50
   3  -2   9  271.07   16.60
   3  -2   9  256.47   19.40
   4  -2   9   23.90    8.10
   4  -2   9   23.00    4.80
   4  -2   9   30.60    6.70
   4  -2   9   27.80    9.00
   5  -2   9   28.90    9.30
   5  -2   9   23.70    4.50
   5  -2   9   22.00    2.20
   5  -2   9   26.40    6.40
   5  -2   9   17.70    8.60
   6  -2   9   13.50    3.60
   6  -2   9   17.30    8.40
   6  -2   9   14.60    4.60
   6  -2   9   18.00   10.40
   7  -2   9  276.47   22.70
   7  -2   9  341.17   24.80
   7  -2   9  326.87   18.90
   8  -2   9  -10.60    9.00
   8  -2   9   21.60   10.00
   8  -2   9   -2.40    6.70
   9  -2   9  123.09   23.90
   9  -2   9  105.79   19.00
  10   1  -9  -11.60    7.00
   9   1  -9   -3.90   11.00
   9   1  -9    8.50    6.60
   9   1  -9   -0.40    9.70
   9   1  -9    1.60    7.10
   8   1  -9   32.10    8.90
   8   1  -9   39.10   11.10
   8   1  -9   26.10    8.30
   7   1  -9    0.50    6.10
   7   1  -9   -5.10    2.50
   6   1  -9   33.10    8.70
   6   1  -9   37.00    8.20
   6   1  -9   30.00    8.50
   6   1  -9   28.30    8.50
   6   1  -9   32.20    5.20
  -6  -1   9   45.50    8.60
   5   1  -9   15.70    4.90
   5   1  -9    8.00    5.70
   5   1  -9   13.60    3.70
   5   1  -9   19.90    6.70
   5   1  -9   17.90    5.80
  -5  -1   9    8.40    6.00
  -5  -1   9   24.00    6.70
   4   1  -9   24.60    4.70
   4   1  -9   26.60    7.30
   4   1  -9   23.30    5.80
   4   1  -9   26.90    6.20
   4   1  -9   27.80    7.00
  -4  -1   9   18.90    7.80
  -4  -1   9   12.70   10.90
  -4  -1   9   24.50    7.20
   3   1  -9  277.47   16.60
   3   1  -9  295.27   15.90
   3   1  -9  287.37   17.40
   3   1  -9  298.97   17.50
   3   1  -9  295.97   14.60
  -3  -1   9  332.07   20.20
  -3  -1   9  304.77   26.60
  -3  -1   9  321.77   19.50
   2   1  -9    7.80    4.50
   2   1  -9   10.70    3.80
   2   1  -9   -0.20    2.50
   2   1  -9    1.70    2.40
   2   1  -9    7.70    3.30
  -2  -1   9    9.40    5.60
  -2  -1   9    3.20    3.80
  -2  -1   9    3.50    6.40
   1   1  -9 1616.54   58.29
   1   1  -9 1663.73   56.49
   1   1  -9 1643.04   56.09
   1   1  -9 1598.94   55.39
  -1  -1   9 1561.74   61.79
  -1  -1   9 1483.05   68.19
  -1  -1   9 1652.43   60.89
   0   1  -9 1450.45   52.69
   0   1  -9 1529.35   51.09
   0   1  -9 1401.76   57.09
   0   1  -9 1400.56   51.79
   0  -1   9 1461.15   56.99
   0  -1   9 1471.85   53.59
   0  -1   9 1393.26   61.79
   0  -1   9 1501.65   55.29
  -1   1  -9   94.09    7.80
  -1   1  -9   84.59    7.10
  -1   1  -9   76.39    7.20
   1  -1   9   84.39    7.10
   1  -1   9   87.69   12.30
   1  -1   9   78.69    8.70
   1  -1   9   76.49   13.20
  -2   1  -9  454.65   18.80
  -2   1  -9  448.06   19.80
   2  -1   9  452.05   20.00
   2  -1   9  454.75   22.00
   2  -1   9  455.55   25.80
   2  -1   9  425.16   24.00
  -3   1  -9   79.09    6.50
   3  -1   9   97.29    7.70
   3  -1   9   69.59    7.70
   3  -1   9   82.29    8.50
   3  -1   9   86.59   12.40
   3  -1   9   85.69   11.20
   4  -1   9   82.19    8.40
   4  -1   9   65.19   11.50
   4  -1   9   80.49   12.20
   4  -1   9   80.59    8.30
   4  -1   9   67.69    6.50
   5  -1   9  301.77   21.70
   5  -1   9  334.87   17.40
   5  -1   9  322.37   15.10
   5  -1   9  312.77   16.80
   6  -1   9   51.69   11.10
   6  -1   9   47.10   12.00
   6  -1   9   52.79    7.10
   6  -1   9   43.90    5.70
   6  -1   9   57.79    9.00
   7  -1   9   21.40    3.00
   7  -1   9    1.90    5.50
   7  -1   9   16.40    3.30
   7  -1   9   31.60   10.10
   7  -1   9   19.50    4.90
   7  -1   9    6.20    9.50
   8  -1   9  324.77   23.90
   8  -1   9  337.47   26.10
   8  -1   9  362.96   26.10
   9  -1   9   54.99   13.40
   9  -1   9   25.60    8.30
   9  -1   9    5.30   11.30
   9   0  -9   73.19   12.80
   9   0  -9   74.09   19.00
   8   0  -9  104.79   17.00
   8   0  -9  112.59   14.60
   8   0  -9  102.39   14.10
   7   0  -9   22.60    9.60
   7   0  -9   34.80    8.50
   7   0  -9   28.40    8.70
   7   0  -9   21.00    5.60
   6   0  -9   71.79   10.60
   6   0  -9   63.49   11.80
   6   0  -9   71.49   11.10
   6   0  -9   66.59    7.20
   6   0  -9   54.49    9.70
  -6   0   9   60.99    9.60
   5   0  -9   69.39    6.90
   5   0  -9   64.19   10.70
   5   0  -9   59.79    9.20
   5   0  -9   80.89   11.10
   5   0  -9   56.79    9.30
  -5   0   9   63.39    9.10
  -5   0   9   62.29   13.90
   4   0  -9   55.29    6.80
   4   0  -9   50.59    8.20
   4   0  -9   44.30    7.70
   4   0  -9   45.10    8.40
   4   0  -9   39.70    8.40
  -4   0   9   33.00    7.20
  -4   0   9   54.89   16.00
  -4   0   9   48.30    8.10
   3   0  -9  649.34   28.70
   3   0  -9  650.73   27.60
   3   0  -9  604.34   28.60
   3   0  -9  648.44   29.20
   3   0  -9  682.63   26.30
   3   0  -9  655.63   29.10
  -3   0   9  639.24   39.90
  -3   0   9  671.73   29.90
  -3   0   9  691.53   31.20
   2   0  -9  251.67   14.90
   2   0  -9  230.08   12.50
   2   0  -9  250.57   13.50
   2   0  -9  254.97   14.10
   2   0  -9  234.28   15.00
   2   0  -9  266.37   14.80
  -2   0   9  224.08   21.40
  -2   0   9  260.57   16.30
  -2   0   9  240.58   15.80
   1   0  -9  452.45   19.50
   1   0  -9  498.25   19.90
   1   0  -9  447.76   21.00
   1   0  -9  456.55   19.60
   1   0  -9  452.15   21.40
  -1   0   9  449.86   22.90
  -1   0   9  416.96   28.60
  -1   0   9  453.55   22.60
   0   0  -9 1415.56   50.59
   0   0  -9 1502.15   54.59
   0   0  -9 1427.36   58.79
   0   0  -9 1464.95   49.80
   0   0  -9 1503.55   50.79
   0   0   9 1449.95   54.59
   0   0   9 1407.26   60.69
   0   0   9 1469.55   53.89
   0   0   9 1358.06   50.89
  -1   0  -9   40.70    5.80
  -1   0  -9   45.60    7.90
  -1   0  -9   39.00    6.10
  -1   0  -9   35.50    3.20
  -1   0  -9   38.10    4.40
   1   0   9   44.00    9.80
   1   0   9   40.50    4.60
   1   0   9   45.30    6.10
   1   0   9   38.60    9.80
   1   0   9   42.80    7.20
   1   0   9   50.89    8.70
  -2   0  -9   43.80    5.40
  -2   0  -9   43.70    6.10
   2   0   9   33.20    6.00
   2   0   9   42.30    9.00
   2   0   9   38.60    7.90
   2   0   9   36.20    3.90
   2   0   9   44.60    9.20
   2   0   9   32.80    5.30
  -3   0  -9    7.20    3.70
  -3   0  -9    5.60    2.90
   3   0   9   11.00    3.80
   3   0   9   13.90    6.50
   3   0   9    7.00    5.50
   3   0   9    7.50    5.20
   3   0   9    9.40    3.30
   3   0   9    4.00    2.20
  -4   0  -9   68.49    7.90
  -4   0  -9   55.69    5.40
   4   0   9   60.29    5.00
   4   0   9   66.99    6.50
   4   0   9   71.19    8.50
   4   0   9   76.19   11.50
   5   0   9  112.19   12.40
   5   0   9  104.99    6.60
   5   0   9  119.39   10.80
   5   0   9  108.99    8.70
   5   0   9  112.69    7.90
   6   0   9  156.18   15.20
   6   0   9  147.39   10.30
   6   0   9  160.38   15.60
   6   0   9  158.88    9.60
   6   0   9  172.98   13.90
   7   0   9   93.19   11.80
   7   0   9   90.99    7.60
   7   0   9   89.09    6.60
   7   0   9  107.09   16.50
   7   0   9   76.89   14.70
   7   0   9   91.09    6.80
   8   0   9  382.36   24.70
   8   0   9  355.16   25.90
   9   0   9   38.00   14.10
   9   0   9   38.20   15.50
   9   0   9   38.30   12.70
   9   0   9   47.10   10.10
  10   0   9  108.69   19.10
  10   0   9  143.39   21.10
   9  -1  -9   10.20    9.50
   9  -1  -9   13.90    6.80
   9  -1  -9   22.90   10.10
   8  -1  -9   85.19    9.90
   8  -1  -9  103.19   16.80
   8  -1  -9   81.89   13.30
   8  -1  -9  104.69   12.30
   7  -1  -9   40.00   12.00
   7  -1  -9   37.80    9.20
   7  -1  -9   35.70    6.60
   7  -1  -9   36.90    9.60
   6  -1  -9  122.29   14.50
   6  -1  -9  137.19   12.80
   6  -1  -9  130.69   12.70
   6  -1  -9  137.79   10.80
   5  -1  -9   23.50    6.90
   5  -1  -9   45.40    9.70
   5  -1  -9   32.40    6.00
   5  -1  -9   43.90    8.70
   5  -1  -9   56.89    9.40
   5  -1  -9   47.90    4.10
  -5   1   9   43.60    7.70
   4  -1  -9    4.00    3.60
   4  -1  -9    3.80    3.40
   4  -1  -9    2.90    4.80
   4  -1  -9    5.90    2.40
   4  -1  -9    0.00    4.40
   4  -1  -9    5.40    4.30
  -4   1   9    1.50    2.80
   3  -1  -9  260.47   13.80
   3  -1  -9  269.37   16.30
   3  -1  -9  241.78   12.00
   3  -1  -9  270.97   15.80
   3  -1  -9  248.08   15.10
   3  -1  -9  234.28   14.50
  -3   1   9  245.58   15.30
  -3   1   9  265.17   24.00
  -3   1   9  239.78   15.80
   2  -1  -9   55.29    6.00
   2  -1  -9   78.59    7.30
   2  -1  -9   60.69    6.10
   2  -1  -9   65.99    7.30
   2  -1  -9   67.29    7.40
  -2   1   9   69.09    7.40
  -2   1   9   62.89    8.90
  -2   1   9   67.59   14.80
   1  -1  -9   83.59    7.90
   1  -1  -9  101.79    8.40
   1  -1  -9   96.29    7.30
   1  -1  -9   90.09    7.20
   1  -1  -9   82.49    6.80
  -1   1   9   80.29    8.00
  -1   1   9   97.39   16.50
   0  -1  -9  577.34   24.60
   0  -1  -9  603.04   23.10
   0  -1  -9  609.44   24.00
   0   1   9  607.04   25.60
   0   1   9  560.14   24.20
   0   1   9  579.34   25.90
   0   1   9  576.74   31.60
  -1  -1  -9  184.98    9.00
  -1  -1  -9  176.98   10.60
  -1  -1  -9  182.98   10.20
   1   1   9  174.38   10.50
   1   1   9  155.28   14.20
   1   1   9  166.28   11.50
   1   1   9  170.18    9.00
   1   1   9  148.09   15.80
   1   1   9  175.08   11.70
  -2  -1  -9  100.99    4.60
  -2  -1  -9   94.09    5.90
  -2  -1  -9  104.29    9.60
  -2  -1  -9  109.19    7.70
  -2  -1  -9  100.89    7.60
   2   1   9   87.89    7.40
   2   1   9   89.39    6.30
   2   1   9  105.79    8.70
   2   1   9   91.79   11.70
   2   1   9   89.49   10.40
   2   1   9   99.79    9.20
  -3  -1  -9 2217.08   76.49
  -3  -1  -9 2246.88   73.29
   3   1   9 2264.77   76.29
   3   1   9 2177.48   76.79
   3   1   9 2191.68   72.49
   3   1   9 2153.88   79.49
   3   1   9 2474.95   82.99
   3   1   9 2306.97   81.69
  -4  -1  -9  104.79    7.10
   4   1   9  105.39    8.60
   4   1   9  100.89    5.40
   4   1   9   94.09    7.80
   4   1   9  113.39   11.30
   4   1   9   99.49   10.90
   4   1   9   99.39   11.10
   5   1   9   62.19   10.80
   5   1   9   65.99    9.40
   5   1   9   60.69    3.90
   5   1   9   65.69    7.10
   5   1   9   77.49   13.40
   5   1   9   71.59    6.70
   6   1   9  118.79   13.20
   6   1   9  119.99    5.60
   6   1   9  129.09   13.80
   6   1   9  114.19    9.10
   6   1   9  112.09    5.30
   6   1   9  140.79   13.30
   7   1   9  118.19    8.60
   7   1   9   91.79   15.10
   7   1   9   92.89   15.20
   7   1   9   81.69   12.40
   7   1   9   96.89    7.90
   8   1   9   -3.70    7.70
   8   1   9  -10.30    6.80
   8   1   9   -7.20    5.70
   8   1   9   -4.10    2.80
   9   1   9   68.19   15.90
   9   1   9   57.49    8.90
   9   1   9   53.09   13.50
   9   1   9   82.39   15.90
  10   1   9   -5.70   10.20
  10   1   9    1.70   10.30
  10   1   9  -12.90    8.60
   9  -2  -9    5.70   11.30
   8  -2  -9   51.69    9.10
   8  -2  -9   44.80   11.00
   8  -2  -9   72.09   14.90
   7  -2  -9  357.46   27.20
   7  -2  -9  346.47   23.00
   7  -2  -9  361.56   21.50
   7  -2  -9  370.36   20.40
   6  -2  -9    9.40    6.20
   6  -2  -9    1.60    4.20
   5  -2  -9   20.90    6.40
   5  -2  -9   20.50    5.20
   5  -2  -9   20.50    7.00
   5  -2  -9   31.80    8.90
   5  -2  -9   28.70    7.50
   4  -2  -9  104.59   10.50
   4  -2  -9  108.39   10.20
   4  -2  -9  119.29    9.90
   4  -2  -9   91.99    9.90
  -4   2   9  103.09   10.00
   3  -2  -9 1115.19   44.80
   3  -2  -9 1173.88   44.30
   3  -2  -9 1237.08   46.00
   3  -2  -9 1130.19   44.70
  -3   2   9 1155.08   46.00
  -3   2   9 1205.98   56.99
   2  -2  -9  254.87   15.00
   2  -2  -9  289.87   16.30
   2  -2  -9  291.07   15.80
   2  -2  -9  268.67   14.90
  -2   2   9  287.57   23.30
  -2   2   9  289.77   13.30
  -2   2   9  303.77   17.10
   1  -2  -9   86.39    8.00
   1  -2  -9   71.19    6.80
   1  -2  -9   63.69    7.30
   1  -2  -9   74.39    6.90
  -1   2   9   44.70   13.90
  -1   2   9   74.29    6.70
  -1   2   9   96.09   16.40
  -1   2   9   73.99    8.00
   0  -2  -9  105.19    7.30
   0  -2  -9  100.59    8.20
   0  -2  -9  104.89    7.80
   0  -2  -9   98.09    8.40
   0   2   9  108.49    8.10
   0   2   9   98.39    8.80
   0   2   9   87.09   11.50
   0   2   9   57.59   14.20
  -1  -2  -9  879.51   33.70
  -1  -2  -9  907.21   33.00
  -1  -2  -9  901.11   31.50
   1   2   9  839.92   31.90
   1   2   9  967.10   39.80
   1   2   9  845.22   33.90
   1   2   9  894.01   34.80
   1   2   9  883.51   33.90
   1   2   9  781.42   43.20
  -2  -2  -9  804.12   31.00
  -2  -2  -9  835.92   30.50
   2   2   9  796.32   31.60
   2   2   9  818.52   35.50
   2   2   9  774.42   28.50
   2   2   9  803.32   32.00
   2   2   9  793.52   32.40
   2   2   9  785.82   39.10
  -3  -2  -9  552.04   19.40
  -3  -2  -9  561.04   22.70
  -3  -2  -9  555.84   22.80
   3   2   9  578.94   29.50
   3   2   9  571.74   27.50
   3   2   9  531.55   19.70
   3   2   9  531.25   23.60
  -4  -2  -9  792.32   26.90
  -4  -2  -9  818.22   31.20
   4   2   9  757.92   35.80
   4   2   9  836.22   37.60
   4   2   9  819.52   32.60
  -5  -2  -9  410.26   17.00
   5   2   9  383.46   23.60
   5   2   9  413.06   24.50
   5   2   9  411.06   19.70
   6   2   9   -1.00    4.50
   6   2   9    4.00    3.00
   6   2   9    2.60    5.60
   7   2   9    6.30    6.90
   7   2   9   15.30    4.70
   7   2   9    6.80    7.30
   7   2   9   10.30    4.70
   8   2   9   14.10    9.00
   8   2   9   18.50    4.90
   8   2   9   12.80    8.70
   8   2   9   15.40    9.50
   8   2   9   22.80    5.20
   9   2   9   70.79    7.20
   9   2   9   86.59    7.80
   9   2   9   71.19   16.80
   9   2   9   86.09   17.20
   9   2   9   63.69   15.40
  10   2   9    2.70    8.10
  10   2   9   15.50   11.40
  10   2   9   -2.70    7.90
  11   2   9  -14.00   10.70
  11   2   9  -30.60   12.50
  11   2   9  -15.30    9.90
   8  -3  -9   -2.90    7.10
   8  -3  -9   -5.70    6.50
   8  -3  -9   -2.00    5.20
   7  -3  -9  380.56   22.00
   7  -3  -9  383.86   23.70
   7  -3  -9  418.86   25.90
   7  -3  -9  393.36   28.30
   6  -3  -9   35.10    8.00
   6  -3  -9   26.50    7.30
   6  -3  -9   36.60    9.90
   6  -3  -9   25.40    8.70
   5  -3  -9    0.80    4.60
   5  -3  -9    7.70    5.30
   5  -3  -9    2.30    4.60
   5  -3  -9   -6.90    3.80
   4  -3  -9   47.80    8.50
   4  -3  -9   46.80    7.90
   4  -3  -9   45.10    9.80
   4  -3  -9   38.80    8.20
  -4   3   9   53.69    7.60
   3  -3  -9    3.40    4.10
   3  -3  -9    0.50    3.00
   3  -3  -9   -5.50    2.50
   3  -3  -9    3.20    4.30
  -3   3   9    2.40    3.10
  -3   3   9    4.40    8.10
   2  -3  -9   -0.10    3.00
   2  -3  -9    2.30    3.50
   2  -3  -9   -2.00    3.10
  -2   3   9    6.50    4.20
  -2   3   9   -1.30    6.60
   1  -3  -9  505.85   23.40
   1  -3  -9  505.95   24.00
   1  -3  -9  531.05   23.30
   1  -3  -9  507.85   23.30
  -1   3   9  514.45   20.00
  -1   3   9  490.85   30.10
  -1   3   9  519.05   24.30
   0  -3  -9   63.39    7.00
   0  -3  -9   50.59    6.80
   0  -3  -9   52.09    5.80
   0  -3  -9   60.19    8.20
   0   3   9   53.49    5.40
   0   3   9   70.59    9.00
   0   3   9   36.00   12.90
   0   3   9   56.79   11.60
  -1  -3  -9  385.56   18.10
  -1  -3  -9  416.16   17.30
  -1  -3  -9  409.36   19.20
   1   3   9  399.06   18.00
   1   3   9  333.47   26.80
   1   3   9  414.46   23.10
   1   3   9  401.86   19.70
  -2  -3  -9  203.58    9.70
  -2  -3  -9  209.28   13.30
  -2  -3  -9  206.78   11.30
   2   3   9  210.28   18.90
   2   3   9  186.18   12.40
   2   3   9  215.38   15.10
   2   3   9  197.78   12.70
  -3  -3  -9  947.71   31.20
  -3  -3  -9  925.01   35.50
  -3  -3  -9  948.91   34.40
   3   3   9 1004.30   44.50
   3   3   9  903.41   36.50
   3   3   9  887.01   36.80
   3   3   9  886.01   39.20
  -4  -3  -9 2362.96   83.49
  -4  -3  -9 2536.15   84.19
  -4  -3  -9 2481.15   85.09
   4   3   9 2601.54   92.29
   4   3   9 2568.54   88.19
   4   3   9 2650.63   94.59
   4   3   9 2552.84   87.19
  -5  -3  -9   68.99    6.70
  -5  -3  -9   70.09    6.50
   5   3   9   68.99    9.30
   5   3   9   68.19    7.90
   5   3   9   89.49   12.70
   5   3   9   70.29   12.10
  -6  -3  -9   35.40    4.70
  -6  -3  -9   43.40    4.90
   6   3   9   62.89    8.70
   6   3   9   47.00   11.20
   6   3   9   67.89   13.00
   6   3   9   52.09    8.00
   7   3   9   -3.90    3.70
   7   3   9    4.80    3.70
   7   3   9    3.70    6.90
   7   3   9    0.60    6.20
   8   3   9  204.58   20.40
   8   3   9  193.08   13.70
   8   3   9  212.88   14.50
   8   3   9  234.28   22.40
   9   3   9    5.80    4.20
   9   3   9   29.10   12.10
   9   3   9   13.00    9.70
  10   3   9   82.39   17.70
  10   3   9   51.19    7.00
  10   3   9   82.89   17.30
  10   3   9   60.89   15.70
  11   3   9    6.20   12.60
  11   3   9   27.60   13.20
  11   3   9   19.10   15.60
   7  -4  -9   41.30   12.50
   7  -4  -9   61.79   11.20
   6  -4  -9   37.40    9.60
   6  -4  -9   35.60    7.90
   6  -4  -9   29.00   10.20
   6  -4  -9   20.70    8.70
   5  -4  -9  244.78   16.90
   5  -4  -9  238.68   18.20
   5  -4  -9  234.68   18.50
   4  -4  -9   42.90    8.20
   4  -4  -9   49.30    8.90
   4  -4  -9   45.00    9.60
   4  -4  -9   54.39    9.20
   3  -4  -9  267.17   16.70
   3  -4  -9  285.27   18.40
   3  -4  -9  294.27   18.10
   3  -4  -9  287.67   18.40
  -3   4   9  298.77   17.50
   2  -4  -9  111.89   10.10
   2  -4  -9  109.29   10.00
   2  -4  -9   95.69   10.20
   2  -4  -9  104.09   10.60
  -2   4   9  117.69   10.20
  -2   4   9  114.49   17.10
   1  -4  -9 1235.48   48.60
   1  -4  -9 1289.27   49.20
   1  -4  -9 1312.57   51.59
  -1   4   9 1218.68   54.79
  -1   4   9 1283.37   48.40
  -1   4   9 1211.38   40.90
  -1   4   9 1228.18   40.80
   0  -4  -9   11.70    4.90
   0  -4  -9    7.40    3.80
   0  -4  -9   15.70    4.70
   0  -4  -9   16.80    5.10
   0   4   9    3.50    9.20
   0   4   9   -1.30    5.40
   0   4   9   10.40    3.70
   0   4   9   13.00    3.80
   0   4   9   13.60    6.30
  -1  -4  -9  671.03   29.20
  -1  -4  -9  675.43   28.60
  -1  -4  -9  691.43   27.40
   1   4   9  580.04   39.30
   1   4   9  698.03   32.30
   1   4   9  721.13   30.10
  -2  -4  -9   32.70    4.90
  -2  -4  -9   38.50    7.00
  -2  -4  -9   40.60    5.90
   2   4   9   33.80   11.80
   2   4   9   44.90    9.30
   2   4   9   31.20    6.60
  -3  -4  -9    4.10    2.90
  -3  -4  -9   -1.00    1.80
  -3  -4  -9    2.00    3.00
   3   4   9   -6.20    5.80
   3   4   9    1.30    3.80
   3   4   9    4.70    3.50
   3   4   9    0.00    4.80
  -4  -4  -9  393.96   17.70
  -4  -4  -9  401.96   19.80
  -4  -4  -9  393.16   13.90
   4   4   9  425.76   26.90
   4   4   9  415.86   23.50
   4   4   9  400.06   21.50
   4   4   9  407.16   21.00
  -5  -4  -9   46.80    7.10
  -5  -4  -9   40.10    5.40
   5   4   9   37.10    7.70
   5   4   9   29.90    8.90
   5   4   9   50.09   12.40
   5   4   9   45.30    7.60
  -6  -4  -9  894.11   34.70
   6   4   9  904.71   37.80
   6   4   9  892.71   39.20
   6   4   9  894.21   43.30
   6   4   9  936.31   45.90
  -7  -4  -9    4.80    5.00
   7   4   9   20.60    5.70
   7   4   9    9.90    5.40
   7   4   9   11.30    9.60
   7   4   9    4.50    7.30
   8   4   9    9.00    5.90
   8   4   9    8.50    4.70
   8   4   9   -1.50    6.50
   8   4   9   11.60    9.40
   9   4   9  317.37   26.90
   9   4   9  258.67   26.30
   9   4   9  311.77   18.70
  10   4   9 1269.87   63.99
  10   4   9 1184.78   48.50
  10   4   9 1319.27   66.99
  11   4   9   35.20   16.10
  11   4   9   19.20    5.70
   7  -5  -9   69.09   14.80
   6  -5  -9  156.18   13.90
   6  -5  -9  143.29   16.10
   5  -5  -9   54.69   11.20
   5  -5  -9   53.49   10.00
   5  -5  -9   47.00   10.30
   4  -5  -9   85.89   11.80
   4  -5  -9   78.39   12.40
   4  -5  -9   75.89   12.50
   3  -5  -9   52.59    9.90
   3  -5  -9   46.80    9.20
   3  -5  -9   70.79   11.60
   3  -5  -9   58.29    8.90
  -3   5   9   31.10    7.50
   2  -5  -9    7.80    5.50
   2  -5  -9    0.70    3.80
   2  -5  -9    4.50    4.60
   2  -5  -9    8.30    4.10
  -2   5   9    1.00    5.70
   1  -5  -9   15.70    6.30
   1  -5  -9   11.00    5.30
   1  -5  -9   19.00    6.10
  -1   5   9   14.40    5.20
  -1   5   9   -0.10   10.30
  -1   5   9   26.20    8.70
   0  -5  -9  525.45   33.30
   0  -5  -9  521.45   25.90
   0  -5  -9  500.35   25.30
   0   5   9  487.85   21.10
   0   5   9  456.05   27.20
  -1  -5  -9   26.90    7.00
  -1  -5  -9   21.60    5.20
  -1  -5  -9   25.10    7.40
   1   5   9   27.90    7.00
   1   5   9   14.10    7.20
   1   5   9   27.70   14.30
  -2  -5  -9  406.06   18.30
  -2  -5  -9  377.26   19.40
  -2  -5  -9  339.77   19.70
   2   5   9  377.16   21.20
   2   5   9  368.06   20.70
  -3  -5  -9  172.18   13.00
  -3  -5  -9  176.18   10.00
  -3  -5  -9  199.08   12.10
   3   5   9  151.68   20.60
   3   5   9  186.68   13.60
   3   5   9  164.28   13.80
  -4  -5  -9   54.09    4.70
  -4  -5  -9   40.80    7.70
  -4  -5  -9   56.69    6.50
   4   5   9   43.90    8.70
   4   5   9   58.99   12.60
   4   5   9   43.00   12.40
  -5  -5  -9    3.80    3.10
  -5  -5  -9    6.90    4.40
   5   5   9   -6.10    3.00
   5   5   9    5.70    8.30
   5   5   9   -0.80    4.60
   5   5   9    3.40    6.10
  -6  -5  -9   71.89    7.80
  -6  -5  -9   71.89    6.30
   6   5   9   53.69   12.10
   6   5   9   74.19   15.70
   6   5   9   74.19   10.90
   6   5   9   77.89   11.70
  -7  -5  -9  109.89    9.30
   7   5   9  110.29   11.90
   7   5   9  111.19   18.00
   7   5   9  118.89   12.30
   7   5   9  124.19   20.60
   8   5   9    9.60    9.20
   8   5   9   11.10    8.60
   8   5   9    4.40    6.00
   9   5   9    8.50    8.80
   9   5   9   -4.80    4.90
   9   5   9    0.60   11.00
  10   5   9  248.68   28.00
  10   5   9  217.48   24.20
  10   5   9  226.38   17.10
  11   5   9   20.60   15.90
  11   5   9   19.20    7.20
  11   5   9   35.30   14.90
   6  -6  -9  120.09   18.20
   6  -6  -9  170.58   18.00
   6  -6  -9  172.68   14.20
   5  -6  -9  267.07   21.80
   5  -6  -9  224.08   20.10
   5  -6  -9  238.38   17.70
   4  -6  -9  199.38   18.60
   4  -6  -9  189.18   17.70
   4  -6  -9  180.18   15.50
   3  -6  -9   -0.80    6.30
   3  -6  -9    2.20    5.50
   3  -6  -9    4.50    5.70
   2  -6  -9   36.80    9.00
   2  -6  -9   72.79   11.20
   2  -6  -9   50.09    9.80
   1  -6  -9  905.71   42.10
   1  -6  -9 1003.00   43.80
   1  -6  -9  990.00   42.40
   1  -6  -9  966.70   41.30
  -1   6   9  963.80   40.50
  -1   6   9  919.61   41.70
   0  -6  -9 2647.24   93.19
   0  -6  -9 2699.63   93.09
   0  -6  -9 2805.22   94.99
   0   6   9 2501.65   86.89
   0   6   9 2366.46   94.09
  -1  -6  -9    4.50    4.20
  -1  -6  -9   -0.50    4.20
  -1  -6  -9   -0.70    4.20
   1   6   9    6.30   10.00
   1   6   9   -0.70    4.90
   1   6   9   -0.20    5.50
  -2  -6  -9    5.00    4.40
  -2  -6  -9    6.00    5.40
  -2  -6  -9    5.90    4.20
   2   6   9   11.80    6.50
   2   6   9    6.00    5.60
   2   6   9   11.10   11.70
  -3  -6  -9  254.27   14.20
  -3  -6  -9  266.27   22.80
  -3  -6  -9  257.47   17.40
   3   6   9  240.58   17.00
   3   6   9  249.68   17.50
   3   6   9  241.68   24.30
  -4  -6  -9  219.18   15.40
  -4  -6  -9  194.08   11.10
  -4  -6  -9  215.28   13.20
   4   6   9  213.98   16.50
   4   6   9  218.48   22.70
  -5  -6  -9  339.37   16.60
  -5  -6  -9  334.77   20.20
  -5  -6  -9  371.16   14.00
  -5  -6  -9  341.37   16.80
   5   6   9  279.67   19.90
   5   6   9  356.16   27.70
   5   6   9  360.66   23.40
  -6  -6  -9   84.69   11.10
  -6  -6  -9   73.39    7.00
   6   6   9   84.59   12.90
   6   6   9  103.59   18.90
   6   6   9  110.69   13.80
  -7  -6  -9   26.60    4.50
  -7  -6  -9   41.40    7.20
   7   6   9   33.30    9.30
   7   6   9   49.30   12.70
   7   6   9   35.90   13.60
   8   6   9   99.89   14.60
   8   6   9   86.09   17.70
   9   6   9   76.19   17.60
   9   6   9   54.79   16.80
   9   6   9   51.49   11.00
  10   6   9   18.20   11.60
  10   6   9   31.20   15.20
  10   6   9   19.60    7.50
  11   6   9  265.37   20.00
  11   6   9  264.57   31.90
  11   6   9  312.37   31.00
   5  -7  -9  195.88   18.70
   5  -7  -9  168.78   18.60
   5  -7  -9  160.88   15.50
   4  -7  -9   79.99   12.10
   4  -7  -9  108.39   16.30
   4  -7  -9   68.19   14.00
   3  -7  -9    0.20    5.90
   3  -7  -9   -2.80    5.50
   3  -7  -9   -2.70    5.80
   2  -7  -9   -5.60    6.00
   2  -7  -9   12.30    7.30
   2  -7  -9   -4.00    5.80
   1  -7  -9   23.10    8.50
   1  -7  -9   54.99   10.90
   1  -7  -9   33.60    8.70
  -1   7   9   36.40   18.00
  -1   7   9   48.40    9.50
   0  -7  -9  811.12   38.10
   0  -7  -9  754.32   36.10
   0  -7  -9  767.02   36.20
   0   7   9  698.43   33.70
  -1  -7  -9    8.50    5.40
  -1  -7  -9    9.60    7.00
  -1  -7  -9   13.30    6.40
   1   7   9   14.50    6.00
   1   7   9    0.90   10.80
   1   7   9   10.40    5.90
  -2  -7  -9  300.97   18.30
  -2  -7  -9  304.87   19.40
  -2  -7  -9  353.66   21.30
   2   7   9  309.07   20.20
   2   7   9  256.77   28.70
   2   7   9  291.47   19.20
  -3  -7  -9   67.99    9.50
  -3  -7  -9   65.59    9.00
  -3  -7  -9   62.59   12.60
   3   7   9   62.79   17.80
   3   7   9   60.19   10.90
   3   7   9   53.29   10.40
  -4  -7  -9   10.60    4.70
  -4  -7  -9    4.30    3.40
  -4  -7  -9    6.50    5.50
   4   7   9    3.60    6.40
   4   7   9   14.80   11.30
   4   7   9    2.20    5.90
  -5  -7  -9  401.56   23.80
  -5  -7  -9  437.66   18.60
   5   7   9  380.66   24.30
   5   7   9  431.96   26.50
   5   7   9  414.36   32.50
  -6  -7  -9 1376.26   47.30
  -6  -7  -9 1464.45   57.19
  -6  -7  -9 1447.96   50.89
  -6  -7  -9 1374.56   46.60
   6   7   9 1480.15   69.59
   6   7   9 1396.76   61.59
   6   7   9 1400.96   58.89
  -7  -7  -9  222.68   15.90
  -7  -7  -9  179.08   10.90
   7   7   9  206.78   23.80
   7   7   9  192.58   19.60
   7   7   9  197.18   17.30
   8   7   9   55.49   15.10
   8   7   9   73.69   14.00
   8   7   9   73.09   18.40
   9   7   9   -2.00    8.50
   9   7   9    0.30   12.00
   9   7   9    7.70    7.60
  10   7   9   97.99   21.00
  10   7   9   77.29   14.50
  10   7   9  101.49   24.40
  11   7   9  311.17   34.50
   4  -8  -9  213.78   21.20
   3  -8  -9   16.90    8.70
   3  -8  -9   25.80   12.60
   3  -8  -9    2.90    7.40
   2  -8  -9  140.69   19.20
   2  -8  -9  128.79   17.80
   2  -8  -9  117.09   15.80
   1  -8  -9   21.00    8.80
   1  -8  -9   27.70    8.90
   1  -8  -9   18.00    8.80
   0   8   9  279.97   34.00
  -1  -8  -9   54.49   11.80
  -1  -8  -9   34.60    8.50
  -1  -8  -9   50.79   10.80
   1   8   9   35.00    9.00
   1   8   9   30.90   15.60
   1   8   9   67.19    8.90
  -2  -8  -9    3.80    5.80
  -2  -8  -9   -2.10    4.20
  -2  -8  -9   10.80    6.10
   2   8   9    0.20   12.30
   2   8   9    2.20    5.40
   2   8   9   -3.40    5.60
  -3  -8  -9  301.67   18.70
  -3  -8  -9  282.67   20.80
  -3  -8  -9  290.57   19.60
   3   8   9  261.17   29.40
   3   8   9  282.47   20.70
   3   8   9  258.37   18.80
  -4  -8  -9   49.20    8.40
  -4  -8  -9   52.99    9.00
  -4  -8  -9   47.00   10.60
   4   8   9   36.70    9.90
   4   8   9   39.20   15.40
   4   8   9   39.10   10.00
  -5  -8  -9    2.00    4.10
  -5  -8  -9    6.40    6.30
  -5  -8  -9    9.30    4.20
   5   8   9   -2.40    9.10
   5   8   9    3.40    6.60
   5   8   9   -2.00    6.50
  -6  -8  -9  636.74   26.60
  -6  -8  -9  709.13   29.40
  -6  -8  -9  719.93   35.40
   6   8   9  690.83   51.29
   6   8   9  665.03   36.40
   6   8   9  673.93   37.40
  -7  -8  -9   37.50    9.20
  -7  -8  -9   21.80    5.00
   7   8   9   23.10   13.60
   8   8   9  255.27   24.20
   8   8   9  251.47   21.20
   8   8   9  249.78   28.80
   9   8   9   29.80   15.70
   9   8   9   23.60    9.00
   9   8   9    2.00    9.60
  10   8   9    1.00    7.50
  10   8   9   12.10   12.60
  10   8   9   37.90   17.20
   2  -9  -9    5.60    7.40
   2  -9  -9    8.50    7.70
   2  -9  -9    6.70    8.80
   1  -9  -9    1.60    5.40
   1  -9  -9    0.60    7.60
   1  -9  -9   -2.50    6.90
   0  -9  -9   50.89   11.90
   0  -9  -9   53.29   11.90
   0  -9  -9   55.49   12.30
   0   9   9   47.00   19.80
  -1  -9  -9  242.38   21.00
  -1  -9  -9  265.27   21.90
  -1  -9  -9  253.77   20.80
  -2  -9  -9   12.70    8.90
  -2  -9  -9    3.00    6.30
  -2  -9  -9    3.30    6.70
   2   9   9    3.20    8.10
   2   9   9  -13.20   10.60
   2   9   9   26.70    7.40
  -3  -9  -9  169.28   17.50
  -3  -9  -9  141.39   14.40
  -3  -9  -9  127.09   14.50
   3   9   9  148.49   14.70
   3   9   9  182.08   38.10
   3   9   9  177.28   16.60
  -4  -9  -9    7.20    7.30
  -4  -9  -9   -6.70    5.00
  -4  -9  -9    4.00    5.20
   4   9   9    7.10    8.40
   4   9   9  -13.80    5.60
  -5  -9  -9   11.40    5.40
  -5  -9  -9   30.30    9.30
  -5  -9  -9   15.10    6.80
   5   9   9   10.60    8.50
   5   9   9   16.50    9.30
   5   9   9   15.30   14.60
  -6  -9  -9  102.79   14.70
  -6  -9  -9   48.50    8.20
  -6  -9  -9   37.20   10.40
   6   9   9   69.59   14.50
   6   9   9   84.29   21.60
   6   9   9   58.29   14.10
  -7  -9  -9  364.46   25.90
  -7  -9  -9  353.76   18.60
   7   9   9  365.56   27.60
   7   9   9  376.36   36.00
   7   9   9  401.66   29.50
   8   9   9  119.79   18.50
   8   9   9   72.69   16.80
   8   9   9   84.19   22.90
   9   9   9    0.70    9.50
   9   9   9   -4.70   12.90
   9   9   9    9.00    9.30
  10   9   9   61.39   21.30
  10   9   9   45.00   16.10
  10   9   9   27.40   12.40
   1 -10  -9   -0.50    7.60
   1 -10  -9   14.40    9.60
   1 -10  -9    1.50    9.60
   0 -10  -9   23.80   10.30
  -1 -10  -9  126.79   18.50
  -1 -10  -9   88.09   15.90
  -1 -10  -9   80.19   14.50
   1  10   9   82.39   23.40
  -2 -10  -9  790.72   41.30
  -2 -10  -9  788.22   43.00
  -2 -10  -9  814.92   42.00
  -3 -10  -9   15.60   10.20
  -3 -10  -9    4.70    6.80
  -3 -10  -9   31.60    8.80
   3  10   9    2.00   14.10
   3  10   9   -0.80    8.70
  -4 -10  -9   13.20    7.50
  -4 -10  -9    2.10    6.80
   4  10   9   14.20   15.90
   4  10   9    0.80    8.20
   4  10   9   -3.90    8.60
  -5 -10  -9   96.69   13.10
  -5 -10  -9  135.39   18.30
   5  10   9   84.59   23.20
   5  10   9  101.19   17.40
   5  10   9  106.79   16.30
  -6 -10  -9   97.89   12.60
  -6 -10  -9  108.49   16.80
  -6 -10  -9   93.69   12.20
   6  10   9  133.19   19.70
   6  10   9  105.09   26.20
   7  10   9 1060.79   53.49
   7  10   9 1088.29   67.59
   8  10   9   29.20   11.30
   8  10   9   14.40   12.60
   9  10   9  133.59   20.60
   9  10   9  115.99   27.20
   9  10   9  163.38   26.10
  -1 -11  -9   13.30   12.80
  -1 -11  -9    2.10    8.50
  -1 -11  -9   31.00   11.30
  -2 -11  -9  200.28   34.40
  -2 -11  -9  183.38   19.90
   2  11   9  246.18   30.70
  -3 -11  -9   -0.20    7.10
  -3 -11  -9    2.00    6.80
  -3 -11  -9    4.80    7.70
  -4 -11  -9   -4.40    6.60
  -4 -11  -9   -1.30    8.00
  -4 -11  -9    8.00    9.40
   4  11   9   32.50   16.00
  -5 -11  -9   18.80    8.90
  -5 -11  -9   27.10   11.50
  -5 -11  -9    8.40    8.80
   5  11   9   -2.00   10.80
   5  11   9   12.00   17.70
  -6 -11  -9   -1.10    9.90
   6  11   9  -24.30   10.50
   6  11   9    8.40   18.10
   6  11   9   -2.60   10.80
   7  11   9  155.28   30.40
   7  11   9  158.68   20.70
   7  11   9  203.98   22.30
   8  11   9   36.40   14.20
   3  12   9  387.06   42.00
  -4 -12  -9   64.59   13.70
  -4 -12  -9   48.60   15.10
  -4 -12  -9   38.30   13.00
   4  12   9   78.69   22.50
  -5 -12  -9  139.49   25.20
  -5 -12  -9   51.09   12.70
   5  12   9   86.39   28.40
   7  12   9  -33.00   15.20
  -5 -10  10   97.49   22.10
  -4 -10  10   73.19   17.40
  -4 -10  10   98.69   25.50
   7   9 -10  -16.50   21.10
   7   9 -10   -1.00   16.10
   6   9 -10   -1.10   11.70
  -6  -9  10  -29.60   15.10
  -6  -9  10   -2.00   13.20
  -5  -9  10   53.09   14.40
  -5  -9  10   23.90   12.50
  -5  -9  10   26.60   15.70
  -4  -9  10   37.00   13.80
  -4  -9  10   42.40   13.60
  -4  -9  10   29.10   17.10
  -3  -9  10   55.59   14.30
  -3  -9  10   24.60   14.90
  -3  -9  10   -7.70    7.30
  -2  -9  10   45.80   15.10
  -2  -9  10   46.60   17.40
  -1  -9  10    8.30    8.00
  -1  -9  10   14.30   13.10
  -1  -9  10  -15.90    6.80
   0  -9  10  -11.00   14.70
   8   8 -10   16.60    9.20
   8   8 -10   -0.10   15.50
   8   8 -10   25.60   12.30
   7   8 -10   -0.80   11.00
   7   8 -10   17.30    9.60
  -7  -8  10    2.00   11.10
   6   8 -10   -4.10    9.10
   6   8 -10   36.80   10.50
   6   8 -10    9.10   11.80
  -6  -8  10   19.40   11.90
  -6  -8  10   29.70   13.60
  -6  -8  10   -4.10    8.40
   5   8 -10   17.50    9.40
   5   8 -10    1.10    9.50
   5   8 -10   -6.80    9.90
  -5  -8  10    5.30    8.30
  -5  -8  10   13.30   14.20
   4   8 -10  184.88   20.00
  -4  -8  10  235.28   29.10
  -4  -8  10  200.08   28.30
   3   8 -10   17.70   12.40
  -3  -8  10   19.50   12.10
  -3  -8  10   16.70   12.70
  -2  -8  10    2.30    8.80
  -2  -8  10   -9.00    9.80
  -1  -8  10   23.10    9.40
  -1  -8  10   12.10   12.50
   0  -8  10   12.30   10.50
   0  -8  10   11.70   11.90
   1  -8  10   86.39   16.80
   1  -8  10   81.39   20.20
   1  -8  10   94.19   20.10
   2  -8  10    0.20   13.30
   2  -8  10   -2.20    7.70
   3  -8  10   11.90   17.20
   9   7 -10   12.40   18.80
   9   7 -10   62.89   11.90
   8   7 -10   -0.70    8.90
   8   7 -10   16.70    7.30
   8   7 -10  -15.60    9.80
   7   7 -10   75.99   13.70
   7   7 -10   31.80   15.90
   7   7 -10   57.49   14.20
  -7  -7  10   83.29   19.80
   6   7 -10   27.50   11.40
   6   7 -10   24.10    8.20
  -6  -7  10   47.40   15.80
  -6  -7  10    4.00    9.10
   5   7 -10   20.70    9.70
   5   7 -10    9.30    9.30
   5   7 -10    9.10    7.30
  -5  -7  10    0.80   11.70
  -5  -7  10   15.60   10.50
   4   7 -10   18.40    9.10
   4   7 -10   40.30   11.00
   4   7 -10   28.80   10.00
  -4  -7  10   43.30   16.10
  -4  -7  10   37.40   13.00
   3   7 -10  143.49   13.90
   3   7 -10  155.48   17.10
  -3  -7  10  197.38   24.30
  -3  -7  10  169.18   23.30
   2   7 -10   11.60    7.90
  -2  -7  10    5.80   13.20
  -1  -7  10  358.86   28.20
  -1  -7  10  322.77   31.90
   0  -7  10    7.80   11.80
   0  -7  10   18.60   11.20
   1  -7  10   16.60   11.30
   1  -7  10   -1.60    7.50
   2  -7  10  331.27   31.80
   2  -7  10  306.67   28.80
   2  -7  10  357.76   26.80
   3  -7  10   -0.60    6.30
   3  -7  10  -11.90    7.70
   9   6 -10   15.90   15.80
   9   6 -10   -3.30    7.20
   8   6 -10   15.40   12.90
   8   6 -10    8.50    7.00
   8   6 -10   14.30    9.60
  -8  -6  10   -8.20   10.00
   7   6 -10  140.89   20.80
   7   6 -10  122.99   16.90
   7   6 -10  131.89   20.00
  -7  -6  10  152.58   26.90
   6   6 -10    0.50    8.40
   6   6 -10    5.40    8.00
   6   6 -10    2.80    7.10
  -6  -6  10   -0.20    9.40
  -6  -6  10    6.40   10.00
   5   6 -10   -0.30    6.80
   5   6 -10    5.60    6.60
   5   6 -10    6.60    8.50
  -5  -6  10   16.20    8.90
  -5  -6  10   15.90   12.00
   4   6 -10  110.49   17.20
   4   6 -10   93.29   14.60
   4   6 -10   73.49   14.20
  -4  -6  10  102.89   22.30
  -4  -6  10  109.59   17.40
   3   6 -10   21.90    8.90
   3   6 -10   11.30    6.60
   3   6 -10   14.60    7.50
  -3  -6  10   22.90   10.50
  -3  -6  10   17.20    9.80
   2   6 -10  155.58   15.90
   2   6 -10  152.48   16.00
   2   6 -10  151.68   11.60
  -2  -6  10  176.78   26.60
  -2  -6  10  173.38   20.00
   1   6 -10  176.38   16.40
  -1  -6  10  180.08   19.50
  -1  -6  10  161.08   24.90
   0   6 -10   70.79   10.80
   0  -6  10   63.49   14.00
   0  -6  10   76.89   18.50
   1  -6  10  183.78   19.40
   2  -6  10   57.79   18.50
   2  -6  10   40.30   11.40
   3  -6  10   69.69   13.20
   3  -6  10   60.49   17.80
   4  -6  10   13.50    7.00
   4  -6  10   10.10   11.40
   4  -6  10    0.30    8.30
   5  -6  10  118.19   20.50
   5  -6  10  148.79   24.10
   5  -6  10  154.98   13.90
  10   5 -10   38.20    9.80
   9   5 -10    7.90    8.60
   9   5 -10   17.30    7.20
   9   5 -10    9.70   21.20
   9   5 -10   36.80   11.30
   8   5 -10   35.90   16.50
   8   5 -10   39.20    9.30
   8   5 -10   28.50   10.90
   8   5 -10   28.80   10.20
  -8  -5  10   40.60   14.90
   7   5 -10    9.80    7.40
   7   5 -10   16.30   10.00
   7   5 -10    5.10   10.10
   7   5 -10   43.70   10.00
  -7  -5  10   22.70   13.40
   6   5 -10   41.60   11.80
   6   5 -10   68.39   17.60
   6   5 -10   51.39   12.40
  -6  -5  10   78.79   18.90
  -6  -5  10   64.49   13.80
   5   5 -10  315.77   26.80
   5   5 -10  374.96   25.70
   5   5 -10  308.87   21.20
  -5  -5  10  388.96   31.10
  -5  -5  10  396.96   27.90
   4   5 -10   44.60   10.70
   4   5 -10   46.20    9.90
   4   5 -10   41.10   11.80
  -4  -5  10   33.30   12.30
  -4  -5  10   75.69   16.80
   3   5 -10  226.28   18.50
   3   5 -10  262.47   18.30
   3   5 -10  247.78   19.70
  -3  -5  10  278.87   25.90
  -3  -5  10  263.97   22.20
   2   5 -10    3.60    5.60
   2   5 -10    2.70    4.50
   2   5 -10    1.00    5.40
  -2  -5  10   -0.50    7.60
  -2  -5  10    8.90    7.40
  -2  -5  10   -2.00    7.80
   1   5 -10  125.09   13.50
   1   5 -10  116.89   15.20
   1   5 -10   99.59    7.20
   1   5 -10  124.89    9.50
  -1  -5  10  112.79   17.20
  -1  -5  10  142.49   23.20
  -1  -5  10  143.19   21.80
   0   5 -10  228.48   17.10
   0  -5  10  228.08   20.00
   0  -5  10  214.88   23.30
   0  -5  10  235.78   21.80
   1  -5  10  127.19   22.10
   1  -5  10  112.19   16.40
   1  -5  10  125.89   15.80
   2  -5  10   26.30    8.20
   2  -5  10   23.40    8.50
   2  -5  10   11.60    9.30
   3  -5  10    4.30    9.80
   3  -5  10   10.30    6.00
   3  -5  10    3.60    6.40
   4  -5  10  133.79   22.80
   4  -5  10  131.29   14.30
   5  -5  10   28.90   11.10
   5  -5  10   44.60    9.00
   5  -5  10   63.59   16.50
   6  -5  10   60.79   10.70
   6  -5  10   85.09   18.20
  10   4 -10   31.60    9.00
   9   4 -10   61.19   11.10
   8   4 -10   15.20    9.00
   8   4 -10    1.70    7.00
   8   4 -10  -21.00    9.20
   8   4 -10    8.40    6.50
   7   4 -10  140.89   16.20
   7   4 -10  125.29   17.00
   7   4 -10  129.49   25.00
   7   4 -10  131.99   18.80
  -7  -4  10  135.39   22.10
   6   4 -10  103.79   14.60
   6   4 -10   70.99   11.20
   6   4 -10   76.99   18.10
   6   4 -10   95.59   16.00
  -6  -4  10  106.29   16.00
  -6  -4  10  116.69   21.00
   5   4 -10  152.58   13.30
   5   4 -10  124.39   14.30
   5   4 -10  117.29   12.90
   5   4 -10  133.19   17.10
  -5  -4  10  145.29   22.20
  -5  -4  10  136.79   15.60
   4   4 -10   12.60    7.40
   4   4 -10   19.30    7.70
   4   4 -10    5.90    5.10
   4   4 -10    3.30    4.70
  -4  -4  10    9.30    8.50
  -4  -4  10   20.80    8.60
   3   4 -10  251.47   19.10
   3   4 -10  286.07   18.10
   3   4 -10  264.87   20.20
  -3  -4  10  251.77   23.30
  -3  -4  10  300.57   22.10
  -3  -4  10  299.37   29.70
   2   4 -10   33.50    8.90
   2   4 -10   35.90    8.70
   2   4 -10   35.70    8.10
  -2  -4  10   47.30   12.30
  -2  -4  10   55.59   14.10
  -2  -4  10   49.99   13.60
   1   4 -10  174.18   14.00
   1   4 -10  163.88   11.50
   1   4 -10  170.68   14.60
  -1  -4  10  179.58   19.50
  -1  -4  10  190.98   23.80
  -1  -4  10  170.48   16.30
   0   4 -10   69.49   10.50
   0   4 -10   65.29   10.70
   0  -4  10   54.19    8.90
   0  -4  10   68.79   16.40
   0  -4  10   50.89   14.20
   0  -4  10   63.99   12.20
  -1   4 -10   10.20    4.40
   1  -4  10    7.40    6.80
   1  -4  10   -7.90    6.10
   1  -4  10    0.70    7.50
   1  -4  10    3.10    4.00
  -2   4 -10  508.65   24.00
   2  -4  10  487.95   31.40
   2  -4  10  477.55   24.30
   2  -4  10  487.95   32.80
   2  -4  10  516.65   28.60
   3  -4  10   42.20   10.70
   3  -4  10   19.20   10.40
   3  -4  10   44.20    9.40
   4  -4  10   25.60    8.50
   4  -4  10   54.29   16.30
   4  -4  10   35.20   10.20
   4  -4  10   33.50    9.50
   5  -4  10  145.69   23.10
   5  -4  10  158.08   14.10
   5  -4  10  183.98   15.90
   6  -4  10  808.92   32.30
   6  -4  10  746.73   45.10
   6  -4  10  730.03   44.40
   7  -4  10   24.50   14.10
   7  -4  10   62.39   15.80
   9   3 -10   42.80   19.90
   9   3 -10   31.70   14.90
   9   3 -10   23.90    8.60
   9   3 -10   62.39   21.30
   8   3 -10   28.80    8.70
   8   3 -10   33.20   15.20
   8   3 -10   -1.50    7.40
   8   3 -10   20.60    9.50
   7   3 -10   -0.40    6.80
   7   3 -10   11.90    6.40
   7   3 -10    8.80    7.50
  -7  -3  10    1.30    7.50
   6   3 -10   55.49   12.30
   6   3 -10   47.10    9.30
   6   3 -10   74.89   12.40
  -6  -3  10   67.89   14.80
  -6  -3  10   77.29   13.90
   5   3 -10    4.50    5.90
   5   3 -10    5.20    6.00
   5   3 -10    0.30    5.90
  -5  -3  10    1.10    7.30
  -5  -3  10    1.40    6.00
   4   3 -10  783.02   36.80
   4   3 -10  725.73   33.70
   4   3 -10  776.32   33.20
  -4  -3  10  789.12   41.40
  -4  -3  10  703.93   37.50
   3   3 -10   27.40    6.70
   3   3 -10   30.10    7.80
  -3  -3  10   38.80   11.50
  -3  -3  10    9.80   10.20
  -3  -3  10   34.50    9.30
   2   3 -10 1300.77   47.80
   2   3 -10 1300.47   49.20
   2   3 -10 1251.37   51.49
  -2  -3  10 1275.87   54.39
  -2  -3  10 1180.88   69.49
  -2  -3  10 1354.56   59.09
   1   3 -10  149.09   12.20
   1   3 -10  177.88   13.80
   1   3 -10  156.18   14.00
  -1  -3  10  173.38   15.20
  -1  -3  10  154.68   19.40
  -1  -3  10  179.88   18.30
   0   3 -10   69.49    7.40
   0   3 -10   82.89   10.50
   0   3 -10   69.89    9.80
   0  -3  10   59.59    8.70
   0  -3  10   62.89   13.40
   0  -3  10   62.49   16.10
   0  -3  10   65.29   12.70
  -1   3 -10  117.29   11.00
  -1   3 -10  130.79   11.00
   1  -3  10  115.99    7.70
   1  -3  10  138.89   16.30
   1  -3  10  135.49   10.60
   1  -3  10  146.29   14.00
   1  -3  10  143.59   17.40
  -2   3 -10    9.90    4.20
   2  -3  10    3.60    2.30
   2  -3  10   10.20    7.90
   2  -3  10   17.50    5.90
   2  -3  10    3.30    4.20
   2  -3  10   13.10    9.20
  -3   3 -10    7.10    3.40
   3  -3  10    5.40    8.30
   3  -3  10    6.30    3.80
   3  -3  10   -2.30    5.40
   3  -3  10    0.50    1.90
   3  -3  10    6.20    5.70
   4  -3  10   79.19   11.10
   4  -3  10  106.09   18.00
   4  -3  10   81.39   13.70
   4  -3  10   75.39    4.10
   4  -3  10   83.79    8.20
   4  -3  10   64.59    4.40
   5  -3  10  130.29   14.00
   5  -3  10  103.89   17.70
   5  -3  10  107.49   11.40
   5  -3  10  101.49    8.80
   6  -3  10   61.79   11.20
   6  -3  10   32.00   12.70
   6  -3  10   41.10    7.30
   7  -3  10   60.59   14.00
   7  -3  10   74.19   17.40
   8  -3  10  210.18   23.50
  10   2 -10    0.30    8.90
   9   2 -10  264.37   19.60
   8   2 -10   21.00    8.60
   8   2 -10   23.80    8.70
   8   2 -10   27.40   10.00
   7   2 -10   73.69   13.70
   7   2 -10   80.39   11.90
   7   2 -10  102.89   15.70
   6   2 -10   53.59   11.10
   6   2 -10   28.50    5.20
   6   2 -10   30.20    7.50
   6   2 -10   34.50    9.60
  -6  -2  10   28.80   10.20
  -6  -2  10   40.20    9.40
   5   2 -10  234.58   18.30
   5   2 -10  233.48   15.80
   5   2 -10  235.68   17.60
   5   2 -10  269.07   14.20
  -5  -2  10  284.47   23.60
  -5  -2  10  241.58   18.60
   4   2 -10 1064.59   42.60
   4   2 -10  994.30   38.50
   4   2 -10 1044.00   44.10
   4   2 -10  969.30   40.20
  -4  -2  10 1030.50   47.40
  -4  -2  10 1004.40   57.99
  -4  -2  10  977.40   44.90
   3   2 -10   88.99   10.00
   3   2 -10   91.49   10.50
   3   2 -10   91.49    9.00
  -3  -2  10  105.59   16.00
  -3  -2  10   89.09   13.50
  -3  -2  10   96.69   20.30
   2   2 -10   79.49   10.90
   2   2 -10   70.29    8.20
   2   2 -10   76.39    8.30
  -2  -2  10   89.29   13.00
  -2  -2  10   77.79   18.00
  -2  -2  10   86.29   14.80
   1   2 -10  143.19   10.70
   1   2 -10  135.09    9.30
   1   2 -10  145.79   12.10
  -1  -2  10  145.09   15.10
  -1  -2  10  146.39   18.30
  -1  -2  10  151.68   14.10
   0   2 -10    6.00    4.30
   0   2 -10    4.50    4.20
   0  -2  10    1.90    7.10
   0  -2  10    5.60    6.40
   0  -2  10    7.90    3.80
   0  -2  10    7.50    5.50
   0  -2  10    5.80    2.40
  -1   2 -10   82.79    8.40
  -1   2 -10   92.79    6.50
  -1   2 -10   82.29    8.90
   1  -2  10   76.89    7.90
   1  -2  10   83.49    5.50
   1  -2  10   82.79   11.70
   1  -2  10   85.69   15.90
   1  -2  10   82.69   16.30
  -2   2 -10 1115.49   42.50
  -2   2 -10 1071.89   41.70
   2  -2  10 1007.90   48.90
   2  -2  10 1039.60   40.40
   2  -2  10  992.10   43.20
   2  -2  10 1069.89   34.60
   2  -2  10 1037.70   47.80
  -3   2 -10    2.60    2.50
   3  -2  10   -1.10    5.30
   3  -2  10   -1.90    3.70
   3  -2  10   -0.40    6.10
   3  -2  10    1.30    3.20
   4  -2  10   49.90   11.70
   4  -2  10   42.10    8.10
   4  -2  10   42.20    6.40
   4  -2  10   69.19   13.00
   5  -2  10   46.10   11.10
   5  -2  10   42.30    6.00
   5  -2  10   46.70   13.00
   5  -2  10   34.10    7.50
   6  -2  10  189.48   20.30
   6  -2  10  177.28   17.60
   6  -2  10  156.88    9.80
   6  -2  10  164.88   12.10
   7  -2  10  347.67   27.30
   7  -2  10  328.57   14.00
   7  -2  10  329.97   25.10
   7  -2  10  332.47   13.60
   8  -2  10   63.59   14.40
   8  -2  10   44.00   11.50
   9  -2  10   12.10   13.90
  10   1 -10   13.60   14.20
   9   1 -10   57.59   14.60
   9   1 -10   46.20   10.90
   9   1 -10   39.70   11.50
   8   1 -10  103.19   15.20
   8   1 -10  110.79   15.10
   8   1 -10  133.59   17.80
   7   1 -10   14.60    8.70
   7   1 -10   11.70    3.80
   7   1 -10   10.70    7.20
   6   1 -10   11.20    3.80
   6   1 -10   13.80    7.20
   6   1 -10    5.00    7.00
   6   1 -10    5.20    5.40
  -6  -1  10    4.70    5.40
  -6  -1  10   13.30   11.40
   5   1 -10   -9.40    3.90
   5   1 -10    5.60    4.90
   5   1 -10    2.90    3.40
   5   1 -10    5.40    4.90
   5   1 -10    7.90    5.10
  -5  -1  10    0.10    4.40
  -5  -1  10    2.60    4.80
   4   1 -10   12.70    5.50
   4   1 -10   33.00    8.00
   4   1 -10   28.20    6.10
   4   1 -10   28.70    5.20
   4   1 -10   26.20    7.20
  -4  -1  10   15.10   12.20
  -4  -1  10   28.50    8.40
  -4  -1  10   41.20   10.00
   3   1 -10   39.90    6.00
   3   1 -10   31.50    7.90
   3   1 -10   37.60    7.20
   3   1 -10   38.40    7.10
  -3  -1  10   34.60    9.40
  -3  -1  10   43.60    9.60
  -3  -1  10   35.30   13.80
   2   1 -10    3.60    2.90
   2   1 -10    9.70    4.10
   2   1 -10   21.90    5.20
   2   1 -10   11.70    5.50
  -2  -1  10   17.30   10.60
  -2  -1  10   16.30    7.70
  -2  -1  10   15.40    6.10
   1   1 -10   20.40    4.80
   1   1 -10   24.60    5.00
   1   1 -10   25.10    4.70
   1   1 -10   27.90    6.40
  -1  -1  10   29.10    8.10
  -1  -1  10   20.50    6.70
  -1  -1  10   15.80    9.70
   0   1 -10    1.20    2.70
   0   1 -10    5.40    3.50
   0   1 -10    1.30    2.10
   0   1 -10    7.60    5.10
   0  -1  10    4.40    4.50
   0  -1  10    3.90    5.00
   0  -1  10   -0.60    6.80
   0  -1  10    4.70    3.20
  -1   1 -10   76.89    7.90
  -1   1 -10   63.69    7.10
  -1   1 -10   65.49    7.00
   1  -1  10   75.79    7.20
   1  -1  10   81.79   14.80
   1  -1  10   72.89   10.40
   1  -1  10   83.09   12.70
  -2   1 -10 3396.06  111.69
  -2   1 -10 3494.25  110.79
   2  -1  10 3357.76  111.99
   2  -1  10 3436.96  115.29
   2  -1  10 3266.67  120.89
   2  -1  10 3278.87  117.99
  -3   1 -10 1089.79   40.50
  -3   1 -10 1127.19   41.10
   3  -1  10 1155.18   41.90
   3  -1  10 1200.98   49.80
   3  -1  10 1123.89   48.30
   3  -1  10 1053.29   44.00
   4  -1  10   22.80    5.80
   4  -1  10   20.00    5.90
   4  -1  10   27.80    8.30
   4  -1  10   20.40    4.60
   4  -1  10   23.60    8.60
   5  -1  10    7.60    6.90
   5  -1  10    7.90    4.90
   5  -1  10    5.70    4.10
   5  -1  10    7.70    6.10
   5  -1  10    9.50    5.80
   6  -1  10    3.30    5.00
   6  -1  10    2.80    6.80
   6  -1  10    4.70    4.10
   6  -1  10    2.80    3.00
   6  -1  10    9.50    8.20
   7  -1  10   36.00   11.40
   7  -1  10   37.30   12.30
   7  -1  10   38.80    5.20
   7  -1  10   25.30    7.50
   7  -1  10   46.00    6.80
   7  -1  10   48.50    5.70
   8  -1  10   79.19   16.60
   8  -1  10   87.69   16.90
   9  -1  10   -3.20    7.00
   9  -1  10    4.00    9.90
   9   0 -10   92.99   14.20
   9   0 -10  105.39   18.00
   8   0 -10  799.92   43.70
   8   0 -10  798.72   38.50
   8   0 -10  788.02   38.50
   7   0 -10   32.40    6.00
   7   0 -10   34.40    9.40
   7   0 -10   27.40    8.40
   7   0 -10   27.50    9.50
   6   0 -10    6.10    4.40
   6   0 -10    9.70    6.40
   6   0 -10    6.20    5.60
   6   0 -10    1.40    6.70
   5   0 -10    6.00    5.70
   5   0 -10   11.50    4.00
   5   0 -10   11.50    6.40
   5   0 -10    0.60    4.00
  -5   0  10    8.20    4.80
   4   0 -10 1147.79   46.80
   4   0 -10 1158.38   45.30
   4   0 -10 1080.29   46.30
   4   0 -10 1196.28   47.80
   4   0 -10 1198.18   43.10
  -4   0  10 1203.08   49.00
  -4   0  10 1149.08   46.50
  -4   0  10 1163.48   61.99
   3   0 -10  121.79   10.60
   3   0 -10  116.29   10.00
   3   0 -10  120.79    9.20
   3   0 -10  123.09   11.10
   3   0 -10  111.99   10.90
  -3   0  10  123.69   25.20
  -3   0  10  123.89   12.30
  -3   0  10  116.39   11.50
   2   0 -10    6.00    3.20
   2   0 -10    4.70    4.10
   2   0 -10   11.10    4.80
   2   0 -10    3.30    3.70
   2   0 -10    6.90    3.80
  -2   0  10    7.60    5.10
  -2   0  10    0.90    7.90
  -2   0  10    4.10    4.80
   1   0 -10  619.04   26.90
   1   0 -10  609.14   25.00
   1   0 -10  609.84   25.20
   1   0 -10  618.14   25.00
  -1   0  10  598.84   36.30
  -1   0  10  601.14   29.10
  -1   0  10  598.24   28.50
   0   0 -10  771.02   27.80
   0   0 -10  774.22   28.70
   0   0 -10  735.53   30.50
   0   0 -10  744.03   29.50
   0   0  10  765.62   32.80
   0   0  10  748.63   33.50
   0   0  10  712.43   29.80
   0   0  10  701.63   39.00
  -1   0 -10   45.60    6.80
  -1   0 -10   57.29    9.70
  -1   0 -10   42.50    5.60
  -1   0 -10   38.60    3.50
  -1   0 -10   38.60    5.80
   1   0  10   43.80   11.00
   1   0  10   39.30    6.10
   1   0  10   48.70    8.20
   1   0  10   39.10    8.10
   1   0  10   38.70   10.60
  -2   0 -10    4.70    3.10
  -2   0 -10    3.40    2.50
  -2   0 -10   11.30    3.70
   2   0  10   -1.40    4.80
   2   0  10    2.70    4.90
   2   0  10    7.00    3.50
   2   0  10    3.50    4.00
   2   0  10    6.30    6.60
  -3   0 -10  593.84   24.60
  -3   0 -10  622.54   24.50
  -3   0 -10  619.34   26.80
   3   0  10  582.94   29.50
   3   0  10  610.64   31.20
   3   0  10  599.04   22.80
   3   0  10  610.14   30.10
   3   0  10  593.04   26.70
  -4   0 -10  775.02   29.40
  -4   0 -10  736.53   33.20
   4   0  10  859.81   35.90
   4   0  10  789.72   37.60
   4   0  10  766.02   32.50
   4   0  10  791.62   37.10
   4   0  10  780.02   28.50
   4   0  10  851.21   31.50
   5   0  10   50.59    9.40
   5   0  10   50.49    7.70
   5   0  10   43.60    5.60
   5   0  10   79.19   13.40
   5   0  10   59.19    6.30
   5   0  10   58.49   11.70
   6   0  10   30.00    5.20
   6   0  10   13.40    4.90
   6   0  10   11.80    8.30
   6   0  10   27.50    9.10
   6   0  10   31.60    8.30
   7   0  10    4.60    9.00
   7   0  10   11.60    3.50
   7   0  10    7.70    7.00
   7   0  10    9.00    4.20
   7   0  10    8.60    8.60
   7   0  10   21.50    4.20
   8   0  10  711.33   24.90
   8   0  10  734.03   36.60
   8   0  10  633.24   38.30
   8   0  10  703.33   39.80
   8   0  10  689.23   24.60
   9   0  10   82.69   17.00
   9   0  10   71.69   11.40
   9   0  10   61.19   15.10
  10   0  10   60.29   14.40
  10   0  10   30.60   14.90
   9  -1 -10   -7.40    6.70
   9  -1 -10    6.50    7.90
   8  -1 -10  504.25   33.50
   8  -1 -10  508.65   28.50
   8  -1 -10  560.84   30.70
   7  -1 -10  345.07   22.30
   7  -1 -10  337.27   18.60
   7  -1 -10  358.66   26.70
   7  -1 -10  353.96   22.20
   6  -1 -10  214.98   16.50
   6  -1 -10  216.68   13.60
   6  -1 -10  187.98   18.30
   6  -1 -10  215.48   16.70
   5  -1 -10   14.00    7.20
   5  -1 -10    9.60    5.40
   5  -1 -10    9.20    2.70
   5  -1 -10    9.10    3.90
   5  -1 -10   12.20    6.10
   5  -1 -10   -2.50    4.80
  -5   1  10   14.60    6.00
   4  -1 -10  218.98   15.30
   4  -1 -10  221.08   13.20
   4  -1 -10  231.28   16.70
   4  -1 -10  212.28   14.80
   4  -1 -10  210.08   11.50
   4  -1 -10  203.28   14.40
  -4   1  10  225.68   15.70
  -4   1  10  263.57   25.70
   3  -1 -10   86.79    8.90
   3  -1 -10   85.49    9.60
   3  -1 -10   91.59    9.50
   3  -1 -10   83.89    9.70
   3  -1 -10   90.69    7.40
   3  -1 -10   92.69    8.10
  -3   1  10   94.19    8.80
  -3   1  10   94.59   10.20
  -3   1  10  119.69   21.30
   2  -1 -10 2035.60   69.19
   2  -1 -10 2066.59   71.39
   2  -1 -10 2038.40   70.09
   2  -1 -10 1941.01   67.99
   2  -1 -10 1997.60   70.89
   2  -1 -10 1942.11   71.49
  -2   1  10 1911.11   84.09
  -2   1  10 2028.40   73.29
  -2   1  10 2049.79   71.69
   1  -1 -10  249.78   13.60
   1  -1 -10  227.08   12.80
   1  -1 -10  225.28   13.90
   1  -1 -10  242.58   13.10
   1  -1 -10  239.88   13.00
   1  -1 -10  228.18   14.00
  -1   1  10  271.87   22.80
  -1   1  10  256.07   15.20
  -1   1  10  255.57   15.90
   0  -1 -10  515.25   20.70
   0  -1 -10  527.75   22.70
   0  -1 -10  474.75   21.10
   0   1  10  445.36   29.10
   0   1  10  502.05   23.50
   0   1  10  490.95   23.70
  -1  -1 -10   17.30    4.50
  -1  -1 -10   14.90    2.90
  -1  -1 -10   17.30    3.80
  -1  -1 -10   12.30    3.50
   1   1  10   16.20    5.10
   1   1  10   11.40    3.80
   1   1  10   16.50    8.30
   1   1  10   18.80    5.70
   1   1  10   12.10    7.10
  -2  -1 -10  679.33   24.20
  -2  -1 -10  655.93   21.90
  -2  -1 -10  667.23   26.70
  -2  -1 -10  691.73   26.90
   2   1  10  658.03   29.20
   2   1  10  664.73   28.20
   2   1  10  613.84   26.50
   2   1  10  563.04   33.10
   2   1  10  639.24   24.00
   2   1  10  636.84   32.10
  -3  -1 -10 2868.71   98.69
  -3  -1 -10 2983.60   95.39
   3   1  10 2885.61  104.39
   3   1  10 2894.31   95.49
   3   1  10 2910.11   98.49
   3   1  10 2911.21  102.29
   3   1  10 3149.58  106.69
   3   1  10 2950.90   99.69
  -4  -1 -10  606.84   24.00
   4   1  10  546.85   26.60
   4   1  10  587.04   21.40
   4   1  10  559.64   31.50
   4   1  10  589.44   25.30
   4   1  10  690.43   31.60
   4   1  10  627.44   31.00
  -5  -1 -10   77.69    5.50
   5   1  10   68.19    4.40
   5   1  10   72.69    8.10
   5   1  10   75.19    7.20
   5   1  10   67.39   12.10
   5   1  10   88.79   13.20
   5   1  10   90.09   10.70
   6   1  10   74.59    8.00
   6   1  10   74.49   13.10
   6   1  10   67.39    3.80
   6   1  10   75.49   11.10
   6   1  10   70.39   12.60
   6   1  10   76.69    7.50
   6   1  10   68.39    3.90
   7   1  10   10.80    7.10
   7   1  10   28.90    9.60
   7   1  10   20.30    5.10
   7   1  10   27.80    5.60
   7   1  10   23.10    9.60
   8   1  10   52.69    7.00
   8   1  10   66.39   14.80
   8   1  10   78.09   15.70
   8   1  10   80.99   14.70
   9   1  10   84.09   16.20
   9   1  10   54.69   10.00
   9   1  10   96.49   17.10
   9   1  10   83.39   17.10
  10   1  10  -13.10    9.30
  10   1  10  -12.60    9.80
   8  -2 -10   -8.20    8.00
   8  -2 -10    0.60    7.70
   7  -2 -10    9.40    6.00
   7  -2 -10   -4.40    7.60
   7  -2 -10   -2.60    4.90
   7  -2 -10   -4.00    6.00
   6  -2 -10  128.99   11.70
   6  -2 -10  150.58   13.80
   6  -2 -10  169.18   17.60
   6  -2 -10  143.19   14.00
   5  -2 -10  176.38   14.40
   5  -2 -10  182.88   12.90
   5  -2 -10  181.18   16.70
   5  -2 -10  170.98   14.20
   5  -2 -10  164.18   14.00
   4  -2 -10  182.08   12.60
   4  -2 -10  159.98   13.10
   4  -2 -10  162.08   13.10
   4  -2 -10  130.79   11.90
   4  -2 -10  158.68   14.50
  -4   2  10  194.68   19.90
   3  -2 -10  100.59    9.80
   3  -2 -10  104.39   10.30
   3  -2 -10  107.59   10.10
  -3   2  10  112.79   11.10
  -3   2  10   98.59    6.00
  -3   2  10  129.49   21.30
   2  -2 -10 5125.69  169.48
   2  -2 -10 5212.68  170.48
   2  -2 -10 5316.97  170.98
   2  -2 -10 5068.49  171.48
  -2   2  10 5286.07  167.98
  -2   2  10 5233.78  185.58
  -2   2  10 5230.98  172.78
   1  -2 -10  783.72   32.50
   1  -2 -10  810.92   31.80
   1  -2 -10  797.22   31.50
   1  -2 -10  808.02   33.50
  -1   2  10  759.82   37.00
  -1   2  10  833.62   31.90
  -1   2  10  751.92   41.60
   0  -2 -10 1937.11   64.99
   0  -2 -10 1915.51   65.69
   0  -2 -10 1890.51   66.69
   0   2  10 1866.01   68.19
   0   2  10 1894.41   76.19
   0   2  10 1905.21   66.39
  -1  -2 -10    2.90    3.60
  -1  -2 -10    0.40    2.50
  -1  -2 -10    2.50    2.20
   1   2  10   -1.50    3.50
   1   2  10    8.50    4.00
   1   2  10   -2.60    5.20
   1   2  10    7.60    3.00
   1   2  10   -2.40    5.40
  -2  -2 -10   27.30    5.60
  -2  -2 -10   21.60    3.60
  -2  -2 -10   25.60    4.70
   2   2  10   25.30    3.70
   2   2  10   18.90    4.70
   2   2  10   27.00    6.50
   2   2  10   20.30    9.00
   2   2  10   17.50    5.40
   2   2  10   24.20    7.90
  -3  -2 -10 2131.29   67.89
  -3  -2 -10 2143.69   71.59
  -3  -2 -10 2072.59   71.59
   3   2  10 2023.00   74.69
   3   2  10 2018.90   72.69
   3   2  10 2184.48   81.49
   3   2  10 2073.79   68.19
   3   2  10 2171.78   78.69
   3   2  10 2035.90   73.29
  -4  -2 -10  196.68   12.10
  -4  -2 -10  189.08    7.10
   4   2  10  190.68   12.40
   4   2  10  196.88   15.80
   4   2  10  171.28   12.20
   4   2  10  187.98   14.50
   4   2  10  183.28    7.70
   4   2  10  224.18   17.40
  -5  -2 -10  725.33   28.80
   5   2  10  772.02   35.90
   5   2  10  738.63   31.50
   5   2  10  861.31   38.90
   5   2  10  763.12   37.10
   5   2  10  775.22   32.10
   6   2  10    8.80    6.60
   6   2  10    7.20    8.20
   6   2  10   12.60    7.30
   6   2  10   15.90    5.20
   6   2  10   15.50    4.60
   7   2  10  102.39   14.00
   7   2  10  113.09   17.20
   7   2  10   86.09    8.90
   7   2  10   97.39   15.30
   8   2  10  122.69   16.40
   8   2  10   99.69    9.50
   8   2  10  109.29   18.50
   8   2  10  115.39    9.90
   9   2  10 1797.32   79.09
   9   2  10 1984.50   82.49
   9   2  10 1958.70   82.59
   9   2  10 1877.81   65.59
   9   2  10 1854.11   66.49
  10   2  10  290.17   26.30
  10   2  10  301.87   27.80
  10   2  10  251.27   24.10
   8  -3 -10   39.40    9.30
   8  -3 -10   55.89   15.00
   8  -3 -10   45.40   12.40
   7  -3 -10  105.19   17.30
   7  -3 -10  109.89   12.80
   7  -3 -10  129.99   13.10
   7  -3 -10  104.09   15.00
   6  -3 -10    2.50    6.60
   6  -3 -10    5.30    5.00
   6  -3 -10    1.40    7.60
   6  -3 -10    6.50    5.20
   5  -3 -10  167.98   19.40
   5  -3 -10  191.58   15.90
   5  -3 -10  216.28   15.70
   5  -3 -10  186.58   17.10
   4  -3 -10   49.40    8.60
   4  -3 -10   54.89    9.30
   4  -3 -10   34.70    8.00
   4  -3 -10   45.60    8.70
  -4   3  10   43.40    7.50
   3  -3 -10  166.38   12.90
   3  -3 -10  132.19   11.40
   3  -3 -10  184.68   13.20
   3  -3 -10  160.18   12.70
  -3   3  10  142.49   18.40
   2  -3 -10   10.40    5.10
   2  -3 -10   12.40    4.40
   2  -3 -10   14.10    5.30
   2  -3 -10   12.40    5.00
  -2   3  10   14.40    5.10
  -2   3  10   17.90   10.40
   1  -3 -10  256.87   15.50
   1  -3 -10  236.48   13.90
   1  -3 -10  252.87   14.60
   1  -3 -10  223.48   14.40
  -1   3  10  252.97   21.10
  -1   3  10  227.78   11.90
  -1   3  10  228.48   15.40
  -1   3  10  155.58   22.60
   0  -3 -10    2.70    2.70
   0  -3 -10    1.30    2.90
   0  -3 -10   12.20    4.60
   0   3  10   -1.70    7.30
   0   3  10    1.20    6.30
   0   3  10    4.10    3.50
   0   3  10   -0.20    3.90
  -1  -3 -10   15.40    4.00
  -1  -3 -10   12.90    4.40
  -1  -3 -10   17.30    3.90
   1   3  10   14.40    4.70
   1   3  10   18.00    7.60
   1   3  10   16.70    5.30
   1   3  10   16.90   10.00
  -2  -3 -10   57.49    5.00
  -2  -3 -10   66.49    6.50
  -2  -3 -10   60.89    6.90
   2   3  10   52.39   13.90
   2   3  10   56.89   10.50
   2   3  10   61.19    8.20
  -3  -3 -10  114.59    6.00
  -3  -3 -10  116.79    9.20
  -3  -3 -10  109.79    8.20
   3   3  10  124.69   10.20
   3   3  10  118.89   12.00
   3   3  10   93.69   13.60
   3   3  10   94.19    9.40
  -4  -3 -10 1322.87   41.30
  -4  -3 -10 1310.17   47.40
  -4  -3 -10 1302.77   46.60
  -4  -3 -10 1259.37   44.00
   4   3  10 1372.86   57.09
   4   3  10 1258.47   56.89
   4   3  10 1264.57   49.10
   4   3  10 1292.97   49.70
  -5  -3 -10  272.17   14.30
  -5  -3 -10  287.97   16.80
  -5  -3 -10  243.58   11.30
   5   3  10  245.98   15.50
   5   3  10  265.47   19.40
   5   3  10  264.27   21.10
   5   3  10  249.58   15.90
  -6  -3 -10   -1.10    2.40
   6   3  10    2.10    3.50
   6   3  10   -0.50    6.20
   6   3  10   -3.10    3.70
   6   3  10    0.70    6.00
   7   3  10  114.99   17.50
   7   3  10  111.39   10.60
   7   3  10  135.89   16.70
   7   3  10  118.69   10.90
   8   3  10    8.30    9.40
   8   3  10   14.90    9.10
   8   3  10    7.80    5.90
   9   3  10  779.42   34.00
   9   3  10  880.11   44.90
   9   3  10  791.82   51.69
   9   3  10  857.11   47.00
  10   3  10   17.20   12.40
  10   3  10   29.40    6.00
  10   3  10   36.30   14.80
  10   3  10   44.30   14.50
  11   3  10   -1.00   12.70
  11   3  10   31.60   13.00
  11   3  10   23.20   25.40
   7  -4 -10  205.18   17.90
   7  -4 -10  255.07   23.60
   7  -4 -10  250.37   17.50
   6  -4 -10  642.44   32.90
   6  -4 -10  627.84   31.10
   6  -4 -10  622.34   37.00
   6  -4 -10  653.53   34.60
   5  -4 -10   44.40    9.40
   5  -4 -10   30.70    8.70
   5  -4 -10   20.40    7.80
   4  -4 -10   -4.20    4.90
   4  -4 -10    5.00    5.50
   4  -4 -10    7.30    5.20
   3  -4 -10  151.28   13.10
   3  -4 -10  135.69   12.40
   3  -4 -10  176.78   14.20
   3  -4 -10  152.88   12.90
  -3   4  10  166.28   18.30
   2  -4 -10  412.16   22.40
   2  -4 -10  398.96   22.20
   2  -4 -10  413.66   22.30
   2  -4 -10  413.96   21.80
  -2   4  10  427.86   29.00
  -2   4  10  428.26   22.40
   1  -4 -10 5145.58  163.08
   1  -4 -10 4934.31  163.38
   1  -4 -10 4927.71  164.48
   1  -4 -10 5122.39  163.28
  -1   4  10 4929.01  163.78
  -1   4  10 4762.22  172.58
  -1   4  10 4861.31  155.78
  -1   4  10 4772.32  155.88
   0  -4 -10  593.14   31.00
   0  -4 -10  637.84   27.20
   0  -4 -10  649.93   28.60
   0   4  10  640.14   24.60
   0   4  10  603.34   28.50
   0   4  10  614.34   33.90
  -1  -4 -10   -0.70    2.50
  -1  -4 -10    3.50    4.20
  -1  -4 -10    2.70    3.30
   1   4  10   -0.30    5.80
   1   4  10    5.80    9.80
  -2  -4 -10 1121.89   39.90
  -2  -4 -10 1149.29   43.70
  -2  -4 -10 1103.79   41.90
   2   4  10 1132.49   47.20
   2   4  10 1059.79   55.09
   2   4  10 1117.79   44.40
  -3  -4 -10   33.50    4.20
  -3  -4 -10   30.90    6.20
  -3  -4 -10   31.80    5.50
   3   4  10   38.10    7.40
   3   4  10   37.70    9.10
   3   4  10   30.30   11.50
   3   4  10   36.70    7.60
  -4  -4 -10  204.98   11.90
  -4  -4 -10  215.58   13.20
  -4  -4 -10  198.78    8.00
   4   4  10  194.38   14.40
   4   4  10  206.48   16.50
  -5  -4 -10    3.70    2.80
  -5  -4 -10    2.40    2.90
   5   4  10    8.30    4.00
   5   4  10    5.20    5.00
   5   4  10   11.50    7.80
   5   4  10   10.60    6.50
  -6  -4 -10    6.40    3.40
  -6  -4 -10    6.70    3.30
   6   4  10    2.20    5.20
   6   4  10   11.90    4.60
   6   4  10    2.90    7.00
   6   4  10    2.60    6.50
  -7  -4 -10  452.05   24.90
   7   4  10  562.84   33.10
   7   4  10  527.35   27.50
   7   4  10  506.25   25.90
   7   4  10  568.74   35.10
   8   4  10   75.39   18.10
   8   4  10   89.99   18.70
   8   4  10   56.39   14.80
   9   4  10   32.60    8.30
   9   4  10   30.10   13.90
   9   4  10   44.60   14.40
  10   4  10   22.10   12.80
  10   4  10   22.50   12.70
  11   4  10   42.50   16.20
  11   4  10   44.30    7.30
   7  -5 -10   19.70    9.90
   6  -5 -10  491.35   29.40
   5  -5 -10  138.39   14.90
   5  -5 -10  190.98   15.30
   5  -5 -10  147.19   15.80
   4  -5 -10    3.90    6.70
   4  -5 -10    6.50    5.90
   3  -5 -10   19.00    7.00
   3  -5 -10    7.90    5.40
   3  -5 -10    1.60    5.60
   2  -5 -10   60.49    9.90
   2  -5 -10   55.09    9.70
   2  -5 -10   52.69    9.80
   2  -5 -10   48.70    9.20
  -2   5  10   63.49   13.20
  -2   5  10   51.99    9.20
   1  -5 -10  961.90   39.90
   1  -5 -10  945.31   40.60
   1  -5 -10  914.71   39.50
   1  -5 -10  918.61   40.80
  -1   5  10  954.60   39.70
  -1   5  10  911.81   45.40
   0  -5 -10  287.27   17.60
   0  -5 -10  319.47   17.30
   0  -5 -10  295.97   17.80
   0   5  10  256.37   14.50
   0   5  10  277.87   17.30
   0   5  10  252.27   20.60
   0   5  10  192.88   26.90
  -1  -5 -10  307.07   16.50
  -1  -5 -10  309.27   17.70
  -1  -5 -10  296.67   17.90
   1   5  10  279.97   28.40
   1   5  10  322.27   18.70
   1   5  10  298.27   20.60
  -2  -5 -10  148.49   10.00
  -2  -5 -10  152.48   12.20
  -2  -5 -10  163.28   17.50
   2   5  10  130.89   13.60
   2   5  10  143.79   20.30
   2   5  10  163.98   13.00
  -3  -5 -10  253.07   12.20
  -3  -5 -10  232.48   13.80
  -3  -5 -10  236.78   15.60
   3   5  10  222.38   16.10
   3   5  10  216.88   16.70
   3   5  10  260.57   24.10
  -4  -5 -10   38.40    5.70
  -4  -5 -10   49.30    8.30
   4   5  10   36.50   13.00
   4   5  10   38.70   12.80
   4   5  10   43.00    9.80
  -5  -5 -10 4620.14  154.38
  -5  -5 -10 4624.24  150.98
   5   5  10 4835.52  167.98
   5   5  10 4870.91  161.68
   5   5  10 4390.66  158.28
   5   5  10 4622.34  156.48
  -6  -5 -10  583.84   26.80
  -6  -5 -10  611.94   24.80
   6   5  10  566.44   29.10
   6   5  10  609.14   34.10
   6   5  10  678.73   38.60
   6   5  10  571.44   30.30
  -7  -5 -10    0.40    4.10
   7   5  10    7.60   10.10
   7   5  10   -0.50    5.30
   7   5  10    6.40    6.90
   8   5  10   67.89   18.40
   8   5  10   41.50   10.50
   8   5  10   56.59   15.40
   9   5  10   53.89   17.00
   9   5  10   47.60   14.70
   9   5  10   45.00   10.10
  10   5  10  351.66   30.30
  10   5  10  360.26   33.00
  10   5  10  330.47   21.50
  11   5  10   -1.30   13.90
  11   5  10   19.10   13.80
   6  -6 -10   -6.20    7.20
   5  -6 -10   89.39   16.50
   5  -6 -10   89.39   14.20
   5  -6 -10  106.29   14.20
   4  -6 -10   89.79   13.80
   4  -6 -10  106.09   15.40
   4  -6 -10   87.19   12.10
   3  -6 -10  206.78   16.50
   3  -6 -10  216.08   18.70
   3  -6 -10  247.08   19.20
   2  -6 -10   41.60    9.80
   2  -6 -10   46.20   10.10
   2  -6 -10   46.40    9.50
   1  -6 -10   70.59   11.40
   1  -6 -10   67.29   11.10
   1  -6 -10   88.89   12.80
   1  -6 -10   52.89   14.80
  -1   6  10   92.09   23.30
  -1   6  10   79.79   13.80
  -1   6  10   67.69   10.20
   0  -6 -10  129.99   12.80
   0  -6 -10  151.98   13.30
   0  -6 -10  147.19   13.10
   0   6  10  125.99   14.50
   0   6  10   89.69   23.40
   0   6  10  145.19    9.30
   0   6  10  141.99   12.50
  -1  -6 -10    5.50    5.00
  -1  -6 -10    4.70    3.90
  -1  -6 -10   -6.50    3.40
   1   6  10    5.90    6.00
   1   6  10    2.50    6.10
   1   6  10   -2.70    9.00
  -2  -6 -10  325.77   20.00
  -2  -6 -10  327.07   17.60
  -2  -6 -10  336.37   18.90
   2   6  10  325.67   21.20
   2   6  10  309.77   30.30
   2   6  10  285.27   19.20
  -3  -6 -10    7.60    3.80
  -3  -6 -10    9.50    5.70
  -3  -6 -10   16.90    4.90
   3   6  10   11.90    6.70
   3   6  10   10.50    6.20
   3   6  10    4.00   10.10
  -4  -6 -10   15.80    3.90
  -4  -6 -10   19.40    6.40
   4   6  10    9.20    8.70
   4   6  10    3.20    5.40
   4   6  10    9.00    6.70
  -5  -6 -10 2009.80   67.99
  -5  -6 -10 2093.09   72.59
  -5  -6 -10 2173.68   68.49
  -5  -6 -10 2017.50   76.49
   5   6  10 2083.39   78.69
   5   6  10 2131.39   81.79
   5   6  10 2247.68   90.99
  -6  -6 -10  290.97   14.90
  -6  -6 -10  282.67   17.40
   6   6  10  294.47   20.00
   6   6  10  283.27   22.40
   6   6  10  301.27   26.90
  -7  -6 -10  374.86   17.50
  -7  -6 -10  395.56   21.30
   7   6  10  395.86   31.60
   7   6  10  394.96   28.20
   7   6  10  388.76   24.10
   8   6  10  155.08   25.60
   8   6  10  115.49   13.50
   8   6  10  116.79   20.20
   9   6  10   51.19   10.50
   9   6  10   82.09   17.50
   9   6  10   52.69   16.70
  10   6  10  265.97   20.10
  10   6  10  278.37   30.10
  10   6  10  270.57   26.90
  11   6  10  760.52   51.29
  11   6  10  641.74   51.09
   4  -7 -10   30.10   10.10
   4  -7 -10   54.39   14.30
   3  -7 -10   18.50    8.20
   3  -7 -10   41.30   10.00
   3  -7 -10   25.90    9.00
   2  -7 -10   12.50    7.80
   2  -7 -10   24.40    7.90
   2  -7 -10   -1.40    5.40
   1  -7 -10   17.90    7.40
   1  -7 -10    5.60    6.30
  -1   7  10   24.40    6.80
  -1   7  10   -1.60    7.20
  -1   7  10   18.20   14.30
   0  -7 -10   55.19   10.50
   0  -7 -10   63.39   10.90
   0  -7 -10   62.69   10.80
   0   7  10   53.69    5.80
   0   7  10   71.29   12.00
   0   7  10   66.89   20.20
  -1  -7 -10   14.70    6.40
  -1  -7 -10   13.30    6.00
  -1  -7 -10   12.20    6.10
   1   7  10   17.50   13.10
   1   7  10    9.40    6.60
   1   7  10   19.30    7.40
  -2  -7 -10  140.99   12.20
  -2  -7 -10  145.89   13.10
  -2  -7 -10  130.99   13.50
   2   7  10  134.19   13.30
   2   7  10  146.59   26.80
   2   7  10  112.09   13.20
  -3  -7 -10   49.80    9.00
  -3  -7 -10   29.70    6.70
  -3  -7 -10   43.90   11.30
   3   7  10   31.90   15.50
   3   7  10   49.70   10.40
   3   7  10   42.90   11.60
  -4  -7 -10    5.60    3.70
  -4  -7 -10    2.40    4.50
  -4  -7 -10    1.70    3.50
   4   7  10   -0.70   10.10
   4   7  10    5.20    5.90
   4   7  10   -4.30    5.50
  -5  -7 -10   88.99    9.10
  -5  -7 -10   68.39    6.30
  -5  -7 -10   66.09   11.10
   5   7  10  103.49   21.30
   5   7  10   83.69   13.30
   5   7  10   91.69   15.00
  -6  -7 -10  348.07   13.00
  -6  -7 -10  369.06   18.60
  -6  -7 -10  355.06   22.10
   6   7  10  365.26   24.20
   6   7  10  383.36   26.20
   6   7  10  390.56   32.20
  -7  -7 -10  129.89    9.30
  -7  -7 -10  126.69   12.70
   7   7  10  133.29   17.80
   7   7  10  115.89   15.90
   8   7  10    8.20    9.60
   8   7  10   -2.10    8.00
   8   7  10   -0.90    6.50
   9   7  10   94.79   22.30
   9   7  10   78.39   19.00
   9   7  10   44.70   11.00
  10   7  10   88.79   23.10
   3  -8 -10  123.59   18.50
   3  -8 -10  143.59   19.80
   2  -8 -10   38.20   11.20
   2  -8 -10   33.20    9.50
   2  -8 -10   33.90   11.10
   1  -8 -10  311.47   22.60
   1  -8 -10  287.27   23.30
   1  -8 -10  311.07   22.10
   0  -8 -10   95.19   14.40
   0  -8 -10   91.59   14.10
   0  -8 -10   83.99   13.80
   0   8  10   66.39   22.80
  -1  -8 -10 2122.99   89.39
  -1  -8 -10 2143.99   82.09
  -1  -8 -10 2168.98   83.79
   1   8  10 2255.77   83.19
  -2  -8 -10  126.49   14.20
  -2  -8 -10  105.09   11.90
  -2  -8 -10  132.59   13.60
   2   8  10  119.69   14.20
   2   8  10  120.79   13.20
   2   8  10   98.69   24.30
  -3  -8 -10   64.49   10.40
  -3  -8 -10   58.69   12.10
  -3  -8 -10   50.09    9.20
   3   8  10   45.00   10.10
   3   8  10   83.29   21.80
  -4  -8 -10  392.36   22.10
  -4  -8 -10  397.26   20.60
  -4  -8 -10  383.06   24.90
   4   8  10  372.76   24.90
   4   8  10  389.56   24.70
   4   8  10  362.76   34.60
  -5  -8 -10   32.20    8.80
  -5  -8 -10   31.20    6.90
  -5  -8 -10   24.20    5.70
   5   8  10   26.10    9.90
   5   8  10   21.70   14.60
   5   8  10   28.70    9.40
  -6  -8 -10 1123.19   49.50
  -6  -8 -10 1146.99   43.40
  -6  -8 -10 1099.19   39.60
   6   8  10 1066.59   52.19
   6   8  10 1162.28   64.49
   6   8  10 1116.59   51.39
  -7  -8 -10    9.20    7.10
   7   8  10   11.20    8.50
   7   8  10    7.90    8.90
   7   8  10    7.70   11.90
   8   8  10  126.49   17.70
   8   8  10  123.49   20.60
   8   8  10  116.39   24.80
   9   8  10   37.20   13.70
   9   8  10   -0.30   12.00
   9   8  10   17.00    9.00
  10   8  10   52.79   15.50
  10   8  10   86.39   22.20
  10   8  10   66.89   13.70
   2  -9 -10   -4.00    6.30
   2  -9 -10    1.60    6.10
   2  -9 -10   18.80    8.70
   1  -9 -10   -4.10    6.70
   1  -9 -10   -1.10    6.20
   1  -9 -10   21.30    7.80
  -1  -9 -10  658.43   35.60
  -1  -9 -10  691.33   37.60
  -1  -9 -10  694.43   37.30
  -2  -9 -10   84.09   14.80
  -2  -9 -10  103.99   15.30
   2   9  10   63.89   22.50
   2   9  10  105.29   12.50
   2   9  10   92.19   15.40
  -3  -9 -10    5.80    6.60
  -3  -9 -10   17.50    7.10
   3   9  10   10.80    8.10
   3   9  10   23.00    9.40
   3   9  10    4.80   11.80
  -4  -9 -10    4.40    4.90
  -4  -9 -10    9.60    6.40
  -4  -9 -10   15.80    7.70
   4   9  10    9.00    8.50
   4   9  10   -0.80    7.10
   4   9  10    1.20   14.70
  -5  -9 -10   21.40    8.70
  -5  -9 -10   24.80    7.40
  -5  -9 -10   16.90    5.50
   5   9  10   17.70    9.80
   5   9  10   26.60   11.80
   5   9  10   41.20   19.50
  -6  -9 -10  425.06   21.70
  -6  -9 -10  422.76   26.30
  -6  -9 -10  362.56   18.60
   6   9  10  385.36   37.20
   6   9  10  342.17   26.50
   6   9  10  340.57   26.20
  -7  -9 -10  227.58   14.90
   7   9  10  213.18   28.90
   7   9  10  200.28   21.50
   7   9  10  232.48   21.50
   8   9  10  -14.40    8.40
   8   9  10   11.80    9.30
   8   9  10   -4.60   12.40
   9   9  10    1.60    8.90
   9   9  10   12.00   11.30
   9   9  10    6.90   25.80
  10   9  10   65.09   16.70
  10   9  10  111.39   22.20
   0 -10 -10   37.30   10.00
   0 -10 -10   56.79   13.00
   0 -10 -10   55.09   14.80
  -1 -10 -10    4.80    6.30
  -1 -10 -10   -0.70    6.70
  -1 -10 -10    5.10    7.40
   1  10  10   47.50   17.50
  -2 -10 -10  313.77   24.90
  -2 -10 -10  288.27   22.00
  -2 -10 -10  253.77   21.10
   2  10  10  224.68   32.90
  -3 -10 -10   67.79   12.90
  -3 -10 -10   40.50   11.30
  -3 -10 -10   53.49   10.90
   3  10  10   58.59   21.80
   3  10  10   72.89   14.10
  -4 -10 -10  241.88   21.40
  -4 -10 -10  284.97   21.30
  -4 -10 -10  329.07   32.30
   4  10  10  285.07   23.50
   4  10  10  237.08   21.20
   4  10  10  275.37   34.40
  -5 -10 -10   36.10    9.80
  -5 -10 -10   30.50    8.80
  -5 -10 -10   40.50   10.90
   5  10  10   26.30   11.60
   5  10  10   31.50   11.80
   5  10  10   55.59   20.60
  -6 -10 -10   11.10    7.80
  -6 -10 -10   48.80   11.90
  -6 -10 -10   40.40    9.00
   6  10  10   39.40   12.30
   6  10  10   24.40   11.90
   6  10  10   30.70   17.00
  -7 -10 -10   50.79    9.70
   7  10  10   83.39   17.40
   7  10  10   92.29   25.10
   7  10  10   96.59   18.30
   8  10  10  114.89   27.80
   8  10  10  108.59   18.30
   8  10  10   70.79   17.60
   9  10  10   -2.20   11.60
   9  10  10    9.90   25.40
   9  10  10  -10.90    9.60
   1  11  10  136.29   44.80
  -2 -11 -10  426.66   30.00
  -2 -11 -10  374.86   30.40
  -2 -11 -10  395.66   29.30
   2  11  10  346.07   37.90
  -3 -11 -10   15.90   10.10
  -3 -11 -10   13.70   10.20
   3  11  10   37.80   17.40
  -4 -11 -10   78.99   14.00
  -4 -11 -10   71.99   13.50
  -4 -11 -10  113.79   19.60
   4  11  10   93.89   26.10
  -5 -11 -10   53.09   12.00
  -5 -11 -10   59.59   12.70
  -5 -11 -10   77.79   15.50
   5  11  10   70.59   16.20
   5  11  10   98.79   26.80
  -6 -11 -10   38.60   11.50
  -6 -11 -10  -19.20    7.20
   6  11  10  -23.00   11.90
   6  11  10   -5.30   11.40
   7  11  10  -11.80   11.00
   7  11  10   26.40   14.10
   7  11  10  -10.20   14.00
   8  11  10   61.09   17.90
   8  11  10  113.09   20.50
  -4 -12 -10   -6.70   10.20
  -4 -12 -10   18.50   10.90
  -5 -12 -10   -1.70    9.80
  -5 -12 -10   35.10   13.90
   7  12  10   10.80   14.50
   7   9 -11  -16.90   13.00
   6   9 -11   -6.00   26.70
  -5  -9  11   17.20   14.50
  -5  -9  11   -6.70   10.10
  -4  -9  11  -14.00    9.20
  -4  -9  11   -0.10   13.30
  -4  -9  11   39.70   14.70
  -3  -9  11   34.30   17.30
  -3  -9  11   -6.60   14.30
  -2  -9  11  147.69   22.90
  -2  -9  11  225.58   24.60
  -2  -9  11  153.58   29.70
  -1  -9  11  179.48   33.50
  -1  -9  11  289.17   43.30
  -1  -9  11  175.18   25.80
   8   8 -11   61.29   19.90
   8   8 -11   76.29   16.50
   7   8 -11   19.00   12.00
   7   8 -11    2.00   13.60
   7   8 -11   17.90    8.50
  -7  -8  11   20.80   15.50
   6   8 -11   42.00   15.90
   6   8 -11   62.09   16.20
  -6  -8  11   92.09   20.10
  -6  -8  11  116.89   25.80
   5   8 -11  167.08   37.50
   5   8 -11  177.48   22.10
   5   8 -11  283.37   23.90
  -5  -8  11  219.68   34.40
  -5  -8  11  285.47   28.10
   4   8 -11    9.40   11.30
  -4  -8  11    4.20   12.50
  -4  -8  11   11.80   11.80
  -3  -8  11   27.80   16.80
  -3  -8  11   44.20   13.80
  -2  -8  11   21.90   14.60
  -2  -8  11   32.50   12.20
  -1  -8  11   55.09   17.50
  -1  -8  11   83.19   15.50
   0  -8  11  150.18   26.70
   1  -8  11   16.30   24.20
   1  -8  11   25.10   10.90
   1  -8  11    6.10   10.90
   2  -8  11   -0.90   14.10
   8   7 -11   38.50    9.60
   8   7 -11   14.40   11.50
   7   7 -11   25.80   11.40
   7   7 -11   32.20   10.30
   7   7 -11   36.10   16.90
  -7  -7  11   45.40   16.60
   6   7 -11  254.07   26.70
   6   7 -11  295.47   22.90
   6   7 -11  355.16   28.30
  -6  -7  11  377.06   31.50
  -6  -7  11  338.57   33.30
   5   7 -11  145.19   18.90
   5   7 -11  115.89   19.40
   5   7 -11   95.89   17.50
  -5  -7  11  162.28   28.30
  -5  -7  11  116.69   20.20
   4   7 -11  132.59   18.60
   4   7 -11  152.38   16.80
   4   7 -11  162.48   22.10
  -4  -7  11  127.39   21.20
  -4  -7  11  208.08   32.30
   3   7 -11   30.30   10.60
   3   7 -11   26.80   11.00
   3   7 -11   28.70    9.10
  -3  -7  11   42.50   17.10
  -3  -7  11   36.70   14.40
   2   7 -11   29.40   10.00
  -2  -7  11   24.00   13.90
  -2  -7  11   34.30   12.80
  -1  -7  11   54.99   20.00
  -1  -7  11   67.39   15.80
   0  -7  11  389.46   35.50
   0  -7  11  451.45   31.90
   1  -7  11   18.50    8.70
   1  -7  11    3.20   11.40
   2  -7  11   29.50   14.40
   2  -7  11  127.19   25.40
   3  -7  11   17.10   14.50
   3  -7  11   12.90    7.40
   3  -7  11    6.20   10.10
   4  -7  11   44.50   18.00
   9   6 -11   13.50   13.50
   9   6 -11   19.60    7.70
   8   6 -11   28.60   14.30
   8   6 -11   29.50    9.10
   8   6 -11   45.50   13.50
  -8  -6  11   41.90   15.00
   7   6 -11   47.80   17.20
   7   6 -11   45.60   13.30
   7   6 -11   37.90   10.80
  -7  -6  11   66.89   17.60
   6   6 -11  272.57   24.90
   6   6 -11  252.97   21.60
  -6  -6  11  351.46   33.50
  -6  -6  11  341.47   28.50
   5   6 -11   80.09   16.00
   5   6 -11  113.09   19.60
   5   6 -11  124.29   16.70
  -5  -6  11   98.59   21.30
  -5  -6  11  144.49   22.10
   4   6 -11  204.48   19.30
   4   6 -11  193.98   18.00
   4   6 -11  238.98   21.70
  -4  -6  11  226.98   26.60
  -4  -6  11  233.28   22.90
   3   6 -11    2.60    6.90
   3   6 -11    6.90    6.20
   3   6 -11    7.20    7.40
  -3  -6  11   -7.20   10.00
  -3  -6  11   -4.00    7.70
   2   6 -11   19.70    5.70
   2   6 -11   26.10    9.30
  -2  -6  11   13.30   10.10
   1   6 -11   30.50    9.50
  -1  -6  11   25.50   12.00
   0  -6  11   91.79   18.00
   0  -6  11   74.19   18.60
   1  -6  11    2.50   12.00
   1  -6  11   -9.70   10.70
   1  -6  11    4.70    7.20
   2  -6  11   38.00   16.90
   2  -6  11   39.10   11.50
   3  -6  11    4.80    6.90
   3  -6  11   14.40   12.70
   4  -6  11   12.10   12.60
   4  -6  11    1.70    9.20
   4  -6  11   31.10    8.20
   5  -6  11  681.33   67.09
   9   5 -11    5.30    9.10
   9   5 -11    7.80   12.40
   9   5 -11    7.70    9.10
   8   5 -11    3.80    6.50
   8   5 -11   16.20   10.30
   8   5 -11   -6.80    9.10
   8   5 -11   21.90    9.00
  -8  -5  11   21.10   13.60
   7   5 -11  125.89   19.90
   7   5 -11  139.49   15.40
   7   5 -11  120.89   17.30
   7   5 -11  148.09   27.40
  -7  -5  11  143.59   24.70
   6   5 -11   -2.80    8.00
   6   5 -11   -5.00    6.70
   6   5 -11    2.70    6.40
  -6  -5  11    8.60   13.20
  -6  -5  11   43.40   11.10
   5   5 -11  207.58   21.00
   5   5 -11  249.88   23.60
   5   5 -11  250.97   19.20
  -5  -5  11  268.97   23.60
  -5  -5  11  255.87   26.40
   4   5 -11   -5.60    4.70
   4   5 -11   10.20    7.90
   4   5 -11   -0.40    6.10
  -4  -5  11   -0.30    7.50
  -4  -5  11    9.00   10.00
   3   5 -11  186.48   17.00
   3   5 -11  148.49   14.60
   3   5 -11  168.88   16.00
  -3  -5  11  147.59   17.50
  -3  -5  11  198.48   27.80
   2   5 -11   38.20    9.20
   2   5 -11   30.20    7.60
   2   5 -11   33.00    8.60
  -2  -5  11   40.50   10.90
  -2  -5  11   28.60   13.70
  -2  -5  11   57.49   16.30
   1   5 -11   82.49   13.10
   1   5 -11   82.09    6.30
   1   5 -11   90.19   13.70
   1   5 -11   69.59    8.40
  -1  -5  11   93.79   16.60
  -1  -5  11  116.09   20.40
  -1  -5  11   84.19   18.90
   0   5 -11  490.35   27.60
   0  -5  11  523.35   35.40
   0  -5  11  504.05   31.70
   0  -5  11  505.65   36.30
   1  -5  11  137.99   18.90
   1  -5  11  131.69   22.40
   2  -5  11   -2.30    6.20
   2  -5  11    2.50   11.00
   2  -5  11    5.70    6.90
   3  -5  11   50.49   12.70
   3  -5  11   81.99   10.90
   3  -5  11   46.50   15.90
   4  -5  11   18.50    7.70
   4  -5  11   11.90   12.30
   5  -5  11   13.70    6.80
   5  -5  11   19.50   13.30
   6  -5  11    2.40    7.80
   6  -5  11   13.00    5.20
   9   4 -11   98.89   14.60
   9   4 -11  106.59   25.40
   9   4 -11  105.69   16.90
   9   4 -11   92.89   16.00
   8   4 -11   60.19   14.10
   8   4 -11   68.39   12.60
   8   4 -11   78.29   14.90
   8   4 -11   38.50   17.80
  -8  -4  11   93.59   17.80
   7   4 -11   -4.70    7.60
   7   4 -11    5.10    6.50
   7   4 -11    5.00    8.30
   7   4 -11   12.20   10.90
  -7  -4  11    4.90    9.70
   6   4 -11   33.80   12.70
   6   4 -11   33.30   10.00
   6   4 -11   43.20   11.50
  -6  -4  11   26.30   10.20
  -6  -4  11   33.70   13.40
   5   4 -11  830.12   47.90
   5   4 -11  854.91   38.60
   5   4 -11  840.82   39.50
   5   4 -11  854.91   42.80
  -5  -4  11  894.61   49.20
  -5  -4  11  895.81   44.90
   4   4 -11 1065.69   45.10
   4   4 -11 1090.39   49.10
   4   4 -11 1054.19   52.19
   4   4 -11 1078.29   45.30
  -4  -4  11 1103.29   52.09
  -4  -4  11 1050.39   54.89
   3   4 -11    3.10    5.90
   3   4 -11    5.90    5.80
   3   4 -11   -6.00    4.60
  -3  -4  11   -1.00    8.00
  -3  -4  11   -7.60    5.60
  -3  -4  11    3.30    8.20
   2   4 -11   60.79   10.80
   2   4 -11   66.79   10.70
   2   4 -11   58.69   11.00
  -2  -4  11   76.79   18.80
  -2  -4  11   67.09   13.00
  -2  -4  11   90.89   18.00
   1   4 -11   17.00    6.50
   1   4 -11   21.80    5.60
   1   4 -11   30.50    8.60
  -1  -4  11   10.40    9.50
  -1  -4  11   29.20   12.80
  -1  -4  11   20.00    9.20
   0   4 -11   -0.20    4.80
   0   4 -11    3.70    4.40
   0  -4  11   -6.30    6.60
   0  -4  11    1.70    6.40
   0  -4  11   -2.40    7.40
  -1   4 -11  423.26   23.10
   1  -4  11  391.06   25.80
   1  -4  11  411.96   30.50
   1  -4  11  407.06   22.30
   1  -4  11  416.76   34.10
  -2   4 -11  284.07   16.90
   2  -4  11  299.37   25.60
   2  -4  11  238.98   22.50
   2  -4  11  301.87   21.40
   2  -4  11  254.37   17.30
   3  -4  11  110.99   17.50
   3  -4  11   69.09   16.70
   3  -4  11   62.09   11.90
   4  -4  11   24.00    8.30
   5  -4  11   19.70   13.90
   5  -4  11   20.30    7.40
   6  -4  11    4.70   10.60
   6  -4  11   19.80    5.10
   7  -4  11   44.10   13.60
   7  -4  11  108.29   26.30
   9   3 -11  179.98   19.50
   9   3 -11  186.18   20.40
   9   3 -11  102.69   25.10
   9   3 -11  155.58   16.40
   8   3 -11    6.70    7.60
   8   3 -11  -13.60    6.10
   8   3 -11    5.40    7.70
   8   3 -11    9.20   11.10
   7   3 -11  105.69   16.90
   7   3 -11  101.29   16.20
   7   3 -11   99.19   13.60
  -7  -3  11  104.99   19.20
   6   3 -11    9.90    8.00
   6   3 -11   18.50    7.30
   6   3 -11   17.90    8.40
  -6  -3  11   32.60   12.40
  -6  -3  11   37.10   11.80
   5   3 -11  136.69   12.80
   5   3 -11  135.29   15.40
   5   3 -11  140.19   14.60
  -5  -3  11  144.69   15.80
  -5  -3  11  163.78   23.10
   4   3 -11  470.05   24.90
   4   3 -11  494.75   24.60
   4   3 -11  438.06   26.50
  -4  -3  11  425.06   28.10
  -4  -3  11  487.25   40.20
  -4  -3  11  471.75   31.10
   3   3 -11  242.98   18.00
   3   3 -11  202.58   14.90
   3   3 -11  225.08   15.10
  -3  -3  11  225.58   19.00
  -3  -3  11  226.98   26.20
  -3  -3  11  248.08   21.80
   2   3 -11  244.68   18.10
   2   3 -11  270.77   15.40
   2   3 -11  233.38   15.80
  -2  -3  11  253.27   26.50
  -2  -3  11  259.37   22.70
  -2  -3  11  270.17   20.40
   1   3 -11    3.00    4.80
   1   3 -11   -1.90    3.80
  -1  -3  11   -2.60    6.40
  -1  -3  11    1.70   10.10
   0   3 -11  135.59   11.70
   0   3 -11  122.69   10.00
   0   3 -11  139.09   12.20
   0  -3  11  121.79   13.70
   0  -3  11  117.79   10.20
   0  -3  11  123.29   21.30
   0  -3  11  120.59   15.10
  -1   3 -11 3815.42  127.69
  -1   3 -11 3699.83  126.79
   1  -3  11 3832.72  131.59
   1  -3  11 3580.14  120.29
   1  -3  11 3668.23  139.79
   1  -3  11 3963.20  138.69
   1  -3  11 3606.24  125.79
  -2   3 -11 2326.87   79.79
   2  -3  11 2277.27   84.39
   2  -3  11 2178.18   72.79
   2  -3  11 2260.17   90.39
   2  -3  11 2183.58   79.49
  -3   3 -11   60.19    7.00
   3  -3  11   65.89   15.30
   3  -3  11   54.89   10.50
   3  -3  11   68.69   15.50
   3  -3  11   76.59    9.80
   4  -3  11   34.20   10.30
   4  -3  11   24.00    5.80
   4  -3  11   17.30    6.90
   4  -3  11   25.90    8.10
   5  -3  11    8.10    9.40
   5  -3  11    5.50    6.00
   5  -3  11   -2.10    3.20
   5  -3  11   -0.50    4.80
   6  -3  11    1.40    8.90
   6  -3  11   12.20    5.50
   7  -3  11  107.19   17.80
   7  -3  11  132.59    7.40
   8  -3  11  100.99   16.80
   8  -3  11  185.88   29.80
   9   2 -11  406.56   31.20
   9   2 -11  415.26   28.20
   9   2 -11  403.96   26.20
   9   2 -11  453.05   43.00
   8   2 -11  265.17   23.50
   8   2 -11  246.08   19.70
   8   2 -11  252.97   21.20
   7   2 -11    5.60    6.30
   7   2 -11    4.00    7.40
   7   2 -11    8.60    7.80
   6   2 -11   23.10    7.80
   6   2 -11   29.70    9.50
   6   2 -11   24.00    7.90
  -6  -2  11   21.70    9.40
  -6  -2  11   33.50   10.90
   5   2 -11  244.68   14.50
   5   2 -11  267.67   17.30
   5   2 -11  249.18   19.20
   5   2 -11  249.58   18.50
  -5  -2  11  266.77   21.90
  -5  -2  11  254.27   21.20
   4   2 -11   47.60    6.80
   4   2 -11   29.40    8.10
   4   2 -11   24.00    6.80
   4   2 -11   40.10    8.40
  -4  -2  11   24.20   13.00
  -4  -2  11   36.10    9.10
  -4  -2  11   44.70   12.30
   3   2 -11    2.50    4.30
   3   2 -11    0.20    4.90
   3   2 -11    9.40    5.90
  -3  -2  11    6.80    9.30
  -3  -2  11   -0.60    5.20
   2   2 -11  258.17   15.10
   2   2 -11  252.17   17.20
   2   2 -11  242.78   14.90
  -2  -2  11  254.87   24.00
  -2  -2  11  219.48   18.00
  -2  -2  11  221.78   24.60
   1   2 -11  732.73   28.70
   1   2 -11  713.83   32.50
  -1  -2  11  687.33   48.30
  -1  -2  11  715.23   35.30
   0   2 -11    3.60    4.30
   0   2 -11    6.10    5.50
   0  -2  11   12.10    5.60
   0  -2  11   -4.40    8.40
   0  -2  11    5.30    3.60
   0  -2  11   -9.10    4.20
  -1   2 -11   77.69    9.90
  -1   2 -11   76.19    8.40
  -1   2 -11   78.79    6.80
   1  -2  11   73.59   14.30
   1  -2  11   87.09    8.60
   1  -2  11   67.89   15.90
   1  -2  11   67.69   11.00
  -2   2 -11  232.98   15.40
   2  -2  11  239.08   20.10
   2  -2  11  241.98   17.40
   2  -2  11  210.88   21.10
   2  -2  11  254.67   15.00
  -3   2 -11  249.48   14.00
   3  -2  11  258.77   15.10
   3  -2  11  262.77   18.10
   3  -2  11  270.77   21.80
   3  -2  11  262.57   21.70
   4  -2  11  488.05   26.00
   4  -2  11  448.86   30.30
   4  -2  11  515.35   31.10
   4  -2  11  525.75   23.10
   5  -2  11    2.60    5.00
   5  -2  11    6.40    8.70
   5  -2  11   10.50    3.80
   5  -2  11   14.90    9.10
   6  -2  11   12.50    9.20
   6  -2  11    5.60    4.60
   6  -2  11   11.00    3.80
   7  -2  11 1534.15   51.59
   7  -2  11 1470.15   52.39
   7  -2  11 1490.75   69.79
   8  -2  11  264.97   24.50
   8  -2  11  348.77   27.30
   9  -2  11   43.50   16.10
   9   1 -11  478.35   33.00
   9   1 -11  456.25   29.30
   8   1 -11  605.04   36.40
   8   1 -11  633.74   34.30
   8   1 -11  565.54   31.10
   7   1 -11   56.39   10.70
   7   1 -11   81.29   14.00
   7   1 -11   51.69   10.40
   7   1 -11   59.49   12.20
   6   1 -11   79.49   13.10
   6   1 -11   81.79   13.20
   6   1 -11   83.19   11.80
  -6  -1  11  101.99   12.10
   5   1 -11  110.49   12.80
   5   1 -11  116.19   13.10
   5   1 -11  105.89   11.80
   5   1 -11  111.79    9.20
   5   1 -11  113.79   11.40
  -5  -1  11  134.89   13.90
  -5  -1  11  131.19   13.60
   4   1 -11  112.89   11.70
   4   1 -11  106.79   10.70
   4   1 -11  132.09   10.00
   4   1 -11  122.39   12.30
  -4  -1  11  136.39   18.40
  -4  -1  11  129.49   13.50
  -4  -1  11  132.19   25.70
   3   1 -11 1459.15   56.79
   3   1 -11 1418.56   52.49
   3   1 -11 1427.66   53.69
  -3  -1  11 1439.66   59.39
  -3  -1  11 1564.34   61.19
  -3  -1  11 1400.26   71.69
   2   1 -11   79.69    8.20
   2   1 -11   83.29   11.00
   2   1 -11   75.59    8.40
  -2  -1  11   70.59   11.80
  -2  -1  11   76.79   17.80
  -2  -1  11  105.19   15.80
   1   1 -11  571.54   27.40
   1   1 -11  573.74   25.90
   1   1 -11  597.94   25.40
   1   1 -11  562.14   24.30
  -1  -1  11  622.44   31.90
  -1  -1  11  658.13   31.10
  -1  -1  11  565.04   37.70
   0   1 -11   95.69    8.50
   0   1 -11  101.89    7.30
   0   1 -11  104.39    9.90
   0  -1  11  103.69   19.20
   0  -1  11  130.39   12.20
   0  -1  11  102.39   12.80
   0  -1  11  103.79    9.10
  -1   1 -11    0.70    3.60
  -1   1 -11   -2.60    3.70
  -1   1 -11    0.30    3.10
   1  -1  11   -3.00    4.80
   1  -1  11   -6.30    6.30
   1  -1  11    3.30    3.00
   1  -1  11   -0.70    4.40
  -2   1 -11 1652.93   58.39
  -2   1 -11 1688.83   57.69
  -2   1 -11 1631.74   58.99
   2  -1  11 1629.84   62.09
   2  -1  11 1644.44   58.79
   2  -1  11 1603.04   65.09
   2  -1  11 1569.44   68.19
  -3   1 -11  310.47   15.80
  -3   1 -11  294.77   15.00
   3  -1  11  331.47   23.90
   3  -1  11  314.87   21.90
   3  -1  11  302.97   18.60
  -4   1 -11  155.88    9.40
   4  -1  11  163.28   10.80
   4  -1  11  131.59   15.10
   4  -1  11  146.99   12.60
   4  -1  11  131.49   10.80
   4  -1  11  153.88   16.40
   5  -1  11   -0.60    6.70
   5  -1  11    8.00    3.50
   5  -1  11    7.10    4.90
   5  -1  11   -7.10    5.80
   6  -1  11  109.29   10.70
   6  -1  11   87.89   15.70
   6  -1  11  101.79   10.20
   6  -1  11  107.99   14.00
   6  -1  11   98.69    8.20
   7  -1  11  184.08   12.10
   7  -1  11  158.18   18.50
   7  -1  11  177.58   10.50
   7  -1  11  191.38   20.40
   7  -1  11  169.88   11.60
   8  -1  11   83.39   17.20
   8  -1  11   82.09   17.50
   9  -1  11   30.90   14.10
   9  -1  11    7.40    8.80
   9  -1  11   -3.70   13.60
   9   0 -11    2.90    7.50
   9   0 -11   -4.40    6.70
   8   0 -11  248.18   23.20
   8   0 -11  234.18   19.70
   8   0 -11  251.17   20.00
   7   0 -11   23.40    9.10
   7   0 -11   23.70    9.20
   7   0 -11    7.40    4.30
   7   0 -11   18.10    9.40
   6   0 -11  238.68   14.30
   6   0 -11  221.48   18.00
   6   0 -11  279.37   21.00
   6   0 -11  204.88   16.40
   5   0 -11  128.69   12.60
   5   0 -11  159.58   14.20
   5   0 -11  142.19   12.90
   5   0 -11  166.48   11.30
   5   0 -11  162.18   15.30
  -5   0  11  140.09   12.30
  -5   0  11  154.08   14.00
   4   0 -11  114.49    9.20
   4   0 -11   89.79   10.30
   4   0 -11  108.09   10.60
   4   0 -11  111.09   11.60
   4   0 -11  109.89   11.90
  -4   0  11  107.19   22.00
  -4   0  11  116.69   11.50
  -4   0  11  124.89   13.00
   3   0 -11 5358.46  176.28
   3   0 -11 5280.97  174.48
   3   0 -11 5504.15  173.28
   3   0 -11 5310.37  177.18
   3   0 -11 5015.70  176.78
  -3   0  11 5555.84  197.28
  -3   0  11 5346.47  178.78
   2   0 -11 2736.63   94.09
   2   0 -11 2839.72   95.09
   2   0 -11 2836.32   97.29
   2   0 -11 2874.81   95.79
  -2   0  11 2817.02  100.29
  -2   0  11 2581.04  118.89
  -2   0  11 2862.91  100.49
   1   0 -11  103.79    8.50
   1   0 -11   85.39    8.00
   1   0 -11   99.79    9.50
   1   0 -11   94.69    8.30
  -1   0  11   94.29   18.40
  -1   0  11   91.09   10.10
  -1   0  11   89.59   10.60
   0   0 -11   34.10    7.10
   0   0 -11   34.50    5.90
   0   0 -11   33.40    4.80
   0   0 -11   35.70    6.00
   0   0  11   28.10   10.40
   0   0  11   41.70    8.50
   0   0  11   31.30    8.00
  -1   0 -11   80.99    5.30
  -1   0 -11   93.59    7.20
  -1   0 -11   81.49    8.10
  -1   0 -11   86.59    8.50
   1   0  11   52.39   12.90
   1   0  11   95.69   11.80
   1   0  11   85.69   10.60
   1   0  11   85.19   15.70
  -2   0 -11  404.06   19.60
  -2   0 -11  402.56   18.10
  -2   0 -11  446.26   21.50
   2   0  11  388.16   21.30
   2   0  11  383.46   22.80
   2   0  11  422.06   19.80
   2   0  11  385.26   25.90
  -3   0 -11 1292.07   44.60
  -3   0 -11 1225.58   47.00
   3   0  11 1099.19   50.69
   3   0  11 1236.98   47.80
   3   0  11 1264.17   45.70
   3   0  11 1187.68   50.69
   3   0  11 1247.18   53.49
  -4   0 -11   56.09    5.50
   4   0  11   46.30    7.30
   4   0  11   38.80    7.50
   4   0  11   53.19   10.70
   4   0  11   45.50   11.00
   4   0  11   50.49   10.40
   5   0  11    5.90    8.00
   5   0  11    7.00    4.50
   5   0  11    5.10    7.40
   5   0  11    3.00    3.00
   5   0  11   16.70    6.40
   6   0  11  440.16   22.30
   6   0  11  449.36   25.60
   6   0  11  446.46   28.60
   6   0  11  465.95   21.20
   6   0  11  494.15   29.70
   7   0  11    8.30    3.80
   7   0  11    8.30    2.90
   7   0  11    4.30    8.40
   7   0  11    5.80    4.50
   7   0  11   10.20    7.30
   7   0  11   13.60   10.00
   8   0  11 1578.64   70.99
   8   0  11 1602.94   75.99
   8   0  11 1599.84   55.09
   8   0  11 1572.34   54.79
   8   0  11 1649.63   65.79
   9   0  11  247.28   24.80
   9   0  11  245.68   24.90
   9   0  11  273.07   23.60
  10   0  11   24.90   12.10
   8  -1 -11   23.00   18.10
   8  -1 -11   32.80   10.60
   8  -1 -11   20.30    9.50
   7  -1 -11    9.10    7.10
   7  -1 -11    7.20    5.60
   7  -1 -11   20.20    8.10
   7  -1 -11   12.30    9.20
   6  -1 -11   63.69   11.40
   6  -1 -11   51.09   11.50
   6  -1 -11   50.49    7.80
   5  -1 -11  155.98   11.80
   5  -1 -11  165.28   14.00
   5  -1 -11  170.58   14.80
   5  -1 -11  158.48   15.40
  -5   1  11  172.88   14.60
   4  -1 -11   28.40    7.80
   4  -1 -11   49.10    8.90
   4  -1 -11   27.20    6.80
   4  -1 -11   27.60    6.00
   4  -1 -11   31.50    7.50
   4  -1 -11   33.90    4.90
  -4   1  11   31.70    6.90
  -4   1  11   33.30    6.20
  -4   1  11   47.80   14.70
   3  -1 -11  230.28   13.90
   3  -1 -11  186.98   13.60
   3  -1 -11  208.58   14.50
   3  -1 -11  189.78   14.70
   3  -1 -11  196.68   11.60
   3  -1 -11  216.78   15.10
  -3   1  11  226.58   16.60
  -3   1  11  211.68   13.90
  -3   1  11  203.18   23.20
   2  -1 -11  220.78   14.80
   2  -1 -11  231.78   15.00
   2  -1 -11  225.88   13.40
   2  -1 -11  249.48   15.70
  -2   1  11  229.38   16.50
  -2   1  11  217.48   15.30
  -2   1  11  223.28   23.60
   1  -1 -11    2.90    3.50
   1  -1 -11    1.30    3.20
   1  -1 -11    3.20    3.20
   1  -1 -11    6.50    4.40
  -1   1  11    3.90    8.40
  -1   1  11    1.60    4.70
  -1   1  11    4.60    4.60
   0  -1 -11  150.08    9.60
   0  -1 -11  154.68    9.50
   0  -1 -11  166.58   11.50
   0  -1 -11  151.38   10.40
   0   1  11  141.89   11.90
   0   1  11  124.49   21.30
   0   1  11  165.88   12.50
   0   1  11  129.19   16.30
  -1  -1 -11    3.10    3.00
  -1  -1 -11    0.70    3.20
  -1  -1 -11    2.70    3.20
   1   1  11   -0.30    4.00
   1   1  11   -4.80    5.80
   1   1  11   -9.10    4.70
   1   1  11   -1.70    3.30
   1   1  11    2.70    2.90
  -2  -1 -11  250.57   14.20
  -2  -1 -11  248.48   11.80
  -2  -1 -11  258.87   14.20
  -2  -1 -11  252.87    9.60
   2   1  11  231.88   16.10
   2   1  11  258.97   14.30
   2   1  11  225.88   18.80
   2   1  11  199.98   19.70
   2   1  11  254.27   15.40
  -3  -1 -11 2200.98   69.99
  -3  -1 -11 2162.28   73.69
  -3  -1 -11 2125.19   72.39
   3   1  11 2045.60   79.79
   3   1  11 2127.39   73.29
   3   1  11 2059.69   76.79
   3   1  11 2034.40   81.29
   3   1  11 2042.80   74.19
   3   1  11 2080.09   68.99
  -4  -1 -11 1658.93   57.89
   4   1  11 1649.93   60.69
   4   1  11 1752.82   67.09
   4   1  11 1610.64   65.99
   4   1  11 1707.33   62.49
   4   1  11 1595.24   63.99
  -5  -1 -11   39.20    5.10
   5   1  11   33.60    8.90
   5   1  11   40.20    3.50
   5   1  11   53.49    7.50
   5   1  11   63.89   12.90
   5   1  11   63.19   11.90
   5   1  11   33.70    6.80
   6   1  11    2.60    2.80
   6   1  11   -1.40    3.80
   6   1  11    5.20    6.60
   6   1  11    3.10    1.50
   6   1  11    0.00    7.90
   6   1  11   -0.40    1.40
   6   1  11    0.60    6.30
   7   1  11  218.08   13.60
   7   1  11  222.78   20.40
   7   1  11  245.38   19.70
   7   1  11  216.48   14.20
   7   1  11  212.88   20.60
   8   1  11  487.35   31.80
   8   1  11  483.25   24.10
   8   1  11  497.25   30.50
   8   1  11  432.86   44.90
   8   1  11  465.75   22.00
   9   1  11  530.05   21.40
   9   1  11  587.54   35.40
   9   1  11  542.05   21.00
   9   1  11  587.44   36.00
   9   1  11  587.24   38.00
  10   1  11   -3.50   12.30
  10   1  11   -5.80    9.80
   8  -2 -11    7.00    6.90
   8  -2 -11   15.70   10.40
   8  -2 -11    2.90    8.90
   7  -2 -11 1075.29   52.39
   7  -2 -11 1000.50   42.50
   6  -2 -11   55.79   10.60
   6  -2 -11   46.80    8.40
   6  -2 -11   31.50    9.10
   6  -2 -11   42.10   11.20
   5  -2 -11    1.20    4.90
   5  -2 -11    1.30    5.50
   5  -2 -11   -1.80    3.50
   5  -2 -11    1.50    6.30
   4  -2 -11  332.07   19.80
   4  -2 -11  292.67   19.10
   4  -2 -11  323.67   21.60
   4  -2 -11  332.17   18.50
   4  -2 -11  366.26   20.70
  -4   2  11  314.57   29.80
   3  -2 -11   64.39    9.30
   3  -2 -11   48.90    9.00
   3  -2 -11   39.60    7.10
   3  -2 -11   57.99    9.70
  -3   2  11   70.09   16.80
  -3   2  11   43.70    8.80
  -3   2  11   46.10    5.10
   2  -2 -11 2914.31   98.19
   2  -2 -11 2839.52  100.09
  -2   2  11 2784.92  113.69
  -2   2  11 2933.91   97.19
  -2   2  11 2884.41  101.39
   1  -2 -11  888.51   35.60
   1  -2 -11  906.91   37.20
   1  -2 -11  971.00   36.10
  -1   2  11  897.21   38.50
  -1   2  11  936.21   36.70
  -1   2  11  844.02   47.40
   0  -2 -11  444.16   20.40
   0  -2 -11  463.05   21.70
   0  -2 -11  456.05   19.70
   0   2  11  405.86   22.00
   0   2  11  443.46   21.40
   0   2  11  409.66   28.40
  -1  -2 -11  878.81   32.00
  -1  -2 -11  854.21   34.50
  -1  -2 -11  831.12   33.40
   1   2  11  866.71   36.20
   1   2  11  866.91   42.70
   1   2  11  875.91   35.60
  -2  -2 -11   31.70    5.50
  -2  -2 -11   37.80    4.60
  -2  -2 -11   37.60    6.40
   2   2  11   21.40    6.30
   2   2  11   28.30    9.60
   2   2  11   19.70    9.40
   2   2  11   44.20    7.60
   2   2  11   39.70    4.40
   2   2  11   41.50    6.50
  -3  -2 -11  422.16   19.00
  -3  -2 -11  391.76   15.60
  -3  -2 -11  357.86   18.40
   3   2  11  365.46   19.20
   3   2  11  404.06   27.00
   3   2  11  387.16   20.20
   3   2  11  428.26   24.70
   3   2  11  371.66   21.30
  -4  -2 -11  266.97   15.00
   4   2  11  262.97   15.20
   4   2  11  256.27   19.20
   4   2  11  249.58   15.60
   4   2  11  245.08   17.60
   4   2  11  255.47   10.50
   4   2  11  265.07   21.00
  -5  -2 -11   20.40    3.80
   5   2  11   22.50    5.80
   5   2  11   19.40    8.90
   5   2  11   29.50    9.30
   5   2  11   18.30    5.20
   5   2  11   19.30    7.70
   6   2  11  489.65   30.30
   6   2  11  508.25   24.40
   6   2  11  518.15   24.90
   6   2  11  525.75   29.70
   6   2  11  529.75   30.60
   7   2  11  145.29   11.60
   7   2  11  148.79   16.50
   7   2  11  139.99   17.40
   7   2  11  152.08   12.10
   7   2  11  151.08   17.50
   8   2  11   49.40    8.40
   8   2  11   72.49    8.10
   8   2  11   51.79   12.90
   8   2  11   43.60   12.90
   9   2  11   50.99   15.50
   9   2  11   47.30   13.90
   9   2  11   49.60    7.60
   9   2  11   16.20   11.10
  10   2  11   46.10   14.80
  10   2  11   13.70   12.80
  10   2  11    9.40   10.90
  10   2  11   36.20    3.60
   7  -3 -11  557.24   32.60
   7  -3 -11  626.24   31.60
   6  -3 -11  815.62   39.50
   6  -3 -11  815.22   42.80
   6  -3 -11  754.02   36.80
   6  -3 -11  813.32   37.60
   5  -3 -11    6.90    5.90
   5  -3 -11    2.00    6.10
   5  -3 -11    1.10    6.30
   5  -3 -11    9.60    5.40
   4  -3 -11  266.77   17.10
   4  -3 -11  240.88   17.40
   4  -3 -11  219.88   17.40
   4  -3 -11  274.67   18.00
  -4   3  11  273.67   18.10
   3  -3 -11   63.19    9.20
   3  -3 -11   63.29   10.00
   3  -3 -11   56.39    9.30
   3  -3 -11   68.69   10.00
  -3   3  11   64.19    9.50
   2  -3 -11  369.46   20.10
   2  -3 -11  422.66   21.40
   2  -3 -11  365.56   20.70
   2  -3 -11  379.16   20.00
  -2   3  11  354.86   14.50
  -2   3  11  374.16   21.30
  -2   3  11  385.36   29.90
   1  -3 -11 1582.34   58.29
   1  -3 -11 1643.24   59.29
   1  -3 -11 1574.24   61.69
  -1   3  11 1619.94   60.39
  -1   3  11 1532.75   69.89
   0  -3 -11  285.17   16.50
   0  -3 -11  343.37   18.30
   0  -3 -11  334.27   16.50
   0   3  11  304.07   23.90
   0   3  11  320.17   16.40
   0   3  11  337.67   19.20
  -1  -3 -11  492.75   20.90
  -1  -3 -11  520.95   23.80
  -1  -3 -11  531.15   22.70
   1   3  11  492.55   22.60
   1   3  11  508.25   29.70
   1   3  11  504.75   24.40
   1   3  11  403.06   33.60
  -2  -3 -11  508.65   23.60
  -2  -3 -11  516.65   20.20
  -2  -3 -11  498.95   22.30
   2   3  11  495.85   24.00
   2   3  11  514.75   24.70
   2   3  11  515.15   28.70
   2   3  11  484.45   33.60
  -3  -3 -11  172.88   10.90
  -3  -3 -11  156.58    8.00
  -3  -3 -11  143.29   10.80
   3   3  11  161.38   15.10
   3   3  11  160.58   12.00
   3   3  11  165.38   18.50
  -4  -3 -11 3740.83  121.19
  -4  -3 -11 3641.24  125.19
  -4  -3 -11 3884.81  119.49
  -4  -3 -11 3867.11  125.09
   4   3  11 4028.60  138.39
   4   3  11 3730.73  128.19
   4   3  11 3679.73  132.49
  -5  -3 -11 1124.39   42.00
  -5  -3 -11 1067.39   37.30
   5   3  11 1230.28   58.69
   5   3  11 1052.79   44.50
   5   3  11 1084.49   49.10
  -6  -3 -11   22.80    4.50
   6   3  11   25.60    6.10
   6   3  11   30.40   10.50
   6   3  11   26.40    9.60
   7   3  11   10.10    8.90
   7   3  11   22.50    5.40
   7   3  11   18.30   10.10
   8   3  11   16.10    5.90
   8   3  11   12.40   10.90
   8   3  11   24.40   11.90
   8   3  11   14.60   10.20
   9   3  11   49.50   15.40
   9   3  11   31.50   12.60
   9   3  11   31.40    7.00
  10   3  11    4.30   12.00
  10   3  11   -0.20   11.20
  10   3  11    0.10    3.80
  10   3  11   -6.30    9.20
   7  -4 -11  120.79   14.20
   7  -4 -11  120.39   19.20
   7  -4 -11  132.79   18.00
   7  -4 -11  142.19   14.40
   6  -4 -11    9.00    8.70
   6  -4 -11    0.20    6.60
   6  -4 -11    4.20    6.30
   6  -4 -11   -2.20    5.80
   5  -4 -11   27.30    8.10
   5  -4 -11   31.70    9.90
   5  -4 -11   32.00    9.10
   4  -4 -11  182.48   15.80
   4  -4 -11  182.48   25.30
   3  -4 -11    6.20    4.90
   3  -4 -11    8.90    5.00
   3  -4 -11   -6.10    4.20
   3  -4 -11   14.50    6.40
  -3   4  11    2.90    7.60
   2  -4 -11  132.09   12.40
   2  -4 -11  128.39   11.80
   2  -4 -11  115.19   11.60
   2  -4 -11  131.29   12.00
  -2   4  11  141.09   18.00
  -2   4  11  142.49   12.20
   1  -4 -11  992.20   39.80
   1  -4 -11  880.91   42.70
   1  -4 -11 1036.30   40.70
   1  -4 -11  966.70   40.20
  -1   4  11  994.50   41.50
  -1   4  11  959.60   49.50
  -1   4  11  976.80   34.40
  -1   4  11  955.60   34.30
   0  -4 -11  624.54   29.00
   0  -4 -11  687.83   30.20
   0  -4 -11  669.03   28.50
   0   4  11  672.53   37.10
   0   4  11  622.14   30.10
   0   4  11  680.43   26.70
  -1  -4 -11  368.56   21.80
  -1  -4 -11  395.36   18.20
  -1  -4 -11  369.46   20.00
   1   4  11  329.87   23.60
   1   4  11  373.96   18.30
   1   4  11  373.66   20.90
  -2  -4 -11    3.40    3.70
  -2  -4 -11    2.60    4.10
  -2  -4 -11    5.80    2.90
   2   4  11    2.30    6.00
  -3  -4 -11  755.92   26.70
  -3  -4 -11  733.23   29.80
  -3  -4 -11  689.03   30.90
   3   4  11  722.53   39.10
   3   4  11  736.63   32.70
  -4  -4 -11 3240.08  103.99
  -4  -4 -11 3351.86  109.39
  -4  -4 -11 3216.88  110.89
   4   4  11 3292.07  113.09
   4   4  11 3373.66  124.29
   4   4  11 3191.48  114.09
   4   4  11 3374.56  117.69
  -5  -4 -11 1490.85   54.69
  -5  -4 -11 1485.05   53.49
   5   4  11 1414.36   57.99
   5   4  11 1524.25   57.49
   5   4  11 1459.75   61.79
   5   4  11 1606.74   67.49
  -6  -4 -11  200.08   12.80
  -6  -4 -11  222.88   13.00
   6   4  11  213.68   15.60
   6   4  11  199.58   15.70
   6   4  11  203.88   18.80
   6   4  11  245.58   21.70
   7   4  11   72.99   11.00
   7   4  11   94.39   17.20
   7   4  11   86.99   17.00
   7   4  11   54.69    9.90
   8   4  11   98.49   11.50
   8   4  11  104.69   20.20
   8   4  11  100.69   18.30
   9   4  11   73.69   18.10
   9   4  11   64.19   17.00
  10   4  11  600.34   38.30
  10   4  11  592.54   29.20
  10   4  11  657.13   42.30
  10   4  11  675.43   44.20
  11   4  11   47.80    8.20
  11   4  11   56.69   19.00
   7  -5 -11   24.90   10.10
   6  -5 -11  418.76   30.70
   6  -5 -11  388.46   24.00
   6  -5 -11  417.66   27.60
   6  -5 -11  420.26   26.70
   5  -5 -11  239.18   19.90
   5  -5 -11  238.28   20.40
   5  -5 -11  239.68   18.30
   4  -5 -11    2.60    6.00
   4  -5 -11    3.10    6.90
   4  -5 -11   -7.60    4.90
   3  -5 -11   46.60    9.80
   3  -5 -11   42.50    8.90
   3  -5 -11   56.79   10.70
   2  -5 -11   -0.30    7.10
   2  -5 -11    4.90    5.10
   2  -5 -11    6.70    5.40
   2  -5 -11   10.00    5.20
  -2   5  11   14.80    6.10
  -2   5  11    9.90    9.00
   1  -5 -11   44.30    8.50
   1  -5 -11   67.09   10.30
   1  -5 -11   67.89   10.30
  -1   5  11   59.59   13.50
  -1   5  11   36.10   16.00
  -1   5  11   54.59   10.00
   0  -5 -11    6.70    5.20
   0  -5 -11    3.00    4.10
   0  -5 -11    5.20    3.90
   0   5  11   12.70    6.20
   0   5  11    5.50    3.30
   0   5  11    0.40   11.40
   0   5  11    3.10    7.40
   0   5  11    4.70    4.60
  -1  -5 -11  733.03   30.00
  -1  -5 -11  707.43   32.00
  -1  -5 -11  700.83   31.20
   1   5  11  635.44   35.50
  -2  -5 -11   17.00    4.80
  -2  -5 -11   13.50    4.70
  -2  -5 -11   18.40    6.70
   2   5  11   11.90    6.00
   2   5  11   15.90    7.50
   2   5  11   20.70   12.10
  -3  -5 -11   75.39   10.40
  -3  -5 -11   47.40    5.30
  -3  -5 -11   71.99   10.20
   3   5  11   62.19   16.60
   3   5  11   63.49   10.20
   3   5  11   63.89   13.50
  -4  -5 -11   35.80    7.40
  -4  -5 -11   25.60    5.30
  -4  -5 -11   33.80    3.80
   4   5  11   27.40    7.70
   4   5  11   36.90    9.90
   4   5  11   27.90   12.30
  -5  -5 -11   10.90    5.00
  -5  -5 -11    3.40    3.70
   5   5  11   10.80    5.30
   5   5  11    1.50    5.30
   5   5  11    4.50    6.70
   5   5  11   20.50   10.50
  -6  -5 -11    3.20    4.00
  -6  -5 -11   -0.90    3.10
   6   5  11    9.20    5.40
   6   5  11    2.40    8.60
   6   5  11    2.70    7.90
   6   5  11    1.80    5.70
  -7  -5 -11   52.59   10.90
   7   5  11   62.39   14.20
   7   5  11   71.39   11.60
   7   5  11   73.89   17.20
   8   5  11  155.18   19.30
   8   5  11  161.08   14.80
   8   5  11  167.58   21.60
   9   5  11  357.56   29.30
   9   5  11  346.47   32.30
   9   5  11  314.57   21.20
  10   5  11  392.76   34.20
  10   5  11  403.06   32.40
  10   5  11  366.26   23.00
  11   5  11  267.27   30.30
   6  -6 -11  405.46   28.20
   5  -6 -11  378.66   25.50
   5  -6 -11  280.27   22.30
   5  -6 -11  333.27   24.70
   4  -6 -11   -3.90    5.50
   4  -6 -11   -4.50    5.30
   4  -6 -11    5.80    6.40
   3  -6 -11   23.70    8.00
   3  -6 -11   27.40    8.60
   3  -6 -11   10.50    7.20
   2  -6 -11  219.18   17.30
   2  -6 -11  192.08   17.00
   2  -6 -11  187.98   15.90
  -2   6  11  185.08   17.60
   1  -6 -11   65.69   11.10
   1  -6 -11   53.19    9.70
   1  -6 -11   82.89   12.40
  -1   6  11   53.09    9.90
  -1   6  11   70.99   13.10
  -1   6  11   54.99   21.00
   0  -6 -11 1932.01   69.59
   0  -6 -11 1951.70   71.19
   0  -6 -11 1920.51   70.69
   0   6  11 1828.92   70.09
   0   6  11 1748.43   63.19
   0   6  11 1722.93   74.89
  -1  -6 -11  834.22   36.90
  -1  -6 -11  838.42   34.90
  -1  -6 -11  880.81   36.80
   1   6  11  636.44   49.80
   1   6  11  777.32   40.10
  -2  -6 -11  206.08   15.90
  -2  -6 -11  196.18   12.80
  -2  -6 -11  172.88   13.70
   2   6  11  172.98   14.90
   2   6  11  207.78   17.90
   2   6  11  165.58   23.90
  -3  -6 -11  436.46   24.10
  -3  -6 -11  469.75   22.90
  -3  -6 -11  447.86   20.50
   3   6  11  453.45   36.30
   3   6  11  410.16   24.70
   3   6  11  461.15   26.60
  -4  -6 -11   73.39    9.20
  -4  -6 -11   80.19   11.20
  -4  -6 -11   63.29    5.80
   4   6  11   73.39   12.10
   4   6  11   69.99   12.60
   4   6  11   76.49   18.30
  -5  -6 -11  595.54   26.80
  -5  -6 -11  628.54   22.00
  -5  -6 -11  614.34   29.60
  -5  -6 -11  592.54   21.40
   5   6  11  580.24   30.90
   5   6  11  667.73   41.70
   5   6  11  604.34   33.70
  -6  -6 -11   11.60    5.80
  -6  -6 -11    0.20    3.10
   6   6  11   14.20    6.90
   6   6  11    6.10    7.70
   6   6  11    9.90   10.70
  -7  -6 -11  209.78   12.30
  -7  -6 -11  182.48   14.60
   7   6  11  183.68   22.70
   7   6  11  216.98   20.80
   7   6  11  186.08   16.40
   8   6  11   65.39   16.20
   8   6  11   77.69   19.90
   8   6  11   70.09   12.30
   9   6  11   45.90   14.40
   9   6  11   28.50   13.90
   9   6  11   22.50    8.50
  10   6  11   17.80   14.80
  10   6  11   34.80   15.00
  10   6  11   11.40    9.00
  11   6  11   -6.40   14.10
   4  -7 -11   33.60   14.10
   4  -7 -11   36.20    9.20
   4  -7 -11   15.30    8.50
   3  -7 -11   11.70    7.60
   3  -7 -11   11.70    6.10
   3  -7 -11   16.40    7.20
   2  -7 -11   13.40    7.20
   2  -7 -11   10.60    7.60
   2  -7 -11    7.00    6.00
   1  -7 -11   14.30    7.70
   1  -7 -11    5.30   10.70
  -1   7  11   26.20   16.50
  -1   7  11   50.49    9.90
   0  -7 -11  754.12   35.80
   0  -7 -11  832.12   38.20
   0  -7 -11  779.52   37.00
   0   7  11  722.93   26.20
   0   7  11  725.93   37.80
   0   7  11  699.73   35.00
  -1  -7 -11  340.67   21.50
  -1  -7 -11  343.67   20.20
  -1  -7 -11  326.07   21.50
   1   7  11  229.98   31.00
   1   7  11  311.57   22.70
   1   7  11  345.57   21.50
  -2  -7 -11   69.89   10.10
  -2  -7 -11   66.29   11.40
  -2  -7 -11   79.59   11.60
   2   7  11   63.69   12.80
   2   7  11   66.89   20.90
   2   7  11   67.99   12.00
  -3  -7 -11   71.89   11.90
  -3  -7 -11   62.99    9.40
   3   7  11   90.89   22.40
   3   7  11   78.39   13.50
  -4  -7 -11    2.50    3.20
  -4  -7 -11   -0.80    4.00
  -4  -7 -11    0.00    4.90
   4   7  11   12.50    7.20
   4   7  11    9.10    7.50
   4   7  11    0.60    9.50
  -5  -7 -11   17.60    6.10
  -5  -7 -11   15.20    4.00
  -5  -7 -11   21.50    6.60
   5   7  11   11.10    8.20
   5   7  11    0.20   12.20
   5   7  11   13.00    6.50
  -6  -7 -11  485.15   22.10
  -6  -7 -11  426.96   25.00
   6   7  11  452.05   27.80
   6   7  11  486.35   37.10
   6   7  11  478.25   30.40
  -7  -7 -11   99.99    8.80
  -7  -7 -11  104.19   14.10
   7   7  11  142.99   25.80
   8   7  11    9.20    8.00
   8   7  11    6.30    9.10
   8   7  11   15.10   12.80
   9   7  11   63.89   12.90
   9   7  11   62.29   17.10
   9   7  11   51.99   18.30
  10   7  11   90.89   15.30
  10   7  11   82.79   19.00
   3  -8 -11    2.50    6.90
   3  -8 -11    3.30    6.50
   3  -8 -11    8.20    8.70
   2  -8 -11    4.30    7.50
   2  -8 -11    7.80    7.90
   2  -8 -11    5.80    7.10
   1  -8 -11    7.80    7.80
   1  -8 -11    4.00    6.20
   1  -8 -11   -1.40    6.60
   0  -8 -11   86.89   14.00
   0  -8 -11   94.79   14.80
   0  -8 -11  117.09   13.20
   0   8  11   72.89   13.50
   0   8  11   60.09   22.90
  -1  -8 -11   10.30    6.90
  -1  -8 -11    2.30    6.00
  -1  -8 -11   28.80    9.70
   1   8  11   21.60   16.50
   1   8  11   16.60    7.60
  -2  -8 -11   64.79   13.00
  -2  -8 -11   84.49   11.80
  -2  -8 -11   80.69   11.90
   2   8  11   81.79   16.30
   2   8  11   54.39   10.80
   2   8  11   67.39   21.60
  -3  -8 -11  363.76   20.70
  -3  -8 -11  381.66   24.90
  -3  -8 -11  389.56   22.70
   3   8  11  373.46   24.90
   3   8  11  289.37   33.60
   3   8  11  368.46   24.80
  -4  -8 -11    0.20    5.80
  -4  -8 -11    0.80    4.30
  -4  -8 -11    2.00    5.00
   4   8  11   11.30    7.40
   4   8  11   -4.00    7.00
   4   8  11   -0.40    9.70
  -5  -8 -11  136.99   14.60
  -5  -8 -11  127.49   11.90
  -5  -8 -11  122.99    9.70
   5   8  11  116.59   16.70
   5   8  11  118.79   15.90
  -6  -8 -11  239.38   17.80
  -6  -8 -11  216.58   14.30
  -6  -8 -11  198.68   10.60
   6   8  11  231.18   21.10
   6   8  11  225.08   28.20
   6   8  11  202.78   19.20
  -7  -8 -11  424.76   20.80
   7   8  11  382.66   27.10
   7   8  11  471.95   32.10
   7   8  11  460.75   39.10
   8   8  11   35.80   11.60
   8   8  11   48.90   17.80
   8   8  11   49.70   15.60
   9   8  11   -9.20    9.70
   9   8  11    0.80    7.30
   9   8  11   17.10   13.20
  10   8  11   25.30    9.80
  10   8  11   38.20   18.50
  10   8  11    2.70   10.40
   2  -9 -11   17.10    8.90
   2  -9 -11    5.90    9.00
   2  -9 -11   24.40    8.50
   1  -9 -11  -14.00    4.90
   1  -9 -11    3.40    7.50
   1  -9 -11   14.20    7.10
   0  -9 -11   25.20    8.70
   0  -9 -11   10.80    8.10
   0  -9 -11   12.30    8.40
   0   9  11   21.70   15.10
  -1  -9 -11  219.78   18.90
  -1  -9 -11  196.68   19.40
  -1  -9 -11  230.88   19.90
   1   9  11  129.49   29.00
  -2  -9 -11   -3.00    6.60
  -2  -9 -11   11.20    7.20
   2   9  11   15.00   14.60
   2   9  11   30.00    8.40
   2   9  11   -0.70    8.10
  -3  -9 -11   97.19   13.20
  -3  -9 -11   84.89   15.40
  -3  -9 -11   84.89   12.60
   3   9  11   77.09   22.60
   3   9  11   89.19   15.10
   3   9  11   82.29   14.20
  -4  -9 -11  370.16   25.30
  -4  -9 -11  351.26   20.80
  -4  -9 -11  371.86   22.90
   4   9  11  366.46   25.20
   4   9  11  334.37   25.30
   4   9  11  341.87   38.00
  -5  -9 -11   46.90   10.30
  -5  -9 -11   69.79   11.10
  -5  -9 -11   69.49    9.40
   5   9  11   53.69   21.90
   5   9  11   68.69   13.70
   5   9  11   69.39   14.50
  -6  -9 -11   47.80   10.80
  -6  -9 -11   57.19    9.30
  -6  -9 -11   46.00    7.50
   6   9  11   71.09   23.20
  -7  -9 -11   37.00    7.70
   7   9  11   37.60   11.80
   7   9  11   84.79   23.40
   7   9  11   64.59   15.80
   8   9  11   38.90   11.70
   8   9  11   22.80   13.30
   8   9  11   15.30   14.60
   9   9  11    1.50   13.30
   0 -10 -11   61.29   13.20
   0 -10 -11   73.09   14.10
   0 -10 -11   85.49   15.50
  -1 -10 -11   11.40    7.00
  -1 -10 -11   -7.00    6.60
  -1 -10 -11    2.30    6.80
   1  10  11   41.90   18.30
  -2 -10 -11  187.98   17.60
  -2 -10 -11  121.69   17.50
  -2 -10 -11  195.58   19.60
   2  10  11   96.99   23.90
  -3 -10 -11    7.90    6.30
  -3 -10 -11   13.30   10.00
  -3 -10 -11   11.40    8.10
   3  10  11   19.00   14.20
   3  10  11   10.00   10.40
  -4 -10 -11   24.40    8.50
  -4 -10 -11   27.20   10.40
   4  10  11    7.80   14.90
   4  10  11   -0.10   10.40
   4  10  11   21.00   11.70
  -5 -10 -11  190.68   15.60
  -5 -10 -11  198.98   17.40
  -5 -10 -11  232.88   21.50
   5  10  11  187.68   19.90
   5  10  11  200.28   29.70
   5  10  11  185.38   19.80
  -6 -10 -11  135.39   13.90
  -6 -10 -11  133.59   18.50
   6  10  11  130.99   19.90
   6  10  11   97.59   17.60
   6  10  11  122.69   30.60
  -7 -10 -11  206.38   16.40
   7  10  11  248.78   33.80
   7  10  11  187.18   22.00
   7  10  11  209.48   21.30
   8  10  11    5.40   11.70
   8  10  11   29.80   19.60
   8  10  11   18.90   11.30
   9  10  11   -8.00   11.80
   9  10  11    0.40   10.00
   1  11  11   90.39   23.90
  -2 -11 -11    6.00    8.80
  -2 -11 -11    7.00    8.40
  -2 -11 -11    8.20    8.90
   2  11  11   25.80   17.00
  -3 -11 -11   61.09   14.50
  -3 -11 -11   53.39   12.40
  -3 -11 -11   56.09   12.60
  -4 -11 -11  104.19   15.90
  -4 -11 -11  108.69   15.20
  -4 -11 -11  129.29   18.60
  -5 -11 -11  119.69   15.60
  -5 -11 -11  193.58   20.10
  -5 -11 -11  134.39   17.10
   5  11  11  114.09   18.50
  -6 -11 -11    8.20    9.10
   6  11  11  -15.60   14.00
   6  11  11    5.40   12.70
   6  11  11   19.30   17.90
   7  11  11  122.69   22.10
   7  11  11  168.78   34.20
   7  11  11  148.49   21.60
   8  11  11  -28.20   10.50
   8  11  11  -15.00   11.90
  -4 -12 -11  -19.90   11.10
  -5 -12 -11  -17.50    9.00
  -5 -12 -11   -1.30   13.20
  -6 -12 -11   -3.70   14.70
   7  12  11   29.90   20.90
  -5  -9  12    9.00   14.80
  -4  -9  12   15.10   12.90
  -4  -9  12    2.20   20.90
  -3  -9  12   -8.70    9.00
  -3  -9  12    2.90   11.90
  -2  -9  12   21.60   11.40
   7   8 -12   74.99   21.10
   7   8 -12  103.99   22.80
   6   8 -12  272.47   23.40
   6   8 -12  206.58   27.70
   6   8 -12  295.97   28.90
  -6  -8  12  287.47   33.00
   5   8 -12   26.30    9.90
   5   8 -12   11.10   12.50
  -5  -8  12   14.80   15.90
  -5  -8  12   19.20   14.80
  -4  -8  12   27.20   13.10
  -3  -8  12    0.10    9.50
  -2  -8  12  143.69   21.70
  -1  -8  12  143.79   26.80
   0  -8  12  122.19   20.10
   0  -8  12  145.59   26.70
   1  -8  12    4.30   15.00
   8   7 -12   50.29   15.00
   8   7 -12   40.80   15.60
   8   7 -12   19.80   16.40
  -8  -7  12   66.99   24.10
   7   7 -12  -11.50   11.30
   7   7 -12   -4.20    6.60
   7   7 -12   19.40   11.30
  -7  -7  12    4.40    9.90
   6   7 -12   -4.00   10.20
   6   7 -12   10.00    7.60
   6   7 -12    4.40   10.00
  -6  -7  12  -27.10   10.10
  -6  -7  12   -0.10   12.10
   5   7 -12   21.70   11.10
   5   7 -12   -5.30   10.00
   5   7 -12   13.10    8.00
  -5  -7  12   21.90   12.20
  -5  -7  12   -9.70   10.20
   4   7 -12   47.90   13.20
   4   7 -12   64.79   13.80
  -4  -7  12   48.20   16.80
   3   7 -12    9.20    9.10
   3   7 -12   17.80    9.00
  -3  -7  12   10.60   10.40
  -3  -7  12   23.60   13.40
  -2  -7  12   38.30   16.00
  -2  -7  12   43.30   13.70
  -1  -7  12  181.18   28.30
  -1  -7  12  184.28   25.10
   0  -7  12  536.45   36.30
   0  -7  12  530.15   41.60
   1  -7  12   76.19   16.00
   1  -7  12  113.39   22.80
   2  -7  12   25.70    9.80
   2  -7  12    8.60   13.20
   3  -7  12   -4.50   12.60
   8   6 -12   19.10   11.60
   8   6 -12   -9.10    7.10
   7   6 -12   56.99   15.30
   7   6 -12   46.80   17.20
   7   6 -12   26.90    9.70
  -7  -6  12   47.40   18.40
   6   6 -12  125.89   17.20
   6   6 -12  142.69   21.70
   6   6 -12  159.18   21.50
  -6  -6  12  164.88   28.30
  -6  -6  12  168.08   23.10
   5   6 -12  617.54   34.80
   5   6 -12  592.84   38.70
   5   6 -12  647.64   39.60
  -5  -6  12  645.24   45.60
  -5  -6  12  734.63   43.20
   4   6 -12  273.57   22.90
   4   6 -12  306.97   22.70
   4   6 -12  296.47   24.60
  -4  -6  12  298.07   26.70
  -4  -6  12  254.07   28.50
   3   6 -12   22.70    8.10
   3   6 -12   21.70    8.30
   3   6 -12   14.70    8.30
  -3  -6  12   23.00   11.00
  -3  -6  12   24.30   12.60
   2   6 -12    1.50    7.20
   2   6 -12    6.70    7.10
   2   6 -12   -4.00    4.60
  -2  -6  12    1.20    9.20
  -2  -6  12    7.40   11.10
   1   6 -12  202.28   19.20
  -1  -6  12  182.68   37.10
  -1  -6  12  259.17   28.10
   0  -6  12   69.89   15.10
   0  -6  12   83.29   17.00
   0  -6  12   66.49   18.60
   1  -6  12  200.58   21.60
   1  -6  12  225.88   32.20
   1  -6  12  199.78   21.30
   2  -6  12   83.99   21.10
   2  -6  12   71.09   14.30
   3  -6  12  123.69   23.80
   3  -6  12  143.59   19.70
   4  -6  12   27.90    8.90
   4  -6  12   20.70   15.70
   5  -6  12   17.30   11.60
   9   5 -12   34.30   10.10
   8   5 -12  199.48   21.30
   8   5 -12  156.78   17.00
   8   5 -12  183.18   31.60
  -8  -5  12  220.18   27.00
   7   5 -12   16.20    9.80
   7   5 -12   15.30    8.50
   7   5 -12   24.80    8.50
   7   5 -12   15.60   13.70
  -7  -5  12   23.20   14.30
   6   5 -12  212.68   22.30
   6   5 -12  252.07   19.70
   6   5 -12  210.38   42.70
  -6  -5  12  229.58   26.00
  -6  -5  12  237.48   23.20
   5   5 -12  457.45   33.70
   5   5 -12  489.75   28.60
   5   5 -12  469.95   31.40
  -5  -5  12  452.65   36.50
  -5  -5  12  485.65   33.30
   4   5 -12  315.27   24.40
   4   5 -12  288.27   24.50
  -4  -5  12  348.57   27.40
  -4  -5  12  396.16   32.50
   3   5 -12   41.30   10.30
   3   5 -12   72.69   13.00
   3   5 -12   88.89   15.10
  -3  -5  12   48.80   16.90
  -3  -5  12   76.29   16.20
   2   5 -12   14.00    7.60
   2   5 -12   16.00    8.40
   2   5 -12   11.20    5.50
  -2  -5  12    4.50   12.30
  -2  -5  12   22.90   13.20
  -2  -5  12   18.70    9.80
   1   5 -12  120.49   16.30
   1   5 -12   73.49    6.10
   1   5 -12   80.29   13.10
  -1  -5  12   79.89   18.90
  -1  -5  12  119.39   22.80
  -1  -5  12   66.49   15.50
   0   5 -12  957.60   44.00
   0  -5  12  994.10   49.10
   0  -5  12  961.20   53.49
   0  -5  12  924.51   53.99
   1  -5  12 1901.31   83.79
   2  -5  12   23.80   14.00
   2  -5  12   31.80   10.60
   2  -5  12   23.80    9.90
   3  -5  12  163.78   16.60
   3  -5  12  153.78   25.50
   3  -5  12  155.38   17.60
   4  -5  12    2.70    9.60
   4  -5  12    0.90    5.30
   5  -5  12  108.89   20.40
   5  -5  12  117.99   13.90
   6  -5  12   96.79   20.50
   9   4 -12   81.09   16.60
   9   4 -12   65.09   16.80
   9   4 -12   52.19   20.90
   9   4 -12  100.49   14.30
   8   4 -12   16.80    9.50
   8   4 -12   34.70   10.70
   8   4 -12   23.00    8.90
   8   4 -12    1.70   12.00
  -8  -4  12   18.50   12.50
   7   4 -12    8.40    7.90
   7   4 -12    0.40   10.40
   7   4 -12   -5.10    6.50
   7   4 -12    2.30    8.60
  -7  -4  12    1.70    9.80
   6   4 -12  164.48   38.70
   6   4 -12  184.28   17.20
   6   4 -12  174.88   17.40
  -6  -4  12  228.38   21.20
  -6  -4  12  229.08   24.80
   5   4 -12  168.48   20.60
   5   4 -12  182.68   18.40
   5   4 -12  182.28   16.00
   5   4 -12  174.58   15.90
  -5  -4  12  191.68   18.90
  -5  -4  12  172.68   21.10
   4   4 -12  358.16   21.80
   4   4 -12  312.27   23.70
   4   4 -12  320.47   20.50
  -4  -4  12  341.17   26.20
  -4  -4  12  326.27   28.30
   3   4 -12   42.20   12.20
   3   4 -12   32.20    8.40
  -3  -4  12   74.19   17.70
  -3  -4  12   48.00   17.90
  -3  -4  12   61.19   13.00
   2   4 -12  249.97   18.60
   2   4 -12  285.97   18.90
   2   4 -12  268.17   20.10
  -2  -4  12  280.57   22.40
  -2  -4  12  264.27   29.10
  -2  -4  12  277.27   26.30
   1   4 -12   14.00    6.70
   1   4 -12   -7.10    3.80
   1   4 -12    3.60    5.50
   1   4 -12   -0.30    3.60
  -1  -4  12    4.70    8.50
  -1  -4  12   10.30   10.30
  -1  -4  12   -4.10    5.50
   0   4 -12  101.09   11.70
   0   4 -12   97.19   13.40
   0  -4  12  126.79   22.00
   0  -4  12  121.79   17.10
   0  -4  12  145.89   23.30
  -1   4 -12  445.76   24.90
   1  -4  12  416.26   32.40
   1  -4  12  459.65   33.10
   1  -4  12  463.65   28.90
   2  -4  12   17.10    8.50
   2  -4  12   10.70    9.30
   2  -4  12   -2.60    9.00
   3  -4  12   77.29   20.20
   3  -4  12   78.29   15.10
   3  -4  12   97.19   15.20
   4  -4  12   35.70   14.10
   4  -4  12   44.50   10.70
   4  -4  12   54.29   11.20
   5  -4  12   83.39   12.10
   5  -4  12   74.09   18.50
   6  -4  12  572.24   28.60
   6  -4  12  629.04   41.10
   7  -4  12  693.33   45.20
   9   3 -12  557.34   35.80
   9   3 -12  537.35   31.70
   9   3 -12  631.24   50.99
   9   3 -12  501.55   34.60
   8   3 -12   -3.90    6.70
   8   3 -12    2.50   10.20
   8   3 -12   11.00    7.80
   8   3 -12    1.10    8.70
   7   3 -12   97.69   15.40
   7   3 -12  107.99   14.40
   7   3 -12  110.59   17.50
  -7  -3  12  133.89   21.20
   6   3 -12   56.49   14.90
   6   3 -12   56.99   14.20
   6   3 -12   53.19   10.60
  -6  -3  12   69.49   16.20
  -6  -3  12   61.39   12.50
   5   3 -12  302.37   20.20
   5   3 -12  362.46   24.90
   5   3 -12  320.97   21.90
  -5  -3  12  402.56   26.70
  -5  -3  12  361.56   28.00
   4   3 -12  304.77   22.30
   4   3 -12  333.67   20.30
   4   3 -12  345.77   20.90
  -4  -3  12  356.16   25.30
  -4  -3  12  346.27   27.10
  -4  -3  12  347.07   34.90
   3   3 -12   13.40    6.30
   3   3 -12   23.20    6.50
  -3  -3  12   23.80   14.70
  -3  -3  12   19.30    8.60
  -3  -3  12   25.80   12.20
   2   3 -12   78.49   10.90
   2   3 -12  108.99   14.40
   2   3 -12   85.89    8.90
  -2  -3  12   83.19   14.30
  -2  -3  12  103.69   18.40
  -2  -3  12   67.39   18.20
   1   3 -12  232.88   17.10
   1   3 -12  217.18   15.40
  -1  -3  12  230.48   22.10
  -1  -3  12  190.08   23.80
  -1  -3  12  211.78   18.50
   0   3 -12   56.29    9.70
   0   3 -12   52.09    9.40
   0  -3  12   65.49   11.90
   0  -3  12   52.79   14.10
   0  -3  12   48.60   14.30
  -1   3 -12  222.28   15.40
  -1   3 -12  205.18   15.80
   1  -3  12  210.28   23.00
   1  -3  12  220.28   21.40
   1  -3  12  195.18   15.50
   1  -3  12  230.58   18.30
   1  -3  12  196.08   10.50
  -2   3 -12   -2.40    4.00
   2  -3  12   12.10    9.10
   2  -3  12    4.20    7.60
   2  -3  12    1.80    6.20
   2  -3  12   -4.90    3.50
   3  -3  12  100.39   14.20
   3  -3  12  109.09   18.00
   3  -3  12   97.89   10.20
   3  -3  12   68.79   16.30
   4  -3  12   58.89   16.40
   4  -3  12   53.59   12.00
   5  -3  12  116.89   20.70
   5  -3  12  148.49   16.80
   5  -3  12  132.19   14.20
   6  -3  12  224.68   24.40
   6  -3  12  214.28   15.80
   6  -3  12  251.47   21.30
   7  -3  12  255.97   25.20
   7  -3  12  157.68   10.20
   8  -3  12  120.09   22.50
   8  -3  12   57.89   16.50
   9   2 -12  198.78   22.90
   9   2 -12  288.07   23.40
   9   2 -12  187.88   18.40
   9   2 -12  225.18   30.70
   8   2 -12  149.99   17.70
   8   2 -12  119.39   17.60
   8   2 -12  171.98   16.20
   7   2 -12    2.30    6.70
   7   2 -12    4.40    8.50
   7   2 -12    5.80    6.90
  -7  -2  12   -2.30    8.30
   6   2 -12    0.80    7.10
  -6  -2  12    2.30    8.50
  -6  -2  12   -1.60    7.30
   5   2 -12  220.58   16.30
   5   2 -12  212.28   18.80
   5   2 -12  233.98   18.10
  -5  -2  12  233.48   19.70
  -5  -2  12  225.98   20.60
   4   2 -12 1866.31   72.79
   4   2 -12 1824.22   69.79
   4   2 -12 1835.42   68.49
  -4  -2  12 1885.71   77.29
  -4  -2  12 1871.51   91.79
  -4  -2  12 1881.51   75.19
   3   2 -12 3728.43  132.09
   3   2 -12 3704.23  124.59
   3   2 -12 3538.45  123.59
  -3  -2  12 3746.73  134.59
  -3  -2  12 3651.13  147.49
  -3  -2  12 3605.84  131.09
   2   2 -12  188.58   13.40
   2   2 -12  174.48   14.80
   2   2 -12  186.48   13.00
  -2  -2  12  206.08   24.20
  -2  -2  12  190.78   18.50
  -2  -2  12  158.38   16.00
   1   2 -12   -2.20    4.10
   1   2 -12    4.10    3.60
   1   2 -12    5.50    4.50
  -1  -2  12    4.20    7.30
  -1  -2  12   -6.20    6.10
  -1  -2  12    6.20    6.60
   0   2 -12   93.99   12.40
   0   2 -12  101.09    9.70
   0   2 -12   82.89   18.50
   0  -2  12  107.79   15.00
   0  -2  12   85.69   16.10
   0  -2  12   91.49   19.70
  -1   2 -12   -0.40    3.90
  -1   2 -12   -0.70    3.90
  -1   2 -12   -4.20    2.70
   1  -2  12    4.40    5.80
   1  -2  12    4.20    9.20
   1  -2  12   -2.70    6.30
   1  -2  12   17.60    6.60
  -2   2 -12  332.57   19.00
   2  -2  12  292.17   25.70
   2  -2  12  297.27   23.50
   2  -2  12  296.37   17.40
   2  -2  12  314.67   20.80
  -3   2 -12    7.80    4.00
   3  -2  12    1.60    4.60
   3  -2  12    6.70    7.90
   3  -2  12    2.20    7.50
   3  -2  12   17.60    7.00
   4  -2  12  140.99   17.30
   4  -2  12  119.69   10.50
   4  -2  12  149.49   17.20
   4  -2  12  128.69   13.40
   5  -2  12  232.08   19.00
   5  -2  12  240.68   22.10
   5  -2  12  240.88   23.00
   6  -2  12   26.60    5.80
   6  -2  12   44.50    8.70
   6  -2  12   36.90   12.90
   6  -2  12   59.19   14.30
   7  -2  12  367.96   28.60
   7  -2  12  357.76   18.20
   7  -2  12  422.66   32.00
   7  -2  12  289.37   20.80
   8  -2  12   85.79   15.70
   8  -2  12  147.29   22.60
   9   1 -12   20.30   16.50
   9   1 -12   -3.40    7.90
   8   1 -12   79.79   13.20
   8   1 -12   70.79   13.80
   8   1 -12   62.49   14.30
   7   1 -12   57.59    7.70
   7   1 -12   64.09   12.10
   7   1 -12   45.30   12.30
   7   1 -12   43.80   11.90
   6   1 -12   75.39    8.00
  -6  -1  12   70.79   13.60
   5   1 -12   47.90    7.10
   5   1 -12   61.29   11.80
   5   1 -12   53.39   10.80
   5   1 -12   52.39    9.50
  -5  -1  12   62.49   11.60
  -5  -1  12   37.80    9.50
   4   1 -12   86.99   11.30
   4   1 -12   71.79   10.90
   4   1 -12   79.89    8.60
   4   1 -12  101.39   14.00
  -4  -1  12   82.59   13.70
  -4  -1  12   72.39   21.00
  -4  -1  12   86.09   13.90
   3   1 -12  415.16   23.70
   3   1 -12  476.75   25.30
   3   1 -12  445.36   22.40
   3   1 -12  437.86   22.90
  -3  -1  12  468.05   28.30
  -3  -1  12  413.56   26.20
  -3  -1  12  451.55   36.60
   2   1 -12  755.82   31.50
   2   1 -12  738.03   31.10
   2   1 -12  729.13   33.90
  -2  -1  12  758.52   38.20
  -2  -1  12  666.13   45.30
  -2  -1  12  755.12   36.90
   1   1 -12  215.38   15.50
   1   1 -12  222.48   12.80
   1   1 -12  203.08   15.10
  -1  -1  12  223.38   17.50
  -1  -1  12  204.38   23.10
  -1  -1  12  221.88   18.40
   0   1 -12  231.08   15.30
   0   1 -12  209.08   12.90
   0   1 -12  204.88   11.00
   0  -1  12  184.58   15.90
   0  -1  12  197.18   20.60
  -1   1 -12 1357.06   49.40
  -1   1 -12 1235.68   46.10
  -1   1 -12 1222.28   47.90
   1  -1  12 1172.88   53.19
   1  -1  12 1170.08   46.80
  -2   1 -12 1243.78   47.30
  -2   1 -12 1199.98   46.10
  -2   1 -12 1324.67   48.20
   2  -1  12 1125.19   61.69
   2  -1  12 1216.68   46.70
   2  -1  12 1237.78   50.59
   2  -1  12 1207.88   53.89
  -3   1 -12 2636.14   89.39
  -3   1 -12 2715.83   90.99
   3  -1  12 2707.33  103.09
   3  -1  12 2667.33   91.59
   3  -1  12 2526.95   98.79
   3  -1  12 2715.13   95.39
  -4   1 -12   23.60    4.80
   4  -1  12   27.70    5.80
   4  -1  12   35.30   11.10
   4  -1  12   38.50    6.50
   4  -1  12   23.20    7.30
   4  -1  12   39.70   11.30
   5  -1  12   -7.60    6.20
   5  -1  12    4.80    6.90
   5  -1  12    2.90    4.10
   5  -1  12    8.40    4.10
   6  -1  12  227.08   13.60
   6  -1  12  238.48   24.50
   6  -1  12  243.98   22.50
   7  -1  12  233.68   14.90
   7  -1  12  229.18   23.20
   7  -1  12  253.17   25.00
   8  -1  12  349.77   28.80
   8  -1  12  343.27   28.10
   9  -1  12   34.30   12.30
   9   0 -12   16.40   10.20
   8   0 -12  233.18   25.40
   8   0 -12  209.88   24.20
   8   0 -12  197.68   18.70
   7   0 -12  101.09   16.40
   7   0 -12   88.79    9.60
   7   0 -12  105.39   15.00
   7   0 -12   98.19   14.30
   6   0 -12   67.29   12.20
   6   0 -12   56.29    8.00
   6   0 -12   67.49   11.30
   6   0 -12   69.69   13.20
   5   0 -12   36.20    8.60
   5   0 -12   59.19   11.00
   5   0 -12   53.89    7.60
   5   0 -12   69.59   12.10
  -5   0  12   53.69    9.90
  -5   0  12   62.99   11.10
   4   0 -12   -5.90    4.00
   4   0 -12    2.70    3.80
   4   0 -12   -0.10    4.70
   4   0 -12    5.50    5.50
  -4   0  12   10.30    6.30
  -4   0  12    0.50    4.90
  -4   0  12   -1.20    7.80
   3   0 -12  296.07   19.40
   3   0 -12  308.87   18.90
   3   0 -12  326.77   16.80
   3   0 -12  281.57   17.00
  -3   0  12  286.87   20.20
  -3   0  12  318.37   30.30
  -3   0  12  295.77   20.60
   2   0 -12  478.95   25.00
   2   0 -12  520.35   23.80
   2   0 -12  481.25   24.90
   2   0 -12  472.75   22.90
  -2   0  12  529.45   27.90
  -2   0  12  448.96   35.40
  -2   0  12  482.65   27.20
   1   0 -12  254.07   14.90
   1   0 -12  234.48   13.90
   1   0 -12  223.18   15.50
   1   0 -12  234.18   13.50
  -1   0  12  248.28   18.20
  -1   0  12  240.58   17.50
  -1   0  12  244.78   27.50
   0   0 -12  321.47   18.00
   0   0 -12  303.87   16.80
   0   0 -12  315.67   14.70
   0   0 -12  293.27   15.50
   0   0  12  333.77   20.20
   0   0  12  268.27   25.90
   0   0  12  307.87   20.50
  -1   0 -12   69.59    8.00
  -1   0 -12   46.60    8.70
  -1   0 -12   64.39    5.00
  -1   0 -12   71.79    7.00
   1   0  12   43.00   12.90
   1   0  12   65.19    7.20
   1   0  12   66.79   10.60
   1   0  12   68.29   12.30
   1   0  12   30.10   11.30
  -2   0 -12  403.26   18.50
  -2   0 -12  413.86   20.40
   2   0  12  393.66   24.00
   2   0  12  387.16   19.60
  -3   0 -12 1231.68   43.80
   3   0  12 1120.09   52.99
   3   0  12 1201.68   45.20
   3   0  12 1161.68   47.50
   3   0  12 1192.08   50.69
  -4   0 -12  334.27   16.30
   4   0  12  356.66   23.10
   4   0  12  294.47   21.10
   4   0  12  350.16   18.00
   4   0  12  336.87   24.10
   4   0  12  324.67   19.50
   5   0  12  602.34   33.80
   5   0  12  598.24   28.60
   5   0  12  568.74   31.00
   5   0  12  606.94   26.40
   5   0  12  644.44   34.80
   6   0  12  105.99    9.70
   6   0  12  103.99   17.30
   6   0  12   98.09   12.80
   6   0  12  135.29   19.30
   6   0  12  123.79   11.70
   7   0  12   12.80   10.60
   7   0  12   15.00    4.10
   7   0  12    3.10    6.70
   7   0  12    9.80   10.60
   7   0  12    8.10    5.10
   8   0  12  187.88   21.70
   8   0  12  198.28   11.30
   8   0  12  175.88   11.90
   8   0  12  173.28   20.50
   9   0  12   88.69   14.00
   9   0  12   70.09   14.90
   9   0  12   95.99   20.10
  10   0  12    9.00   19.90
   8  -1 -12  361.06   24.30
   8  -1 -12  336.37   27.60
   7  -1 -12  776.92   38.50
   7  -1 -12  848.72   43.50
   7  -1 -12  750.12   33.70
   7  -1 -12  794.82   39.10
   6  -1 -12   44.20    9.80
   6  -1 -12   40.80    9.80
   6  -1 -12   36.10    7.30
   6  -1 -12   47.30   11.90
   5  -1 -12  149.09   15.70
   5  -1 -12  139.79   14.60
   5  -1 -12  150.68   12.10
   5  -1 -12  173.68   14.50
  -5   1  12  132.39   19.00
   4  -1 -12    8.80    5.50
   4  -1 -12    1.30    3.60
   4  -1 -12   -6.00    4.00
   4  -1 -12   -1.90    2.80
   4  -1 -12    1.70    5.20
   4  -1 -12   -9.10    3.70
  -4   1  12    7.30    4.10
  -4   1  12    2.20    4.60
  -4   1  12    5.00   11.00
   3  -1 -12   -0.50    3.90
   3  -1 -12   -5.90    4.00
   3  -1 -12    1.20    4.80
   3  -1 -12   -2.50    2.60
   3  -1 -12    1.90    4.70
  -3   1  12    1.70    4.60
  -3   1  12   16.30   10.70
  -3   1  12   17.20    6.70
   2  -1 -12  385.66   19.50
   2  -1 -12  411.56   22.00
   2  -1 -12  386.86   20.00
   2  -1 -12  408.16   21.10
  -2   1  12  382.46   32.10
  -2   1  12  387.56   23.40
  -2   1  12  397.36   22.40
   1  -1 -12   14.20    4.80
   1  -1 -12   17.20    5.40
   1  -1 -12   18.50    5.80
   1  -1 -12    7.60    3.80
  -1   1  12   20.60    7.10
  -1   1  12   12.20    6.00
   0  -1 -12  682.13   29.80
   0  -1 -12  657.53   26.80
   0  -1 -12  654.93   28.20
   0  -1 -12  690.03   27.30
   0   1  12  711.53   32.00
   0   1  12  682.23   31.70
   0   1  12  607.94   38.60
  -1  -1 -12   37.80    7.00
  -1  -1 -12   35.70    5.60
  -1  -1 -12   26.70    5.60
  -1  -1 -12   33.00    4.50
   1   1  12   25.60    7.50
   1   1  12   14.80    9.80
   1   1  12   34.10    7.50
   1   1  12   27.20   10.60
  -2  -1 -12 1014.60   36.80
  -2  -1 -12 1000.60   33.60
  -2  -1 -12 1036.20   39.90
  -2  -1 -12 1030.80   39.70
   2   1  12 1025.30   41.90
   2   1  12 1004.80   48.60
   2   1  12  976.40   42.20
   2   1  12 1034.70   43.50
  -3  -1 -12 1656.63   57.49
  -3  -1 -12 1684.33   54.79
   3   1  12 1517.05   61.69
   3   1  12 1432.46   66.19
   3   1  12 1614.24   58.19
   3   1  12 1590.34   65.79
   3   1  12 1611.54   59.89
  -4  -1 -12  797.32   31.30
   4   1  12  771.02   39.30
   4   1  12  768.72   32.50
   4   1  12  795.42   37.40
   4   1  12  812.52   39.80
   4   1  12  781.22   33.80
   4   1  12  745.33   27.90
  -5  -1 -12   33.90    5.30
   5   1  12   28.50    3.60
   5   1  12   28.10    6.70
   5   1  12   54.09   12.00
   5   1  12   46.70    7.20
   5   1  12   41.60   11.50
   5   1  12   39.00    9.80
   6   1  12   -8.80    5.00
   6   1  12    5.70    7.90
   6   1  12    6.40    4.00
   6   1  12    3.20    4.10
   6   1  12    1.10    6.70
   7   1  12   33.30   12.60
   7   1  12   36.90    6.30
   7   1  12   33.30    7.50
   7   1  12   30.40   10.70
   8   1  12   81.59   16.80
   8   1  12   62.89   15.30
   8   1  12   38.90    7.50
   8   1  12   69.29    7.50
   8   1  12   54.79   13.90
   9   1  12   62.89    6.50
   9   1  12  100.09   18.70
   9   1  12   70.49   16.30
   9   1  12   82.09    7.00
  10   1  12  152.28   24.10
  10   1  12  120.29   22.40
   8  -2 -12  122.89   17.70
   8  -2 -12  117.09   15.70
   8  -2 -12   93.79   19.50
   7  -2 -12  124.59   14.70
   7  -2 -12  114.79   18.00
   7  -2 -12  135.49   17.60
   7  -2 -12  115.89   16.00
   6  -2 -12   94.19   10.70
   6  -2 -12   78.29   12.20
   6  -2 -12   76.69   14.10
   6  -2 -12   83.49   13.40
   5  -2 -12   90.89   10.60
   4  -2 -12   23.30    8.10
   4  -2 -12   15.70    7.10
   4  -2 -12   15.40    5.70
   4  -2 -12   14.30    6.50
   4  -2 -12   24.20    7.40
  -4   2  12   24.70   13.50
  -4   2  12   26.10    6.80
   3  -2 -12  301.87   19.70
   3  -2 -12  290.47   18.90
   3  -2 -12  316.57   18.30
   3  -2 -12  299.27   18.70
   3  -2 -12  285.67   17.20
  -3   2  12  302.47   19.80
  -3   2  12  311.27   28.70
  -3   2  12  273.17   15.30
   2  -2 -12 1064.59   42.70
   2  -2 -12 1029.60   41.00
   2  -2 -12  993.40   40.20
  -2   2  12 1046.10   44.90
  -2   2  12 1000.10   55.19
  -2   2  12 1029.60   40.70
   1  -2 -12  954.00   38.80
   1  -2 -12  922.71   37.00
  -1   2  12  946.11   38.50
  -1   2  12  870.81   50.39
  -1   2  12  952.90   40.60
   0  -2 -12   96.69    9.00
   0  -2 -12   84.19    8.30
   0  -2 -12   96.09    9.70
   0   2  12  102.99   10.10
   0   2  12   87.89   17.30
   0   2  12   99.09   10.80
   0   2  12   51.59   16.20
  -1  -2 -12  152.28    9.60
  -1  -2 -12  159.08   11.70
  -1  -2 -12  136.49   10.40
   1   2  12  103.89   19.90
   1   2  12  125.29   16.20
   1   2  12  149.29   12.10
   1   2  12  147.99   12.30
  -2  -2 -12  634.54   23.70
  -2  -2 -12  653.03   26.60
   2   2  12  541.05   36.70
   2   2  12  604.64   28.50
   2   2  12  582.94   33.60
   2   2  12  630.94   29.00
   2   2  12  594.84   27.10
  -3  -2 -12 1034.60   34.80
  -3  -2 -12 1035.50   38.60
  -3  -2 -12  970.30   38.30
   3   2  12  960.90   39.30
   3   2  12  978.70   49.40
   3   2  12  923.51   44.90
   3   2  12  951.10   34.80
  -4  -2 -12 1184.18   45.20
  -4  -2 -12 1209.08   39.50
   4   2  12 1121.09   50.69
   4   2  12 1143.59   48.40
   4   2  12 1124.59   45.30
   4   2  12 1179.38   53.89
   4   2  12 1102.19   38.70
   4   2  12 1106.69   44.80
  -5  -2 -12   20.40    4.80
   5   2  12   19.40    6.30
   5   2  12   22.80    6.70
   5   2  12   18.30    7.90
   5   2  12   20.20    9.10
   5   2  12   20.40    9.70
   6   2  12  129.49   17.80
   6   2  12   91.79   16.00
   6   2  12  122.09   15.50
   6   2  12  110.09   10.10
   6   2  12   97.69   10.40
   7   2  12   36.70   11.30
   7   2  12   52.89    8.80
   7   2  12   27.80   11.30
   7   2  12   47.40   12.40
   7   2  12   40.40    7.90
   8   2  12   30.70   12.10
   8   2  12   10.90   10.10
   8   2  12   31.40    7.20
   8   2  12   30.30   12.40
   9   2  12  404.26   20.50
   9   2  12  386.96   29.70
   9   2  12  406.46   31.50
   9   2  12  416.66   31.30
  10   2  12  -12.50   20.20
  10   2  12    7.10    3.30
   7  -3 -12  123.99   14.30
   7  -3 -12   76.39   17.70
   7  -3 -12   76.89   16.10
   7  -3 -12   88.09   12.80
   6  -3 -12   59.79   10.00
   6  -3 -12   92.09   13.00
   6  -3 -12   64.59   13.50
   6  -3 -12   84.79   13.90
   5  -3 -12    8.20    7.40
   5  -3 -12   -7.20    5.80
   5  -3 -12    3.00    5.90
   5  -3 -12   -3.20    4.00
   4  -3 -12    3.60    5.60
   4  -3 -12   -0.30    4.90
   4  -3 -12    4.10    4.20
  -4   3  12   -0.50    8.00
   3  -3 -12   65.99   10.60
   3  -3 -12   74.39   11.00
   3  -3 -12   64.99    9.30
   3  -3 -12   66.89    9.80
  -3   3  12   68.29   17.20
  -3   3  12   44.00    9.20
   2  -3 -12   70.39    9.50
   2  -3 -12   81.39    9.20
   2  -3 -12   87.69   11.90
   2  -3 -12   77.89   10.50
  -2   3  12   97.29   10.60
  -2   3  12   88.19    6.50
  -2   3  12  100.69   19.90
   1  -3 -12  517.85   24.80
   1  -3 -12  559.94   25.20
  -1   3  12  461.95   33.80
  -1   3  12  535.05   23.70
  -1   3  12  542.95   27.50
   0  -3 -12 1328.37   47.40
   0  -3 -12 1274.07   48.30
   0  -3 -12 1285.27   49.50
   0   3  12 1216.38   59.29
   0   3  12 1284.07   48.00
   0   3  12 1262.57   50.99
  -1  -3 -12   53.89    8.20
  -1  -3 -12   63.39    6.30
  -1  -3 -12   49.60    9.10
   1   3  12   54.99    8.80
   1   3  12   55.99    9.40
   1   3  12   76.09   15.20
   1   3  12   19.60   12.20
  -2  -3 -12   12.80    5.30
  -2  -3 -12   18.30    4.00
  -2  -3 -12   16.60    4.80
   2   3  12   20.90    6.70
   2   3  12   13.80   10.20
   2   3  12   22.30   10.50
   2   3  12    8.30    4.90
  -3  -3 -12   35.60    6.70
  -3  -3 -12   49.40    4.60
  -3  -3 -12   33.60    6.00
   3   3  12   45.00    8.60
   3   3  12   33.70    6.60
   3   3  12   38.60   13.30
   3   3  12   48.30   11.40
   3   3  12   39.70    8.70
  -4  -3 -12    4.10    2.00
  -4  -3 -12    5.80    3.60
  -4  -3 -12    4.10    3.80
  -4  -3 -12    6.40    2.20
   4   3  12    4.60    3.50
   4   3  12   -0.80    8.60
   4   3  12    3.20    5.90
   4   3  12   -2.70    3.90
   4   3  12    4.10    6.00
  -5  -3 -12   32.30    3.10
  -5  -3 -12   32.10    6.00
  -5  -3 -12   31.00    6.00
   5   3  12   39.10    7.50
   5   3  12   37.40   10.00
   5   3  12   34.90   10.50
   5   3  12   41.00   12.00
   5   3  12   56.49    8.40
  -6  -3 -12   11.80    3.90
   6   3  12   18.30    9.50
   6   3  12   21.20    6.80
   6   3  12   22.10    9.60
   6   3  12   18.90    9.40
   7   3  12   51.69    9.20
   7   3  12   56.29   13.20
   7   3  12   44.80    8.40
   7   3  12   49.30   13.30
   7   3  12   48.00   12.60
   8   3  12  436.86   23.40
   8   3  12  467.95   32.90
   8   3  12  427.86   30.00
   8   3  12  454.55   32.30
   9   3  12   96.09   10.60
   9   3  12  135.89   22.00
   9   3  12   80.19   16.90
   9   3  12  117.69   21.10
  10   3  12  429.46   34.40
  10   3  12  386.66   20.30
  11   3  12   75.79    5.80
   7  -4 -12   51.29   11.90
   6  -4 -12  212.68   21.20
   6  -4 -12  216.28   19.00
   6  -4 -12  231.78   18.60
   6  -4 -12  200.88   17.50
   5  -4 -12   81.79   15.50
   5  -4 -12   93.79   14.30
   5  -4 -12  106.89   14.10
   5  -4 -12   62.89   11.00
   4  -4 -12   33.90    9.30
   4  -4 -12   27.80    8.30
   4  -4 -12   16.30    5.90
   3  -4 -12   84.79   12.30
   3  -4 -12   77.19   11.90
   3  -4 -12   87.99   11.60
  -3   4  12  119.39   21.20
  -3   4  12  100.29   13.40
   2  -4 -12  372.86   21.30
   2  -4 -12  337.87   21.50
   2  -4 -12  382.16   21.80
   2  -4 -12  405.16   21.90
  -2   4  12  354.76   21.60
   1  -4 -12  767.02   33.40
   1  -4 -12  755.62   34.40
   1  -4 -12  787.22   34.50
  -1   4  12  782.32   35.70
  -1   4  12  774.02   29.20
  -1   4  12  784.02   29.40
  -1   4  12  757.62   44.20
   0  -4 -12  348.97   20.80
   0  -4 -12  328.77   18.80
   0  -4 -12  365.46   18.50
   0   4  12  349.87   26.60
   0   4  12  245.38   29.70
   0   4  12  341.27   17.00
   0   4  12  348.77   20.40
  -1  -4 -12  697.33   29.40
  -1  -4 -12  680.53   27.50
  -1  -4 -12  644.44   29.70
   1   4  12  647.24   27.90
   1   4  12  624.74   30.50
   1   4  12  618.94   35.70
  -2  -4 -12  573.64   26.90
  -2  -4 -12  637.84   26.30
  -2  -4 -12  574.94   23.30
   2   4  12  587.94   26.70
   2   4  12  600.64   28.30
   2   4  12  438.56   36.70
  -3  -4 -12   12.90    3.30
  -3  -4 -12   16.00    5.80
  -3  -4 -12    6.10    4.70
   3   4  12   21.10    8.80
   3   4  12    4.60    9.90
  -4  -4 -12   72.49    9.80
  -4  -4 -12   59.69    4.50
  -4  -4 -12   63.79    7.40
   4   4  12   87.99   14.40
   4   4  12   64.89   10.00
   4   4  12   70.29   16.60
   4   4  12   59.59   10.20
  -5  -4 -12  354.76   17.70
  -5  -4 -12  309.77   15.70
  -5  -4 -12  320.97   17.80
   5   4  12  344.37   20.50
   5   4  12  348.47   20.60
   5   4  12  331.47   27.00
   5   4  12  370.36   24.60
  -6  -4 -12  150.58    9.40
  -6  -4 -12  168.38   11.80
  -6  -4 -12  160.28   11.40
   6   4  12  175.78   14.40
   6   4  12  167.98   14.30
   6   4  12  201.18   20.90
   6   4  12  166.48   17.70
   7   4  12    8.60    6.10
   7   4  12    3.20    9.10
   7   4  12    2.50    7.70
   8   4  12   10.60    9.70
   8   4  12   12.00   10.30
   9   4  12   64.49   15.10
   9   4  12   67.89   16.50
   9   4  12   68.49   10.60
   9   4  12   56.89   16.10
  10   4  12  -16.90    8.20
  10   4  12    0.40    5.50
  10   4  12   -2.80   10.80
  11   4  12   12.80   14.50
   6  -5 -12   -3.50    6.60
   6  -5 -12    6.90    6.70
   6  -5 -12    7.80    8.50
   6  -5 -12  -13.10    6.50
   5  -5 -12   73.19   11.90
   5  -5 -12   77.29   12.80
   5  -5 -12   64.09   12.30
   4  -5 -12   14.90    7.40
   4  -5 -12    6.40    7.00
   4  -5 -12    9.50    7.30
   3  -5 -12   30.00    8.60
   3  -5 -12   29.20    8.20
   3  -5 -12   28.90   10.20
  -3   5  12   35.90   12.40
   2  -5 -12  131.39   13.30
   2  -5 -12  132.99   13.40
   2  -5 -12  124.69   13.10
  -2   5  12  148.69   18.40
  -2   5  12  132.19   13.40
   1  -5 -12  111.79   11.50
   1  -5 -12   97.29   11.40
   1  -5 -12  109.19   11.70
  -1   5  12  106.79   19.20
  -1   5  12  103.39   26.60
   0  -5 -12  595.14   28.20
   0  -5 -12  583.24   26.60
   0  -5 -12  582.84   27.70
   0   5  12  525.75   22.70
   0   5  12  504.75   33.80
   0   5  12  558.14   28.30
   0   5  12  547.55   24.10
   0   5  12  439.56   41.20
  -1  -5 -12  199.88   17.10
  -1  -5 -12  211.78   14.50
   1   5  12  187.78   15.20
   1   5  12  175.28   17.80
   1   5  12  193.98   12.40
   1   5  12  175.38   30.60
  -2  -5 -12  295.77   15.80
  -2  -5 -12  330.37   19.40
  -2  -5 -12  324.57   17.90
   2   5  12  340.87   23.70
   2   5  12  250.57   27.90
  -3  -5 -12   46.70    5.80
  -3  -5 -12   44.40    7.40
  -3  -5 -12   51.09    9.00
   3   5  12   33.10   14.10
   3   5  12   60.89   11.90
   3   5  12   54.29   11.90
  -4  -5 -12    7.00    2.70
  -4  -5 -12    7.60    3.90
  -4  -5 -12    4.80    4.60
   4   5  12    7.30   10.30
   4   5  12    1.10    5.20
   4   5  12    5.70    7.50
  -5  -5 -12  158.28   12.70
  -5  -5 -12  175.08   12.10
   5   5  12  201.98   22.60
   5   5  12  190.08   17.70
   5   5  12  198.48   15.90
  -6  -5 -12   15.10    5.10
  -6  -5 -12    9.20    4.50
   6   5  12   -0.50    7.00
   6   5  12   18.60    6.80
   6   5  12   13.90    6.70
   6   5  12   11.60   10.70
   7   5  12    6.10    6.50
   7   5  12   18.30   10.00
   7   5  12   13.70   10.60
   8   5  12   -3.10    7.80
   8   5  12    4.90    6.30
   9   5  12   56.49   16.90
   9   5  12   52.39   16.60
   9   5  12   39.00    9.50
  10   5  12  174.58   24.80
  11   5  12   24.90   17.10
   5  -6 -12   10.60    8.40
   5  -6 -12   23.50    8.40
   4  -6 -12   47.20   10.70
   4  -6 -12   46.30   10.70
   4  -6 -12   41.40   10.80
   3  -6 -12  117.09   16.40
   3  -6 -12  130.89   14.90
   3  -6 -12  142.19   15.10
   2  -6 -12   22.80    7.60
   2  -6 -12   15.40    6.60
   2  -6 -12   26.70    8.20
  -2   6  12   35.40   10.50
   1  -6 -12  101.99   12.00
   1  -6 -12  148.09   13.40
   1  -6 -12  119.99   13.00
  -1   6  12  115.79   12.70
  -1   6  12  115.29   19.10
  -1   6  12  102.89   28.20
   0  -6 -12    5.50    4.80
   0  -6 -12   17.20    6.90
   0  -6 -12    4.80    4.60
   0   6  12    5.50    5.60
   0   6  12   -3.70    9.20
   0   6  12   11.00    7.40
  -1  -6 -12    5.80    4.10
  -1  -6 -12   -0.60    4.50
  -1  -6 -12    5.30    5.10
   1   6  12    2.40    4.00
   1   6  12   -3.00    6.70
   1   6  12    7.20    6.20
   1   6  12  -11.70   10.40
  -2  -6 -12  191.78   14.90
  -2  -6 -12  198.78   14.50
  -2  -6 -12  198.88   16.00
   2   6  12  200.28   18.70
   2   6  12  200.18   16.40
   2   6  12  160.98   29.50
  -3  -6 -12   11.00    5.60
  -3  -6 -12   -1.80    3.00
  -3  -6 -12    3.80    4.00
   3   6  12    4.40    6.70
   3   6  12    3.80   10.80
   3   6  12   10.40    7.20
  -4  -6 -12  769.82   29.10
  -4  -6 -12  781.82   32.90
  -4  -6 -12  775.82   35.60
   4   6  12  771.12   39.10
   4   6  12  765.82   48.80
   4   6  12  803.12   37.40
  -5  -6 -12  117.39    6.30
  -5  -6 -12  102.89   11.40
  -5  -6 -12  114.09    9.90
  -5  -6 -12   96.49    5.60
   5   6  12  119.09   14.70
   5   6  12  104.39   22.00
   5   6  12  106.49   14.40
  -6  -6 -12  598.54   29.20
  -6  -6 -12  585.74   26.10
   6   6  12  607.94   35.40
   6   6  12  635.44   42.20
   6   6  12  600.64   31.90
   7   6  12   91.29   18.70
   7   6  12  111.79   23.30
   8   6  12   18.80   10.80
   8   6  12   14.00    8.10
   8   6  12   11.10   12.50
   9   6  12   63.79   17.30
   9   6  12   57.99   18.90
   9   6  12   47.30   10.50
  10   6  12  184.58   19.00
  10   6  12  148.49   28.00
  10   6  12  182.58   23.60
   4  -7 -12   15.60    9.20
   4  -7 -12   35.30   10.20
   4  -7 -12   28.40    9.60
   3  -7 -12   -6.10    5.70
   3  -7 -12   12.90    7.10
   3  -7 -12   -6.40    5.80
   2  -7 -12   67.49   12.60
   2  -7 -12   71.19   13.40
   2  -7 -12   81.89   13.80
   1  -7 -12    6.80    5.80
   1  -7 -12    2.10    6.00
   1  -7 -12   -7.70    5.10
  -1   7  12   14.50    9.30
   0  -7 -12    4.70    6.40
   0  -7 -12   -3.20    4.60
   0  -7 -12    1.10    5.80
   0   7  12  -12.30   13.70
   0   7  12   -6.10    5.40
   0   7  12   19.40    8.10
   0   7  12   -0.50    4.30
  -1  -7 -12   -0.30    4.70
  -1  -7 -12   -1.50    4.30
  -1  -7 -12   -8.70    4.80
   1   7  12    0.40   10.80
   1   7  12   13.70    9.00
  -2  -7 -12  266.57   19.00
  -2  -7 -12  275.57   16.90
  -2  -7 -12  283.37   18.70
   2   7  12  220.38   19.90
   2   7  12  229.98   30.30
   2   7  12  229.18   18.30
  -3  -7 -12  917.21   37.40
  -3  -7 -12  958.60   40.10
  -3  -7 -12  922.81   42.00
   3   7  12  887.41   58.49
   3   7  12  938.71   44.80
   3   7  12  924.01   42.80
  -4  -7 -12  121.59    9.30
  -4  -7 -12  115.99   12.30
  -4  -7 -12  122.19   11.20
   4   7  12   97.69   23.40
   4   7  12  118.69   13.60
   4   7  12  113.89   17.20
  -5  -7 -12   39.80    7.80
  -5  -7 -12   40.90    7.50
  -5  -7 -12   41.30    5.20
   5   7  12   32.50   15.60
   5   7  12   42.90   11.90
   5   7  12   42.60   10.40
  -6  -7 -12  129.59   12.90
  -6  -7 -12  108.29   10.40
   6   7  12  148.99   30.80
   6   7  12  124.19   18.90
   6   7  12  127.49   16.90
  -7  -7 -12   14.40    4.80
   7   7  12    2.50    8.40
   7   7  12    3.70    7.30
   7   7  12   16.30   13.80
   8   7  12   -0.60    7.00
   8   7  12    1.30   10.30
   8   7  12    8.10   12.20
   9   7  12   39.90   17.20
   9   7  12   24.00    9.80
   9   7  12   33.10   13.90
  10   7  12    4.40   13.40
  10   7  12    8.70    7.70
  10   7  12   15.00   13.40
   3  -8 -12  153.78   17.30
   3  -8 -12  152.88   17.50
   3  -8 -12  169.08   17.20
   2  -8 -12   89.69   14.80
   2  -8 -12   78.69   14.00
   2  -8 -12   63.09   13.40
   1  -8 -12   15.70    7.80
   1  -8 -12   28.90    9.20
   1  -8 -12   10.20    7.30
   0  -8 -12   -3.50    5.30
   0  -8 -12    0.80    6.00
   0  -8 -12    3.10    6.40
   0   8  12   -2.70   11.60
   0   8  12    6.20    8.80
  -1  -8 -12   10.70    7.10
  -1  -8 -12   -1.60    5.10
  -1  -8 -12   -0.30    4.80
   1   8  12    8.10    8.30
   1   8  12   -2.40   11.20
  -2  -8 -12   12.50    8.10
  -2  -8 -12   10.80    6.30
  -2  -8 -12   14.30   10.00
   2   8  12    3.30    7.00
   2   8  12   20.90    8.70
  -3  -8 -12   -0.90    4.40
  -3  -8 -12    8.40    6.20
  -3  -8 -12    1.00    4.50
   3   8  12   -2.80    6.80
   3   8  12   -7.50   11.80
   3   8  12   -1.30    7.50
  -4  -8 -12   58.89    9.60
  -4  -8 -12  100.99   14.30
  -4  -8 -12   66.59    9.20
   4   8  12   79.19   14.40
   4   8  12   69.99   14.10
  -5  -8 -12  356.06   20.60
  -5  -8 -12  348.57   17.10
   5   8  12  355.46   36.00
   5   8  12  334.07   25.10
   5   8  12  345.47   24.80
  -6  -8 -12   42.50    7.50
  -6  -8 -12   57.19   10.00
   6   8  12   40.30   19.40
   6   8  12   50.99   13.40
   6   8  12   55.49   12.50
  -7  -8 -12    0.40    4.80
   7   8  12    8.00    9.60
   7   8  12   -9.70    6.70
   7   8  12   -2.20   14.20
   8   8  12   18.90    8.30
   8   8  12   16.80   16.10
   8   8  12    3.80    9.80
   9   8  12    3.90   14.70
   9   8  12    0.10    7.60
   9   8  12   11.40   10.80
  10   8  12   14.60   13.70
  10   8  12  -14.90   13.90
  10   8  12   -8.70    7.10
   2  -9 -12   -5.20   12.60
   1  -9 -12    4.30    6.30
   0  -9 -12   12.80    7.90
   0  -9 -12   27.70    9.50
   0  -9 -12   26.20    9.70
   0   9  12   41.60   17.40
  -1  -9 -12    1.80    5.10
  -1  -9 -12    4.70    6.80
  -1  -9 -12   -7.40    5.10
   1   9  12   29.90   16.60
  -2  -9 -12   10.70    8.00
  -2  -9 -12   16.90    7.60
  -2  -9 -12    7.90    6.60
   2   9  12   19.80   13.20
   2   9  12   43.10   10.80
  -3  -9 -12  327.67   22.20
  -3  -9 -12  306.97   20.40
  -3  -9 -12  308.27   23.50
   3   9  12  284.97   23.30
   3   9  12  283.87   35.70
   3   9  12  309.57   24.20
  -4  -9 -12  258.87   21.10
  -4  -9 -12  244.88   16.70
  -4  -9 -12  211.48   17.30
   4   9  12  213.38   21.00
   4   9  12  215.98   20.40
   4   9  12  197.68   35.20
  -5  -9 -12    4.00    5.10
  -5  -9 -12    9.60    6.50
  -5  -9 -12   17.80    8.20
   5   9  12   11.90   14.30
   5   9  12    5.50    9.10
   5   9  12   11.00   10.40
  -6  -9 -12  104.69   11.90
  -6  -9 -12  148.49   14.90
   6   9  12  102.59   17.60
   6   9  12  103.49   17.10
   6   9  12  126.09   28.30
  -7  -9 -12   22.20    7.00
   7   9  12   43.90   14.20
   7   9  12   38.00   12.60
   7   9  12   59.99   21.10
   8   9  12  -16.30   12.80
   8   9  12   -0.40   10.90
   8   9  12    6.30    7.90
   9   9  12   25.70   11.70
   9   9  12   14.70   12.70
   9   9  12   42.30   20.10
   0 -10 -12   17.30    9.20
   0 -10 -12   47.70   11.60
   0 -10 -12   16.30    8.70
  -1 -10 -12    4.20    8.00
  -1 -10 -12   22.50    9.70
  -1 -10 -12   15.10    7.80
   1  10  12   54.89   20.10
  -2 -10 -12   -0.50    6.50
  -2 -10 -12    3.70    6.40
  -2 -10 -12    8.10    7.70
   2  10  12   13.10   12.20
  -3 -10 -12    3.80    7.50
  -3 -10 -12   -1.70    6.10
  -3 -10 -12  -13.30    5.70
   3  10  12   41.80   18.40
  -4 -10 -12    8.90    7.60
  -4 -10 -12   17.40    8.60
   4  10  12   18.00   12.90
   4  10  12   -4.80   10.30
   4  10  12   14.60   10.20
  -5 -10 -12    0.50    7.50
  -5 -10 -12  -17.50    5.70
  -5 -10 -12    0.50    6.40
   5  10  12  -12.90   12.90
   5  10  12   14.70   11.50
  -6 -10 -12   22.40    9.60
  -6 -10 -12   -1.70    6.70
   6  10  12    9.60   15.70
   6  10  12    5.40   11.00
   6  10  12   29.80   12.00
   7  10  12    4.30    9.80
   7  10  12   11.70   12.00
   8  10  12   14.40   12.10
   8  10  12   38.80   20.70
   9  10  12   24.50   14.50
   9  10  12   30.20   18.40
  -2 -11 -12   -0.70    9.40
   2  11  12   32.10   17.20
  -3 -11 -12   -5.90    6.20
  -3 -11 -12   -6.90    7.50
   3  11  12   51.49   16.20
  -4 -11 -12  -17.90    7.90
  -4 -11 -12   -0.90   12.00
  -4 -11 -12   33.70   10.90
   4  11  12   55.29   19.10
  -5 -11 -12   70.39   14.10
  -5 -11 -12   56.19   11.70
   5  11  12   66.39   17.90
   5  11  12   81.59   22.90
  -6 -11 -12   94.29   13.60
   6  11  12   89.69   26.80
   6  11  12   86.79   20.60
   6  11  12   87.79   19.50
   7  11  12   10.60   14.70
   8  11  12  -16.20   13.50
   8  11  12   -8.50   12.10
  -5 -12 -12   10.90   17.00
  -5  -9  13   59.29   18.40
  -4  -9  13   -1.50   14.80
  -4  -9  13   10.90   13.70
   7   8 -13   31.30   14.40
   6   8 -13  237.98   25.40
   5   8 -13   85.29   15.00
  -5  -8  13   87.99   20.20
  -5  -8  13   84.69   24.50
  -4  -8  13  -18.60    9.40
  -4  -8  13   17.10   10.90
  -3  -8  13   26.90   14.20
  -3  -8  13    0.40   11.60
  -2  -8  13   82.69   22.30
  -1  -8  13   11.20   10.60
  -1  -8  13   17.60   13.90
   0  -8  13  -26.30   11.60
   0  -8  13   25.20   17.80
   8   7 -13   19.00   17.90
   7   7 -13  202.58   19.90
   7   7 -13  135.39   25.10
  -7  -7  13  184.18   31.30
   6   7 -13   16.30   11.80
   6   7 -13   17.90   14.60
   6   7 -13   36.10   10.80
  -6  -7  13   59.09   23.20
   5   7 -13  245.68   24.70
   5   7 -13  255.67   22.50
   5   7 -13  260.07   25.60
  -5  -7  13  285.27   30.30
  -5  -7  13  245.08   27.70
   4   7 -13    5.30    8.10
   4   7 -13   15.10   10.50
  -4  -7  13   28.70   15.40
  -4  -7  13   13.60   11.30
   3   7 -13    5.80   11.00
   3   7 -13   16.20    8.40
  -3  -7  13   18.80   12.60
  -3  -7  13   23.20   13.30
  -2  -7  13   49.10   14.80
  -2  -7  13   91.69   22.90
  -1  -7  13  306.97   27.40
  -1  -7  13  296.67   31.30
   0  -7  13  763.42   45.70
   0  -7  13  783.02   53.19
   1  -7  13    1.80    8.20
   2  -7  13   33.80   11.20
   2  -7  13    2.00   13.20
   8   6 -13   11.20   11.80
   8   6 -13   28.80   13.10
   8   6 -13   10.50    7.10
  -8  -6  13    7.20   14.10
   7   6 -13   65.09   19.20
   7   6 -13   49.30   14.10
  -7  -6  13   44.20   17.70
   6   6 -13  132.69   24.50
   6   6 -13  139.89   15.70
   6   6 -13  110.19   19.80
  -6  -6  13  129.59   24.10
  -6  -6  13  149.19   25.70
   5   6 -13  244.18   23.90
   5   6 -13  208.48   22.70
   5   6 -13  238.28   20.20
  -5  -6  13  241.38   28.40
  -5  -6  13  236.18   25.80
   4   6 -13  159.98   18.50
   4   6 -13  138.89   20.40
   4   6 -13  141.79   16.40
  -4  -6  13  168.38   28.70
  -4  -6  13  180.98   26.10
   3   6 -13    1.00    6.60
   3   6 -13   -6.80    6.20
   3   6 -13   -6.00    8.00
  -3  -6  13    9.90   12.30
  -3  -6  13    7.20    9.70
   2   6 -13   56.29   12.30
   2   6 -13   32.20   10.80
  -2  -6  13   59.39   17.80
  -2  -6  13   42.90   17.90
  -1  -6  13   14.50    8.80
  -1  -6  13   16.90   13.20
   0  -6  13  186.78   23.30
   0  -6  13  199.38   30.30
   0  -6  13  169.78   23.90
   1  -6  13  170.88   20.80
   1  -6  13  208.38   31.30
   1  -6  13  186.48   20.60
   2  -6  13   16.90   12.20
   2  -6  13   20.30    9.00
   3  -6  13    2.70   10.50
   3  -6  13   14.20    8.20
   4  -6  13  125.19   24.60
   8   5 -13   11.00    9.50
   8   5 -13   10.20    8.60
   8   5 -13   -0.60    6.30
   8   5 -13   19.00   15.60
  -8  -5  13    8.80   12.80
   7   5 -13   -4.70    7.40
   7   5 -13    7.80   12.20
   7   5 -13   -3.20    6.90
  -7  -5  13   15.40   12.90
   6   5 -13  131.89   20.80
   6   5 -13  131.19   15.10
   6   5 -13  154.88   22.40
  -6  -5  13  149.59   26.10
  -6  -5  13  151.78   22.40
   5   5 -13   19.10    8.10
   5   5 -13   20.70   10.60
   5   5 -13    5.10    8.60
  -5  -5  13  -13.90    8.30
  -5  -5  13   13.20    9.70
   4   5 -13   87.79   16.40
   4   5 -13   93.09   17.50
   4   5 -13   98.39   15.00
  -4  -5  13   94.99   22.20
  -4  -5  13  106.09   18.50
   3   5 -13   62.59   12.40
   3   5 -13   62.19   13.20
   3   5 -13   59.29   12.20
  -3  -5  13   83.19   19.40
  -3  -5  13   76.29   16.40
   2   5 -13   67.79    9.80
   2   5 -13   88.29   14.10
  -2  -5  13   83.29   17.80
  -2  -5  13  112.69   24.70
   1   5 -13    9.70    7.30
  -1  -5  13   16.10   12.90
  -1  -5  13    5.80    8.10
   0   5 -13  112.49   15.50
   0  -5  13  113.09   20.90
   0  -5  13  141.09   25.60
   0  -5  13  147.19   27.10
   1  -5  13    8.60    9.90
   1  -5  13   25.30   11.60
   1  -5  13   19.80    9.60
   2  -5  13  451.95   32.90
   2  -5  13  467.95   31.50
   2  -5  13  444.46   36.40
   3  -5  13   47.70   11.00
   3  -5  13   -3.50    9.60
   3  -5  13   19.90    8.60
   4  -5  13   65.69   13.00
   4  -5  13   45.80   15.30
   5  -5  13   30.00    7.90
   9   4 -13  133.59   26.10
   8   4 -13   41.70   10.50
   8   4 -13   50.89   28.30
   8   4 -13   33.20   11.10
  -8  -4  13   32.60   14.90
   7   4 -13   14.40    8.40
   7   4 -13   29.60   10.40
   7   4 -13   14.90    8.90
   7   4 -13   22.00   13.70
  -7  -4  13    6.70   12.50
   6   4 -13   51.49   11.60
   6   4 -13   67.59   17.60
   6   4 -13   79.69   13.40
   6   4 -13   87.29   15.90
  -6  -4  13   83.69   14.80
  -6  -4  13   86.49   19.50
   5   4 -13  452.55   34.50
   5   4 -13  457.45   30.40
   5   4 -13  464.25   27.10
   5   4 -13  496.45   28.40
  -5  -4  13  501.85   33.70
  -5  -4  13  499.45   36.00
   4   4 -13 1066.59   46.00
   4   4 -13 1113.29   51.49
   4   4 -13 1088.29   47.00
  -4  -4  13 1065.89   53.79
  -4  -4  13 1050.49   57.09
   3   4 -13  491.35   29.90
   3   4 -13  464.35   26.90
  -3  -4  13  521.65   43.30
  -3  -4  13  544.35   33.20
  -3  -4  13  487.15   35.90
   2   4 -13   82.89   13.40
   2   4 -13   83.79   14.20
   2   4 -13   76.89   12.60
  -2  -4  13   98.09   24.30
  -2  -4  13   87.79   15.80
  -2  -4  13   65.69   17.80
   1   4 -13   21.30    7.50
   1   4 -13   26.80    8.20
   1   4 -13   18.70    6.00
  -1  -4  13   23.10   10.10
  -1  -4  13   21.40   11.60
  -1  -4  13   19.30   12.60
   0   4 -13  131.59   13.80
   0  -4  13  169.98   24.90
   0  -4  13  161.58   17.90
   0  -4  13  175.58   22.00
  -1   4 -13   -9.40    5.80
   1  -4  13    5.00    6.90
   1  -4  13    1.80    8.50
   1  -4  13    5.90    9.30
   2  -4  13    2.50    8.80
   2  -4  13    7.70    8.90
   3  -4  13   25.00    9.80
   3  -4  13   11.90    7.60
   3  -4  13   13.30    9.70
   4  -4  13  114.59   22.80
   4  -4  13  156.28   16.30
   4  -4  13  167.78   19.20
   5  -4  13  118.39   20.00
   5  -4  13  127.49   14.30
   6  -4  13  196.38   15.00
   9   3 -13   73.79   14.80
   8   3 -13  143.89   23.50
   8   3 -13  118.79   17.20
   8   3 -13  172.98   32.20
   7   3 -13   59.79   13.80
   7   3 -13   23.90    9.50
   7   3 -13   45.10   11.00
  -7  -3  13   67.19   15.40
   6   3 -13    9.10    7.70
   6   3 -13   13.20    7.60
   6   3 -13   15.90    9.00
  -6  -3  13   25.90   11.50
  -6  -3  13    2.40   16.50
   5   3 -13    2.80    7.10
   5   3 -13    6.40    6.10
  -5  -3  13   18.80    8.20
  -5  -3  13    3.40   10.20
   4   3 -13  347.57   24.10
   4   3 -13  345.47   21.70
   4   3 -13  314.07   20.60
  -4  -3  13  319.47   34.80
  -4  -3  13  362.06   29.10
  -4  -3  13  325.67   25.60
   3   3 -13  418.66   22.70
   3   3 -13  426.66   26.30
   3   3 -13  413.36   23.10
  -3  -3  13  343.67   35.10
  -3  -3  13  378.96   29.80
  -3  -3  13  435.86   28.40
   2   3 -13   72.19   11.00
   2   3 -13   75.89   12.70
  -2  -3  13   94.09   23.20
  -2  -3  13   77.99   14.70
  -2  -3  13   69.49   16.80
   1   3 -13  108.89   12.00
   1   3 -13  101.69   11.20
  -1  -3  13   95.69   20.80
  -1  -3  13  132.09   21.40
  -1  -3  13  109.99   16.00
   0   3 -13  463.75   24.00
   0   3 -13  432.56   24.30
   0   3 -13  447.76   25.20
   0  -3  13  463.25   36.00
   0  -3  13  473.15   28.90
   0  -3  13  495.25   33.20
  -1   3 -13  254.67   17.50
  -1   3 -13  234.18   17.00
   1  -3  13  224.98   19.30
   1  -3  13  222.88   15.70
   1  -3  13  247.58   26.00
   1  -3  13  283.67   24.80
   2  -3  13  801.52   40.60
   2  -3  13  812.72   47.40
   2  -3  13  858.31   47.20
   3  -3  13  127.19   14.60
   3  -3  13  167.38   20.30
   3  -3  13  159.18   24.00
   4  -3  13   12.40    7.60
   4  -3  13   20.80    8.80
   4  -3  13   -8.10    9.80
   5  -3  13   54.19   10.80
   5  -3  13   76.99   16.10
   5  -3  13   78.29   18.00
   6  -3  13   34.10   11.90
   6  -3  13   23.00    6.90
   9   2 -13   14.40    8.80
   8   2 -13   11.20   14.80
   8   2 -13  -13.40   11.00
   8   2 -13   -9.60    6.30
   7   2 -13   -3.80    6.50
   7   2 -13   12.90    7.20
   7   2 -13   -5.40    6.50
  -7  -2  13   12.80   10.70
   6   2 -13   48.20   12.00
   6   2 -13   37.10    9.60
   6   2 -13   53.59   13.00
  -6  -2  13   41.40   12.80
   5   2 -13   -5.70    4.70
   5   2 -13    5.40    6.70
   5   2 -13    6.40    6.80
  -5  -2  13    4.70    8.70
  -5  -2  13    4.80    7.10
   4   2 -13   84.49   11.80
   4   2 -13   73.49   10.90
   4   2 -13   87.49   13.80
  -4  -2  13   92.19   16.20
  -4  -2  13  125.49   17.60
  -4  -2  13  113.29   25.80
   3   2 -13    5.50    5.50
   3   2 -13   17.30    7.50
   3   2 -13   10.00    5.60
  -3  -2  13   15.90    9.00
  -3  -2  13   16.40   13.20
  -3  -2  13   13.40    7.30
   2   2 -13   13.50    7.40
   2   2 -13    0.80    4.00
   2   2 -13   12.90    6.00
  -2  -2  13   12.70    8.40
  -2  -2  13    4.70    7.20
  -2  -2  13   13.80   12.30
   1   2 -13   21.70    6.50
   1   2 -13   18.10    5.10
   1   2 -13   14.30    6.70
  -1  -2  13   17.00   11.70
  -1  -2  13   21.10   11.00
  -1  -2  13   17.10    9.10
   0   2 -13  360.76   19.80
   0   2 -13  347.77   21.20
   0  -2  13  390.16   24.70
   0  -2  13  343.17   30.80
   0  -2  13  337.97   26.20
  -1   2 -13  272.17   17.10
  -1   2 -13  291.17   18.10
   1  -2  13  301.77   27.20
   1  -2  13  266.97   17.10
   1  -2  13  292.17   23.50
   1  -2  13  299.27   21.40
  -2   2 -13  862.01   38.40
  -2   2 -13  826.82   29.20
  -2   2 -13  878.71   36.80
   2  -2  13  849.12   44.50
   2  -2  13  811.42   35.50
   2  -2  13  829.62   47.70
   2  -2  13  821.32   39.90
  -3   2 -13  306.07   17.30
   3  -2  13  292.07   25.90
   3  -2  13  332.37   22.00
   3  -2  13  299.77   25.00
   3  -2  13  298.97   18.00
   4  -2  13    9.70    9.10
   4  -2  13   12.10    5.30
   4  -2  13   11.90    6.90
   4  -2  13   23.20    9.60
   5  -2  13   65.99   15.40
   5  -2  13   57.29   10.80
   5  -2  13   54.59   14.70
   6  -2  13   14.80   10.10
   6  -2  13   -1.00    5.00
   6  -2  13   -0.60    8.60
   7  -2  13   16.50    5.50
   7  -2  13   32.80   12.60
   7  -2  13   28.50   13.90
   8  -2  13   24.10   13.50
   8   1 -13  198.68   18.70
   7   1 -13  118.39   17.50
   7   1 -13  115.09   17.50
   7   1 -13  121.09   10.60
   7   1 -13  130.09   14.50
   6   1 -13   76.99   12.10
   6   1 -13   86.39    9.20
   6   1 -13   88.19   14.20
   6   1 -13   91.69   15.50
  -6  -1  13  102.39   14.60
   5   1 -13   30.00    8.90
   5   1 -13   23.00    5.90
   5   1 -13   33.10    8.60
   5   1 -13   28.20    9.40
  -5  -1  13   24.00    9.40
  -5  -1  13   33.40    9.10
   4   1 -13  101.79   14.70
   4   1 -13   86.99    9.20
   4   1 -13   93.99   12.50
   4   1 -13   91.19   11.80
  -4  -1  13  112.29   15.80
  -4  -1  13   95.89   23.80
  -4  -1  13   80.49   14.80
   3   1 -13   66.69   11.30
   3   1 -13   60.49    9.50
   3   1 -13   64.69    8.60
   3   1 -13   73.99   10.20
  -3  -1  13   77.29   18.80
  -3  -1  13   78.69   13.70
  -3  -1  13   64.39   14.00
   2   1 -13  369.46   19.70
   2   1 -13  382.96   22.90
   2   1 -13  357.66   19.80
   2   1 -13  398.06   20.60
  -2  -1  13  406.86   26.90
  -2  -1  13  391.76   25.40
  -2  -1  13  316.77   31.40
   1   1 -13  771.62   34.90
   1   1 -13  741.73   32.80
   1   1 -13  741.33   31.80
   1   1 -13  750.42   30.50
  -1  -1  13  747.53   39.00
  -1  -1  13  801.72   38.20
  -1  -1  13  720.03   46.80
   0   1 -13   34.60    7.20
   0   1 -13   32.80    5.00
   0   1 -13   28.20    7.20
   0  -1  13   30.10   13.20
   0  -1  13   24.80   10.00
   0  -1  13   25.00    9.00
  -1   1 -13  268.07   16.60
  -1   1 -13  263.37   15.50
   1  -1  13  256.67   21.00
   1  -1  13  230.08   15.00
   1  -1  13  278.87   19.30
   1  -1  13  211.28   23.10
  -2   1 -13  886.61   36.40
  -2   1 -13  837.12   34.50
  -2   1 -13  831.22   34.90
   2  -1  13  874.71   43.10
   2  -1  13  854.21   39.50
   2  -1  13  829.82   35.50
   2  -1  13  850.11   46.80
  -3   1 -13   82.89    8.80
  -3   1 -13   81.49    9.00
   3  -1  13   87.89   15.50
   3  -1  13   61.89   10.70
   3  -1  13   72.69    8.60
   3  -1  13   61.69   15.40
  -4   1 -13   43.20    6.00
   4  -1  13   48.00    7.40
   4  -1  13   81.89   15.60
   4  -1  13   58.49   14.30
   4  -1  13   66.59    9.70
   4  -1  13   39.30    9.00
   5  -1  13   19.60   10.50
   5  -1  13   56.39   10.10
   5  -1  13   55.49   14.00
   5  -1  13   32.50    6.40
   6  -1  13  160.48   23.30
   6  -1  13  163.58   20.00
   6  -1  13  159.88   14.30
   7  -1  13    6.60    4.90
   7  -1  13   -4.30    9.50
   8  -1  13   19.80    4.20
   8  -1  13    9.30   10.90
   8  -1  13   -6.80   11.50
   9  -1  13  181.88   34.30
   8   0 -13   66.99   15.10
   8   0 -13   87.49   14.80
   7   0 -13  163.88   13.30
   7   0 -13  185.58   18.20
   7   0 -13  175.98   17.40
   7   0 -13  195.18   20.80
   6   0 -13   63.99   11.30
   6   0 -13   67.49    9.20
   6   0 -13   94.79   15.20
   6   0 -13   73.89   13.40
   5   0 -13   26.20    7.80
   5   0 -13    7.50    6.40
   5   0 -13   -1.70    3.60
   5   0 -13    2.40    5.60
  -5   0  13  -16.60    6.20
  -5   0  13    9.50    6.10
   4   0 -13  145.89   11.60
   4   0 -13  121.79   13.30
   4   0 -13  147.39   12.70
   4   0 -13  136.69   14.40
  -4   0  13  160.78   29.50
  -4   0  13  126.79   13.30
   3   0 -13   86.29   10.30
   3   0 -13   81.09    9.00
   3   0 -13   85.59   10.90
   3   0 -13   99.79   13.50
  -3   0  13   95.99   21.40
  -3   0  13  106.59   15.50
  -3   0  13  106.99   15.10
   2   0 -13  356.96   19.10
   2   0 -13  341.07   20.70
   2   0 -13  362.26   19.00
   2   0 -13  322.47   18.10
  -2   0  13  319.37   22.20
  -2   0  13  328.07   30.90
  -2   0  13  340.47   23.00
   1   0 -13  412.96   19.90
   1   0 -13  382.26   19.70
   1   0 -13  397.96   20.40
   1   0 -13  432.86   22.90
  -1   0  13  397.66   25.00
  -1   0  13  415.86   25.10
  -1   0  13  365.26   31.90
   0   0 -13  333.37   19.40
   0   0 -13  318.07   15.40
   0   0 -13  292.67   17.60
   0   0 -13  338.27   16.90
   0   0  13  316.07   21.90
   0   0  13  346.67   29.40
   0   0  13  338.37   21.40
  -1   0 -13  577.14   26.90
  -1   0 -13  629.94   25.20
  -1   0 -13  571.14   27.20
   1   0  13  495.05   35.40
   1   0  13  557.44   32.00
   1   0  13  596.64   31.70
  -2   0 -13  233.88   13.50
  -2   0 -13  219.48   14.70
   2   0  13  258.57   17.70
   2   0  13  234.28   16.50
   2   0  13  195.78   20.70
   2   0  13  270.47   19.90
  -3   0 -13  366.96   17.60
   3   0  13  343.77   18.70
   3   0  13  382.96   27.10
   3   0  13  354.26   23.60
   3   0  13  364.26   21.40
   3   0  13  266.97   22.10
  -4   0 -13   34.00    5.80
   4   0  13   19.00    7.20
   4   0  13   19.90    9.40
   4   0  13   19.90    9.50
   4   0  13   19.50    7.00
   4   0  13   38.60    9.40
   5   0  13   31.00   10.40
   5   0  13   13.00    9.60
   5   0  13   14.40    7.10
   5   0  13   15.60    6.60
   5   0  13   26.00    5.40
   6   0  13   11.40    7.20
   6   0  13   10.60    5.20
   6   0  13   10.80   11.00
   6   0  13    9.80    9.70
   6   0  13    7.00    5.80
   7   0  13   21.00   12.40
   7   0  13   10.00    5.30
   7   0  13   -6.90   10.70
   7   0  13   21.40    7.90
   8   0  13   70.39   17.00
   8   0  13   67.29    8.70
   8   0  13   41.70   14.60
   9   0  13   32.50   12.30
   9   0  13   10.40   11.80
   8  -1 -13   10.20    9.20
   8  -1 -13   19.60   10.70
   8  -1 -13    4.30    7.60
   7  -1 -13    4.50    7.00
   7  -1 -13   -1.50    5.30
   7  -1 -13   -8.20    6.00
   7  -1 -13    5.50    8.00
   6  -1 -13    6.60    7.00
   6  -1 -13   10.60    8.10
   6  -1 -13   10.10    8.10
   6  -1 -13   -3.30    4.50
   5  -1 -13   69.79   13.90
   5  -1 -13   61.89   12.30
   5  -1 -13   46.80    8.40
   4  -1 -13  161.68   16.00
   4  -1 -13  175.58   14.30
   4  -1 -13  170.78   13.00
   4  -1 -13  176.38   15.80
  -4   1  13  192.38   16.50
  -4   1  13  200.18   31.50
  -4   1  13  143.19   11.90
   3  -1 -13   90.49   10.00
   3  -1 -13   87.69    9.10
   3  -1 -13   89.09   12.60
   3  -1 -13  102.59   12.90
  -3   1  13   84.69   20.90
  -3   1  13   90.39   14.10
  -3   1  13   96.69   10.80
   2  -1 -13  119.49   10.70
   2  -1 -13  122.59   10.60
   2  -1 -13  139.29   12.90
   2  -1 -13  124.79   11.70
  -2   1  13  133.79   13.20
  -2   1  13  109.19   12.20
  -2   1  13  144.09   25.80
   1  -1 -13 1755.82   61.59
   1  -1 -13 1772.52   64.59
   1  -1 -13 1701.83   61.89
   1  -1 -13 1667.23   61.79
  -1   1  13 1729.33   67.19
  -1   1  13 1643.74   78.99
  -1   1  13 1735.93   66.89
   0  -1 -13  293.67   16.80
   0  -1 -13  307.17   18.40
   0  -1 -13  303.67   15.90
   0  -1 -13  326.27   15.90
   0   1  13  276.67   26.40
   0   1  13  338.97   20.80
   0   1  13  301.37   19.90
  -1  -1 -13  177.28   13.10
  -1  -1 -13  185.88   11.00
  -1  -1 -13  199.48   10.10
  -1  -1 -13  179.58   12.60
   1   1  13  162.88   14.20
   1   1  13  169.28   19.40
   1   1  13  161.18   14.60
   1   1  13  126.99   22.00
  -2  -1 -13   10.20    4.00
  -2  -1 -13    7.30    4.20
  -2  -1 -13    7.80    1.90
  -2  -1 -13    5.10    4.50
   2   1  13    5.90    8.20
   2   1  13    7.10    3.90
   2   1  13   10.90    7.20
   2   1  13    4.60    5.00
   2   1  13   -4.00    6.40
  -3  -1 -13  174.48   12.80
  -3  -1 -13  171.88   12.00
  -3  -1 -13  165.98   10.20
   3   1  13  154.28   11.80
   3   1  13  159.98   15.30
   3   1  13  149.88   17.30
   3   1  13  162.38   17.90
   3   1  13  150.88   13.50
  -4  -1 -13   42.90    6.60
   4   1  13   26.10    9.10
   4   1  13   40.70   12.10
   4   1  13   52.59    7.80
   4   1  13   50.99   12.90
   4   1  13   52.79    9.50
   5   1  13    7.40    5.40
   5   1  13    6.50    3.90
   5   1  13    4.40    6.90
   5   1  13    2.20    6.80
   5   1  13    0.70    2.30
   5   1  13    6.00    7.90
   6   1  13   15.00    5.60
   6   1  13   13.80    8.50
   6   1  13   29.90   12.30
   6   1  13   14.20    8.80
   6   1  13    8.50    5.60
   7   1  13  584.24   28.20
   7   1  13  546.45   34.60
   7   1  13  532.65   29.20
   7   1  13  572.34   36.20
   7   1  13  602.94   34.40
   8   1  13  136.69   18.00
   8   1  13  120.29   20.60
   8   1  13  154.08   23.80
   8   1  13  125.39   11.90
   9   1  13  197.88   22.50
   9   1  13  175.98   21.90
   9   1  13  221.58   12.60
  10   1  13   12.50   17.00
   7  -2 -13  -13.10    5.40
   7  -2 -13   -8.50   13.70
   7  -2 -13   -1.10    7.00
   6  -2 -13    1.40    4.90
   6  -2 -13   -9.00    6.10
   6  -2 -13   -2.00    5.40
   6  -2 -13    2.30    7.00
   5  -2 -13   -2.20    5.50
   5  -2 -13    2.50    5.90
   5  -2 -13    0.80    4.80
   5  -2 -13   -4.50    6.30
   4  -2 -13    9.30    6.90
   4  -2 -13    8.90    6.20
   4  -2 -13    5.60    6.30
   4  -2 -13   11.40    5.80
  -4   2  13   10.20   11.70
  -4   2  13   15.20    7.90
   3  -2 -13  140.49   12.60
   3  -2 -13  162.18   13.90
   3  -2 -13  150.18   13.80
   3  -2 -13  145.69   11.80
  -3   2  13  141.99   10.20
  -3   2  13  169.58   27.90
  -3   2  13  153.18   14.70
   2  -2 -13   11.30    5.50
   2  -2 -13   21.50    6.30
   2  -2 -13   25.70    7.30
   2  -2 -13   13.50    5.50
  -2   2  13   21.00    6.40
  -2   2  13   25.50    8.20
  -2   2  13   31.10   14.10
   1  -2 -13   81.39    9.90
   1  -2 -13   67.19   10.60
   1  -2 -13   75.39    8.60
  -1   2  13   88.39   12.20
  -1   2  13   71.29   11.80
  -1   2  13  102.69   21.40
   0  -2 -13  513.05   22.60
   0  -2 -13  523.75   25.30
   0  -2 -13  486.75   23.30
   0   2  13  462.95   25.80
   0   2  13  511.45   26.00
   0   2  13  474.75   34.50
  -1  -2 -13   95.99    9.90
  -1  -2 -13  110.69    8.50
  -1  -2 -13  101.09    9.40
   1   2  13   81.29   19.00
   1   2  13  101.59   11.00
   1   2  13  101.09   18.00
   1   2  13   86.19   10.70
  -2  -2 -13   70.79    8.00
  -2  -2 -13   72.49    9.90
  -2  -2 -13   54.29    6.10
   2   2  13   60.09   10.90
   2   2  13   62.89   10.80
   2   2  13   69.69   15.40
   2   2  13   60.09   15.60
  -3  -2 -13   16.40    5.50
  -3  -2 -13    5.30    3.20
  -3  -2 -13    5.20    3.70
  -3  -2 -13    7.00    1.70
   3   2  13   11.70    8.20
   3   2  13   12.50    6.30
   3   2  13    4.60    7.90
   3   2  13   14.10    5.50
   3   2  13    5.50    5.40
  -4  -2 -13  116.79    9.60
  -4  -2 -13  116.39    7.30
  -4  -2 -13   87.49    9.30
   4   2  13  126.29   10.40
   4   2  13  119.99   15.00
   4   2  13  133.39   17.10
   4   2  13  118.99   13.20
   4   2  13  111.49   11.20
  -5  -2 -13  470.65   21.60
   5   2  13  476.05   24.80
   5   2  13  490.35   30.20
   5   2  13  461.75   24.00
   5   2  13  466.95   27.70
   6   2  13   85.39   11.90
   6   2  13  104.19   10.40
   6   2  13  107.99   18.50
   6   2  13  131.89   19.80
   6   2  13   94.99   15.70
   7   2  13   31.20   12.30
   7   2  13   36.50   12.10
   7   2  13   21.70   11.00
   7   2  13   62.19   14.40
   8   2  13   25.70   12.40
   8   2  13   44.90   13.50
   8   2  13   12.50    6.10
   8   2  13   19.20   11.20
   9   2  13  -16.60    9.20
   9   2  13   -2.40    4.30
   9   2  13   -9.20   11.10
  10   2  13   -4.10    9.40
  10   2  13   22.60   13.70
  10   2  13    5.10    4.80
   7  -3 -13    3.90    7.60
   7  -3 -13   12.90    8.50
   7  -3 -13  -11.90    6.10
   7  -3 -13   -1.20    6.40
   6  -3 -13    3.40    8.00
   6  -3 -13  -11.80    5.80
   6  -3 -13   -6.70    5.10
   6  -3 -13    0.70    5.60
   5  -3 -13    1.80    8.80
   5  -3 -13   -5.10    5.40
   5  -3 -13    1.80    5.80
   5  -3 -13   -1.20    6.30
   4  -3 -13    5.60    7.60
   4  -3 -13    1.30    6.80
   4  -3 -13   -8.20    4.10
  -4   3  13  -10.30    7.90
   3  -3 -13   87.59   11.50
   3  -3 -13   85.79   12.60
   3  -3 -13   93.59   10.60
  -3   3  13   93.39   20.00
  -3   3  13   91.59   13.80
   2  -3 -13   94.79   12.30
   2  -3 -13   62.89    9.40
   2  -3 -13   55.49    8.90
  -2   3  13   64.59   11.00
  -2   3  13   79.99    7.90
  -2   3  13   71.19   18.40
   1  -3 -13    9.20    4.70
   1  -3 -13    4.90    5.30
   1  -3 -13   14.90    5.40
  -1   3  13   16.80    5.50
  -1   3  13    5.00    5.00
  -1   3  13   12.10   10.30
   0  -3 -13   70.49    9.30
   0  -3 -13   70.19   10.60
   0   3  13   42.60   17.50
   0   3  13   75.89   16.30
   0   3  13   69.19   10.00
   0   3  13   97.99   13.20
  -1  -3 -13  258.27   15.50
  -1  -3 -13  258.57   14.00
  -1  -3 -13  264.37   16.80
   1   3  13  254.37   17.70
   1   3  13  283.07   24.20
   1   3  13  251.47   16.40
  -2  -3 -13  843.12   35.00
  -2  -3 -13  812.92   33.60
  -2  -3 -13  815.42   30.80
   2   3  13  835.02   36.60
   2   3  13  821.12   42.50
   2   3  13  783.52   35.20
  -3  -3 -13    6.50    4.10
  -3  -3 -13    8.00    3.10
   3   3  13    2.40    7.90
   3   3  13    1.80    5.20
   3   3  13    6.60    5.50
   3   3  13   10.70    9.00
  -4  -3 -13   28.00    6.40
  -4  -3 -13   25.00    5.70
  -4  -3 -13   21.40    3.30
  -4  -3 -13   18.20    2.90
   4   3  13   24.40    7.90
   4   3  13   15.10    8.00
   4   3  13   29.40   12.00
   4   3  13   18.60    6.60
  -5  -3 -13   -4.40    3.20
   5   3  13    4.80    3.70
   5   3  13    3.20    7.20
   5   3  13    0.80    4.80
   5   3  13    7.40    9.70
   5   3  13    7.40    7.00
  -6  -3 -13  225.88   13.70
   6   3  13  278.57   24.80
   6   3  13  287.87   21.50
   6   3  13  273.77   18.10
   6   3  13  261.37   22.20
   6   3  13  239.18   17.40
   7   3  13   78.99   18.10
   7   3  13   67.09   15.60
   8   3  13  146.49   22.60
   8   3  13  148.39   20.80
   8   3  13  155.88   18.40
   9   3  13  215.58   15.50
   9   3  13  217.58   23.70
   9   3  13  258.87   25.00
   9   3  13  200.78   24.10
  10   3  13   67.99   19.30
  10   3  13   68.89   16.80
  10   3  13   55.79    9.00
  10   3  13   62.09   16.80
   7  -4 -13   20.30    9.70
   6  -4 -13   19.80   10.10
   6  -4 -13   19.50    9.20
   6  -4 -13    3.30    6.30
   5  -4 -13  298.77   24.40
   5  -4 -13  283.27   20.90
   5  -4 -13  319.97   21.30
   5  -4 -13  276.07   21.20
   4  -4 -13  323.77   22.40
   4  -4 -13  308.97   21.50
   3  -4 -13  146.79   14.30
   3  -4 -13  158.78   14.40
   3  -4 -13  160.38   14.00
  -3   4  13  118.79   14.80
  -3   4  13  169.38   21.90
   2  -4 -13   24.40    6.60
   2  -4 -13   42.50    8.50
   2  -4 -13   33.60    8.90
  -2   4  13   44.60   10.00
  -2   4  13   26.20   12.30
   1  -4 -13    9.90    5.80
   1  -4 -13    1.10    4.10
   1  -4 -13    4.20    4.80
  -1   4  13   11.60   10.40
  -1   4  13    5.00    5.50
  -1   4  13    3.40    9.10
   0  -4 -13   83.49    9.00
   0  -4 -13   89.69    9.60
   0  -4 -13   91.79   12.00
   0   4  13  103.69   11.40
   0   4  13   72.59   21.50
   0   4  13   89.59    8.70
   0   4  13   79.49   17.00
  -1  -4 -13  102.59   11.30
  -1  -4 -13   97.79    9.70
  -1  -4 -13  112.79    9.10
   1   4  13  116.59   19.20
   1   4  13  120.79   10.40
   1   4  13  109.49   13.70
  -2  -4 -13  306.27   17.00
  -2  -4 -13  311.57   15.00
  -2  -4 -13  274.37   17.50
   2   4  13  216.78   26.50
   2   4  13  296.17   19.00
   2   4  13  297.27   17.60
   2   4  13  312.27   24.20
  -3  -4 -13  614.74   28.70
  -3  -4 -13  596.24   27.10
  -3  -4 -13  625.24   23.90
   3   4  13  657.03   35.30
   3   4  13  559.84   40.30
   3   4  13  618.94   30.00
   3   4  13  639.24   30.10
  -4  -4 -13   43.40    7.00
  -4  -4 -13   61.79    9.00
   4   4  13   59.79   16.40
   4   4  13   62.39   13.50
  -5  -4 -13    4.20    3.70
  -5  -4 -13   18.40    5.50
  -5  -4 -13   -1.20    3.10
   5   4  13   10.40    7.90
   5   4  13   14.20   10.30
   5   4  13    1.50    4.20
  -6  -4 -13  119.19   10.60
  -6  -4 -13  147.59   11.40
   6   4  13  148.39   17.30
   6   4  13  187.58   22.20
   6   4  13  147.29   14.20
   7   4  13   66.69   17.00
   7   4  13   89.49   19.20
   8   4  13   18.40    7.30
   8   4  13   18.20   13.30
   8   4  13   -6.80    8.00
   8   4  13    4.40    8.80
   9   4  13  102.99   20.80
   9   4  13  100.29   21.80
   9   4  13   73.29   16.30
   9   4  13   78.99   11.30
  10   4  13  -19.90    9.80
  10   4  13  -16.30    7.90
  10   4  13    2.30    5.60
  10   4  13   25.60   11.70
  11   4  13   20.10   18.40
   6  -5 -13  -16.10    5.60
   5  -5 -13    2.60    6.00
   5  -5 -13   -2.40    6.10
   5  -5 -13    4.20    7.00
   5  -5 -13   10.20    9.30
   4  -5 -13    7.80    7.20
   4  -5 -13    2.20    6.10
   4  -5 -13   10.30    7.50
   3  -5 -13   90.29   13.90
   3  -5 -13   78.49   12.80
   3  -5 -13  110.09   14.30
  -3   5  13  105.09   20.10
   2  -5 -13    9.00    6.80
   2  -5 -13   -0.60    4.30
   2  -5 -13    3.30    5.00
  -2   5  13   22.90   10.50
  -2   5  13    6.60    6.10
   1  -5 -13   63.59   11.10
   1  -5 -13   54.09    9.70
   1  -5 -13   62.69    9.80
  -1   5  13   65.19   11.00
  -1   5  13   54.79   21.80
  -1   5  13   57.69   16.00
   0  -5 -13    7.70    4.80
   0  -5 -13   12.20    5.30
   0  -5 -13    3.90    5.20
   0   5  13   16.00    5.50
   0   5  13    6.30    4.10
   0   5  13   -8.00   11.40
   0   5  13   11.40   10.60
   0   5  13   21.70    7.20
  -1  -5 -13  475.45   23.80
  -1  -5 -13  451.85   21.50
  -1  -5 -13  427.56   23.70
   1   5  13  399.26   28.90
   1   5  13  447.26   21.20
   1   5  13  431.16   24.40
   1   5  13  308.17   34.40
  -2  -5 -13 1247.68   46.70
  -2  -5 -13 1151.58   43.20
  -2  -5 -13 1113.09   47.10
   2   5  13 1150.68   53.59
   2   5  13 1155.48   45.80
   2   5  13 1135.09   48.40
  -3  -5 -13  455.95   22.70
  -3  -5 -13  485.15   24.60
  -3  -5 -13  479.35   19.90
   3   5  13  385.96   35.00
   3   5  13  456.15   29.00
  -4  -5 -13   46.30    4.60
  -4  -5 -13   53.89    8.90
  -4  -5 -13   56.09    8.10
   4   5  13   66.19   17.30
   4   5  13   78.09   14.80
   4   5  13   56.29   10.50
  -5  -5 -13  214.88   13.70
  -5  -5 -13  189.78   14.20
   5   5  13  211.38   25.20
   5   5  13  200.38   19.00
   5   5  13  205.28   16.70
  -6  -5 -13   19.70    6.70
  -6  -5 -13   20.00    5.40
   6   5  13   31.70    8.90
   6   5  13   39.70   15.40
   6   5  13   27.70   11.10
   7   5  13   85.09   20.80
   8   5  13   38.60    9.80
   8   5  13   60.59   18.50
   8   5  13   74.89   17.20
   9   5  13   31.40   15.50
   9   5  13    6.50   10.30
  10   5  13    9.90   13.70
  10   5  13    9.70   10.90
  10   5  13    3.40    6.20
  10   5  13   10.20   11.10
   5  -6 -13   18.50    8.80
   5  -6 -13   -1.70    7.20
   5  -6 -13   30.30    8.90
   4  -6 -13  313.67   22.00
   4  -6 -13  258.87   21.10
   4  -6 -13  266.07   21.50
   3  -6 -13   87.39   14.00
   3  -6 -13   96.79   14.30
   3  -6 -13   94.39   14.30
   2  -6 -13   10.50    6.00
   2  -6 -13    7.00    6.40
   2  -6 -13    0.80    5.20
  -2   6  13   -2.80    8.20
   1  -6 -13   -4.30    4.50
   1  -6 -13    2.10    5.30
   1  -6 -13    6.90    6.20
  -1   6  13   -1.00    8.10
  -1   6  13    1.40    7.60
  -1   6  13   -3.20   12.30
   0  -6 -13    8.40    6.20
   0  -6 -13    6.80    5.80
   0  -6 -13    8.00    5.40
   0   6  13    9.70    6.10
   0   6  13   11.20   12.20
   0   6  13    9.90    8.00
  -1  -6 -13   76.29   11.20
  -1  -6 -13  102.29   10.50
  -1  -6 -13   83.09   13.30
   1   6  13   70.79   23.90
   1   6  13   98.89   16.60
   1   6  13   75.49    8.10
   1   6  13   86.29   13.00
  -2  -6 -13   40.10    7.90
  -2  -6 -13   51.49    8.00
  -2  -6 -13   49.30   10.30
   2   6  13   26.10   14.70
   2   6  13   39.60   12.40
  -3  -6 -13   92.69   12.70
  -3  -6 -13  105.89   10.40
  -3  -6 -13   88.99    8.00
   3   6  13   80.39   21.80
   3   6  13   67.29   11.90
   3   6  13   88.59   15.70
  -4  -6 -13  244.68   17.60
  -4  -6 -13  234.58   11.90
  -4  -6 -13  224.68   14.90
   4   6  13  209.88   19.40
   4   6  13  229.28   18.10
   4   6  13  260.57   28.30
  -5  -6 -13   31.70    3.50
  -5  -6 -13   36.50    8.10
  -5  -6 -13   27.10    6.20
  -5  -6 -13   37.50    4.40
   5   6  13   44.70   12.40
   5   6  13   24.90   14.40
   5   6  13   42.40   10.20
  -6  -6 -13   68.99    9.00
  -6  -6 -13   53.49    8.90
   6   6  13  100.79   22.30
   6   6  13   65.49   12.20
   6   6  13   59.59   14.20
  -7  -6 -13    4.50    3.90
   7   6  13    5.50   12.70
   7   6  13   -5.40    7.00
   7   6  13    9.60    7.70
   8   6  13    8.50    7.90
   8   6  13   21.90   13.20
   8   6  13   30.10   15.70
   9   6  13  153.38   27.30
   9   6  13  103.29   14.90
   9   6  13  124.89   21.70
  10   6  13    7.90   12.00
   4  -7 -13    7.40    8.40
   4  -7 -13    8.90    7.60
   4  -7 -13   19.60    9.90
   3  -7 -13    6.50    7.40
   3  -7 -13   11.80    8.60
   3  -7 -13    9.80    7.10
   2  -7 -13   -2.10    5.30
   2  -7 -13    3.60    6.20
   2  -7 -13   -3.60    5.30
   1  -7 -13    4.10    6.40
   1  -7 -13    0.70    5.40
   1  -7 -13    1.00    5.40
  -1   7  13   15.50   10.50
   0  -7 -13   74.29   13.30
   0  -7 -13   81.19   12.80
   0  -7 -13   69.49   11.80
   0   7  13   87.19   14.10
   0   7  13   44.30   23.10
   0   7  13   87.39   16.10
  -1  -7 -13   31.60    9.10
  -1  -7 -13   37.60    8.70
  -1  -7 -13   28.80    8.30
   1   7  13   36.60   16.10
   1   7  13   61.59   14.10
   1   7  13   30.90    8.90
   1   7  13   42.40    7.40
  -2  -7 -13  301.37   20.10
  -2  -7 -13  337.47   19.00
  -2  -7 -13  321.77   22.20
   2   7  13  234.38   32.10
   2   7  13  311.27   24.40
  -3  -7 -13  110.79   11.30
  -3  -7 -13  107.89   14.50
  -3  -7 -13   91.59    9.20
   3   7  13   93.49   16.20
   3   7  13   74.09   22.90
   3   7  13   89.09   14.40
  -4  -7 -13   41.20    8.00
  -4  -7 -13   34.20    5.90
  -4  -7 -13   32.70    9.00
   4   7  13   48.20   20.10
   4   7  13   38.10   10.70
   4   7  13   22.30   10.60
  -5  -7 -13  177.78    9.90
  -5  -7 -13  213.48   16.30
  -5  -7 -13  188.88   14.10
   5   7  13  179.68   26.30
   5   7  13  185.58   18.00
   5   7  13  191.98   19.20
  -6  -7 -13   66.59   10.90
  -6  -7 -13   47.90    8.10
   6   7  13   37.10   10.60
   6   7  13   41.90   18.60
   6   7  13   48.30   13.90
  -7  -7 -13   33.00    6.60
   7   7  13   34.80   12.50
   7   7  13   48.40   11.60
   7   7  13   21.00   15.20
   8   7  13  134.79   27.30
   8   7  13  130.89   17.80
   8   7  13  131.59   22.00
   9   7  13   58.09   19.30
   9   7  13   38.10   11.50
   9   7  13   40.50   15.80
  10   7  13   -1.00   12.80
  10   7  13  -11.20    5.90
  10   7  13  -22.00   12.20
   3  -8 -13   -3.40    9.60
   3  -8 -13   -2.80    7.60
   3  -8 -13   -0.90    7.00
   2  -8 -13  301.97   26.90
   2  -8 -13  330.37   33.70
   1  -8 -13  185.98   17.30
   1  -8 -13  213.88   19.30
   1  -8 -13  227.48   19.50
   0  -8 -13   23.70    8.30
   0  -8 -13   37.40   10.60
   0  -8 -13   32.70    9.40
   0   8  13   40.00   13.10
   0   8  13   33.80   17.90
  -1  -8 -13   66.09   19.60
  -1  -8 -13   64.39   12.60
   1   8  13   33.30    7.90
   1   8  13   21.40   15.20
   1   8  13   44.00   10.00
   1   8  13   48.00   12.00
  -2  -8 -13   -2.60    5.10
  -2  -8 -13   -2.70    6.80
  -2  -8 -13   -0.60    4.50
   2   8  13    9.60   12.80
   2   8  13   15.30    8.00
  -3  -8 -13   38.50   10.60
  -3  -8 -13   30.50    7.60
  -3  -8 -13   39.20    7.70
   3   8  13   28.30   10.00
   3   8  13   16.90   14.10
   3   8  13   32.40   11.30
  -4  -8 -13   15.50    7.30
  -4  -8 -13   16.60    5.60
  -4  -8 -13    7.40    5.60
   4   8  13   15.10    8.90
   4   8  13   16.00   16.10
   4   8  13   -0.60    7.60
  -5  -8 -13   -0.60    5.80
  -5  -8 -13    2.40    3.80
  -5  -8 -13   11.00    5.70
   5   8  13   15.20   11.30
   5   8  13  -12.30   10.50
   5   8  13    7.00    8.50
  -6  -8 -13   47.40   10.60
  -6  -8 -13   40.30    8.00
   6   8  13   53.39   15.00
   6   8  13   38.70   14.30
   6   8  13   43.50   19.70
  -7  -8 -13   -7.10    4.80
   7   8  13   -7.70    7.60
   7   8  13    5.40    8.80
   7   8  13  -13.60   10.60
   8   8  13   -3.60   13.50
   8   8  13    3.10    8.50
   8   8  13  -13.60    8.00
   1  -9 -13  115.09   17.00
   1  -9 -13   81.99   14.40
   1  -9 -13  107.99   16.10
   0  -9 -13   -2.20    7.10
   0  -9 -13    2.10    7.00
   0  -9 -13    4.60    7.00
   0   9  13   27.30   16.90
  -1  -9 -13    1.20    7.60
  -1  -9 -13   12.00    8.10
  -1  -9 -13   11.10    8.30
   1   9  13   21.00   16.90
  -2  -9 -13    5.80    7.90
  -2  -9 -13   13.20    7.80
  -2  -9 -13   -2.70    6.20
   2   9  13   31.50   11.30
   2   9  13    7.80   14.30
  -3  -9 -13   19.50    8.00
  -3  -9 -13   14.50    9.60
  -3  -9 -13   10.70    6.60
   3   9  13   12.90   10.40
   3   9  13   11.40   15.10
   3   9  13    6.20    9.80
  -4  -9 -13  304.77   19.20
  -4  -9 -13  308.47   23.20
  -4  -9 -13  318.17   21.00
   4   9  13  278.27   36.20
   4   9  13  274.27   23.40
   4   9  13  306.47   25.00
  -5  -9 -13  186.78   16.20
  -5  -9 -13  169.98   16.70
  -5  -9 -13  144.09   12.00
   5   9  13  186.98   19.80
   5   9  13  148.19   24.30
   5   9  13  132.29   29.70
  -6  -9 -13   54.59   10.20
  -6  -9 -13   30.00    8.00
   6   9  13   34.70   13.90
   6   9  13   26.30   12.20
   6   9  13   27.80   17.90
  -7  -9 -13   46.40    9.40
   7   9  13   74.39   23.10
   7   9  13   80.39   17.50
   7   9  13   67.59   15.30
   8   9  13  -13.50    9.70
   8   9  13   -9.70    8.00
   9   9  13  297.37   24.80
   9   9  13  294.47   28.30
   9   9  13  289.97   36.40
   0 -10 -13   86.59   14.90
   0 -10 -13   81.89   15.50
  -1 -10 -13    6.20    9.20
  -1 -10 -13    4.10    6.70
  -2 -10 -13  129.69   17.30
  -2 -10 -13  119.79   17.30
  -2 -10 -13  161.38   19.00
   2  10  13  125.09   30.30
  -3 -10 -13   22.30    8.90
  -3 -10 -13   28.60    9.00
  -3 -10 -13   26.90    9.70
   3  10  13   52.89   17.70
  -4 -10 -13    5.80    7.60
  -4 -10 -13   15.30    8.60
  -4 -10 -13    3.60    7.90
   4  10  13   -1.40   10.50
   4  10  13   14.40   16.40
   4  10  13   29.00   13.90
  -5 -10 -13  -10.90    7.30
  -5 -10 -13   -4.60    6.40
   5  10  13    3.30   15.70
   5  10  13   12.60   10.50
   5  10  13   -5.80   11.30
  -6 -10 -13   27.60    9.20
   6  10  13   22.00   13.60
   6  10  13   28.70   21.90
   6  10  13   11.50   10.40
  -7 -10 -13   29.80    9.10
   7  10  13   59.39   24.30
   7  10  13   40.60   13.90
   7  10  13   35.70   15.10
   8  10  13  -21.80   13.30
   8  10  13   -3.30    9.60
   8  10  13   17.50   15.30
  -2 -11 -13   36.20   14.90
  -2 -11 -13    9.30    9.90
   2  11  13   66.29   22.60
  -3 -11 -13    7.50    8.20
  -3 -11 -13  -15.50    8.70
  -3 -11 -13   11.30    9.20
   3  11  13   59.09   19.70
  -4 -11 -13   20.30    9.90
  -4 -11 -13   15.00    8.30
  -4 -11 -13    1.00    9.70
   4  11  13   25.10   16.00
  -5 -11 -13  195.98   18.90
  -5 -11 -13  223.28   22.20
   5  11  13  250.97   33.20
   5  11  13  216.78   35.50
  -6 -11 -13  -21.50    7.90
   6  11  13  -18.50   14.10
   7  11  13  -11.40   11.40
  -5  -8  14  202.98   28.20
  -4  -8  14   51.49   17.70
  -3  -8  14  -24.60   11.40
  -2  -8  14  -12.90   10.20
  -1  -8  14   66.49   18.00
   7   7 -14   64.69   17.00
   6   7 -14    0.20   14.70
   6   7 -14   -2.80   10.40
   6   7 -14   10.70    9.50
  -6  -7  14   31.60   16.00
   5   7 -14  163.18   18.60
   5   7 -14  139.69   22.30
  -5  -7  14  166.78   29.10
  -5  -7  14  102.69   21.40
   4   7 -14  119.29   18.70
  -4  -7  14   84.39   17.90
   3   7 -14   70.99   14.20
  -3  -7  14   59.49   16.70
  -3  -7  14   94.29   24.50
  -2  -7  14   80.59   22.50
  -2  -7  14   86.79   17.30
  -1  -7  14   57.19   12.10
  -1  -7  14   63.69   20.60
   0  -7  14   34.60   19.20
   1  -7  14  133.19   21.10
   1  -7  14  107.99   23.80
   7   6 -14   14.10    9.00
   7   6 -14   12.70   15.30
   7   6 -14   20.40   13.60
  -7  -6  14   32.30   16.10
   6   6 -14   48.20   16.00
   6   6 -14   86.59   17.40
  -6  -6  14   69.79   18.10
   5   6 -14  292.17   23.70
   5   6 -14  361.36   29.70
   5   6 -14  298.77   31.00
  -5  -6  14  424.16   36.50
  -5  -6  14  354.76   32.40
   4   6 -14  212.98   19.50
   4   6 -14  191.68   21.20
   4   6 -14  191.38   20.20
  -4  -6  14  200.38   23.80
  -4  -6  14  190.98   30.30
   3   6 -14    5.40    8.80
   3   6 -14    9.70    7.40
  -3  -6  14    2.00   11.20
  -3  -6  14    7.70   13.50
   2   6 -14    4.70    7.40
   2   6 -14   11.80    7.90
  -2  -6  14   31.20   14.40
  -2  -6  14    2.70   10.70
  -1  -6  14   99.89   18.60
  -1  -6  14  124.59   25.80
   0  -6  14   34.70   11.00
   0  -6  14   25.80   11.90
   0  -6  14   21.90   14.20
   1  -6  14   46.70   13.20
   1  -6  14   46.50   15.10
   1  -6  14   45.60   16.40
   2  -6  14   14.40   13.00
   3  -6  14   25.00   15.40
   3  -6  14   33.70   11.90
   8   5 -14   -2.00   11.80
   8   5 -14   21.50    8.70
   8   5 -14   -6.00    9.50
   7   5 -14   -6.60   11.20
   7   5 -14   11.50    9.60
  -7  -5  14   36.50   17.20
   6   5 -14    7.40   11.70
   6   5 -14    2.10    7.20
   6   5 -14    0.10    9.90
  -6  -5  14   -1.50   10.60
   5   5 -14   55.39   12.50
   5   5 -14   38.00   14.80
  -5  -5  14   90.19   18.80
  -5  -5  14   40.90   15.80
   4   5 -14   44.90   12.40
   4   5 -14   56.49   11.90
   4   5 -14   59.39   13.20
  -4  -5  14   56.99   18.30
  -4  -5  14   70.29   16.60
   3   5 -14   44.10   11.90
   3   5 -14   48.20   11.30
   3   5 -14   44.30   10.90
  -3  -5  14   52.49   14.50
  -3  -5  14   55.09   18.10
   2   5 -14  154.38   16.80
   2   5 -14  126.79   17.10
   2   5 -14  134.99   13.50
  -2  -5  14   99.29   19.50
  -2  -5  14  171.78   27.80
  -2  -5  14  183.18   31.30
   1   5 -14  253.67   20.80
   1   5 -14  297.27   22.50
  -1  -5  14  212.88   27.30
  -1  -5  14  280.47   29.00
  -1  -5  14  313.57   45.50
   0  -5  14  121.49   24.20
   0  -5  14   84.59   17.50
   0  -5  14  133.09   24.70
   1  -5  14  356.26   28.10
   1  -5  14  380.26   34.20
   1  -5  14  335.87   31.20
   2  -5  14   -1.70   10.60
   2  -5  14   -1.20    6.60
   2  -5  14   23.70   13.90
   3  -5  14   36.20   10.60
   3  -5  14   26.50   14.90
   3  -5  14   44.40   15.90
   4  -5  14   70.39   12.70
   4  -5  14   56.09   15.80
   5  -5  14   68.19   18.60
   8   4 -14   -4.50   13.00
   8   4 -14   11.20    7.70
   8   4 -14    5.60   10.60
   8   4 -14   -8.40    7.40
  -8  -4  14   30.30   14.30
   7   4 -14    5.70    8.40
   7   4 -14    7.10   12.20
   7   4 -14   25.60   10.80
   7   4 -14   -3.00    7.10
  -7  -4  14   -4.60   10.80
   6   4 -14   23.70    8.40
   6   4 -14    5.40    8.20
   6   4 -14    4.90    8.40
   6   4 -14   30.90   14.80
  -6  -4  14   19.70   14.40
   5   4 -14    5.30    7.10
   5   4 -14   -5.00    5.60
   5   4 -14    4.00    8.70
   5   4 -14    9.80    9.00
  -5  -4  14    3.20   12.30
  -5  -4  14    9.80    8.40
   4   4 -14   60.99   11.80
   4   4 -14   53.09   12.80
  -4  -4  14   82.19   16.40
  -4  -4  14   76.39   19.40
   3   4 -14    4.70    6.80
  -3  -4  14   -2.90    6.20
  -3  -4  14   -3.20    9.00
  -3  -4  14    7.90   13.00
   2   4 -14  239.38   20.60
   2   4 -14  266.47   19.30
   2   4 -14  243.08   19.10
  -2  -4  14  214.58   24.40
  -2  -4  14  258.07   31.00
  -2  -4  14  246.48   23.10
   1   4 -14  296.57   18.00
   1   4 -14  292.37   21.50
   1   4 -14  307.97   21.60
  -1  -4  14  290.17   25.10
  -1  -4  14  317.57   33.30
  -1  -4  14  333.67   29.80
   0   4 -14  154.08   15.40
   0   4 -14  200.28   17.40
   0  -4  14  191.58   19.40
   0  -4  14  206.88   24.00
   0  -4  14  186.48   23.50
   1  -4  14  185.98   28.70
   1  -4  14  155.38   29.60
   2  -4  14  197.28   29.30
   2  -4  14  185.68   19.60
   2  -4  14  180.38   23.10
   3  -4  14   17.40    9.80
   3  -4  14    3.10   10.90
   3  -4  14   -1.70    6.90
   4  -4  14   34.70   14.60
   4  -4  14   15.00    8.60
   4  -4  14   45.40   13.30
   5  -4  14   39.30   13.50
   6  -4  14   26.50   16.00
   6  -4  14   15.00    6.80
   8   3 -14    3.90    7.50
   8   3 -14    0.70    7.80
   8   3 -14  -12.50    8.90
   7   3 -14   15.20    8.70
   7   3 -14   11.80    7.30
   7   3 -14   19.30   10.30
  -7  -3  14   14.90   11.80
   6   3 -14   38.90   10.00
   6   3 -14   37.20   10.40
   6   3 -14   39.10   12.20
  -6  -3  14   32.40   12.60
   5   3 -14   13.40    8.80
   5   3 -14   -3.90    5.70
  -5  -3  14    6.30    8.20
  -5  -3  14    8.50    9.80
   4   3 -14   -4.90    6.20
   4   3 -14   -0.70    6.10
   4   3 -14    0.90    5.80
  -4  -3  14   -6.70    8.00
  -4  -3  14   43.90   12.40
  -4  -3  14    1.30   13.00
   3   3 -14  440.16   25.00
   3   3 -14  407.56   23.30
   3   3 -14  442.96   27.60
  -3  -3  14  459.75   30.30
  -3  -3  14  434.26   40.10
  -3  -3  14  422.06   32.00
   2   3 -14  532.65   30.40
   2   3 -14  575.54   28.30
  -2  -3  14  542.45   36.70
  -2  -3  14  478.95   31.70
  -2  -3  14  487.75   41.20
   1   3 -14  105.89   12.40
   1   3 -14  107.59   13.80
  -1  -3  14  116.29   24.30
  -1  -3  14   89.29   15.60
  -1  -3  14  132.79   22.30
   0   3 -14   87.49   12.30
   0   3 -14   77.49   12.10
   0   3 -14   67.19   11.00
   0  -3  14  124.29   21.00
   0  -3  14  103.99   16.00
   0  -3  14   76.89   19.40
  -1   3 -14  277.57   19.50
  -1   3 -14  264.27   19.00
   1  -3  14  314.57   23.20
   1  -3  14  296.57   26.90
   1  -3  14  320.27   29.90
   2  -3  14  166.18   22.20
   2  -3  14  223.78   19.80
   2  -3  14  185.58   22.10
   3  -3  14   87.69   14.80
   3  -3  14  110.19   21.00
   3  -3  14  122.89   22.60
   4  -3  14  104.79   20.60
   4  -3  14  116.49   22.30
   4  -3  14  102.29   15.60
   5  -3  14   91.49   17.50
   5  -3  14   76.29   12.70
   5  -3  14   76.49   19.40
   6  -3  14   -2.20    8.50
   6  -3  14   27.60    7.70
   6  -3  14   50.29   12.60
   7  -3  14   -5.60    4.40
   7  -3  14   -0.40   14.20
   8   2 -14   80.19   15.30
   8   2 -14   88.19   16.50
   8   2 -14   89.19   14.50
   7   2 -14   38.00   11.90
   7   2 -14   38.30    9.70
   7   2 -14   60.59   13.20
  -7  -2  14   57.59   15.00
   6   2 -14   27.90   11.00
   6   2 -14   34.20    9.30
   6   2 -14   23.00    9.00
  -6  -2  14   22.90   11.70
   5   2 -14  156.98   16.40
   5   2 -14  114.59   14.80
   5   2 -14  138.99   16.30
  -5  -2  14  132.89   20.60
  -5  -2  14  146.79   19.70
   4   2 -14   94.49   13.20
   4   2 -14   99.69   14.80
   4   2 -14  106.89   11.90
  -4  -2  14   99.49   16.10
  -4  -2  14   92.09   24.80
  -4  -2  14   92.19   17.60
   3   2 -14    9.10    6.60
   3   2 -14    5.80    5.80
   3   2 -14    7.30    5.50
  -3  -2  14    3.60   11.20
  -3  -2  14    4.10    7.90
  -3  -2  14   28.00    9.50
   2   2 -14   37.70    9.40
   2   2 -14   43.10    8.60
   2   2 -14   41.00    7.30
  -2  -2  14   42.00   16.30
  -2  -2  14   43.30   13.30
   1   2 -14  450.25   21.20
   1   2 -14  452.75   26.00
   1   2 -14  483.95   24.20
  -1  -2  14  440.16   31.30
  -1  -2  14  452.25   38.00
  -1  -2  14  466.95   29.00
   0   2 -14  171.98   13.50
   0   2 -14  169.58   14.80
   0  -2  14  191.48   17.50
   0  -2  14  224.88   33.20
   0  -2  14  177.58   19.60
  -1   2 -14   85.19   12.30
  -1   2 -14   85.69    9.80
  -1   2 -14   58.19    8.40
   1  -2  14   80.19   16.90
   1  -2  14   91.49   14.60
   1  -2  14   86.19   20.50
  -2   2 -14   13.40    4.90
  -2   2 -14   11.00    5.90
  -2   2 -14    4.60    3.30
   2  -2  14   11.90   11.40
   2  -2  14    3.70    4.20
   2  -2  14    8.20    9.60
   2  -2  14    7.00    6.80
   3  -2  14    3.40    6.60
   3  -2  14    5.50    7.50
   3  -2  14   16.50   10.20
   4  -2  14   85.39   18.90
   4  -2  14   78.69   15.20
   5  -2  14  169.28   24.50
   5  -2  14  194.38   17.30
   5  -2  14  167.48   20.60
   6  -2  14   75.49   11.50
   6  -2  14   45.00   14.30
   6  -2  14   57.89   17.00
   7  -2  14   18.00    6.30
   7  -2  14   47.40   13.60
   7  -2  14   16.10   12.60
   8   1 -14   18.50   10.70
   8   1 -14    6.00    8.10
   8   1 -14   37.70   12.10
   7   1 -14   -2.90    6.70
   7   1 -14   -5.20    7.30
   7   1 -14    5.60    5.00
   7   1 -14   13.10    8.20
   6   1 -14   50.29   12.70
   6   1 -14   41.40   12.00
   6   1 -14   48.00   10.50
   6   1 -14   46.20    7.80
  -6  -1  14   52.89   12.20
   5   1 -14  228.08   20.00
   5   1 -14  243.38   18.10
   5   1 -14  216.78   15.30
   5   1 -14  206.88   18.30
  -5  -1  14  246.48   20.20
  -5  -1  14  242.48   21.50
   4   1 -14    3.60    5.70
   4   1 -14    8.80    6.60
   4   1 -14    9.20    4.80
   4   1 -14   -1.60    5.40
  -4  -1  14    4.10    7.00
  -4  -1  14   11.50    7.90
  -4  -1  14   -0.70   11.00
   3   1 -14   41.00    8.50
   3   1 -14   45.70    8.10
   3   1 -14   56.99   11.20
   3   1 -14   44.40    9.10
  -3  -1  14   50.59   17.50
  -3  -1  14   64.59   14.20
  -3  -1  14   42.60   11.40
   2   1 -14  521.05   25.70
   2   1 -14  511.25   39.60
   2   1 -14  512.55   26.10
   2   1 -14  594.14   26.70
  -2  -1  14  532.05   41.70
  -2  -1  14  540.75   32.90
  -2  -1  14  539.25   31.50
   1   1 -14   26.60    6.60
   1   1 -14   30.90    6.10
   1   1 -14   37.00    7.60
   1   1 -14   34.20    8.80
  -1  -1  14   27.70   10.50
  -1  -1  14   43.80   11.60
  -1  -1  14   22.80   12.70
   0   1 -14   17.30    6.20
   0   1 -14   21.30    4.40
   0   1 -14   14.60    6.00
   0  -1  14   35.60   11.60
   0  -1  14   10.30   11.00
   0  -1  14   22.60    8.70
  -1   1 -14    4.60    3.90
   1  -1  14    4.20    7.60
   1  -1  14    0.80    5.00
   1  -1  14    9.20    9.60
  -2   1 -14    5.90    4.20
  -2   1 -14    6.00    4.30
   2  -1  14    5.80    4.70
   2  -1  14    2.50    7.60
   2  -1  14    0.30    5.50
   2  -1  14    5.10    9.30
  -3   1 -14  128.89   13.10
  -3   1 -14  130.29   11.10
  -3   1 -14  144.99   13.90
   3  -1  14  142.19   18.40
   3  -1  14  139.79   11.50
   3  -1  14  122.49   14.00
   3  -1  14  145.09   20.60
   4  -1  14  109.49   18.10
   4  -1  14   93.59   13.50
   4  -1  14   99.29   18.70
   5  -1  14    1.90    9.10
   5  -1  14    1.60    5.30
   6  -1  14  211.98   22.60
   6  -1  14  236.38   23.80
   6  -1  14  182.68   16.40
   7  -1  14   81.79   18.50
   7  -1  14   95.49   19.10
   7  -1  14   66.69   10.20
   8  -1  14  166.38   11.60
   8  -1  14  214.08   23.50
   8   0 -14   19.20   12.40
   8   0 -14   -3.60    8.00
   8   0 -14  -15.20    7.10
   7   0 -14    3.30    5.20
   7   0 -14    4.60    7.30
   7   0 -14   -2.90    8.30
   7   0 -14   13.00    7.40
   6   0 -14  106.69   11.00
   6   0 -14   85.99   15.30
   6   0 -14   66.29   12.00
   6   0 -14  122.99   17.10
   5   0 -14  157.98   28.80
   5   0 -14  158.58   14.50
   5   0 -14  131.49   26.40
   5   0 -14  144.69   12.10
  -5   0  14  140.29   13.60
  -5   0  14  122.69   19.50
   4   0 -14  112.79   14.30
   4   0 -14   90.99    9.60
   4   0 -14  100.49   14.70
   4   0 -14  106.39   11.60
  -4   0  14   87.99   14.10
  -4   0  14   90.09   23.70
  -4   0  14  103.79   15.40
   3   0 -14   52.49    9.20
   3   0 -14   68.59   10.50
   3   0 -14   50.99    8.40
   3   0 -14   51.59   10.50
  -3   0  14   50.89   11.30
  -3   0  14   68.29   13.20
  -3   0  14   47.30   17.90
   2   0 -14   49.40    8.10
   2   0 -14   56.59   11.00
   2   0 -14   53.79    8.90
   2   0 -14   50.19    8.30
  -2   0  14   64.49   18.90
  -2   0  14   86.59   15.20
  -2   0  14   50.59   11.60
   1   0 -14   95.79   10.00
   1   0 -14  103.89   13.40
   1   0 -14  113.39    9.50
   1   0 -14   95.99    9.70
  -1   0  14   90.69   14.90
  -1   0  14  108.49   21.60
  -1   0  14  112.49   18.00
   0   0 -14   -2.90    4.20
   0   0 -14    5.20    3.30
   0   0 -14    1.50    3.70
   0   0 -14    4.80    4.60
   0   0  14    2.30    6.40
   0   0  14    5.40    5.50
   0   0  14   -7.20    7.20
  -1   0 -14  338.17   17.60
  -1   0 -14  350.26   20.00
  -1   0 -14  342.77   14.50
  -1   0 -14  333.77   19.60
   1   0  14  324.97   22.00
   1   0  14  328.07   29.00
   1   0  14  373.66   24.60
  -2   0 -14    1.80    3.40
  -2   0 -14   -0.10    3.60
   2   0  14   -6.00    4.20
   2   0  14    7.90    9.50
   2   0  14    7.20    6.20
   2   0  14   10.70    8.00
   2   0  14    0.50    3.30
  -3   0 -14   63.79    9.60
  -3   0 -14   64.29    7.20
   3   0  14   51.09   14.10
   3   0  14   57.29   12.20
   3   0  14   98.99   15.70
   3   0  14   56.19   10.70
   3   0  14   85.59    8.80
  -4   0 -14    1.80    4.10
   4   0  14   12.30    6.60
   4   0  14   11.10    5.10
   4   0  14   14.50   10.60
   4   0  14   19.50    9.10
   4   0  14   16.00    7.00
   5   0  14  135.99   16.80
   5   0  14  152.98   14.70
   5   0  14  170.58   12.40
   5   0  14  156.18   18.70
   5   0  14  139.39   13.80
   6   0  14  525.25   34.60
   6   0  14  539.15   27.80
   6   0  14  509.65   33.70
   6   0  14  441.96   27.20
   7   0  14   95.79   18.50
   7   0  14   89.79   12.70
   7   0  14  104.19   20.80
   8   0  14    5.80    4.30
   8   0  14   -2.70   11.30
   8   0  14    4.20   11.10
   9   0  14   26.40   21.60
   9   0  14   52.29   14.70
   7  -1 -14  138.49   20.40
   7  -1 -14  125.59   13.00
   7  -1 -14  139.29   19.30
   7  -1 -14  145.39   15.60
   6  -1 -14   55.99   12.30
   6  -1 -14   48.30    8.80
   6  -1 -14   43.80   10.30
   6  -1 -14   32.70   10.50
   5  -1 -14    6.80    6.80
   5  -1 -14    7.20    7.20
   5  -1 -14   12.70    8.10
   5  -1 -14    2.70    5.30
   4  -1 -14   18.90    6.50
   4  -1 -14   16.90    6.50
   4  -1 -14   17.30    6.80
   4  -1 -14   22.70    8.60
  -4   1  14   21.10    6.30
  -4   1  14   10.50   13.00
  -4   1  14   34.40    9.40
   3  -1 -14   14.20    6.30
   3  -1 -14   24.30    7.80
   3  -1 -14   16.20    5.60
   3  -1 -14   15.70    6.80
  -3   1  14   12.60    7.00
  -3   1  14   19.60    6.90
  -3   1  14   27.80   15.00
   2  -1 -14    4.30    4.20
   2  -1 -14   10.10    6.00
   2  -1 -14    8.90    4.60
   2  -1 -14    6.10    4.80
  -2   1  14    6.50   11.70
  -2   1  14   10.90    6.60
  -2   1  14   11.70    7.00
   1  -1 -14    1.00    4.00
   1  -1 -14    8.10    5.00
   1  -1 -14    4.20    4.10
   1  -1 -14    6.50    5.90
  -1   1  14    7.40    6.40
  -1   1  14    5.50    6.70
  -1   1  14   -0.40    9.70
   0  -1 -14  891.31   34.30
   0  -1 -14  855.61   36.20
   0  -1 -14  901.31   35.20
   0  -1 -14  843.92   37.60
   0   1  14  873.01   40.70
   0   1  14  892.11   40.60
   0   1  14  836.32   50.79
  -1  -1 -14  810.62   34.60
  -1  -1 -14  825.82   30.50
  -1  -1 -14  850.31   32.40
  -1  -1 -14  842.72   36.00
   1   1  14  746.83   45.60
   1   1  14  808.62   38.60
  -2  -1 -14   18.00    5.60
  -2  -1 -14   15.60    2.40
  -2  -1 -14   16.60    5.70
  -2  -1 -14   14.20    4.70
   2   1  14    3.70    6.60
   2   1  14   18.20   10.70
   2   1  14   13.30    6.50
   2   1  14   34.70   12.10
  -3  -1 -14  280.67   14.30
  -3  -1 -14  255.37   15.90
   3   1  14  286.57   20.70
   3   1  14  258.77   23.40
   3   1  14  257.47   17.90
   3   1  14  201.38   21.40
   3   1  14  264.87   16.20
  -4  -1 -14   39.60    8.10
  -4  -1 -14   30.30    5.40
   4   1  14   32.90   12.10
   4   1  14   39.00    7.40
   4   1  14   37.30    8.50
   4   1  14   27.10   10.30
   4   1  14   28.30   10.50
   5   1  14  324.57   25.50
   5   1  14  337.07   24.20
   5   1  14  297.17   19.50
   5   1  14  281.37   23.50
   5   1  14  256.67   19.10
   6   1  14  109.29   20.20
   6   1  14  106.99   19.00
   7   1  14   28.40   13.20
   7   1  14   27.50    8.00
   7   1  14   20.10   10.40
   7   1  14   29.10   14.00
   8   1  14   57.49   16.50
   8   1  14   61.69    9.70
   8   1  14   48.20   18.60
   8   1  14   55.89   14.20
   9   1  14  110.29   21.90
   9   1  14   92.89   19.50
   9   1  14  116.99   10.10
   7  -2 -14  -14.20    6.90
   7  -2 -14   -0.50    7.70
   7  -2 -14   11.30    7.90
   7  -2 -14   -3.90    5.90
   6  -2 -14   73.79   12.80
   6  -2 -14   71.99   14.40
   6  -2 -14   90.99   14.40
   6  -2 -14   71.99   10.90
   5  -2 -14  636.04   34.00
   5  -2 -14  654.13   36.50
   5  -2 -14  641.54   33.20
   5  -2 -14  627.24   30.50
   4  -2 -14  475.15   24.10
   4  -2 -14  430.56   26.10
   4  -2 -14  435.46   27.30
   4  -2 -14  441.36   27.70
  -4   2  14  434.56   39.70
  -4   2  14  443.06   27.30
   3  -2 -14  104.49   14.10
   3  -2 -14   79.49   12.30
   3  -2 -14   96.49   10.10
   3  -2 -14   84.79   11.80
  -3   2  14   88.59    8.80
  -3   2  14   80.49   15.80
  -3   2  14  107.79   24.00
   2  -2 -14   64.49   10.90
   2  -2 -14   48.30    8.40
   2  -2 -14   50.39    8.80
   2  -2 -14   63.39    9.60
  -2   2  14   44.80    8.80
  -2   2  14   67.99   19.90
  -2   2  14   53.89   10.20
   1  -2 -14  603.74   31.30
   1  -2 -14  599.44   27.90
   1  -2 -14  579.24   29.80
   1  -2 -14  632.84   27.90
  -1   2  14  613.74   42.20
  -1   2  14  663.33   33.00
  -1   2  14  620.24   30.50
   0  -2 -14  135.89   10.40
   0  -2 -14  143.29   12.50
   0  -2 -14  127.49   10.30
   0  -2 -14  126.39   11.00
   0   2  14   87.29   22.50
   0   2  14  117.49   22.00
   0   2  14  128.19   13.60
   0   2  14  118.19   12.70
  -1  -2 -14  229.18   12.80
  -1  -2 -14  240.68   15.10
  -1  -2 -14  248.18   16.00
  -1  -2 -14  233.48   13.40
   1   2  14  255.57   17.80
   1   2  14  197.68   22.20
   1   2  14  207.58   16.50
  -2  -2 -14  678.83   26.60
  -2  -2 -14  696.43   25.30
  -2  -2 -14  647.04   30.20
  -2  -2 -14  649.24   29.50
   2   2  14  673.73   32.30
   2   2  14  647.64   32.60
   2   2  14  667.63   39.40
  -3  -2 -14   31.00    2.50
  -3  -2 -14   29.30    6.40
  -3  -2 -14   34.00    5.30
  -3  -2 -14   32.10    7.00
   3   2  14   38.00    6.70
   3   2  14   26.90   12.00
   3   2  14   41.80    9.30
   3   2  14   32.00    9.40
   3   2  14   24.30   10.90
  -4  -2 -14   -2.10    4.00
  -4  -2 -14   -2.40    2.10
  -4  -2 -14    0.90    3.60
   4   2  14    1.00    8.00
   4   2  14    3.90    2.10
   4   2  14    5.70    6.90
   4   2  14    0.60    5.00
   4   2  14    0.90    3.90
  -5  -2 -14    2.90    4.30
   5   2  14   -3.30    6.70
   5   2  14    7.70    8.60
   5   2  14    3.00    8.20
   5   2  14    0.10    1.60
   5   2  14   14.50    5.30
   5   2  14    1.80    4.80
   6   2  14    5.80    9.40
   6   2  14    9.00    9.50
   6   2  14    5.40    8.70
   6   2  14   16.40    6.70
   7   2  14   21.80   10.70
   7   2  14   27.20   12.70
   7   2  14   30.90   12.50
   7   2  14   31.10    8.40
   8   2  14  131.09   20.90
   8   2  14  130.49   19.60
   8   2  14  137.29   13.30
   8   2  14  142.29   24.10
   9   2  14   -7.50    9.20
   9   2  14    5.80    5.40
  10   2  14  104.59   23.70
  10   2  14  127.69   10.10
   7  -3 -14   -7.70    6.80
   6  -3 -14   30.30    8.90
   6  -3 -14   21.40   10.20
   6  -3 -14   29.10    9.70
   6  -3 -14   12.20    6.70
   5  -3 -14   -0.20    5.40
   5  -3 -14   -5.70    6.10
   5  -3 -14    2.00    6.80
   5  -3 -14    0.40    6.00
   4  -3 -14  128.79   14.30
   4  -3 -14  133.19   13.10
   4  -3 -14  142.99   18.00
   4  -3 -14  119.79   13.70
  -4   3  14  108.99   24.20
   3  -3 -14  101.59   14.20
   3  -3 -14   89.69   12.80
   3  -3 -14  101.89   11.10
   3  -3 -14   83.09   12.80
  -3   3  14  125.29   24.70
  -3   3  14   91.09   14.00
   2  -3 -14   -0.20    4.40
   2  -3 -14   -2.40    3.70
   2  -3 -14    0.60    4.80
  -2   3  14    5.00    9.10
  -2   3  14    0.20    3.30
  -2   3  14    1.00    5.50
   1  -3 -14   67.79    9.40
   1  -3 -14   88.29   12.50
   1  -3 -14   75.89   10.00
  -1   3  14   91.99   20.50
  -1   3  14   97.79   13.70
  -1   3  14   82.59    9.50
   0  -3 -14   24.50    6.10
   0  -3 -14   42.60    7.50
   0  -3 -14   46.00    9.10
   0   3  14   28.20    8.30
   0   3  14   21.10   14.60
   0   3  14   28.70    7.80
   0   3  14   50.79   14.70
  -1  -3 -14 1376.36   49.20
  -1  -3 -14 1354.36   52.89
  -1  -3 -14 1356.26   51.19
   1   3  14 1300.97   54.49
   1   3  14 1339.77   52.89
   1   3  14 1323.77   63.89
  -2  -3 -14  536.85   22.00
  -2  -3 -14  531.25   25.80
  -2  -3 -14  530.95   24.70
   2   3  14  546.95   34.20
   2   3  14  395.96   35.50
   2   3  14  523.15   31.60
  -3  -3 -14  117.79    8.00
  -3  -3 -14  126.29   11.30
  -3  -3 -14  129.39   10.90
   3   3  14  125.99   16.30
   3   3  14  128.89   12.90
   3   3  14  122.69   12.70
   3   3  14  113.39   21.20
  -4  -3 -14  463.65   22.70
  -4  -3 -14  451.85   17.50
  -4  -3 -14  427.56   16.00
  -4  -3 -14  409.66   21.70
   4   3  14  458.15   26.20
   4   3  14  421.66   33.00
   4   3  14  416.16   24.00
   4   3  14  413.86   23.30
   4   3  14  466.25   29.90
  -5  -3 -14   47.90    7.60
   5   3  14   75.09   15.50
   5   3  14   46.80   13.70
   5   3  14   91.69   12.90
   5   3  14   82.39    9.30
   5   3  14   53.29   12.20
   6   3  14    3.30    8.90
   6   3  14    1.00    7.90
   6   3  14   -1.70    7.30
   6   3  14   13.80    6.30
   7   3  14   -2.40    9.20
   7   3  14   12.90   10.10
   7   3  14    0.30   10.70
   7   3  14    2.50    5.70
   8   3  14    4.60   10.60
   8   3  14    0.90    5.70
   8   3  14   -0.50    9.40
   8   3  14  -14.20    9.40
   9   3  14    5.30   10.80
   9   3  14   12.00   14.30
   9   3  14   -0.50    5.20
   9   3  14   10.30    9.90
  10   3  14   -3.40    4.80
  10   3  14  -11.90   14.50
  10   3  14  -14.70   10.90
  10   3  14    2.40    9.90
   7  -4 -14   -4.70    7.20
   6  -4 -14   47.30   10.20
   6  -4 -14   23.80   10.40
   6  -4 -14   47.50   12.20
   6  -4 -14   34.90   10.60
   5  -4 -14   29.30    9.70
   5  -4 -14   36.30   11.00
   5  -4 -14   31.50    9.10
   5  -4 -14   34.90    9.10
   4  -4 -14   33.70   10.10
   4  -4 -14   24.50    9.10
   4  -4 -14   18.30    7.00
   4  -4 -14   18.30    8.80
   3  -4 -14   24.70    9.90
   3  -4 -14   32.10    8.30
  -3   4  14   64.69   16.90
   2  -4 -14   59.29   10.30
   2  -4 -14   68.29   11.30
   2  -4 -14   62.09    9.90
  -2   4  14   53.99   12.40
  -2   4  14   84.59   20.20
   1  -4 -14   29.70    8.30
   1  -4 -14   22.20    6.60
   1  -4 -14   20.40    6.60
  -1   4  14   24.50    8.30
  -1   4  14   30.90    5.80
  -1   4  14   18.60   12.20
   0  -4 -14  195.58   13.30
   0  -4 -14  197.78   15.40
   0  -4 -14  207.58   14.80
   0   4  14  208.18   16.60
   0   4  14  187.78   13.30
   0   4  14  113.89   27.50
   0   4  14  199.38   22.70
  -1  -4 -14   30.80    6.60
  -1  -4 -14   40.90    7.60
  -1  -4 -14   30.60    7.90
   1   4  14   35.40    8.20
   1   4  14   25.20   11.60
   1   4  14   34.30   15.60
   1   4  14   18.80    7.60
  -2  -4 -14   48.20    8.10
  -2  -4 -14   53.59    7.30
  -2  -4 -14   60.79   10.10
   2   4  14   67.09   15.40
   2   4  14   36.20   15.60
   2   4  14   55.69   10.10
  -3  -4 -14  102.99   10.70
  -3  -4 -14  102.89    9.90
  -3  -4 -14  106.59    7.50
   3   4  14   83.59   20.20
   3   4  14  118.89   12.10
   3   4  14   99.39   13.30
   3   4  14   99.49   17.30
  -4  -4 -14   21.30    3.50
  -4  -4 -14   21.60    5.70
   4   4  14   17.10   12.70
   4   4  14   24.80   10.60
   4   4  14   17.60    7.90
   4   4  14   22.80    7.80
  -5  -4 -14   -6.50    4.60
  -5  -4 -14    3.30    4.20
  -5  -4 -14   -4.40    3.70
   5   4  14    4.80    6.30
   5   4  14    0.70    5.80
   5   4  14    1.60    4.40
   5   4  14   -0.90    8.00
   5   4  14    2.80    9.50
   6   4  14  131.49   18.40
   6   4  14  112.59   18.70
   6   4  14  148.19   24.70
   6   4  14  139.29   13.90
   7   4  14  149.99   14.90
   7   4  14  139.39   17.40
   7   4  14  189.18   21.00
   7   4  14  168.38   21.80
   8   4  14  309.17   27.70
   8   4  14  298.07   20.70
   8   4  14  297.27   25.50
   9   4  14   18.90   10.90
   9   4  14   30.40    8.20
   9   4  14    9.80   10.80
   9   4  14   22.50   14.80
  10   4  14  -14.50   13.80
  10   4  14  -17.20    8.70
  10   4  14    4.00    5.80
  10   4  14    4.60   11.40
   6  -5 -14   93.09   13.90
   5  -5 -14   97.39   14.80
   5  -5 -14   83.09   17.00
   5  -5 -14   76.69   14.40
   5  -5 -14   71.49   13.20
   4  -5 -14  221.88   19.30
   4  -5 -14  209.18   18.60
   4  -5 -14  225.68   18.60
   3  -5 -14   23.10    8.60
   3  -5 -14   18.70    8.80
   3  -5 -14    2.90    6.20
  -3   5  14    7.80   10.80
   2  -5 -14   39.10    9.60
   2  -5 -14   31.80    9.50
  -2   5  14   44.20   14.90
  -2   5  14   25.20    8.70
   1  -5 -14    5.30    6.00
   1  -5 -14   -0.70    4.50
   1  -5 -14   -2.90    4.30
  -1   5  14   -0.60    5.40
  -1   5  14   -5.80    7.90
   0  -5 -14  152.48   13.30
   0  -5 -14  151.48   12.60
   0  -5 -14  155.38   14.40
   0   5  14  123.19    9.80
   0   5  14   96.29   26.20
   0   5  14  132.49   14.30
   0   5  14  147.99   24.00
  -1  -5 -14   16.50    6.20
  -1  -5 -14   12.40    6.60
  -1  -5 -14   13.60    5.50
   1   5  14   19.10    7.60
   1   5  14    7.70    5.00
   1   5  14    0.20   11.20
   1   5  14   13.70    9.40
  -2  -5 -14   31.80    6.30
  -2  -5 -14   37.10    8.50
  -2  -5 -14   37.30    7.60
   2   5  14   20.40   10.70
   2   5  14   21.20   14.70
   2   5  14   28.00    8.10
  -3  -5 -14  141.39   12.60
  -3  -5 -14  121.29   11.60
  -3  -5 -14  141.09    9.50
   3   5  14  120.89   13.50
   3   5  14  131.79   26.40
   3   5  14  153.08   13.40
   3   5  14  157.48   17.80
  -4  -5 -14  391.76   16.20
  -4  -5 -14  388.86   22.00
  -4  -5 -14  400.96   20.70
   4   5  14  383.36   35.10
   4   5  14  398.66   27.80
  -5  -5 -14   39.90    7.40
  -5  -5 -14   62.39   10.10
   5   5  14   48.40   16.10
   5   5  14   58.79   14.20
  -6  -5 -14   -2.00    3.00
  -6  -5 -14  -11.80    4.40
   6   5  14    9.60    8.80
   6   5  14   -0.20   11.10
   7   5  14  303.27   26.20
   7   5  14  296.37   29.80
   8   5  14  350.46   30.70
   8   5  14  426.26   36.70
   9   5  14   15.00   13.90
   9   5  14    5.90   10.90
   9   5  14   10.20    7.20
   9   5  14   12.40   10.10
  10   5  14    2.60    6.20
  10   5  14   -4.50   10.90
  10   5  14   -7.70   14.90
  10   5  14   -8.50    9.90
   5  -6 -14  -11.00    6.70
   4  -6 -14   10.80    7.60
   3  -6 -14  534.75   31.10
   3  -6 -14  545.15   31.60
   3  -6 -14  560.04   31.50
   2  -6 -14  524.05   29.40
   2  -6 -14  486.85   28.40
   2  -6 -14  456.85   27.50
  -2   6  14  462.15   33.50
   1  -6 -14   -5.70    5.00
   1  -6 -14    1.90    6.00
   1  -6 -14   -4.50    5.70
  -1   6  14    0.40    8.80
  -1   6  14  -11.90    6.80
   0  -6 -14   80.99   11.70
   0  -6 -14   93.09   14.00
   0  -6 -14   86.79   12.10
   0   6  14   86.49    7.70
   0   6  14   86.39   18.80
   0   6  14   64.39   22.40
   0   6  14   99.39   14.40
  -1  -6 -14   78.79   12.10
  -1  -6 -14   94.99   12.70
  -1  -6 -14   69.09    9.80
   1   6  14   74.89    8.50
   1   6  14   57.39   11.00
   1   6  14   33.10   15.00
   1   6  14   84.59   17.20
  -2  -6 -14   19.30    7.70
  -2  -6 -14   18.90    6.60
  -2  -6 -14   24.40    6.00
   2   6  14   22.40    9.70
   2   6  14    5.50   12.70
   2   6  14   23.70    9.80
   2   6  14   10.40    5.70
  -3  -6 -14  241.58   14.00
  -3  -6 -14  293.17   18.10
  -3  -6 -14  258.07   18.00
   3   6  14  251.17   22.40
   3   6  14  190.18   27.30
  -4  -6 -14   -2.80    2.80
  -4  -6 -14   16.60    6.80
  -4  -6 -14    2.80    4.60
   4   6  14   -7.10    5.20
   4   6  14    1.30    9.00
   4   6  14    0.90   12.20
  -5  -6 -14   17.80    3.10
  -5  -6 -14   18.50    5.50
  -5  -6 -14   18.50    6.40
   5   6  14   11.70    7.70
   5   6  14   10.70   13.70
   5   6  14   33.50   11.40
  -6  -6 -14   64.29   10.30
  -6  -6 -14   90.19    9.60
   6   6  14  110.79   18.90
   6   6  14   73.99   13.20
   6   6  14   81.59   21.80
  -7  -6 -14  119.39   10.80
   7   6  14  104.49   15.40
   7   6  14  109.79   20.00
   7   6  14  115.59   24.60
   8   6  14  195.38   31.80
   8   6  14  159.68   16.90
   8   6  14  162.88   20.60
   9   6  14  118.19   22.20
   9   6  14  195.98   28.00
  10   6  14  -30.50   12.30
  10   6  14  -11.20   11.00
   4  -7 -14    4.70    7.90
   2  -7 -14  243.68   19.70
   2  -7 -14  233.48   20.00
   2  -7 -14  238.18   20.00
   1  -7 -14   24.70    8.80
   1  -7 -14   23.20    8.20
   1  -7 -14   33.40   10.20
  -1   7  14   33.30   12.90
   0  -7 -14   -2.30    4.60
   0   7  14    1.20    6.70
   0   7  14   -9.00    7.00
   0   7  14   18.40   14.90
  -1  -7 -14    7.70    6.00
  -1  -7 -14    0.60    6.30
  -1  -7 -14    5.20    5.80
   1   7  14    1.40   14.10
   1   7  14   -1.80    6.50
   1   7  14    0.70    4.30
   1   7  14   16.60    9.50
  -2  -7 -14   21.30    7.00
  -2  -7 -14   24.80    8.90
  -2  -7 -14   19.10    6.00
   2   7  14   22.50    9.30
   2   7  14   28.10    8.30
   2   7  14   -7.80   13.20
  -3  -7 -14  317.27   20.00
  -3  -7 -14  320.27   17.50
  -3  -7 -14  337.77   22.10
   3   7  14  296.07   25.30
   3   7  14  243.48   32.40
  -4  -7 -14  248.28   16.90
  -4  -7 -14  259.87   13.90
   4   7  14  247.28   20.30
   4   7  14  233.58   42.10
   4   7  14  218.38   22.40
  -5  -7 -14   18.30    4.30
  -5  -7 -14   20.60    6.40
  -5  -7 -14   33.00    8.80
   5   7  14   39.70   13.60
   5   7  14   32.20   17.30
   5   7  14   21.90    9.40
  -6  -7 -14   74.09   10.20
  -6  -7 -14   78.09   12.20
   6   7  14   85.39   23.80
   6   7  14   92.09   17.80
  -7  -7 -14   52.99    8.30
   7   7  14   60.79   13.00
   7   7  14   75.59   17.10
   7   7  14   68.89   21.70
   8   7  14  275.67   22.00
   8   7  14  273.67   32.40
   8   7  14  302.37   27.30
   9   7  14  217.48   30.00
   9   7  14  207.08   31.80
  10   7  14  193.98   36.30
   2  -8 -14  362.26   26.30
   2  -8 -14  347.57   25.10
   2  -8 -14  337.07   25.60
   1  -8 -14   69.39   12.70
   1  -8 -14   62.49   12.10
   1  -8 -14   59.09   12.40
   0  -8 -14   12.80    6.70
   0  -8 -14   12.50    7.80
   0  -8 -14    2.00    7.20
   0   8  14   14.70   15.00
   0   8  14    4.70   11.30
  -1  -8 -14  143.79   15.50
  -1  -8 -14  149.79   14.30
   1   8  14  128.69   29.30
   1   8  14  147.39   19.30
   1   8  14  100.69   15.70
  -2  -8 -14   39.50    9.00
  -2  -8 -14   29.20    8.40
  -2  -8 -14   28.40    9.90
   2   8  14   39.70   18.10
   2   8  14   17.90    7.80
   2   8  14   34.70   11.70
   2   8  14   23.00    9.30
  -3  -8 -14  173.18   16.00
  -3  -8 -14  168.88   13.60
  -3  -8 -14  159.48   16.60
   3   8  14  163.88   33.90
   3   8  14  163.88   19.60
  -4  -8 -14   -7.30    6.00
  -4  -8 -14    0.90    5.40
  -4  -8 -14    2.10    4.30
   4   8  14    6.00   14.60
   4   8  14   -4.30    7.80
   4   8  14    7.10    8.40
  -5  -8 -14   54.79    7.10
  -5  -8 -14   74.69   12.50
  -5  -8 -14   50.29    9.20
   5   8  14   33.50   18.50
   5   8  14   39.40   11.80
   5   8  14   64.69   18.60
  -6  -8 -14    7.50    5.40
  -6  -8 -14    0.10    7.30
   6   8  14   23.20   16.30
   6   8  14   10.90   11.00
   6   8  14    4.30    9.40
  -7  -8 -14   22.90    6.90
   7   8  14   18.90   16.30
   7   8  14   15.80   11.00
   7   8  14   21.50   10.80
   8   8  14    6.00   11.10
   8   8  14   -5.30   13.50
   8   8  14  -13.40    6.30
   9   8  14   -8.70   12.70
   9   8  14  -21.20    6.70
   9   8  14  -22.10    8.60
   1  -9 -14   10.70    8.60
   1  -9 -14   -0.30    7.20
   1  -9 -14   -6.70    5.90
   0  -9 -14   86.99   14.90
   0  -9 -14   94.19   14.60
   0   9  14   65.49   22.40
  -1  -9 -14    8.70    8.10
  -1  -9 -14   15.20    9.00
  -1  -9 -14   -4.20    6.80
   1   9  14   24.10   14.50
  -2  -9 -14   45.60   12.50
  -2  -9 -14   34.30    8.90
  -2  -9 -14   18.50    8.50
   2   9  14   42.60   13.60
   2   9  14   20.70   15.60
   2   9  14   61.09   15.00
  -3  -9 -14    2.50    5.70
  -3  -9 -14   -7.40    5.30
  -3  -9 -14    2.50    8.40
   3   9  14   -6.20   12.40
   3   9  14   20.20   10.40
  -4  -9 -14   57.69   10.10
  -4  -9 -14   62.49   13.30
  -4  -9 -14   81.09   12.20
   4   9  14   69.39   21.40
   4   9  14   64.39   16.30
   4   9  14   66.79   14.50
  -5  -9 -14   -8.40    4.80
  -5  -9 -14    5.20    6.70
  -5  -9 -14   -4.40    8.10
   5   9  14    5.20   15.80
   5   9  14  -22.20    8.30
   5   9  14    6.90   10.30
  -6  -9 -14   19.30   12.50
  -6  -9 -14   -0.10    5.90
   6   9  14    4.30   12.00
   6   9  14   -5.30    9.60
   6   9  14   -2.00   14.70
  -7  -9 -14   94.39   11.60
   7   9  14   75.19   16.60
   7   9  14   89.69   18.80
   7   9  14  141.69   34.00
   8   9  14   -1.10   13.50
   8   9  14   -7.80   15.40
   8   9  14    7.50   10.50
   9   9  14    3.60    8.60
   9   9  14  -18.80   10.20
  -1 -10 -14   -6.50    7.80
  -1 -10 -14   -3.40    7.10
  -1 -10 -14   -0.60    7.80
   1  10  14   48.90   18.50
  -2 -10 -14   -3.50    7.20
  -2 -10 -14    1.80    7.90
  -2 -10 -14   -9.80    7.70
  -3 -10 -14   13.30    8.60
  -3 -10 -14   17.20    8.20
  -3 -10 -14   12.10    9.20
   3  10  14   27.90   16.50
  -4 -10 -14  146.69   16.50
  -4 -10 -14  154.18   18.00
  -4 -10 -14  157.98   14.90
   4  10  14  120.39   29.90
  -5 -10 -14   46.90   10.50
  -5 -10 -14   59.39   12.90
   5  10  14  124.99   46.20
   5  10  14   53.49   14.70
   5  10  14   59.99   16.60
  -6 -10 -14   59.49   11.30
   6  10  14   40.90   14.50
   6  10  14   69.39   25.20
   6  10  14   61.59   15.40
   7  10  14   19.90   12.00
   7  10  14   -9.30   15.20
   7  10  14  -23.30   11.30
   8  10  14   -9.70   10.80
   8  10  14   -7.30    9.80
  -3 -11 -14  -21.10    8.50
  -4 -11 -14    8.20   11.70
  -4 -11 -14  -15.40   11.80
  -4 -11 -14  -18.70    6.60
  -5 -11 -14   13.20    9.00
  -5 -11 -14  -25.60   11.30
   6  11  14   -5.50   12.70
   7  11  14  -11.60   12.70
   7  11  14  -32.40   14.60
  -4  -8  15   -3.90   14.30
  -3  -8  15   88.99   20.70
   7   7 -15  -17.90   25.10
   5   7 -15   13.10    7.70
   5   7 -15  -12.40   11.30
  -5  -7  15   -2.50   13.90
  -5  -7  15   -2.90   13.40
   4   7 -15  175.18   19.70
  -4  -7  15  250.37   38.00
  -4  -7  15  234.88   26.50
   3   7 -15   88.39   16.20
  -3  -7  15  126.79   21.90
  -3  -7  15  128.29   26.70
  -2  -7  15  116.99   20.80
  -2  -7  15   77.09   21.20
  -1  -7  15  118.49   30.00
  -1  -7  15  105.59   24.00
   0  -7  15   66.99   21.60
   0  -7  15   64.79   15.90
   7   6 -15   44.60   13.80
   7   6 -15   44.50   18.10
  -7  -6  15   94.49   25.10
   6   6 -15   -1.10    9.90
   6   6 -15   -4.60   10.70
   6   6 -15   -3.10    6.90
   5   6 -15   60.09   16.60
   5   6 -15   33.10   14.70
  -5  -6  15   12.60   14.00
   4   6 -15   16.70    7.50
   4   6 -15    5.70   10.90
   4   6 -15  -10.60   10.00
  -4  -6  15   -2.20   11.60
  -4  -6  15    2.60   11.00
   3   6 -15   77.79   16.70
   3   6 -15   95.39   15.70
  -3  -6  15   85.39   22.40
  -3  -6  15   71.39   18.20
   2   6 -15  430.66   29.40
  -2  -6  15  439.06   35.60
  -2  -6  15  467.45   39.90
  -1  -6  15   14.50   11.00
  -1  -6  15   89.39   20.00
   0  -6  15  143.79   21.20
   0  -6  15  197.28   31.30
   1  -6  15   28.70   13.30
   1  -6  15   46.50   16.10
   1  -6  15   22.30   14.70
   2  -6  15    9.70   15.40
   2  -6  15   13.50    9.00
   3  -6  15   38.40   14.90
  -8  -5  15   38.30   19.80
   7   5 -15  110.79   15.90
   7   5 -15  105.29   29.90
  -7  -5  15  118.29   23.30
   6   5 -15    6.70    7.50
   6   5 -15  -10.30   10.40
   6   5 -15    5.70   11.10
  -6  -5  15    6.30   11.90
   5   5 -15  -14.30    7.70
   5   5 -15    2.00    9.90
   5   5 -15    8.20    7.90
  -5  -5  15  -10.80    8.60
  -5  -5  15    9.90   12.00
   4   5 -15  116.39   16.30
   4   5 -15  116.29   19.80
   4   5 -15  106.99   18.60
  -4  -5  15  153.88   22.20
  -4  -5  15  107.29   24.20
   3   5 -15  339.87   24.80
   3   5 -15  305.47   23.80
   3   5 -15  307.87   25.70
  -3  -5  15  373.96   34.50
  -3  -5  15  351.26   30.40
   2   5 -15  108.39   19.60
   2   5 -15   82.19   12.80
   2   5 -15   71.49   14.00
  -2  -5  15  125.29   27.80
  -2  -5  15  110.39   23.30
   1   5 -15   15.60   10.50
   1   5 -15    7.40    7.40
  -1  -5  15   12.40   10.60
  -1  -5  15    5.60   12.10
  -1  -5  15   15.20   12.80
   0  -5  15  172.98   28.40
   0  -5  15  192.48   25.30
   0  -5  15  125.69   26.40
   1  -5  15   27.40   11.80
   1  -5  15   39.00   16.10
   1  -5  15   17.40   13.70
   2  -5  15   32.50   13.20
   2  -5  15   30.50   14.20
   2  -5  15   17.60   10.30
   3  -5  15   -4.60   11.70
   4  -5  15  300.37   30.30
   4  -5  15  297.17   24.40
   8   4 -15    4.00   14.10
  -8  -4  15   28.20   17.20
   7   4 -15    6.00   13.30
   7   4 -15    8.10    9.80
  -7  -4  15   22.30   14.60
   6   4 -15   31.30   12.40
   6   4 -15   50.69   11.10
   6   4 -15   26.60    9.10
   6   4 -15   40.10   16.60
  -6  -4  15   29.90   14.90
   5   4 -15    9.80    6.90
   5   4 -15   13.90   13.60
   5   4 -15   16.70    7.80
   5   4 -15    7.60    8.80
  -5  -4  15    1.20   12.00
  -5  -4  15   17.60   12.00
   4   4 -15   11.30    7.90
   4   4 -15    5.90    9.00
  -4  -4  15   -9.10    6.60
  -4  -4  15    5.30   11.70
   3   4 -15   27.90   10.10
   3   4 -15   26.20    9.40
  -3  -4  15   19.70   10.50
  -3  -4  15   39.20   14.80
  -3  -4  15   43.80   20.20
   2   4 -15   25.80   10.00
   2   4 -15   12.70    8.10
  -2  -4  15  -13.70   12.30
  -2  -4  15   14.90   11.20
  -2  -4  15   18.90   13.40
   1   4 -15    4.90    6.80
   1   4 -15   17.90    6.50
  -1  -4  15   12.00   11.10
  -1  -4  15   10.70   12.30
  -1  -4  15   25.60   15.70
   0   4 -15   -2.70    7.20
   0  -4  15    2.80    9.90
   0  -4  15    1.30    8.90
   0  -4  15   16.80   12.40
   1  -4  15   44.30   13.30
   1  -4  15   24.90   12.20
   1  -4  15   26.20   11.80
   2  -4  15   10.40   11.80
   2  -4  15    2.30    7.90
   2  -4  15   10.40   11.80
   3  -4  15   68.09   19.30
   3  -4  15   89.79   20.30
   3  -4  15   69.89   14.50
   4  -4  15  314.77   24.90
   4  -4  15  340.77   29.20
   4  -4  15  294.47   29.90
   5  -4  15    0.20   11.80
   5  -4  15   -1.60    6.00
   8   3 -15   92.19   14.50
   8   3 -15  101.69   22.90
   8   3 -15  143.09   21.90
   8   3 -15  117.49   19.20
   7   3 -15  -12.10    5.70
   7   3 -15    1.60    9.70
   7   3 -15   -9.80    6.60
  -7  -3  15    7.90   12.00
   6   3 -15  373.06   26.10
   6   3 -15  322.97   23.40
   6   3 -15  318.47   26.80
  -6  -3  15  357.06   30.00
   5   3 -15   20.80   11.90
   5   3 -15   16.40    8.20
   5   3 -15    9.40    7.80
  -5  -3  15   13.40   10.10
  -5  -3  15   22.30   13.40
   4   3 -15   20.30    9.80
   4   3 -15   22.10    8.00
   4   3 -15   31.20    9.10
  -4  -3  15   33.00   11.00
  -4  -3  15   16.60   11.30
  -4  -3  15   36.50   19.90
   3   3 -15   26.90    7.60
   3   3 -15   28.80    9.40
   3   3 -15   42.60   14.20
  -3  -3  15   39.90   18.10
  -3  -3  15   41.30   14.40
  -3  -3  15   32.80   10.50
   2   3 -15   16.70    7.00
   2   3 -15   35.60   11.70
  -2  -3  15   20.30   13.20
  -2  -3  15    9.10    8.20
  -2  -3  15   19.40   15.40
   1   3 -15  116.09   12.80
   1   3 -15  137.39   14.80
  -1  -3  15  122.19   26.00
  -1  -3  15  135.49   24.00
  -1  -3  15  131.79   19.90
   0   3 -15   18.50    7.80
   0   3 -15    8.60    6.00
   0  -3  15    6.60    8.00
   0  -3  15   -2.90    8.40
   0  -3  15    9.40   11.80
  -1   3 -15   -0.40    5.10
  -1   3 -15    1.30    5.20
   1  -3  15  -12.80    6.90
   1  -3  15   -7.50    6.20
   1  -3  15   13.90   10.90
   2  -3  15   24.20   11.70
   2  -3  15    9.40    8.70
   2  -3  15    0.00    9.50
   3  -3  15  234.88   26.20
   3  -3  15  236.08   20.80
   3  -3  15  188.68   27.80
   4  -3  15  180.38   28.20
   4  -3  15  232.48   20.30
   4  -3  15  204.58   24.20
   5  -3  15  247.48   26.40
   5  -3  15  151.58   25.60
   5  -3  15  192.28   18.00
   6  -3  15   71.29   12.10
   8   2 -15   12.20    8.80
   8   2 -15   -8.40    8.80
   8   2 -15    0.50    9.60
   7   2 -15  117.29   16.00
   7   2 -15  118.59   18.10
   7   2 -15  105.49   17.30
  -7  -2  15  136.99   20.60
   6   2 -15  346.67   25.40
   6   2 -15  280.97   20.80
   6   2 -15  319.37   25.90
  -6  -2  15  303.77   26.10
   5   2 -15   15.60   14.80
   5   2 -15   15.80    7.50
   5   2 -15   18.00    8.50
  -5  -2  15   16.40    9.40
  -5  -2  15   20.40   11.40
   4   2 -15    2.40    5.90
   4   2 -15   -6.30    5.70
   4   2 -15    0.30    7.20
  -4  -2  15   -7.00    8.60
  -4  -2  15   -6.00    6.80
  -4  -2  15  -12.90   11.30
   3   2 -15   37.90   10.30
   3   2 -15   40.90    9.20
   3   2 -15   42.70    8.60
  -3  -2  15   37.10   16.50
  -3  -2  15   56.99   14.80
   2   2 -15  422.86   26.20
   2   2 -15  413.26   21.70
   2   2 -15  405.86   22.90
  -2  -2  15  404.76   30.60
  -2  -2  15  384.46   27.70
  -2  -2  15  369.96   36.70
   1   2 -15  115.69    9.90
   1   2 -15  115.19   11.60
   1   2 -15  134.69   14.50
  -1  -2  15  141.49   19.90
  -1  -2  15  169.98   19.70
  -1  -2  15  145.79   28.00
   0   2 -15  698.63   32.10
   0   2 -15  680.73   34.20
   0  -2  15  690.23   41.10
   0  -2  15  688.83   37.70
   0  -2  15  620.14   45.80
  -1   2 -15   82.99   11.60
  -1   2 -15   81.89   12.00
   1  -2  15  103.89   15.90
   1  -2  15  108.49   18.80
   1  -2  15  123.99   23.20
  -2   2 -15    4.90    5.10
  -2   2 -15    1.10    4.50
   2  -2  15    2.20    8.20
   2  -2  15    4.40    6.40
   2  -2  15    8.60   11.30
   3  -2  15   21.50   12.80
   3  -2  15   53.89   16.40
   3  -2  15   42.10   14.70
   4  -2  15   46.20   14.50
   4  -2  15   61.49   15.80
   4  -2  15   72.49   12.60
   5  -2  15  323.07   29.60
   5  -2  15  298.07   28.20
   5  -2  15  328.57   23.00
   6  -2  15   -9.10    9.20
   6  -2  15   15.40    6.80
   6  -2  15   30.00   12.00
   7  -2  15    4.60    5.60
   7  -2  15  -19.90   10.80
   8   1 -15   64.99   14.10
   7   1 -15  213.68   15.10
   7   1 -15  219.98   19.10
   7   1 -15  219.58   21.30
   7   1 -15  197.48   20.80
   6   1 -15   68.89   12.50
   6   1 -15   94.29   16.90
   6   1 -15   63.89    9.80
   6   1 -15   69.79   13.50
  -6  -1  15   84.69   15.20
   5   1 -15    0.30    6.70
   5   1 -15   18.80    7.60
   5   1 -15   17.90    6.30
   5   1 -15   20.40    8.80
  -5  -1  15   26.70   11.80
  -5  -1  15   12.80    7.70
   4   1 -15   46.90    8.50
   4   1 -15   51.19   10.20
   4   1 -15   41.90   11.00
   4   1 -15   60.09   11.30
  -4  -1  15   64.99   13.60
  -4  -1  15   71.39   24.60
  -4  -1  15   47.10   12.40
   3   1 -15   25.10    7.10
   3   1 -15   26.40    7.70
   3   1 -15   14.70    6.40
   3   1 -15   26.10    9.30
  -3  -1  15   35.80   17.10
  -3  -1  15   27.50   11.10
  -3  -1  15    0.30    6.90
   2   1 -15   -3.30    4.10
   2   1 -15   10.70    6.50
   2   1 -15    3.80    4.70
   2   1 -15    8.10    5.20
  -2  -1  15   -2.30    6.80
  -2  -1  15   21.00    7.80
  -2  -1  15   -6.70    9.30
   1   1 -15  408.76   25.10
   1   1 -15  426.76   21.20
   1   1 -15  438.46   22.80
   1   1 -15  436.86   24.00
  -1  -1  15  421.86   37.80
  -1  -1  15  469.15   29.60
  -1  -1  15  513.25   31.50
   0   1 -15 1206.18   43.50
   0   1 -15 1202.58   47.40
   0   1 -15 1216.18   50.49
   0  -1  15 1214.78   54.39
   0  -1  15 1202.88   66.39
   0  -1  15 1202.88   57.19
  -1   1 -15  101.19   11.40
  -1   1 -15  100.09   10.40
   1  -1  15  109.79   24.30
   1  -1  15   90.59   14.90
   1  -1  15  118.29   18.30
  -2   1 -15   69.39    9.90
  -2   1 -15   87.79   11.50
   2  -1  15   65.49    9.30
   2  -1  15   66.39   12.70
   2  -1  15   79.49   19.40
   2  -1  15   70.79   15.40
  -3   1 -15   15.80    5.80
   3  -1  15   -1.70    8.00
   3  -1  15   -5.70    9.50
   3  -1  15   -4.10    6.20
   4  -1  15   26.50   11.50
   4  -1  15   28.60   12.10
   4  -1  15   41.00   14.40
   5  -1  15  222.08   24.40
   5  -1  15  189.18   22.10
   5  -1  15  218.18   18.50
   6  -1  15   15.60   11.20
   6  -1  15   40.90   14.60
   6  -1  15   25.80    7.90
   7  -1  15    9.50   11.50
   7  -1  15   16.90   13.00
   7  -1  15   11.50    6.50
   8  -1  15   83.59   18.90
   8  -1  15   88.49    9.50
   7   0 -15   40.40    9.80
   7   0 -15   24.70   18.30
   7   0 -15   35.30   11.90
   6   0 -15  209.68   20.40
   6   0 -15  174.88   14.60
   6   0 -15  175.18   17.40
   6   0 -15  215.08   20.20
   5   0 -15  192.38   15.00
   5   0 -15  245.68   20.70
   5   0 -15  210.88   19.80
   5   0 -15  185.38   16.60
   4   0 -15   -0.30    6.20
   4   0 -15    4.20    6.20
   4   0 -15   -1.00    4.30
   4   0 -15    9.20    7.30
  -4   0  15    2.30    6.20
  -4   0  15   13.50    8.00
  -4   0  15   13.30   14.20
   3   0 -15   -4.10    5.30
   3   0 -15    3.00    5.10
   3   0 -15    8.60    5.80
   3   0 -15    0.30    4.60
  -3   0  15   -4.10    6.00
  -3   0  15    0.30    6.00
  -3   0  15    3.60   12.40
   2   0 -15  351.46   20.00
   2   0 -15  312.97   21.60
   2   0 -15  368.76   20.20
   2   0 -15  355.46   20.00
  -2   0  15  300.87   23.50
  -2   0  15  379.76   26.20
  -2   0  15  329.97   34.00
   1   0 -15  535.65   29.10
   1   0 -15  557.34   27.20
   1   0 -15  577.74   25.50
   1   0 -15  568.44   26.30
  -1   0  15  538.85   31.90
  -1   0  15  542.65   42.30
  -1   0  15  518.05   31.10
   0   0 -15   58.69    6.80
   0   0 -15   68.49   11.20
   0   0 -15   54.79    9.20
   0   0 -15   64.19    8.80
   0   0  15   73.79   13.40
   0   0  15   65.59   13.50
   0   0  15   82.59   20.60
  -1   0 -15  506.55   26.10
  -1   0 -15  504.15   19.80
  -1   0 -15  499.95   26.60
  -1   0 -15  533.35   24.00
   1   0  15  487.05   37.30
   1   0  15  537.75   29.80
   1   0  15  483.95   30.40
  -2   0 -15   78.19   11.30
   2   0  15   94.79   19.90
   2   0  15   90.59   16.20
   2   0  15  102.59   14.70
  -3   0 -15   72.19    8.10
  -3   0 -15   52.39    8.70
   3   0  15   75.39   15.00
   3   0  15   57.49   17.10
   3   0  15   67.29    9.60
   3   0  15   62.09   11.70
   3   0  15   60.79   13.60
  -4   0 -15   27.40    9.50
   4   0  15   36.90   11.50
   4   0  15   48.70   10.80
   4   0  15   33.90   13.00
   5   0  15   25.20   13.50
   5   0  15   10.00   10.40
   6   0  15   96.29   18.40
   6   0  15  120.39   12.50
   6   0  15  129.29   13.80
   7   0  15   56.29   16.20
   7   0  15   50.79    9.30
   7   0  15   21.10   13.60
   8   0  15   31.30    7.50
   8   0  15   41.80   17.40
   9   0  15   11.20    3.90
   9   0  15    6.10   13.80
   7  -1 -15    5.70    9.40
   7  -1 -15  -13.50    7.20
   7  -1 -15   -4.20    7.20
   7  -1 -15   -5.10    6.00
   6  -1 -15   31.10    8.00
   6  -1 -15   35.80   10.80
   6  -1 -15   44.70   10.80
   6  -1 -15   48.00   12.50
   5  -1 -15   53.39   12.60
   5  -1 -15   66.09   11.80
   5  -1 -15   48.70   11.90
   5  -1 -15   61.29    9.90
   4  -1 -15  107.79   15.60
   4  -1 -15   86.39   14.10
   4  -1 -15   96.79   10.70
  -4   1  15   86.89   10.70
  -4   1  15  101.69   15.80
  -4   1  15   73.89   22.80
   3  -1 -15   -2.60    4.00
   3  -1 -15    0.60    5.80
   3  -1 -15    7.20    5.90
   3  -1 -15    2.30    6.00
  -3   1  15    0.20   10.30
  -3   1  15    3.60    6.40
  -3   1  15    5.30    6.00
   2  -1 -15   54.49   10.50
   2  -1 -15   67.99   10.40
   2  -1 -15   39.40    8.00
   2  -1 -15   58.99    9.40
  -2   1  15   62.59   12.70
  -2   1  15   64.89   12.60
  -2   1  15   51.39   18.80
   1  -1 -15   11.40    5.30
   1  -1 -15   17.20    5.50
   1  -1 -15   15.80    5.60
  -1   1  15   31.60   13.50
  -1   1  15   12.50    7.20
  -1   1  15   31.80   11.20
   0  -1 -15   50.89    8.70
   0  -1 -15   90.29    8.30
   0  -1 -15   91.29   12.50
   0  -1 -15   89.99    9.40
   0   1  15   94.99   14.70
   0   1  15   77.79   20.30
   0   1  15   92.89   14.30
  -1  -1 -15  401.16   21.60
  -1  -1 -15  435.06   22.20
  -1  -1 -15  377.16   17.30
  -1  -1 -15  415.96   22.70
   1   1  15  379.06   25.10
   1   1  15  370.76   31.70
   1   1  15  405.56   24.60
  -2  -1 -15    6.00    4.10
  -2  -1 -15    5.10    4.80
  -2  -1 -15    8.70    5.00
  -2  -1 -15    6.00    1.90
   2   1  15   15.70    7.00
   2   1  15   10.10    9.20
   2   1  15    9.30    9.90
   2   1  15   -0.80    6.00
  -3  -1 -15   28.80    5.70
  -3  -1 -15   21.60    6.10
   3   1  15   20.70    5.90
   3   1  15   23.30    9.50
   3   1  15   37.50    9.50
   3   1  15   25.90    9.70
   3   1  15   29.30   12.60
  -4  -1 -15   29.10    5.50
   4   1  15   27.10    8.60
   4   1  15   32.10   11.20
   4   1  15   32.40   10.10
   4   1  15   26.70    6.00
   4   1  15   36.90   13.00
   5   1  15  163.18   19.70
   5   1  15  154.68   17.60
   5   1  15  147.89   14.70
   5   1  15  151.78   18.10
   6   1  15   31.60    9.00
   6   1  15   28.00   15.10
   6   1  15   31.10   11.30
   6   1  15   19.40   11.20
   7   1  15   24.10    7.40
   7   1  15    9.80   13.00
   7   1  15   22.40   10.40
   7   1  15   43.10   15.00
   8   1  15   63.59   16.90
   8   1  15   73.49   17.30
   8   1  15   47.30    9.50
   9   1  15   13.70    5.10
   9   1  15    1.20   11.00
   7  -2 -15   29.00    9.40
   7  -2 -15   58.19   12.80
   7  -2 -15   41.30   11.20
   7  -2 -15   76.89   15.30
   6  -2 -15   70.09   11.50
   6  -2 -15   82.29   14.80
   6  -2 -15   62.39   12.40
   6  -2 -15   50.89   13.10
   5  -2 -15   18.30    8.60
   5  -2 -15   21.20    8.90
   5  -2 -15   18.80    8.70
   5  -2 -15    0.20    6.60
   4  -2 -15  390.36   22.70
   4  -2 -15  420.16   26.30
   4  -2 -15  431.76   25.40
  -4   2  15  427.56   39.80
   3  -2 -15   11.30    6.40
   3  -2 -15   20.10    8.40
   3  -2 -15   23.50    7.70
   3  -2 -15    2.50    5.60
  -3   2  15   33.50   17.00
  -3   2  15   15.00    7.30
  -3   2  15    9.70    5.30
   2  -2 -15    3.00    4.80
   2  -2 -15    5.20    6.10
   2  -2 -15    5.40    5.30
   2  -2 -15   -4.90    4.00
  -2   2  15    4.80    5.30
  -2   2  15    6.40   10.70
  -2   2  15    7.80    6.40
   1  -2 -15    3.00    4.10
   1  -2 -15    9.90    5.10
   1  -2 -15    1.10    5.10
   1  -2 -15    5.80    4.90
  -1   2  15   15.10    7.50
  -1   2  15    7.70    9.60
  -1   2  15    5.20    6.10
   0  -2 -15   52.09    9.50
   0  -2 -15   38.40    7.10
   0  -2 -15   38.80    7.50
   0  -2 -15   26.80    6.30
   0   2  15   37.90   15.90
   0   2  15   48.90   10.80
   0   2  15   58.99   17.20
   0   2  15   54.59   11.50
  -1  -2 -15  184.48   14.20
  -1  -2 -15  165.18   12.90
  -1  -2 -15  153.58   10.60
   1   2  15  166.28   25.40
   1   2  15  176.38   15.40
   1   2  15  116.99   25.00
   1   2  15  155.08   14.80
  -2  -2 -15   15.80    5.70
  -2  -2 -15   14.10    4.60
  -2  -2 -15   11.40    5.20
  -2  -2 -15   14.30    3.50
   2   2  15    3.80   10.10
   2   2  15    7.50    7.00
   2   2  15   26.50   12.10
   2   2  15   17.80    7.60
  -3  -2 -15   21.10    4.60
  -3  -2 -15   16.70    5.70
  -3  -2 -15   34.00    7.20
   3   2  15   26.60   12.50
   3   2  15   23.60    9.10
   3   2  15   36.80    9.40
   3   2  15   36.50   13.70
  -4  -2 -15   33.20    6.80
  -4  -2 -15   37.80    5.50
  -4  -2 -15   30.50    7.10
   4   2  15   22.40   11.80
   4   2  15   43.20    9.30
   4   2  15   20.10    9.00
   4   2  15   43.90   14.00
  -5  -2 -15  468.75   23.30
   5   2  15  488.55   26.90
   5   2  15  488.05   33.00
   5   2  15  479.45   30.00
   5   2  15  479.25   34.20
   6   2  15    5.20    6.80
   6   2  15   10.70   10.10
   6   2  15   -5.60    7.80
   6   2  15   13.40    9.10
   7   2  15  879.11   49.60
   7   2  15  896.51   47.80
   7   2  15  915.21   41.00
   7   2  15  899.81   49.90
   8   2  15   12.00   12.40
   8   2  15   23.70    7.40
   8   2  15   20.40   11.00
   8   2  15    2.70   11.20
   9   2  15   16.60   14.60
   9   2  15    1.00   12.10
   9   2  15   29.50    9.90
   6  -3 -15  156.28   17.00
   6  -3 -15  117.99   16.70
   6  -3 -15  167.48   19.50
   6  -3 -15  142.89   14.80
   5  -3 -15  529.45   33.60
   5  -3 -15  566.94   32.10
   5  -3 -15  537.15   31.40
   4  -3 -15   92.89   12.40
   4  -3 -15  135.59   18.00
   4  -3 -15  118.99   15.60
   4  -3 -15   97.59   14.00
  -4   3  15  170.48   31.20
   3  -3 -15    1.50    6.10
   3  -3 -15   12.10    7.40
   3  -3 -15    7.60    5.60
  -3   3  15   -5.10   10.20
  -3   3  15   14.40    8.30
   2  -3 -15    5.60    5.10
   2  -3 -15    2.00    4.10
   2  -3 -15    1.80    5.90
  -2   3  15   16.40   11.80
  -2   3  15   -4.50    4.80
  -2   3  15    9.10    4.10
   1  -3 -15   44.90    8.00
   1  -3 -15   34.70    8.80
   1  -3 -15   49.80    8.40
  -1   3  15   53.49   11.70
  -1   3  15   63.79   17.80
  -1   3  15   50.59    9.90
   0  -3 -15   91.49    9.20
   0  -3 -15   94.69   12.80
   0  -3 -15   98.29   10.50
   0   3  15   58.09   20.10
   0   3  15  111.09   22.60
   0   3  15   75.79   11.40
   0   3  15   89.19   13.50
  -1  -3 -15  122.79   12.20
  -1  -3 -15  118.09   11.00
  -1  -3 -15  124.39   10.20
   1   3  15   63.09   18.10
   1   3  15  102.29   20.10
   1   3  15  122.89   13.70
   1   3  15  122.89   12.90
  -2  -3 -15  276.57   14.70
  -2  -3 -15  291.37   17.50
  -2  -3 -15  304.07   18.70
   2   3  15  285.67   25.90
   2   3  15  276.87   19.50
   2   3  15  282.87   19.60
  -3  -3 -15   88.79    9.70
  -3  -3 -15   93.29    7.40
  -3  -3 -15   89.99    9.90
   3   3  15   78.19   19.20
   3   3  15   81.59   17.00
   3   3  15  102.99   14.00
   3   3  15   80.69   12.90
  -4  -3 -15    8.10    4.60
  -4  -3 -15    4.10    1.40
  -4  -3 -15    7.10    2.90
  -4  -3 -15    2.10    1.60
  -4  -3 -15    8.00    4.80
   4   3  15   -1.90    6.30
   4   3  15   -3.70    4.80
   4   3  15    2.90    8.90
   4   3  15   -1.70    9.70
  -5  -3 -15   53.59    8.60
   5   3  15   58.59   15.00
   5   3  15   64.39   11.60
   5   3  15   55.79   12.30
   5   3  15   41.70   13.10
   6   3  15  311.27   26.80
   6   3  15  306.77   29.00
   6   3  15  301.47   26.90
   6   3  15  282.57   27.80
   7   3  15  411.16   29.30
   7   3  15  377.76   30.70
   7   3  15  450.85   34.70
   7   3  15  421.66   25.10
   8   3  15   -4.80   10.90
   8   3  15   -6.40    8.40
   8   3  15   14.80    6.90
   8   3  15    4.80   12.10
   9   3  15  -12.80   11.20
   9   3  15  -17.70   10.80
   6  -4 -15   16.20   16.60
   5  -4 -15   46.60   12.70
   5  -4 -15   47.60   10.10
   5  -4 -15   45.10   12.20
   5  -4 -15   49.80   12.40
   4  -4 -15  306.27   21.70
   4  -4 -15  292.97   21.50
   4  -4 -15  293.67   22.10
   4  -4 -15  331.77   25.10
   3  -4 -15  921.91   40.70
   3  -4 -15  871.01   40.40
   3  -4 -15  889.91   42.00
  -3   4  15  791.12   53.09
   2  -4 -15    5.50    6.00
   2  -4 -15   -1.60    4.70
   2  -4 -15   -3.30    4.70
  -2   4  15   12.20    7.70
  -2   4  15   -7.30    7.70
   1  -4 -15   95.99   10.80
   1  -4 -15  113.99   13.20
   1  -4 -15  107.99   11.70
  -1   4  15  103.49   21.70
  -1   4  15   95.39    8.70
  -1   4  15   83.89   13.00
   0  -4 -15  225.58   17.10
   0  -4 -15  196.18   13.90
   0  -4 -15  215.28   15.20
   0   4  15  122.19   30.20
   0   4  15  199.28   14.40
   0   4  15  178.68   22.30
   0   4  15  197.18   17.20
  -1  -4 -15   39.30    7.30
  -1  -4 -15   37.10    7.70
   1   4  15   40.10    8.60
   1   4  15   42.30    9.90
   1   4  15   39.80   17.50
   1   4  15   46.40   14.60
  -2  -4 -15  123.79   11.10
  -2  -4 -15  109.19   11.50
  -2  -4 -15  110.29    9.20
   2   4  15  124.19   13.00
   2   4  15   86.99   22.90
   2   4  15  113.39   20.10
   2   4  15  102.59   12.00
  -3  -4 -15    0.90    3.00
  -3  -4 -15   -0.90    3.60
  -3  -4 -15   -6.30    3.30
   3   4  15    9.50    8.90
   3   4  15    9.30    8.30
   3   4  15    8.50    6.20
   3   4  15    4.60    5.60
  -4  -4 -15    2.90    2.80
  -4  -4 -15    1.80    4.10
  -4  -4 -15    1.90    3.70
   4   4  15    2.70    9.80
   4   4  15    0.10    8.70
   4   4  15   -0.60    5.00
   4   4  15   -7.00    5.30
  -5  -4 -15   28.80    7.10
  -5  -4 -15   32.10    7.00
   5   4  15   20.10   11.40
   5   4  15   23.10   12.60
   5   4  15   23.00    9.70
   5   4  15   19.40    8.10
   6   4  15  111.99   22.60
   6   4  15  112.79   16.00
   6   4  15  101.19   17.00
   7   4  15    5.30    6.80
   7   4  15   -4.10   10.60
   7   4  15    3.40    8.80
   7   4  15    6.20   10.30
   8   4  15  283.07   29.90
   8   4  15  263.87   19.50
   8   4  15  238.18   23.50
   8   4  15  253.67   25.50
   9   4  15    2.70    5.70
   9   4  15    6.80   15.00
   9   4  15   -4.10    9.80
   9   4  15   -7.90    8.80
  10   4  15   31.00   16.40
  10   4  15   54.59   20.90
   5  -5 -15    3.40    7.80
   5  -5 -15    4.10    7.20
   5  -5 -15   27.40   10.70
   4  -5 -15  178.58   17.50
   4  -5 -15  222.08   18.20
   4  -5 -15  225.18   19.50
   3  -5 -15  156.88   16.50
   3  -5 -15  160.18   16.90
   3  -5 -15  178.58   16.20
  -3   5  15  180.18   28.80
   2  -5 -15    2.10    6.00
   2  -5 -15    0.00    5.70
   2  -5 -15    2.10    6.70
  -2   5  15    7.70   11.60
   1  -5 -15    6.00    5.40
   1  -5 -15    8.70    6.60
   1  -5 -15    4.90    6.00
  -1   5  15   21.20   14.60
  -1   5  15    2.60    6.50
  -1   5  15   12.60    3.70
   0  -5 -15   14.30    6.20
   0  -5 -15   -2.40    4.20
   0  -5 -15   10.10    6.50
   0   5  15    4.60    4.60
   0   5  15   -9.40    6.50
   0   5  15    5.50   13.20
   0   5  15   13.10    7.20
  -1  -5 -15  338.77   21.60
  -1  -5 -15  355.76   20.80
  -1  -5 -15  347.17   18.70
   1   5  15  330.07   22.60
   1   5  15  349.17   19.70
   1   5  15  313.97   28.40
  -2  -5 -15  135.49   12.20
  -2  -5 -15  126.49   14.50
  -2  -5 -15  120.29   10.20
   2   5  15   83.49   23.00
   2   5  15  116.89   13.40
   2   5  15  124.19   12.20
   2   5  15  150.48   22.20
  -3  -5 -15  309.57   18.20
  -3  -5 -15  301.37   15.00
  -3  -5 -15  312.27   19.90
   3   5  15  280.67   24.90
   3   5  15  237.28   29.80
   3   5  15  261.77   20.10
   3   5  15  270.27   18.80
  -4  -5 -15    5.90    5.40
  -4  -5 -15   -4.20    4.30
  -4  -5 -15    0.80    2.80
   4   5  15   14.20    7.50
   4   5  15    8.00   10.00
   4   5  15    2.60   10.00
   4   5  15   13.30    7.60
  -5  -5 -15  105.19   16.70
  -5  -5 -15  111.99   11.20
   5   5  15  139.09   26.80
   5   5  15  123.69   17.20
   5   5  15  113.59   19.50
   5   5  15  125.39   14.10
  -6  -5 -15   33.60    7.30
   6   5  15   41.90   16.20
   6   5  15   38.80   16.20
   6   5  15   63.49   15.30
   7   5  15  232.78   39.30
   7   5  15  248.98   19.60
   7   5  15  205.58   22.70
   7   5  15  192.58   20.00
   8   5  15   63.99   21.30
   8   5  15   25.50   12.40
   8   5  15   54.99   11.30
   8   5  15   34.00   13.40
   9   5  15  224.88   23.10
   9   5  15  228.08   29.10
   9   5  15  188.88   28.80
   9   5  15  173.78   23.10
   4  -6 -15   19.40    9.30
   4  -6 -15   -1.00    7.50
   4  -6 -15   16.80    8.80
   3  -6 -15   86.29   14.00
   3  -6 -15   75.69   13.40
   3  -6 -15   91.99   14.00
   2  -6 -15   28.00    9.10
   2  -6 -15   33.60    9.30
   2  -6 -15   43.80   10.70
  -2   6  15   55.49   17.20
   1  -6 -15    4.20    6.80
   1  -6 -15    8.80    6.50
   1  -6 -15   10.40    7.70
  -1   6  15   -3.50    9.70
  -1   6  15    3.50    8.70
   0  -6 -15  150.88   13.50
   0  -6 -15  138.09   14.90
   0  -6 -15  163.58   14.90
   0   6  15  122.99   22.00
   0   6  15  129.89    9.70
   0   6  15  146.99   15.50
   0   6  15   74.79   23.90
  -1  -6 -15   15.40    7.20
  -1  -6 -15   15.90    6.00
  -1  -6 -15   15.80    6.80
   1   6  15   13.20    7.70
   1   6  15   11.40    5.70
   1   6  15   26.80   17.10
   1   6  15   29.30   11.80
  -2  -6 -15   54.89    8.50
  -2  -6 -15   40.20    8.50
  -2  -6 -15   64.59   11.40
   2   6  15   56.79    9.70
   2   6  15   46.50   10.70
   2   6  15   59.49   16.40
   2   6  15   44.70   18.40
  -3  -6 -15   82.99   11.20
   3   6  15   58.49   19.60
   3   6  15   93.69   13.20
   3   6  15   84.79   13.50
   3   6  15   74.49   16.60
  -4  -6 -15    1.90    4.70
  -4  -6 -15    4.30    5.80
  -4  -6 -15    0.60    3.20
   4   6  15   -0.90    8.30
   4   6  15  -10.20   10.40
  -5  -6 -15  117.89   11.60
  -5  -6 -15  100.79   13.80
   5   6  15  105.99   24.60
   5   6  15  134.99   22.10
  -6  -6 -15   42.50   11.80
  -6  -6 -15   44.90    7.90
   6   6  15   59.49   20.80
   6   6  15   55.89   16.50
  -7  -6 -15   91.29   10.40
   7   6  15   86.09   18.60
   7   6  15  117.59   26.00
   8   6  15   24.10   17.20
   8   6  15   -8.40    8.30
   9   6  15  -14.10   11.00
  10   6  15   -9.50   14.10
   3  -7 -15   12.60    8.10
   3  -7 -15   18.80    8.40
   3  -7 -15   23.40    9.40
   2  -7 -15   37.00    9.80
   2  -7 -15   47.80   11.20
   2  -7 -15   49.90   11.50
   1  -7 -15   37.30    9.70
   1  -7 -15   38.10    9.40
   1  -7 -15   43.70   10.60
  -1   7  15   40.70   14.00
   0  -7 -15  -10.50    4.40
   0  -7 -15   -3.20    6.00
   0  -7 -15   -1.40    5.70
   0   7  15  -14.00    7.40
   0   7  15   24.00   11.70
   0   7  15   21.70   17.60
  -1  -7 -15   12.00    7.90
  -1  -7 -15   20.30    7.60
  -1  -7 -15   21.10    7.60
   1   7  15   15.30   15.90
   1   7  15   13.80    8.20
   1   7  15   18.20    6.50
   1   7  15   23.30   12.40
  -2  -7 -15   35.00    9.90
  -2  -7 -15   44.80    8.70
  -2  -7 -15   25.10    7.90
   2   7  15   39.60   13.20
   2   7  15   29.10    9.40
   2   7  15   19.80   16.00
   2   7  15   30.30    7.90
  -3  -7 -15   -3.90    3.60
  -3  -7 -15    6.00    6.00
  -3  -7 -15   11.50    6.90
   3   7  15   -7.80    6.40
   3   7  15    1.00   14.30
   3   7  15    8.10   11.10
   3   7  15   -4.30    5.50
  -4  -7 -15    9.90    6.50
  -4  -7 -15   -2.30    3.90
  -4  -7 -15   -2.50    4.80
   4   7  15    4.60   10.90
   4   7  15   -4.60   12.50
  -5  -7 -15   -5.70    3.20
  -5  -7 -15    4.60    5.80
  -5  -7 -15   -2.90    5.30
   5   7  15   12.30   15.10
   5   7  15    4.00    7.90
  -6  -7 -15  172.18   14.20
  -6  -7 -15  200.18   23.50
   6   7  15  172.98   18.10
   6   7  15  162.18   20.40
   6   7  15  197.48   28.90
  -7  -7 -15   59.59    9.20
   7   7  15   78.59   17.60
   7   7  15   61.69   21.20
   7   7  15   66.59   13.60
   8   7  15    0.20    8.00
   8   7  15   23.10   13.10
   8   7  15   27.10   16.40
   9   7  15  118.29   22.80
   2  -8 -15   41.40   11.00
   2  -8 -15   52.59   11.70
   2  -8 -15   28.60   10.50
   1  -8 -15   42.90   11.10
   1  -8 -15   48.10   11.10
   1  -8 -15   38.30   11.60
   0  -8 -15    2.60    6.50
   0  -8 -15   11.70    7.80
   0  -8 -15   18.20    8.50
   0   8  15   -0.90   11.70
   0   8  15   23.10   16.20
  -1  -8 -15    7.00    6.10
  -1  -8 -15   10.10    7.00
  -1  -8 -15   16.80    8.90
   1   8  15   -0.20    9.10
   1   8  15   20.40   11.40
   1   8  15   17.40   16.70
  -2  -8 -15   26.60    9.80
  -2  -8 -15   17.40    7.60
  -2  -8 -15   14.40    6.80
   2   8  15    5.00    6.80
   2   8  15   -3.30   11.50
   2   8  15   24.00    8.80
   2   8  15   44.20   14.80
  -3  -8 -15   29.70    8.10
  -3  -8 -15   54.79   12.00
  -3  -8 -15   38.00    8.10
   3   8  15   53.09   14.40
   3   8  15   60.59   23.10
  -4  -8 -15   99.09   14.70
  -4  -8 -15  103.89   10.00
  -4  -8 -15   93.39   12.70
   4   8  15  112.29   19.50
   4   8  15   74.79   23.90
  -5  -8 -15  -10.50    4.40
  -5  -8 -15    3.50    6.50
   5   8  15   -8.10    9.70
   5   8  15    2.80   12.70
  -6  -8 -15    8.70    6.30
   6   8  15   28.20   17.40
   6   8  15    3.00    9.10
   6   8  15   24.70   13.40
  -7  -8 -15    8.20    6.30
   7   8  15    6.10    9.60
   7   8  15   45.70   20.80
   7   8  15   26.40   10.20
   8   8  15   89.49   19.70
   8   8  15   87.49   16.20
   8   8  15   84.19   26.70
   9   8  15  -14.80    6.50
   9   8  15   -7.60   17.00
   9   8  15    5.10   11.50
   1  -9 -15  187.98   31.40
   1  -9 -15   90.99   15.70
   0  -9 -15   -3.30    7.40
  -1  -9 -15   27.00    9.80
  -1  -9 -15   17.30    7.10
   1   9  15   34.30   17.50
  -2  -9 -15   27.30    9.00
  -2  -9 -15   26.80   10.70
  -2  -9 -15   25.20    9.20
   2   9  15   52.29   15.70
   2   9  15   10.70   12.10
  -3  -9 -15    3.70    5.60
  -3  -9 -15   19.30   10.00
   3   9  15   28.50   12.00
   3   9  15    2.20   13.40
  -4  -9 -15   15.70    7.20
  -4  -9 -15   36.30   10.80
  -4  -9 -15   13.90    6.90
   4   9  15   30.10   12.80
   4   9  15   19.30   10.00
   4   9  15   17.60   16.20
  -5  -9 -15    7.30    9.20
  -5  -9 -15   -4.60    6.10
   5   9  15  -13.50   11.00
   5   9  15   -6.30    9.40
   5   9  15   11.20   14.50
  -6  -9 -15   -4.00    6.00
   6   9  15   -2.60    9.80
   6   9  15   17.60   16.70
   6   9  15   15.20   12.60
  -7  -9 -15   18.80    7.60
   7   9  15   14.60   12.40
   7   9  15   28.70   11.50
   8   9  15   40.40   14.30
   8   9  15   45.50   22.40
   8   9  15   42.50   17.00
  -1 -10 -15   64.59   13.40
  -1 -10 -15   31.00   10.90
   1  10  15   99.09   24.20
  -2 -10 -15  170.48   24.90
  -2 -10 -15  114.99   15.50
  -2 -10 -15  147.19   18.30
   2  10  15  104.49   24.80
  -3 -10 -15   -9.40    7.10
  -3 -10 -15   -1.00    8.40
   3  10  15   25.80   16.30
  -4 -10 -15  -10.00    5.70
  -4 -10 -15  -11.00    6.70
  -4 -10 -15    5.50   10.00
   4  10  15   18.10   13.50
   4  10  15   18.30   15.80
  -5 -10 -15   12.40   10.00
  -5 -10 -15   -6.70    7.10
   5  10  15   -9.80   12.50
   5  10  15   39.10   20.00
   5  10  15    4.50   11.10
  -6 -10 -15    6.80    7.30
   6  10  15   32.30   19.90
   6  10  15   38.80   15.60
   6  10  15    1.60   10.40
  -7 -10 -15    5.80   10.50
   7  10  15   47.80   24.70
   8  10  15   10.60   13.10
   8  10  15  -27.50   12.10
  -3 -11 -15   -2.90   10.60
  -3 -11 -15    2.70   10.80
  -4 -11 -15    2.50   11.20
  -5 -11 -15  -21.70    8.60
  -6 -11 -15    2.00    9.30
   6  11  15   25.90   16.00
   7  11  15   -9.50   17.60
  -4  -7  16   14.50   14.00
   3   7 -16   68.19   21.90
  -3  -7  16   30.40   27.60
  -2  -7  16   83.39   17.80
  -2  -7  16   76.29   23.90
  -1  -7  16   32.70   13.50
   7   6 -16   29.90   16.80
   6   6 -16   14.00   14.80
   6   6 -16   12.50   12.90
  -6  -6  16   -7.20   12.70
   5   6 -16   20.40   12.60
   5   6 -16    7.20   15.00
   5   6 -16   33.10   11.00
  -5  -6  16   23.00   16.20
  -5  -6  16    4.90   12.20
   4   6 -16   32.80   12.00
   4   6 -16   15.70    8.80
  -4  -6  16   41.20   16.90
   3   6 -16   23.40   10.20
  -3  -6  16   28.10   14.10
  -3  -6  16   23.00   16.10
   2   6 -16   43.70   11.40
  -2  -6  16   26.50   12.00
  -2  -6  16   25.60   15.30
  -1  -6  16   13.00   11.00
   0  -6  16   -0.30   12.10
   0  -6  16    0.60   15.40
   0  -6  16    5.80    8.80
   1  -6  16   41.10   15.40
   1  -6  16    0.40    9.10
   2  -6  16   33.60   28.30
   7   5 -16   48.60   16.60
   7   5 -16   51.79   15.40
  -7  -5  16   65.19   18.10
   6   5 -16    7.60    8.20
   6   5 -16   22.90   14.20
   6   5 -16   20.80   12.20
  -6  -5  16    7.50   13.80
   5   5 -16   19.50   12.20
   5   5 -16   20.20   11.80
   5   5 -16   23.30   10.40
  -5  -5  16   12.20   14.20
  -5  -5  16   31.70   14.10
   4   5 -16   44.70   14.30
   4   5 -16   60.49   12.00
   4   5 -16   34.40   13.80
  -4  -5  16   83.59   19.20
  -4  -5  16   46.70   17.30
   3   5 -16  165.88   18.20
   3   5 -16  164.18   17.70
   3   5 -16  169.48   22.80
  -3  -5  16  159.58   23.90
  -3  -5  16  219.08   33.30
   2   5 -16  250.27   22.60
   2   5 -16  256.47   20.90
  -2  -5  16  212.88   24.70
  -2  -5  16  281.07   30.70
  -2  -5  16  261.57   33.10
   1   5 -16   -0.10    6.10
  -1  -5  16   13.10   13.60
  -1  -5  16  -13.60   13.30
  -1  -5  16   -1.20    9.30
   0  -5  16   61.79   19.20
   0  -5  16   67.09   18.70
   0  -5  16   70.69   15.90
   1  -5  16   33.50   15.10
   1  -5  16  -24.50    9.10
   1  -5  16   27.40   11.70
   2  -5  16  146.19   26.20
   2  -5  16  138.29   30.80
   2  -5  16  105.69   18.50
   3  -5  16   54.99   14.20
   3  -5  16   55.39   17.40
  -8  -4  16   79.59   21.70
   7   4 -16  243.28   35.20
   7   4 -16  287.97   27.00
   7   4 -16  296.37   23.40
   7   4 -16  263.47   23.50
  -7  -4  16  294.87   30.20
   6   4 -16   48.20   11.60
   6   4 -16   57.49   15.70
   6   4 -16   74.39   21.70
   6   4 -16   55.49   18.90
  -6  -4  16   54.99   16.70
   5   4 -16    0.30    6.50
   5   4 -16    3.50    8.90
   5   4 -16   15.40   13.10
   5   4 -16   18.90    8.50
  -5  -4  16   19.40   15.30
  -5  -4  16   25.80   13.90
   4   4 -16   22.20    9.40
   4   4 -16   23.40   10.30
  -4  -4  16   22.90   15.00
  -4  -4  16   36.30   14.10
   3   4 -16  131.99   17.90
   3   4 -16  181.28   19.00
   3   4 -16  179.58   17.30
  -3  -4  16  207.48   31.30
  -3  -4  16  217.58   37.70
  -3  -4  16  179.98   20.60
   2   4 -16    2.90    7.60
   2   4 -16   -1.50    6.50
   2   4 -16    2.00    6.40
  -2  -4  16   -0.90    8.40
  -2  -4  16    3.60   11.40
  -2  -4  16  -12.40    7.40
   1   4 -16  320.27   24.20
   1   4 -16  328.97   20.30
   1   4 -16  344.67   23.70
  -1  -4  16  400.66   34.70
   0   4 -16    4.80    6.90
   0  -4  16    8.40    9.40
   0  -4  16    8.20   12.20
   0  -4  16   31.70   17.10
   1  -4  16   10.90    8.70
   1  -4  16   11.70   12.00
   1  -4  16    2.30   10.70
   2  -4  16   18.50   13.00
   2  -4  16   -0.60    6.70
   2  -4  16   13.40   13.70
   3  -4  16    2.00    6.50
   3  -4  16   -2.10   11.40
   4  -4  16  258.07   27.70
   4  -4  16  227.78   23.60
   5  -4  16   10.60   13.30
   7   3 -16   34.00   17.10
   7   3 -16   46.50   12.00
   7   3 -16   46.40   12.20
  -7  -3  16   36.40   16.10
   6   3 -16   48.80   11.00
   6   3 -16   47.10   11.00
   6   3 -16   43.90   12.00
  -6  -3  16   40.60   15.30
   5   3 -16    4.60    7.20
   5   3 -16   17.10   10.20
   5   3 -16   18.40    7.10
  -5  -3  16   27.70   14.00
  -5  -3  16   38.60   13.60
   4   3 -16    6.20    8.20
   4   3 -16    1.10    6.40
   4   3 -16    8.00    7.30
  -4  -3  16   15.60   14.60
  -4  -3  16    9.30    9.60
   3   3 -16   53.39   11.20
   3   3 -16   41.20   11.70
   3   3 -16   59.49   10.30
  -3  -3  16   51.69   20.70
  -3  -3  16   48.10   18.10
  -3  -3  16   61.59   15.40
   2   3 -16  114.39   18.00
   2   3 -16  109.49   16.20
  -2  -3  16  121.89   19.70
  -2  -3  16   98.09   21.80
   1   3 -16  712.63   34.40
   1   3 -16  629.14   35.50
  -1  -3  16  633.84   39.10
  -1  -3  16  666.03   50.69
  -1  -3  16  678.33   51.19
   0   3 -16   83.59   12.90
   0   3 -16   53.79   11.50
   0  -3  16   81.19   16.10
   0  -3  16   62.49   21.40
   0  -3  16   88.59   23.10
  -1   3 -16  122.39   13.90
  -1   3 -16  127.99   23.40
   1  -3  16  145.59   28.80
   1  -3  16  123.99   25.40
   1  -3  16  153.68   25.00
   2  -3  16   23.60   13.80
   2  -3  16   40.20   17.90
   2  -3  16   44.90   12.50
   3  -3  16    7.70   11.00
   3  -3  16   14.40    8.30
   3  -3  16   28.20   13.40
   4  -3  16   34.40   10.60
   4  -3  16   28.60   12.60
   5  -3  16   -1.70   11.50
   5  -3  16   53.29   14.60
   6  -3  16   11.50   14.40
   6  -3  16   15.40    9.50
   7   2 -16   -5.80   10.40
   7   2 -16   14.50    7.80
   7   2 -16   27.50   15.50
   6   2 -16   12.40    8.90
   6   2 -16   11.00    8.30
   6   2 -16   18.90    9.10
  -6  -2  16   28.00   12.60
   5   2 -16    3.60    6.00
   5   2 -16   -8.00    4.70
   5   2 -16   -9.20    7.10
  -5  -2  16   -4.30   10.70
  -5  -2  16   11.70   11.50
   4   2 -16   14.80    8.00
   4   2 -16   24.10   10.80
   4   2 -16    8.10    7.40
  -4  -2  16    2.20   13.30
  -4  -2  16   16.40   16.70
  -4  -2  16   11.70   11.10
   3   2 -16  202.18   19.70
   3   2 -16  223.68   17.30
  -3  -2  16  233.98   44.50
  -3  -2  16  237.78   22.50
  -3  -2  16  223.38   24.70
   2   2 -16   77.19   12.10
   2   2 -16   46.80    8.40
   2   2 -16   68.49   13.20
  -2  -2  16   37.10   17.50
  -2  -2  16   35.10   11.30
  -2  -2  16   83.89   18.30
   1   2 -16    3.30    6.10
   1   2 -16    7.90    6.20
  -1  -2  16    0.30    9.70
  -1  -2  16   10.70    8.80
  -1  -2  16    4.40   11.50
   0   2 -16   21.10    7.30
   0   2 -16   26.40    8.20
   0  -2  16   31.10   11.30
   0  -2  16   35.70   14.20
   0  -2  16   14.80   12.80
  -1   2 -16   -6.10    5.30
  -1   2 -16    1.70    5.60
   1  -2  16   11.20    7.90
   1  -2  16   -3.70    9.90
   1  -2  16    4.40   10.50
  -2   2 -16  105.19   18.60
  -2   2 -16   79.89   11.90
   2  -2  16  121.49   17.40
   2  -2  16   87.09   21.20
   3  -2  16  129.59   23.00
   3  -2  16  151.68   17.50
   3  -2  16  149.99   26.70
   4  -2  16   28.80   13.60
   4  -2  16   17.60   14.80
   4  -2  16   10.70    7.90
   5  -2  16   98.59   18.90
   5  -2  16  121.39   20.90
   5  -2  16  105.09   15.80
   6  -2  16   49.20   15.50
   6  -2  16  100.09   19.00
   7  -2  16   67.79   15.30
   7  -2  16   31.60    8.60
   7   1 -16  169.28   19.00
   7   1 -16  169.68   18.70
   6   1 -16   63.89   13.10
   6   1 -16   38.70   11.40
   6   1 -16   40.80   10.60
   6   1 -16   46.00    8.90
  -6  -1  16   50.19   14.20
   5   1 -16   71.39   11.10
   5   1 -16   58.69   11.80
   5   1 -16   62.29   12.20
   5   1 -16   76.39   14.70
  -5  -1  16   87.79   15.00
   4   1 -16   -5.60    5.90
   4   1 -16    2.20    5.30
   4   1 -16    5.20    6.50
   4   1 -16   -8.90    6.10
  -4  -1  16   18.40    8.00
  -4  -1  16   -4.70   12.60
  -4  -1  16    5.60    7.60
   3   1 -16    0.80    5.60
   3   1 -16   -2.70    6.10
   3   1 -16    2.90    5.50
   3   1 -16   -3.60    4.70
  -3  -1  16   -3.60    7.80
  -3  -1  16    0.60    7.50
  -3  -1  16    6.90   13.50
   2   1 -16   30.70    7.30
   2   1 -16   42.00   10.30
   2   1 -16   25.70    7.00
   2   1 -16   23.20    7.30
  -2  -1  16   44.50   13.60
  -2  -1  16   41.20   19.00
  -2  -1  16   36.50   11.50
   1   1 -16   13.40    7.10
   1   1 -16    9.60    5.90
   1   1 -16   15.50    5.10
  -1  -1  16   11.10    8.30
  -1  -1  16   26.80    9.40
  -1  -1  16    9.90   14.30
   0   1 -16   31.30    8.30
   0   1 -16   43.40    8.80
   0   1 -16   28.50    5.20
   0  -1  16   44.20   13.80
   0  -1  16   40.40   11.10
   0  -1  16   35.20   16.90
  -1   1 -16   15.50    6.20
  -1   1 -16   17.50    6.00
   1  -1  16   24.30   12.50
   1  -1  16   24.70   12.60
   1  -1  16   20.70    8.70
  -2   1 -16   86.09   11.50
  -2   1 -16   85.49   12.30
   2  -1  16   71.69   15.90
   2  -1  16   80.09   14.20
   2  -1  16   78.09   20.70
  -3   1 -16   42.40    8.10
   3  -1  16   27.70   13.00
   3  -1  16   26.00   12.80
   3  -1  16   53.09   12.50
   4  -1  16   43.50   13.60
   4  -1  16   11.00   11.70
   4  -1  16   19.70    9.40
   5  -1  16  293.67   27.80
   5  -1  16  327.17   23.50
   6  -1  16   53.99   15.00
   6  -1  16   43.40   15.10
   6  -1  16   40.30   10.60
   7  -1  16   40.70   12.70
   7   0 -16   64.79   15.70
   7   0 -16  132.49   18.80
   7   0 -16   97.09   14.70
   7   0 -16   68.39   11.70
   6   0 -16   14.60    9.30
   6   0 -16    4.30    9.50
   6   0 -16   14.10    8.40
   6   0 -16   10.50    6.30
   5   0 -16  408.46   25.40
   5   0 -16  423.46   27.30
   5   0 -16  376.06   27.00
   5   0 -16  372.06   21.90
  -5   0  16  404.16   25.20
   4   0 -16  113.19   13.10
   4   0 -16  116.49   17.30
   4   0 -16  107.29   14.70
   4   0 -16  101.49   11.00
  -4   0  16  129.79   18.80
  -4   0  16  142.29   31.00
  -4   0  16  126.19   15.10
   3   0 -16    4.50    6.10
   3   0 -16   -0.10    6.20
   3   0 -16    1.30    5.90
   3   0 -16    3.50    5.30
  -3   0  16   19.70    8.90
  -3   0  16    4.90   13.70
  -3   0  16   28.90    9.00
   2   0 -16   54.79   10.10
   2   0 -16   49.60    9.40
   2   0 -16   55.79    9.20
   2   0 -16   46.80   10.50
  -2   0  16   66.39   21.40
  -2   0  16   62.29   13.90
  -2   0  16   48.60   12.00
   1   0 -16   62.09    9.80
   1   0 -16   52.69    8.90
   1   0 -16   41.80    7.10
  -1   0  16   85.49   22.40
  -1   0  16   65.59   13.70
  -1   0  16   59.09   14.30
   0   0 -16  100.99   13.60
   0   0 -16   72.69   11.30
   0   0 -16   76.59    7.80
   0   0 -16   69.19    9.60
   0   0  16  100.99   17.20
   0   0  16  101.89   15.90
   0   0  16  108.59   24.50
  -1   0 -16   64.49    9.50
  -1   0 -16   55.99    5.30
  -1   0 -16   64.29   10.90
   1   0  16   82.59   15.50
   1   0  16   34.20   10.10
   1   0  16   62.09   18.80
  -2   0 -16   70.39    9.60
  -2   0 -16   60.09   10.20
   2   0  16   65.29   14.80
   2   0  16   88.49   14.20
   2   0  16   57.09   16.20
  -3   0 -16   47.10    9.40
  -3   0 -16   58.39    8.60
   3   0  16   35.00    9.40
   3   0  16   37.20   12.90
   3   0  16   58.19   12.50
   3   0  16   63.39   17.10
   4   0  16  413.76   30.30
   4   0  16  464.15   34.70
   4   0  16  356.36   25.90
   4   0  16  486.15   28.10
   5   0  16   -2.10    8.90
   5   0  16   -9.60    9.00
   5   0  16    9.50    6.60
   6   0  16  525.55   36.20
   6   0  16  527.45   38.40
   6   0  16  560.84   31.30
   7   0  16   16.80    7.30
   7   0  16   37.50   13.40
   7   0  16   37.40   14.00
   8   0  16   44.10   16.50
   8   0  16    5.10    5.40
   8   0  16    2.60   11.50
   7  -1 -16    9.30    9.30
   7  -1 -16   28.80   10.00
   7  -1 -16   19.10   10.50
   7  -1 -16    0.60    6.30
   6  -1 -16  266.27   19.00
   6  -1 -16  359.46   27.30
   6  -1 -16  289.47   23.40
   6  -1 -16  285.37   21.80
   5  -1 -16  403.56   27.40
   5  -1 -16  329.17   25.00
   5  -1 -16  369.56   25.90
   5  -1 -16  326.37   22.50
   4  -1 -16   -2.70    4.20
   4  -1 -16    1.40    6.20
   4  -1 -16    2.40    7.60
  -4   1  16   13.60    7.00
  -4   1  16    8.70   14.80
  -4   1  16    1.30    9.00
   3  -1 -16    2.70    6.80
   3  -1 -16    3.30    5.30
   3  -1 -16   -3.80    5.30
   3  -1 -16   -1.60    5.30
  -3   1  16   11.20    7.10
  -3   1  16   -6.10    6.70
  -3   1  16   -1.90   13.30
   2  -1 -16   11.40    6.70
   2  -1 -16    5.00    5.00
   2  -1 -16   -1.60    4.50
   2  -1 -16    2.80    4.50
  -2   1  16    4.20    6.90
  -2   1  16   11.70   13.30
  -2   1  16    8.20    7.60
   1  -1 -16  121.19   13.10
   1  -1 -16  134.49   11.70
   1  -1 -16  106.39   11.40
   1  -1 -16  108.59   10.80
  -1   1  16  125.79   14.90
  -1   1  16  144.59   27.30
  -1   1  16  127.09   18.00
   0  -1 -16   16.60    6.90
   0  -1 -16   15.30    5.00
   0  -1 -16   15.70    5.50
   0  -1 -16   15.70    6.00
   0   1  16   28.90   10.30
   0   1  16    9.40   12.40
   0   1  16   13.50    8.30
  -1  -1 -16  185.08   10.70
  -1  -1 -16  193.98   13.00
  -1  -1 -16  203.88   15.30
  -1  -1 -16  205.88   15.60
   1   1  16  191.38   16.90
   1   1  16  187.38   17.80
   1   1  16  180.28   28.60
  -2  -1 -16  113.19   11.40
  -2  -1 -16  102.79   11.60
  -2  -1 -16  102.09    5.40
  -2  -1 -16  114.99   11.20
   2   1  16   85.39   19.30
   2   1  16  111.09   15.40
   2   1  16   97.39   21.20
   2   1  16  135.69   18.80
  -3  -1 -16   32.20    6.20
  -3  -1 -16   23.40    6.10
   3   1  16   32.40   10.70
   3   1  16   31.20   14.40
   3   1  16   42.30    9.90
  -4  -1 -16   12.40    4.50
  -4  -1 -16   -9.90    3.80
   4   1  16   12.60    7.30
   4   1  16   -6.10    8.70
   4   1  16   -4.20    6.80
   4   1  16   12.40    8.80
   5   1  16   12.10    7.30
   5   1  16    2.70   10.70
   5   1  16    6.50   10.50
   6   1  16  323.57   22.50
   6   1  16  308.87   25.20
   6   1  16  337.67   27.70
   6   1  16  336.47   29.80
   7   1  16    6.10   10.60
   7   1  16   -4.30    5.50
   7   1  16   -5.00    9.80
   8   1  16   -5.30   11.30
   8   1  16    6.40    8.50
   9   1  16   13.10   16.10
   9   1  16    3.00    8.00
   7  -2 -16   25.20    8.30
   6  -2 -16   15.40   11.10
   6  -2 -16    2.30    6.50
   5  -2 -16  138.19   17.60
   5  -2 -16  142.69   14.00
   5  -2 -16  148.89   16.80
   5  -2 -16  125.69   17.40
   4  -2 -16  213.08   19.70
   4  -2 -16  200.28   17.60
   4  -2 -16  229.58   20.00
  -4   2  16  302.07   34.20
   3  -2 -16   50.49   10.00
   3  -2 -16   49.20   11.50
   3  -2 -16   34.90    9.30
  -3   2  16   50.99    9.00
  -3   2  16   59.99   21.00
  -3   2  16   33.40   10.20
   2  -2 -16  357.56   23.50
   2  -2 -16  398.56   22.50
   2  -2 -16  411.86   22.70
   2  -2 -16  390.66   23.30
  -2   2  16  385.26   37.30
  -2   2  16  401.26   24.20
  -2   2  16  414.56   26.70
   1  -2 -16    2.80    4.00
   1  -2 -16    2.50    4.80
   1  -2 -16    8.50    6.10
   1  -2 -16    0.50    4.70
  -1   2  16   -3.60    5.60
  -1   2  16    6.00    6.00
  -1   2  16  -11.90    7.60
   0  -2 -16   14.40    5.50
   0  -2 -16   19.00    5.70
   0  -2 -16   16.90    6.50
   0  -2 -16   20.60    7.60
   0   2  16   21.30    8.60
   0   2  16   10.70   11.80
  -1  -2 -16    7.70    4.40
  -1  -2 -16    5.80    4.90
  -1  -2 -16   -1.60    4.40
  -1  -2 -16    1.80    3.20
   1   2  16    5.80    6.60
   1   2  16    4.20   10.10
   1   2  16    5.10    6.20
   1   2  16   -3.10    8.90
  -2  -2 -16    0.60    2.50
  -2  -2 -16    6.50    5.30
  -2  -2 -16    5.50    4.20
  -2  -2 -16    4.50    5.10
   2   2  16   -2.90    9.10
   2   2  16    6.70    9.90
   2   2  16   -4.00    5.20
   2   2  16    1.90    6.20
  -3  -2 -16    9.10    3.90
  -3  -2 -16   -1.30    4.20
  -3  -2 -16    6.60    5.10
   3   2  16    3.50    6.00
   3   2  16    5.70    6.10
   3   2  16    1.50    9.80
   3   2  16    8.90    8.20
  -4  -2 -16  109.09    8.30
  -4  -2 -16   94.39   10.30
   4   2  16   98.59   20.00
   4   2  16   61.59   16.50
   4   2  16  113.19   15.50
   4   2  16  124.49   18.00
   5   2  16   53.39   14.00
   5   2  16   43.70   13.20
   5   2  16   38.80   14.40
   5   2  16   56.59   10.90
   6   2  16  109.89   21.10
   6   2  16  107.59   18.40
   6   2  16  134.99   14.40
   6   2  16  121.39   22.10
   7   2  16   87.49   19.30
   7   2  16   85.39   13.10
   7   2  16  107.99   20.50
   7   2  16   66.59   17.60
   8   2  16    2.70   10.90
   8   2  16   -5.80   10.00
   8   2  16    2.00    9.90
   8   2  16    9.70    6.60
   9   2  16  425.56   32.40
   9   2  16  357.86   31.70
   9   2  16  341.17   22.00
   7  -3 -16  -13.90    9.00
   6  -3 -16  -17.40    7.30
   6  -3 -16    7.40    8.20
   6  -3 -16    3.60    9.30
   6  -3 -16   -3.50    7.30
   5  -3 -16   19.50    8.60
   5  -3 -16    3.50    6.90
   5  -3 -16    6.50    7.40
   5  -3 -16    5.20    7.60
   4  -3 -16   47.80    9.80
   4  -3 -16   44.50   11.30
   4  -3 -16   33.40   10.20
   4  -3 -16   49.30   11.00
  -4   3  16   55.89   19.30
   3  -3 -16   42.40   12.00
   3  -3 -16   35.10    9.40
  -3   3  16   50.29   18.40
  -3   3  16   18.50   10.10
   2  -3 -16   14.00    7.00
   2  -3 -16   22.60    7.70
   2  -3 -16   22.70    7.30
   2  -3 -16   10.90    6.00
  -2   3  16   16.90    6.20
  -2   3  16   12.60   12.80
  -2   3  16   38.20    9.80
   1  -3 -16   19.70    6.60
   1  -3 -16   22.30    7.70
   1  -3 -16   17.50    7.00
  -1   3  16   21.20   14.70
  -1   3  16   19.60    7.60
  -1   3  16   25.10    9.50
   0  -3 -16  106.99   11.20
   0  -3 -16  119.89   11.10
   0  -3 -16  122.29   13.40
   0   3  16   97.79   11.90
   0   3  16  123.19   24.20
   0   3  16   70.59   22.40
   0   3  16   97.19   15.10
  -1  -3 -16    6.00    5.10
  -1  -3 -16    3.00    5.10
  -1  -3 -16    6.90    4.70
   1   3  16   -0.90    8.80
   1   3  16   -2.60    9.30
   1   3  16    4.90    6.40
   1   3  16    5.10    6.20
  -2  -3 -16    4.60    4.50
  -2  -3 -16    2.20    4.00
  -2  -3 -16   -6.30    4.40
   2   3  16    6.00    6.10
   2   3  16   -8.70    7.60
   2   3  16   14.20    7.20
   2   3  16    2.00    8.60
  -3  -3 -16   18.90    4.80
  -3  -3 -16   22.50    6.40
  -3  -3 -16   17.00    3.60
  -3  -3 -16   20.50    6.00
   3   3  16    4.00    9.80
   3   3  16   20.20    8.00
   3   3  16   -0.20    6.30
   3   3  16    7.00    9.30
  -4  -3 -16  110.89    7.60
  -4  -3 -16   87.89   11.70
  -4  -3 -16   66.79    9.80
   4   3  16   96.19   15.20
   4   3  16  110.09   20.20
   4   3  16   94.19   22.00
   4   3  16  106.09   15.00
   5   3  16   52.29   10.80
   5   3  16   85.49   20.10
   5   3  16   57.29   16.20
   5   3  16   53.49   13.10
   6   3  16   75.39   19.60
   6   3  16   88.19   18.70
   6   3  16   82.89   16.00
   6   3  16   98.19   14.60
   7   3  16    8.80   11.50
   7   3  16    9.70    6.80
   7   3  16    3.20    9.40
   7   3  16    3.40   11.70
   8   3  16  218.48   22.80
   8   3  16  181.38   16.40
   8   3  16  200.08   24.10
   9   3  16    0.70    5.60
   9   3  16  -21.50   11.90
   9   3  16   -8.00   13.70
   9   3  16   -5.60    9.60
   6  -4 -16   84.39   13.00
   5  -4 -16   99.39   13.70
   5  -4 -16  105.19   16.50
   5  -4 -16  116.89   20.90
   5  -4 -16  153.08   19.00
   4  -4 -16   84.69   13.80
   4  -4 -16   78.39   13.30
   4  -4 -16   70.09   11.90
   4  -4 -16   67.29   13.60
   3  -4 -16   33.70    9.80
   3  -4 -16   39.30   10.40
   3  -4 -16   21.20    8.30
   3  -4 -16   23.00    8.00
  -3   4  16   50.89   17.00
   2  -4 -16   -5.10    5.70
   2  -4 -16    3.90    5.20
   2  -4 -16    7.70    6.60
  -2   4  16    0.70    7.50
  -2   4  16   -1.30   12.50
   1  -4 -16  395.16   25.30
   1  -4 -16  414.16   23.10
   1  -4 -16  429.46   24.10
  -1   4  16  416.26   26.20
  -1   4  16  383.06   34.70
  -1   4  16  406.76   21.30
   0  -4 -16   23.40    7.10
   0  -4 -16    9.00    6.50
   0  -4 -16   22.80    7.20
   0   4  16   22.40    8.40
   0   4  16   34.30   14.60
   0   4  16   30.80    7.80
   0   4  16   19.30   15.20
  -1  -4 -16   -1.80    5.20
  -1  -4 -16   -1.50    4.50
  -1  -4 -16    1.40    4.70
   1   4  16   14.00   10.90
   1   4  16    6.10    6.20
   1   4  16    5.60    6.90
   1   4  16    7.80   11.90
  -2  -4 -16  142.59   10.70
  -2  -4 -16  148.09   12.70
  -2  -4 -16  151.48   14.00
   2   4  16  100.89   24.90
   2   4  16  130.69   22.70
   2   4  16  120.19   13.90
   2   4  16  136.89   13.90
  -3  -4 -16    8.00    4.00
  -3  -4 -16    0.70    4.60
  -3  -4 -16    6.60    5.40
   3   4  16   -2.70    4.90
   3   4  16    8.60   11.90
   3   4  16    7.70    6.30
   3   4  16    9.20    9.80
  -4  -4 -16   16.80    4.00
  -4  -4 -16    8.50    5.50
  -4  -4 -16   21.20    6.30
   4   4  16   24.00    8.60
   4   4  16   19.50   12.10
   4   4  16   16.30    7.90
   4   4  16   16.50   13.80
  -5  -4 -16  170.28   14.30
  -5  -4 -16  147.79   13.40
   5   4  16  154.58   15.50
   5   4  16  156.38   20.30
   5   4  16  158.88   17.00
   5   4  16  173.58   30.00
   6   4  16   49.00   13.40
   6   4  16   20.20   14.00
   6   4  16   50.79   11.00
   6   4  16   22.60   12.60
   7   4  16   21.70   15.70
   7   4  16   36.70   10.30
   7   4  16   20.40   12.90
   7   4  16   28.20   12.70
   8   4  16    9.10    7.40
   8   4  16   18.10   13.70
   8   4  16   24.30   11.40
   8   4  16   -2.40   11.20
   9   4  16   10.00   15.10
   9   4  16   21.40    8.00
   9   4  16    6.30   11.30
   9   4  16    9.50   12.30
   5  -5 -16    4.30    6.90
   4  -5 -16   88.99   22.30
   4  -5 -16   57.99   11.20
   4  -5 -16   33.50   12.20
   4  -5 -16   50.39   13.00
   3  -5 -16   92.19   13.90
   3  -5 -16  142.49   16.10
   3  -5 -16  143.09   15.70
  -3   5  16  142.89   26.10
   2  -5 -16  116.59   13.20
   2  -5 -16   99.69   14.00
   2  -5 -16  133.99   15.60
  -2   5  16   68.49   19.40
   1  -5 -16   17.70    7.20
   1  -5 -16    4.20    5.70
   1  -5 -16    8.80    6.70
  -1   5  16    5.70    7.40
  -1   5  16   -8.10    9.80
   0  -5 -16   24.50    7.60
   0  -5 -16   30.10    9.50
   0  -5 -16   17.20    7.00
   0   5  16   -2.40   12.10
   0   5  16   27.40   15.00
   0   5  16   14.90    7.80
   0   5  16   22.60    6.30
  -1  -5 -16   49.90    9.00
  -1  -5 -16   52.59    8.60
  -1  -5 -16   52.49   11.20
   1   5  16   55.99   11.40
   1   5  16   62.99   17.90
   1   5  16   63.59   10.40
   1   5  16   50.99   20.40
  -2  -5 -16    9.50    5.40
  -2  -5 -16    6.90    6.50
  -2  -5 -16    4.90    4.20
   2   5  16    6.80   11.50
   2   5  16   25.30   12.20
   2   5  16    4.30    6.90
   2   5  16   12.40    6.80
  -3  -5 -16   85.59   12.40
  -3  -5 -16   76.99    8.00
  -3  -5 -16   66.59   10.20
   3   5  16  108.79   15.30
   3   5  16  102.39   14.10
   3   5  16   73.59   22.00
   3   5  16   98.29   19.00
  -4  -5 -16   88.09    7.10
  -4  -5 -16   87.99   12.20
  -4  -5 -16   85.59   11.20
   4   5  16  102.89   19.20
   4   5  16   60.19   20.00
   4   5  16  117.09   17.10
   4   5  16   95.39   14.50
  -5  -5 -16  449.16   25.30
  -5  -5 -16  470.55   24.40
   5   5  16  446.06   27.70
   5   5  16  432.66   39.30
   5   5  16  429.06   36.80
   5   5  16  519.85   29.80
  -6  -5 -16  183.88   15.00
   6   5  16  217.38   38.00
   6   5  16  182.48   18.20
   6   5  16  204.28   23.10
   6   5  16  204.88   20.00
   7   5  16    4.50   10.80
   7   5  16   12.00    8.50
   7   5  16    1.70   13.00
   7   5  16   17.60   10.40
   8   5  16   97.79   18.40
   8   5  16  107.49   23.70
   8   5  16   81.79   13.20
   8   5  16   99.69   20.90
   9   5  16    9.20   15.50
   9   5  16   23.10   13.70
   9   5  16   34.10    9.70
   9   5  16   27.00   14.30
  10   5  16   -8.90   14.60
   4  -6 -16   67.39   14.10
   4  -6 -16   56.99   12.00
   4  -6 -16   76.69   14.60
   3  -6 -16   -1.90    5.90
   3  -6 -16   -8.10    4.80
   3  -6 -16    5.30    7.20
   2  -6 -16   91.99   15.50
   2  -6 -16   97.69   14.90
   2  -6 -16   57.99   12.20
  -2   6  16   74.89   19.40
   1  -6 -16   38.20   10.60
   1  -6 -16   44.60    9.90
   1  -6 -16   26.20    8.40
  -1   6  16   33.00   15.50
   0  -6 -16   28.60    8.40
   0  -6 -16   21.40    9.00
   0  -6 -16   30.10    9.00
   0   6  16   43.10   16.10
   0   6  16   37.00    7.30
   0   6  16    7.70   13.30
   0   6  16   20.30    8.40
  -1  -6 -16   17.70    6.70
  -1  -6 -16   29.20    9.20
  -1  -6 -16   27.80    8.10
   1   6  16   31.00    7.50
   1   6  16    5.60   11.60
   1   6  16   26.10   15.90
   1   6  16   14.00    7.70
  -2  -6 -16   82.79   11.80
  -2  -6 -16   73.69   12.50
  -2  -6 -16  100.89   10.00
   2   6  16   89.79   12.40
   2   6  16  106.39   15.10
   2   6  16   67.79   17.60
  -3  -6 -16   84.49   11.60
  -3  -6 -16  104.89   14.70
  -3  -6 -16   95.19    9.20
   3   6  16   53.69   23.50
   3   6  16  105.09   19.30
   3   6  16   77.69   13.40
   3   6  16   73.89   13.90
  -4  -6 -16   14.90    4.50
  -4  -6 -16   20.80    7.00
  -4  -6 -16   15.30    7.10
   4   6  16   16.70    8.90
   4   6  16    4.00   10.20
   4   6  16    8.50    8.10
  -5  -6 -16   81.39   12.60
  -5  -6 -16   82.69   11.30
   5   6  16   74.89   13.80
   5   6  16   84.69   14.40
   5   6  16   92.79   24.30
   5   6  16   69.09   17.50
  -6  -6 -16    8.00    6.00
   6   6  16    3.70   10.70
   6   6  16   12.20    8.80
   6   6  16    6.30   14.20
   6   6  16    1.90    7.50
  -7  -6 -16   15.60    6.20
   7   6  16   30.30   19.40
   7   6  16    2.40    7.40
   7   6  16   -6.20    7.50
   7   6  16    6.70   10.70
   8   6  16  -12.80   11.40
   8   6  16  -11.70    9.00
   8   6  16  -13.10    8.90
   8   6  16    6.60    7.50
   9   6  16   30.40   10.20
   9   6  16   29.40   14.70
   9   6  16   25.50   16.40
   9   6  16   15.00   11.70
  10   6  16  163.48   34.70
   3  -7 -16   78.09   13.00
   3  -7 -16   61.39   14.10
   3  -7 -16   92.99   15.40
   2  -7 -16   17.30    8.80
   2  -7 -16   19.30    9.40
   2  -7 -16   10.50    7.60
   1  -7 -16   14.80    7.20
   1  -7 -16   16.40    8.10
   1  -7 -16   33.70    9.90
  -1   7  16   32.60   15.50
   0  -7 -16   12.70    9.00
   0  -7 -16    2.90    6.30
   0  -7 -16    6.80    6.20
   0   7  16   37.40   13.70
   0   7  16   11.70   16.50
  -1  -7 -16    3.10    7.10
  -1  -7 -16   13.00    7.00
  -1  -7 -16   24.40    7.70
   1   7  16   37.90   14.00
   1   7  16    6.90   13.10
   1   7  16   16.60    8.20
   1   7  16   16.10    7.10
  -2  -7 -16   13.00    6.30
  -2  -7 -16   13.20    8.20
  -2  -7 -16   17.40    7.60
   2   7  16   17.50    9.20
   2   7  16   20.70   11.20
   2   7  16    7.00   15.00
   2   7  16   18.70    7.20
  -3  -7 -16   -2.60    4.30
  -3  -7 -16    1.00    6.30
  -3  -7 -16   -5.20    4.80
   3   7  16    7.70    7.90
   3   7  16    5.80   14.70
   3   7  16    6.70   10.40
   3   7  16   -0.50    6.20
  -4  -7 -16   11.70    7.40
   4   7  16    6.80    7.20
   4   7  16   26.10   15.30
   4   7  16   13.10    8.60
   4   7  16   12.40   12.60
  -5  -7 -16   48.40   11.50
  -5  -7 -16   33.70    7.50
   5   7  16   63.79   21.50
   5   7  16   42.60   15.30
  -6  -7 -16  110.89   12.40
   6   7  16   83.49   24.10
   6   7  16   87.29   19.70
  -7  -7 -16   -7.40    4.50
   7   7  16   -7.90    9.10
   7   7  16   -1.10   14.80
   8   7  16  182.58   23.60
   8   7  16  183.58   34.50
   9   7  16    5.70   11.10
   9   7  16   -5.90   13.30
   2  -8 -16   47.10   20.20
   0  -8 -16   99.49   16.30
   0  -8 -16  149.39   15.50
   0  -8 -16  113.19   15.30
   0   8  16   82.59   25.00
   0   8  16  101.29   21.50
  -1  -8 -16  375.66   25.50
  -1  -8 -16  372.86   27.10
  -1  -8 -16  382.46   24.30
   1   8  16  454.15   34.40
  -2  -8 -16    6.70    6.20
  -2  -8 -16    9.20    8.70
   2   8  16  -11.20    7.60
   2   8  16   -3.10    6.70
   2   8  16    8.00   11.60
   2   8  16   17.30   15.80
  -3  -8 -16   28.10    9.00
  -3  -8 -16   40.70   10.70
  -3  -8 -16   12.00    6.50
   3   8  16   18.00   15.50
   3   8  16   35.30   12.40
   3   8  16    5.10    8.70
   3   8  16   12.60    8.80
  -4  -8 -16   11.40    8.40
  -4  -8 -16    7.80    6.20
  -4  -8 -16   18.70    5.90
   4   8  16   27.60   13.40
   4   8  16   14.70   14.50
  -5  -8 -16    4.30    6.50
  -5  -8 -16   -2.00    7.80
   5   8  16    1.90   12.20
   5   8  16    0.40   12.70
  -6  -8 -16  114.69   12.90
   6   8  16  100.89   20.40
   6   8  16  104.49   17.50
   6   8  16   83.09   25.70
  -7  -8 -16    6.20    6.30
   7   8  16    6.00   11.00
   7   8  16    5.50   15.90
   7   8  16   10.90    9.00
   8   8  16   -7.90   12.70
   8   8  16    8.00   20.10
   0  -9 -16   48.90   11.00
   0  -9 -16   50.49   12.50
   0  -9 -16   60.39   11.90
  -1  -9 -16   33.60   10.30
  -1  -9 -16   26.90    9.50
  -1  -9 -16   27.00    9.50
   1   9  16   51.29   27.40
  -2  -9 -16  143.59   14.80
  -2  -9 -16  120.69   16.90
  -2  -9 -16  104.29   14.90
   2   9  16   87.89   23.60
  -3  -9 -16    6.00    8.60
  -3  -9 -16   15.60    7.40
  -3  -9 -16   23.30    7.70
   3   9  16   -0.60    9.90
   3   9  16  -19.70    9.30
   3   9  16   16.50   12.40
   3   9  16   65.09   16.90
  -4  -9 -16   -0.50    6.80
  -4  -9 -16   22.90    8.40
   4   9  16   23.10   12.90
   4   9  16   51.89   20.20
  -5  -9 -16   29.60    8.70
  -5  -9 -16   18.00   10.50
   5   9  16   54.49   23.70
   5   9  16   22.40   15.00
  -6  -9 -16   66.39   11.60
   6   9  16   51.99   14.30
   6   9  16   60.79   16.50
  -7  -9 -16   30.20    9.70
   7   9  16   13.00   12.90
   7   9  16   19.70   11.30
   7   9  16   62.49   22.70
   8   9  16   22.50   12.70
   8   9  16   25.80   14.30
   8   9  16   26.20   31.60
  -1 -10 -16  -12.70    7.30
  -2 -10 -16   41.20   11.30
  -2 -10 -16   77.29   15.40
   2  10  16   35.00   19.10
  -3 -10 -16  -12.40    6.60
  -3 -10 -16   -4.60    7.30
  -3 -10 -16   23.20    9.90
   3  10  16   26.00   14.60
  -4 -10 -16   15.40   11.40
  -4 -10 -16  -15.40   11.10
   4  10  16   23.20   16.60
   4  10  16   34.70   16.60
  -5 -10 -16    3.90    8.10
   5  10  16   14.90   17.50
   5  10  16   28.40   14.70
  -6 -10 -16   -2.40    7.90
   6  10  16   -3.60    9.00
   6  10  16   -2.30   17.10
   6  10  16    1.30   14.30
  -7 -10 -16   -6.30   10.50
   7  10  16  -18.70    9.70
   7  10  16    0.20   11.70
  -3 -11 -16   19.70   15.80
  -4 -11 -16   -0.30   11.90
  -6 -11 -16  -27.10    9.60
   6  11  16    6.20   14.80
  -4  -7  17   45.20   18.20
  -3  -7  17  137.29   23.00
  -2  -7  17   55.29   21.00
   6   6 -17   30.30   16.90
   5   6 -17    1.10   15.20
   4   6 -17   41.00   10.50
  -4  -6  17   42.70   15.90
  -4  -6  17   62.29   19.80
   3   6 -17    5.50    9.00
  -3  -6  17   14.50   11.50
  -3  -6  17   16.40   14.50
   2   6 -17  116.19   17.60
  -2  -6  17  132.29   23.10
  -2  -6  17  144.09   27.50
  -1  -6  17    7.30   12.40
   0  -6  17   29.20   17.50
   0  -6  17   26.80   16.30
   0  -6  17   41.60   13.50
   6   5 -17    3.30   14.60
  -6  -5  17   22.30   15.90
   5   5 -17   11.80    9.00
   5   5 -17   -3.90   11.20
   5   5 -17    4.50   14.30
   4   5 -17  -13.20   10.40
   4   5 -17  -17.70   10.00
  -4  -5  17   36.20   14.30
  -4  -5  17   20.60   12.40
   3   5 -17  -12.80    8.40
   3   5 -17   15.70    7.90
  -3  -5  17   11.40   11.30
  -3  -5  17  -10.70   11.60
   2   5 -17   98.29   15.40
  -2  -5  17   75.59   19.10
  -2  -5  17   87.69   23.20
  -2  -5  17   38.10   18.70
   1   5 -17   60.79   12.50
  -1  -5  17   76.69   19.40
  -1  -5  17   82.49   17.60
  -1  -5  17   72.29   23.40
   0  -5  17   54.09   13.20
   0  -5  17   86.59   22.60
   0  -5  17   99.99   25.20
   1  -5  17  119.39   26.20
   1  -5  17   83.49   16.60
   2  -5  17    1.40    8.90
   2  -5  17    4.30   10.30
   2  -5  17   11.80   15.40
   3  -5  17   26.90   15.30
   7   4 -17   20.20   16.10
   7   4 -17   16.70   13.90
  -7  -4  17   33.70   18.80
   6   4 -17    5.00   13.70
   6   4 -17   12.70    7.30
   6   4 -17   20.10   11.60
  -6  -4  17   37.20   16.90
   5   4 -17   32.80   14.40
   5   4 -17   29.50   12.50
   5   4 -17   20.20    8.60
  -5  -4  17   42.90   16.90
   4   4 -17  113.09   16.50
   4   4 -17   96.49   19.60
  -4  -4  17   85.39   19.20
  -4  -4  17  111.59   22.70
   3   4 -17    8.00    9.30
   3   4 -17   16.50    9.80
   3   4 -17   19.50    9.40
  -3  -4  17    2.80    8.20
  -3  -4  17   10.90   13.40
  -3  -4  17   18.30   16.30
   2   4 -17    5.10    6.90
   2   4 -17  -12.20    7.30
   2   4 -17    0.20    7.50
  -2  -4  17    5.50   12.00
  -2  -4  17    1.10    9.30
  -2  -4  17   26.10   17.70
   1   4 -17    6.70    6.50
   1   4 -17  -14.00    7.70
  -1  -4  17   18.50   13.30
  -1  -4  17   13.00    9.50
  -1  -4  17   14.80   14.00
   0   4 -17   58.89   12.00
   0  -4  17   26.90   11.80
   0  -4  17   28.40   16.10
   0  -4  17   12.50   13.00
   1  -4  17  170.28   28.60
   1  -4  17  110.19   18.30
   1  -4  17  142.99   27.20
   2  -4  17   37.00   15.60
   2  -4  17   17.00    9.60
   2  -4  17   13.10   14.70
   3  -4  17   91.39   20.30
   4  -4  17  122.79   23.10
   4  -4  17  100.59   17.00
   7   3 -17   41.10   14.00
   7   3 -17   55.09   13.90
  -7  -3  17   73.59   21.20
   6   3 -17   -1.60    7.70
   6   3 -17   10.30    9.30
   6   3 -17   19.60   10.80
  -6  -3  17   16.30   13.70
   5   3 -17    6.60    9.80
   5   3 -17   11.40    7.90
   5   3 -17   13.40    8.80
  -5  -3  17   16.50   13.40
   4   3 -17   13.20    7.50
   4   3 -17   31.60   10.10
  -4  -3  17   21.20   13.00
  -4  -3  17   82.99   25.60
  -4  -3  17   41.70   16.60
   3   3 -17   16.40   10.10
   3   3 -17   29.60    9.00
  -3  -3  17    8.40   10.10
  -3  -3  17    6.40   11.40
  -3  -3  17    0.40   13.80
   2   3 -17   -5.30    5.70
   2   3 -17   -3.00    6.40
  -2  -3  17    3.90    9.10
  -2  -3  17   32.30   18.40
  -2  -3  17    1.90   10.30
   1   3 -17   23.90    9.50
   1   3 -17   46.10   10.60
  -1  -3  17   12.90   12.60
  -1  -3  17   28.60   15.00
  -1  -3  17   40.60   12.40
   0   3 -17   -6.90    6.10
   0   3 -17   -0.80    7.00
   0  -3  17   12.40   15.40
   0  -3  17    9.30   10.70
   0  -3  17   -6.20    9.80
  -1   3 -17   42.70   12.70
   1  -3  17   62.29   18.70
   1  -3  17   76.39   17.20
   2  -3  17   47.10   12.90
   2  -3  17   36.20   17.90
   2  -3  17   60.69   17.00
   3  -3  17   19.00    9.60
   3  -3  17   38.00   15.20
   3  -3  17   20.40   13.10
   4  -3  17   93.79   16.40
   4  -3  17  124.59   23.30
   4  -3  17  140.69   25.20
   5  -3  17   32.70   13.20
   5  -3  17   35.60    9.60
   7   2 -17   -9.90    6.80
   7   2 -17   -1.20    9.80
   7   2 -17    0.20    8.90
   6   2 -17  237.98   24.20
   6   2 -17  201.18   21.00
   6   2 -17  236.48   22.40
  -6  -2  17  200.08   23.30
   5   2 -17   39.90   11.00
   5   2 -17   29.20   10.50
   5   2 -17   68.69   15.30
   4   2 -17   28.50   11.00
   4   2 -17   26.30   15.90
   4   2 -17   37.00    9.40
  -4  -2  17   33.20   11.00
  -4  -2  17   24.10   17.10
  -4  -2  17   47.20   16.10
   3   2 -17   -0.40    5.10
   3   2 -17    0.10    6.80
   3   2 -17    1.50    7.70
  -3  -2  17   -9.60    7.30
  -3  -2  17   -0.10    9.70
  -3  -2  17   17.80   16.60
   2   2 -17    0.70    5.30
   2   2 -17   -4.30    4.20
   2   2 -17    8.40    7.80
  -2  -2  17   13.50   16.20
  -2  -2  17    1.20    7.10
  -2  -2  17    8.00   11.60
   1   2 -17   52.39   11.30
   1   2 -17   50.99   10.20
  -1  -2  17   36.80   18.90
  -1  -2  17   53.29   16.20
  -1  -2  17   45.90   13.10
   0   2 -17    4.60    5.90
   0   2 -17    3.30    5.70
   0  -2  17   19.10    9.10
   0  -2  17  -12.00   10.70
   0  -2  17   18.30   11.40
  -1   2 -17    0.20    5.50
  -1   2 -17  -12.30    5.60
   1  -2  17    6.80    9.50
   1  -2  17  -11.70   11.40
   1  -2  17    7.20    8.40
  -2   2 -17   14.20    7.30
   2  -2  17   16.30    8.90
   2  -2  17   11.60   10.90
   2  -2  17   11.70   11.90
   3  -2  17   64.69   14.20
   3  -2  17   58.29   17.40
   4  -2  17   21.80   11.90
   4  -2  17    4.30    8.10
   4  -2  17    2.60   11.80
   5  -2  17  314.47   29.20
   5  -2  17  315.47   24.30
   5  -2  17  297.07   31.00
   6  -2  17   36.60   13.80
   6  -2  17   46.20   10.50
   7   1 -17   36.80   11.80
   7   1 -17   75.19   14.70
   7   1 -17   37.50   11.50
   6   1 -17   45.60   11.50
   6   1 -17   45.10   12.80
   6   1 -17   15.30    9.10
   5   1 -17   15.90    9.60
   5   1 -17   10.60    7.40
   5   1 -17   28.00   10.10
   5   1 -17   26.00    7.50
  -5  -1  17   43.60   12.70
   4   1 -17   37.60    8.20
   4   1 -17    7.50    7.60
   4   1 -17   26.70   10.60
  -4  -1  17   24.70   17.40
  -4  -1  17   34.50   11.70
  -4  -1  17   29.90   10.00
   3   1 -17  121.99   15.10
   3   1 -17  123.09   18.10
   3   1 -17  161.68   15.00
   3   1 -17  140.59   13.70
  -3  -1  17  146.89   30.60
  -3  -1  17  142.69   20.10
  -3  -1  17  161.08   23.70
   2   1 -17  107.19   12.20
   2   1 -17   96.19   11.20
   2   1 -17  101.39   15.30
  -2  -1  17  123.49   21.40
  -2  -1  17  121.69   18.10
   1   1 -17   14.90    5.80
   1   1 -17   15.10    7.60
   1   1 -17    8.30    6.40
  -1  -1  17   18.00   11.70
  -1  -1  17    8.80   13.50
  -1  -1  17   26.70   11.00
   0   1 -17   62.89   10.10
   0  -1  17   61.09   15.50
   0  -1  17   66.19   14.90
   0  -1  17   39.50   18.70
  -1   1 -17   -5.10    5.00
  -1   1 -17    3.90    5.90
   1  -1  17    2.30    5.60
   1  -1  17   -8.80    7.60
   1  -1  17   -1.00   12.00
  -2   1 -17    9.20    5.30
  -2   1 -17    7.40    7.20
   2  -1  17   33.30   10.80
   2  -1  17   13.50   12.60
   2  -1  17    3.80    9.50
  -3   1 -17    8.10    5.50
   3  -1  17    2.70    7.00
   3  -1  17   10.60   11.60
   3  -1  17   10.90   10.70
   4  -1  17  146.19   26.50
   4  -1  17  139.39   19.00
   4  -1  17  120.99   22.10
   5  -1  17   45.70   16.00
   5  -1  17   45.60   15.10
   5  -1  17   38.90   10.60
   6  -1  17  111.49   21.90
   6  -1  17   69.99   17.50
   6  -1  17   56.59   11.90
   7  -1  17   76.49   17.60
   7  -1  17   56.89   14.60
   7  -1  17   44.40   10.70
   7   0 -17   16.70   12.70
   6   0 -17  106.79   16.40
   6   0 -17  141.19   14.70
   6   0 -17  141.99   20.40
   5   0 -17   44.90   11.20
   5   0 -17   49.40   11.60
   5   0 -17   46.70   12.20
   5   0 -17   36.50    8.50
  -5   0  17   35.20   10.30
   4   0 -17    6.40    5.90
   4   0 -17   -2.00    7.70
   4   0 -17    6.40    7.40
  -4   0  17    7.00    9.30
  -4   0  17    6.10    8.00
  -4   0  17    9.10   15.60
   3   0 -17  528.55   28.20
   3   0 -17  519.75   31.80
   3   0 -17  555.24   29.60
   3   0 -17  553.24   29.00
  -3   0  17  545.35   33.80
  -3   0  17  559.04   48.10
  -3   0  17  573.14   35.50
   2   0 -17   64.59   10.80
   2   0 -17   73.59   10.80
   2   0 -17   73.79   10.90
   2   0 -17   77.99   14.10
  -2   0  17   88.49   17.40
  -2   0  17   73.19   14.80
  -2   0  17   87.59   23.50
   1   0 -17  116.59   11.60
   1   0 -17   83.99   12.00
   1   0 -17   92.09   14.00
   1   0 -17   62.49    9.20
  -1   0  17   71.99   22.90
  -1   0  17   82.29   15.20
  -1   0  17   90.69   16.70
   0   0 -17   54.69   11.00
   0   0 -17   45.00    8.80
   0   0 -17   65.39   10.40
   0   0 -17   46.10    6.90
   0   0  17   62.09   13.80
   0   0  17   46.70   18.40
   0   0  17   54.89   15.00
  -1   0 -17  102.79   14.50
  -1   0 -17   97.29   10.10
   1   0  17  125.09   27.10
   1   0  17  124.49   18.00
   1   0  17  134.79   20.40
  -2   0 -17    4.50    4.80
  -2   0 -17   11.10    6.80
   2   0  17    2.70   10.50
   2   0  17    1.40    6.90
   2   0  17   11.30    7.80
  -3   0 -17  430.96   24.90
  -3   0 -17  487.95   23.60
   3   0  17  463.45   29.20
   3   0  17  398.76   35.30
   3   0  17  428.76   31.50
   4   0  17    7.50   11.90
   4   0  17   -4.50    9.00
   4   0  17    1.70    6.90
   5   0  17   96.39   18.70
   5   0  17   80.29   14.60
   5   0  17   66.69   18.50
   6   0  17   75.09   20.30
   6   0  17   63.39   12.20
   6   0  17   72.49   17.80
   7   0  17   57.79   15.90
   8   0  17  385.36   34.00
   6  -1 -17    3.10    8.10
   6  -1 -17   -3.30    5.50
   5  -1 -17   37.60    8.40
   5  -1 -17   27.30    9.50
   5  -1 -17   31.50    9.20
   5  -1 -17   18.70    9.40
   4  -1 -17  142.49   14.40
   4  -1 -17  158.78   15.70
   4  -1 -17  158.18   17.60
   4  -1 -17  161.78   17.30
  -4   1  17  139.99   16.80
  -4   1  17  156.08   32.60
   3  -1 -17   -6.40    5.00
   3  -1 -17   -0.40    6.90
   3  -1 -17   -6.30    4.10
   3  -1 -17    0.20    6.80
  -3   1  17   -2.60   10.80
  -3   1  17   17.10    7.90
  -3   1  17    1.80    6.80
   2  -1 -17   62.19   12.40
   2  -1 -17   57.59   10.20
   2  -1 -17   52.89    9.80
   2  -1 -17   61.09   10.70
  -2   1  17   55.39   13.10
  -2   1  17   55.09   20.10
  -2   1  17   77.39   14.00
   1  -1 -17    1.80    6.00
   1  -1 -17   -3.60    4.30
   1  -1 -17    4.90    5.50
   1  -1 -17    4.10    4.30
  -1   1  17   11.30    8.30
  -1   1  17   10.30    7.80
  -1   1  17   16.50   13.30
   0  -1 -17    2.40    4.30
   0  -1 -17    2.60    5.80
   0  -1 -17    3.20    3.90
   0  -1 -17    1.60    4.50
   0   1  17  -10.40    6.90
   0   1  17    6.30    6.40
   0   1  17    7.50   11.00
  -1  -1 -17   21.90    4.40
  -1  -1 -17   23.90    7.30
  -1  -1 -17   17.90    5.60
  -1  -1 -17   22.20    7.10
   1   1  17   34.90   12.50
   1   1  17   20.90    8.90
   1   1  17   33.40   15.30
  -2  -1 -17   41.60    7.60
  -2  -1 -17   35.70    8.20
  -2  -1 -17   49.60    9.80
   2   1  17   26.50   13.30
   2   1  17   37.30   13.50
   2   1  17   38.00   10.80
   2   1  17   34.20   12.20
  -3  -1 -17  336.97   19.90
  -3  -1 -17  310.57   19.30
   3   1  17  230.78   25.10
   3   1  17  287.97   23.70
   3   1  17  316.07   30.00
   3   1  17  300.77   22.40
  -4  -1 -17   28.90    5.80
   4   1  17   34.20   14.90
   4   1  17   46.50   13.50
   4   1  17   11.80   12.20
   5   1  17  295.17   26.20
   5   1  17  405.06   33.70
   5   1  17  425.26   30.10
   5   1  17  409.86   26.00
   6   1  17    4.90   11.60
   6   1  17    4.60    6.20
   6   1  17    4.80    9.10
   7   1  17  309.87   22.30
   7   1  17  327.97   28.30
   7   1  17  303.47   29.00
   8   1  17   47.70    9.00
   8   1  17   22.60   13.60
   6  -2 -17  131.69   17.80
   6  -2 -17  181.38   20.10
   6  -2 -17  145.09   14.50
   6  -2 -17  120.19   17.90
   5  -2 -17   49.70   12.60
   5  -2 -17   38.90   10.80
   5  -2 -17   49.40   11.80
   5  -2 -17   39.70    9.20
   4  -2 -17   21.40    7.60
   4  -2 -17    6.40    6.90
   4  -2 -17   24.90    9.50
   4  -2 -17   42.70   11.10
  -4   2  17   30.70   17.60
   3  -2 -17    0.40    5.20
   3  -2 -17    5.90    6.30
   3  -2 -17    1.80    6.70
  -3   2  17   -1.60   11.00
  -3   2  17   16.90    7.70
  -3   2  17    2.60    6.30
   2  -2 -17  195.78   15.60
   2  -2 -17  163.88   16.70
   2  -2 -17  209.58   16.60
   2  -2 -17  219.18   17.50
  -2   2  17  211.08   17.20
  -2   2  17  187.18   33.80
  -2   2  17  195.68   18.70
   1  -2 -17   17.30    6.60
   1  -2 -17   22.70    7.00
   1  -2 -17   11.40    6.40
   1  -2 -17   33.10    8.00
  -1   2  17   48.10   17.20
  -1   2  17   40.60    9.80
  -1   2  17   19.00    9.00
   0  -2 -17   -4.10    4.90
   0  -2 -17    8.60    5.50
   0  -2 -17    0.50    4.60
   0  -2 -17    5.50    5.10
   0   2  17   -1.10    6.10
   0   2  17    9.80    7.20
   0   2  17    8.40   12.00
  -1  -2 -17    9.50    5.30
  -1  -2 -17   15.40    6.20
  -1  -2 -17   17.00    4.90
  -1  -2 -17   19.40    7.50
   1   2  17   24.00   14.50
   1   2  17   20.70    7.90
   1   2  17   24.80    9.40
   1   2  17    3.00   12.00
  -2  -2 -17   -3.50    2.30
  -2  -2 -17    6.20    5.30
  -2  -2 -17    6.00    5.30
  -2  -2 -17    6.00    4.70
   2   2  17   25.10   11.80
   2   2  17    7.50    6.90
   2   2  17   12.00    8.90
   2   2  17    6.30    9.80
  -3  -2 -17    9.10    4.50
  -3  -2 -17   14.70    6.00
  -3  -2 -17    5.60    5.30
   3   2  17    5.60    7.30
   3   2  17   -3.00   11.60
   3   2  17    3.70    7.00
   3   2  17    8.40    8.60
  -4  -2 -17  162.18   10.60
  -4  -2 -17  134.49   13.30
   4   2  17  142.29   20.50
   4   2  17  145.29   15.60
   4   2  17  137.19   17.20
   4   2  17  149.29   24.40
   5   2  17   42.20   12.60
   5   2  17   47.10   14.90
   5   2  17   47.90   10.50
   5   2  17   30.30   12.60
   6   2  17   21.30    8.40
   6   2  17   25.60   14.30
   6   2  17   23.70   10.80
   6   2  17    8.60   10.50
   7   2  17   14.70   12.40
   7   2  17   11.70    7.60
   7   2  17    6.60   10.70
   7   2  17   13.10   10.70
   8   2  17   -1.50   12.00
   8   2  17  -14.20    8.50
   9   2  17  -10.60   12.10
   6  -3 -17  -27.80    9.20
   5  -3 -17  -13.80    6.40
   5  -3 -17    5.70   10.90
   5  -3 -17    1.90    8.20
   4  -3 -17   87.29   14.90
   4  -3 -17   76.09   13.40
   4  -3 -17   73.79   12.50
   4  -3 -17   57.79   12.70
  -4   3  17   51.89   18.60
   3  -3 -17  162.38   17.00
   3  -3 -17  133.49   14.80
   3  -3 -17  131.79   14.50
   3  -3 -17  121.39   16.60
  -3   3  17  187.48   38.10
   2  -3 -17   11.10    7.70
   2  -3 -17   13.40    7.40
   2  -3 -17   21.30    7.70
  -2   3  17   13.60    6.50
  -2   3  17   11.80   13.80
  -2   3  17   21.80    9.00
   1  -3 -17    2.00    6.90
   1  -3 -17    2.60    4.80
   1  -3 -17   -2.20    4.40
   1  -3 -17   -3.70    5.60
  -1   3  17    1.40    6.40
  -1   3  17   40.50   16.90
  -1   3  17   11.90    7.70
   0  -3 -17   57.79    9.40
   0  -3 -17   87.29   13.30
   0  -3 -17   77.59   11.40
   0  -3 -17   48.70    8.40
   0   3  17   70.19   19.10
   0   3  17   82.49   14.20
   0   3  17   96.59   11.80
  -1  -3 -17    4.60    4.10
  -1  -3 -17    3.10    6.20
  -1  -3 -17   -0.10    4.50
  -1  -3 -17    1.60    3.70
   1   3  17    1.20    5.70
   1   3  17   -9.80    7.40
   1   3  17    0.10    5.50
   1   3  17   -6.40    9.20
  -2  -3 -17    6.10    4.60
  -2  -3 -17    2.40    4.90
  -2  -3 -17   -0.30    4.40
  -2  -3 -17   -1.30    3.00
   2   3  17    2.50   10.20
   2   3  17   -8.70    4.80
   2   3  17  -12.30    7.60
   2   3  17    3.60    6.80
  -3  -3 -17   56.09    5.60
  -3  -3 -17   57.19   10.00
  -3  -3 -17   73.69   11.30
  -3  -3 -17   55.09    7.20
   3   3  17   59.19   17.00
   3   3  17   48.10   18.10
   3   3  17   60.99   11.90
   3   3  17   55.49   12.10
  -4  -3 -17  706.23   27.30
  -4  -3 -17  776.92   34.10
  -4  -3 -17  675.53   32.40
   4   3  17  578.24   44.60
   4   3  17  696.53   43.90
   4   3  17  662.83   35.60
   4   3  17  672.73   37.20
   5   3  17    6.90   10.60
   5   3  17    5.00   11.20
   5   3  17    5.30    7.80
   6   3  17   -5.10    8.50
   6   3  17   16.90   12.70
   6   3  17    5.40    6.30
   6   3  17   16.40   12.90
   7   3  17   31.40   14.30
   7   3  17   37.80   13.70
   7   3  17   54.59   11.00
   7   3  17   43.50   16.90
   8   3  17   28.80   14.80
   8   3  17   32.80   14.60
   8   3  17   29.50    9.10
   8   3  17   21.20   12.20
   9   3  17    7.20    6.40
   9   3  17    2.90   13.60
   9   3  17   31.40   15.80
   5  -4 -17   24.70   10.20
   5  -4 -17    0.00    8.30
   5  -4 -17   46.00   11.40
   4  -4 -17  121.89   16.90
   4  -4 -17   92.39   13.40
   4  -4 -17  109.29   17.20
   4  -4 -17   98.19   15.20
   3  -4 -17    2.10    6.20
   3  -4 -17   -2.00    7.00
   3  -4 -17    7.70    8.20
   3  -4 -17   -3.40    6.20
  -3   4  17    5.40   14.40
   2  -4 -17   10.80    6.80
   2  -4 -17   -0.70    6.30
   2  -4 -17   -8.50    5.70
  -2   4  17   -1.80   12.60
  -2   4  17   -1.70    9.10
   1  -4 -17  556.74   29.00
   1  -4 -17  511.95   30.40
   1  -4 -17  568.14   28.70
  -1   4  17  527.05   42.90
  -1   4  17  512.95   26.20
  -1   4  17  569.24   33.30
   0  -4 -17    8.60    7.40
   0  -4 -17   13.20    6.20
   0  -4 -17    2.00    5.00
   0   4  17   11.00   13.80
   0   4  17   27.90   12.00
   0   4  17   25.40    7.20
  -1  -4 -17  367.86   19.70
  -1  -4 -17  349.27   21.50
  -1  -4 -17  363.06   23.30
   1   4  17  363.76   22.40
   1   4  17  374.36   25.10
   1   4  17  291.97   30.30
  -2  -4 -17   37.10    8.30
  -2  -4 -17   29.40    8.90
  -2  -4 -17   24.30    5.80
   2   4  17   26.10    9.10
   2   4  17   24.20    8.00
   2   4  17   46.10   15.10
   2   4  17   25.70   14.80
  -3  -4 -17   25.00    7.30
  -3  -4 -17   19.00    5.40
  -3  -4 -17   25.60    7.00
   3   4  17   12.90   13.30
   3   4  17   23.20    9.10
   3   4  17   31.70   12.80
   3   4  17   30.80   10.30
  -4  -4 -17  277.67   13.80
  -4  -4 -17  278.07   19.20
  -4  -4 -17  277.27   18.30
   4   4  17  301.47   22.10
   4   4  17  289.37   21.60
   4   4  17  265.97   31.00
   4   4  17  282.97   27.20
  -5  -4 -17   24.40    7.40
   5   4  17   26.60   12.90
   5   4  17   20.10   14.00
   6   4  17   27.50   15.40
   6   4  17   32.70   11.40
   6   4  17   12.10   12.50
   6   4  17   24.50    9.60
   7   4  17   80.79   19.30
   7   4  17   68.29   13.20
   7   4  17   58.09   18.80
   7   4  17   58.89   15.30
   8   4  17   60.39   12.10
   8   4  17   69.79   19.80
   8   4  17   44.30   14.90
   8   4  17   53.89   20.30
   9   4  17   35.10   17.70
   9   4  17   63.09   12.20
   9   4  17   59.09   19.50
   9   4  17   47.50   16.20
   4  -5 -17   17.10    9.40
   4  -5 -17  -10.20    7.60
   4  -5 -17   18.70    9.50
   3  -5 -17   -0.60    7.80
   3  -5 -17    4.10    7.20
   3  -5 -17    6.20    5.90
  -3   5  17   14.50   14.60
   2  -5 -17   94.99   14.40
   2  -5 -17   96.69   13.90
   2  -5 -17   91.79   15.30
  -2   5  17  154.68   28.40
   1  -5 -17   10.30    6.50
   1  -5 -17   -7.70    6.60
  -1   5  17   -1.60   11.80
  -1   5  17    4.20    7.20
   0  -5 -17   11.00    6.60
   0  -5 -17    9.50    7.80
   0  -5 -17   11.70    6.30
   0   5  17    9.40    7.50
   0   5  17   22.20   14.00
   0   5  17   27.10    6.70
   0   5  17   28.50   18.90
  -1  -5 -17   32.90    9.50
  -1  -5 -17   27.00    7.40
   1   5  17   22.50    9.10
   1   5  17   22.70    8.10
   1   5  17   39.00   13.90
  -2  -5 -17   23.40    6.30
  -2  -5 -17   39.70   10.30
  -2  -5 -17   24.50    7.30
   2   5  17   17.10    7.80
   2   5  17   25.30   13.80
   2   5  17   33.00   10.50
   2   5  17   19.30   14.60
  -3  -5 -17  324.77   20.30
  -3  -5 -17  285.27   20.00
   3   5  17  239.58   25.90
   3   5  17  292.47   22.40
   3   5  17  277.47   20.00
   3   5  17  197.48   36.10
  -4  -5 -17   47.50    6.20
  -4  -5 -17   33.80    7.90
  -4  -5 -17   52.69   10.10
   4   5  17   39.60   11.20
   4   5  17   31.50   15.80
   4   5  17   52.99   12.00
   4   5  17   35.90   17.80
  -5  -5 -17   23.20    7.40
  -5  -5 -17    5.00    5.10
   5   5  17   17.30   12.40
   5   5  17   16.50   16.40
  -6  -5 -17   78.39   11.20
   6   5  17   74.49   22.90
   6   5  17   66.99   16.70
   6   5  17   68.79   14.90
   6   5  17   61.29   12.80
   7   5  17  351.46   31.10
   7   5  17  311.87   26.50
   7   5  17  333.97   24.00
   7   5  17  284.37   33.00
   8   5  17    4.30   14.00
   8   5  17   15.10    7.90
   8   5  17   -5.90   11.20
   8   5  17   -7.60    8.40
   9   5  17   41.90   18.40
   9   5  17   28.80   10.20
   9   5  17   31.70   16.60
   9   5  17   25.40   13.70
  10   5  17  110.49   27.70
   3  -6 -17  186.78   19.90
   3  -6 -17  205.18   19.10
   3  -6 -17  188.88   18.30
   2  -6 -17   25.30    8.60
   2  -6 -17    9.30    6.70
   2  -6 -17   12.50    7.00
  -2   6  17    4.30   13.50
   1  -6 -17   24.50    8.40
   1  -6 -17    9.60    6.50
   1  -6 -17   28.20   10.80
  -1   6  17   13.90   14.50
   0  -6 -17 1044.20   45.80
   0   6  17  986.40   47.70
   0   6  17  924.21   57.79
  -1  -6 -17   23.40    6.90
  -1  -6 -17   20.90    8.50
  -1  -6 -17    8.30    6.30
   1   6  17   16.20   15.60
   1   6  17   -1.20    7.80
   1   6  17   13.40   14.30
   1   6  17    8.50    7.10
  -2  -6 -17   53.79    9.30
  -2  -6 -17   68.69   12.30
  -2  -6 -17   38.40    9.20
   2   6  17   46.50   10.20
   2   6  17   34.50   16.70
   2   6  17   19.00   12.50
   2   6  17   33.50   10.40
  -3  -6 -17    1.90    5.80
  -3  -6 -17    8.80    6.70
  -3  -6 -17   -3.30    4.30
   3   6  17    5.40    7.30
   3   6  17    6.10    7.60
   3   6  17    2.70   10.40
   3   6  17   14.80   15.40
  -4  -6 -17    3.50    6.80
  -4  -6 -17    8.10    6.50
  -4  -6 -17   -7.40    3.40
   4   6  17   23.70   17.30
   4   6  17    9.20    9.00
   4   6  17    1.50    7.30
   4   6  17   -5.50    8.60
  -5  -6 -17   45.30   11.00
  -5  -6 -17   42.40    8.60
   5   6  17   72.19   18.20
   5   6  17   75.39   22.30
   5   6  17   58.09   15.00
   5   6  17   51.89   12.50
  -6  -6 -17    6.20    6.30
   6   6  17    3.40    7.90
   6   6  17    1.80   13.70
   6   6  17   11.30   11.80
   6   6  17   -3.40    7.80
  -7  -6 -17   50.29    9.30
   7   6  17   40.10   13.70
   7   6  17   46.80   16.80
   7   6  17   59.89   21.20
   7   6  17   54.19   12.60
   8   6  17   16.90    9.70
   8   6  17    9.70    9.70
   8   6  17   38.40   17.40
   8   6  17    2.60   11.90
   9   6  17   49.80   18.70
   9   6  17   60.39   12.20
   9   6  17   72.49   19.00
   9   6  17   76.19   33.40
   2  -7 -17   79.59   13.40
   2  -7 -17   98.89   16.10
   2  -7 -17   96.79   14.90
   1  -7 -17  116.99   17.00
   1  -7 -17  102.59   15.30
   1  -7 -17  147.99   16.10
  -1   7  17  113.29   22.60
   0  -7 -17   98.29   14.40
   0  -7 -17   71.79   12.30
   0  -7 -17   80.19   15.60
   0   7  17  104.59   21.00
   0   7  17   95.19   27.80
  -1  -7 -17   28.60    8.60
  -1  -7 -17   20.40    8.20
  -1  -7 -17   17.30    9.90
   1   7  17   19.70   14.90
   1   7  17   37.30   15.10
   1   7  17    1.10    7.80
  -2  -7 -17   66.49   11.50
  -2  -7 -17   55.79   12.10
  -2  -7 -17   67.49    9.80
   2   7  17   50.69   11.10
   2   7  17   72.29   18.70
   2   7  17   71.99   24.10
   2   7  17   63.59   12.70
  -3  -7 -17   13.90    7.20
  -3  -7 -17   -0.60    5.00
  -3  -7 -17   16.60    8.60
   3   7  17   18.70    9.10
   3   7  17    9.10   13.60
   3   7  17    8.40    8.60
  -4  -7 -17  118.19   13.30
  -4  -7 -17   80.49    9.10
  -4  -7 -17  114.09   16.40
   4   7  17  117.29   18.30
   4   7  17  101.89   15.70
   4   7  17   76.59   23.70
   4   7  17  104.99   20.80
  -5  -7 -17  105.09   15.00
  -5  -7 -17  100.09   13.10
   5   7  17   80.99   15.30
   5   7  17   87.99   15.90
   5   7  17  119.99   22.70
   5   7  17  114.89   28.80
  -6  -7 -17  294.17   19.60
   6   7  17  247.78   33.60
   6   7  17  255.17   27.70
   6   7  17  297.27   23.80
   6   7  17  281.27   23.60
  -7  -7 -17   40.50    9.00
   7   7  17   43.40   19.30
   7   7  17   34.60   12.10
   7   7  17   46.70   12.70
   7   7  17   31.60   14.60
   8   7  17   85.29   24.50
   8   7  17   60.59   26.30
   9   7  17   78.59   21.40
   1  -8 -17    6.10    8.50
   1  -8 -17   -9.50    7.30
   0  -8 -17    5.60    6.50
   0  -8 -17   10.20    8.90
   0   8  17   30.30   29.70
  -1  -8 -17   28.90    9.00
  -1  -8 -17   41.50   11.30
  -1  -8 -17   41.50   10.40
   1   8  17   59.49   16.90
   1   8  17   27.20   18.70
  -2  -8 -17    3.00    6.20
  -2  -8 -17  -13.20    6.10
  -2  -8 -17   -5.80    5.70
   2   8  17   28.00   16.30
   2   8  17    1.40   10.10
  -3  -8 -17   75.69   10.50
  -3  -8 -17   79.79   14.60
  -3  -8 -17   60.79   11.00
   3   8  17   55.09   16.80
   3   8  17   79.89   16.50
   3   8  17   73.19   24.70
   3   8  17   63.29   12.00
  -4  -8 -17   -1.30    6.20
  -4  -8 -17    6.80    8.10
  -4  -8 -17    1.70    6.70
   4   8  17   -5.40    8.80
   4   8  17   24.80   15.30
   4   8  17    3.80   12.10
  -5  -8 -17   -2.70    5.50
  -5  -8 -17    6.50    8.90
   5   8  17    0.10    9.10
   5   8  17   -0.40   12.70
   5   8  17   -7.30    8.20
   5   8  17    7.60   13.30
  -6  -8 -17  155.38   15.20
   6   8  17  191.28   36.60
   6   8  17  184.78   23.60
  -7  -8 -17   45.40    9.60
   7   8  17   28.70   14.60
   8   8  17   -0.20   17.00
   8   8  17   -8.70   11.90
   0  -9 -17   11.10   10.00
   0  -9 -17   32.10   11.70
  -1  -9 -17   21.40    9.60
  -1  -9 -17   32.30    9.20
   1   9  17   48.80   20.40
  -2  -9 -17   12.90    9.10
  -2  -9 -17   -0.40    6.60
  -2  -9 -17   -2.10    6.60
   2   9  17   53.19   17.70
   2   9  17   21.60   15.90
  -3  -9 -17   11.00    7.20
  -3  -9 -17    6.60    9.50
  -3  -9 -17   29.60    8.80
   3   9  17   46.10   15.40
   3   9  17   -3.40   11.50
  -4  -9 -17   22.80   11.00
  -4  -9 -17   13.00    7.70
   4   9  17   27.30   13.20
   4   9  17   23.20   11.30
   4   9  17   52.69   15.80
  -5  -9 -17   30.40    9.70
   5   9  17   50.89   15.40
   5   9  17   43.80   21.30
  -6  -9 -17   39.80    9.70
   6   9  17   45.90   19.80
   6   9  17   51.79   17.00
  -7  -9 -17  111.19   14.80
   7   9  17  117.89   21.80
   7   9  17   71.59   26.70
  -2 -10 -17  116.19   19.30
  -2 -10 -17  114.29   17.00
  -3 -10 -17   -3.80   10.90
  -3 -10 -17   19.90   10.70
  -3 -10 -17   -2.30    9.40
  -4 -10 -17   49.99   12.30
  -4 -10 -17   27.80   12.90
   4  10  17   63.79   20.80
  -5 -10 -17  -19.90    6.50
   5  10  17   30.60   16.40
   6  10  17  -20.00   14.20
   7  10  17   91.39   27.40
  -4  -6  18   10.90   16.60
  -2  -6  18   19.50   13.00
  -1  -6  18    9.60   13.60
   0  -6  18   52.99   20.40
   6   5 -18   52.49   21.40
   6   5 -18   34.50   15.10
   5   5 -18    2.60   16.40
   5   5 -18   16.20   14.00
  -5  -5  18   34.30   18.20
   4   5 -18   -1.50   11.30
   4   5 -18   -3.80    8.30
  -4  -5  18   31.50   16.50
  -4  -5  18   17.60   14.90
   3   5 -18    9.30    7.30
  -3  -5  18   -7.90   12.30
  -2  -5  18    4.00   12.50
  -2  -5  18   -4.30   14.40
   1   5 -18   54.09   11.50
  -1  -5  18   42.40   19.90
  -1  -5  18   45.50   15.10
   0  -5  18   52.19   16.20
   0  -5  18   34.20   15.20
   0  -5  18   63.99   21.00
   1  -5  18   20.50   11.90
   1  -5  18   64.99   18.60
   1  -5  18   19.40   14.30
  -7  -4  18  130.59   26.40
   6   4 -18   -1.40   15.90
   6   4 -18   19.60   12.20
  -6  -4  18    7.50   16.20
   5   4 -18   65.79   19.40
   5   4 -18   76.09   14.30
   5   4 -18   83.29   17.00
  -5  -4  18  111.09   23.20
   4   4 -18   10.80   12.30
   4   4 -18    8.90   10.70
   4   4 -18    2.60    8.40
  -4  -4  18   20.70   12.80
   3   4 -18    2.80   11.50
   3   4 -18    9.40   10.30
   3   4 -18   20.10    9.00
  -3  -4  18   37.60   13.90
  -3  -4  18   43.20   14.60
  -3  -4  18   24.80   15.60
   2   4 -18   63.79   16.20
   2   4 -18   60.39   12.30
  -2  -4  18   80.89   19.90
  -2  -4  18   72.89   17.80
  -2  -4  18  110.89   26.10
   1   4 -18   -4.60    5.80
  -1  -4  18   22.70   14.30
  -1  -4  18    8.00   14.10
  -1  -4  18    2.70   10.20
   0   4 -18   17.30    7.90
   0  -4  18   17.70   10.30
   0  -4  18   40.10   20.20
   0  -4  18    8.20   11.70
   1  -4  18  124.59   24.50
   1  -4  18   81.99   17.10
   1  -4  18   74.69   20.30
   2  -4  18  188.08   32.50
   2  -4  18  242.78   25.80
   3  -4  18   82.89   16.00
   3  -4  18   72.69   20.40
   3  -4  18  127.39   24.10
   6   3 -18    0.90   15.30
   6   3 -18    6.30    8.10
   6   3 -18   -6.80    6.60
  -6  -3  18    0.70   13.80
   5   3 -18   -4.10    9.70
   5   3 -18   12.20    8.40
  -5  -3  18   -7.20   12.20
   4   3 -18   49.50   10.90
   4   3 -18   43.70   11.10
   4   3 -18   38.60   13.10
  -4  -3  18   41.00   20.40
  -4  -3  18   28.70   14.10
  -4  -3  18   50.19   16.90
   3   3 -18    2.00    8.00
   3   3 -18   13.50    7.70
  -3  -3  18   24.40   13.00
  -3  -3  18   12.30   11.40
  -3  -3  18   11.90   13.30
   2   3 -18   11.00    9.80
   2   3 -18   -0.10    6.50
  -2  -3  18   14.50   13.60
  -2  -3  18   14.00   10.90
  -2  -3  18    3.00   10.00
   1   3 -18    7.80    7.80
   1   3 -18   10.10    8.40
  -1  -3  18   15.40   17.30
  -1  -3  18   22.80   13.10
  -1  -3  18   15.50   10.60
   0   3 -18   29.90    8.50
   0  -3  18   28.40   11.20
   0  -3  18   30.90   16.50
   0  -3  18   18.00   15.70
  -1   3 -18    3.70    6.80
   1  -3  18    2.60    9.10
   1  -3  18   -0.90   11.90
   1  -3  18    4.10    8.70
   2  -3  18   39.70   12.20
   2  -3  18   48.90   15.90
   2  -3  18   81.39   23.50
   3  -3  18  105.69   22.50
   3  -3  18  128.39   23.40
   3  -3  18   94.99   16.80
   4  -3  18   59.89   16.90
   4  -3  18   70.09   19.30
   4  -3  18   38.90   11.70
   5  -3  18   78.49   17.90
   6   2 -18    9.10    8.60
  -6  -2  18   24.90   14.60
   5   2 -18   34.00    9.80
   5   2 -18   27.10   10.90
   5   2 -18   46.40   13.30
  -5  -2  18    4.20   12.50
   4   2 -18  466.35   28.90
   4   2 -18  523.15   34.20
  -4  -2  18  474.15   48.10
  -4  -2  18  510.05   37.60
  -4  -2  18  535.25   36.60
   3   2 -18  110.59   15.50
   3   2 -18  133.09   14.20
   3   2 -18  108.49   17.80
  -3  -2  18  126.99   20.60
  -3  -2  18  129.39   23.60
  -3  -2  18  141.29   31.60
   2   2 -18   46.40   10.50
   2   2 -18   22.10    9.70
   2   2 -18   24.30    7.30
  -2  -2  18   53.19   18.50
  -2  -2  18   35.60   12.70
  -2  -2  18   68.09   18.30
   1   2 -18   21.90    8.60
   1   2 -18   15.10    9.00
  -1  -2  18   26.10   13.10
  -1  -2  18   15.40   13.80
  -1  -2  18   39.20   13.10
   0   2 -18   11.70    7.90
   0  -2  18   11.90    9.60
   0  -2  18    9.70   11.30
   0  -2  18   10.40   17.00
  -1   2 -18   -3.10    4.90
   1  -2  18    3.90   10.10
   1  -2  18   12.30    9.80
   1  -2  18   -0.40   12.50
  -2   2 -18  242.98   18.70
   2  -2  18  241.38   22.70
   2  -2  18  259.47   31.60
   2  -2  18  241.78   26.50
   3  -2  18   84.29   15.50
   3  -2  18   85.39   19.40
   3  -2  18   90.19   21.80
   4  -2  18   22.40   10.10
   4  -2  18   41.90   15.90
   4  -2  18   50.59   16.70
   5  -2  18   57.89   21.00
   5  -2  18   99.09   20.20
   5  -2  18   56.89   13.00
   6   1 -18    6.10    8.10
   5   1 -18  208.48   21.80
   5   1 -18  211.18   19.00
   5   1 -18  221.78   20.70
  -5  -1  18  179.28   21.30
   4   1 -18   77.29   11.70
   4   1 -18   73.09   12.50
   4   1 -18   72.79   15.20
   4   1 -18   75.39   12.90
  -4  -1  18  102.79   26.50
  -4  -1  18   87.89   18.50
  -4  -1  18   72.89   16.30
   3   1 -18   13.00    7.60
   3   1 -18    9.90    8.50
   3   1 -18   20.60    7.90
  -3  -1  18   16.50   12.70
  -3  -1  18    9.90    8.10
  -3  -1  18   25.40   16.80
   2   1 -18    4.70    6.20
   2   1 -18   11.50    8.10
   2   1 -18    2.80    5.50
  -2  -1  18   21.10   16.60
  -2  -1  18   14.20   10.60
  -2  -1  18   17.80   12.00
   1   1 -18  125.69   11.20
   1   1 -18  128.89   13.50
   1   1 -18  135.29   15.90
  -1  -1  18  139.09   20.60
  -1  -1  18  182.28   26.40
  -1  -1  18  137.99   29.80
   0   1 -18   25.60    8.90
   0   1 -18   20.80    7.70
   0  -1  18   25.40   12.80
   0  -1  18   18.20    9.70
   0  -1  18   23.10   17.30
  -1   1 -18   79.49   12.90
  -1   1 -18   79.19   11.80
   1  -1  18   58.99   13.70
  -2   1 -18  430.86   24.70
   2  -1  18  439.26   39.70
   2  -1  18  419.96   29.70
   2  -1  18  470.45   34.80
  -3   1 -18   12.60    7.10
   3  -1  18    9.90    9.40
   3  -1  18   20.90   11.50
   3  -1  18   18.20   14.30
   4  -1  18   71.79   17.50
   4  -1  18   95.49   16.10
   4  -1  18  120.59   23.90
   5  -1  18   41.60   14.20
   5  -1  18   14.40   12.60
   6  -1  18  112.29   21.10
   6  -1  18   89.39   14.70
   6  -1  18   95.89   20.40
   7  -1  18   71.09   16.00
   6   0 -18   10.50    6.20
   6   0 -18    8.00    9.20
   6   0 -18    0.30    8.40
   6   0 -18    1.90    7.80
   5   0 -18   14.80    9.90
   5   0 -18   18.30    9.00
   5   0 -18   10.10    6.60
   5   0 -18   16.60    9.40
   4   0 -18    8.00    8.60
   4   0 -18   12.80    7.10
   4   0 -18   10.30    8.40
   4   0 -18    0.80    8.10
  -4   0  18   17.10   17.40
  -4   0  18   21.20   10.80
   3   0 -18  126.69   14.00
   3   0 -18  126.19   18.60
   3   0 -18  121.09   13.30
   3   0 -18  113.79   15.20
  -3   0  18  117.59   28.50
  -3   0  18  106.09   17.80
  -3   0  18  150.88   21.40
   2   0 -18    3.50    6.40
   2   0 -18   12.90    8.30
   2   0 -18    8.60    6.00
  -2   0  18    6.60    8.40
  -2   0  18    8.10   13.70
  -2   0  18    7.60    9.00
   1   0 -18   53.79   11.80
   1   0 -18   50.69   11.00
   1   0 -18   48.50    8.40
   1   0 -18   35.60    8.90
  -1   0  18   53.99   13.70
  -1   0  18   67.49   17.10
  -1   0  18   27.00   18.90
   0   0 -18  233.38   17.00
   0   0 -18  210.18   13.20
   0   0 -18  253.17   20.10
   0   0 -18  246.88   18.60
   0   0  18  196.38   21.20
   0   0  18  253.37   45.00
   0   0  18  236.28   22.80
  -1   0 -18   57.49    9.40
  -1   0 -18   39.60    9.80
   1   0  18   57.99   15.70
   1   0  18   61.79   14.30
   1   0  18   41.30   17.90
  -2   0 -18   20.50    6.60
  -2   0 -18   17.70    7.50
   2   0  18   19.20   15.10
   2   0  18   38.40   12.00
   2   0  18   39.00   13.00
  -3   0 -18   48.00    8.70
   3   0  18   48.00   17.90
   3   0  18   56.79   13.00
   3   0  18   53.99   15.10
   4   0  18   16.30   11.80
   4   0  18   13.80   14.10
   4   0  18   27.20   10.10
   5   0  18  141.99   22.50
   5   0  18  138.29   18.80
   5   0  18  135.49   25.20
   6   0  18   31.90   10.10
   6   0  18   24.30   11.80
   6   0  18   58.49   14.10
   7   0  18   28.10   13.40
   7   0  18   17.80   12.60
   7   0  18   19.30    7.90
   8   0  18   92.39   21.50
   6  -1 -18   12.90    9.70
   6  -1 -18    6.30    8.40
   6  -1 -18  -17.40    6.20
   6  -1 -18   -6.70    5.70
   5  -1 -18    9.30    8.30
   5  -1 -18    8.80    8.40
   5  -1 -18   22.90    7.70
   5  -1 -18   31.90   11.40
   4  -1 -18   16.00    6.80
   4  -1 -18    9.50    8.30
   4  -1 -18   18.40    8.90
   4  -1 -18   15.60   10.00
  -4   1  18   37.10   10.60
  -4   1  18   31.30   17.90
   3  -1 -18   10.10    6.80
   3  -1 -18   21.50    8.40
   3  -1 -18   14.70    8.00
  -3   1  18   29.40   10.00
  -3   1  18   25.80   18.10
  -3   1  18   22.00   10.90
   2  -1 -18  121.09   17.20
   2  -1 -18  106.59   13.80
   2  -1 -18   94.19   13.00
   2  -1 -18   97.29   16.30
  -2   1  18  110.19   27.50
  -2   1  18  129.59   19.80
  -2   1  18   83.29   16.00
   1  -1 -18   -0.40    5.70
   1  -1 -18   -3.00    4.60
   1  -1 -18    4.70    5.60
   1  -1 -18   -2.30    6.20
  -1   1  18   -1.10    7.70
  -1   1  18    2.10    7.20
   0  -1 -18   26.30    8.30
   0  -1 -18   25.40    6.00
   0  -1 -18   40.00    8.70
   0  -1 -18   30.70    8.50
   0   1  18   17.20    9.70
   0   1  18   34.40   12.60
   0   1  18   26.40   17.40
  -1  -1 -18    3.10    3.80
  -1  -1 -18   11.40    6.70
  -1  -1 -18    2.20    6.50
  -1  -1 -18    3.10    5.00
   1   1  18   11.00    8.30
   1   1  18    9.80   13.50
   1   1  18   15.30   10.00
  -2  -1 -18  122.69   13.40
  -2  -1 -18  149.79   14.50
  -2  -1 -18  139.19   11.70
   2   1  18  110.39   24.50
   2   1  18  136.79   15.70
   2   1  18  126.39   19.50
  -3  -1 -18  723.03   35.00
  -3  -1 -18  741.63   31.80
   3   1  18  704.23   45.60
   3   1  18  731.53   39.30
   4   1  18   12.00    8.10
   4   1  18   12.90   10.50
   4   1  18   11.10    7.90
   4   1  18   11.80   11.60
   5   1  18  110.89   16.60
   5   1  18  117.49   25.20
   5   1  18  163.18   17.00
   5   1  18  101.39   19.00
   6   1  18   92.69   15.00
   6   1  18   77.19   20.40
   6   1  18   84.09   19.70
   7   1  18   25.90   12.40
   8   1  18   28.90   17.00
   5  -2 -18  247.08   25.90
   5  -2 -18  237.68   18.80
   5  -2 -18  261.97   22.60
   4  -2 -18   -2.90    4.90
   4  -2 -18   -0.80    7.20
   4  -2 -18    1.80    6.90
   4  -2 -18    3.30    7.00
  -4   2  18   -1.30   13.10
   3  -2 -18   28.10    7.70
   3  -2 -18   24.10    8.60
   3  -2 -18   21.50    9.90
   3  -2 -18   20.60    9.10
  -3   2  18   10.60    7.30
  -3   2  18   21.50   14.10
  -3   2  18   10.20    8.80
   2  -2 -18  566.34   29.80
   2  -2 -18  597.94   30.30
   2  -2 -18  553.64   30.40
   2  -2 -18  555.04   32.50
  -2   2  18  584.84   35.30
  -2   2  18  573.04   47.90
  -2   2  18  564.04   31.90
   1  -2 -18  224.18   25.20
   1  -2 -18  242.78   17.10
   1  -2 -18  230.28   16.80
   1  -2 -18  231.68   19.80
  -1   2  18  215.18   42.30
  -1   2  18  249.58   21.50
  -1   2  18  248.58   20.40
   0  -2 -18  198.68   15.30
   0  -2 -18  230.48   15.10
   0  -2 -18  205.18   16.50
   0  -2 -18  204.98   17.70
   0   2  18  220.88   34.50
   0   2  18  229.28   21.10
   0   2  18  214.58   20.00
  -1  -2 -18  294.17   19.20
  -1  -2 -18  249.78   14.70
  -1  -2 -18  256.47   19.40
  -1  -2 -18  265.47   16.60
   1   2  18  214.38   28.10
   1   2  18  282.67   22.30
   1   2  18  268.87   22.60
  -2  -2 -18  118.29   12.80
  -2  -2 -18  122.59   13.20
  -2  -2 -18  120.39   10.70
  -2  -2 -18  103.99    7.50
   2   2  18  106.49   16.50
   2   2  18   83.59   20.50
   2   2  18  129.39   19.60
   2   2  18  107.09   23.80
  -3  -2 -18  200.18   16.00
  -3  -2 -18  219.38   13.30
  -3  -2 -18  219.38   17.00
   3   2  18  191.68   19.60
   3   2  18  206.08   34.80
   3   2  18  213.28   19.20
   3   2  18  136.59   20.90
  -4  -2 -18  454.85   20.00
   4   2  18  386.96   26.90
   4   2  18  315.37   30.30
   4   2  18  361.56   30.70
   4   2  18  400.26   34.50
   5   2  18   41.70   11.30
   5   2  18   43.30   15.20
   5   2  18   51.29   14.60
   5   2  18   36.80   12.10
   6   2  18   91.89   15.10
   6   2  18  108.89   20.60
   6   2  18  157.78   20.60
   6   2  18  120.39   25.30
   7   2  18   40.80   15.80
   7   2  18   24.10   11.70
   7   2  18   34.60    9.60
   8   2  18   97.39   14.20
   8   2  18   67.89   18.80
   8   2  18   34.30   16.10
   6  -3 -18  -18.10    7.40
   5  -3 -18   58.49   12.10
   5  -3 -18   74.99   14.00
   5  -3 -18   71.79   15.10
   5  -3 -18  102.49   17.00
   4  -3 -18   42.20   11.40
   4  -3 -18   57.89   12.60
   4  -3 -18   24.20   10.40
   4  -3 -18   47.60   10.60
  -4   3  18   26.70   16.40
   3  -3 -18  290.87   21.30
   3  -3 -18  275.87   23.10
   3  -3 -18  295.87   23.50
   3  -3 -18  305.57   21.60
  -3   3  18  329.37   36.00
   2  -3 -18    5.00    6.10
   2  -3 -18   10.90    8.50
   2  -3 -18    0.60    6.80
  -2   3  18   -2.90    9.60
  -2   3  18   19.40    9.00
  -2   3  18    0.50    6.90
   1  -3 -18   -3.30    6.00
   1  -3 -18    0.80    5.50
   1  -3 -18    9.60    7.00
   1  -3 -18    3.20    7.20
  -1   3  18    1.40    7.20
  -1   3  18   20.10    8.40
  -1   3  18   24.90   19.10
   0  -3 -18   30.30    9.40
   0  -3 -18   37.20    8.50
   0  -3 -18   41.30    8.50
   0   3  18   45.30   17.70
   0   3  18   59.49   13.00
   0   3  18   43.90   11.10
  -1  -3 -18   62.19    9.20
  -1  -3 -18   75.49   11.30
  -1  -3 -18   70.59   10.70
  -1  -3 -18   71.19   12.80
   1   3  18   60.09   19.40
   1   3  18   85.59   15.60
   1   3  18   61.49   22.60
   1   3  18   69.99   13.60
  -2  -3 -18  122.89   13.00
  -2  -3 -18  131.99    9.80
  -2  -3 -18   95.59   13.50
  -2  -3 -18  110.29   10.40
   2   3  18  116.09   17.00
   2   3  18  111.29   16.20
   2   3  18   93.99   24.70
   2   3  18  120.39   23.70
  -3  -3 -18  113.09   12.60
  -3  -3 -18  107.79   12.60
   3   3  18  135.29   18.50
   3   3  18  104.99   17.00
   3   3  18   78.29   21.70
   3   3  18  141.29   30.30
  -4  -3 -18   14.00    4.40
  -4  -3 -18   -2.20    5.70
   4   3  18    9.10    9.80
   4   3  18   -2.70    7.80
   4   3  18   14.00   12.80
   4   3  18   22.20   12.10
   5   3  18    9.60   10.20
   5   3  18   -2.60   10.80
   5   3  18   33.20   13.40
   5   3  18    7.10    8.70
   6   3  18  348.37   33.60
   6   3  18  416.46   34.50
   6   3  18  387.56   26.80
   6   3  18  402.56   30.20
   7   3  18   -8.30    8.70
   7   3  18   10.40    7.00
   7   3  18   -4.20   10.20
   8   3  18  171.58   17.20
   8   3  18  203.58   25.70
   8   3  18  145.89   23.30
   8   3  18  122.69   28.30
   4  -4 -18  138.89   14.80
   4  -4 -18  140.69   21.20
   4  -4 -18  119.29   19.40
   3  -4 -18   -2.50    6.90
   3  -4 -18    9.70    8.30
   3  -4 -18   11.50    8.40
   3  -4 -18    7.70    7.00
  -3   4  18   11.30   15.50
   2  -4 -18   11.20    8.00
   2  -4 -18    6.10    6.40
   2  -4 -18   24.30    9.40
   2  -4 -18   46.00   11.40
  -2   4  18   13.00   15.50
   1  -4 -18  700.43   34.50
   1  -4 -18  700.63   35.10
   1  -4 -18  662.53   36.30
   1  -4 -18  715.93   33.80
  -1   4  18  689.93   32.50
  -1   4  18  655.23   38.10
   0  -4 -18   46.30   10.00
   0  -4 -18   45.00    9.30
   0  -4 -18   76.49   13.20
   0   4  18   42.30   11.40
   0   4  18   56.39   10.60
   0   4  18   75.29   21.40
  -1  -4 -18    9.40    7.60
  -1  -4 -18    4.70    5.70
  -1  -4 -18    4.30    7.40
   1   4  18   17.20    8.10
   1   4  18    2.60   14.50
   1   4  18    4.50   10.70
   1   4  18   23.50    8.80
  -2  -4 -18   10.30    5.40
  -2  -4 -18   14.10    6.90
  -2  -4 -18   -2.60    6.50
   2   4  18    6.50    7.60
   2   4  18   10.50   11.30
   2   4  18    6.70    7.90
   2   4  18   10.40   12.70
  -3  -4 -18    5.30    5.70
  -3  -4 -18   -0.30    4.60
  -3  -4 -18    4.10    6.10
   3   4  18   15.90   14.50
   3   4  18  -10.40    6.20
   3   4  18   -2.00    7.20
  -4  -4 -18   -4.70    3.30
  -4  -4 -18    3.40    3.60
  -4  -4 -18   -4.60    5.70
  -4  -4 -18    7.40    6.00
   4   4  18   24.50   13.10
   4   4  18   -2.20   12.00
   4   4  18   16.00    8.30
   4   4  18   -5.60    7.50
   5   4  18    6.50    8.00
   5   4  18   11.60   11.30
   5   4  18   -5.10   10.00
   5   4  18   -7.60    7.00
   6   4  18   -3.60    7.70
   6   4  18   12.90   18.20
   6   4  18    4.90    7.60
   6   4  18   19.10   14.80
   7   4  18   -2.70    8.20
   7   4  18   14.20    8.00
   7   4  18   -6.00   11.30
   7   4  18   -1.90   11.40
   8   4  18   12.20   11.70
   8   4  18   19.00    8.50
   8   4  18   13.30   24.00
   8   4  18    8.30   14.10
   9   4  18   -6.60   13.60
   4  -5 -18   81.89   12.60
   4  -5 -18   72.99   15.10
   4  -5 -18   73.09   14.30
   4  -5 -18   72.59   15.50
   3  -5 -18   11.40    7.10
   3  -5 -18    5.80    9.60
   3  -5 -18    5.30    8.10
   3  -5 -18   11.20    9.30
  -3   5  18   24.40   17.70
   2  -5 -18  162.48   18.20
   2  -5 -18  155.28   15.60
   2  -5 -18  153.98   15.30
  -2   5  18  134.49   26.80
   1  -5 -18  115.19   17.00
   1  -5 -18  107.69   14.50
   1  -5 -18  124.89   14.30
  -1   5  18  100.49   16.20
  -1   5  18  166.08   31.50
   0  -5 -18    8.50    7.50
   0  -5 -18   12.10    7.50
   0   5  18   21.90    9.50
   0   5  18    2.00   15.70
   0   5  18    9.70    7.00
  -1  -5 -18    6.50    6.40
  -1  -5 -18    6.80    6.10
  -1  -5 -18    6.90    7.90
   1   5  18    8.50   11.80
   1   5  18    7.20    7.10
   1   5  18  -10.00   13.50
   1   5  18    8.00    6.80
  -2  -5 -18   18.10    7.10
  -2  -5 -18   20.90    6.40
  -2  -5 -18   22.50    8.40
   2   5  18   -2.60   11.60
   2   5  18   23.60   11.10
   2   5  18   29.90    8.70
   2   5  18   43.80   17.40
  -3  -5 -18    1.80    5.10
  -3  -5 -18   -1.10    4.20
   3   5  18    7.20   13.40
   3   5  18    7.50    8.40
   3   5  18   -0.60    6.70
   3   5  18    4.60   15.30
  -4  -5 -18   78.79   14.40
  -4  -5 -18   85.09    7.80
  -4  -5 -18   73.19   12.60
   4   5  18   75.79   14.80
   4   5  18   85.89   14.20
   4   5  18  105.39   21.30
   4   5  18   84.79   21.80
  -5  -5 -18  216.98   17.70
   5   5  18  253.97   27.10
   5   5  18  226.08   31.40
   5   5  18  238.28   21.30
   5   5  18  225.88   20.60
  -6  -5 -18   18.50    7.00
   6   5  18   12.90   12.70
   6   5  18   13.70   14.00
   6   5  18   24.20   11.10
   6   5  18   16.90   11.10
   7   5  18  -11.40   12.50
   7   5  18   -2.50    9.00
   7   5  18   12.70    7.10
   7   5  18   -5.80    7.20
   8   5  18   18.50   13.50
   8   5  18   52.19   15.60
   8   5  18   55.79   19.10
   8   5  18   18.00   10.80
   3  -6 -18    3.30    7.70
   3  -6 -18    9.00    9.30
   3  -6 -18   -9.30    8.30
   2  -6 -18    0.20    6.60
   2  -6 -18    0.20    7.10
   2  -6 -18    3.80    7.50
  -2   6  18    2.30   14.70
   1  -6 -18   -1.20    6.90
   1  -6 -18    3.30    6.70
   1  -6 -18   13.50    9.30
  -1   6  18   35.10   16.70
   0  -6 -18   16.50    9.20
   0  -6 -18    7.80    6.50
   0  -6 -18    3.40    6.90
   0   6  18    4.10    9.00
   0   6  18   -0.80   11.60
   0   6  18    8.60   11.60
  -1  -6 -18   79.69   12.70
  -1  -6 -18   85.29   15.10
  -1  -6 -18   74.59   11.10
   1   6  18  104.99   11.80
   1   6  18   37.60   20.10
   1   6  18   72.89   15.10
  -2  -6 -18  206.98   14.80
  -2  -6 -18  186.38   18.10
  -2  -6 -18  202.88   17.20
   2   6  18  232.48   21.20
   2   6  18  197.68   32.80
   2   6  18  159.58   34.60
   2   6  18  196.98   16.70
  -3  -6 -18   -0.60    4.50
  -3  -6 -18   -7.90    4.60
  -3  -6 -18   -3.10    6.40
   3   6  18   -6.60   10.10
   3   6  18    2.10   11.70
   3   6  18    0.20    7.80
   3   6  18    6.70    7.90
  -4  -6 -18   18.00    7.30
  -4  -6 -18   24.80    5.60
   4   6  18   21.40   14.30
   4   6  18   16.60    8.90
   4   6  18   26.50   16.20
   4   6  18   36.90   17.40
  -5  -6 -18  374.76   22.80
   5   6  18  379.26   27.00
   5   6  18  404.16   27.60
   5   6  18  342.17   31.50
   5   6  18  350.46   39.80
  -6  -6 -18  269.37   19.20
   6   6  18  250.77   21.80
   6   6  18  237.48   22.60
   6   6  18  218.28   32.30
   6   6  18  255.97   27.50
  -7  -6 -18   48.00    8.90
   7   6  18   47.80   13.70
   7   6  18   43.10   11.40
   7   6  18   69.19   22.10
   7   6  18   35.70   15.40
   8   6  18    4.00    9.70
   8   6  18   -8.40   11.60
   8   6  18   -4.60    7.00
   8   6  18    6.10   15.00
   9   6  18    2.20   16.20
   2  -7 -18   37.80   12.20
   2  -7 -18   20.50    9.00
   2  -7 -18   25.20   10.40
   1  -7 -18   30.40   11.00
   1  -7 -18   28.50    9.30
   1  -7 -18   19.40    8.90
  -1   7  18   47.80   18.50
   0  -7 -18   31.00   11.30
   0  -7 -18   48.50   10.80
   0  -7 -18   32.30    9.60
   0   7  18   70.49   21.30
  -1  -7 -18   -0.10    6.00
  -1  -7 -18    8.10    7.20
  -1  -7 -18   16.00    9.40
   1   7  18   20.40   13.80
   1   7  18   -5.90    9.90
   1   7  18   25.50   13.60
  -2  -7 -18   28.20    8.20
  -2  -7 -18   37.20   11.00
  -2  -7 -18   25.70    8.30
   2   7  18   24.40   11.90
   2   7  18   38.60    9.90
   2   7  18   49.30   16.40
   2   7  18   23.10   18.30
  -3  -7 -18   -0.10    6.70
  -3  -7 -18   -1.00    5.90
  -3  -7 -18    3.50    7.00
   3   7  18    8.60   11.50
   3   7  18    7.10   13.70
   3   7  18   -5.00    8.50
   3   7  18   15.60    8.80
  -4  -7 -18   94.29   10.00
  -4  -7 -18  130.99   14.30
  -4  -7 -18  112.99   13.10
   4   7  18  122.99   18.50
   4   7  18  118.09   29.30
   4   7  18   92.19   20.50
  -5  -7 -18   49.80   10.30
   5   7  18   79.59   23.80
   5   7  18   84.89   21.30
   5   7  18   54.69   14.30
   5   7  18   47.20   12.70
  -6  -7 -18   24.90    8.40
   6   7  18   41.80   15.40
   6   7  18   55.89   22.00
   6   7  18   31.70   11.80
   6   7  18   25.60   10.90
  -7  -7 -18   13.90    7.70
   7   7  18  -17.50    9.30
   7   7  18   13.40    9.00
   7   7  18   22.30   19.90
   7   7  18   18.90   11.50
   8   7  18  124.09   21.10
   8   7  18  111.39   24.10
   8   7  18  148.99   30.40
   8   7  18  121.49   18.60
   1  -8 -18  -16.80    6.90
   1  -8 -18   -4.20    9.90
   0  -8 -18    8.00    8.00
   0  -8 -18   -3.10    8.30
   0  -8 -18    4.90   11.90
  -1  -8 -18  216.88   18.30
  -1  -8 -18  224.08   21.50
   1   8  18  263.07   29.60
  -2  -8 -18   80.09   12.00
  -2  -8 -18   99.59   14.50
  -2  -8 -18   81.69   15.30
   2   8  18  122.39   22.80
   2   8  18   44.10   21.80
   2   8  18   95.49   16.10
  -3  -8 -18   78.89   14.60
  -3  -8 -18   75.99   11.80
  -3  -8 -18   68.59   11.20
   3   8  18   77.69   17.90
   3   8  18   86.09   18.60
   3   8  18   44.80   12.10
   3   8  18   91.49   26.20
  -4  -8 -18   -5.40    8.20
  -4  -8 -18  -28.30   10.30
  -4  -8 -18   -1.40    6.60
   4   8  18   27.50   15.30
   4   8  18   12.00   10.50
   4   8  18   11.60   12.30
   4   8  18  -12.30    8.60
  -5  -8 -18   39.70   10.10
   5   8  18   29.00   14.90
   5   8  18   29.20   13.70
   5   8  18   42.10   18.40
   5   8  18   13.20   11.60
  -6  -8 -18  128.39   13.70
   6   8  18   77.69   16.90
   6   8  18   93.69   16.60
   6   8  18  119.69   24.90
  -7  -8 -18   -2.90    7.40
   7   8  18    5.20   12.90
   7   8  18    3.40   14.90
   8   8  18    7.10   11.60
   8   8  18   28.40   12.40
   8   8  18   58.29   24.90
  -1  -9 -18  -12.20    7.40
  -1  -9 -18   16.40   10.40
  -2  -9 -18   20.30   10.90
  -2  -9 -18   17.60    8.80
  -2  -9 -18    9.20    9.00
   2   9  18   59.49   20.80
   2   9  18   35.80   18.80
  -3  -9 -18    6.70    9.50
  -3  -9 -18    5.50    7.70
   3   9  18   -3.30   20.00
   3   9  18   21.70   14.40
   3   9  18   49.99   16.60
  -4  -9 -18   24.60   14.40
  -4  -9 -18   27.20   11.20
   4   9  18   66.59   22.50
   4   9  18   40.80   14.50
   4   9  18   -6.30   11.10
  -5  -9 -18   20.90    9.10
   5   9  18   62.19   20.90
   5   9  18   40.80   13.80
   5   9  18   62.19   17.00
   5   9  18   47.30   14.90
  -6  -9 -18   -0.40    6.70
   6   9  18   -4.90   11.40
   6   9  18   13.30   14.60
   6   9  18    2.30   11.00
  -7  -9 -18  -19.60    8.10
   7   9  18   -3.40   10.40
   7   9  18    7.80   14.80
   7   9  18   -5.30    8.90
  -2 -10 -18   17.40   11.40
  -3 -10 -18   11.40   10.50
  -4 -10 -18    6.60   14.20
   4  10  18   80.79   25.20
   5  10  18   22.70   26.70
  -6 -10 -18   16.10   10.50
   6  10  18   18.10   13.50
   6  10  18   40.60   18.80
   6  10  18   12.20   16.30
  -3  -6  19  103.99   22.70
   5   5 -19    1.60   17.80
  -4  -5  19    2.40   16.20
  -4  -5  19   21.70   18.50
   3   5 -19   15.30    9.90
  -3  -5  19   -8.60   11.40
  -3  -5  19  -11.10    9.70
   2   5 -19   25.40    9.80
  -2  -5  19   28.10   16.70
  -2  -5  19    0.40   20.70
  -2  -5  19   13.90   13.30
   1   5 -19  121.99   17.40
  -1  -5  19   51.29   19.80
  -1  -5  19  105.79   38.30
  -1  -5  19  148.39   29.70
   0  -5  19   18.20   16.80
   0  -5  19   37.00   18.50
   0  -5  19   25.90   14.00
   1  -5  19   30.30   16.50
   6   4 -19   -4.50   18.70
  -6  -4  19   13.90   17.30
   5   4 -19  132.69   27.00
   5   4 -19   97.89   19.00
  -5  -4  19  163.58   27.50
   4   4 -19   67.89   20.80
   4   4 -19   90.59   15.20
   4   4 -19   87.39   17.50
  -4  -4  19  132.99   24.20
   3   4 -19   -0.40   16.50
   3   4 -19   -0.50    8.40
  -3  -4  19   19.00   13.70
  -3  -4  19    4.20   14.20
  -3  -4  19  -21.00   17.30
   2   4 -19   18.50    7.20
  -2  -4  19   15.40   11.20
  -2  -4  19   17.60   17.30
  -2  -4  19   12.70   11.40
   1   4 -19   20.80    8.00
  -1  -4  19   50.49   15.80
  -1  -4  19   30.50   12.90
  -1  -4  19   47.70   16.80
   0   4 -19   23.60    9.30
   0  -4  19   16.40   16.30
   0  -4  19    8.50   11.00
   1  -4  19  204.48   32.60
   1  -4  19  191.58   30.70
   2  -4  19   29.90   13.40
   2  -4  19   23.10   12.50
   3  -4  19   10.70   13.80
   6   3 -19   45.00   13.00
   6   3 -19   50.79   15.20
   5   3 -19   58.69   14.60
   5   3 -19   64.19   13.40
   5   3 -19   77.79   14.20
  -5  -3  19   58.59   19.40
   4   3 -19   10.20    8.10
   4   3 -19   -9.30    9.10
  -4  -3  19   32.30   15.50
  -4  -3  19   13.80   12.10
   3   3 -19   77.09   13.20
  -3  -3  19   67.69   23.20
  -3  -3  19   72.09   18.40
  -3  -3  19   87.59   27.90
   2   3 -19   25.70    8.40
   2   3 -19   14.30   10.80
  -2  -3  19   35.80   13.90
  -2  -3  19   16.70   12.50
  -2  -3  19   35.10   18.10
   1   3 -19   56.69   14.90
   1   3 -19   69.29   11.80
  -1  -3  19   81.99   18.20
  -1  -3  19   46.30   21.40
  -1  -3  19   74.99   18.80
   0   3 -19   50.09   10.40
   0  -3  19   58.09   21.40
   0  -3  19   26.60   12.20
   0  -3  19   33.00   13.60
  -1   3 -19  166.18   17.90
   1  -3  19  206.08   37.30
   1  -3  19  178.68   30.50
   1  -3  19  165.28   23.20
   2  -3  19   48.60   17.20
   2  -3  19   32.80   14.60
   2  -3  19   36.60   12.70
   3  -3  19   17.90   13.20
   3  -3  19    2.10   11.10
   3  -3  19    6.30    9.50
   4  -3  19   16.40   14.70
   4  -3  19   20.30   10.70
   4  -3  19    8.50   14.00
   6   2 -19   33.00   12.60
   6   2 -19   46.30   11.90
   5   2 -19   30.00    9.80
   5   2 -19   31.30   13.30
   5   2 -19   45.50   11.50
  -5  -2  19   22.10   15.90
   4   2 -19   29.60    9.60
   4   2 -19   10.30   10.30
   4   2 -19    1.60    8.20
  -4  -2  19    4.30   12.90
  -4  -2  19   16.20   16.90
  -4  -2  19    0.00   11.90
   3   2 -19   44.90   11.20
   3   2 -19   48.70   21.80
  -3  -2  19   85.49   19.70
  -3  -2  19   32.50   19.40
  -3  -2  19   68.59   15.50
   2   2 -19   20.40   10.60
   2   2 -19   29.40    7.50
   2   2 -19   14.70    7.30
  -2  -2  19   39.90   17.40
  -2  -2  19   24.40   19.10
  -2  -2  19   22.90   12.20
   1   2 -19  147.19   17.30
   1   2 -19  165.98   16.70
  -1  -2  19  174.68   27.40
  -1  -2  19  230.48   38.70
   0   2 -19    6.80    8.40
   0   2 -19    1.00    6.40
   0  -2  19   -6.30    9.60
   0  -2  19   21.80   15.60
   0  -2  19   11.10    9.80
  -1   2 -19   47.40   10.60
   1  -2  19   52.19   14.00
   1  -2  19   45.90   18.70
   1  -2  19   20.80   13.30
  -2   2 -19   77.29   13.40
   2  -2  19   94.09   17.30
   2  -2  19   91.79   24.80
   2  -2  19   82.29   19.60
   3  -2  19  261.87   28.00
   3  -2  19  261.57   23.90
   3  -2  19  283.47   33.20
   4  -2  19  108.09   23.50
   5  -2  19  114.59   17.30
   5  -2  19  104.49   20.80
   6  -2  19   89.69   19.40
   6   1 -19   46.50   13.60
   6   1 -19   46.70   14.40
   5   1 -19    8.40    9.10
   5   1 -19    0.20    8.30
   5   1 -19    2.90    8.80
  -5  -1  19    6.80   12.90
   4   1 -19   -9.30    8.40
   4   1 -19    9.80    8.00
  -4  -1  19   21.60   18.40
  -4  -1  19    7.70   12.60
   3   1 -19   69.09   12.80
  -3  -1  19   61.59   15.20
  -3  -1  19   69.99   24.70
   2   1 -19   14.00    7.80
   2   1 -19    1.90    6.00
   2   1 -19   10.40    8.60
  -2  -1  19   19.10   17.80
  -2  -1  19   23.80   11.90
  -2  -1  19   15.90   14.40
   1   1 -19   20.20    9.30
   1   1 -19   17.70    7.90
   1   1 -19    8.70    5.50
  -1  -1  19   11.30   17.50
  -1  -1  19   15.00   11.00
  -1  -1  19    8.30   12.80
   0   1 -19   29.00    9.80
   0   1 -19   13.70    8.20
   0  -1  19   19.10   10.80
   0  -1  19   38.40   13.30
   0  -1  19   25.80   13.90
  -1   1 -19  195.38   17.50
  -1   1 -19  181.18   15.90
   1  -1  19  183.78   28.00
   1  -1  19  138.39   21.40
   1  -1  19  145.59   31.20
  -2   1 -19  324.37   21.40
   2  -1  19  336.97   35.90
   2  -1  19  325.47   30.00
   2  -1  19  334.87   27.60
  -3   1 -19    8.50    6.50
   3  -1  19   10.30   10.40
   3  -1  19    5.80    8.60
   3  -1  19   10.80   16.80
   4  -1  19  107.89   23.30
   4  -1  19  110.49   17.70
   4  -1  19  133.19   22.90
   5  -1  19  110.39   22.20
   6  -1  19   15.60   12.70
   6  -1  19   62.79   15.40
   6  -1  19   -6.70    6.30
   7  -1  19   76.59   17.50
   6   0 -19  206.98   21.20
   6   0 -19  191.08   16.80
   6   0 -19  202.48   26.40
   5   0 -19   68.19   16.10
   5   0 -19   57.79   12.70
   5   0 -19   50.39    9.90
   5   0 -19   48.70   12.40
   4   0 -19   72.49   12.20
   4   0 -19   64.89   14.30
   4   0 -19   74.79   13.80
   4   0 -19   74.59   13.00
  -4   0  19   56.39   16.50
  -4   0  19  106.69   28.20
   3   0 -19  421.66   29.10
   3   0 -19  409.76   25.60
   3   0 -19  416.46   26.10
   3   0 -19  405.46   29.70
  -3   0  19  470.15   32.20
  -3   0  19  376.66   31.20
  -3   0  19  463.65   46.60
   2   0 -19  316.07   24.60
   2   0 -19  329.97   22.40
   2   0 -19  336.87   21.60
   2   0 -19  329.37   20.90
  -2   0  19  298.97   26.10
  -2   0  19  304.87   37.20
  -2   0  19  317.57   28.40
   1   0 -19   60.49   10.90
   1   0 -19   50.59   12.10
   1   0 -19   33.50    8.90
   1   0 -19   31.60    7.50
  -1   0  19   30.70   17.30
  -1   0  19   48.00   12.80
  -1   0  19   54.19   15.60
   0   0 -19   48.40    9.60
   0   0 -19   67.29   12.70
   0   0 -19   48.30    7.20
   0   0  19   39.60   12.60
   0   0  19   34.50   13.50
   0   0  19   76.79   23.90
  -1   0 -19   84.99   14.30
  -1   0 -19   67.99   11.20
   1   0  19   90.29   25.10
   1   0  19   69.89   15.70
  -2   0 -19  159.98   14.00
  -2   0 -19  119.79   18.20
   2   0  19  185.08   19.60
   2   0  19  170.08   25.10
   2   0  19  185.08   33.70
  -3   0 -19  232.18   16.20
   3   0  19  219.38   24.00
   3   0  19  195.58   33.10
   3   0  19  201.98   20.30
   4   0  19   82.49   18.30
   4   0  19   74.69   15.60
   4   0  19  105.19   22.90
   5   0  19   52.39   16.80
   5   0  19   22.30    9.30
   5   0  19   27.90   12.00
   6   0  19   33.90   10.60
   6   0  19   55.29   16.20
   6   0  19   57.69   16.80
   7   0  19   17.70   11.90
   5  -1 -19   15.70    9.30
   5  -1 -19    9.30    6.80
   5  -1 -19    9.90    9.90
   4  -1 -19  112.39   12.90
   4  -1 -19  135.79   15.10
   4  -1 -19  108.49   18.40
   4  -1 -19   88.79   14.50
  -4   1  19  135.39   30.70
   3  -1 -19   16.00   10.50
   3  -1 -19   12.40    7.60
   3  -1 -19    8.30    6.80
   3  -1 -19    2.50    7.00
  -3   1  19   15.70   10.60
  -3   1  19   19.80   10.20
  -3   1  19   12.20   16.10
   2  -1 -19    6.40    6.40
   2  -1 -19    7.20    8.00
   2  -1 -19   -3.00    6.10
   2  -1 -19    3.60    7.80
  -2   1  19   18.40   17.30
  -2   1  19   -5.60    9.40
  -2   1  19   -4.50    8.30
   1  -1 -19   62.39    9.80
   1  -1 -19   53.59   11.10
   1  -1 -19   65.99   12.90
  -1   1  19   45.70   21.30
  -1   1  19   69.69   15.10
  -1   1  19   65.09   15.30
   0  -1 -19  123.59   12.50
   0  -1 -19  151.48   15.70
   0  -1 -19  113.19   13.10
   0  -1 -19  124.29   14.10
   0   1  19  122.49   30.30
   0   1  19  122.99   19.50
   0   1  19  144.49   23.10
  -1  -1 -19   14.70    6.80
  -1  -1 -19   16.10    8.10
  -1  -1 -19   12.80    4.20
  -1  -1 -19   19.20    8.10
   1   1  19   29.20   16.50
   1   1  19   20.40   10.00
   1   1  19   20.80   11.40
  -2  -1 -19  102.19   15.60
  -2  -1 -19  114.79   11.40
   2   1  19  134.49   27.80
   2   1  19  151.68   20.70
  -3  -1 -19   12.40    5.50
   3   1  19   24.30   11.10
   3   1  19   15.60    9.60
   3   1  19   33.60   17.50
  -4  -1 -19   10.80    5.10
   4   1  19   12.20    9.90
   4   1  19    9.60    7.00
   4   1  19   -7.80    9.70
   4   1  19   41.40   10.50
   5   1  19  138.29   22.90
   5   1  19  171.98   16.90
   5   1  19  114.49   17.10
   5   1  19  107.49   24.80
   6   1  19    6.20   11.50
   6   1  19   27.40   10.10
   6   1  19   48.00   16.50
   7   1  19   74.99   14.40
   7   1  19   82.79   22.90
   7   1  19   77.69   19.20
   5  -2 -19   34.90    9.70
   5  -2 -19   39.80   12.00
   5  -2 -19   34.50   11.60
   5  -2 -19   40.10   12.10
   4  -2 -19   -1.80    7.40
   4  -2 -19   -1.60    6.10
   4  -2 -19  -10.70    6.80
   4  -2 -19   -3.30    6.40
  -4   2  19   13.90   16.80
   3  -2 -19   13.10    7.40
   3  -2 -19   19.30    8.40
   3  -2 -19    5.00    8.10
   3  -2 -19   13.60    8.70
  -3   2  19   22.50   16.30
   2  -2 -19  427.66   25.20
   2  -2 -19  466.55   26.40
   2  -2 -19  411.16   25.80
   2  -2 -19  365.56   37.30
  -2   2  19  419.76   27.50
  -2   2  19  440.06   30.80
  -2   2  19  417.86   42.00
   1  -2 -19    2.90    5.40
   1  -2 -19    8.70    8.10
   1  -2 -19    8.60    7.90
   1  -2 -19    0.60    5.10
  -1   2  19   -6.30   12.50
  -1   2  19    9.70    8.30
  -1   2  19    1.70    8.60
   0  -2 -19  -10.80    4.50
   0  -2 -19   -2.30    5.40
   0  -2 -19    7.90    6.60
   0  -2 -19    1.70    4.50
   0   2  19   -7.40   11.60
   0   2  19    2.60    8.80
   0   2  19   14.70    8.60
  -1  -2 -19   58.99   12.90
  -1  -2 -19   52.39    9.00
  -1  -2 -19   35.60    8.80
  -1  -2 -19   34.90    6.50
   1   2  19   55.39   20.10
   1   2  19   52.99   13.50
   1   2  19   50.29   13.20
  -2  -2 -19   31.70    9.10
  -2  -2 -19   21.10    7.90
  -2  -2 -19   25.50    6.90
   2   2  19   25.10   14.40
   2   2  19   21.50   11.00
   2   2  19   23.30   10.80
   2   2  19   32.20   14.70
  -3  -2 -19    6.00    4.90
  -3  -2 -19    0.70    5.40
  -3  -2 -19   -9.40    5.70
   3   2  19    3.20   10.80
   3   2  19   14.90   12.60
   4   2  19  182.88   29.60
   4   2  19  148.69   17.10
   4   2  19  115.99   22.60
   4   2  19  129.69   20.40
   5   2  19   98.89   16.40
   5   2  19  100.79   23.50
   5   2  19  110.69   19.90
   5   2  19  130.39   19.60
   6   2  19    9.20   10.80
   6   2  19   -7.50    7.30
   6   2  19    0.80    6.80
   7   2  19   43.00   19.30
   7   2  19   14.00   10.10
   8   2  19    7.90   11.50
   5  -3 -19    2.30    6.70
   5  -3 -19   -5.40    9.10
   4  -3 -19  -12.20    6.20
   4  -3 -19   -3.50    8.30
   4  -3 -19   -4.80    7.80
   4  -3 -19    4.00    7.90
  -4   3  19    0.30   18.50
   3  -3 -19    3.70    7.20
   3  -3 -19   14.40    8.40
   3  -3 -19   11.50    7.80
   3  -3 -19    8.10    8.30
  -3   3  19   11.00   15.10
   2  -3 -19   18.10    8.40
   2  -3 -19   16.20    8.50
   2  -3 -19   18.10    8.50
   2  -3 -19   21.70    9.70
  -2   3  19   19.90    9.30
  -2   3  19    2.70    8.20
  -2   3  19   -6.30   14.90
   1  -3 -19   38.40    9.10
   1  -3 -19   60.19   12.40
   1  -3 -19   35.60    9.30
   1  -3 -19   39.50    9.70
  -1   3  19   63.79   13.80
  -1   3  19   38.90   10.70
  -1   3  19   37.90   17.40
   0  -3 -19  165.48   14.40
   0  -3 -19  178.18   14.50
   0  -3 -19  163.78   16.80
   0  -3 -19  191.28   16.30
   0   3  19  187.98   33.80
   0   3  19  189.38   18.50
   0   3  19  178.88   18.50
  -1  -3 -19   55.79   10.40
  -1  -3 -19   26.20    6.80
  -1  -3 -19   35.80    9.70
  -1  -3 -19   48.60    8.90
   1   3  19   48.60   20.40
   1   3  19   65.89   14.10
   1   3  19   32.50   17.10
   1   3  19   48.20   12.60
  -2  -3 -19    9.10    4.10
  -2  -3 -19   12.40    7.80
  -2  -3 -19    6.40    5.20
  -2  -3 -19   11.90    6.60
   2   3  19   15.60   14.40
   2   3  19   16.90   13.20
   2   3  19   15.30    9.00
   2   3  19   21.60    9.90
  -3  -3 -19    9.10    5.50
  -3  -3 -19    3.10    6.80
  -3  -3 -19   15.90    6.90
   3   3  19   27.70   11.90
   3   3  19   26.60   11.00
   3   3  19   18.20    8.70
   3   3  19    4.70   11.50
  -4  -3 -19  337.37   16.50
  -4  -3 -19  330.77   21.80
   4   3  19  279.67   24.20
   4   3  19  274.77   31.20
   4   3  19  327.47   24.60
   4   3  19  237.68   30.40
   5   3  19   27.40   13.20
   5   3  19    8.20    7.60
   5   3  19   -4.70   12.10
   5   3  19    1.40    9.90
   6   3  19   35.20   14.20
   6   3  19    3.80   11.40
   6   3  19    3.20    7.60
   6   3  19    1.80   11.10
   7   3  19  184.88   29.00
   7   3  19  247.18   26.60
   7   3  19  156.48   27.50
   7   3  19  177.38   28.60
   8   3  19    2.90   12.90
   8   3  19   15.90    9.10
   8   3  19   11.90   12.60
   4  -4 -19   -6.40    7.20
   4  -4 -19   14.60   10.50
   4  -4 -19    3.20    7.10
   4  -4 -19    8.00    8.90
   3  -4 -19    0.50    6.90
   3  -4 -19    6.40    8.30
   3  -4 -19   11.20    8.60
   3  -4 -19   14.30    9.40
  -3   4  19   15.20   16.10
   2  -4 -19  -11.90    5.10
   2  -4 -19   -3.30    6.60
   2  -4 -19   -0.80    6.50
   2  -4 -19    0.70    7.30
  -2   4  19   12.80   13.30
   1  -4 -19   12.80    8.70
   1  -4 -19   -3.40    5.70
  -1   4  19   14.30    9.20
  -1   4  19   16.60   14.60
  -1   4  19    3.80    8.60
   0  -4 -19  241.18   18.30
   0  -4 -19  152.98   16.90
   0  -4 -19  179.58   16.10
   0   4  19  203.58   20.20
   0   4  19  237.58   31.30
   0   4  19  202.38   17.50
  -1  -4 -19   -0.60    5.30
  -1  -4 -19    7.00    5.50
  -1  -4 -19   12.10    6.70
  -1  -4 -19   17.60    8.30
   1   4  19    7.10    7.90
   1   4  19   19.50   16.20
   1   4  19    8.50    7.50
   1   4  19    5.90   13.00
  -2  -4 -19   -3.70    5.10
  -2  -4 -19   -1.50    5.60
  -2  -4 -19    1.20    5.50
  -2  -4 -19   -9.10    3.50
   2   4  19   -6.10   10.30
   2   4  19   -4.70    7.60
   2   4  19    4.50    7.80
  -3  -4 -19   42.60   10.00
  -3  -4 -19   52.19    9.80
  -3  -4 -19   40.70    6.40
  -3  -4 -19   44.60    7.50
   3   4  19   26.70   15.50
   3   4  19   48.60   12.40
   3   4  19   60.69   13.90
  -4  -4 -19  166.98   16.00
  -4  -4 -19  178.18   11.20
  -4  -4 -19  117.99   15.60
   4   4  19  161.48   27.90
   4   4  19  165.38   18.10
   4   4  19  157.78   19.60
  -5  -4 -19  477.05   27.10
   5   4  19  475.75   38.30
   5   4  19  361.56   38.70
   5   4  19  397.76   29.90
   5   4  19  467.75   30.00
   6   4  19  196.18   18.70
   6   4  19  182.58   28.70
   6   4  19  173.88   26.20
   6   4  19  208.58   22.80
   7   4  19    4.20    9.40
   7   4  19   13.30    8.90
   7   4  19    0.30   12.90
   7   4  19   12.60   12.90
   8   4  19   18.10   12.40
   8   4  19   35.70   10.20
   8   4  19   37.60   15.00
   8   4  19   26.60   16.90
   3  -5 -19   63.69   13.90
   3  -5 -19   66.59   14.20
   3  -5 -19   69.09   12.80
   3  -5 -19   70.39   15.80
  -3   5  19   72.99   21.70
   2  -5 -19   70.59   12.40
   2  -5 -19   53.79   12.30
   2  -5 -19   77.09   14.30
   2  -5 -19   76.39   12.80
  -2   5  19   75.99   23.50
   1  -5 -19    6.60    9.00
   1  -5 -19   12.70    7.30
   1  -5 -19    8.00    7.30
  -1   5  19   24.30   15.50
   0  -5 -19    5.10    6.40
   0  -5 -19   -4.60    5.50
   0   5  19   -9.10   10.10
   0   5  19   -0.20    8.80
  -1  -5 -19   14.70    7.30
  -1  -5 -19   42.00   11.10
  -1  -5 -19   22.40    8.30
   1   5  19   29.40   15.90
   1   5  19   29.00   19.70
   1   5  19   29.40    9.40
   1   5  19   18.60   10.50
  -2  -5 -19   73.09   11.40
  -2  -5 -19   82.09   10.50
  -2  -5 -19   85.19   13.70
   2   5  19   91.39   16.20
   2   5  19   78.99   20.50
   2   5  19   79.49   25.30
   2   5  19   96.39   14.70
  -3  -5 -19  127.79   15.10
  -3  -5 -19  139.19   14.20
  -3  -5 -19  129.69   10.90
   3   5  19  107.79   17.60
   3   5  19  150.08   26.20
   3   5  19  139.19   20.30
   3   5  19  108.19   27.90
  -4  -5 -19   -6.10    7.60
  -4  -5 -19    1.70    4.60
  -4  -5 -19    6.30    6.70
   4   5  19   -1.80    8.00
   4   5  19   -7.50    9.00
   4   5  19   12.80   12.20
   4   5  19   -1.60    9.80
  -5  -5 -19   94.79   13.30
   5   5  19   68.39   21.50
   5   5  19   71.49   15.00
   5   5  19   84.19   17.30
   5   5  19  118.49   24.00
  -6  -5 -19   11.10    6.90
   6   5  19    6.30   12.00
   6   5  19    6.00    8.30
   6   5  19   25.30   14.40
   6   5  19   -2.30    8.80
   7   5  19   12.30   10.70
   7   5  19   33.00   16.00
   7   5  19   35.10   10.80
   7   5  19   27.10   16.60
   8   5  19   -7.70   11.40
   8   5  19    0.00   11.80
   8   5  19   13.10   15.00
   8   5  19   10.70    8.80
   9   5  19   22.70   17.50
   2  -6 -19    6.70    7.20
   2  -6 -19  -12.10    6.40
   2  -6 -19   16.70   16.40
  -2   6  19   18.60   16.30
   1  -6 -19   -3.80    6.00
   1  -6 -19    5.10    8.20
   1  -6 -19   -1.90    6.60
  -1   6  19    7.20   13.20
   0  -6 -19  122.39   16.00
   0  -6 -19   78.79   13.20
   0  -6 -19  112.09   17.20
   0   6  19  113.09   24.70
   0   6  19  106.39   24.70
  -1  -6 -19   12.70    7.70
  -1  -6 -19   -3.30    5.20
   1   6  19   -1.20    8.00
   1   6  19   30.70   14.60
   1   6  19   26.90   15.70
   1   6  19   28.00    8.80
  -2  -6 -19   56.59    9.90
  -2  -6 -19   44.70   12.10
  -2  -6 -19   43.40    9.70
   2   6  19   47.70   13.70
   2   6  19   38.60   20.10
   2   6  19   57.29   18.60
   2   6  19   64.19   12.40
  -3  -6 -19    6.00    6.50
  -3  -6 -19    2.90    5.80
  -3  -6 -19    0.50    8.20
   3   6  19   31.10   15.20
   3   6  19   13.00   10.10
   3   6  19   12.00    9.80
   3   6  19   30.90   17.40
  -4  -6 -19  113.89   13.20
  -4  -6 -19  130.09   14.00
  -4  -6 -19  140.79   16.40
   4   6  19  152.88   25.20
   4   6  19  125.29   15.40
   4   6  19  109.99   28.00
   4   6  19  144.69   19.90
  -5  -6 -19    9.90    7.00
   5   6  19   24.90   18.20
   5   6  19   19.20   10.00
   5   6  19   11.30   10.10
   5   6  19   -3.80   12.30
  -6  -6 -19   -1.80    6.10
   6   6  19   31.30   16.10
   6   6  19  -15.80    7.00
   6   6  19  -18.10    9.00
   6   6  19    7.40    7.70
   7   6  19   -9.90    8.00
   7   6  19  -14.90   11.80
   7   6  19   -3.30    8.20
   8   6  19  215.18   41.60
   8   6  19  168.38   28.00
   8   6  19  212.08   23.30
   8   6  19  216.98   21.20
   1  -7 -19   37.00   11.70
   1  -7 -19   55.19   15.70
   1  -7 -19   37.70   11.50
  -1   7  19   20.30   23.00
   0  -7 -19   13.80   10.20
   0  -7 -19   -0.70   10.20
   0  -7 -19  -10.70    7.50
   0   7  19   19.10   16.40
  -1  -7 -19   17.50    8.80
  -1  -7 -19   22.80    8.30
  -1  -7 -19   44.80   12.60
   1   7  19   63.59   18.00
   1   7  19   -9.60   13.30
   1   7  19   28.10   17.40
  -2  -7 -19   55.09   10.70
  -2  -7 -19   55.89   11.30
  -2  -7 -19   38.70   11.50
   2   7  19   55.39   15.90
   2   7  19   54.69   12.30
   2   7  19   29.10   14.30
   2   7  19   67.19   20.20
  -3  -7 -19  102.29   11.40
  -3  -7 -19   87.69   12.50
  -3  -7 -19  110.59   16.80
   3   7  19   79.49   25.20
   3   7  19   84.19   14.90
   3   7  19  140.39   25.30
  -4  -7 -19   20.50   10.90
  -4  -7 -19   36.40    9.40
   4   7  19   16.00   13.50
   4   7  19   39.30   12.10
   4   7  19   40.40   13.50
   4   7  19   33.10   15.80
  -5  -7 -19   44.40    9.60
   5   7  19   60.09   15.10
   5   7  19   63.39   21.00
   5   7  19   29.40   11.60
   5   7  19   70.09   19.70
  -6  -7 -19   -8.00    5.40
   6   7  19   12.00   12.10
   6   7  19   17.20    9.90
   6   7  19  -15.10    9.70
   6   7  19    8.50   11.70
  -7  -7 -19   -6.90    6.60
   7   7  19   -7.00   25.60
   7   7  19   -5.90    8.00
   7   7  19   -9.30   10.50
   8   7  19   -4.10   14.80
   8   7  19   14.60   13.60
   0  -8 -19  -11.50    8.70
   0  -8 -19    8.60    7.60
  -1  -8 -19   16.60    9.10
  -1  -8 -19   32.00   11.70
  -1  -8 -19   15.10    8.70
   1   8  19   53.39   20.70
   1   8  19   44.20   19.40
  -2  -8 -19  123.79   21.00
  -2  -8 -19  122.79   18.00
  -2  -8 -19  107.79   14.10
   2   8  19   80.69   23.50
  -3  -8 -19   68.19   11.70
  -3  -8 -19   87.39   13.70
  -3  -8 -19  104.89   17.00
   3   8  19   61.09   14.20
   3   8  19   82.39   16.50
  -4  -8 -19    0.60    8.40
  -4  -8 -19    6.00    7.10
   4   8  19   13.00   12.60
   4   8  19   13.40   11.10
   4   8  19   -6.40    9.60
  -5  -8 -19   10.20    6.80
   5   8  19   16.80   11.00
   5   8  19   27.50   11.70
   5   8  19   33.50   19.50
   5   8  19   12.10   12.70
  -6  -8 -19   26.60    9.20
   6   8  19   64.19   20.20
   6   8  19   23.00   11.80
   6   8  19   32.30   13.20
  -7  -8 -19   90.09   13.90
   7   8  19  115.39   19.00
   7   8  19  110.49   29.80
   7   8  19  121.79   21.00
   7   8  19  111.09   22.20
  -1  -9 -19  -17.50    8.20
  -1  -9 -19    6.50   10.30
  -2  -9 -19   -9.10    8.90
  -3  -9 -19   -2.80   10.20
  -3  -9 -19   20.70    9.70
  -4  -9 -19   22.00    9.20
   4   9  19   42.80   19.90
   4   9  19   39.40   15.60
   4   9  19   64.59   17.90
  -5  -9 -19   -6.10    7.40
   5   9  19   22.80   13.00
   5   9  19   12.00   12.50
  -6  -9 -19   14.70   10.80
   6   9  19   55.19   19.70
   6   9  19   18.30   12.10
   6   9  19   11.90   11.80
  -7  -9 -19   -9.50   10.40
  -3 -10 -19   42.90   15.90
   5  10  19   42.00   19.50
   5  10  19  -19.00   17.10
   6  10  19  -21.60   27.70
  -3  -5  20  -36.40   12.40
  -2  -5  20    7.10   26.10
  -2  -5  20   46.40   17.80
  -1  -5  20   34.00   13.70
  -1  -5  20    1.70   16.90
   0  -5  20  182.38   34.00
   1  -5  20   81.39   21.50
   5   4 -20    4.30   13.10
   5   4 -20   -0.60   18.40
   4   4 -20   32.40   15.90
  -4  -4  20   14.30   17.90
   3   4 -20    9.60    8.20
  -3  -4  20   11.50   17.50
  -3  -4  20  -17.70   15.60
  -3  -4  20   56.19   17.10
   2   4 -20   75.39   14.60
  -2  -4  20   60.59   23.10
  -2  -4  20   79.19   17.80
  -2  -4  20  109.99   23.00
   1   4 -20   16.00    8.20
  -1  -4  20   13.10   13.80
  -1  -4  20   24.70   12.30
   0   4 -20   35.90   11.00
   0  -4  20   21.00   13.50
   0  -4  20   41.90   21.20
   0  -4  20   30.60   14.40
   1  -4  20  163.68   32.90
   1  -4  20  159.68   22.80
   5   3 -20   -0.80    9.10
   5   3 -20   -7.30    7.90
  -5  -3  20   -1.30   16.20
   4   3 -20   60.59   14.80
   4   3 -20   94.99   15.30
  -4  -3  20   82.49   22.30
  -4  -3  20  142.09   35.00
   3   3 -20    2.30   10.20
   3   3 -20   30.00    9.40
  -3  -3  20   44.50   19.80
  -3  -3  20   21.90   14.80
  -3  -3  20    6.70   14.50
   2   3 -20   48.70   13.30
   2   3 -20    6.50    7.10
  -2  -3  20   31.00   13.20
  -2  -3  20   47.40   21.20
  -2  -3  20   17.70   13.10
  -1  -3  20   74.99   22.90
  -1  -3  20   42.40   15.80
   0   3 -20   16.20    7.50
   0  -3  20   33.20   16.90
   0  -3  20   27.30   14.60
   0  -3  20   21.90   11.50
   1  -3  20  245.58   31.20
   1  -3  20  311.17   27.20
   2  -3  20   45.90   16.30
   2  -3  20    6.70   12.90
   2  -3  20   33.70   15.50
   3  -3  20   34.80   13.60
   3  -3  20   63.49   17.80
   3  -3  20    8.20   10.50
   4  -3  20   43.90   15.20
   5   2 -20   25.80   15.50
  -5  -2  20    6.80   16.20
   4   2 -20  105.99   14.90
   4   2 -20  151.38   21.70
   4   2 -20  174.68   17.30
  -4  -2  20  177.38   28.30
  -4  -2  20  169.78   37.90
   3   2 -20   61.19   11.50
   3   2 -20   78.89   17.40
   3   2 -20   67.59   12.20
  -3  -2  20   79.99   24.20
  -3  -2  20   93.89   29.20
  -3  -2  20  101.59   21.10
   2   2 -20   -3.80    7.00
   2   2 -20  -13.60    9.40
  -2  -2  20   -2.20   15.20
  -2  -2  20   -7.80   11.20
  -2  -2  20   12.50   11.50
   1   2 -20    5.60   10.00
   1   2 -20   11.90    6.60
  -1  -2  20   20.00   12.30
  -1  -2  20    9.50   13.20
  -1  -2  20    6.30   10.80
   0   2 -20   83.69   13.40
   0  -2  20   95.49   18.90
   0  -2  20  129.39   29.40
   0  -2  20  159.48   27.60
  -1   2 -20    4.80    7.40
   1  -2  20   28.10   16.90
   1  -2  20   -0.90    7.60
   1  -2  20    7.70   10.90
  -2   2 -20  201.98   18.30
   2  -2  20  133.49   29.00
   2  -2  20  187.48   21.10
   2  -2  20  160.08   26.90
   3  -2  20   41.90   15.90
   4  -2  20  124.49   19.60
   4  -2  20  179.58   29.20
   4  -2  20  225.28   27.10
   5   1 -20   51.09   19.10
   5   1 -20   37.90   11.00
   4   1 -20  -10.00    7.30
   4   1 -20    4.10    9.70
  -4  -1  20   12.70   12.70
   3   1 -20    2.90    6.60
   3   1 -20   -4.80    6.40
   3   1 -20    0.00    9.20
  -3  -1  20  -11.40   10.00
  -3  -1  20   19.70   19.00
  -3  -1  20    1.80   11.30
   2   1 -20   76.29   11.60
   2   1 -20   86.19   16.00
   2   1 -20   86.59   13.30
  -2  -1  20  111.39   23.80
  -2  -1  20  107.09   29.60
  -2  -1  20   97.29   17.00
   1   1 -20   12.30    7.10
   1   1 -20   -4.80    7.30
   1   1 -20    1.20    5.60
  -1  -1  20   11.60   15.40
  -1  -1  20    2.30   11.30
   0   1 -20    3.50    7.60
   0   1 -20   12.90    9.30
   0  -1  20   14.40   10.00
   0  -1  20    2.00   10.30
   0  -1  20   -3.90   12.10
  -1   1 -20   12.10    7.20
   1  -1  20   10.40   15.00
   1  -1  20    9.90   11.70
   1  -1  20   25.40   10.50
  -2   1 -20   14.30    6.70
   2  -1  20    2.70   12.90
   2  -1  20    3.00    8.20
   2  -1  20    1.90    7.80
   3  -1  20    5.00   12.00
   3  -1  20   19.80   10.10
   3  -1  20   14.00   12.10
   4  -1  20   14.20   10.90
   4  -1  20    5.70   13.70
   5  -1  20   73.49   16.30
   5  -1  20   17.20   11.60
   5  -1  20   47.10   14.40
   6  -1  20  262.77   28.70
   6   0 -20   42.10    8.90
   5   0 -20   -6.10    7.20
   5   0 -20   15.20   10.30
   5   0 -20    1.50    7.90
   5   0 -20   13.20    7.40
   4   0 -20    6.20   10.70
   4   0 -20    4.60    6.80
   4   0 -20    5.50    7.30
  -4   0  20   21.20   22.10
  -4   0  20  -28.60   10.10
   3   0 -20   78.49   12.80
   3   0 -20   95.49   14.70
   3   0 -20  137.19   20.40
   3   0 -20  102.19   14.40
  -3   0  20  107.69   22.10
  -3   0  20  124.89   27.70
  -3   0  20  104.29   23.70
   2   0 -20   43.70    9.90
   2   0 -20   37.30    9.70
   2   0 -20   24.80   10.40
   2   0 -20   27.50    8.40
  -2   0  20   42.40   20.70
  -2   0  20   15.90   11.20
   1   0 -20    6.00    7.10
   1   0 -20    6.20    6.50
   1   0 -20    4.90    8.50
   1   0 -20    1.40    6.10
  -1   0  20   12.70   10.00
  -1   0  20    1.10   11.50
  -1   0  20   22.70   19.20
   0   0 -20    7.80    7.40
   0   0 -20   -0.70    5.80
   0   0 -20    2.30    4.70
   0   0  20   27.70   16.70
   0   0  20   20.90   12.50
   0   0  20   11.80   10.40
  -1   0 -20    7.20    7.30
  -1   0 -20    5.40    8.40
   1   0  20   11.60   14.00
   1   0  20   -3.20    7.70
   1   0  20   19.70   11.20
  -2   0 -20  114.09   12.80
   2   0  20  106.49   21.60
   2   0  20  125.79   29.20
   2   0  20  106.19   17.90
  -3   0 -20   55.99    9.50
   3   0  20   67.59   20.80
   3   0  20   70.19   14.10
   3   0  20   73.39   17.60
   4   0  20  264.47   32.10
   4   0  20  223.08   25.60
   4   0  20  287.27   24.10
   5   0  20  217.98   25.70
   6   0  20   64.29   17.90
   6   0  20   63.99   15.30
   6   0  20   42.90   11.70
   6  -1 -20   48.00   10.40
   5  -1 -20   -5.20   13.20
   5  -1 -20   -4.40    9.00
   5  -1 -20  -10.90    9.30
   4  -1 -20    2.60   10.60
   4  -1 -20    3.10    8.70
   4  -1 -20   -2.70    6.30
  -4   1  20   25.10   18.60
   3  -1 -20    5.20    7.90
   3  -1 -20    1.30    6.90
   3  -1 -20    3.10    7.90
   3  -1 -20    2.80    9.00
  -3   1  20   16.00   11.50
  -3   1  20   36.00   16.70
   2  -1 -20   55.99   11.80
   2  -1 -20   44.00   10.10
   2  -1 -20   51.69   10.60
  -2   1  20   89.29   23.30
  -2   1  20   84.89   17.10
  -2   1  20   57.09   16.10
   1  -1 -20  116.89   12.50
   1  -1 -20  131.69   14.60
   1  -1 -20  122.79   17.80
   1  -1 -20  102.29   13.70
  -1   1  20  104.49   30.20
  -1   1  20  161.08   23.60
  -1   1  20  116.99   19.20
   0  -1 -20   32.40    6.80
   0  -1 -20   25.00    9.40
   0  -1 -20   43.40   10.40
   0  -1 -20   47.20   11.50
   0   1  20   34.40   19.10
   0   1  20   42.40   14.50
   0   1  20   74.19   14.20
  -1  -1 -20   44.70   10.10
  -1  -1 -20   38.10    8.90
  -1  -1 -20   31.90    5.90
  -1  -1 -20   41.60   12.50
   1   1  20   47.40   15.10
   1   1  20   51.19   13.80
   1   1  20   54.69   21.40
  -2  -1 -20   -5.10    5.40
  -2  -1 -20    5.10    7.40
   2   1  20   -0.80   12.50
   2   1  20   11.20    9.50
   2   1  20   26.90   11.60
  -3  -1 -20  118.89   11.90
   3   1  20  107.19   28.50
   3   1  20   76.79   18.40
   3   1  20   94.29   16.50
  -4  -1 -20   20.00    6.20
   4   1  20   -6.50    8.20
   4   1  20   20.40   13.60
   4   1  20    3.60    8.40
   5   1  20   31.20   12.90
   5   1  20   -4.90    7.50
   5   1  20    6.50   12.20
   6   1  20    0.40    7.00
   6   1  20   10.50   12.40
   6   1  20   10.40   11.50
   7   1  20  102.29   23.10
   5  -2 -20   10.30    8.00
   5  -2 -20   23.70   12.70
   4  -2 -20    8.10    8.70
   4  -2 -20    4.40    7.40
   4  -2 -20    0.10    6.90
   4  -2 -20    3.90    8.00
  -4   2  20    7.00   15.70
   3  -2 -20    0.70    8.20
   3  -2 -20   -8.90    6.00
   3  -2 -20   -0.90    6.00
   3  -2 -20    0.00    9.30
  -3   2  20   19.50   12.40
   2  -2 -20   -0.30    5.50
   2  -2 -20   -5.00    7.20
   2  -2 -20    4.80    7.20
   2  -2 -20    0.70    6.50
  -2   2  20   -5.60    9.20
  -2   2  20   28.40   11.80
  -2   2  20   19.90   16.80
   1  -2 -20  154.08   15.50
   1  -2 -20  148.49   14.90
   1  -2 -20  163.08   16.00
   1  -2 -20  164.98   17.80
  -1   2  20  154.28   19.00
  -1   2  20  150.18   32.70
  -1   2  20  161.48   23.00
   0  -2 -20   -4.40    4.60
   0  -2 -20   -7.40    6.30
   0  -2 -20   13.70    7.20
   0   2  20    5.10    9.00
   0   2  20   26.10   11.00
   0   2  20   10.60   14.50
  -1  -2 -20   35.80    9.80
  -1  -2 -20   21.40    5.60
  -1  -2 -20   50.59   12.10
  -1  -2 -20   15.60    7.30
   1   2  20   35.50   12.50
   1   2  20   47.50   15.30
   1   2  20   45.80   19.50
  -2  -2 -20  240.48   19.40
  -2  -2 -20  279.17   17.20
  -2  -2 -20  241.98   20.10
   2   2  20  274.47   24.80
   2   2  20  238.98   38.00
  -3  -2 -20  145.59   12.20
   3   2  20   84.59   22.60
   3   2  20  135.99   19.70
   3   2  20  144.69   21.80
   3   2  20   90.39   23.40
  -4  -2 -20  248.58   14.90
   4   2  20  237.18   28.40
   4   2  20  162.48   23.70
   4   2  20  201.48   21.10
   5   2  20  101.09   17.00
   5   2  20   87.89   21.70
   5   2  20  107.59   20.50
   6   2  20   35.60   14.00
   6   2  20    7.10   12.80
   6   2  20   15.00    9.20
   7   2  20   23.80    8.60
   7   2  20   22.60   13.10
   7   2  20   37.90   16.50
   4  -3 -20  257.07   20.50
   4  -3 -20  224.58   22.20
   4  -3 -20  258.57   23.50
   4  -3 -20  194.38   19.40
   3  -3 -20    2.60    7.50
   3  -3 -20   -0.70    6.40
   3  -3 -20    4.20    8.10
   3  -3 -20   11.80    7.30
  -3   3  20   47.40   16.80
   2  -3 -20   14.60    9.40
   2  -3 -20    7.20    7.00
   2  -3 -20    4.50    6.50
   2  -3 -20    6.30    7.50
  -2   3  20   31.10   16.50
   1  -3 -20   49.90   10.70
   1  -3 -20   46.80   10.40
   1  -3 -20   45.50   10.80
  -1   3  20   52.69   12.70
  -1   3  20   30.30   17.80
  -1   3  20   56.79   13.40
   0  -3 -20    7.10    5.90
   0  -3 -20    6.30    7.50
   0  -3 -20    3.90    6.50
   0  -3 -20   -3.50    5.40
   0   3  20   12.00    9.50
   0   3  20    7.40    9.00
   0   3  20   13.30   16.00
  -1  -3 -20  456.45   27.00
  -1  -3 -20  482.35   24.80
  -1  -3 -20  420.46   22.60
  -1  -3 -20  452.95   28.40
   1   3  20  483.55   43.30
   1   3  20  434.36   30.00
   1   3  20  461.85   31.50
  -2  -3 -20  231.88   21.80
  -2  -3 -20  262.27   17.00
  -2  -3 -20  249.58   19.60
  -2  -3 -20  229.98   14.00
   2   3  20  254.57   23.20
   2   3  20  267.57   33.80
   2   3  20  262.07   23.00
  -3  -3 -20   -5.90    4.80
  -3  -3 -20    5.20    7.80
  -3  -3 -20   -3.80    4.70
   3   3  20    3.40    7.80
   3   3  20    5.30   10.60
   3   3  20   -8.40   11.20
   3   3  20   16.60   10.00
  -4  -3 -20   42.80    9.90
   4   3  20   45.00   15.50
   4   3  20   44.20   12.40
   4   3  20   29.10   13.10
   4   3  20   45.50   13.80
   5   3  20    7.40    9.90
   5   3  20   20.40   12.50
   5   3  20   16.00    8.20
   6   3  20   33.00   16.20
   6   3  20   35.70   10.40
   6   3  20   29.70   12.00
   6   3  20   56.69   14.50
   7   3  20   94.69   19.60
   7   3  20   86.59   15.30
   7   3  20  113.99   24.20
   4  -4 -20   35.60   11.30
   3  -4 -20  -11.70    6.10
   3  -4 -20  -11.90    8.70
   3  -4 -20    2.60    9.20
  -3   4  20  -10.90   12.90
   2  -4 -20   92.09   15.30
   2  -4 -20   80.29   13.60
   2  -4 -20   76.19   13.20
   2  -4 -20   90.49   14.30
  -2   4  20   90.49   26.80
   1  -4 -20   18.90    7.90
   1  -4 -20   17.90    8.70
   1  -4 -20   12.30    7.30
   1  -4 -20    9.30    8.30
  -1   4  20   -5.90    9.10
  -1   4  20   20.80   15.30
   0  -4 -20   -6.00    7.20
   0  -4 -20   -1.30    4.80
   0   4  20   15.30   10.70
   0   4  20   15.90    9.00
   0   4  20   26.80   16.10
  -1  -4 -20  310.97   19.60
  -1  -4 -20  298.77   19.30
  -1  -4 -20  306.07   23.00
  -1  -4 -20  349.57   23.40
   1   4  20  280.97   24.80
   1   4  20  247.58   36.20
   1   4  20  337.37   35.80
   1   4  20  319.57   23.90
  -2  -4 -20   25.90    8.90
  -2  -4 -20   29.60    9.90
  -2  -4 -20   21.80    6.50
  -2  -4 -20   24.30    7.90
   2   4  20   44.60   20.70
   2   4  20   15.90   14.50
   2   4  20   39.20   12.50
   2   4  20   18.20   10.60
  -3  -4 -20  433.16   21.10
  -3  -4 -20  391.26   24.80
  -3  -4 -20  421.46   25.30
   3   4  20  411.26   32.70
   3   4  20  351.26   35.40
   3   4  20  401.76   29.40
   3   4  20  344.27   40.10
  -4  -4 -20    6.00    5.90
   4   4  20    6.20   11.20
   4   4  20   -5.20   11.30
   4   4  20   18.70   13.00
   4   4  20   11.40    9.40
  -5  -4 -20   11.00    5.70
   5   4  20   19.10   13.10
   5   4  20   13.40   12.10
   5   4  20    1.80    7.30
   5   4  20    0.50    8.40
   6   4  20   70.99   20.00
   6   4  20   63.39   12.70
   6   4  20   55.39   15.60
   6   4  20   95.09   21.70
   7   4  20  577.74   44.10
   7   4  20  524.65   43.90
   7   4  20  573.64   38.20
   8   4  20  217.68   27.00
   3  -5 -20  130.99   19.70
   3  -5 -20  132.39   19.50
   3  -5 -20  142.89   18.60
   3  -5 -20  169.28   19.90
  -3   5  20  272.77   34.20
   2  -5 -20   -0.70    8.10
   2  -5 -20    4.30    8.40
   2  -5 -20    7.70    7.80
  -2   5  20   29.20   17.00
   1  -5 -20   13.80    8.50
   1  -5 -20    0.90    6.40
   1  -5 -20    5.70    8.00
   1  -5 -20   19.20    8.70
  -1   5  20   31.20   17.20
   0  -5 -20   -3.90    7.30
   0  -5 -20   -0.50    7.20
   0  -5 -20   -4.50    5.80
   0   5  20  -10.80    9.70
   0   5  20   10.20   15.70
  -1  -5 -20  193.78   20.00
  -1  -5 -20  239.18   17.30
  -1  -5 -20  229.88   19.00
   1   5  20  253.17   22.40
   1   5  20  297.07   32.60
   1   5  20  200.68   18.80
   1   5  20  142.69   35.50
  -2  -5 -20  114.39   12.20
  -2  -5 -20   90.59   15.40
  -2  -5 -20   71.89   12.30
   2   5  20  111.59   25.80
   2   5  20  111.29   16.20
   2   5  20   85.99   17.20
   2   5  20   70.99   25.50
  -3  -5 -20   26.30    9.90
  -3  -5 -20   21.20    8.60
  -3  -5 -20   10.00    6.80
   3   5  20   30.70   12.10
   3   5  20   42.80   18.30
   3   5  20   19.90   15.60
  -4  -5 -20   -2.80    5.60
   4   5  20    8.30   10.60
   4   5  20    5.20   13.10
   4   5  20   -4.10    8.10
   4   5  20   26.40   15.30
  -5  -5 -20   21.80    8.10
   5   5  20    0.60   12.40
   5   5  20    5.50   10.50
   5   5  20   15.10    8.90
   5   5  20  -14.50   10.50
  -6  -5 -20   18.20    7.50
   6   5  20   20.30   10.20
   6   5  20   27.30   14.40
   6   5  20   25.90   14.30
   6   5  20    9.30    9.90
   7   5  20  120.89   26.20
   7   5  20  132.99   19.00
   7   5  20  112.89   25.50
   7   5  20  136.39   21.20
   2  -6 -20   49.00   12.60
   2  -6 -20   28.20   12.70
   2  -6 -20   50.69   12.70
  -2   6  20   67.29   22.30
   1  -6 -20   56.99   12.90
   1  -6 -20   34.50   10.80
   1  -6 -20   35.40   10.10
  -1   6  20   23.90   16.60
   0  -6 -20    2.20    8.20
   0  -6 -20   14.00    7.70
   0  -6 -20   23.90   10.20
   0   6  20   42.10   16.70
  -1  -6 -20   61.79   11.20
  -1  -6 -20   84.19   13.40
  -1  -6 -20   80.99   15.00
   1   6  20   87.39   23.60
   1   6  20   81.79   16.40
   1   6  20   86.29   25.80
  -2  -6 -20  241.68   19.30
  -2  -6 -20  210.88   20.60
  -2  -6 -20  229.18   18.00
   2   6  20  157.68   33.60
   2   6  20  257.67   23.40
   2   6  20  250.17   30.90
   2   6  20  234.08   19.90
  -3  -6 -20  113.59   17.20
  -3  -6 -20  160.78   15.40
  -3  -6 -20  131.49   12.60
   3   6  20  106.89   25.90
   3   6  20  159.28   22.50
   3   6  20  140.59   25.30
  -4  -6 -20   25.50    8.30
   4   6  20   34.50   13.20
   4   6  20   11.70   13.90
   4   6  20   30.80   13.10
   4   6  20   30.00   12.80
  -5  -6 -20   -8.20    4.50
   5   6  20    5.50    8.50
   5   6  20    3.30    9.10
   5   6  20    7.90   13.20
   5   6  20   25.30   14.00
  -6  -6 -20   41.10   10.20
   6   6  20   35.50   19.20
   6   6  20   32.90   12.40
   6   6  20   38.10   13.00
   6   6  20   48.50   17.70
   7   6  20   53.39   13.90
   7   6  20  109.79   17.80
   7   6  20   94.69   23.30
   8   6  20  296.67   37.50
   1  -7 -20    5.60    9.20
   1  -7 -20    2.20    9.10
  -1   7  20    4.00   23.50
   0  -7 -20    1.70    8.00
   0  -7 -20    3.10    8.00
   0  -7 -20    7.00    9.50
   0   7  20   47.70   18.60
  -1  -7 -20   10.70    7.80
  -1  -7 -20   20.20   10.70
  -1  -7 -20   13.10    8.50
   1   7  20   36.80   18.60
   1   7  20   22.00   16.80
  -2  -7 -20   88.29   12.10
  -2  -7 -20   85.89   15.50
  -2  -7 -20   92.89   14.80
   2   7  20  130.49   25.20
   2   7  20   66.79   21.30
  -3  -7 -20  352.36   20.80
  -3  -7 -20  364.36   26.50
  -3  -7 -20  390.86   25.00
   3   7  20  398.26   30.30
   3   7  20  279.17   37.20
   3   7  20  404.46   35.20
  -4  -7 -20  192.78   17.20
   4   7  20  183.48   20.90
   4   7  20  240.78   27.30
   4   7  20  171.58   36.70
   4   7  20  167.68   18.20
  -5  -7 -20   -7.20    5.90
   5   7  20   -7.30   14.00
   5   7  20    2.80   10.50
   5   7  20   -1.90    9.70
   5   7  20   10.50   11.80
  -6  -7 -20   23.40    9.30
   6   7  20   49.99   15.60
   6   7  20   42.50   16.80
   6   7  20    5.90   10.60
   6   7  20   29.80   20.70
  -7  -7 -20    9.40    7.60
   7   7  20    4.50   13.70
   7   7  20   17.50   11.90
   7   7  20   -2.80   10.90
   7   7  20   20.10   15.60
   0  -8 -20  -23.40   10.00
   0  -8 -20    3.00   16.90
   1   8  20   18.40   18.90
  -2  -8 -20   14.90    8.00
  -2  -8 -20    1.10    8.10
  -2  -8 -20  -16.00    8.70
   2   8  20   48.40   16.30
   2   8  20   54.99   18.20
  -3  -8 -20  166.58   19.80
  -3  -8 -20  170.28   18.60
  -3  -8 -20  188.98   17.50
   3   8  20  145.49   21.70
   3   8  20  253.77   29.10
   3   8  20  236.58   33.40
   4   8  20    8.10   12.20
   4   8  20  -11.70   11.60
   4   8  20   -0.20    9.90
   5   8  20   71.59   21.10
   5   8  20  106.79   32.50
   5   8  20   78.49   17.20
   5   8  20   43.60   14.10
   6   8  20   23.40   11.80
   6   8  20   47.80   17.40
   6   8  20   21.20   15.60
   7   8  20   -4.90   11.70
  -2  -9 -20    3.40   11.00
  -3  -9 -20  -21.60   10.40
   4   9  20  489.55   38.00
   4   9  20  386.76   32.60
   5   9  20  250.07   28.10
   5   9  20  149.99   23.30
   5   9  20  144.79   25.80
  -6  -9 -20   -7.00    8.30
   6   9  20    2.50   11.80
   6   9  20   -7.60   13.10
  -7  -9 -20   -5.00   10.90
  -2  -4  21    7.50   11.00
   1   4 -21  113.59   24.60
  -1  -4  21   88.59   19.40
  -1  -4  21  112.89   29.20
   0   4 -21   27.10    9.60
   0  -4  21   16.80   15.50
   0  -4  21   19.30   15.20
   1  -4  21   13.50   18.50
   4   3 -21  -25.80   12.00
  -4  -3  21  -28.20   14.50
   3   3 -21  124.49   18.00
   3   3 -21   77.39   19.30
  -3  -3  21  107.89   21.70
  -3  -3  21  148.79   28.50
  -3  -3  21  137.29   33.30
   2   3 -21   22.50    9.30
  -2  -3  21   12.50   16.60
  -2  -3  21   31.20   14.80
  -2  -3  21    3.80   10.40
   1   3 -21   13.00   10.30
  -1  -3  21   33.40   13.70
  -1  -3  21    2.40   11.30
  -1  -3  21   16.20   16.40
   0  -3  21   59.19   18.70
   0  -3  21   84.49   20.60
  -1   3 -21   20.70   10.00
   1  -3  21   30.40   16.00
   1  -3  21    1.50   10.40
   1  -3  21   17.00   27.30
   2  -3  21   72.09   16.70
   2  -3  21   35.70   17.80
   3  -3  21   72.49   21.40
   5   2 -21  -10.20   10.40
   5   2 -21   -9.80    8.60
   4   2 -21   12.60   12.50
   4   2 -21    3.20   12.50
   4   2 -21   -2.00    8.70
  -4  -2  21   17.10   16.40
   3   2 -21   -2.70    8.10
   3   2 -21  -23.90    9.80
   3   2 -21    4.20    6.60
  -3  -2  21   -8.70   14.80
  -3  -2  21   -0.30   14.10
  -3  -2  21    3.90   15.00
   2   2 -21   10.60    6.70
  -2  -2  21   12.20   12.90
  -2  -2  21   12.10   12.20
   1   2 -21   95.59   15.00
  -1  -2  21  140.19   26.20
  -1  -2  21  132.59   31.10
  -1  -2  21  122.29   21.70
   0   2 -21   12.90    8.10
   0  -2  21   37.60   14.70
   0  -2  21   17.30   16.50
   0  -2  21   18.70   12.00
  -1   2 -21   43.80   10.10
   1  -2  21   32.20   13.60
   1  -2  21   78.99   20.10
   1  -2  21   88.29   24.30
  -2   2 -21   72.79   12.40
   2  -2  21   77.99   25.40
   2  -2  21   93.19   22.60
   3  -2  21  159.48   27.50
   3  -2  21  190.28   22.30
   4  -2  21  144.29   28.40
   5   1 -21   -0.10   11.20
   5   1 -21  -14.90    8.90
   4   1 -21   -9.80    8.70
   4   1 -21   17.60    9.50
   4   1 -21    3.10    9.00
  -4  -1  21    7.80   14.90
  -4  -1  21   31.30   21.70
   3   1 -21    9.90    9.10
   3   1 -21   11.50   10.20
  -3  -1  21   14.40   16.20
  -3  -1  21   40.10   17.60
  -3  -1  21   13.70   16.90
   2   1 -21  207.38   17.70
   2   1 -21  247.68   19.30
   2   1 -21  193.08   26.40
  -2  -1  21  267.37   44.50
  -2  -1  21  296.87   27.40
  -2  -1  21  282.27   29.50
   1   1 -21  185.08   16.60
   1   1 -21  180.18   23.70
  -1  -1  21  223.48   39.30
  -1  -1  21  216.68   24.70
  -1  -1  21  206.98   25.00
   0   1 -21  447.66   26.90
   0  -1  21  448.26   44.40
   0  -1  21  472.55   36.20
   0  -1  21  442.06   35.90
  -1   1 -21   25.70    8.10
   1  -1  21   25.60   15.80
   1  -1  21   29.50   11.90
   1  -1  21   51.69   18.80
  -2   1 -21   30.30    8.50
   2  -1  21   25.70   14.60
   2  -1  21   19.10   14.00
   2  -1  21   27.50   10.40
   3  -1  21   35.00   15.00
   3  -1  21   44.50   11.50
   4  -1  21   20.90   13.10
   4  -1  21   22.50   10.80
   5  -1  21   81.69   22.70
   5   0 -21   55.79   13.40
   4   0 -21   23.00   11.60
   4   0 -21   21.70    9.50
   4   0 -21   -1.00    9.10
   4   0 -21   21.50   10.20
  -4   0  21   47.80   19.70
   3   0 -21   -0.50    7.10
   3   0 -21    0.40    9.50
   3   0 -21   12.20    6.00
   3   0 -21    6.50    8.10
  -3   0  21   20.40   14.70
   2   0 -21    7.20    6.50
   2   0 -21    7.30    7.70
   2   0 -21    5.30    8.90
  -2   0  21    5.10   12.30
  -2   0  21   11.40   15.60
  -2   0  21   23.10   12.80
   1   0 -21   20.30   10.40
   1   0 -21   29.90    8.90
   1   0 -21   10.90    7.00
  -1   0  21   13.60   12.50
  -1   0  21   29.20   21.00
  -1   0  21   30.10   16.30
   0   0 -21   20.10    7.60
   0   0 -21   13.20    9.60
   0   0  21   24.20   14.20
   0   0  21   25.20   13.80
   0   0  21   34.30   12.50
  -1   0 -21  197.08   17.10
   1   0  21  211.28   36.50
   1   0  21  202.98   24.10
   1   0  21  227.38   24.30
  -2   0 -21    5.00    6.40
   2   0  21   22.30   12.60
   2   0  21   29.70   15.90
   2   0  21    3.90    9.10
  -3   0 -21   50.89   10.40
   3   0  21   69.69   21.10
   3   0  21   50.49   13.90
   3   0  21   76.39   17.30
   4   0  21   87.79   22.60
   4   0  21  123.09   23.60
   4   0  21  120.39   24.60
   5   0  21  281.07   25.20
   5   0  21  275.67   34.30
   5   0  21  231.68   27.20
   6   0  21   80.99   17.30
   5  -1 -21  367.66   24.90
   4  -1 -21   34.30   12.50
   4  -1 -21   53.29   14.00
   4  -1 -21   74.89   19.70
  -4   1  21   83.79   28.10
   3  -1 -21   79.59   15.80
   3  -1 -21   53.79   14.60
   3  -1 -21   73.09   12.50
   3  -1 -21   60.49   11.10
  -3   1  21   58.69   17.90
   2  -1 -21   28.60    8.70
   2  -1 -21   24.30    7.90
   2  -1 -21   27.80    8.30
   2  -1 -21   17.50   11.00
  -2   1  21   26.40   12.90
  -2   1  21   14.70   15.10
  -2   1  21   27.40   16.80
   1  -1 -21    1.50    6.20
   1  -1 -21   22.10    9.40
   1  -1 -21    1.70    8.80
   1  -1 -21   17.60    8.00
  -1   1  21   24.20   11.80
  -1   1  21    0.30   13.40
  -1   1  21   19.80   11.70
   0  -1 -21  576.84   30.30
   0  -1 -21  632.54   34.20
   0  -1 -21  629.84   35.40
   0  -1 -21  559.84   26.80
   0   1  21  510.55   48.30
   0   1  21  657.13   41.20
  -1  -1 -21  815.42   37.10
  -1  -1 -21  789.32   41.50
   1   1  21  808.42   48.30
   1   1  21  761.02   58.69
   1   1  21  836.12   46.40
  -2  -1 -21    8.70    6.70
   2   1  21   11.30    9.70
   2   1  21   18.20   16.20
   2   1  21   13.20   12.00
  -3  -1 -21   38.20    8.40
   3   1  21   37.10   13.60
   3   1  21   76.09   21.20
   3   1  21   60.19   14.20
   4   1  21    7.20    9.90
   4   1  21   17.70   10.60
   4   1  21   26.80   15.60
   5   1  21   10.20   15.70
   5   1  21   26.40   14.30
   6   1  21   51.89   15.40
   6   1  21   50.29   16.90
   6   1  21   79.99   18.60
   4  -2 -21   42.30   12.90
   4  -2 -21   62.19   14.60
   4  -2 -21   45.70    9.60
   4  -2 -21   30.10   11.10
  -4   2  21   70.79   26.50
   3  -2 -21   48.90   13.50
   3  -2 -21   91.39   13.40
   3  -2 -21   57.29   12.50
   2  -2 -21   -5.30    6.90
   2  -2 -21   18.20    7.10
   2  -2 -21   11.30   10.80
  -2   2  21   13.50   13.20
  -2   2  21  -22.00   12.90
  -2   2  21   43.50   17.40
   1  -2 -21   27.50    8.50
   1  -2 -21   21.60    8.80
   1  -2 -21   26.70    8.30
  -1   2  21   56.09   18.00
  -1   2  21   41.40   13.80
  -1   2  21   29.10   12.40
   0  -2 -21  267.47   22.70
   0  -2 -21  283.57   21.60
   0  -2 -21  272.47   18.00
   0  -2 -21  283.47   19.60
   0   2  21  247.48   25.30
   0   2  21  269.27   28.20
   0   2  21  257.67   34.50
  -1  -2 -21  244.48   17.80
  -1  -2 -21  339.17   24.10
  -1  -2 -21  339.37   23.30
   1   2  21  308.67   35.70
   1   2  21  306.37   26.70
   1   2  21  327.37   27.50
  -2  -2 -21   47.40    9.00
  -2  -2 -21   43.50   10.70
  -2  -2 -21   58.29   12.10
   2   2  21   64.09   16.90
   2   2  21   79.09   23.90
   2   2  21   47.90   14.20
  -3  -2 -21  146.19   12.80
   3   2  21  123.39   20.60
   3   2  21  121.79   28.20
   3   2  21  141.19   20.80
  -4  -2 -21   14.50    9.60
   4   2  21   33.40   14.40
   4   2  21   20.90   12.80
   4   2  21   10.10    9.30
   4   2  21    1.90    7.50
   5   2  21   16.60    9.10
   5   2  21    3.00    8.90
   5   2  21   19.80   13.90
   6   2  21 1043.00   64.79
   6   2  21 1065.09   52.99
   6   2  21 1005.00   56.79
   4  -3 -21   29.10   10.00
   4  -3 -21   22.70   12.50
  -4   3  21   34.70   23.40
   3  -3 -21   17.60    9.30
   3  -3 -21    0.20    9.40
   3  -3 -21   13.70    7.80
   3  -3 -21   29.40   11.90
   2  -3 -21   -2.10    7.60
   2  -3 -21    5.90    7.50
   2  -3 -21    2.20    7.50
   2  -3 -21   -7.20    5.40
  -2   3  21    6.10   13.50
   1  -3 -21    0.30    6.60
   1  -3 -21  -13.90    5.40
   1  -3 -21   -2.30    7.20
   1  -3 -21   -7.70    6.60
  -1   3  21   17.70   15.10
  -1   3  21   -1.80   10.90
  -1   3  21    1.90   11.40
   0  -3 -21  188.58   19.10
   0  -3 -21  202.08   16.60
   0  -3 -21  212.68   17.40
   0  -3 -21  184.48   17.30
   0   3  21  200.58   35.70
   0   3  21  232.38   23.30
   0   3  21  208.38   20.40
  -1  -3 -21   12.00    7.50
  -1  -3 -21   -2.50    5.80
  -1  -3 -21   -6.60    5.40
   1   3  21   -4.90    9.60
   1   3  21   -0.20   14.00
   1   3  21    8.90   11.80
  -2  -3 -21    5.00    6.20
  -2  -3 -21    4.30    6.90
  -2  -3 -21    1.30    6.80
   2   3  21    3.30    8.60
   2   3  21    0.90   13.40
   2   3  21   18.70   10.70
  -3  -3 -21   12.70    5.80
  -3  -3 -21   -4.40    5.50
   3   3  21    2.50    9.20
   3   3  21   35.80   15.90
   3   3  21    1.90    8.50
   3   3  21    6.60   11.90
   4   3  21   38.40   16.30
   4   3  21   31.50   11.20
   4   3  21   30.20   12.40
   4   3  21   48.30   17.70
   5   3  21   17.80    9.90
   5   3  21   35.00   16.40
   5   3  21   11.10   10.60
   6   3  21  103.59   17.30
   6   3  21  102.99   19.50
   6   3  21  166.38   27.90
   7   3  21  155.98   32.80
   3  -4 -21  300.07   23.90
   3  -4 -21  282.57   25.80
   3  -4 -21  212.28   21.10
  -3   4  21  307.97   39.20
   2  -4 -21   -0.80    7.60
   2  -4 -21  -10.90    8.00
   2  -4 -21   -9.20    5.90
  -2   4  21   19.40   17.20
   1  -4 -21   -3.30    7.50
   1  -4 -21   21.70   10.60
   1  -4 -21   22.30    8.50
   1  -4 -21    8.90    7.20
  -1   4  21   33.60   20.70
   0  -4 -21   74.79   13.00
   0  -4 -21   62.49   14.00
   0  -4 -21   47.70   11.10
   0   4  21   51.29   23.00
   0   4  21   41.70   12.90
   0   4  21   65.79   14.60
  -1  -4 -21   30.40   10.90
  -1  -4 -21   30.20    8.90
  -1  -4 -21   23.10    9.00
  -1  -4 -21   21.20    7.70
   1   4  21   35.80   16.10
   1   4  21   25.80   11.50
   1   4  21   53.29   13.40
  -2  -4 -21  106.29   11.60
  -2  -4 -21   83.39   13.40
  -2  -4 -21  109.09   11.40
  -2  -4 -21  122.19   16.90
   2   4  21  113.79   18.20
   2   4  21  143.29   23.10
   2   4  21  116.69   31.10
   2   4  21  161.18   30.20
  -3  -4 -21   23.30    8.30
  -3  -4 -21   31.50    7.70
   3   4  21   42.30   13.10
   3   4  21   40.50   13.00
   3   4  21   41.10   15.30
   3   4  21   37.70   16.70
  -4  -4 -21    8.80    6.80
   4   4  21   37.00   14.50
   4   4  21   -0.30   13.00
   4   4  21    4.90   10.30
   4   4  21    9.70    9.40
   5   4  21   37.20   15.30
   5   4  21    0.80    9.70
   5   4  21   58.69   17.10
   6   4  21   13.70   12.20
   7   4  21   51.99   18.40
   7   4  21   70.79   20.20
   7   4  21   43.00   12.50
  -3   5  21  452.05   46.60
   2  -5 -21   -5.80    6.80
   2  -5 -21  -15.90    9.10
   2  -5 -21   -9.50    8.00
   2  -5 -21   -4.30    8.90
  -2   5  21   16.00   18.40
   1  -5 -21  117.69   16.40
   1  -5 -21  130.99   17.20
   1  -5 -21  140.99   16.00
   1  -5 -21  126.69   18.80
  -1   5  21  116.39   26.80
   0  -5 -21   50.79   11.30
   0  -5 -21   61.59   13.90
   0  -5 -21   67.99   12.70
   0  -5 -21   70.59   12.60
   0   5  21  105.59   25.50
   0   5  21   85.19   18.80
  -1  -5 -21  278.57   21.00
  -1  -5 -21  256.47   24.90
  -1  -5 -21  243.98   22.00
  -1  -5 -21  241.68   18.30
   1   5  21  255.97   24.90
   1   5  21  251.17   21.40
   1   5  21  264.57   31.50
  -2  -5 -21  864.01   37.60
  -2  -5 -21  957.40   42.80
  -2  -5 -21  870.41   43.90
   2   5  21  800.62   48.40
   2   5  21  795.92   56.09
   2   5  21  670.13   60.19
   2   5  21  868.91   46.80
  -3  -5 -21  651.23   29.20
  -3  -5 -21  667.53   34.90
   3   5  21  661.63   39.90
   3   5  21  614.44   47.20
  -4  -5 -21    2.20    5.40
   4   5  21    1.90    9.40
   4   5  21    4.90    8.90
   4   5  21   16.20   10.30
   4   5  21   -6.50   11.00
  -5  -5 -21   34.30    8.90
   5   5  21   34.70   11.30
   5   5  21   44.90   13.80
   5   5  21   56.59   14.30
   5   5  21   51.89   17.40
   6   5  21   20.30   15.90
   6   5  21   48.30   16.70
   7   5  21  171.88   38.50
   7   5  21  138.29   21.20
   7   5  21  132.09   20.30
   8   5  21  280.07   32.70
  -2   6  21   81.29   27.00
   1  -6 -21   88.79   14.90
   1  -6 -21   76.99   16.70
   1  -6 -21   55.99   22.10
   1  -6 -21   93.39   15.00
  -1   6  21   69.69   19.90
   0  -6 -21   27.30    9.30
   0  -6 -21   48.20   11.00
   0  -6 -21   53.29   13.70
   0   6  21   62.99   19.80
  -1  -6 -21   14.00    8.70
  -1  -6 -21   23.20   11.00
   1   6  21   18.70   15.70
   1   6  21   62.49   13.70
  -2  -6 -21  555.74   38.70
  -2  -6 -21  516.75   30.10
   2   6  21  480.45   33.90
   2   6  21  506.35   31.10
   2   6  21  426.06   47.80
   2   6  21  505.65   43.80
  -3  -6 -21  388.76   27.60
  -3  -6 -21  466.85   27.80
  -3  -6 -21  379.86   21.60
   3   6  21  373.16   30.20
   3   6  21  384.06   28.00
   3   6  21  409.96   37.60
  -4  -6 -21   61.29   11.50
   4   6  21   87.39   21.30
   4   6  21   72.89   15.60
   4   6  21   52.59   20.00
   4   6  21   98.59   17.50
  -5  -6 -21   42.80    9.90
   5   6  21   79.59   16.20
   5   6  21   66.49   17.60
   5   6  21   53.69   19.50
  -6  -6 -21    8.80    8.00
   6   6  21   16.70   12.30
   6   6  21   12.70   14.40
   7   6  21   39.80   15.80
   7   6  21   30.10   16.30
   7   6  21   58.49   18.50
   0  -7 -21   56.79   13.90
   0   7  21   83.39   23.10
  -1  -7 -21   33.00   10.70
  -1  -7 -21   29.20   11.30
  -1  -7 -21   27.20   10.00
   1   7  21   40.80   17.10
  -2  -7 -21   -0.50    7.90
  -2  -7 -21   14.40    7.90
  -2  -7 -21   15.60   11.60
   2   7  21   62.69   20.00
   2   7  21   28.40   14.30
   2   7  21   74.49   22.10
  -3  -7 -21  331.77   25.50
  -3  -7 -21  308.67   28.30
  -3  -7 -21  296.37   24.10
   3   7  21  376.16   35.30
   3   7  21  340.87   24.90
   3   7  21  306.67   28.10
   3   7  21  278.97   37.80
   4   7  21  130.99   29.80
   4   7  21  152.98   22.60
   4   7  21  147.69   31.80
   4   7  21  119.99   19.00
   5   7  21   71.39   18.50
   5   7  21   46.80   16.90
   5   7  21   52.19   14.70
   5   7  21   68.79   16.70
   6   7  21   74.09   19.50
   6   7  21   90.39   23.30
   6   7  21   63.39   16.30
   6   7  21   39.10   13.90
  -7  -7 -21   20.50    9.20
  -1  -8 -21  -17.20    9.00
  -1  -8 -21    3.70   10.60
  -2  -8 -21   -2.10   10.30
   3   8  21  627.54   41.50
   3   8  21  738.43   67.89
  -4  -8 -21  343.37   24.80
   4   8  21  359.56   31.70
   4   8  21  305.17   27.50
   4   8  21  452.15   38.50
  -5  -8 -21   36.90   11.20
   5   8  21   12.30   13.80
   5   8  21   71.39   17.50
   5   8  21    1.50   14.50
  -6  -8 -21   -9.50    7.80
   6   8  21   -3.40   11.80
   6   8  21    2.40   12.00
  -7  -8 -21   -6.20    9.20
   3   9  21   59.39   25.30
   5   9  21   19.60   17.40
  -2  -3  22  164.78   34.00
  -1  -3  22  722.03   48.00
  -1  -3  22  832.02   63.69
   0   3 -22   46.90   11.40
   0  -3  22   45.70   23.00
   0  -3  22   60.69   18.10
  -1   3 -22   37.20   10.60
   1  -3  22   38.40   19.30
   4   2 -22   13.60   11.70
   4   2 -22    0.60   12.30
  -4  -2  22    1.00   18.30
   3   2 -22   -3.10   12.30
  -3  -2  22    2.20   14.50
   2   2 -22   43.90   11.00
  -2  -2  22   57.79   19.90
  -2  -2  22   67.89   17.60
  -2  -2  22   98.79   25.20
   1   2 -22   69.59   13.50
  -1  -2  22   49.20   15.80
  -1  -2  22   77.59   23.30
  -1  -2  22   92.89   28.30
   0   2 -22   55.09   12.60
   0  -2  22   59.89   18.10
   0  -2  22   97.49   18.30
   0  -2  22   79.89   19.10
  -1   2 -22   50.19   11.50
   1  -2  22   82.39   22.70
   1  -2  22   25.00   12.30
   1  -2  22   36.60   15.40
   2  -2  22   38.20   12.30
   2  -2  22   23.60   17.30
   2  -2  22    2.70   13.70
   3  -2  22   28.40   14.80
   4   1 -22   20.80   12.00
   4   1 -22   28.00   14.60
   3   1 -22   30.00   13.10
   3   1 -22    0.00   10.00
   3   1 -22   30.60    9.90
  -3  -1  22   16.40   19.90
  -3  -1  22   12.30   14.90
   2   1 -22   21.60   10.10
   2   1 -22    3.60   10.40
  -2  -1  22    0.50   11.80
  -2  -1  22   -0.40   14.00
  -2  -1  22   12.10   12.90
   1   1 -22  253.87   21.30
  -1  -1  22  259.87   27.60
  -1  -1  22  212.98   42.20
  -1  -1  22  377.86   33.80
   0   1 -22  500.65   29.50
   0  -1  22  462.85   38.50
  -1   1 -22   65.69   11.40
   1  -1  22   39.50   13.80
   1  -1  22   68.99   19.50
  -2   1 -22   54.89   11.50
   2  -1  22   59.19   18.50
   3  -1  22   14.50   13.60
   3  -1  22   11.90   12.50
   3  -1  22   -3.60    9.90
   4   0 -22   -2.70   10.70
   4   0 -22  -11.30    8.00
   3   0 -22   61.19   12.80
   3   0 -22   72.99   16.80
   3   0 -22   77.19   13.60
  -3   0  22   93.19   20.90
  -3   0  22   98.89   27.90
   2   0 -22   35.80   15.10
   2   0 -22   37.70   13.20
   2   0 -22   26.30    9.50
  -2   0  22   23.80   21.20
  -2   0  22   60.79   16.50
  -2   0  22   67.89   18.50
   1   0 -22   18.90   12.10
   1   0 -22   38.10   10.00
  -1   0  22   10.50   12.20
  -1   0  22   22.60   14.90
  -1   0  22   49.70   15.20
   0   0 -22  504.05   28.70
   0   0  22  540.55   50.49
   0   0  22  581.74   38.90
   0   0  22  475.25   38.40
  -1   0 -22   52.79   11.70
   1   0  22   36.60   12.70
   1   0  22   46.60   20.90
   1   0  22   60.19   16.70
  -2   0 -22   48.40   10.00
   2   0  22   76.19   24.50
   2   0  22   55.29   15.50
   2   0  22   42.60   14.70
  -3   0 -22   34.60    9.60
   3   0  22   45.40   16.00
   4   0  22   66.09   17.30
   4   0  22   35.40   19.50
   4   0  22    3.90   11.10
   5   0  22  486.35   42.70
   4  -1 -22    7.30    7.70
   4  -1 -22   -3.50    9.90
   4  -1 -22  -13.20    9.10
   3  -1 -22    5.00    7.10
   3  -1 -22    4.30    6.40
   3  -1 -22    3.10    9.90
   3  -1 -22   -3.00    8.50
  -3   1  22   66.59   22.30
   2  -1 -22   42.70   10.60
   2  -1 -22   44.90   11.10
   2  -1 -22   71.59   15.10
   2  -1 -22   45.40   13.40
  -2   1  22   35.60   18.10
  -2   1  22   42.60   17.00
  -2   1  22   83.69   34.50
   1  -1 -22  374.66   24.00
   1  -1 -22  398.26   26.60
   1  -1 -22  364.76   22.80
   1  -1 -22  359.56   29.90
  -1   1  22  393.36   43.10
  -1   1  22  333.67   30.80
  -1   1  22  387.46   32.10
   0  -1 -22    4.70    8.70
   0  -1 -22   18.00    8.40
   0  -1 -22   13.50    7.70
   0   1  22    7.70   12.90
   0   1  22    2.30    9.70
   0   1  22   37.40   18.30
  -1  -1 -22  489.35   26.00
   1   1  22  407.86   33.00
   1   1  22  425.16   34.60
   1   1  22  405.46   43.30
  -2  -1 -22    2.70    6.30
   2   1  22   14.30   10.40
   2   1  22   21.30   10.90
   2   1  22   -0.40   10.60
  -3  -1 -22  119.89   15.80
   3   1  22   87.19   16.70
   3   1  22   85.09   18.00
   3   1  22   91.99   24.90
   5   1  22   61.39   15.20
   5   1  22   40.00   14.80
   5   1  22   31.40   15.90
   4  -2 -22  367.36   42.80
   3  -2 -22  101.29   14.30
   3  -2 -22   96.09   15.90
   3  -2 -22  101.59   14.80
  -3   2  22  171.58   35.40
   2  -2 -22   -1.30    8.10
   2  -2 -22   -0.70    8.80
   2  -2 -22    0.90    9.10
   1  -2 -22   10.60    7.90
   1  -2 -22    8.50    9.00
   1  -2 -22   -0.90    7.60
  -1   2  22    9.90   13.70
  -1   2  22   37.70   19.40
  -1   2  22   29.30   14.60
   0  -2 -22   34.40   10.40
   0  -2 -22   25.10    9.10
   0  -2 -22   32.60   11.50
   0  -2 -22   53.89   12.20
   0   2  22   69.49   21.30
   0   2  22   71.19   16.90
   0   2  22   52.39   15.30
  -1  -2 -22   10.10    7.30
  -1  -2 -22   -3.50   10.30
  -1  -2 -22   16.30    8.40
   1   2  22   20.80   12.50
   1   2  22   21.20   13.80
   1   2  22   13.40   15.60
  -2  -2 -22   -0.90    6.10
  -2  -2 -22   20.00    7.90
   2   2  22   12.60   10.70
   2   2  22    8.50   10.70
   2   2  22   -9.80   10.90
  -3  -2 -22   19.10    7.70
   3   2  22   50.49   15.90
   3   2  22   18.80   11.20
   3   2  22    7.80    9.80
   4   2  22   26.00   12.40
   4   2  22   35.10   11.40
   4   2  22   42.90   18.70
   5   2  22   10.70   12.00
   5   2  22   17.00   11.30
   5   2  22  -14.80    6.70
   3  -3 -22   94.59   15.50
   3  -3 -22   69.79   16.20
   3  -3 -22   75.69   15.90
  -3   3  22   90.19   27.80
   2  -3 -22  105.69   15.20
   2  -3 -22   86.09   14.00
   2  -3 -22   78.79   15.20
   2  -3 -22   78.39   13.30
  -2   3  22  111.79   31.60
   1  -3 -22    1.60    7.60
   1  -3 -22   -1.40    8.60
   1  -3 -22   -2.80    7.10
   1  -3 -22  -17.10    5.40
  -1   3  22   15.90   16.20
  -1   3  22  -10.00   11.40
   0  -3 -22  529.35   28.00
   0  -3 -22  551.24   29.50
   0  -3 -22  504.35   36.20
   0  -3 -22  540.95   31.40
   0   3  22  469.85   45.40
   0   3  22  483.75   46.10
  -1  -3 -22  426.56   24.40
  -1  -3 -22  413.06   27.60
  -1  -3 -22  408.46   29.00
   1   3  22  368.86   29.40
   1   3  22  441.46   32.20
   1   3  22  484.65   44.40
  -2  -3 -22 1261.37   55.29
   2   3  22 1212.68   60.39
   2   3  22 1111.99   73.29
   2   3  22 1266.67   61.19
  -3  -3 -22   48.60   11.20
  -3  -3 -22   31.00    8.60
   3   3  22   37.80   18.30
   3   3  22   31.00   11.70
   3   3  22   72.19   16.00
   3   3  22   48.10   17.60
   4   3  22   22.20   14.10
   4   3  22    8.10    8.50
   4   3  22   24.20   12.90
   5   3  22  120.99   25.20
   5   3  22   81.19   27.70
   6   3  22   62.29   19.40
   6   3  22   21.50   11.80
   6   3  22   19.20   15.20
   2  -4 -22   21.90   10.90
   2  -4 -22   45.20   12.30
   2  -4 -22   17.50   13.80
   2  -4 -22   39.10   10.20
  -2   4  22   56.59   21.00
   1  -4 -22   39.70   10.80
   1  -4 -22   31.10    8.80
   1  -4 -22   20.60    9.40
   1  -4 -22   40.50   12.40
  -1   4  22   60.99   23.80
   0  -4 -22    5.50    6.70
   0  -4 -22   -1.90    7.50
   0  -4 -22   -0.70    9.80
   0  -4 -22   -2.20    8.90
   0   4  22   11.20   17.30
   0   4  22   23.60   14.10
   0   4  22   20.00   13.30
  -1  -4 -22  384.06   23.30
  -1  -4 -22  449.16   27.90
  -1  -4 -22  380.96   23.80
  -1  -4 -22  394.86   28.60
   1   4  22  418.26   31.70
   1   4  22  494.45   35.20
   1   4  22  403.06   40.70
  -2  -4 -22  687.93   34.80
  -2  -4 -22  701.33   37.10
   2   4  22  659.83   41.60
   2   4  22  719.83   54.69
   2   4  22  647.34   39.10
  -3  -4 -22   65.49   11.80
  -3  -4 -22   49.00    9.50
   3   4  22   39.80   14.40
   3   4  22   76.99   21.60
   3   4  22   79.09   20.50
   3   4  22   44.30   13.20
  -4  -4 -22   43.90   10.20
   4   4  22   36.20   14.80
   4   4  22   59.99   13.50
   4   4  22   58.89   19.00
   4   4  22   52.99   15.90
   5   4  22   71.89   16.70
   5   4  22   15.90   11.60
   5   4  22   32.70   17.50
   6   4  22   19.20    9.50
   6   4  22   55.69   14.30
   6   4  22   38.10   15.00
   6   4  22   -3.40    9.70
   7   4  22  495.45   56.99
   2  -5 -22    8.80   12.50
   2  -5 -22    6.50    9.70
  -2   5  22   19.70   18.90
   1  -5 -22   17.10    9.20
   1  -5 -22   19.00   10.70
   1  -5 -22    2.60    9.10
   1  -5 -22    3.60   11.70
  -1   5  22   45.20   30.30
   0  -5 -22   -5.50    7.80
   0  -5 -22   18.50    8.50
   0  -5 -22    6.10    9.60
   0  -5 -22   -1.10    8.00
   0   5  22   40.90   18.60
  -1  -5 -22   -9.40    9.40
  -1  -5 -22   12.60    8.60
  -1  -5 -22   -8.20    7.80
  -1  -5 -22    7.70    9.70
   1   5  22   11.00   14.40
   1   5  22   18.70   13.50
   1   5  22   31.00   12.60
  -2  -5 -22   28.90    9.70
  -2  -5 -22   48.80   12.00
  -2  -5 -22   34.70   12.80
   2   5  22   66.59   22.00
   2   5  22   84.49   24.40
   2   5  22   37.90   13.90
   2   5  22   68.49   15.20
  -3  -5 -22   16.20    9.20
  -3  -5 -22   40.30    9.40
   3   5  22   27.80   13.50
   3   5  22   65.89   20.10
   3   5  22   23.30   10.60
   3   5  22   38.60   16.10
  -4  -5 -22   54.69   11.30
   4   5  22   41.60   13.10
   4   5  22   35.80   14.10
   4   5  22   48.80   13.80
  -5  -5 -22  103.39   16.90
   5   5  22  104.59   24.10
   5   5  22   85.59   16.40
   5   5  22  110.19   25.50
   6   5  22   70.09   14.60
   6   5  22  103.29   23.70
   6   5  22   61.79   16.80
   1  -6 -22   25.40   12.30
   1  -6 -22   -0.60   10.70
  -1   6  22   66.89   22.80
   0  -6 -22   43.60   12.70
   0  -6 -22   -3.80    8.70
  -1  -6 -22   -8.90    7.80
  -1  -6 -22   -5.00    6.90
  -1  -6 -22  -17.90    6.60
  -1  -6 -22   -9.90    8.20
   1   6  22   27.60   23.10
  -2  -6 -22  148.69   16.10
  -2  -6 -22  229.08   20.10
  -2  -6 -22  151.28   20.70
   2   6  22  193.78   39.70
   2   6  22  259.47   46.10
   2   6  22  200.28   22.20
   2   6  22  211.88   23.20
  -3  -6 -22  166.58   17.20
   3   6  22  141.69   21.20
   3   6  22  166.58   22.90
  -4  -6 -22    4.30    7.60
   4   6  22   -0.10   11.10
   4   6  22    7.40   12.80
   4   6  22   21.90   12.20
  -5  -6 -22    1.30    6.90
   5   6  22   28.20   14.10
   5   6  22   20.10   14.00
   5   6  22   -2.00   11.90
  -6  -6 -22   66.89   12.00
   6   6  22   60.19   17.60
   6   6  22   23.20   12.80
   6   6  22   36.20   14.30
   0  -7 -22   32.00   15.00
   0   7  22   37.80   24.10
   1   7  22   22.40   16.00
  -2  -7 -22   93.49   14.50
  -2  -7 -22  137.69   25.90
  -2  -7 -22   95.39   17.20
   2   7  22  118.99   25.30
  -3  -7 -22  164.28   16.70
   3   7  22  118.79   30.20
   3   7  22  119.59   20.20
  -4  -7 -22  139.79   16.30
   4   7  22  135.09   21.30
   4   7  22  118.99   20.00
   4   7  22  209.08   25.40
   4   7  22  124.09   29.00
  -5  -7 -22   18.20    8.70
   5   7  22   46.90   19.80
   5   7  22   36.70   15.10
   5   7  22   43.80   17.60
  -6  -7 -22    7.60    8.20
   6   7  22   -3.70   12.10
   1   8  22  101.69   39.70
  -2  -8 -22  -15.40   12.20
   2   8  22   74.19   24.20
   3   8  22   93.79   22.60
   4   8  22  168.08   24.00
   5   8  22   31.80   15.90
   5   8  22   43.80   17.30
  -2  -2  23   16.40   18.10
   1   2 -23  111.49   26.30
  -1  -2  23   64.59   14.40
  -1  -2  23  122.79   30.00
   0   2 -23  174.08   18.10
   0  -2  23  138.69   24.00
  -1   2 -23   27.10   10.10
  -3  -1  23   12.10   17.80
   2   1 -23  272.37   25.60
  -2  -1  23  350.76   33.40
  -2  -1  23  323.87   36.20
   1   1 -23   13.40    8.80
  -1  -1  23    0.50   15.00
  -1  -1  23    6.70   15.90
  -1  -1  23  -25.00   10.90
   0  -1  23  476.65   38.90
   0  -1  23  426.46   40.50
   0  -1  23  403.06   45.80
  -1   1 -23  145.19   16.00
   1  -1  23  155.38   32.20
   1  -1  23  110.69   22.10
   1  -1  23   79.39   20.00
  -2   1 -23   25.90   10.70
   2  -1  23   33.70   15.50
   2  -1  23   -0.40   11.80
   2  -1  23   -0.90   12.90
   3   0 -23   25.50   22.10
   3   0 -23   14.60   11.20
   2   0 -23   22.30    9.50
   2   0 -23    2.60   13.10
  -2   0  23   20.90   16.90
  -1   0  23   64.59   24.50
  -1   0  23   87.49   20.30
  -1   0  23   86.89   22.10
   0   0 -23  107.39   14.80
   0   0  23  128.79   23.60
   0   0  23  123.39   31.50
   0   0  23  135.19   21.90
  -1   0 -23   72.79   12.60
   1   0  23   47.70   14.80
   1   0  23   58.29   19.00
   1   0  23   91.79   30.30
  -2   0 -23   19.00    8.50
   2   0  23   -6.60   15.90
   2   0  23   26.20   17.90
   2   0  23    8.80   11.40
  -3   0 -23   43.30   12.40
   3   0  23   25.70   12.60
   3   0  23   66.89   19.40
   3   0  23   44.70   13.50
   3  -1 -23   25.40   12.20
   2  -1 -23    4.30    6.80
   2  -1 -23    6.80   11.00
  -2   1  23   23.60   18.10
  -2   1  23    9.80   16.80
   1  -1 -23  396.66   30.00
   1  -1 -23  350.26   27.40
   1  -1 -23  399.26   27.50
  -1   1  23  340.17   40.90
  -1   1  23  370.76   33.00
   0  -1 -23  160.58   16.40
   0   1  23  161.98   26.20
   0   1  23  203.78   24.30
   0   1  23  152.78   31.90
  -1  -1 -23  508.25   27.70
   1   1  23  463.95   36.00
   1   1  23  467.85   34.90
   1   1  23  382.36   48.30
  -2  -1 -23   62.59   12.00
   2   1  23   37.70   15.60
   2   1  23   72.49   17.50
   2   1  23   75.09   21.00
  -3  -1 -23  135.29   14.70
   3   1  23   92.29   19.90
   3   1  23  106.89   21.70
   3   1  23  159.98   31.00
   4   1  23   11.00   10.10
   4   1  23   50.69   17.30
   4   1  23   29.30   11.80
   3  -2 -23   21.70   13.10
   3  -2 -23   16.30   12.10
   2  -2 -23   31.50   10.60
   2  -2 -23   14.40   10.10
   2  -2 -23   20.60   10.60
   2  -2 -23   20.30   11.40
  -2   2  23   37.40   20.00
   1  -2 -23   -1.20    9.10
   1  -2 -23    2.90   11.10
   1  -2 -23    3.20   10.50
  -1   2  23    8.50   14.20
  -1   2  23   16.40   14.40
  -1   2  23  -18.40   14.10
   0  -2 -23   70.29   12.40
   0  -2 -23   86.09   14.90
   0  -2 -23   74.39   14.50
   0   2  23   92.69   19.30
   0   2  23  120.59   30.30
   0   2  23   77.89   18.80
  -1  -2 -23  545.95   29.20
   1   2  23  511.85   36.30
  -2  -2 -23  235.28   18.00
   2   2  23  263.67   27.00
   2   2  23  251.27   26.40
  -3  -2 -23    8.90    8.40
   3   2  23   18.40   11.60
   3   2  23   -1.90    9.60
   3   2  23   12.20   14.70
   4   2  23   24.60   12.10
   4   2  23   35.30   13.90
   4   2  23   36.30   12.50
   2  -3 -23   60.09   14.20
   2  -3 -23   57.99   13.20
   2  -3 -23   43.00   14.60
  -2   3  23   66.69   31.60
   1  -3 -23  -12.60    8.80
   1  -3 -23   34.10   12.30
   1  -3 -23    9.80    8.80
  -1   3  23   -6.50   13.50
   0  -3 -23  -13.90    8.70
   0  -3 -23   12.10    8.50
   0  -3 -23   -1.20    6.20
   0   3  23   17.40   13.60
   0   3  23  -20.80   10.20
   0   3  23   25.90   15.20
  -1  -3 -23   51.59   12.60
  -1  -3 -23   49.40   10.90
  -1  -3 -23   35.80   13.20
   1   3  23   70.29   16.80
   1   3  23   50.79   15.70
  -2  -3 -23   28.10    9.70
   2   3  23   36.70   12.70
   2   3  23   29.40   12.20
  -3  -3 -23   -0.40    5.50
  -3  -3 -23   -9.00   11.10
   3   3  23   14.50    9.50
   3   3  23   10.80   14.90
   3   3  23   20.60   11.90
   4   3  23  212.68   28.90
   4   3  23  316.87   32.20
   5   3  23  285.77   26.30
   5   3  23  377.46   32.90
   5   3  23  228.88   42.00
   2  -4 -23   97.19   16.70
   2  -4 -23  113.29   19.80
   1  -4 -23   26.00   11.40
   1  -4 -23   28.10   15.20
   1  -4 -23    2.70    9.70
   1  -4 -23   10.30    8.40
  -1   4  23   77.19   21.20
   0  -4 -23  -18.10    8.60
   0  -4 -23   -1.00    8.20
   0  -4 -23   -7.40    6.20
   0  -4 -23   12.80   11.50
   0   4  23   25.60   15.00
   0   4  23   11.10   15.30
  -1  -4 -23    2.40    6.70
  -1  -4 -23    3.20    7.70
  -1  -4 -23   -6.40    9.40
   1   4  23   -4.80   11.70
   1   4  23  -12.20   14.20
   1   4  23    8.60   12.30
  -2  -4 -23   15.20    9.10
  -2  -4 -23   33.40   10.80
   2   4  23   36.30   13.00
   2   4  23   12.70   12.30
   2   4  23   55.29   27.30
   3   4  23   60.19   18.20
   3   4  23   42.30   13.80
   3   4  23   54.69   18.80
  -4  -4 -23   48.00   11.50
   4   4  23   69.79   16.90
   4   4  23   96.49   22.70
   5   4  23   42.00   13.80
   5   4  23   23.30   12.90
   5   4  23   34.50   16.10
   1  -5 -23   -4.00   11.30
   1  -5 -23   -9.70    9.60
  -1   5  23   23.60   19.50
   0  -5 -23  -12.40    9.90
   0  -5 -23   -4.40   14.80
   0  -5 -23  -15.30    8.90
   0   5  23   30.60   16.00
  -1  -5 -23  132.29   15.30
  -1  -5 -23  114.59   16.20
  -1  -5 -23  124.29   19.50
   1   5  23  149.19   25.30
   1   5  23  175.98   34.10
  -2  -5 -23  -10.40    8.30
  -2  -5 -23   10.40    8.20
   2   5  23   -9.10   10.70
   2   5  23   13.10   14.20
   2   5  23   27.30   12.60
  -3  -5 -23   88.29   15.40
   3   5  23  102.39   17.60
   3   5  23  112.69   25.30
   3   5  23  116.99   21.20
  -4  -5 -23    1.60    6.50
   4   5  23   33.00   14.90
   4   5  23    8.80   12.80
  -5  -5 -23   23.70    7.90
   5   5  23   -2.50    9.20
   5   5  23   23.00   11.40
   6   5  23  420.86   38.10
   0  -6 -23   23.00   11.00
   0  -6 -23  -15.10    9.50
   0  -6 -23    0.80   10.40
   0   6  23   87.29   24.60
  -1  -6 -23   13.50   10.40
  -1  -6 -23    8.10   12.60
   1   6  23   72.49   22.30
  -2  -6 -23   33.20   15.00
  -2  -6 -23   14.70   10.80
   2   6  23   52.99   18.10
   2   6  23   46.70   19.10
   2   6  23   25.00   15.40
  -3  -6 -23   63.19   12.40
   3   6  23  106.99   22.70
   3   6  23  104.09   18.50
   3   6  23  109.39   20.30
   3   6  23   89.09   27.40
  -4  -6 -23  176.38   18.90
   4   6  23  190.28   26.50
   4   6  23  131.69   25.30
   4   6  23  277.77   30.50
   4   6  23  221.98   22.70
  -5  -6 -23  101.49   15.10
   5   6  23   90.69   17.40
   5   6  23   90.19   18.40
  -1  -7 -23   14.80   14.60
  -1  -7 -23    8.30   12.10
   4   7  23   33.70   14.50
   5   7  23   -4.20   13.70
  -1  -1  24   33.30   16.90
   0   1 -24  161.28   16.50
   0  -1  24   80.29   19.90
  -1   1 -24   19.60    9.80
  -2   1 -24   32.70   12.20
  -2   0  24   44.40   19.70
   1   0 -24   25.20   10.00
  -1   0  24   22.80   17.10
  -1   0  24   94.69   21.50
   0   0 -24  153.68   16.70
   0   0  24  126.09   25.00
   1   0  24  149.19   23.60
   1   0  24  136.09   24.40
  -2   0 -24   45.20   11.60
   2   0  24   23.00   12.70
   1  -1 -24   58.59   13.20
  -1   1  24   60.79   19.10
  -1   1  24   27.10   17.40
   0   1  24   18.30   12.70
   0   1  24   11.30   13.30
  -1  -1 -24    9.40    8.30
   1   1  24   18.30   16.40
   1   1  24   19.30   21.10
  -2  -1 -24   18.30    9.10
   2   1  24   -4.30   12.20
   2   1  24   19.10   19.60
   2   1  24   20.60   11.40
   3   1  24   57.49   19.00
   3   1  24   20.60   12.00
   2  -2 -24    7.40   13.10
   1  -2 -24  -11.40   13.20
   0  -2 -24  -12.10    5.70
   0   2  24   43.20   20.50
   0   2  24   11.50   15.30
   0   2  24   30.50   13.50
  -1  -2 -24   17.80    8.10
  -1  -2 -24    6.20    7.20
   1   2  24   20.90   14.20
   1   2  24   -4.80   12.90
   1   2  24    2.90    9.90
  -2  -2 -24   65.39   12.50
   2   2  24   54.09   22.10
   3   2  24  192.38   51.79
   3   2  24  182.38   22.70
   2  -3 -24    1.00   12.90
   2  -3 -24  -15.00   13.80
   1  -3 -24   -4.50   12.40
   1  -3 -24   -2.30    8.70
   0  -3 -24   96.39   18.10
   0   3  24   87.89   20.60
   0   3  24  125.79   27.70
   0   3  24   88.19   25.10
  -1  -3 -24   27.00    9.10
  -1  -3 -24   14.40    9.80
   1   3  24   16.10   17.40
   1   3  24   23.50   14.70
   1   3  24    7.30   14.40
  -2  -3 -24    5.40    8.90
  -2  -3 -24   -0.40    6.90
   2   3  24   10.00   13.10
   2   3  24   47.30   19.30
   2   3  24   11.70   11.30
   3   3  24   69.79   20.00
   3   3  24  137.79   31.70
   3   3  24   68.69   15.20
   4   3  24   20.10   11.00
   4   3  24   27.20   12.60
   1  -4 -24  -15.40   11.10
   0  -4 -24   17.60   10.80
   0  -4 -24   13.70   13.20
  -1  -4 -24   10.80    8.70
   1   4  24   27.60   15.70
   1   4  24   12.10   13.10
   1   4  24   14.80   18.30
  -2  -4 -24    7.50    7.80
  -2  -4 -24  -13.20    9.60
   2   4  24   47.30   16.80
   2   4  24   27.60   11.60
   2   4  24   53.99   16.70
  -3  -4 -24   94.99   18.90
   3   4  24   84.69   22.10
   3   4  24  112.89   31.40
   4   4  24  117.39   20.40
   4   4  24  129.49   22.20
   0  -5 -24  180.48   25.70
   0  -5 -24  136.79   19.30
  -2  -5 -24   71.79   19.40
   2   5  24   69.29   17.00
   2   5  24  108.79   23.60
   3   5  24   -4.20   15.30
   3   5  24   -2.00   12.70
   3   5  24   61.39   19.00
   4   5  24   20.50   12.80
   4   5  24   52.49   15.30
   5   5  24   95.19   28.60
   3   6  24   66.59   28.20
   3   6  24  -10.10   13.50
   4   6  24   11.30   15.30
   4   6  24   -3.60   13.00
  -1   0  25   28.70   32.20
  -1   0 -25   28.60   13.80
  -1   1  25    6.30   23.40
   0  -1 -25   32.60   14.70
   0   1  25   48.70   18.50
   0   1  25   63.69   20.00
  -1  -1 -25   23.90   10.60
   1   1  25    0.80   11.90
   0  -2 -25   18.70   10.30
   0   2  25   38.60   20.00
   0   2  25   15.50   29.10
  -1  -2 -25    4.80    9.30
   1   2  25   35.40   16.90
   1   2  25   45.10   15.40
   2   2  25   -0.40   13.80
   2   2  25    8.00   13.00
   0  -3 -25   21.60   13.10
  -1  -3 -25   59.19   14.60
   1   3  25   36.90   20.70
   2   3  25  -12.60   13.70
   3   3  25   69.19   29.00
  -1  -4 -25  -32.80   10.10
   2   4  25   40.80   16.20
   2   4  25   42.10   20.40
   3   4  25   46.70   16.00
   3   4  25   21.60   18.40
  -1  -5 -25  -26.80   11.40
   2   5  25   35.60   15.20
   3   5  25    9.50   17.00
   0   0   0    0.00    0.00

_computing_structure_solution     'SHELXT 2014/5 (Sheldrick, 2014)'
;
_shelx_hkl_checksum              78423
loop_
_space_group_symop_operation_xyz
'x, y, z'
'-x, -y, -z'
loop_
_atom_site_label
_atom_site_type_symbol
_atom_site_fract_x
_atom_site_fract_y
_atom_site_fract_z
_atom_site_U_iso_or_equiv
_atom_site_adp_type
_atom_site_occupancy
_atom_site_site_symmetry_order
_atom_site_calc_flag
_atom_site_refinement_flags_posn
_atom_site_refinement_flags_adp
_atom_site_refinement_flags_occupancy
_atom_site_disorder_assembly
_atom_site_disorder_group
O1 O 0.81963(12) 0.29469(13) 0.95650(5) 0.01747(17) Uani 1 1 d . . . . .
O2 O 0.06520(11) 0.58906(12) 0.57070(5) 0.01501(17) Uani 1 1 d . . . . .
O3 O -0.28911(11) 0.74708(12) 0.66698(5) 0.01531(17) Uani 1 1 d . . . . .
O4 O -0.29726(11) 0.79718(12) 0.83926(5) 0.01540(17) Uani 1 1 d . . . . .
N1 N 0.98824(13) 0.17433(14) 0.82395(6) 0.01343(18) Uani 1 1 d . . . . .
N2 N 0.72544(13) 0.28964(14) 0.73082(6) 0.01298(18) Uani 1 1 d . . . . .
C1 C 0.26486(15) 0.54624(15) 0.79181(7) 0.01134(19) Uani 1 1 d . . . . .
C2 C 0.26745(15) 0.52784(15) 0.70045(7) 0.01201(19) Uani 1 1 d . . . . .
H2 H 0.3943 0.4674 0.6673 0.014 Uiso 1 1 calc R U . . .
C3 C 0.08186(15) 0.59920(15) 0.65902(7) 0.01180(19) Uani 1 1 d . . . . .
C4 C -0.10695(15) 0.68780(15) 0.70721(7) 0.01173(19) Uani 1 1 d . . . . .
C5 C -0.10799(15) 0.70804(15) 0.79790(7) 0.01152(19) Uani 1 1 d . . . . .
C6 C 0.07724(15) 0.63842(15) 0.84014(7) 0.01192(19) Uani 1 1 d . . . . .
H6 H 0.0763 0.6534 0.9016 0.014 Uiso 1 1 calc R U . . .
C7 C 0.45142(15) 0.46688(15) 0.84168(7) 0.01204(19) Uani 1 1 d . . . . .
H7 H 0.4329 0.4991 0.9013 0.014 Uiso 1 1 calc R U . . .
C8 C 0.64674(15) 0.35400(15) 0.81513(7) 0.01175(19) Uani 1 1 d . . . . .
C9 C 0.81888(15) 0.27775(16) 0.87709(7) 0.01271(19) Uani 1 1 d . . . . .
C10 C 0.92215(16) 0.18899(15) 0.73883(7) 0.01233(19) Uani 1 1 d . . . . .
C11 C 1.07177(16) 0.09910(17) 0.66514(8) 0.0165(2) Uani 1 1 d . . . . .
H11A H 0.9980 0.1194 0.6110 0.025 Uiso 1 1 calc R U . . .
H11B H 1.1464 -0.0475 0.6858 0.025 Uiso 1 1 calc R U . . .
H11C H 1.1697 0.1660 0.6499 0.025 Uiso 1 1 calc R U . . .
C12 C 1.19573(16) 0.06867(17) 0.85576(8) 0.0173(2) Uani 1 1 d . . . . .
H12A H 1.2480 0.1690 0.8643 0.026 Uiso 1 1 calc R U . . .
H12B H 1.2857 -0.0124 0.8105 0.026 Uiso 1 1 calc R U . . .
H12C H 1.1932 -0.0218 0.9138 0.026 Uiso 1 1 calc R U . . .
C13 C 0.25332(16) 0.51777(18) 0.51663(7) 0.0159(2) Uani 1 1 d . . . . .
H13A H 0.3259 0.6084 0.5136 0.024 Uiso 1 1 calc R U . . .
H13B H 0.2233 0.5170 0.4550 0.024 Uiso 1 1 calc R U . . .
H13C H 0.3400 0.3789 0.5442 0.024 Uiso 1 1 calc R U . . .
C14 C -0.34953(17) 0.94381(18) 0.61103(8) 0.0212(2) Uani 1 1 d . . . . .
H14A H -0.3678 1.0465 0.6482 0.032 Uiso 1 1 calc R U . . .
H14B H -0.4796 0.9765 0.5841 0.032 Uiso 1 1 calc R U . . .
H14C H -0.2427 0.9436 0.5624 0.032 Uiso 1 1 calc R U . . .
C15 C -0.30221(17) 0.80397(18) 0.93380(7) 0.0178(2) Uani 1 1 d . . . . .
H15A H -0.2275 0.6663 0.9666 0.027 Uiso 1 1 calc R U . . .
H15B H -0.4455 0.8555 0.9583 0.027 Uiso 1 1 calc R U . . .
H15C H -0.2370 0.8948 0.9415 0.027 Uiso 1 1 calc R U . . .
loop_
_atom_site_aniso_label
_atom_site_aniso_U_11
_atom_site_aniso_U_22
_atom_site_aniso_U_33
_atom_site_aniso_U_23
_atom_site_aniso_U_13
_atom_site_aniso_U_12
O1 0.0176(4) 0.0206(4) 0.0134(4) -0.0032(3) -0.0047(3) -0.0052(3)
O2 0.0113(3) 0.0225(4) 0.0106(3) -0.0057(3) -0.0009(3) -0.0045(3)
O3 0.0109(3) 0.0185(4) 0.0161(4) -0.0012(3) -0.0042(3) -0.0052(3)
O4 0.0104(3) 0.0203(4) 0.0126(3) -0.0051(3) 0.0007(3) -0.0023(3)
N1 0.0110(4) 0.0134(4) 0.0144(4) -0.0016(3) -0.0033(3) -0.0028(3)
N2 0.0130(4) 0.0131(4) 0.0114(4) -0.0025(3) -0.0010(3) -0.0034(3)
C1 0.0115(4) 0.0103(4) 0.0118(4) -0.0010(3) -0.0020(3) -0.0038(3)
C2 0.0106(4) 0.0121(4) 0.0119(4) -0.0024(3) -0.0011(3) -0.0027(3)
C3 0.0124(4) 0.0118(4) 0.0109(4) -0.0023(3) -0.0015(3) -0.0040(4)
C4 0.0100(4) 0.0121(4) 0.0126(4) -0.0007(4) -0.0024(3) -0.0040(3)
C5 0.0104(4) 0.0103(4) 0.0127(4) -0.0018(3) 0.0005(3) -0.0032(3)
C6 0.0121(4) 0.0117(4) 0.0113(4) -0.0016(3) -0.0016(3) -0.0038(4)
C7 0.0128(4) 0.0122(5) 0.0111(4) -0.0009(3) -0.0023(3) -0.0048(4)
C8 0.0125(4) 0.0117(4) 0.0108(4) -0.0004(3) -0.0031(3) -0.0044(4)
C9 0.0126(4) 0.0117(4) 0.0133(4) -0.0002(4) -0.0030(3) -0.0045(4)
C10 0.0146(4) 0.0099(4) 0.0123(4) 0.0003(3) -0.0025(3) -0.0051(4)
C11 0.0151(4) 0.0154(5) 0.0170(5) -0.0031(4) 0.0012(4) -0.0042(4)
C12 0.0114(4) 0.0164(5) 0.0219(5) -0.0017(4) -0.0059(4) -0.0024(4)
C13 0.0127(4) 0.0207(5) 0.0124(5) -0.0040(4) 0.0010(4) -0.0046(4)
C14 0.0175(5) 0.0199(6) 0.0213(5) 0.0003(4) -0.0085(4) -0.0020(4)
C15 0.0159(5) 0.0214(5) 0.0132(5) -0.0065(4) 0.0021(4) -0.0037(4)
loop_
_atom_type_symbol
_atom_type_description
_atom_type_scat_dispersion_real
_atom_type_scat_dispersion_imag
_atom_type_scat_source
C C 0.0033 0.0016 'International Tables Vol C Tables 4.2.6.8 and 6.1.1.4'
H H 0.0000 0.0000 'International Tables Vol C Tables 4.2.6.8 and 6.1.1.4'
N N 0.0061 0.0033 'International Tables Vol C Tables 4.2.6.8 and 6.1.1.4'
O O 0.0106 0.0060 'International Tables Vol C Tables 4.2.6.8 and 6.1.1.4'
loop_
_geom_angle_atom_site_label_1
_geom_angle_atom_site_label_2
_geom_angle_atom_site_label_3
_geom_angle
_geom_angle_site_symmetry_1
_geom_angle_site_symmetry_3
_geom_angle_publ_flag
C3 O2 C13 116.41(8) . . ?
C4 O3 C14 113.52(8) . . ?
C5 O4 C15 116.29(8) . . ?
C9 N1 C10 107.97(8) . . ?
C9 N1 C12 123.88(9) . . ?
C10 N1 C12 128.15(9) . . ?
C10 N2 C8 105.57(8) . . ?
C2 C1 C6 120.26(9) . . ?
C2 C1 C7 122.70(9) . . ?
C6 C1 C7 117.01(9) . . ?
C3 C2 C1 119.14(9) . . ?
C3 C2 H2 120.4 . . ?
C1 C2 H2 120.4 . . ?
O2 C3 C2 124.37(9) . . ?
O2 C3 C4 114.51(8) . . ?
C2 C3 C4 121.11(9) . . ?
O3 C4 C5 120.18(9) . . ?
O3 C4 C3 120.41(9) . . ?
C5 C4 C3 119.36(9) . . ?
O4 C5 C6 124.33(9) . . ?
O4 C5 C4 115.55(9) . . ?
C6 C5 C4 120.13(9) . . ?
C5 C6 C1 119.97(9) . . ?
C5 C6 H6 120.0 . . ?
C1 C6 H6 120.0 . . ?
C8 C7 C1 129.11(9) . . ?
C8 C7 H7 115.4 . . ?
C1 C7 H7 115.4 . . ?
C7 C8 N2 129.26(9) . . ?
C7 C8 C9 121.89(9) . . ?
N2 C8 C9 108.85(8) . . ?
O1 C9 N1 125.86(9) . . ?
O1 C9 C8 130.88(9) . . ?
N1 C9 C8 103.25(8) . . ?
N2 C10 N1 114.35(9) . . ?
N2 C10 C11 125.04(9) . . ?
N1 C10 C11 120.59(9) . . ?
C10 C11 H11A 109.5 . . ?
C10 C11 H11B 109.5 . . ?
H11A C11 H11B 109.5 . . ?
C10 C11 H11C 109.5 . . ?
H11A C11 H11C 109.5 . . ?
H11B C11 H11C 109.5 . . ?
N1 C12 H12A 109.5 . . ?
N1 C12 H12B 109.5 . . ?
H12A C12 H12B 109.5 . . ?
N1 C12 H12C 109.5 . . ?
H12A C12 H12C 109.5 . . ?
H12B C12 H12C 109.5 . . ?
O2 C13 H13A 109.5 . . ?
O2 C13 H13B 109.5 . . ?
H13A C13 H13B 109.5 . . ?
O2 C13 H13C 109.5 . . ?
H13A C13 H13C 109.5 . . ?
H13B C13 H13C 109.5 . . ?
O3 C14 H14A 109.5 . . ?
O3 C14 H14B 109.5 . . ?
H14A C14 H14B 109.5 . . ?
O3 C14 H14C 109.5 . . ?
H14A C14 H14C 109.5 . . ?
H14B C14 H14C 109.5 . . ?
O4 C15 H15A 109.5 . . ?
O4 C15 H15B 109.5 . . ?
H15A C15 H15B 109.5 . . ?
O4 C15 H15C 109.5 . . ?
H15A C15 H15C 109.5 . . ?
H15B C15 H15C 109.5 . . ?
loop_
_geom_bond_atom_site_label_1
_geom_bond_atom_site_label_2
_geom_bond_distance
_geom_bond_site_symmetry_2
_geom_bond_publ_flag
O1 C9 1.2250(12) . ?
O2 C3 1.3672(12) . ?
O2 C13 1.4268(12) . ?
O3 C4 1.3722(11) . ?
O3 C14 1.4263(14) . ?
O4 C5 1.3603(12) . ?
O4 C15 1.4259(13) . ?
N1 C9 1.3806(13) . ?
N1 C10 1.3902(13) . ?
N1 C12 1.4550(13) . ?
N2 C10 1.2988(13) . ?
N2 C8 1.4056(13) . ?
C1 C2 1.4028(13) . ?
C1 C6 1.4036(13) . ?
C1 C7 1.4580(13) . ?
C2 C3 1.3906(13) . ?
C2 H2 0.9500 . ?
C3 C4 1.4036(13) . ?
C4 C5 1.3986(14) . ?
C5 C6 1.3960(13) . ?
C6 H6 0.9500 . ?
C7 C8 1.3501(14) . ?
C7 H7 0.9500 . ?
C8 C9 1.4894(13) . ?
C10 C11 1.4832(14) . ?
C11 H11A 0.9800 . ?
C11 H11B 0.9800 . ?
C11 H11C 0.9800 . ?
C12 H12A 0.9800 . ?
C12 H12B 0.9800 . ?
C12 H12C 0.9800 . ?
C13 H13A 0.9800 . ?
C13 H13B 0.9800 . ?
C13 H13C 0.9800 . ?
C14 H14A 0.9800 . ?
C14 H14B 0.9800 . ?
C14 H14C 0.9800 . ?
C15 H15A 0.9800 . ?
C15 H15B 0.9800 . ?
C15 H15C 0.9800 . ?
loop_
_geom_torsion_atom_site_label_1
_geom_torsion_atom_site_label_2
_geom_torsion_atom_site_label_3
_geom_torsion_atom_site_label_4
_geom_torsion
_geom_torsion_site_symmetry_1
_geom_torsion_site_symmetry_2
_geom_torsion_site_symmetry_3
_geom_torsion_site_symmetry_4
_geom_torsion_publ_flag
C6 C1 C2 C3 -0.98(15) . . . . ?
C7 C1 C2 C3 177.02(9) . . . . ?
C13 O2 C3 C2 -6.18(15) . . . . ?
C13 O2 C3 C4 174.34(9) . . . . ?
C1 C2 C3 O2 -179.81(9) . . . . ?
C1 C2 C3 C4 -0.36(16) . . . . ?
C14 O3 C4 C5 99.49(11) . . . . ?
C14 O3 C4 C3 -82.97(12) . . . . ?
O2 C3 C4 O3 3.15(14) . . . . ?
C2 C3 C4 O3 -176.35(9) . . . . ?
O2 C3 C4 C5 -179.28(9) . . . . ?
C2 C3 C4 C5 1.22(16) . . . . ?
C15 O4 C5 C6 -4.80(15) . . . . ?
C15 O4 C5 C4 175.05(9) . . . . ?
O3 C4 C5 O4 -3.02(14) . . . . ?
C3 C4 C5 O4 179.41(9) . . . . ?
O3 C4 C5 C6 176.84(9) . . . . ?
C3 C4 C5 C6 -0.74(15) . . . . ?
O4 C5 C6 C1 179.27(9) . . . . ?
C4 C5 C6 C1 -0.58(15) . . . . ?
C2 C1 C6 C5 1.45(15) . . . . ?
C7 C1 C6 C5 -176.66(9) . . . . ?
C2 C1 C7 C8 -5.68(17) . . . . ?
C6 C1 C7 C8 172.37(10) . . . . ?
C1 C7 C8 N2 3.15(19) . . . . ?
C1 C7 C8 C9 -177.26(10) . . . . ?
C10 N2 C8 C7 178.72(11) . . . . ?
C10 N2 C8 C9 -0.91(11) . . . . ?
C10 N1 C9 O1 179.24(10) . . . . ?
C12 N1 C9 O1 0.04(17) . . . . ?
C10 N1 C9 C8 0.19(11) . . . . ?
C12 N1 C9 C8 -179.01(9) . . . . ?
C7 C8 C9 O1 1.79(18) . . . . ?
N2 C8 C9 O1 -178.55(11) . . . . ?
C7 C8 C9 N1 -179.23(10) . . . . ?
N2 C8 C9 N1 0.43(11) . . . . ?
C8 N2 C10 N1 1.09(12) . . . . ?
C8 N2 C10 C11 -177.23(10) . . . . ?
C9 N1 C10 N2 -0.84(13) . . . . ?
C12 N1 C10 N2 178.31(10) . . . . ?
C9 N1 C10 C11 177.57(9) . . . . ?
C12 N1 C10 C11 -3.28(16) . . . . ?

_cod_database_fobs_code 2108660
