#------------------------------------------------------------------------------
#$Date: 2022-03-16 04:56:31 +0200 (Wed, 16 Mar 2022) $
#$Revision: 273718 $
#$URL: file:///home/coder/svn-repositories/cod/cif/2/10/89/2108933.cif $
#------------------------------------------------------------------------------
#
# This file is available in the Crystallography Open Database (COD),
# http://www.crystallography.net/. The original data for this entry
# were provided by IUCr Journals, http://journals.iucr.org/.
#
# The file may be used within the scientific community so long as
# proper attribution is given to the journal article from which the
# data were obtained.
#
data_2108933
loop_
_publ_author_name
'Hasija, Avantika'
'Som, Shubham'
'Chopra, Deepak'
_publ_section_title
;
 Investigation of crystal structures, energetics and isostructurality in
 halogen-substituted phosphoramidates
;
_journal_issue                   2
_journal_name_full               'Acta Crystallographica Section B'
_journal_page_first
;
;
_journal_paper_doi               10.1107/S2052520622000889
_journal_volume                  78
_journal_year                    2022
_chemical_formula_moiety         'C18 H15 I N O3 P'
_chemical_formula_sum            'C18 H15 I N O3 P'
_chemical_formula_weight         451.18
_space_group_crystal_system      triclinic
_space_group_IT_number           2
_space_group_name_Hall           '-P 1'
_space_group_name_H-M_alt        'P -1'
_atom_sites_solution_hydrogens   mixed
_atom_sites_solution_primary     dual
_audit_creation_date             2021-05-28
_audit_creation_method
;
Olex2 1.3
(compiled 2020.11.12 svn.r5f609507 for OlexSys, GUI svn.r6272)
;
_cell_angle_alpha                79.545(3)
_cell_angle_beta                 85.778(3)
_cell_angle_gamma                75.120(3)
_cell_formula_units_Z            2
_cell_length_a                   8.4777(6)
_cell_length_b                   9.2823(6)
_cell_length_c                   11.4187(8)
_cell_measurement_reflns_used    9913
_cell_measurement_temperature    100(2)
_cell_measurement_theta_max      30.21
_cell_measurement_theta_min      2.49
_cell_volume                     853.67(10)
_computing_cell_refinement       'Bruker SAINT'
_computing_data_collection       'Bruker APEX2'
_computing_data_reduction        'Bruker SAINT'
_computing_molecular_graphics    'Olex2 1.3 (Dolomanov et al., 2009)'
_computing_publication_material  'Olex2 1.3 (Dolomanov et al., 2009)'
_computing_structure_refinement  'SHELXL 2018/3 (Sheldrick, 2015)'
_computing_structure_solution    'SHELXS-97 (Sheldrick 2008)'
_diffrn_ambient_temperature      100
_diffrn_measured_fraction_theta_full 0.998
_diffrn_measured_fraction_theta_max 0.992
_diffrn_measurement_device_type  'Bruker APEX-II CCD'
_diffrn_measurement_method       '\f and \w scans'
_diffrn_radiation_type           MoK\a
_diffrn_radiation_wavelength     0.71073
_diffrn_reflns_av_R_equivalents  0.0389
_diffrn_reflns_av_unetI/netI     0.0359
_diffrn_reflns_Laue_measured_fraction_full 0.998
_diffrn_reflns_Laue_measured_fraction_max 0.992
_diffrn_reflns_limit_h_max       9
_diffrn_reflns_limit_h_min       -11
_diffrn_reflns_limit_k_max       11
_diffrn_reflns_limit_k_min       -12
_diffrn_reflns_limit_l_max       15
_diffrn_reflns_limit_l_min       -15
_diffrn_reflns_number            16798
_diffrn_reflns_point_group_measured_fraction_full 0.998
_diffrn_reflns_point_group_measured_fraction_max 0.992
_diffrn_reflns_theta_full        25.242
_diffrn_reflns_theta_max         29.130
_diffrn_reflns_theta_min         2.303
_exptl_absorpt_coefficient_mu    1.985
_exptl_absorpt_correction_T_max  0.7460
_exptl_absorpt_correction_T_min  0.5922
_exptl_absorpt_correction_type   multi-scan
_exptl_absorpt_process_details   SADABS-2014/5
_exptl_crystal_colour            colourless
_exptl_crystal_density_diffrn    1.755
_exptl_crystal_description       plate
_exptl_crystal_F_000             444
_exptl_crystal_size_max          0.387
_exptl_crystal_size_mid          0.183
_exptl_crystal_size_min          0.053
_refine_diff_density_max         0.793
_refine_diff_density_min         -0.929
_refine_diff_density_rms         0.120
_refine_ls_extinction_method     none
_refine_ls_goodness_of_fit_ref   1.092
_refine_ls_hydrogen_treatment    mixed
_refine_ls_matrix_type           full
_refine_ls_number_parameters     221
_refine_ls_number_reflns         4563
_refine_ls_number_restraints     0
_refine_ls_restrained_S_all      1.092
_refine_ls_R_factor_all          0.0259
_refine_ls_R_factor_gt           0.0238
_refine_ls_shift/su_max          0.001
_refine_ls_shift/su_mean         0.000
_refine_ls_structure_factor_coef Fsqd
_refine_ls_weighting_details
'w=1/[\s^2^(Fo^2^)+(0.0219P)^2^+0.3496P] where P=(Fo^2^+2Fc^2^)/3'
_refine_ls_weighting_scheme      calc
_refine_ls_wR_factor_gt          0.0567
_refine_ls_wR_factor_ref         0.0575
_reflns_Friedel_coverage         0.000
_reflns_number_gt                4291
_reflns_number_total             4563
_reflns_threshold_expression     'I > 2\s(I)'
_cod_data_source_file            aw5064sup1.cif
_cod_data_source_block           2I
_cod_database_code               2108933
_shelx_shelxl_version_number     2018/3
_shelx_space_group_comment
;
The symmetry employed for this shelxl refinement is uniquely defined
by the following loop, which should always be used as a source of
symmetry information in preference to the above space-group names.
They are only intended as comments.
;
_shelx_estimated_absorpt_t_max   0.902
_shelx_estimated_absorpt_t_min   0.514
_olex2_refinement_description
;
1. Fixed Uiso
 At 1.2 times of:
  All C(H) groups
2.a Aromatic/amide H refined with riding coordinates:
 C2(H2), C3(H3), C4(H4), C5(H5), C6(H6), C9(H9), C10(H10), C11(H11), C12(H12),
 C14(H14), C15(H15), C16(H16), C17(H17), C18(H18)
;
_shelx_res_file
;
TITL TRY6 in P-1
    ahp2i.res
    created by SHELXL-2018/3 at 22:15:19 on 28-May-2021
CELL 0.71073 8.4777 9.2823 11.4187 79.545 85.778 75.12
ZERR 2 0.0006 0.0006 0.0008 0.003 0.003 0.003
LATT 1
SFAC C H I N O P
UNIT 36 30 2 2 6 2

L.S. 10
PLAN  10
SIZE 0.387 0.183 0.053
TEMP -173.15
CONF
BOND $H
fmap 2
acta
MORE -1
OMIT 5 1 8
OMIT 3 -1 7
REM <olex2.extras>
REM <HklSrc "%.\\AHP2I.hkl">
REM </olex2.extras>

WGHT    0.021900    0.349600
FVAR       0.24094
I1    3    0.351820    0.308841    0.242243    11.00000    0.02215    0.01412 =
         0.02094   -0.00272   -0.01125   -0.00093
P1    6    0.753768    0.338791    0.488838    11.00000    0.01030    0.01131 =
         0.01164   -0.00117   -0.00152   -0.00292
O1    5    0.896758    0.310456    0.390848    11.00000    0.01151    0.01512 =
         0.01372    0.00081    0.00045   -0.00240
O2    5    0.857001    0.223845    0.592276    11.00000    0.01331    0.01796 =
         0.01246    0.00038   -0.00219   -0.00354
O3    5    0.693738    0.495249    0.509365    11.00000    0.01419    0.01324 =
         0.01926   -0.00453   -0.00141   -0.00353
N1    4    0.607234    0.271111    0.454502    11.00000    0.00897    0.01166 =
         0.01566   -0.00347   -0.00234   -0.00070
C1    1    0.878442    0.410398    0.281187    11.00000    0.01205    0.01546 =
         0.01289   -0.00044    0.00143   -0.00248
C2    1    0.946933    0.532962    0.266586    11.00000    0.01345    0.01689 =
         0.01660   -0.00339   -0.00092   -0.00452
AFIX  43
H2    2    1.004414    0.549615    0.329192    11.00000   -1.20000
AFIX   0
C3    1    0.929677    0.631167    0.158171    11.00000    0.02058    0.01750 =
         0.01845   -0.00203    0.00123   -0.00852
AFIX  43
H3    2    0.976590    0.715494    0.146066    11.00000   -1.20000
AFIX   0
C4    1    0.844406    0.606727    0.067648    11.00000    0.02617    0.02695 =
         0.01563    0.00282    0.00000   -0.01223
AFIX  43
H4    2    0.831087    0.675444   -0.005603    11.00000   -1.20000
AFIX   0
C5    1    0.778304    0.481695    0.083927    11.00000    0.02811    0.03142 =
         0.01514   -0.00240   -0.00476   -0.01548
AFIX  43
H5    2    0.720959    0.464591    0.021439    11.00000   -1.20000
AFIX   0
C6    1    0.796009    0.381674    0.191516    11.00000    0.02101    0.02168 =
         0.01819   -0.00190    0.00029   -0.01203
AFIX  43
H6    2    0.752315    0.295415    0.203073    11.00000   -1.20000
AFIX   0
C7    1    0.623395    0.131652    0.413725    11.00000    0.01041    0.01109 =
         0.01378   -0.00272    0.00257   -0.00380
C8    1    0.528362    0.121449    0.322170    11.00000    0.01150    0.01272 =
         0.01416   -0.00106    0.00044   -0.00302
C9    1    0.541012   -0.014825    0.283777    11.00000    0.01508    0.01609 =
         0.01590   -0.00520    0.00157   -0.00597
AFIX  43
H9    2    0.474369   -0.019371    0.221874    11.00000   -1.20000
AFIX   0
C10   1    0.651696   -0.144508    0.336410    11.00000    0.01550    0.01396 =
         0.02267   -0.00701    0.00407   -0.00439
AFIX  43
H10   2    0.660679   -0.238324    0.311022    11.00000   -1.20000
AFIX   0
C11   1    0.748624   -0.136228    0.425892    11.00000    0.01369    0.01315 =
         0.02187   -0.00237    0.00229   -0.00178
AFIX  43
H11   2    0.825437   -0.224485    0.461194    11.00000   -1.20000
AFIX   0
C12   1    0.734621    0.000350    0.464706    11.00000    0.01147    0.01436 =
         0.01844   -0.00145   -0.00129   -0.00280
AFIX  43
H12   2    0.801578    0.004226    0.526641    11.00000   -1.20000
AFIX   0
C13   1    0.804491    0.184245    0.709776    11.00000    0.01755    0.01619 =
         0.01370   -0.00014   -0.00342   -0.00979
C14   1    0.896451    0.048902    0.770730    11.00000    0.01963    0.01853 =
         0.02077    0.00091   -0.00619   -0.00643
AFIX  43
H14   2    0.984284   -0.012154    0.731510    11.00000   -1.20000
AFIX   0
C15   1    0.858025    0.004271    0.889796    11.00000    0.03383    0.02576 =
         0.02000    0.00689   -0.01006   -0.01496
AFIX  43
H15   2    0.920416   -0.087711    0.932621    11.00000   -1.20000
AFIX   0
C16   1    0.728766    0.093366    0.946785    11.00000    0.04094    0.03580 =
         0.01530    0.00030   -0.00235   -0.02307
AFIX  43
H16   2    0.703114    0.062877    1.028428    11.00000   -1.20000
AFIX   0
C17   1    0.637656    0.226916    0.883648    11.00000    0.03130    0.02945 =
         0.01866   -0.00992    0.00406   -0.01606
AFIX  43
H17   2    0.548675    0.287288    0.922389    11.00000   -1.20000
AFIX   0
C18   1    0.674541    0.273964    0.764298    11.00000    0.02331    0.01775 =
         0.01832   -0.00470   -0.00166   -0.00938
AFIX  43
H18   2    0.611835    0.365648    0.721284    11.00000   -1.20000
AFIX   0
H1    2    0.519616    0.326534    0.455869    11.00000    0.02531
HKLF 4




REM  TRY6 in P-1
REM wR2 = 0.0575, GooF = S = 1.092, Restrained GooF = 1.092 for all data
REM R1 = 0.0238 for 4291 Fo > 4sig(Fo) and 0.0259 for all 4563 data
REM 221 parameters refined using 0 restraints

END

WGHT      0.0219      0.3529

REM Highest difference peak  0.793,  deepest hole -0.929,  1-sigma level  0.120
Q1    1   0.3068  0.3501  0.1767  11.00000  0.05    0.79
Q2    1   0.3870  0.2679  0.3164  11.00000  0.05    0.78
Q3    1   0.6277  0.1987  0.4408  11.00000  0.05    0.56
Q4    1   0.6278 -0.1781  0.3403  11.00000  0.05    0.47
Q5    1   0.7960  0.4364  0.1417  11.00000  0.05    0.46
Q6    1   0.7032  0.6385  0.5188  11.00000  0.05    0.46
Q7    1   0.7054 -0.1219  0.3625  11.00000  0.05    0.46
Q8    1   0.6611  0.2407  0.8213  11.00000  0.05    0.45
Q9    1   0.3751  0.3495  0.4218  11.00000  0.05    0.43
Q10   1   0.4248  0.3169  0.1767  11.00000  0.05    0.42
;
_shelx_res_checksum              13201
_shelx_hkl_file
;
  -1   0   0  115.32    5.12
  -1   0   0  120.41    5.24
  -1   0   0  121.14    5.14
  -1   0   0  119.66    5.16
  -1   0   0  125.59    5.60
   1   0   0  116.78    5.18
   1   0   0  113.49    5.13
   1   0   0  120.85    5.19
   1   0   0  119.26    5.14
   1   0   0  118.67    5.13
  -2   0   0  483.60   20.77
  -2   0   0  466.82   20.90
  -2   0   0  432.60   19.77
  -2   0   0  478.87   19.70
  -2   0   0  463.64   19.80
  -2   0   0  456.37   19.79
  -2   0   0  490.47   20.08
   2   0   0  453.00   19.78
   2   0   0  472.87   20.66
   2   0   0  469.35   19.78
   2   0   0  459.91   19.80
  -3   0   0  239.36   11.61
  -3   0   0  231.07   10.14
  -3   0   0  236.48   10.02
  -3   0   0  239.89   10.20
  -3   0   0  223.84   10.15
  -3   0   0  241.51   10.65
  -3   0   0  228.81   10.17
  -3   0   0  235.56   10.17
  -3   0   0  245.10   10.96
   3   0   0  235.32   10.15
   3   0   0  222.60   10.16
  -4   0   0  265.12   11.88
  -4   0   0  247.97   11.12
  -4   0   0  261.46   12.09
  -4   0   0  248.85   11.06
  -4   0   0  243.29   11.10
  -4   0   0  273.45   13.16
  -4   0   0  251.69   10.90
  -4   0   0  246.84   11.07
   4   0   0  254.99   11.07
   4   0   0  246.74   11.11
  -5   0   0    6.92    1.15
  -5   0   0    6.40    0.68
  -5   0   0    6.02    0.64
  -5   0   0    7.23    1.13
  -5   0   0    6.16    0.78
  -5   0   0    7.46    0.83
  -5   0   0    6.61    0.54
  -5   0   0    5.68    1.63
   5   0   0    6.21    0.64
  -6   0   0   38.15    2.18
  -6   0   0   38.91    2.31
  -6   0   0   36.31    3.21
  -6   0   0   36.73    1.95
  -6   0   0   37.01    2.16
  -6   0   0   40.18    4.25
  -7   0   0  137.79   10.00
  -7   0   0  133.49    6.54
  -7   0   0  135.75    6.26
  -7   0   0  145.65    6.76
  -8   0   0   65.07    3.59
  -8   0   0   66.46    3.79
  -8   0   0   63.67    3.27
  -8   0   0   68.26    7.04
  -9   0   0   18.71    1.31
  -9   0   0   17.84    1.65
 -10   0   0   75.17    4.12
 -10   0   0   65.98    3.62
 -11   0   0    9.61    1.12
 -11   0   0    9.70    1.50
 -10   1   0    0.14    0.32
 -10   1   0    0.24    0.54
  -9   1   0    5.99    1.05
  -9   1   0    5.02    0.73
  -8   1   0   37.52    5.09
  -8   1   0   37.22    2.08
  -8   1   0   35.79    2.35
  -8   1   0   37.25    2.56
  -7   1   0  122.33    5.88
  -7   1   0  122.67    5.56
  -7   1   0  122.22    9.20
  -7   1   0  115.80    5.95
  -6   1   0   34.96    2.05
  -6   1   0   33.08    2.08
  -6   1   0   33.42    3.85
  -6   1   0   30.54    1.76
  -6   1   0   34.87    2.02
   5  -1   0  186.70    8.46
  -5   1   0  178.02    8.48
  -5   1   0  186.53    9.33
  -5   1   0  195.34   10.86
  -5   1   0  187.68    8.45
  -5   1   0  189.39    8.42
  -5   1   0  189.17    8.21
   4  -1   0  241.74   10.50
   4  -1   0  244.59   10.56
  -4   1   0  228.26   10.60
  -4   1   0  233.51   10.51
  -4   1   0  235.95   11.03
  -4   1   0  237.94   10.54
  -4   1   0  240.27   10.60
  -4   1   0  243.74   10.35
  -4   1   0  254.74   12.48
  -4   1   0  243.60   11.10
   3  -1   0   10.89    0.76
   3  -1   0   11.71    0.75
   3  -1   0   11.68    0.87
  -3   1   0   11.11    0.88
  -3   1   0   10.97    0.80
  -3   1   0   10.50    0.64
  -3   1   0   10.60    0.75
  -3   1   0   12.41    1.48
  -3   1   0   10.92    0.75
  -3   1   0   10.45    0.79
   2  -1   0  164.50    7.80
   2  -1   0  163.59    7.07
   2  -1   0  155.12    7.19
   2  -1   0  162.15    7.06
  -2   1   0  166.75    6.97
  -2   1   0  167.22    7.13
  -2   1   0  170.51    7.91
  -2   1   0  161.07    7.13
  -2   1   0  156.15    7.12
  -2   1   0  161.91    7.06
   1  -1   0   30.48    1.49
   1  -1   0   29.06    1.43
   1  -1   0   29.14    1.70
  -1   1   0   28.11    1.47
  -1   1   0   28.82    1.46
  -1   1   0   31.31    1.72
   0  -1   0   78.89    3.79
   0   1   0   96.75    3.81
  -1  -1   0   12.93    0.64
  -1  -1   0   12.90    1.11
  -1  -1   0   10.90    0.61
  -1  -1   0   11.59    0.87
   1   1   0   11.33    0.63
   1   1   0   12.55    1.01
   1   1   0   11.61    0.79
   1   1   0   11.78    0.85
  -2  -1   0  672.61   27.83
  -2  -1   0  591.68   26.74
  -2  -1   0  593.59   26.79
  -2  -1   0  669.59   27.98
  -2  -1   0  646.35   26.68
   2   1   0  616.85   26.78
   2   1   0  638.36   27.09
  -3  -1   0  195.54    8.64
  -3  -1   0  204.69    9.40
  -3  -1   0  200.96    8.51
  -3  -1   0  210.76    9.87
  -3  -1   0  188.43    8.66
  -3  -1   0  203.87   10.19
   3   1   0  185.59    8.63
   3   1   0  195.14    8.66
   3   1   0  203.91    9.16
   3   1   0  199.54    9.03
  -4  -1   0   57.92    2.90
  -4  -1   0   62.01    3.00
  -4  -1   0   59.28    2.92
  -4  -1   0   58.17    2.95
  -4  -1   0   64.81    4.14
  -4  -1   0   57.88    2.75
  -4  -1   0   63.55    3.81
  -4  -1   0   62.21    4.57
   4   1   0   54.78    2.90
   4   1   0   59.15    2.94
   4   1   0   62.32    3.36
   4   1   0   61.19    3.37
  -5  -1   0  160.23    9.48
  -5  -1   0  147.66    6.92
  -5  -1   0  150.42    6.98
  -5  -1   0  150.08    7.01
  -5  -1   0  169.58    8.37
  -5  -1   0  155.96    8.49
  -5  -1   0  146.67    6.91
  -5  -1   0  153.45    6.72
   5   1   0  155.24    6.96
   5   1   0  150.45    7.20
   5   1   0  143.74    7.47
  -6  -1   0  113.23    8.06
  -6  -1   0  103.41    5.17
  -6  -1   0  106.16    6.76
  -6  -1   0  115.58    6.86
  -6  -1   0  105.84    4.92
  -6  -1   0  108.34    5.18
  -6  -1   0  108.21    5.30
  -7  -1   0    2.53    0.43
  -7  -1   0    2.11    1.11
  -7  -1   0    1.27    1.24
  -7  -1   0    2.36    0.55
  -7  -1   0    1.59    0.44
  -8  -1   0   47.94    2.77
  -8  -1   0   45.20    2.43
  -8  -1   0   43.93    5.60
  -9  -1   0   37.08    2.44
  -9  -1   0   37.31    2.14
 -10  -1   0    7.52    1.25
 -10  -1   0    8.31    0.97
 -11  -1   0   47.05    3.08
 -11  -1   0   42.31    2.60
 -10   2   0   55.85    3.48
 -10   2   0   53.13    3.01
  -9   2   0   23.79    1.62
  -9   2   0   25.55    2.00
  -8   2   0    2.08    1.61
  -8   2   0    2.09    0.46
  -8   2   0    1.23    0.59
  -7   2   0    6.69    1.03
  -7   2   0    7.82    2.47
  -7   2   0    7.86    0.83
  -7   2   0    8.34    1.08
   6  -2   0  129.33    6.38
  -6   2   0  138.84    6.10
  -6   2   0  132.15    6.48
  -6   2   0  144.84    9.31
  -6   2   0  130.99    6.38
   5  -2   0   67.21    3.44
  -5   2   0   64.59    3.19
  -5   2   0   70.06    3.55
  -5   2   0   71.98    5.38
  -5   2   0   70.36    3.46
  -5   2   0   66.51    3.43
   4  -2   0   80.30    4.02
   4  -2   0   86.50    4.00
  -4   2   0   91.80    5.67
  -4   2   0   84.28    4.33
  -4   2   0   87.32    4.09
  -4   2   0   88.66    3.86
  -4   2   0   82.56    4.02
  -4   2   0   78.25    4.23
  -4   2   0   86.95    4.16
   3  -2   0  535.82   23.46
   3  -2   0  565.67   23.47
  -3   2   0  553.35   23.59
  -3   2   0  565.19   23.33
  -3   2   0  594.44   24.91
  -3   2   0  508.68   23.69
  -3   2   0  531.53   23.60
   2  -2   0  289.85   12.08
   2  -2   0  277.94   12.01
  -2   2   0  270.58   12.19
  -2   2   0  288.92   11.90
  -2   2   0  292.35   12.83
  -2   2   0  281.95   12.02
  -2   2   0  261.30   12.26
  -2   2   0  276.73   12.18
   1  -2   0   40.97    1.90
   1  -2   0   34.79    2.18
   1  -2   0   41.01    2.08
  -1   2   0   44.79    2.29
  -1   2   0   43.22    2.20
  -1   2   0   37.61    2.12
   0  -2   0  256.39   11.09
   0  -2   0  269.99   12.07
   0   2   0  253.46   11.11
  -1  -2   0  412.49   18.11
  -1  -2   0  400.33   18.13
  -1  -2   0  417.56   19.03
  -1  -2   0  458.21   19.40
  -1  -2   0  422.50   18.65
   1   2   0  439.74   18.58
   1   2   0  405.65   18.12
   1   2   0  475.67   18.86
   1   2   0  407.22   18.11
  -2  -2   0   44.37    2.21
  -2  -2   0   47.96    3.31
  -2  -2   0   45.70    2.20
  -2  -2   0   50.94    3.31
  -2  -2   0   48.14    2.86
  -2  -2   0   45.25    2.13
  -2  -2   0   49.21    2.06
   2   2   0   44.02    2.21
   2   2   0   47.14    2.74
   2   2   0   45.77    2.60
   2   2   0   43.41    2.18
  -3  -2   0    5.62    0.38
  -3  -2   0    5.16    0.47
  -3  -2   0    5.09    0.49
  -3  -2   0    6.92    1.18
  -3  -2   0    5.40    1.26
  -3  -2   0    5.39    0.87
  -3  -2   0    5.64    0.47
   3   2   0    5.10    0.47
   3   2   0    7.59    0.57
   3   2   0    5.85    0.75
   3   2   0    6.29    0.85
  -4  -2   0  505.58   23.12
  -4  -2   0  567.14   24.49
  -4  -2   0  506.78   23.02
  -4  -2   0  537.84   22.90
  -4  -2   0  522.20   23.09
  -4  -2   0  557.45   25.57
  -4  -2   0  567.62   25.15
   4   2   0  504.44   23.09
   4   2   0  591.09   24.09
   4   2   0  527.81   23.14
   4   2   0  559.73   23.85
  -5  -2   0  309.96   14.06
  -5  -2   0  312.71   14.01
  -5  -2   0  303.10   13.94
  -5  -2   0  335.79   17.03
  -5  -2   0  333.07   15.70
  -5  -2   0  320.34   13.77
  -5  -2   0  320.15   16.11
   5   2   0  318.93   14.06
   5   2   0  324.72   14.87
   5   2   0  335.44   14.93
  -6  -2   0    4.95    0.71
  -6  -2   0    4.93    1.85
  -6  -2   0    5.51    0.73
  -6  -2   0    5.18    1.57
  -6  -2   0    6.24    1.66
  -6  -2   0    4.82    0.54
   6   2   0    5.07    1.10
  -7  -2   0  252.23   11.69
  -7  -2   0  260.10   15.91
  -7  -2   0  277.46   14.46
  -7  -2   0  260.64   11.43
  -7  -2   0  263.62   11.78
  -7  -2   0  257.26   14.27
  -8  -2   0   63.48    7.02
  -8  -2   0   74.91    6.31
  -8  -2   0   66.13    3.40
  -8  -2   0   74.18    3.81
  -9  -2   0    0.16    0.28
  -9  -2   0    0.18    0.41
 -10  -2   0    1.08    0.40
 -10  -2   0    1.69    0.70
 -11  -2   0    9.03    1.36
 -11  -2   0    9.97    1.10
 -10   3   0   30.74    2.45
 -10   3   0   32.00    2.04
  -9   3   0    1.51    0.64
  -9   3   0    2.31    0.55
  -8   3   0  105.33    5.37
  -8   3   0  100.10    4.88
   7  -3   0   55.32    3.19
  -7   3   0   54.77    2.80
  -7   3   0   56.74    5.84
  -7   3   0   56.76    3.30
  -7   3   0   52.22    3.14
   6  -3   0    0.60    0.34
  -6   3   0    0.54    0.77
  -6   3   0    0.12    0.26
  -6   3   0    0.63    0.26
  -6   3   0    0.68    0.42
   5  -3   0    7.76    0.91
  -5   3   0    8.64    0.98
  -5   3   0    6.73    0.92
  -5   3   0    5.88    1.62
  -5   3   0    7.97    0.80
  -5   3   0    7.56    0.70
   4  -3   0  142.99    6.08
   4  -3   0  132.24    6.30
  -4   3   0  135.40    6.32
  -4   3   0  144.05    8.03
  -4   3   0  148.01    6.50
  -4   3   0  138.90    6.12
  -4   3   0  128.11    6.47
   3  -3   0  112.38    4.92
   3  -3   0  102.43    4.87
  -3   3   0  109.10    5.13
  -3   3   0  111.62    4.72
  -3   3   0  114.24    6.07
  -3   3   0   90.70    5.24
  -3   3   0  107.56    5.11
   2  -3   0    8.68    0.70
   2  -3   0    8.42    0.56
   2  -3   0    6.64    0.90
   2  -3   0    7.60    0.59
   2  -3   0    7.55    0.57
  -2   3   0    8.71    1.01
  -2   3   0    7.70    0.59
  -2   3   0    7.60    0.47
  -2   3   0    7.48    0.84
  -2   3   0    7.42    0.91
   1  -3   0  108.93    5.28
   1  -3   0  112.72    4.97
   1  -3   0  118.09    4.99
   1  -3   0  117.71    4.99
  -1   3   0  109.38    5.22
  -1   3   0  101.20    5.52
  -1   3   0  118.60    4.82
   0  -3   0  591.93   23.88
   0  -3   0  576.03   25.39
   0  -3   0  559.80   23.84
   0   3   0  529.82   23.94
   0   3   0  555.34   23.94
  -1  -3   0    1.83    0.71
  -1  -3   0    2.96    0.37
  -1  -3   0    2.75    0.34
  -1  -3   0    1.97    0.79
   1   3   0    3.13    0.43
   1   3   0    2.50    0.33
   1   3   0    3.06    0.55
   1   3   0    2.99    0.67
  -2  -3   0  143.92    6.40
  -2  -3   0  148.67    8.21
  -2  -3   0  143.05    6.53
  -2  -3   0  146.49    6.40
  -2  -3   0  146.27    8.02
  -2  -3   0  159.85    7.53
   2   3   0  145.14    6.48
   2   3   0  140.69    6.52
   2   3   0  147.81    7.13
  -3  -3   0   42.54    3.60
  -3  -3   0   42.68    2.08
  -3  -3   0   43.05    2.19
  -3  -3   0   43.80    1.95
  -3  -3   0   42.79    3.60
  -3  -3   0   41.95    2.01
  -3  -3   0   45.48    3.15
   3   3   0   42.07    2.74
   3   3   0   41.15    2.19
   3   3   0   41.35    2.15
  -4  -3   0   66.17    3.13
  -4  -3   0   62.04    2.96
  -4  -3   0   63.74    4.91
  -4  -3   0   69.54    4.50
  -4  -3   0   69.82    5.26
  -4  -3   0   66.94    3.24
  -4  -3   0   66.43    2.98
   4   3   0   67.00    3.28
   4   3   0   64.47    3.21
   4   3   0   64.14    3.92
  -5  -3   0   22.47    1.18
  -5  -3   0   21.25    1.32
  -5  -3   0   21.85    2.73
  -5  -3   0   23.04    1.42
  -5  -3   0   24.12    2.53
  -5  -3   0   22.19    3.00
  -5  -3   0   20.97    1.11
   5   3   0   22.24    2.03
   5   3   0   21.45    1.44
   5   3   0   19.48    1.37
  -6  -3   0   21.56    1.43
  -6  -3   0   16.82    1.27
  -6  -3   0   20.27    2.79
  -6  -3   0   20.91    3.18
  -6  -3   0   20.32    2.56
  -6  -3   0   19.43    1.14
   6   3   0   20.07    2.06
  -7  -3   0   59.72    3.32
  -7  -3   0   65.07    5.49
  -7  -3   0   69.37    5.80
  -7  -3   0   62.80    3.43
  -7  -3   0   63.40    6.45
  -7  -3   0   61.99    3.08
   7   3   0   65.34    4.54
  -8  -3   0    2.00    1.49
  -8  -3   0    1.54    1.20
  -8  -3   0    2.83    0.49
  -8  -3   0    2.00    0.61
  -8  -3   0    1.82    1.26
  -9  -3   0   52.31    3.09
  -9  -3   0   51.82    2.74
 -10  -3   0   46.92    3.01
 -10  -3   0   47.72    2.63
 -11  -3   0   15.96    1.33
 -11  -3   0   17.33    1.95
  -9   4   0   14.81    1.35
  -9   4   0   14.63    1.76
   8  -4   0   61.36    3.65
  -8   4   0   57.11    3.58
  -8   4   0   66.50    3.24
   7  -4   0   44.83    2.73
  -7   4   0   43.15    2.70
  -7   4   0   43.35    2.34
   6  -4   0   92.86    4.64
  -6   4   0   88.80    4.60
  -6   4   0   91.56    4.28
  -6   4   0   91.66    4.82
   5  -4   0  253.25   11.34
  -5   4   0  244.98   11.32
  -5   4   0  261.65   11.06
  -5   4   0  255.55   11.59
   4  -4   0    0.48    0.18
   4  -4   0    1.55    0.41
   4  -4   0    0.94    0.31
  -4   4   0    0.84    0.61
  -4   4   0    0.78    0.36
  -4   4   0    0.32    0.22
  -4   4   0    0.67    0.21
  -4   4   0    1.13    0.40
   3  -4   0   79.94    3.79
   3  -4   0   75.16    3.79
   3  -4   0   85.24    3.70
  -3   4   0   81.21    3.80
  -3   4   0   83.66    4.12
  -3   4   0   87.16    4.91
  -3   4   0   64.06    4.21
  -3   4   0   73.76    4.05
  -3   4   0   84.03    3.59
  -3   4   0   78.41    4.01
   2  -4   0  212.52    9.62
   2  -4   0  224.89    9.89
   2  -4   0  229.63    9.61
   2  -4   0  211.51    9.62
  -2   4   0  225.32    9.42
  -2   4   0  213.03    9.99
  -2   4   0  225.94   10.28
  -2   4   0  216.62   10.65
   1  -4   0   63.19    2.93
   1  -4   0   60.95    2.96
   1  -4   0   61.59    3.36
   1  -4   0   60.21    2.95
  -1   4   0   60.93    3.12
  -1   4   0   68.30    2.75
   0  -4   0   13.75    0.84
   0  -4   0   14.41    0.87
   0  -4   0   13.59    0.80
   0  -4   0   13.78    1.09
   0   4   0   13.87    0.95
   0   4   0   13.18    1.17
   0   4   0   10.96    0.96
   0   4   0   15.32    1.09
  -1  -4   0  133.31    6.11
  -1  -4   0  139.73    8.13
  -1  -4   0  134.24    6.06
  -1  -4   0  137.36    6.15
   1   4   0  157.01    6.96
   1   4   0  133.88    6.22
   1   4   0  136.91    6.26
   1   4   0  137.41    6.91
  -2  -4   0  292.81   14.26
  -2  -4   0  309.24   13.10
  -2  -4   0  314.28   13.12
  -2  -4   0  323.44   15.67
  -2  -4   0  259.91   14.89
   2   4   0  314.11   13.29
   2   4   0  318.09   14.11
   2   4   0  303.99   13.20
  -3  -4   0    5.89    1.34
  -3  -4   0    5.19    0.47
  -3  -4   0    4.54    0.43
  -3  -4   0    5.06    0.56
  -3  -4   0    5.48    1.55
  -3  -4   0    5.13    0.34
  -3  -4   0    4.51    1.40
   3   4   0    5.42    0.54
   3   4   0    4.75    1.01
   3   4   0    5.32    0.57
  -4  -4   0   79.50    5.27
  -4  -4   0   76.78    3.54
  -4  -4   0   79.02    3.46
  -4  -4   0   81.15    6.10
  -4  -4   0   76.88    3.81
  -4  -4   0   76.48    3.64
  -4  -4   0   75.23    5.82
   4   4   0   80.26    4.70
   4   4   0   74.67    3.75
   4   4   0   76.73    3.83
  -5  -4   0  266.93   15.20
  -5  -4   0  291.41   14.19
  -5  -4   0  270.39   11.90
  -5  -4   0  266.77   11.50
  -5  -4   0  257.43   11.51
  -5  -4   0  262.62   11.71
  -5  -4   0  264.41   14.74
   5   4   0  258.12   11.84
   5   4   0  279.31   13.13
   5   4   0  263.14   11.94
  -6  -4   0   21.47    1.23
  -6  -4   0   21.87    1.43
  -6  -4   0   24.97    3.00
  -6  -4   0   22.84    3.49
  -6  -4   0   22.13    3.13
  -6  -4   0   20.79    1.52
   6   4   0   22.43    2.33
  -7  -4   0   18.76    1.13
  -7  -4   0   18.14    1.34
  -7  -4   0   16.63    2.76
  -7  -4   0   17.60    2.95
   7   4   0   18.24    2.23
  -8  -4   0   25.08    5.18
  -8  -4   0   25.41    1.50
  -8  -4   0   23.79    3.64
  -8  -4   0   26.83    1.81
  -9  -4   0   16.70    1.20
  -9  -4   0   17.27    1.48
 -10  -4   0    2.28    0.53
 -10  -4   0    2.68    0.75
 -11  -4   0    0.11    0.31
 -11  -4   0    1.11    0.57
   9  -5   0    9.41    1.43
  -9   5   0    9.91    1.54
   8  -5   0    3.56    0.82
   8  -5   0    1.93    0.70
  -8   5   0    4.53    1.00
  -8   5   0    3.08    0.59
   7  -5   0   57.84    3.42
   7  -5   0   57.11    3.43
  -7   5   0   61.43    3.48
  -7   5   0   59.45    3.01
   6  -5   0   29.93    2.00
   6  -5   0   29.37    1.99
  -6   5   0   28.32    1.98
  -6   5   0   29.23    1.66
   5  -5   0   65.30    3.46
   5  -5   0   62.70    3.40
  -5   5   0   65.79    3.71
  -5   5   0   65.40    3.11
  -5   5   0   65.80    3.44
   4  -5   0   13.75    1.09
   4  -5   0   13.32    1.05
   4  -5   0   14.23    1.20
  -4   5   0   14.21    1.08
  -4   5   0   14.26    1.32
  -4   5   0   14.10    0.88
   3  -5   0  469.55   20.56
   3  -5   0  465.52   20.54
   3  -5   0  499.52   20.47
  -3   5   0  493.96   20.28
  -3   5   0  461.47   20.56
  -3   5   0  469.88   20.99
   2  -5   0   87.29    4.18
   2  -5   0   89.79    4.23
   2  -5   0   91.89    4.20
  -2   5   0   91.31    3.96
  -2   5   0   89.15    4.79
  -2   5   0   89.12    4.65
   1  -5   0   62.10    3.56
   1  -5   0   63.87    3.03
   1  -5   0   62.29    3.07
   1  -5   0   64.23    3.09
  -1   5   0   64.62    2.79
  -1   5   0   61.85    3.71
  -1   5   0   65.28    3.14
   0  -5   0  311.98   13.26
   0  -5   0  315.80   13.51
   0  -5   0  294.82   13.31
   0  -5   0  302.76   13.36
   0   5   0  299.09   13.52
   0   5   0  316.70   14.28
   0   5   0  333.75   13.68
   0   5   0  290.45   13.44
  -1  -5   0  368.36   16.19
  -1  -5   0  368.82   18.89
  -1  -5   0  364.92   16.23
  -1  -5   0  375.60   16.13
   1   5   0  362.83   16.39
   1   5   0  424.08   16.99
   1   5   0  369.16   16.34
   1   5   0  380.85   17.27
  -2  -5   0    1.10    0.81
  -2  -5   0    0.79    0.25
  -2  -5   0    0.99    0.27
  -2  -5   0    0.52    0.61
   2   5   0    0.33    0.35
   2   5   0    2.00    0.40
   2   5   0    0.95    0.31
  -3  -5   0  262.69   11.34
  -3  -5   0  266.93   14.48
  -3  -5   0  263.63   11.33
  -3  -5   0  259.76   13.14
  -3  -5   0  221.61   13.85
  -3  -5   0  257.57   11.05
   3   5   0  270.56   12.68
   3   5   0  268.56   11.61
   3   5   0  269.88   11.49
  -4  -5   0  160.17    7.34
  -4  -5   0  152.97   10.30
  -4  -5   0  165.25    7.61
  -4  -5   0  173.22    9.60
  -4  -5   0  161.12    7.27
  -4  -5   0  161.64    7.08
  -4  -5   0  165.56   10.41
   4   5   0  167.60    7.62
   4   5   0  164.10    7.49
   4   5   0  172.19    8.77
  -5  -5   0   56.46    2.79
  -5  -5   0   58.87    2.94
  -5  -5   0   55.88    5.35
  -5  -5   0   54.74    5.56
  -5  -5   0   57.46    2.69
  -5  -5   0   59.05    4.92
   5   5   0   58.80    4.18
   5   5   0   64.84    3.36
   5   5   0   57.07    3.17
  -6  -5   0   21.66    3.27
  -6  -5   0   19.00    1.34
  -6  -5   0   20.66    4.22
  -6  -5   0   18.43    1.12
  -6  -5   0   21.65    2.99
  -6  -5   0   20.93    1.18
   6   5   0   18.55    2.23
  -7  -5   0  136.54    6.44
  -7  -5   0  121.67   10.43
  -7  -5   0  132.76    6.12
  -7  -5   0  141.49   10.10
  -7  -5   0  139.67    9.68
   7   5   0  147.91    8.40
  -8  -5   0   25.00    1.48
  -8  -5   0   21.22    4.83
  -8  -5   0   26.20    1.78
  -8  -5   0   25.45    3.95
  -9  -5   0   15.20    3.91
  -9  -5   0   13.91    1.07
  -9  -5   0   14.79    1.35
 -10  -5   0   21.52    1.50
 -10  -5   0   23.85    1.89
 -11  -5   0   11.50    1.58
 -11  -5   0    9.96    1.14
   8  -6   0   41.83    2.81
   8  -6   0   42.71    2.95
  -8   6   0   44.36    3.00
   7  -6   0   36.10    2.45
   7  -6   0   37.05    2.55
  -7   6   0   38.78    2.58
   6  -6   0   16.16    1.35
   6  -6   0   14.22    1.30
  -6   6   0   12.44    1.42
   5  -6   0   55.18    3.09
   5  -6   0   53.49    3.04
  -5   6   0   58.11    3.11
   4  -6   0   25.91    1.71
   4  -6   0   27.45    1.71
  -4   6   0   30.48    2.13
  -4   6   0   24.88    1.70
   3  -6   0   39.93    2.08
   3  -6   0   36.18    2.06
   3  -6   0   35.89    2.11
  -3   6   0   37.80    2.15
  -3   6   0   37.67    2.52
   2  -6   0    0.78    0.26
   2  -6   0    0.72    0.23
   2  -6   0    0.96    0.31
  -2   6   0    0.76    0.44
  -2   6   0    0.78    0.44
   1  -6   0  227.13   10.15
   1  -6   0  229.61   10.06
   1  -6   0  235.43   10.17
  -1   6   0  227.12   11.11
   0  -6   0  225.32    9.76
   0  -6   0  223.67    9.85
   0  -6   0  221.78    9.88
   0   6   0  218.52   10.10
   0   6   0  228.20   10.98
  -1  -6   0   28.47    3.40
  -1  -6   0   27.20    1.48
  -1  -6   0   27.18    1.55
  -1  -6   0   27.29    1.58
   1   6   0   27.48    1.76
   1   6   0   24.45    2.28
  -2  -6   0  222.26   10.11
  -2  -6   0  229.31   13.41
  -2  -6   0  228.58   10.14
   2   6   0  235.43   10.42
   2   6   0  235.16   11.51
  -3  -6   0   74.34    6.29
  -3  -6   0   71.87    3.54
  -3  -6   0   73.28    3.55
   3   6   0   73.74    3.83
   3   6   0   75.89    4.85
  -4  -6   0   26.04    1.56
  -4  -6   0   20.95    3.33
  -4  -6   0   25.98    2.95
  -4  -6   0   25.18    3.54
  -4  -6   0   28.22    1.56
   4   6   0   30.71    1.89
   4   6   0   27.28    2.62
  -5  -6   0   90.51    8.01
  -5  -6   0   96.36    7.14
  -5  -6   0   99.40    4.66
  -5  -6   0   98.91    7.98
  -5  -6   0  102.71    4.78
   5   6   0  105.43    5.13
   5   6   0  104.44    6.41
  -6  -6   0   65.82    6.44
  -6  -6   0   66.72    3.24
  -6  -6   0   68.66    3.42
  -6  -6   0   57.38    6.48
  -6  -6   0   66.61    5.95
   6   6   0   72.41    5.12
  -7  -6   0   31.75    1.99
  -7  -6   0   29.06    4.77
  -7  -6   0   31.83    1.72
  -7  -6   0   31.71    4.48
   7   6   0   35.65    3.52
  -8  -6   0    6.55    0.97
  -8  -6   0    4.98    2.67
  -8  -6   0    8.07    2.83
  -8  -6   0    7.20    0.75
   8   6   0    7.51    1.94
  -9  -6   0   67.75    3.50
  -9  -6   0   76.54    3.99
  -9  -6   0   71.89    7.60
 -10  -6   0   18.14    1.27
 -10  -6   0   15.73    1.75
 -11  -6   0    2.05    0.56
 -11  -6   0    4.81    0.97
   7  -7   0   -0.14    0.46
   7  -7   0   -0.09    0.23
  -7   7   0    0.12    0.45
   6  -7   0   57.96    3.38
   6  -7   0   64.07    3.60
  -6   7   0   64.44    3.61
   5  -7   0   72.86    3.80
   5  -7   0   68.99    3.63
  -5   7   0   64.69    3.70
   4  -7   0    3.97    0.64
   4  -7   0    3.18    0.64
  -4   7   0    3.78    0.70
   3  -7   0  140.53    6.72
   3  -7   0  146.10    6.64
   3  -7   0  144.10    6.61
  -3   7   0  139.52    6.72
  -3   7   0  147.77    7.32
   2  -7   0  129.43    6.17
   2  -7   0  134.07    6.23
   2  -7   0  134.28    6.11
  -2   7   0  135.65    6.84
   1  -7   0    1.49    0.38
   1  -7   0    0.30    0.17
   1  -7   0    0.49    0.25
  -1   7   0    0.54    0.48
   0  -7   0   47.38    2.37
   0  -7   0   47.65    2.48
   0  -7   0   45.74    2.49
   0   7   0   46.00    2.73
   0   7   0   45.34    3.45
  -1  -7   0  183.74    8.04
  -1  -7   0  177.19    8.15
  -1  -7   0  183.48    8.20
   1   7   0  182.89    9.59
   1   7   0  179.74    8.49
  -2  -7   0  250.72   11.18
  -2  -7   0  256.08   15.03
  -2  -7   0  250.15   11.16
   2   7   0  255.68   11.53
   2   7   0  252.48   12.76
  -3  -7   0    0.26    0.60
  -3  -7   0    0.59    0.27
  -3  -7   0    0.25    0.24
   3   7   0    0.38    0.27
   3   7   0    0.13    0.40
  -4  -7   0  162.61    7.52
  -4  -7   0  162.23    7.55
  -4  -7   0  160.53   11.35
   4   7   0  170.57    7.97
   4   7   0  176.14    9.49
  -5  -7   0  112.93    9.05
  -5  -7   0  115.48    5.31
  -5  -7   0   87.32    8.47
  -5  -7   0  118.97    5.24
  -5  -7   0   92.63    7.31
   5   7   0  125.88    7.37
   5   7   0  120.14    5.75
  -6  -7   0   -0.13    0.65
  -6  -7   0    0.41    0.79
  -6  -7   0    0.26    0.22
  -6  -7   0    0.17    0.95
  -6  -7   0   -0.10    0.20
   6   7   0    0.57    0.65
  -7  -7   0   61.90    6.73
  -7  -7   0   65.51    3.34
  -7  -7   0   46.31    6.49
   7   7   0   66.13    5.31
  -8  -7   0   51.56    2.89
  -8  -7   0   40.42    6.39
  -8  -7   0   45.29    5.94
   8   7   0   54.53    4.95
  -9  -7   0   11.41    3.74
  -9  -7   0    8.04    1.15
 -10  -7   0    2.34    2.13
 -10  -7   0    1.44    0.58
   6  -8   0   16.87    1.85
   6  -8   0   16.67    1.38
  -6   8   0   17.77    1.63
   5  -8   0    0.15    0.31
   5  -8   0    0.23    0.27
  -5   8   0    0.20    0.33
   4  -8   0   49.18    2.64
   4  -8   0   45.86    2.77
  -4   8   0   46.32    2.79
   3  -8   0  124.92    6.01
   3  -8   0  136.20    6.15
   3  -8   0  133.95    6.25
  -3   8   0  121.86    6.19
   2  -8   0    0.17    0.19
   2  -8   0   -0.01    0.20
   2  -8   0    0.41    0.30
  -2   8   0    0.63    0.49
   1  -8   0   74.98    3.75
   1  -8   0   75.94    3.59
   1  -8   0   73.06    3.74
  -1   8   0   68.17    4.83
   0  -8   0   39.34    2.24
   0  -8   0   37.43    2.07
   0  -8   0   39.54    2.23
   0   8   0   39.06    3.32
  -1  -8   0    3.64    0.61
  -1  -8   0    2.59    0.50
   1   8   0    2.71    1.04
   1   8   0    3.21    0.73
  -2  -8   0   21.66    1.48
  -2  -8   0   22.33    1.48
   2   8   0   24.53    1.82
   2   8   0   22.12    2.53
  -3  -8   0   17.66    1.31
  -3  -8   0   18.76    1.33
  -3  -8   0   22.09    3.64
   3   8   0   18.65    1.60
   3   8   0   20.82    2.49
  -4  -8   0   86.87    4.17
  -4  -8   0   81.59    7.73
  -4  -8   0   81.56    4.16
   4   8   0   84.84    4.59
  -5  -8   0    0.96    0.38
  -5  -8   0    1.30    0.37
  -5  -8   0    2.01    1.60
   5   8   0    1.46    0.90
   5   8   0    1.28    0.54
  -6  -8   0   24.32    4.20
  -6  -8   0   16.35    2.84
  -6  -8   0   24.50    1.56
  -6  -8   0   26.16    1.68
   6   8   0   28.46    3.27
  -7  -8   0   66.66    7.45
  -7  -8   0   73.47    3.80
  -8  -8   0    1.00    0.44
  -8  -8   0    1.83    1.80
  -9  -8   0   83.92    4.46
  -9  -8   0   77.74    8.67
 -10  -8   0   10.60    1.43
 -10  -8   0   10.99    4.08
   5  -9   0   49.62    3.00
   5  -9   0   43.01    2.58
  -5   9   0   47.07    2.95
   4  -9   0    1.50    0.55
   4  -9   0    2.30    0.52
  -4   9   0    1.35    0.58
   3  -9   0    3.50    0.59
   3  -9   0    2.89    0.67
   3  -9   0    2.75    0.60
  -3   9   0    2.23    0.58
   2  -9   0   80.66    4.06
   2  -9   0   75.65    4.08
   2  -9   0   78.14    3.85
   1  -9   0   70.69    3.64
   1  -9   0   67.29    3.63
   1  -9   0   68.21    3.41
   0  -9   0   15.86    1.25
   0  -9   0   14.50    1.21
   0  -9   0   14.77    1.07
   0   9   0   15.23    2.54
  -1  -9   0   35.91    2.17
  -1  -9   0   37.64    2.18
   1   9   0   35.47    3.44
   1   9   0   33.83    2.47
  -2  -9   0  169.63    7.91
  -2  -9   0  164.27    7.88
   2   9   0  173.28    8.42
   2   9   0  177.34   10.03
  -3  -9   0    3.22    0.63
  -3  -9   0    3.69    0.68
   3   9   0    4.01    1.44
   3   9   0    3.60    0.84
  -4  -9   0   24.90    1.70
  -4  -9   0   26.09    1.70
   4   9   0   21.77    3.02
   4   9   0   26.50    2.09
  -5  -9   0   90.00    4.37
  -5  -9   0   84.83    4.39
  -5  -9   0   77.34    8.15
   5   9   0   90.72    4.95
  -6  -9   0   17.73    4.38
  -6  -9   0   18.78    1.43
  -6  -9   0   17.60    1.36
  -7  -9   0    1.18    1.42
  -7  -9   0    0.36    0.30
  -7  -9   0    0.55    0.37
  -8  -9   0    1.33    1.54
  -9  -9   0   22.56    1.83
   4 -10   0   17.40    1.31
   4 -10   0   18.98    1.64
  -4  10   0   18.21    1.63
   3 -10   0   22.55    1.76
   3 -10   0   20.31    1.42
   2 -10   0   53.87    3.19
   2 -10   0   55.36    3.15
   2 -10   0   54.29    2.88
  -2  10   0   57.51    3.24
   1 -10   0    1.19    0.47
   1 -10   0    1.26    0.36
   1 -10   0    1.24    0.45
   0 -10   0   55.17    3.15
   0 -10   0   57.42    3.18
  -1 -10   0   43.40    2.62
  -1 -10   0   45.82    2.63
  -2 -10   0   23.91    1.66
  -2 -10   0   21.70    1.61
  -3 -10   0   25.85    1.77
  -3 -10   0   25.24    1.77
  -4 -10   0   65.15    3.44
  -4 -10   0   59.52    3.36
  -5 -10   0   11.60    1.31
  -5 -10   0   10.03    1.19
  -6 -10   0   12.96    1.17
  -6 -10   0   10.80    1.27
  -7 -10   0   24.15    1.85
  -7 -10   0   25.71    1.78
  -8 -10   0    8.38    1.19
  -9 -10   0    8.83    1.34
   2 -11   0    2.00    0.63
   2 -11   0    1.99    0.66
   2 -11   0    2.35    0.52
  -2  11   0    2.95    0.78
   1 -11   0   60.46    3.45
   1 -11   0   58.77    3.41
   0 -11   0   54.22    3.14
   0 -11   0   51.32    3.08
  -1 -11   0    1.39    0.48
  -1 -11   0    1.26    0.48
  -2 -11   0   35.99    2.34
  -2 -11   0   36.09    2.32
  -3 -11   0   31.42    2.11
  -3 -11   0   29.85    2.07
  -4 -11   0   16.74    1.41
  -4 -11   0   14.36    1.32
  -5 -11   0    5.60    0.96
  -5 -11   0    7.30    1.04
  -6 -11   0   37.94    2.53
  -6 -11   0   40.61    2.52
  -7 -11   0   24.31    1.83
  -7 -11   0   25.14    1.92
   0 -12   0    1.18    0.55
   0 -12   0    1.01    0.51
  -1 -12   0   45.55    2.83
  -1 -12   0   43.30    2.80
  -2 -12   0   87.67    4.74
  -2 -12   0   91.03    4.79
  -3 -12   0    1.84    0.63
  -3 -12   0    2.01    0.62
  -4 -12   0   40.79    2.69
  -4 -12   0   43.38    2.72
  -5 -12   0   30.17    2.17
  -5 -12   0   30.75    2.21
  -5 -12   1    0.47    0.41
  -5 -12   1    0.83    0.46
  -4 -12   1    2.37    0.67
  -4 -12   1    2.50    0.65
  -3 -12   1   19.17    1.61
  -3 -12   1   18.85    1.62
  -2 -12   1   41.08    2.65
  -2 -12   1   40.11    2.64
  -1 -12   1    3.93    0.85
  -1 -12   1    3.73    0.87
  -7 -11   1   36.13    2.39
  -7 -11   1   36.78    2.48
  -6 -11   1    0.06    0.31
  -6 -11   1    0.05    0.31
  -5 -11   1   24.80    1.88
  -5 -11   1   28.05    1.96
  -4 -11   1   56.80    3.23
  -4 -11   1   54.14    3.20
  -3 -11   1    3.98    0.78
  -3 -11   1    4.03    0.77
  -2 -11   1    8.53    1.14
  -2 -11   1    7.98    1.13
  -1 -11   1   19.51    1.61
  -1 -11   1   20.44    1.63
   0 -11   1   34.81    2.36
   0 -11   1   37.24    2.40
   1 -11   1    0.14    0.33
   1 -11   1    0.17    0.37
   1 -11   1    0.05    0.22
  -2  11  -1   49.96    3.07
   2 -11   1   47.12    2.74
   2 -11   1   51.39    3.09
   2 -11   1   48.25    2.99
  -8 -10   1    0.34    0.34
  -8 -10   1    0.54    1.41
  -7 -10   1    0.94    0.42
  -7 -10   1    0.80    1.44
  -7 -10   1    0.38    0.33
  -6 -10   1   49.28    2.82
  -6 -10   1   48.84    2.86
  -6 -10   1   43.36    6.35
  -5 -10   1   41.92    2.51
  -5 -10   1   36.90    5.74
  -5 -10   1   42.55    2.54
  -4 -10   1    5.09    0.83
  -4 -10   1    4.70    0.81
  -3 -10   1   47.76    2.80
  -3 -10   1   49.44    2.85
  -2 -10   1  131.33    6.17
  -2 -10   1  122.79    6.17
  -1 -10   1    4.91    0.83
  -1 -10   1    5.14    0.83
   0 -10   1   54.15    2.93
   0 -10   1   56.24    3.12
   0 -10   1   52.73    3.09
   1 -10   1   39.63    2.48
   1 -10   1   40.20    2.31
   1 -10   1   39.73    2.48
  -2  10  -1   37.19    2.36
   2 -10   1   35.96    2.30
   2 -10   1   34.20    2.11
   2 -10   1   33.20    2.29
  -3  10  -1    2.04    0.66
   3 -10   1    4.27    0.80
   3 -10   1    2.21    0.54
   3 -10   1    2.72    0.73
  -4  10  -1   34.85    2.42
   4 -10   1   35.47    2.42
   4 -10   1   33.39    2.15
  -9  -9   1    6.00    1.03
  -9  -9   1    5.16    2.81
  -8  -9   1   28.89    5.18
  -8  -9   1   29.85    2.10
  -7  -9   1   33.92    5.50
  -7  -9   1   41.41    2.47
  -6  -9   1    0.13    0.28
  -6  -9   1    0.11    0.25
  -6  -9   1   -0.15    0.78
   5   9  -1    6.30    1.73
  -5  -9   1    5.68    0.83
  -5  -9   1    6.41    0.91
  -5  -9   1    5.19    2.69
   4   9  -1   28.78    2.30
  -4  -9   1   29.82    1.88
  -4  -9   1   27.14    4.48
  -4  -9   1   27.63    1.84
   3   9  -1   35.87    3.75
   3   9  -1   36.28    2.63
  -3  -9   1   36.00    5.06
  -3  -9   1   33.53    2.12
  -3  -9   1   35.11    2.17
   2   9  -1   15.68    1.61
   2   9  -1   17.93    3.01
  -2  -9   1   17.77    1.35
  -2  -9   1   17.14    1.32
   1   9  -1   22.53    2.78
  -1  -9   1   22.18    1.56
  -1  -9   1   24.03    1.51
  -1  -9   1   22.70    1.61
   0   9  -1  213.14   11.57
   0  -9   1  203.79    9.33
   0  -9   1  210.37    9.53
   0  -9   1  203.35    9.47
   1  -9   1    1.86    0.52
   1  -9   1    1.16    0.43
   1  -9   1    1.29    0.38
   2  -9   1   13.42    1.09
   2  -9   1   12.83    1.19
   2  -9   1   12.75    1.16
  -3   9  -1   45.63    2.83
   3  -9   1   46.72    2.69
   3  -9   1   51.44    2.91
   3  -9   1   49.48    2.81
  -4   9  -1   18.12    1.53
   4  -9   1   16.86    1.36
   4  -9   1   16.73    1.48
  -5   9  -1   23.38    1.83
   5  -9   1   20.73    1.78
   5  -9   1   18.53    1.54
 -10  -8   1    3.81    0.89
 -10  -8   1    3.59    2.59
  -9  -8   1    5.37    0.97
  -9  -8   1    5.64    3.00
  -8  -8   1   46.30    6.38
  -8  -8   1   49.76    2.92
  -7  -8   1   31.30    1.98
  -7  -8   1   24.99    4.44
   6   8  -1   59.02    7.24
  -6  -8   1   54.59    6.49
  -6  -8   1   57.93    3.09
  -6  -8   1   61.86    3.22
   5   8  -1  113.05    5.96
   5   8  -1  117.46    7.81
  -5  -8   1  106.76    9.37
  -5  -8   1  112.70    5.42
  -5  -8   1  112.37    5.39
   4   8  -1   45.49    4.17
   4   8  -1   42.39    2.86
  -4  -8   1   45.54    2.48
  -4  -8   1   40.51    5.20
  -4  -8   1   43.77    2.45
   3   8  -1   56.09    3.47
   3   8  -1   64.54    4.90
  -3  -8   1   56.56    3.04
  -3  -8   1   58.87    3.09
  -3  -8   1   54.46    6.02
   2   8  -1  170.04    9.56
   2   8  -1  167.60    8.08
  -2  -8   1  159.24   11.42
  -2  -8   1  166.15    7.54
  -2  -8   1  158.43    7.57
   1   8  -1   22.46    1.81
   1   8  -1   23.00    2.59
  -1  -8   1   20.24    1.47
  -1  -8   1   22.84    1.42
  -1  -8   1   21.73    1.46
   0   8  -1    1.20    0.73
   0  -8   1    1.10    0.38
   0  -8   1    1.58    0.38
   0  -8   1    1.19    0.36
   1  -8   1  131.29    6.13
   1  -8   1  127.32    6.09
   1  -8   1  126.99    5.99
  -2   8  -1  103.78    6.25
   2  -8   1  103.23    4.98
   2  -8   1  103.20    5.07
   2  -8   1  102.73    5.05
  -3   8  -1   27.19    1.82
   3  -8   1   28.63    1.79
   3  -8   1   24.08    1.69
   3  -8   1   25.33    1.78
  -4   8  -1    0.83    0.41
   4  -8   1    1.06    0.38
   4  -8   1    1.59    0.49
  -5   8  -1   62.89    3.53
   5  -8   1   62.43    3.53
   5  -8   1   58.34    3.38
  -6   8  -1   32.74    2.31
   6  -8   1   31.29    2.16
   6  -8   1   30.32    2.26
 -10  -7   1   33.61    2.36
 -10  -7   1   31.11    5.45
  -9  -7   1   11.87    1.44
  -9  -7   1   10.83    3.50
  -8  -7   1    1.82    1.72
  -8  -7   1    2.55    0.64
  -8  -7   1    2.76    1.87
   7   7  -1    0.08    0.62
  -7  -7   1    1.00    1.33
  -7  -7   1    0.24    0.84
  -7  -7   1    0.77    0.35
   6   7  -1  135.41    8.28
  -6  -7   1  123.80    5.75
  -6  -7   1  112.23    9.52
  -6  -7   1  123.13    5.62
  -6  -7   1  102.70    9.37
   5   7  -1   75.75    5.59
   5   7  -1   81.17    4.22
  -5  -7   1   71.17    6.91
  -5  -7   1   69.57    5.81
  -5  -7   1   64.18    6.60
  -5  -7   1   74.76    3.66
  -5  -7   1   74.54    3.72
   4   7  -1   23.89    1.83
   4   7  -1   23.68    2.71
  -4  -7   1   23.90    1.52
  -4  -7   1   20.53    2.60
  -4  -7   1   24.74    3.74
  -4  -7   1   26.18    1.55
   3   7  -1  191.69    9.19
   3   7  -1  204.07   10.74
  -3  -7   1  191.69    8.79
  -3  -7   1  190.62   12.52
  -3  -7   1  198.09    8.76
   2   7  -1  128.09    7.49
   2   7  -1  121.55    6.24
  -2  -7   1  124.57    9.15
  -2  -7   1  124.41    5.83
  -2  -7   1  132.32    5.94
   1   7  -1   15.95    2.00
   1   7  -1   17.30    1.45
  -1  -7   1   17.41    1.14
  -1  -7   1   16.50    1.21
  -1  -7   1   16.86    1.17
  -1  -7   1   16.74    2.81
   0   7  -1   67.37    4.66
   0  -7   1   72.76    3.45
   0  -7   1   70.37    3.55
   0  -7   1   68.45    3.46
  -1   7  -1   33.94    2.91
   1  -7   1   33.87    2.02
   1  -7   1   33.51    1.97
   1  -7   1   36.11    1.97
  -2   7  -1    0.75    0.50
   2  -7   1    1.29    0.37
   2  -7   1    1.61    0.40
   2  -7   1    0.81    0.31
  -3   7  -1   28.08    1.88
  -3   7  -1   28.66    2.30
   3  -7   1   31.90    1.88
   3  -7   1   31.07    1.90
   3  -7   1   31.81    1.93
  -4   7  -1   69.96    3.75
   4  -7   1   73.60    3.77
   4  -7   1   71.21    3.74
  -5   7  -1   23.32    1.74
   5  -7   1   24.63    1.76
   5  -7   1   23.12    1.75
  -6   7  -1    5.65    1.01
   6  -7   1    4.80    0.87
   6  -7   1    5.83    1.03
  -7   7  -1   49.28    3.10
   7  -7   1   44.90    2.93
   7  -7   1   45.57    3.03
 -11  -6   1    8.39    1.30
 -10  -6   1   19.14    1.66
 -10  -6   1   17.83    4.69
  -9  -6   1    0.80    1.30
  -9  -6   1    1.59    0.54
   8   6  -1   82.41    6.53
  -8  -6   1   83.15    4.32
  -8  -6   1   83.66    8.72
  -8  -6   1   84.90    8.10
   7   6  -1   65.59    5.28
  -7  -6   1   61.53    6.45
  -7  -6   1   62.14    6.83
  -7  -6   1   57.48    3.22
   6   6  -1   11.60    2.22
  -6  -6   1    9.84    2.89
  -6  -6   1   11.46    0.96
  -6  -6   1   10.39    2.89
  -6  -6   1   11.14    0.85
  -6  -6   1   10.27    2.44
   5   6  -1   53.47    4.26
   5   6  -1   52.79    3.04
  -5  -6   1   46.39    5.13
  -5  -6   1   49.55    2.65
  -5  -6   1   46.60    5.09
  -5  -6   1   49.92    4.46
  -5  -6   1   52.12    2.60
   4   6  -1   53.28    3.08
   4   6  -1   57.01    4.25
  -4  -6   1   49.96    4.97
  -4  -6   1   52.61    2.75
  -4  -6   1   56.32    4.44
  -4  -6   1   53.95    5.35
  -4  -6   1   53.92    2.75
   3   6  -1    8.24    1.61
   3   6  -1    7.47    0.86
  -3  -6   1    6.52    1.90
  -3  -6   1    9.15    1.81
  -3  -6   1    6.72    2.10
  -3  -6   1    7.71    0.71
  -3  -6   1    7.90    0.69
   2   6  -1    3.92    0.68
   2   6  -1    4.17    1.08
  -2  -6   1    2.99    1.09
  -2  -6   1    5.94    0.72
  -2  -6   1    4.95    0.61
  -2  -6   1    5.33    1.80
   1   6  -1  146.66    7.18
   1   6  -1  156.41    8.20
  -1  -6   1  154.18    6.93
  -1  -6   1  151.46    6.80
  -1  -6   1  153.83    9.74
  -1  -6   1  149.15    6.83
   0   6  -1  429.68   19.72
   0  -6   1  418.50   21.36
   0  -6   1  426.10   18.40
   0  -6   1  432.15   18.39
   0  -6   1  428.37   18.49
  -1   6  -1    4.62    1.07
   1  -6   1    7.65    0.67
   1  -6   1    6.35    0.78
   1  -6   1    5.65    0.66
  -2   6  -1  223.14   10.74
  -2   6  -1  224.99   11.13
   2  -6   1  224.90   10.17
   2  -6   1  239.47   10.22
   2  -6   1  231.68   10.20
  -3   6  -1  162.12    7.50
  -3   6  -1  159.85    8.01
   3  -6   1  174.24    7.48
   3  -6   1  166.24    7.50
   3  -6   1  155.15    7.50
  -4   6  -1    5.35    0.79
  -4   6  -1    3.51    0.80
   4  -6   1    4.98    0.75
   4  -6   1    4.39    0.74
  -5   6  -1   91.29    4.63
   5  -6   1   88.96    4.62
   5  -6   1   95.22    4.74
  -6   6  -1   35.54    2.39
   6  -6   1   38.76    2.46
   6  -6   1   39.42    2.50
  -7   6  -1   23.40    1.91
   7  -6   1   24.72    1.93
   7  -6   1   21.44    1.86
  -8   6  -1    1.01    0.66
   8  -6   1   -0.27    0.49
   8  -6   1    0.58    0.45
 -11  -5   1    0.97    0.58
 -11  -5   1    0.71    0.42
 -10  -5   1    3.33    0.60
 -10  -5   1    4.03    0.89
  -9  -5   1   16.02    1.20
  -9  -5   1   18.56    1.52
  -9  -5   1   21.93    4.73
   8   5  -1   21.07    3.54
  -8  -5   1   18.25    4.10
  -8  -5   1   15.60    4.05
  -8  -5   1   20.46    1.51
  -8  -5   1   20.79    1.28
   7   5  -1   10.84    2.25
  -7  -5   1    8.61    0.72
  -7  -5   1   12.81    2.96
  -7  -5   1    9.78    1.07
  -7  -5   1    9.55    2.71
  -7  -5   1   10.74    3.12
   6   5  -1   51.83    4.20
  -6  -5   1   48.44    2.64
  -6  -5   1   46.18    5.05
  -6  -5   1   50.25    2.42
  -6  -5   1   52.11    4.56
  -6  -5   1   51.57    5.41
   5   5  -1  229.93   10.54
   5   5  -1  238.62   12.07
   5   5  -1  230.47   10.41
  -5  -5   1  235.45   12.40
  -5  -5   1  233.60   13.72
  -5  -5   1  231.16   10.08
  -5  -5   1  224.02   13.45
  -5  -5   1  227.33   10.18
  -5  -5   1  223.04    9.91
   4   5  -1   44.07    3.44
   4   5  -1   46.03    2.54
   4   5  -1   43.91    2.39
  -4  -5   1   44.07    3.59
  -4  -5   1   41.69    1.98
  -4  -5   1   40.62    2.21
  -4  -5   1   42.41    2.20
  -4  -5   1   41.71    4.34
  -4  -5   1   42.65    4.16
  -4  -5   1   40.87    2.47
   3   5  -1   76.42    4.83
   3   5  -1   75.93    3.74
   3   5  -1   71.63    3.83
  -3  -5   1   75.36    3.29
  -3  -5   1   73.57    3.59
  -3  -5   1   77.75    4.89
  -3  -5   1   78.17    5.58
  -3  -5   1   74.23    3.57
  -3  -5   1   77.84    6.03
   2   5  -1  262.72   12.34
   2   5  -1  248.69   11.27
   2   5  -1  257.42   11.19
  -2  -5   1  247.78   10.96
  -2  -5   1  251.65   11.03
  -2  -5   1  218.47   12.62
  -2  -5   1  268.75   13.96
  -2  -5   1  261.22   12.15
   1   5  -1   29.92    1.76
   1   5  -1   28.84    2.37
   1   5  -1   28.14    1.80
  -1  -5   1   29.69    3.20
  -1  -5   1   29.77    1.57
  -1  -5   1   28.26    1.57
  -1  -5   1   29.30    1.65
   0   5  -1   18.35    1.30
   0   5  -1   11.07    2.63
   0   5  -1   17.44    1.68
   0  -5   1   16.88    1.12
   0  -5   1   17.17    2.28
   0  -5   1   17.05    1.06
   0  -5   1   17.62    1.06
  -1   5  -1   87.43    4.96
   1  -5   1   91.31    4.20
   1  -5   1   93.58    4.23
   1  -5   1   92.84    4.26
   1  -5   1   81.68    5.14
  -2   5  -1  223.41    9.45
  -2   5  -1  220.71   10.45
  -2   5  -1  216.92   10.18
   2  -5   1  214.66    9.68
   2  -5   1  225.52    9.72
   2  -5   1  215.51    9.73
  -3   5  -1   11.39    0.91
  -3   5  -1   11.09    1.34
  -3   5  -1   11.60    0.70
   3  -5   1   10.87    0.86
   3  -5   1   11.14    0.94
   3  -5   1   11.90    0.92
  -4   5  -1   79.65    3.55
  -4   5  -1   77.28    4.18
  -4   5  -1   73.01    3.81
   4  -5   1   81.29    3.73
   4  -5   1   75.63    3.83
   4  -5   1   73.76    3.91
  -5   5  -1  160.10    7.35
  -5   5  -1  156.16    7.65
  -5   5  -1  157.84    6.98
   5  -5   1  155.31    7.44
   5  -5   1  155.75    7.33
  -6   5  -1    1.44    0.53
  -6   5  -1    1.86    0.39
   6  -5   1    2.48    0.64
   6  -5   1    2.39    0.61
  -7   5  -1   33.43    1.99
  -7   5  -1   32.20    2.26
   7  -5   1   30.72    2.26
   7  -5   1   33.05    2.29
  -8   5  -1   28.84    2.25
   8  -5   1   28.95    2.27
   8  -5   1   28.50    2.23
  -9   5  -1    5.23    1.14
   9  -5   1    5.34    1.12
 -11  -4   1   19.83    1.78
 -11  -4   1   17.63    1.42
 -10  -4   1   73.47    4.21
 -10  -4   1   78.36    3.87
  -9  -4   1   15.79    1.45
  -9  -4   1   19.36    1.28
  -8  -4   1   39.31    2.49
  -8  -4   1   42.41    5.00
  -8  -4   1   44.66    2.29
  -8  -4   1   45.93    5.83
   7   4  -1  103.02    6.76
  -7  -4   1   98.39    4.97
  -7  -4   1  102.57    4.72
  -7  -4   1  107.13    7.40
  -7  -4   1   98.30    8.40
  -7  -4   1  105.73    8.12
   6   4  -1   27.58    2.75
  -6  -4   1   25.22    1.58
  -6  -4   1   25.52    3.52
  -6  -4   1   25.27    2.89
  -6  -4   1   25.29    1.40
  -6  -4   1   25.33    3.42
  -6  -4   1   26.09    1.76
   5   4  -1   11.73    1.01
   5   4  -1   10.65    1.87
   5   4  -1   11.14    1.01
  -5  -4   1   11.10    1.69
  -5  -4   1    9.33    2.33
  -5  -4   1    9.87    0.82
  -5  -4   1   11.55    2.47
  -5  -4   1   10.45    0.96
  -5  -4   1   10.39    0.70
  -5  -4   1   11.73    0.75
   4   4  -1   96.27    4.53
   4   4  -1   93.29    5.62
   4   4  -1   95.44    4.64
  -4  -4   1   94.75    4.18
  -4  -4   1   93.34    4.61
  -4  -4   1   92.10    4.31
  -4  -4   1  103.08    6.65
  -4  -4   1   94.02    6.76
  -4  -4   1   93.81    4.37
  -4  -4   1   93.34    5.74
   3   4  -1  353.68   16.20
   3   4  -1  343.68   15.03
   3   4  -1  339.62   15.13
  -3  -4   1  348.62   14.66
  -3  -4   1  340.18   14.87
  -3  -4   1  347.86   14.89
  -3  -4   1  342.38   17.53
  -3  -4   1  357.26   16.97
  -3  -4   1  331.99   15.12
  -3  -4   1  356.25   16.25
   2   4  -1   19.74    1.34
   2   4  -1   20.20    1.29
   2   4  -1   20.47    1.87
  -2  -4   1   21.13    1.22
  -2  -4   1   19.31    2.41
  -2  -4   1   20.47    1.82
  -2  -4   1   24.69    1.21
   1   4  -1   69.96    3.52
   1   4  -1   67.86    4.03
   1   4  -1   68.27    3.44
  -1  -4   1   65.18    3.19
  -1  -4   1   67.34    3.28
  -1  -4   1   73.50    5.03
  -1  -4   1   72.56    3.76
  -1  -4   1   68.62    3.21
   0   4  -1  356.40   16.12
   0   4  -1  364.92   16.70
   0  -4   1  392.36   17.95
   0  -4   1  377.67   15.91
   0  -4   1  354.09   15.86
   0  -4   1  379.44   15.97
  -1   4  -1  185.99    7.94
  -1   4  -1  183.20    8.84
   1  -4   1  193.95    8.26
   1  -4   1  184.89    8.18
   1  -4   1  188.76    8.23
   1  -4   1  183.31    8.83
  -2   4  -1   52.24    3.27
  -2   4  -1   51.18    2.57
  -2   4  -1   52.88    2.37
  -2   4  -1   51.85    3.02
  -2   4  -1   51.28    2.92
  -2   4  -1   54.64    3.05
   2  -4   1   53.78    2.58
   2  -4   1   52.91    2.60
   2  -4   1   53.95    2.67
   2  -4   1   56.36    3.07
   2  -4   1   46.02    2.93
  -3   4  -1  117.20    5.71
  -3   4  -1  105.82    5.75
  -3   4  -1  122.58    5.14
  -3   4  -1  118.10    5.37
  -3   4  -1  117.74    6.72
  -3   4  -1  111.87    5.68
   3  -4   1  122.19    5.32
   3  -4   1  119.55    5.37
   3  -4   1  113.74    5.46
  -4   4  -1   82.40    4.08
  -4   4  -1  102.25    7.69
  -4   4  -1   80.88    4.34
  -4   4  -1   80.47    4.43
  -4   4  -1   86.33    3.85
   4  -4   1   85.15    4.22
   4  -4   1   80.62    4.07
  -5   4  -1   94.22    4.65
  -5   4  -1   87.95    4.07
  -5   4  -1   86.19    4.35
   5  -4   1   88.78    4.48
   5  -4   1   85.20    4.34
  -6   4  -1   62.90    3.59
  -6   4  -1   61.13    3.38
  -6   4  -1   64.71    3.08
   6  -4   1   60.97    3.38
  -7   4  -1  205.49    9.58
  -7   4  -1  208.27    9.12
   7  -4   1  199.24    9.55
  -8   4  -1   26.94    1.69
  -8   4  -1   27.17    2.10
   8  -4   1   27.30    2.12
  -9   4  -1   15.31    1.21
  -9   4  -1   14.56    1.81
 -11  -3   1   30.41    2.06
 -11  -3   1   34.77    2.50
 -10  -3   1   19.85    1.42
 -10  -3   1   18.58    1.70
  -9  -3   1   25.54    1.62
  -9  -3   1   25.82    1.90
  -8  -3   1  111.50    8.47
  -8  -3   1  111.84    5.54
  -8  -3   1  108.93    9.44
  -8  -3   1  115.13    8.17
  -8  -3   1  113.12    5.23
   7   3  -1   33.30    3.20
  -7  -3   1   34.29    4.01
  -7  -3   1   37.49    3.72
  -7  -3   1   35.54    2.21
  -7  -3   1   34.68    4.48
  -7  -3   1   34.76    1.89
  -7  -3   1   37.02    2.15
   6   3  -1  171.31    9.34
  -6  -3   1  174.03    7.60
  -6  -3   1  176.98    7.97
  -6  -3   1  171.73   10.59
  -6  -3   1  169.97   10.94
  -6  -3   1  174.42    9.72
  -6  -3   1  168.45    7.82
   5   3  -1  182.77    9.14
   5   3  -1  176.98    9.23
   5   3  -1  171.83    8.05
  -5  -3   1  170.83    7.67
  -5  -3   1  167.26    7.62
  -5  -3   1  183.90    9.49
  -5  -3   1  188.91   10.67
  -5  -3   1  179.07   10.47
  -5  -3   1  172.69    7.86
  -5  -3   1  173.74    8.00
   4   3  -1   72.72    4.44
   4   3  -1   71.72    3.49
   4   3  -1   74.73    4.48
   4   3  -1   69.78    3.56
  -4  -3   1   70.78    3.38
  -4  -3   1   70.03    3.22
  -4  -3   1   71.34    3.53
  -4  -3   1   72.98    3.28
  -4  -3   1   72.03    5.17
  -4  -3   1   71.33    4.49
  -4  -3   1   73.93    5.39
   3   3  -1    6.99    0.68
   3   3  -1    7.93    1.10
   3   3  -1    7.32    0.64
  -3  -3   1    6.93    0.55
  -3  -3   1    8.62    1.13
  -3  -3   1    6.98    0.55
  -3  -3   1    8.41    1.34
  -3  -3   1    7.36    1.77
  -3  -3   1    7.63    0.47
  -3  -3   1    7.01    0.67
   2   3  -1  286.06   12.54
   2   3  -1  279.90   12.59
   2   3  -1  277.31   13.29
  -2  -3   1  285.36   12.45
  -2  -3   1  283.74   12.40
  -2  -3   1  307.66   13.66
  -2  -3   1  289.89   12.28
  -2  -3   1  300.21   13.30
  -2  -3   1  296.41   14.42
   1   3  -1  376.57   17.02
   1   3  -1  427.43   17.78
   1   3  -1  393.77   17.24
   1   3  -1  381.78   17.60
  -1  -3   1  373.19   16.82
  -1  -3   1  407.99   18.62
  -1  -3   1  412.90   17.57
  -1  -3   1  388.80   16.91
  -1  -3   1  397.84   17.44
   0   3  -1   36.54    2.17
   0   3  -1   35.27    2.23
   0   3  -1   33.24    1.88
   0  -3   1   38.28    2.83
   0  -3   1   33.45    1.70
   0  -3   1   36.04    1.80
  -1   3  -1  214.36    8.94
  -1   3  -1  213.22    9.19
  -1   3  -1  217.41    9.55
  -1   3  -1  210.01    9.61
   1  -3   1  215.37    9.19
   1  -3   1  220.78    9.19
   1  -3   1  201.81    9.64
   1  -3   1  210.02    9.11
   1  -3   1  176.32    9.14
   1  -3   1  229.49   10.32
  -2   3  -1  440.93   18.92
  -2   3  -1  373.43   18.45
  -2   3  -1  406.90   18.20
  -2   3  -1  401.83   18.17
  -2   3  -1  402.96   17.86
  -2   3  -1  441.01   17.71
   2  -3   1  411.63   17.86
   2  -3   1  435.40   17.90
   2  -3   1  425.62   17.99
   2  -3   1  435.12   18.31
  -3   3  -1  131.52    5.66
  -3   3  -1  129.88    6.23
  -3   3  -1  130.54    6.09
  -3   3  -1  111.47    6.39
  -3   3  -1  130.89    6.00
  -3   3  -1  118.87    6.85
  -3   3  -1  141.77    7.40
   3  -3   1  128.40    5.83
   3  -3   1  131.54    5.96
   3  -3   1  138.28    6.10
   3  -3   1  130.89    5.77
  -4   3  -1   94.93    4.62
  -4   3  -1   90.21    4.10
  -4   3  -1   85.67    4.29
  -4   3  -1   93.83    6.17
  -4   3  -1   89.88    4.50
   4  -3   1   83.54    4.27
   4  -3   1   97.89    4.16
  -5   3  -1  130.92    6.25
  -5   3  -1  136.94    6.45
  -5   3  -1  136.23    5.99
  -5   3  -1  137.46    8.82
  -5   3  -1  132.60    6.42
   5  -3   1  130.88    6.25
  -6   3  -1    9.86    1.15
  -6   3  -1    5.80    1.98
  -6   3  -1    7.84    1.06
  -6   3  -1    7.76    0.75
   6  -3   1    8.87    1.07
  -7   3  -1   14.93    1.06
  -7   3  -1   15.25    1.38
  -7   3  -1   15.28    1.66
   7  -3   1   14.79    1.35
  -8   3  -1    4.79    0.65
  -8   3  -1    3.17    0.76
  -9   3  -1   58.42    3.09
  -9   3  -1   57.40    3.54
 -10   3  -1    8.47    1.04
 -10   3  -1   13.50    1.71
 -11  -2   1   12.72    1.31
 -11  -2   1   17.98    1.96
 -10  -2   1   12.89    1.57
 -10  -2   1   10.11    1.08
  -9  -2   1   54.34    3.15
  -9  -2   1   51.66    2.80
  -8  -2   1   26.44    1.60
  -8  -2   1   25.19    4.11
  -8  -2   1   24.96    1.83
  -8  -2   1   29.47    3.89
  -7  -2   1    3.66    0.69
  -7  -2   1    3.41    0.50
  -7  -2   1    4.67    1.68
  -7  -2   1    5.19    2.04
  -7  -2   1    4.33    1.47
  -7  -2   1    4.81    0.79
   6   2  -1  225.54   12.39
  -6  -2   1  264.34   13.05
  -6  -2   1  252.45   11.27
  -6  -2   1  266.84   11.36
  -6  -2   1  258.69   14.55
  -6  -2   1  257.09   11.05
  -6  -2   1  254.53   13.83
   5   2  -1  206.12   10.83
   5   2  -1  226.08   10.60
   5   2  -1  219.94    9.88
  -5  -2   1  220.86    9.88
  -5  -2   1  219.60    9.57
  -5  -2   1  222.04   12.29
  -5  -2   1  223.05    9.83
  -5  -2   1  228.07   11.13
  -5  -2   1  223.40   12.05
  -5  -2   1  220.87    9.75
   4   2  -1   36.85    2.54
   4   2  -1   34.38    1.89
   4   2  -1   36.84    2.65
   4   2  -1   36.74    1.97
  -4  -2   1   35.14    1.94
  -4  -2   1   34.21    2.60
  -4  -2   1   35.37    1.91
  -4  -2   1   35.53    3.26
  -4  -2   1   35.85    1.73
  -4  -2   1   36.45    1.86
  -4  -2   1   36.25    3.25
   3   2  -1  584.85   25.49
   3   2  -1  621.20   26.28
   3   2  -1  583.87   25.43
   3   2  -1  599.81   26.29
  -3  -2   1  605.01   26.97
  -3  -2   1  599.30   27.32
  -3  -2   1  596.74   25.48
  -3  -2   1  615.38   25.25
  -3  -2   1  578.52   25.45
  -3  -2   1  586.62   25.35
  -3  -2   1  603.51   26.28
   2   2  -1  782.63   34.60
   2   2  -1  810.21   35.25
   2   2  -1  859.01   35.29
   2   2  -1  798.80   34.56
  -2  -2   1  779.49   34.58
  -2  -2   1  828.62   35.54
  -2  -2   1  797.99   34.60
  -2  -2   1  836.57   34.37
  -2  -2   1  856.89   36.24
   1   2  -1   38.65    2.13
   1   2  -1   37.60    2.25
   1   2  -1   37.76    2.23
   1   2  -1   35.72    1.84
   1   2  -1   34.42    1.81
  -1  -2   1   37.78    2.73
  -1  -2   1   32.58    2.16
  -1  -2   1   38.31    2.16
  -1  -2   1   35.51    1.77
   0   2  -1  218.99    9.71
   0   2  -1  205.57    9.41
   0   2  -1  210.73    9.72
   0  -2   1  210.24    9.33
   0  -2   1  233.19   10.30
   0  -2   1  221.72    9.53
   0  -2   1  216.15    9.41
   0  -2   1  221.53    9.48
   0  -2   1  211.36    9.66
  -1   2  -1  224.30   11.71
  -1   2  -1  260.33   11.57
  -1   2  -1  270.60   11.65
   1  -2   1  257.28   11.67
   1  -2   1  264.93   11.24
   1  -2   1  253.58   11.43
   1  -2   1  275.62   11.33
   1  -2   1  297.46   12.00
  -2   2  -1   55.07    3.27
  -2   2  -1   58.34    3.62
  -2   2  -1   55.61    3.13
  -2   2  -1   63.71    3.08
  -2   2  -1   62.83    3.36
  -2   2  -1   61.02    3.03
  -2   2  -1   64.86    2.78
  -2   2  -1   68.92    3.90
   2  -2   1   64.60    3.16
   2  -2   1   62.11    2.89
   2  -2   1   65.71    2.90
   2  -2   1   66.68    3.50
  -3   2  -1   57.49    2.83
  -3   2  -1   62.95    2.72
  -3   2  -1   52.54    3.20
  -3   2  -1   63.58    3.01
  -3   2  -1   59.27    3.08
  -3   2  -1   53.82    3.58
  -3   2  -1   62.76    4.19
   3  -2   1   59.21    2.84
   3  -2   1   60.07    2.98
   3  -2   1   62.71    2.76
  -4   2  -1  123.29    7.51
  -4   2  -1  120.44    5.67
  -4   2  -1  121.07    5.36
  -4   2  -1  115.33    5.53
  -4   2  -1  110.39    5.94
  -4   2  -1  121.13    5.72
  -4   2  -1  119.47    6.73
   4  -2   1  124.21    5.62
   4  -2   1  132.48    5.34
   4  -2   1  119.74    5.55
  -5   2  -1  128.04    5.69
  -5   2  -1  128.35    8.41
  -5   2  -1  122.97    5.92
  -5   2  -1  134.16    6.07
  -5   2  -1  126.49    6.03
   5  -2   1  123.16    5.93
  -6   2  -1    1.21    1.04
  -6   2  -1    1.20    0.33
  -6   2  -1    2.69    0.62
  -6   2  -1    2.23    0.57
   6  -2   1    2.07    0.54
  -7   2  -1  211.82    9.74
  -7   2  -1  212.23    9.36
  -7   2  -1  216.42    9.86
  -7   2  -1  202.23   13.66
  -8   2  -1   39.07    2.20
  -8   2  -1   40.71    2.57
  -8   2  -1   39.79    5.52
  -9   2  -1    2.98    0.87
  -9   2  -1    0.88    0.37
 -10   2  -1    2.86    0.84
 -10   2  -1    3.59    0.66
 -11  -1   1   20.29    2.13
 -11  -1   1   16.49    1.58
 -10  -1   1    3.61    0.67
 -10  -1   1    4.63    0.97
  -9  -1   1    1.66    0.64
  -9  -1   1    1.18    0.40
  -8  -1   1   59.43    6.46
  -8  -1   1   61.43    3.40
  -8  -1   1   63.63    3.15
  -7  -1   1   36.93    4.46
  -7  -1   1   38.96    2.33
  -7  -1   1   39.81    2.29
  -7  -1   1   36.40    2.02
  -6  -1   1   14.74    2.44
  -6  -1   1   13.68    1.10
  -6  -1   1   14.20    1.09
  -6  -1   1   14.08    0.92
  -6  -1   1   14.19    1.80
  -6  -1   1   14.71    2.11
   5   1  -1    2.86    0.48
  -5  -1   1    3.00    0.51
  -5  -1   1    2.85    0.50
  -5  -1   1    3.36    1.15
  -5  -1   1    2.91    1.10
  -5  -1   1    2.75    0.36
  -5  -1   1    3.85    1.00
  -5  -1   1    3.60    0.54
   4   1  -1  121.82    5.49
   4   1  -1  116.25    5.44
   4   1  -1  101.22    6.04
  -4  -1   1  123.75    5.30
  -4  -1   1  119.14    5.45
  -4  -1   1  127.55    6.28
  -4  -1   1  129.18    7.15
  -4  -1   1  125.97    7.24
  -4  -1   1  123.22    5.50
  -4  -1   1  117.60    5.44
   3   1  -1  132.39    6.39
   3   1  -1  135.73    6.03
   3   1  -1  129.85    5.98
   3   1  -1  128.50    6.62
  -3  -1   1  143.79    7.37
  -3  -1   1  133.58    5.96
  -3  -1   1  143.44    7.49
  -3  -1   1  137.23    6.60
  -3  -1   1  135.52    5.99
  -3  -1   1  137.35    5.86
   2   1  -1  193.18    8.55
   2   1  -1  198.63    9.01
   2   1  -1  197.58    8.45
   2   1  -1  201.10    8.60
   2   1  -1  186.32    9.09
  -2  -1   1  194.70    9.44
  -2  -1   1  199.74    8.59
  -2  -1   1  199.96    9.05
  -2  -1   1  199.47    8.57
  -2  -1   1  200.96    8.45
  -2  -1   1  198.49    8.52
  -2  -1   1  210.16    9.89
  -2  -1   1  197.08    9.01
   1   1  -1  434.72   17.96
   1   1  -1  420.90   18.39
   1   1  -1  357.85   18.32
   1   1  -1  422.92   17.98
   1   1  -1  431.09   18.35
  -1  -1   1  437.72   18.33
  -1  -1   1  457.76   19.04
  -1  -1   1  414.39   17.96
  -1  -1   1  441.97   18.43
  -1  -1   1  425.25   18.34
  -1  -1   1  412.34   17.96
   0   1  -1  197.93    8.79
   0   1  -1  207.15    9.10
   0   1  -1  206.31    9.06
   0   1  -1  203.38    8.96
   0  -1   1  204.07    8.80
   0  -1   1  199.00    9.00
   0  -1   1  209.33    9.04
  -1   1  -1   19.00    1.29
  -1   1  -1   19.01    1.19
  -1   1  -1   17.24    1.55
  -1   1  -1   20.37    1.13
   1  -1   1   20.71    1.15
   1  -1   1   19.81    1.26
   1  -1   1   20.63    1.23
   1  -1   1   20.08    1.39
  -2   1  -1  404.95   16.23
  -2   1  -1  345.80   16.55
  -2   1  -1  411.59   17.66
  -2   1  -1  370.32   17.19
  -2   1  -1  364.61   16.38
  -2   1  -1  378.54   16.52
  -2   1  -1  364.74   16.30
   2  -1   1  391.04   16.48
   2  -1   1  426.26   17.32
   2  -1   1  376.80   16.31
  -3   1  -1  378.02   17.00
  -3   1  -1  438.66   18.96
  -3   1  -1  416.59   16.88
  -3   1  -1  393.47   18.02
  -3   1  -1  397.98   17.14
  -3   1  -1  393.15   17.07
  -3   1  -1  365.85   17.23
   3  -1   1  390.66   17.01
   3  -1   1  385.28   17.30
   3  -1   1  410.50   17.10
  -4   1  -1  123.45    5.79
  -4   1  -1  132.32    7.83
  -4   1  -1  123.90    5.77
  -4   1  -1  130.67    6.97
  -4   1  -1  120.38    5.71
  -4   1  -1  126.79    5.54
  -4   1  -1  118.32    5.94
   4  -1   1  131.27    5.78
   4  -1   1  123.95    5.73
  -5   1  -1   50.33    2.66
  -5   1  -1   47.32    2.64
  -5   1  -1   50.13    2.39
  -5   1  -1   48.61    4.53
  -5   1  -1   47.50    3.82
  -5   1  -1   49.91    2.62
   5  -1   1   50.56    2.64
  -6   1  -1   56.06    5.49
  -6   1  -1   57.23    3.17
  -6   1  -1   58.40    3.13
  -6   1  -1   61.58    3.18
  -6   1  -1   58.93    2.86
  -7   1  -1   72.63    3.89
  -7   1  -1   72.14    3.57
  -7   1  -1   76.59    4.02
  -7   1  -1   77.84    7.17
  -8   1  -1    1.93    0.67
  -8   1  -1    3.13    0.53
  -8   1  -1    3.12    0.72
  -8   1  -1    3.73    2.08
  -9   1  -1   96.83    4.68
  -9   1  -1   95.16    5.06
 -10   1  -1   29.41    2.28
 -10   1  -1   27.58    1.84
 -11   0   1   12.93    1.72
 -11   0   1   12.86    1.32
 -10   0   1    2.80    0.65
 -10   0   1    2.30    0.79
  -9   0   1   20.40    1.45
  -9   0   1   22.36    1.79
  -8   0   1  118.26    5.75
  -8   0   1  100.50    8.88
  -8   0   1  112.58    5.51
  -8   0   1  106.22    5.16
  -7   0   1    5.20    0.93
  -7   0   1    2.94    1.46
  -7   0   1    2.95    0.48
  -7   0   1    3.03    0.67
  -6   0   1  130.20    6.09
  -6   0   1  134.49    7.98
  -6   0   1  136.01    6.32
  -6   0   1  139.26    6.51
  -6   0   1  138.72    9.04
  -6   0   1  139.28    6.37
   5   0  -1  319.51   13.79
  -5   0   1  325.47   13.96
  -5   0   1  323.36   14.67
  -5   0   1  319.21   15.47
  -5   0   1  312.45   13.59
  -5   0   1  306.65   13.79
  -5   0   1  297.43   13.81
  -5   0   1  318.86   13.78
  -5   0   1  326.82   16.31
   4   0  -1   43.59    2.13
   4   0  -1   39.37    2.11
  -4   0   1   40.67    2.15
  -4   0   1   42.28    3.45
  -4   0   1   44.31    3.29
  -4   0   1   42.79    2.60
  -4   0   1   41.80    2.11
  -4   0   1   42.43    2.23
  -4   0   1   40.66    2.13
  -4   0   1   41.12    1.99
  -4   0   1   41.19    2.38
   3   0  -1    0.58    0.17
   3   0  -1    0.83    0.22
   3   0  -1    1.26    0.26
  -3   0   1    0.65    0.27
  -3   0   1    0.41    0.15
  -3   0   1    0.52    0.23
  -3   0   1    1.83    0.29
  -3   0   1    0.58    0.31
  -3   0   1    0.74    0.60
  -3   0   1    0.51    0.47
  -3   0   1    0.17    0.16
  -3   0   1    0.60    0.33
   2   0  -1  270.75   10.81
   2   0  -1  229.66   11.00
   2   0  -1  242.50   10.84
   2   0  -1  258.06   10.86
  -2   0   1  263.46   11.85
  -2   0   1  236.12   11.27
  -2   0   1  250.23   11.02
  -2   0   1  254.12   10.84
  -2   0   1  277.07   12.27
  -2   0   1  246.68   10.87
  -2   0   1  262.41   10.93
  -2   0   1  252.59   10.86
   1   0  -1  390.60   17.24
  -1   0   1  386.64   17.23
  -1   0   1  389.62   17.23
  -1   0   1  405.40   17.97
  -1   0  -1   79.45    3.49
  -1   0  -1   64.97    4.16
  -1   0  -1   83.85    3.35
   1   0   1   80.75    4.29
   1   0   1   80.40    3.35
   1   0   1   82.82    3.48
   1   0   1   65.55    4.04
  -2   0  -1  737.76   33.85
  -2   0  -1  793.49   32.76
  -2   0  -1  784.15   34.35
  -2   0  -1  729.31   32.84
   2   0   1  891.41   34.24
   2   0   1  731.03   32.84
  -3   0  -1   22.68    1.08
  -3   0  -1   20.57    1.26
  -3   0  -1   21.41    2.30
  -3   0  -1   19.76    1.20
  -3   0  -1   17.95    1.15
  -3   0  -1   20.69    1.19
  -3   0  -1   21.15    1.61
  -3   0  -1   22.77    1.97
   3   0   1   20.18    1.26
   3   0   1   22.22    1.14
   3   0   1   20.17    1.20
  -4   0  -1  145.68    7.43
  -4   0  -1  143.93    6.69
  -4   0  -1  167.44    9.13
  -4   0  -1  148.82    6.73
  -4   0  -1  160.15    8.13
  -4   0  -1  148.40    6.73
  -4   0  -1  151.32    6.52
  -4   0  -1  141.18    6.80
   4   0   1  141.35    6.81
   4   0   1  143.77    6.67
   4   0   1  152.36    6.74
   4   0   1  153.14    6.89
  -5   0  -1  459.46   20.36
  -5   0  -1  441.29   20.29
  -5   0  -1  502.48   22.37
  -5   0  -1  476.13   20.10
  -5   0  -1  473.34   20.37
  -5   0  -1  504.19   23.68
  -5   0  -1  455.95   21.29
  -5   0  -1  443.82   20.49
   5   0   1  488.71   20.38
  -6   0  -1    5.85    0.85
  -6   0  -1    6.41    0.64
  -6   0  -1    8.40    0.95
  -6   0  -1    8.19    2.06
  -6   0  -1    6.51    2.14
  -6   0  -1    8.10    0.81
  -7   0  -1   16.46    1.36
  -7   0  -1   17.79    1.14
  -7   0  -1   15.82    3.51
  -7   0  -1   19.68    1.55
  -8   0  -1    5.58    0.69
  -8   0  -1    5.10    2.29
  -8   0  -1    6.26    0.98
  -8   0  -1    6.73    1.08
  -9   0  -1   26.69    2.04
  -9   0  -1   26.29    1.68
 -10   0  -1    0.44    0.38
 -10   0  -1    0.61    0.51
 -11   0  -1   20.25    1.58
 -11   0  -1   23.28    2.05
 -10   1   1   33.18    2.13
 -10   1   1   36.81    2.62
  -9   1   1   18.87    1.65
  -9   1   1   18.91    1.38
  -8   1   1    1.22    1.25
  -8   1   1    1.11    0.37
  -8   1   1    0.98    0.52
  -7   1   1   19.74    1.27
  -7   1   1   18.71    1.59
  -7   1   1   20.69    3.26
  -7   1   1   22.15    1.58
  -6   1   1   75.30    3.79
  -6   1   1   82.23    4.10
  -6   1   1   85.71    4.05
  -6   1   1   80.20    4.16
  -6   1   1   84.93    6.47
  -5   1   1    3.09    0.56
  -5   1   1    0.48    0.20
  -5   1   1    1.11    0.66
  -5   1   1    1.49    0.41
  -5   1   1    1.12    0.32
  -5   1   1    1.00    0.69
   4  -1  -1   67.57    3.15
   4  -1  -1   65.13    3.24
  -4   1   1   68.81    3.31
  -4   1   1   71.20    4.39
  -4   1   1   66.93    3.25
  -4   1   1   64.64    3.41
  -4   1   1   67.32    3.17
  -4   1   1   66.01    3.06
  -4   1   1   64.86    3.40
  -4   1   1   61.71    3.19
  -4   1   1   71.55    4.75
   3  -1  -1   31.48    1.62
   3  -1  -1   31.44    1.54
   3  -1  -1   29.41    1.62
  -3   1   1   30.62    1.55
  -3   1   1   29.84    1.66
  -3   1   1   30.09    1.57
  -3   1   1   31.16    1.61
  -3   1   1   31.97    2.56
  -3   1   1   30.69    1.49
  -3   1   1   30.18    2.60
   2  -1  -1  756.59   31.13
  -2   1   1  723.92   31.27
  -2   1   1  751.72   31.13
  -2   1   1  686.98   32.99
  -2   1   1  771.51   32.22
   1  -1  -1  484.72   21.83
  -1   1   1  561.88   21.18
  -1   1   1  447.18   23.76
   0  -1  -1  165.59    7.44
   0   1   1  138.18    7.30
  -1  -1  -1   33.33    1.53
  -1  -1  -1   32.82    1.51
   1   1   1   34.31    1.52
   1   1   1   32.70    1.52
   1   1   1   28.28    2.34
  -2  -1  -1  721.13   31.56
  -2  -1  -1  691.61   31.78
  -2  -1  -1  742.67   32.41
   2   1   1  680.29   30.57
   2   1   1  830.55   31.56
   2   1   1  671.68   32.06
  -3  -1  -1  231.83   10.26
  -3  -1  -1  225.42   10.22
  -3  -1  -1  216.62   10.16
  -3  -1  -1  249.22   11.64
  -3  -1  -1  253.32   12.41
  -3  -1  -1  225.73   10.21
  -3  -1  -1  238.37   10.07
  -3  -1  -1  241.43   11.37
   3   1   1  234.71   10.24
   3   1   1  227.56   10.23
   3   1   1  251.44   10.99
  -4  -1  -1  259.61   13.72
  -4  -1  -1  258.94   12.48
  -4  -1  -1  237.08   11.10
  -4  -1  -1  243.63   11.15
  -4  -1  -1  261.07   10.96
  -4  -1  -1  248.29   11.17
  -4  -1  -1  248.58   11.21
  -4  -1  -1  266.46   12.82
   4   1   1  267.25   11.42
   4   1   1  247.54   11.18
   4   1   1  270.55   11.88
   4   1   1  256.30   11.18
  -5  -1  -1   83.34    3.92
  -5  -1  -1   81.82    4.13
  -5  -1  -1   87.70    6.68
  -5  -1  -1   82.12    4.20
  -5  -1  -1   86.52    4.18
  -5  -1  -1   84.43    5.42
  -5  -1  -1   81.92    4.23
  -5  -1  -1   92.36    5.91
   5   1   1   89.58    4.21
   5   1   1   90.78    4.51
   5   1   1   92.41    4.74
  -6  -1  -1   35.21    2.07
  -6  -1  -1   34.95    2.06
  -6  -1  -1   33.35    3.12
  -6  -1  -1   35.29    1.82
  -6  -1  -1   34.42    3.58
  -6  -1  -1   35.07    2.14
  -6  -1  -1   37.15    4.34
  -7  -1  -1  322.45   17.15
  -7  -1  -1  301.36   13.83
  -7  -1  -1  305.61   18.34
  -7  -1  -1  310.28   13.51
  -7  -1  -1  306.82   13.97
  -7  -1  -1  320.90   13.91
  -8  -1  -1   67.50    3.40
  -8  -1  -1   68.47    7.39
  -8  -1  -1   70.43    3.75
  -8  -1  -1   70.61    6.64
  -9  -1  -1    2.07    0.45
  -9  -1  -1    2.48    0.67
 -10  -1  -1   12.80    1.23
 -10  -1  -1   11.35    1.48
 -11  -1  -1   35.80    2.58
 -11  -1  -1   33.17    2.15
 -10   2   1   10.94    1.19
 -10   2   1   11.91    1.58
  -9   2   1    9.87    1.09
  -9   2   1   10.04    1.43
  -8   2   1  140.95   10.75
  -8   2   1  139.15    6.84
  -8   2   1  139.18    6.47
  -7   2   1   50.55    5.21
  -7   2   1   44.85    2.81
  -7   2   1   44.05    2.71
  -7   2   1   46.45    2.43
   6  -2  -1    5.04    0.79
  -6   2   1    5.07    0.81
  -6   2   1    6.31    0.68
  -6   2   1    6.52    0.94
  -6   2   1    5.75    1.89
   5  -2  -1   80.15    3.93
  -5   2   1   81.57    3.94
  -5   2   1   79.78    3.68
  -5   2   1   77.27    3.83
  -5   2   1   81.42    5.78
  -5   2   1   78.08    4.00
   4  -2  -1  386.53   16.74
   4  -2  -1  397.68   16.61
  -4   2   1  402.48   18.62
  -4   2   1  389.62   16.54
  -4   2   1  383.19   18.13
  -4   2   1  394.24   16.68
  -4   2   1  387.99   16.74
  -4   2   1  359.47   16.78
  -4   2   1  385.76   16.84
   3  -2  -1    4.38    0.50
   3  -2  -1    4.56    0.37
  -3   2   1    3.44    0.42
  -3   2   1    3.85    0.47
  -3   2   1    4.20    1.02
  -3   2   1    4.65    1.38
  -3   2   1    4.88    0.63
  -3   2   1    3.53    0.36
  -3   2   1    4.13    0.41
   2  -2  -1    4.91    0.33
   2  -2  -1    4.46    0.38
  -2   2   1    3.09    1.27
  -2   2   1    4.42    0.75
  -2   2   1    4.57    0.41
  -2   2   1    4.49    0.39
  -2   2   1    4.10    0.40
  -2   2   1    4.64    0.54
  -2   2   1    4.28    0.31
  -1   2   1  806.74   34.89
  -1   2   1  797.15   34.02
   1   2   1  584.07   25.50
  -2  -2  -1  755.95   35.94
  -2  -2  -1  842.39   36.20
  -2  -2  -1  743.51   36.53
  -2  -2  -1  831.41   34.47
   2   2   1  918.15   35.78
  -3  -2  -1    1.31    0.24
  -3  -2  -1    0.68    0.61
  -3  -2  -1    0.43    0.48
  -3  -2  -1    0.66    0.53
  -3  -2  -1    0.82    0.22
  -3  -2  -1    0.62    0.14
  -3  -2  -1    0.86    0.23
   3   2   1    0.75    0.21
   3   2   1    0.94    0.23
   3   2   1    1.11    0.51
  -4  -2  -1   34.25    1.93
  -4  -2  -1   34.87    3.65
  -4  -2  -1   36.22    1.71
  -4  -2  -1   33.91    3.07
  -4  -2  -1   35.75    3.17
  -4  -2  -1   32.30    1.86
   4   2   1   36.93    2.30
   4   2   1   36.87    1.94
   4   2   1   33.75    1.89
   4   2   1   38.22    2.66
  -5  -2  -1   14.05    2.06
  -5  -2  -1   12.04    0.94
  -5  -2  -1   15.82    2.58
  -5  -2  -1   12.91    0.82
  -5  -2  -1   13.73    1.01
  -5  -2  -1   12.19    1.85
   5   2   1   15.52    1.59
   5   2   1   13.48    1.03
   5   2   1   14.49    1.35
   5   2   1   13.01    1.02
  -6  -2  -1   89.13    7.52
  -6  -2  -1   93.19    4.55
  -6  -2  -1   91.78    6.37
  -6  -2  -1   92.03    4.24
  -6  -2  -1   88.25    4.46
  -6  -2  -1   94.46    6.77
   6   2   1   99.82    5.24
  -7  -2  -1   36.05    4.24
  -7  -2  -1   37.59    4.28
  -7  -2  -1   37.34    4.95
  -7  -2  -1   38.39    2.02
  -7  -2  -1   37.39    2.27
  -7  -2  -1   41.89    2.38
  -8  -2  -1    0.02    0.76
  -8  -2  -1    0.42    0.41
  -8  -2  -1   -0.17    0.19
  -8  -2  -1    0.32    0.99
  -9  -2  -1  174.12    7.94
  -9  -2  -1  175.63    8.35
 -10  -2  -1   15.61    1.76
 -10  -2  -1   15.95    1.24
 -11  -2  -1   20.32    1.57
 -11  -2  -1   24.39    2.01
 -10   3   1    6.23    1.21
 -10   3   1    5.25    0.85
  -9   3   1   37.59    2.59
  -9   3   1   35.95    2.18
  -8   3   1   74.54    3.74
  -8   3   1   74.89    4.16
   7  -3  -1    0.83    0.44
  -7   3   1    0.61    0.49
  -7   3   1    0.78    0.34
  -7   3   1    0.20    0.82
  -7   3   1    0.43    0.44
   6  -3  -1  195.52    9.01
  -6   3   1  192.79    9.14
  -6   3   1  201.18   11.82
  -6   3   1  196.49    8.68
  -6   3   1  194.45    9.00
   5  -3  -1  161.59    7.80
  -5   3   1  176.01    7.58
  -5   3   1  175.28    7.79
  -5   3   1  173.60    9.98
  -5   3   1  170.29    7.83
  -5   3   1  172.51    8.00
   4  -3  -1    0.35    0.22
   4  -3  -1    0.67    0.16
  -4   3   1    0.42    0.17
  -4   3   1    1.25    0.43
  -4   3   1    0.56    0.24
  -4   3   1    0.43    0.26
  -4   3   1    0.36    0.22
  -4   3   1    0.38    0.45
   3  -3  -1  241.01   10.76
  -3   3   1  226.77   11.00
  -3   3   1  245.09   10.77
  -3   3   1  250.64   10.61
  -3   3   1  259.10   10.87
  -3   3   1  257.75   12.16
  -3   3   1  250.73   10.98
   2  -3  -1  262.14   11.21
   2  -3  -1  266.75   11.18
   2  -3  -1  259.78   11.27
   2  -3  -1  270.39   11.12
  -2   3   1  258.75   11.27
  -2   3   1  263.87   11.11
  -2   3   1  260.18   11.50
  -2   3   1  274.99   12.24
  -2   3   1  228.26   11.46
   1  -3  -1   48.76    2.20
   1  -3  -1   53.89    2.97
   1  -3  -1   49.61    2.29
   1  -3  -1   49.05    2.26
  -1   3   1   38.87    3.15
  -1   3   1   48.49    2.89
   0  -3  -1   58.68    2.65
   0  -3  -1   56.95    2.64
   0   3   1   57.78    2.65
  -1  -3  -1  170.52    7.37
  -1  -3  -1  183.48    7.39
   1   3   1  140.95    8.67
   1   3   1  175.71    7.42
   1   3   1  178.43    7.40
  -2  -3  -1  629.29   27.44
  -2  -3  -1  635.28   29.51
  -2  -3  -1  648.58   27.43
  -2  -3  -1  651.57   27.52
   2   3   1  639.67   27.50
   2   3   1  635.30   27.53
   2   3   1  699.97   28.80
  -3  -3  -1   13.41    0.83
  -3  -3  -1   13.77    1.92
  -3  -3  -1   11.70    1.71
  -3  -3  -1   13.06    2.11
  -3  -3  -1   13.73    0.89
  -3  -3  -1   13.26    0.72
  -3  -3  -1   13.04    0.76
   3   3   1   13.98    0.92
   3   3   1   13.01    0.88
  -4  -3  -1  561.68   26.48
  -4  -3  -1  543.16   27.29
  -4  -3  -1  588.04   26.45
  -4  -3  -1  563.36   24.05
  -4  -3  -1  544.09   23.79
  -4  -3  -1  562.28   23.80
  -4  -3  -1  557.53   23.95
   4   3   1  557.07   24.09
   4   3   1  542.99   24.05
   4   3   1  599.02   24.87
  -5  -3  -1  157.12    7.00
  -5  -3  -1  169.99    9.77
  -5  -3  -1  156.63    9.57
  -5  -3  -1  159.86   10.59
  -5  -3  -1  162.15    7.35
  -5  -3  -1  161.42    7.06
  -5  -3  -1  157.88    7.24
   5   3   1  167.90    8.14
   5   3   1  157.56    7.35
   5   3   1  164.47    7.41
  -6  -3  -1    0.36    0.68
  -6  -3  -1    0.10    0.55
  -6  -3  -1    0.66    0.32
  -6  -3  -1    0.24    0.21
  -6  -3  -1    0.40    0.68
  -6  -3  -1    0.28    0.17
   6   3   1   -0.04    0.25
  -7  -3  -1   59.28    5.64
  -7  -3  -1   59.68    6.45
  -7  -3  -1   54.73    2.80
  -7  -3  -1   52.92    3.03
  -7  -3  -1   57.26    5.23
  -7  -3  -1   62.18    3.22
  -8  -3  -1   30.83    1.78
  -8  -3  -1   34.31    2.13
  -8  -3  -1   32.21    4.46
  -8  -3  -1   30.40    4.91
  -9  -3  -1   65.52    3.66
  -9  -3  -1   64.79    3.29
 -10  -3  -1    1.08    0.41
 -10  -3  -1    1.68    0.63
 -11  -3  -1   40.14    2.39
 -11  -3  -1   42.25    2.89
  -9   4   1    6.04    0.84
  -9   4   1    3.64    0.94
   8  -4  -1   11.34    1.44
  -8   4   1    8.97    1.33
  -8   4   1    8.14    0.95
   7  -4  -1   11.58    1.40
  -7   4   1   15.98    1.12
  -7   4   1   14.56    1.36
   6  -4  -1   60.74    3.24
  -6   4   1   55.38    3.19
  -6   4   1   59.56    3.40
  -6   4   1   58.33    2.91
   5  -4  -1    2.86    0.55
  -5   4   1    3.05    0.45
  -5   4   1    2.64    0.54
  -5   4   1    2.44    1.12
  -5   4   1    3.27    0.75
   4  -4  -1  211.74   10.10
   4  -4  -1  224.27   10.06
  -4   4   1  222.35   10.06
  -4   4   1  226.68   10.33
  -4   4   1  228.90    9.82
  -4   4   1  232.36   10.15
  -4   4   1  239.33   11.86
   3  -4  -1  179.60    8.01
   3  -4  -1  175.98    7.95
   3  -4  -1  191.49    7.88
  -3   4   1  184.24    7.80
  -3   4   1  181.04    8.30
  -3   4   1  184.41    8.20
  -3   4   1  150.27    8.34
  -3   4   1  190.75    9.30
   2  -4  -1    9.22    0.64
   2  -4  -1    9.08    0.70
   2  -4  -1    9.14    0.65
  -2   4   1    9.80    0.72
  -2   4   1    8.97    1.12
  -2   4   1    9.85    0.91
  -2   4   1    9.19    0.55
   1  -4  -1  377.46   15.44
   1  -4  -1  372.27   16.38
   1  -4  -1  368.76   15.63
   1  -4  -1  346.68   15.64
   1  -4  -1  361.63   15.53
  -1   4   1  367.51   15.43
  -1   4   1  359.76   16.35
   0  -4  -1  484.40   19.87
   0  -4  -1  490.22   19.75
   0  -4  -1  403.47   20.94
   0  -4  -1  467.20   19.86
   0   4   1  482.06   19.92
  -1  -4  -1   29.16    1.48
  -1  -4  -1   31.81    1.50
   1   4   1   30.57    1.52
   1   4   1   22.57    1.94
   1   4   1   26.16    2.54
   1   4   1   29.58    1.54
  -2  -4  -1   46.21    2.01
  -2  -4  -1   45.20    2.17
  -2  -4  -1   42.54    3.85
  -2  -4  -1   44.98    2.18
  -2  -4  -1   45.66    2.29
   2   4   1   43.76    2.27
   2   4   1   44.14    2.22
  -3  -4  -1  330.44   16.54
  -3  -4  -1  324.06   13.74
  -3  -4  -1  332.06   13.70
  -3  -4  -1  277.13   15.47
  -3  -4  -1  339.68   13.90
  -3  -4  -1  271.05   16.45
   3   4   1  338.37   13.85
   3   4   1  330.52   13.90
  -4  -4  -1  184.29    7.95
  -4  -4  -1  176.62    7.68
  -4  -4  -1  175.36    7.60
  -4  -4  -1  164.59   10.02
  -4  -4  -1  179.53   10.53
  -4  -4  -1  154.56   10.75
  -4  -4  -1  176.69    7.79
   4   4   1  176.27    7.91
   4   4   1  176.86    7.97
   4   4   1  191.58    8.93
  -5  -4  -1    6.54    1.89
  -5  -4  -1    5.58    1.76
  -5  -4  -1    4.52    0.66
  -5  -4  -1    4.30    1.73
  -5  -4  -1    5.81    0.67
  -5  -4  -1    4.72    0.43
  -5  -4  -1    4.33    0.46
   5   4   1    6.22    0.68
   5   4   1    4.69    1.07
   5   4   1    5.16    0.67
  -6  -4  -1  201.82   12.40
  -6  -4  -1  209.70    9.08
  -6  -4  -1  219.44    9.51
  -6  -4  -1  205.70    9.33
  -6  -4  -1  186.34   13.29
  -6  -4  -1  207.12   12.51
   6   4   1  210.14    9.55
   6   4   1  219.89   10.66
  -7  -4  -1  115.04    5.71
  -7  -4  -1  118.82    8.97
  -7  -4  -1  121.08    5.45
  -7  -4  -1  112.27    9.83
  -7  -4  -1  120.89    8.77
   7   4   1  130.15    7.16
  -8  -4  -1   22.19    4.97
  -8  -4  -1   23.96    1.43
  -8  -4  -1   23.96    3.61
  -8  -4  -1   23.12    1.67
  -9  -4  -1   12.83    1.42
  -9  -4  -1   13.31    1.03
 -10  -4  -1   14.28    1.13
 -10  -4  -1   12.97    1.58
 -11  -4  -1    3.85    0.94
 -11  -4  -1    2.70    0.60
   9  -5  -1   19.92    1.80
  -9   5   1   21.28    1.55
  -9   5   1   21.42    1.97
   8  -5  -1   65.25    3.79
   8  -5  -1   67.99    3.98
  -8   5   1   69.91    4.01
  -8   5   1   65.16    3.42
   7  -5  -1    6.32    1.05
   7  -5  -1   10.87    1.30
  -7   5   1    7.95    1.16
  -7   5   1    8.93    0.93
   6  -5  -1   13.89    1.23
   6  -5  -1   16.02    1.34
  -6   5   1   15.50    1.32
  -6   5   1   15.48    1.06
   5  -5  -1   30.43    1.97
   5  -5  -1   29.89    1.90
  -5   5   1   32.82    2.24
  -5   5   1   35.05    2.05
  -5   5   1   31.70    1.72
   4  -5  -1  122.56    5.75
   4  -5  -1  120.15    5.80
  -4   5   1  122.76    5.82
  -4   5   1  127.26    6.16
  -4   5   1  127.57    5.54
   3  -5  -1    4.95    0.64
   3  -5  -1    3.37    0.48
   3  -5  -1    4.72    0.55
  -3   5   1    4.87    1.43
  -3   5   1    4.80    0.81
  -3   5   1    2.87    0.63
  -3   5   1    4.46    0.45
  -3   5   1    5.17    0.68
   2  -5  -1  201.95    8.97
   2  -5  -1  209.01    9.13
   2  -5  -1  208.27    9.05
  -2   5   1  205.50    8.83
  -2   5   1  207.24    9.91
  -2   5   1  204.48    9.54
   1  -5  -1  303.17   13.48
   1  -5  -1  326.14   14.18
   1  -5  -1  303.27   13.46
   1  -5  -1  308.56   13.34
  -1   5   1  310.14   13.20
  -1   5   1  317.19   14.15
   0  -5  -1  156.65    8.18
   0  -5  -1  164.49    7.01
   0  -5  -1  161.78    7.15
   0  -5  -1  165.35    7.16
   0   5   1  157.42    7.24
  -1  -5  -1  156.94    7.08
  -1  -5  -1  159.72    7.09
   1   5   1  161.04    7.21
   1   5   1  162.18    7.15
  -2  -5  -1  207.80    9.16
  -2  -5  -1  200.51    9.15
   2   5   1  210.20    9.31
   2   5   1  218.62    9.25
  -3  -5  -1   28.73    1.72
  -3  -5  -1   22.45    3.17
  -3  -5  -1   29.07    1.35
  -3  -5  -1   30.70    1.59
  -3  -5  -1   25.92    3.26
  -3  -5  -1   29.45    1.55
   3   5   1   29.69    1.73
   3   5   1   29.64    1.66
  -4  -5  -1    3.89    1.74
  -4  -5  -1    4.97    0.55
  -4  -5  -1    4.06    0.65
  -4  -5  -1    2.86    1.23
  -4  -5  -1    5.23    0.61
  -4  -5  -1    3.22    1.45
   4   5   1    4.92    0.65
   4   5   1    5.73    1.22
   4   5   1    5.62    0.75
  -5  -5  -1  112.29    8.13
  -5  -5  -1   97.38    8.41
  -5  -5  -1  106.87    5.04
  -5  -5  -1  105.27    4.79
  -5  -5  -1   98.73    7.50
  -5  -5  -1  110.69    4.91
   5   5   1  112.38    5.30
   5   5   1  118.61    6.43
  -6  -5  -1   85.77    3.92
  -6  -5  -1   77.80    6.77
  -6  -5  -1   85.54    3.86
  -6  -5  -1   73.94    7.52
  -6  -5  -1   83.56    4.13
  -6  -5  -1   80.54    6.95
   6   5   1   93.64    5.57
   6   5   1   88.49    4.41
  -7  -5  -1    4.65    2.09
  -7  -5  -1    5.26    2.42
  -7  -5  -1    5.00    1.94
  -7  -5  -1    5.67    0.79
  -7  -5  -1    4.46    0.52
   7   5   1    6.03    1.49
  -8  -5  -1   56.67    7.25
  -8  -5  -1   61.89    6.32
  -8  -5  -1   58.50    3.27
  -8  -5  -1   61.11    2.97
  -9  -5  -1   66.01    6.84
  -9  -5  -1   67.05    3.35
  -9  -5  -1   68.95    3.75
 -10  -5  -1    2.16    0.65
 -10  -5  -1    1.35    0.45
 -11  -5  -1   23.62    1.97
 -11  -5  -1   20.10    1.50
   8  -6  -1    0.73    0.43
   8  -6  -1    0.95    0.64
  -8   6   1    1.08    0.66
   7  -6  -1   19.36    1.58
   7  -6  -1   21.86    1.80
  -7   6   1   20.26    1.76
   6  -6  -1   94.05    4.81
   6  -6  -1   88.19    4.62
  -6   6   1   94.43    4.81
   5  -6  -1   15.66    1.23
   5  -6  -1   17.30    1.38
  -5   6   1   18.41    1.39
   4  -6  -1  119.68    5.73
   4  -6  -1  114.75    5.57
  -4   6   1  122.77    5.77
  -4   6   1  126.77    6.20
   3  -6  -1   21.16    1.28
   3  -6  -1   18.04    1.19
   3  -6  -1   22.29    1.40
  -3   6   1   21.02    1.70
  -3   6   1   18.88    1.35
   2  -6  -1    1.53    0.35
   2  -6  -1    1.93    0.33
   2  -6  -1    1.68    0.38
  -2   6   1    3.19    0.70
   1  -6  -1    0.18    0.20
   1  -6  -1    0.67    0.20
   1  -6  -1    1.40    0.33
   0  -6  -1   70.31    3.33
   0  -6  -1   70.43    3.18
   0  -6  -1   72.78    4.36
   0  -6  -1   68.76    3.32
   0   6   1   57.22    4.87
   0   6   1   68.43    3.47
  -1  -6  -1  181.52    8.09
  -1  -6  -1  180.71    8.09
   1   6   1  183.41    8.27
  -2  -6  -1   61.72    2.98
  -2  -6  -1   59.44    2.96
   2   6   1   59.85    3.14
  -3  -6  -1   34.83    1.91
  -3  -6  -1   34.84    4.10
  -3  -6  -1   35.68    1.94
   3   6   1   36.67    2.14
   3   6   1   37.89    2.99
  -4  -6  -1  341.34   15.26
  -4  -6  -1  351.09   15.22
  -4  -6  -1  342.71   19.14
   4   6   1  360.90   15.56
   4   6   1  362.41   16.90
  -5  -6  -1   71.22    3.55
  -5  -6  -1   54.84    6.36
  -5  -6  -1   77.27    3.47
  -5  -6  -1   57.61    5.48
  -5  -6  -1   75.77    6.67
   5   6   1   77.90    3.86
   5   6   1   79.46    5.04
  -6  -6  -1   26.06    4.43
  -6  -6  -1   33.38    1.95
  -6  -6  -1   32.37    1.65
  -6  -6  -1   33.61    4.38
  -6  -6  -1   35.20    1.81
  -6  -6  -1   24.41    3.66
   6   6   1   35.44    3.19
   6   6   1   34.33    2.21
  -7  -6  -1   74.91    3.56
  -7  -6  -1   75.49    7.20
  -7  -6  -1   63.77    7.62
  -7  -6  -1   76.80    3.91
   7   6   1   88.37    5.76
  -8  -6  -1   12.91    4.17
  -8  -6  -1   14.13    1.23
  -8  -6  -1   13.90    0.96
  -8  -6  -1   11.11    3.42
   8   6   1   15.31    2.67
  -9  -6  -1    0.74    1.30
  -9  -6  -1    1.89    0.41
  -9  -6  -1    2.31    0.64
 -10  -6  -1    8.70    1.31
 -10  -6  -1    8.99    0.95
 -11  -6  -1   36.99    2.67
 -11  -6  -1   38.37    2.24
   7  -7  -1   34.38    2.46
   7  -7  -1   32.17    2.13
  -7   7   1   32.73    2.43
   6  -7  -1    0.44    0.47
   6  -7  -1    0.21    0.27
  -6   7   1    0.34    0.43
   5  -7  -1   12.26    1.36
   5  -7  -1    9.95    0.91
  -5   7   1   10.46    1.31
   4  -7  -1  159.30    7.41
   4  -7  -1  155.04    7.17
  -4   7   1  160.24    7.44
   3  -7  -1  177.31    8.37
   3  -7  -1  190.98    8.29
   3  -7  -1  178.15    8.14
  -3   7   1  183.83    8.41
  -3   7   1  185.00    8.93
   2  -7  -1    9.88    0.75
   2  -7  -1   11.21    0.93
   2  -7  -1    9.63    0.85
  -2   7   1   13.42    1.62
   1  -7  -1  188.30    8.29
   1  -7  -1  180.70    8.08
   1  -7  -1  182.45    8.31
   0  -7  -1   92.42    4.22
   0  -7  -1   92.58    4.41
   0   7   1   91.45    4.60
  -1  -7  -1    3.52    0.56
  -1  -7  -1    3.58    0.53
   1   7   1    4.08    0.71
   1   7   1    2.61    0.86
  -2  -7  -1   78.21    3.96
  -2  -7  -1   79.52    3.97
   2   7   1   88.56    5.38
   2   7   1   85.13    4.24
  -3  -7  -1   98.59    4.76
  -3  -7  -1   97.86    4.77
   3   7   1  111.61    6.40
   3   7   1   99.85    5.05
  -4  -7  -1   12.29    3.35
  -4  -7  -1   20.09    1.32
  -4  -7  -1   20.02    1.28
  -4  -7  -1   20.15    3.36
   4   7   1   19.91    1.52
   4   7   1   21.83    2.37
  -5  -7  -1    3.61    0.55
  -5  -7  -1    2.78    1.82
  -5  -7  -1    3.89    0.62
  -5  -7  -1    2.61    1.17
  -5  -7  -1    3.79    1.96
   5   7   1    3.07    0.65
   5   7   1    2.71    1.02
  -6  -7  -1   82.92    7.72
  -6  -7  -1   84.75    4.17
  -6  -7  -1   60.05    7.39
  -6  -7  -1   89.70    4.05
   6   7   1   84.98    4.52
   6   7   1   86.99    5.93
  -7  -7  -1   66.20    3.57
  -7  -7  -1   65.37    6.99
   7   7   1   72.28    5.44
  -8  -7  -1    0.50    1.20
  -8  -7  -1   -0.02    1.24
  -8  -7  -1    0.82    0.39
   8   7   1    0.54    0.74
  -9  -7  -1   15.00    1.62
 -10  -7  -1    9.29    1.30
   6  -8  -1   24.12    1.97
   6  -8  -1   24.06    1.63
  -6   8   1   26.84    2.04
   5  -8  -1   13.61    1.53
   5  -8  -1   15.61    1.15
  -5   8   1   16.49    1.45
   4  -8  -1    2.66    0.48
   4  -8  -1    1.68    0.53
  -4   8   1    2.89    0.69
   3  -8  -1   17.38    1.38
   3  -8  -1   17.98    1.16
   3  -8  -1   17.85    1.30
  -3   8   1   17.75    1.40
   2  -8  -1   87.05    4.34
   2  -8  -1   86.65    4.13
   2  -8  -1   87.55    4.41
  -2   8   1   93.22    5.06
   1  -8  -1   96.46    4.74
   1  -8  -1   99.04    4.52
   1  -8  -1   99.72    4.79
  -1   8   1   96.08    5.94
   0  -8  -1   12.08    1.00
   0  -8  -1   12.68    0.85
   0  -8  -1   11.16    0.97
   0   8   1   10.72    1.89
  -1  -8  -1  252.46   11.37
  -1  -8  -1  249.41   11.37
   1   8   1  261.04   13.05
   1   8   1  261.62   11.72
  -2  -8  -1   82.36    4.09
  -2  -8  -1   84.26    4.11
   2   8   1   83.76    5.58
   2   8   1   82.21    4.39
  -3  -8  -1   19.36    1.34
  -3  -8  -1   19.42    1.34
   3   8   1   19.95    1.59
   3   8   1   19.89    2.40
  -4  -8  -1   42.70    2.39
  -4  -8  -1   42.08    2.42
   4   8   1   45.64    3.91
   4   8   1   43.89    2.74
  -5  -8  -1   29.56    1.80
  -5  -8  -1   28.66    1.85
   5   8   1   30.22    2.17
   5   8   1   32.42    3.30
  -6  -8  -1   24.23    1.50
  -6  -8  -1   13.99    5.18
  -6  -8  -1   20.97    1.53
   6   8   1   22.80    2.83
   6   8   1   20.11    1.78
  -7  -8  -1    1.85    1.93
  -7  -8  -1    4.96    0.79
  -8  -8  -1  100.52    5.15
  -9  -8  -1   82.80    4.50
 -10  -8  -1    0.61    0.48
   5  -9  -1   10.23    1.38
   5  -9  -1    8.82    0.81
  -5   9   1    9.24    1.34
   4  -9  -1   89.24    4.31
   4  -9  -1   92.82    4.77
  -4   9   1   89.53    4.76
   3  -9  -1  101.72    4.99
   3  -9  -1  111.77    5.32
   3  -9  -1  111.13    5.44
  -3   9   1  107.36    5.43
   2  -9  -1    0.52    0.32
   2  -9  -1    1.02    0.29
   2  -9  -1    0.54    0.34
   1  -9  -1   21.33    1.29
   1  -9  -1   19.84    1.50
   1  -9  -1   21.02    1.50
   0  -9  -1   81.57    4.13
   0  -9  -1   82.50    4.16
   0   9   1   79.78    5.54
  -1  -9  -1   53.62    2.94
  -1  -9  -1   54.26    2.95
   1   9   1   57.94    4.44
   1   9   1   51.99    3.23
  -2  -9  -1    8.79    1.02
  -2  -9  -1    7.85    0.96
   2   9   1    8.82    1.93
   2   9   1    9.00    1.29
  -3  -9  -1  154.76    7.30
  -3  -9  -1  153.98    7.29
   3   9   1  160.54    7.76
   3   9   1  158.75    9.35
  -4  -9  -1  167.04    7.86
  -4  -9  -1  165.46    7.89
   4   9   1  171.47    8.36
   4   9   1  180.04   10.23
  -5  -9  -1    0.92    0.37
  -5  -9  -1    0.21    0.25
   5   9   1    0.54    0.37
  -6  -9  -1   29.91    2.01
  -6  -9  -1   32.09    1.97
   6   9   1   31.65    2.49
  -7  -9  -1   27.89    1.96
  -7  -9  -1   29.51    1.87
  -8  -9  -1    3.68    0.77
  -9  -9  -1    3.34    0.75
   4 -10  -1   42.00    2.36
   4 -10  -1   51.17    2.96
  -4  10   1   44.31    2.88
   3 -10  -1   13.03    1.52
   3 -10  -1   13.59    1.00
  -3  10   1   16.40    1.71
   2 -10  -1   54.39    2.84
   2 -10  -1   58.65    3.22
   2 -10  -1   57.55    3.28
   1 -10  -1   74.01    3.95
   1 -10  -1   75.42    4.00
   0 -10  -1   13.83    1.22
   0 -10  -1   13.82    1.23
  -1 -10  -1   39.47    2.40
  -1 -10  -1   40.89    2.44
   1  10   1   40.17    4.60
  -2 -10  -1   29.81    2.02
  -2 -10  -1   34.80    2.12
  -3 -10  -1   25.64    1.76
  -3 -10  -1   25.64    1.76
  -4 -10  -1    1.02    0.38
  -4 -10  -1    1.69    0.48
  -5 -10  -1   67.90    3.66
  -5 -10  -1   66.71    3.60
  -6 -10  -1   81.76    4.21
  -6 -10  -1   79.93    4.29
  -7 -10  -1    6.59    1.04
  -7 -10  -1    5.75    0.88
  -8 -10  -1   44.01    2.79
  -9 -10  -1   37.25    2.58
   2 -11  -1   28.25    2.10
   2 -11  -1   29.10    2.06
  -2  11   1   29.34    2.13
   1 -11  -1    1.76    0.57
   1 -11  -1    2.15    0.60
   0 -11  -1    7.45    1.11
   0 -11  -1    9.32    1.17
  -1 -11  -1   84.03    4.34
  -1 -11  -1   78.47    4.28
  -2 -11  -1   15.45    1.33
  -2 -11  -1   13.99    1.27
  -3 -11  -1   19.86    1.61
  -3 -11  -1   22.45    1.67
  -4 -11  -1   42.81    2.61
  -4 -11  -1   40.29    2.55
  -5 -11  -1   12.80    1.44
  -5 -11  -1   12.71    1.22
  -6 -11  -1    2.26    0.62
  -6 -11  -1    1.18    0.51
  -7 -11  -1   12.99    1.49
  -7 -11  -1   13.33    1.27
  -8 -11  -1   24.91    1.99
   0 -12  -1   27.49    2.03
   0 -12  -1   25.61    2.01
  -1 -12  -1   11.66    1.41
  -1 -12  -1   10.29    1.36
  -2 -12  -1    0.60    0.43
  -2 -12  -1    0.39    0.37
  -3 -12  -1   36.03    2.44
  -3 -12  -1   38.22    2.46
  -4 -12  -1   26.70    2.03
  -4 -12  -1   28.80    2.05
  -5 -12  -1   14.01    1.59
  -5 -12  -1   12.71    1.49
  -6 -12  -1   10.47    1.31
  -6 -12  -1    9.67    1.35
  -4 -12   2    7.55    1.11
  -4 -12   2    9.73    1.31
  -3 -12   2    1.40    0.53
  -3 -12   2    1.78    0.61
  -2 -12   2   29.37    2.10
  -2 -12   2   26.97    2.08
  -7 -11   2    0.65    0.45
  -7 -11   2    1.31    2.17
  -7 -11   2    0.28    0.39
  -6 -11   2    2.53    0.69
  -6 -11   2    2.96    0.71
  -6 -11   2    1.82    2.08
  -5 -11   2   11.65    1.41
  -5 -11   2   12.52    1.42
  -5 -11   2    9.84    3.84
  -4 -11   2    5.60    0.96
  -4 -11   2    4.87    0.89
  -3 -11   2   54.79    3.18
  -3 -11   2   54.45    3.23
  -2 -11   2   22.51    1.72
  -2 -11   2   22.90    1.78
  -1 -11   2    9.54    1.27
  -1 -11   2   10.62    1.32
   0 -11   2   23.32    1.78
   0 -11   2   20.84    1.71
   0 -11   2   20.93    1.58
   1 -11   2   14.51    1.26
   1 -11   2   15.08    1.42
   1 -11   2   14.05    1.55
  -2  11  -2    2.12    0.64
   2 -11   2    2.14    0.65
   2 -11   2    2.21    0.58
   2 -11   2    1.79    0.61
  -8 -10   2   46.97    2.84
  -8 -10   2   38.12    6.46
  -7 -10   2   46.21    6.86
  -7 -10   2   51.44    3.05
  -7 -10   2   51.56    3.25
  -6 -10   2    3.74    2.41
  -6 -10   2    5.16    0.91
  -5 -10   2   39.28    5.99
  -5 -10   2   43.69    2.64
  -5 -10   2   44.58    2.64
  -4 -10   2   21.36    1.60
  -4 -10   2   20.23    1.59
  -4 -10   2   20.75    4.99
  -3 -10   2   10.49    3.49
  -3 -10   2   10.76    1.24
  -3 -10   2   11.56    1.13
  -2 -10   2    0.32    0.33
  -2 -10   2    0.87    0.42
  -1 -10   2   97.84    4.81
  -1 -10   2   95.15    4.96
  -1 -10   2   97.16    4.89
   0 -10   2   55.73    3.13
   0 -10   2   52.45    3.13
   0 -10   2   55.37    3.03
   1 -10   2    0.23    0.27
   1 -10   2    0.10    0.24
   1 -10   2   -0.25    0.24
  -2  10  -2   31.85    2.22
   2 -10   2   32.47    2.24
   2 -10   2   33.86    2.27
   2 -10   2   36.83    2.22
  -3  10  -2   17.80    1.59
   3 -10   2   21.86    1.61
   3 -10   2   20.23    1.63
   3 -10   2   19.40    1.65
  -9  -9   2   -0.08    0.33
  -9  -9   2    0.85    1.50
  -8  -9   2   33.77    5.76
  -8  -9   2   39.74    2.51
  -7  -9   2    0.90    1.33
  -7  -9   2    0.33    0.34
  -6  -9   2   50.19    2.78
  -6  -9   2   47.23    2.78
  -6  -9   2   43.48    6.14
  -5  -9   2   50.16    6.40
  -5  -9   2   52.92    2.98
  -5  -9   2   55.33    3.02
   4   9  -2    1.04    0.60
  -4  -9   2    1.16    0.45
  -4  -9   2    0.85    0.35
  -4  -9   2    1.56    1.43
   3   9  -2   33.17    2.64
  -3  -9   2   35.05    2.16
  -3  -9   2   38.93    5.26
  -3  -9   2   36.72    2.24
   2   9  -2   22.09    2.93
   2   9  -2   21.58    1.96
  -2  -9   2   21.40    1.49
  -2  -9   2   18.32    1.49
  -2  -9   2   20.63    3.76
   1   9  -2   -0.02    0.66
  -1  -9   2    0.98    0.38
  -1  -9   2    0.34    0.28
  -1  -9   2    0.29    0.28
   0   9  -2    1.88    1.09
   0  -9   2    1.44    0.47
   0  -9   2    3.04    0.61
   0  -9   2    2.65    0.60
   1  -9   2   57.48    3.14
   1  -9   2   56.73    3.22
   1  -9   2   58.78    3.19
  -2   9  -2  146.97    7.08
   2  -9   2  149.90    7.13
   2  -9   2  146.51    7.08
   2  -9   2  150.01    7.04
  -3   9  -2    0.01    0.29
   3  -9   2   -0.01    0.30
   3  -9   2    0.16    0.27
   3  -9   2    0.16    0.28
  -4   9  -2   57.59    3.35
   4  -9   2   56.41    3.33
   4  -9   2   59.43    3.34
  -5   9  -2   83.58    4.43
   5  -9   2   77.47    4.28
   5  -9   2   75.87    4.36
 -10  -8   2   38.10    2.57
 -10  -8   2   32.08    5.89
  -9  -8   2    5.06    2.91
  -9  -8   2    5.10    0.91
  -8  -8   2    6.59    0.97
  -8  -8   2    8.22    3.36
  -7  -8   2   16.74    1.39
  -7  -8   2   20.12    4.82
  -6  -8   2   37.70    2.27
  -6  -8   2   39.33    2.27
  -6  -8   2   35.23    5.15
   5   8  -2   12.81    2.61
  -5  -8   2   11.29    1.02
  -5  -8   2   11.71    1.02
  -5  -8   2    9.62    3.11
  -5  -8   2    9.30    2.35
   4   8  -2   81.71    4.65
   4   8  -2   87.69    6.41
  -4  -8   2   79.62    7.64
  -4  -8   2   78.05    4.10
  -4  -8   2   80.72    4.06
   3   8  -2  219.82   12.49
   3   8  -2  225.40   10.73
  -3  -8   2  228.42   10.09
  -3  -8   2  231.93   14.71
  -3  -8   2  215.68   10.14
   2   8  -2  152.43    9.09
   2   8  -2  149.24    7.49
  -2  -8   2  143.19    6.95
  -2  -8   2  150.35    6.84
  -2  -8   2  147.19    6.86
  -2  -8   2  146.93   10.78
   1   8  -2  125.54    7.73
  -1  -8   2  114.13    5.65
  -1  -8   2  122.49    5.69
  -1  -8   2  120.76    9.26
  -1  -8   2  120.22    5.81
   0   8  -2  131.53    8.00
   0  -8   2  131.17    6.14
   0  -8   2  130.11    6.14
   0  -8   2  128.87    6.24
   1  -8   2   12.81    1.08
   1  -8   2   13.60    1.14
   1  -8   2   10.05    0.98
   2  -8   2    1.78    0.49
   2  -8   2    1.26    0.41
   2  -8   2    1.01    0.37
  -3   8  -2   67.92    3.62
   3  -8   2   65.59    3.58
   3  -8   2   70.02    3.63
   3  -8   2   66.29    3.63
  -4   8  -2   22.59    1.69
   4  -8   2   24.31    1.73
   4  -8   2   21.32    1.68
  -5   8  -2    7.51    1.13
   5  -8   2    7.97    1.17
   5  -8   2    8.36    1.19
  -6   8  -2   11.70    1.52
   6  -8   2   12.81    1.55
   6  -8   2   12.24    1.52
 -10  -7   2   10.67    1.38
 -10  -7   2   11.98    4.12
  -9  -7   2   10.61    3.71
  -9  -7   2    9.02    1.18
  -8  -7   2   69.63    3.76
  -8  -7   2   69.29    7.63
   7   7  -2   12.92    2.97
  -7  -7   2    8.49    1.06
  -7  -7   2   10.22    3.14
  -7  -7   2   11.32    3.55
   6   7  -2    0.87    0.81
  -6  -7   2    0.66    1.06
  -6  -7   2    1.64    0.41
  -6  -7   2    0.60    1.09
  -6  -7   2    0.51    0.30
   5   7  -2   12.80    2.56
  -5  -7   2   12.16    1.04
  -5  -7   2   13.71    2.26
  -5  -7   2   13.76    3.48
  -5  -7   2   14.67    1.10
   4   7  -2   44.69    4.08
   4   7  -2   43.64    2.83
  -4  -7   2   41.45    2.35
  -4  -7   2   44.50    3.93
  -4  -7   2   43.67    2.42
  -4  -7   2   40.95    4.93
   3   7  -2    0.25    0.55
   3   7  -2    0.80    0.41
  -3  -7   2    0.87    0.34
  -3  -7   2    1.09    0.69
  -3  -7   2    0.89    0.98
  -3  -7   2    1.99    0.43
   2   7  -2   16.38    1.50
   2   7  -2   17.57    2.27
  -2  -7   2   15.53    1.22
  -2  -7   2   15.60    1.15
  -2  -7   2   18.68    3.05
  -2  -7   2   17.74    1.19
   1   7  -2  318.51   14.94
   1   7  -2  325.84   16.32
  -1  -7   2  348.63   18.41
  -1  -7   2  326.25   14.39
  -1  -7   2  337.99   14.43
  -1  -7   2  322.08   14.52
   0   7  -2   49.71    3.95
   0  -7   2   52.91    2.71
   0  -7   2   47.92    4.89
   0  -7   2   50.42    2.66
   0  -7   2   51.29    2.78
  -1   7  -2  157.01    8.83
   1  -7   2  161.10    7.36
   1  -7   2  160.44    7.42
   1  -7   2  160.52    7.32
  -2   7  -2  134.08    7.15
   2  -7   2  146.10    6.64
   2  -7   2  137.56    6.59
   2  -7   2  142.42    6.55
  -3   7  -2   51.64    2.80
  -3   7  -2   46.91    3.24
   3  -7   2   49.78    2.85
   3  -7   2   50.19    2.77
   3  -7   2   51.70    2.80
  -4   7  -2    5.47    0.84
   4  -7   2    5.17    0.80
   4  -7   2    5.61    0.88
  -5   7  -2   63.79    3.59
   5  -7   2   65.25    3.62
   5  -7   2   68.10    3.73
  -6   7  -2   34.52    2.41
   6  -7   2   34.71    2.46
   6  -7   2   39.57    2.51
  -7   7  -2    0.82    0.57
   7  -7   2    2.43    0.71
   7  -7   2    1.02    0.64
 -10  -6   2   21.15    5.24
 -10  -6   2   23.65    1.87
  -9  -6   2    0.69    1.27
  -9  -6   2    0.88    0.43
   8   6  -2   31.62    3.94
  -8  -6   2   35.10    2.13
  -8  -6   2   27.47    4.79
  -8  -6   2   31.74    4.81
   7   6  -2   28.97    3.52
  -7  -6   2   29.34    1.84
  -7  -6   2   24.70    4.07
   6   6  -2  239.42   13.23
  -6  -6   2  232.67   10.56
  -6  -6   2  236.43   14.64
  -6  -6   2  234.24   14.88
  -6  -6   2  243.72   13.44
  -6  -6   2  232.50   10.45
   5   6  -2   32.51    3.36
  -5  -6   2   33.73    3.99
  -5  -6   2   34.06    3.38
  -5  -6   2   32.15    1.87
  -5  -6   2   30.57    4.10
  -5  -6   2   30.85    1.84
   4   6  -2   16.61    1.42
   4   6  -2   15.44    2.14
  -4  -6   2   15.97    2.78
  -4  -6   2   15.49    2.06
  -4  -6   2   15.07    1.08
  -4  -6   2   15.37    1.12
  -4  -6   2   15.76    2.47
   3   6  -2  174.27    9.86
   3   6  -2  177.23    8.50
  -3  -6   2  188.22    9.63
  -3  -6   2  179.01   11.39
  -3  -6   2  181.11    8.04
  -3  -6   2  179.54    8.13
  -3  -6   2  177.05   10.30
   2   6  -2   72.28    4.89
   2   6  -2   67.50    3.78
  -2  -6   2   66.52    3.46
  -2  -6   2   72.56    4.35
  -2  -6   2   67.90    3.36
  -2  -6   2   70.00    3.39
  -2  -6   2   69.35    5.90
   1   6  -2    9.17    1.69
   1   6  -2    9.32    1.00
  -1  -6   2    8.22    0.72
  -1  -6   2    9.36    0.78
  -1  -6   2   10.85    2.54
  -1  -6   2    9.73    0.84
   0   6  -2   15.05    1.81
   0  -6   2   14.65    1.04
   0  -6   2   14.83    1.01
   0  -6   2   13.00    1.06
   0  -6   2   14.66    2.34
  -1   6  -2  167.82    8.87
   1  -6   2  163.79    7.54
   1  -6   2  171.92    7.69
   1  -6   2  167.31    7.64
  -2   6  -2  128.21    8.67
   2  -6   2  133.11    6.11
   2  -6   2  132.76    6.19
   2  -6   2  133.49    6.23
  -3   6  -2   16.44    1.22
  -3   6  -2   18.66    1.65
   3  -6   2   16.63    1.31
   3  -6   2   18.07    1.27
   3  -6   2   17.43    1.24
  -4   6  -2  154.62    7.75
  -4   6  -2  151.69    7.26
   4  -6   2  158.23    7.27
   4  -6   2  153.54    7.41
   4  -6   2  162.94    7.23
  -5   6  -2   96.10    4.83
   5  -6   2   98.24    4.86
   5  -6   2   94.63    4.99
  -6   6  -2    0.24    0.33
   6  -6   2    0.07    0.32
   6  -6   2    0.60    0.42
  -7   6  -2   50.55    3.17
   7  -6   2   49.76    3.17
   7  -6   2   55.77    3.35
  -8   6  -2    9.75    1.50
   8  -6   2    9.33    1.45
   8  -6   2   11.74    1.59
 -11  -5   2   21.52    1.59
 -11  -5   2   20.74    1.83
 -10  -5   2   36.13    2.21
 -10  -5   2   41.40    2.61
  -9  -5   2    5.58    2.57
  -9  -5   2    4.22    0.80
  -9  -5   2    4.44    0.65
   8   5  -2   37.73    4.18
  -8  -5   2   44.88    2.29
  -8  -5   2   41.17    5.60
  -8  -5   2   40.06    5.19
  -8  -5   2   45.91    2.57
   7   5  -2   16.82    3.03
  -7  -5   2   15.99    3.66
  -7  -5   2   11.54    3.22
  -7  -5   2   16.28    1.04
  -7  -5   2   14.14    1.20
  -7  -5   2   23.62    5.37
   6   5  -2   47.45    4.22
  -6  -5   2   48.26    2.31
  -6  -5   2   46.48    2.53
  -6  -5   2   47.33    4.21
  -6  -5   2   46.98    5.00
  -6  -5   2   44.39    5.04
   5   5  -2    7.20    1.70
   5   5  -2    6.71    1.03
  -5  -5   2    4.71    1.62
  -5  -5   2    7.30    1.73
  -5  -5   2    5.63    0.53
  -5  -5   2    5.71    2.07
  -5  -5   2    6.36    0.61
  -5  -5   2    5.71    0.69
   4   5  -2  245.22   11.29
   4   5  -2  249.81   11.11
   4   5  -2  246.55   12.81
  -4  -5   2  256.26   10.89
  -4  -5   2  245.72   14.23
  -4  -5   2  237.86   10.89
  -4  -5   2  253.48   12.61
  -4  -5   2  246.49   10.61
  -4  -5   2  251.88   13.40
   3   5  -2   67.25    3.68
   3   5  -2   74.71    4.87
   3   5  -2   68.51    3.56
  -3  -5   2   71.76    5.80
  -3  -5   2   67.41    3.32
  -3  -5   2   70.41    4.52
  -3  -5   2   60.83    4.70
  -3  -5   2   71.48    3.43
  -3  -5   2   75.84    3.13
   2   5  -2    9.53    0.90
   2   5  -2   10.64    0.99
   2   5  -2    9.12    1.67
  -2  -5   2   10.80    1.47
  -2  -5   2    9.91    2.27
  -2  -5   2   10.71    0.77
  -2  -5   2   10.09    1.28
  -2  -5   2   10.76    0.84
  -2  -5   2    9.95    0.74
  -2  -5   2    6.56    1.96
   1   5  -2  220.23   10.47
   1   5  -2  210.78   10.40
   1   5  -2  230.40   11.48
  -1  -5   2  236.35   12.74
  -1  -5   2  226.11   10.07
  -1  -5   2  254.24   10.82
  -1  -5   2  221.71   10.21
  -1  -5   2  241.10   10.49
  -1  -5   2  236.42   10.14
   0   5  -2   96.96    5.76
   0  -5   2   96.42    4.65
   0  -5   2  107.19    4.78
   0  -5   2  111.40    6.93
   0  -5   2   99.67    4.81
  -1   5  -2   12.02    1.46
   1  -5   2   13.27    0.98
   1  -5   2   12.33    0.88
   1  -5   2   12.43    0.95
  -2   5  -2    8.65    1.20
   2  -5   2    8.74    0.77
   2  -5   2    8.73    0.72
   2  -5   2    8.25    0.79
  -3   5  -2  121.99    5.71
  -3   5  -2  121.61    6.15
   3  -5   2  118.61    5.69
   3  -5   2  126.89    5.89
   3  -5   2  125.55    5.73
  -4   5  -2   37.69    2.20
  -4   5  -2   40.63    2.56
   4  -5   2   37.08    2.19
   4  -5   2   41.34    2.17
   4  -5   2   37.81    2.35
  -5   5  -2   12.52    1.11
  -5   5  -2   13.32    1.57
   5  -5   2   12.60    1.11
   5  -5   2   14.98    1.31
  -6   5  -2   91.98    4.68
   6  -5   2   91.09    4.68
   6  -5   2   89.21    4.82
  -7   5  -2   84.54    4.51
   7  -5   2   82.26    4.51
   7  -5   2   83.84    4.64
  -8   5  -2    2.16    0.72
   8  -5   2    2.28    0.72
   8  -5   2    2.19    0.80
 -11  -4   2   18.66    1.46
 -10  -4   2    2.16    0.69
 -10  -4   2    1.92    0.53
  -9  -4   2   18.57    1.54
  -9  -4   2   20.07    4.37
  -9  -4   2   17.93    1.29
  -8  -4   2   64.44    3.25
  -8  -4   2   64.20    6.46
  -8  -4   2   67.37    3.54
  -8  -4   2   64.81    6.96
   7   4  -2   -0.06    0.42
  -7  -4   2    1.72    1.25
  -7  -4   2    0.61    0.73
  -7  -4   2    1.01    0.63
  -7  -4   2    1.08    0.31
  -7  -4   2    1.23    0.38
  -7  -4   2    0.63    0.94
   6   4  -2  114.33    7.45
  -6  -4   2  122.23    7.52
  -6  -4   2  124.42    5.64
  -6  -4   2  117.10    5.89
  -6  -4   2  120.54    8.60
  -6  -4   2  121.51    5.40
  -6  -4   2  120.22    8.72
   5   4  -2   82.54    4.22
   5   4  -2   80.40    5.49
  -5  -4   2   79.05    6.45
  -5  -4   2   81.62    3.69
  -5  -4   2   82.28    5.38
  -5  -4   2   82.97    6.19
  -5  -4   2   80.90    3.79
  -5  -4   2   80.32    4.18
  -5  -4   2   82.41    3.90
   4   4  -2    2.18    0.49
   4   4  -2    1.82    0.76
   4   4  -2    2.77    0.52
  -4  -4   2    2.67    0.31
  -4  -4   2    3.14    1.01
  -4  -4   2    2.84    1.06
  -4  -4   2    2.41    0.40
  -4  -4   2    3.43    0.65
  -4  -4   2    1.99    0.37
  -4  -4   2    3.01    1.32
   3   4  -2   27.29    1.76
   3   4  -2   27.21    1.66
   3   4  -2   28.65    2.56
  -3  -4   2   27.88    3.14
  -3  -4   2   28.39    1.58
  -3  -4   2   28.51    1.51
  -3  -4   2   28.66    1.33
  -3  -4   2   28.37    2.36
  -3  -4   2   27.71    2.58
   2   4  -2  160.22    7.32
   2   4  -2  158.47    8.37
   2   4  -2  163.18    6.84
   2   4  -2  152.12    7.38
  -2  -4   2  166.04    8.07
  -2  -4   2  160.27    7.06
  -2  -4   2  147.15    8.04
  -2  -4   2  164.95    9.45
  -2  -4   2  166.36    7.11
  -2  -4   2  165.30    7.20
   1   4  -2  168.91    8.47
   1   4  -2  179.07    8.35
   1   4  -2  185.06    9.21
  -1  -4   2  191.80    8.63
  -1  -4   2  177.65    7.99
  -1  -4   2  182.86    8.07
  -1  -4   2  190.64    8.55
  -1  -4   2  190.17   10.21
  -1  -4   2  179.62    8.15
  -1  -4   2  187.32    8.75
   0   4  -2   30.10    2.41
   0  -4   2   32.33    1.81
   0  -4   2   37.07    3.14
   0  -4   2   33.43    1.93
   0  -4   2   31.27    1.75
   0  -4   2   32.27    1.67
  -1   4  -2  401.15   16.60
  -1   4  -2  390.34   17.79
   1  -4   2  368.45   17.65
   1  -4   2  402.14   16.96
   1  -4   2  384.46   16.81
   1  -4   2  406.05   16.98
  -2   4  -2  193.57    9.37
  -2   4  -2  193.38    8.57
  -2   4  -2  193.66    8.35
  -2   4  -2  189.15    8.98
   2  -4   2  194.85    9.74
   2  -4   2  201.92    8.76
   2  -4   2  180.73    8.78
   2  -4   2  204.02    9.36
   2  -4   2  198.12    8.58
   2  -4   2  199.44    8.68
  -3   4  -2    5.75    0.44
  -3   4  -2    5.53    0.96
  -3   4  -2    4.20    0.91
  -3   4  -2    5.30    2.23
  -3   4  -2    6.62    0.97
  -3   4  -2    5.39    0.66
   3  -4   2    6.46    0.59
   3  -4   2    4.33    0.69
   3  -4   2    7.46    0.65
  -4   4  -2   53.15    2.74
  -4   4  -2   52.49    3.00
  -4   4  -2   47.65    2.46
  -4   4  -2   51.92    3.20
   4  -4   2   52.39    2.91
   4  -4   2   57.84    2.70
   4  -4   2   51.68    2.73
  -5   4  -2  101.60    4.69
  -5   4  -2  107.54    5.03
  -5   4  -2  103.84    5.25
   5  -4   2  104.36    5.01
   5  -4   2   99.10    5.17
  -6   4  -2   23.21    1.62
  -6   4  -2   22.40    1.29
  -6   4  -2   22.54    1.74
   6  -4   2   18.08    1.51
   6  -4   2   18.90    1.61
  -7   4  -2    0.17    0.24
  -7   4  -2    0.48    0.39
   7  -4   2    0.60    0.43
   7  -4   2    0.99    0.48
  -8   4  -2   25.31    1.97
  -8   4  -2   23.74    1.53
   8  -4   2   23.18    1.93
  -9   4  -2   41.94    2.86
  -9   4  -2   38.68    2.32
   9  -4   2   43.43    2.98
 -11  -3   2    4.56    0.98
 -11  -3   2    4.14    0.75
 -10  -3   2   21.38    1.54
 -10  -3   2   21.58    1.82
  -9  -3   2   43.90    2.62
  -9  -3   2   37.92    2.27
  -8  -3   2    7.63    2.50
  -8  -3   2    9.08    1.15
  -8  -3   2    7.43    0.82
  -8  -3   2    7.80    2.73
  -8  -3   2    7.27    2.12
  -7  -3   2   28.91    3.95
  -7  -3   2   27.95    3.70
  -7  -3   2   27.20    1.89
  -7  -3   2   28.30    1.58
  -7  -3   2   26.64    1.76
  -7  -3   2   28.43    3.10
   6   3  -2  254.07   14.04
  -6  -3   2  296.53   14.31
  -6  -3   2  282.34   15.64
  -6  -3   2  282.05   15.65
  -6  -3   2  286.09   12.36
  -6  -3   2  276.85   12.12
  -6  -3   2  282.19   12.54
   5   3  -2  109.27    6.72
   5   3  -2  115.78    5.49
  -5  -3   2  112.89    5.21
  -5  -3   2  110.55    5.05
  -5  -3   2  114.89    5.05
  -5  -3   2  114.04    6.60
  -5  -3   2  109.58    5.40
  -5  -3   2  116.08    7.87
  -5  -3   2  117.29    7.59
   4   3  -2  223.06    9.93
   4   3  -2  222.41    9.81
   4   3  -2  216.84   11.17
   4   3  -2  224.87   10.99
  -4  -3   2  217.56    9.89
  -4  -3   2  216.81    9.64
  -4  -3   2  228.42   11.76
  -4  -3   2  220.00    9.61
  -4  -3   2  215.65    9.50
  -4  -3   2  217.71   12.29
  -4  -3   2  229.40   11.00
   3   3  -2  347.17   15.72
   3   3  -2  360.77   16.88
   3   3  -2  362.22   15.63
   3   3  -2  356.73   15.32
   3   3  -2  376.90   16.82
  -3  -3   2  369.45   15.52
  -3  -3   2  357.83   17.99
  -3  -3   2  360.53   15.45
  -3  -3   2  365.64   16.61
  -3  -3   2  351.72   15.72
  -3  -3   2  355.20   17.01
  -3  -3   2  367.71   15.32
   2   3  -2   93.27    4.43
   2   3  -2   92.20    4.49
   2   3  -2   97.53    5.37
   2   3  -2   96.89    4.08
  -2  -3   2   97.30    4.35
  -2  -3   2   94.50    5.08
  -2  -3   2   93.59    6.10
  -2  -3   2   91.08    5.13
  -2  -3   2   93.65    4.21
   1   3  -2   37.47    2.09
   1   3  -2   38.07    2.66
   1   3  -2   35.93    2.34
  -1  -3   2   38.82    1.98
  -1  -3   2   39.14    3.21
  -1  -3   2   38.22    2.28
  -1  -3   2   41.14    2.41
  -1  -3   2   38.06    2.43
  -1  -3   2   36.59    1.82
   0   3  -2  286.18   13.54
   0  -3   2  319.73   14.34
   0  -3   2  287.46   12.70
   0  -3   2  285.37   12.62
   0  -3   2  297.66   12.81
   0  -3   2  295.71   13.16
  -1   3  -2  181.56    8.90
  -1   3  -2  189.27    8.00
   1  -3   2  198.95    8.33
   1  -3   2  187.88    8.15
   1  -3   2  203.44    8.30
   1  -3   2  207.71    9.46
   1  -3   2  172.90    8.36
   1  -3   2  185.07    8.89
   1  -3   2  160.40    8.17
   1  -3   2  194.94    8.32
  -2   3  -2   38.22    2.26
  -2   3  -2   38.86    1.99
  -2   3  -2   35.11    2.43
  -2   3  -2   39.21    1.84
   2  -3   2   41.62    2.09
   2  -3   2   41.27    2.62
   2  -3   2   41.12    2.43
   2  -3   2   42.35    2.56
   2  -3   2   39.26    2.15
   2  -3   2   41.14    2.00
  -3   3  -2   38.10    2.82
  -3   3  -2   45.90    2.44
  -3   3  -2   41.57    1.99
  -3   3  -2   35.29    3.43
  -3   3  -2   43.46    2.17
  -3   3  -2   41.77    2.60
   3  -3   2   41.91    2.15
   3  -3   2   44.03    2.19
   3  -3   2   42.61    2.34
   3  -3   2   47.25    2.61
  -4   3  -2  270.59   15.06
  -4   3  -2  287.99   12.19
  -4   3  -2  291.68   12.43
  -4   3  -2  281.35   12.63
  -4   3  -2  283.53   12.87
   4  -3   2  283.09   12.41
  -5   3  -2   11.68    1.09
  -5   3  -2   12.55    1.20
  -5   3  -2   12.27    0.82
  -5   3  -2   11.53    2.73
  -5   3  -2   12.01    1.00
   5  -3   2   11.56    1.00
  -6   3  -2   69.99    3.76
  -6   3  -2   66.55    3.29
  -6   3  -2   69.83    3.63
   6  -3   2   68.99    3.64
  -7   3  -2   40.84    2.25
  -7   3  -2   41.39    2.60
  -7   3  -2   43.29    2.74
   7  -3   2   45.22    2.67
  -8   3  -2   11.78    0.97
  -8   3  -2   12.14    1.47
  -9   3  -2    0.69    0.36
  -9   3  -2    0.23    0.48
 -10   3  -2    6.67    0.92
 -10   3  -2    7.90    1.34
 -11  -2   2   25.70    1.88
 -11  -2   2   30.48    2.27
 -10  -2   2    6.59    0.91
 -10  -2   2    8.01    1.25
  -9  -2   2    3.49    0.60
  -9  -2   2    2.97    0.71
  -8  -2   2   70.22    7.10
  -8  -2   2   75.43    3.86
  -8  -2   2   70.06    3.54
  -7  -2   2    9.10    0.85
  -7  -2   2    8.94    0.93
  -7  -2   2    9.44    1.97
  -7  -2   2    7.50    0.95
  -7  -2   2    7.12    2.14
  -7  -2   2    7.72    2.18
  -6  -2   2    2.09    0.47
  -6  -2   2    2.27    0.92
  -6  -2   2    2.37    0.50
  -6  -2   2    1.47    0.30
  -6  -2   2    2.26    1.13
  -6  -2   2    1.52    1.02
   5   2  -2    0.69    0.29
  -5  -2   2    0.81    0.21
  -5  -2   2    0.87    0.31
  -5  -2   2    0.45    0.61
  -5  -2   2    0.75    0.69
  -5  -2   2    0.70    0.28
  -5  -2   2    0.55    0.47
   4   2  -2  264.61   14.01
   4   2  -2  270.77   13.60
   4   2  -2  298.68   12.69
   4   2  -2  294.88   13.01
   4   2  -2  298.25   12.91
  -4  -2   2  310.26   12.84
  -4  -2   2  302.42   12.70
  -4  -2   2  306.98   14.00
  -4  -2   2  299.07   12.96
  -4  -2   2  303.29   14.88
  -4  -2   2  300.91   12.71
  -4  -2   2  307.35   15.42
  -4  -2   2  299.22   12.98
   3   2  -2  170.61    7.30
   3   2  -2  173.33    7.61
   3   2  -2  156.73    8.48
   3   2  -2  165.48    7.49
   3   2  -2  167.36    8.32
  -3  -2   2  169.86    7.57
  -3  -2   2  170.56    7.39
  -3  -2   2  175.29    8.90
  -3  -2   2  175.31    7.42
  -3  -2   2  171.14    8.35
  -3  -2   2  168.71    9.51
   2   2  -2   16.13    1.57
   2   2  -2   18.61    0.86
   2   2  -2   17.58    1.05
   2   2  -2   16.66    1.09
   2   2  -2   16.79    1.53
  -2  -2   2   18.26    1.52
  -2  -2   2   17.34    0.91
  -2  -2   2   16.88    1.07
  -2  -2   2   17.19    1.01
  -2  -2   2   17.36    2.04
  -2  -2   2   16.98    1.59
   1   2  -2  367.90   17.55
   1   2  -2  358.98   17.37
   1   2  -2  385.60   17.57
   1   2  -2  392.35   16.90
  -1  -2   2  390.09   17.42
  -1  -2   2  410.25   18.46
  -1  -2   2  410.21   16.89
  -1  -2   2  412.11   17.49
  -1  -2   2  387.06   16.62
  -1  -2   2  406.66   16.83
   0   2  -2  270.53   13.35
   0   2  -2  285.33   13.50
   0   2  -2  307.39   13.11
   0  -2   2  298.14   13.29
   0  -2   2  310.44   14.02
   0  -2   2  293.82   12.60
   0  -2   2  307.67   12.91
   0  -2   2  297.43   12.80
  -1   2  -2  114.57    4.71
  -1   2  -2  100.44    5.36
   1  -2   2   90.73    5.15
   1  -2   2  117.93    4.99
   1  -2   2  111.01    5.42
   1  -2   2  109.35    4.79
   1  -2   2  112.86    5.28
   1  -2   2  104.18    5.57
   1  -2   2  123.12    5.75
  -2   2  -2  796.41   38.76
  -2   2  -2  920.47   38.36
  -2   2  -2  811.51   38.52
  -2   2  -2  917.28   38.00
  -2   2  -2  902.20   38.11
   2  -2   2  986.34   38.35
   2  -2   2  935.09   38.67
   2  -2   2  899.54   38.11
   2  -2   2  945.02   38.24
  -3   2  -2  238.51   10.02
  -3   2  -2  202.84   10.61
  -3   2  -2  202.47   11.96
  -3   2  -2  228.43   10.42
  -3   2  -2  234.77    9.86
  -3   2  -2  240.44   10.20
   3  -2   2  235.57   10.01
   3  -2   2  249.98   10.42
  -4   2  -2    1.16    0.34
  -4   2  -2    1.16    0.38
  -4   2  -2    0.68    0.66
  -4   2  -2    0.52    0.66
  -4   2  -2    0.64    0.79
  -4   2  -2    1.41    0.48
  -4   2  -2    0.99    0.24
   4  -2   2    1.20    0.39
   4  -2   2    1.06    0.32
   4  -2   2    1.67    0.33
  -5   2  -2   46.13    4.70
  -5   2  -2   44.68    2.60
  -5   2  -2   43.40    2.41
  -5   2  -2   45.28    2.20
  -5   2  -2   40.80    4.36
  -5   2  -2   44.26    2.50
   5  -2   2   44.06    2.43
  -6   2  -2  293.69   12.81
  -6   2  -2  295.96   12.90
  -6   2  -2  279.41   12.44
  -6   2  -2  273.34   16.70
   6  -2   2  289.20   12.81
  -7   2  -2   60.32    3.25
  -7   2  -2   61.55    3.34
  -7   2  -2   49.18    6.03
  -7   2  -2   55.47    2.86
  -8   2  -2   61.83    3.18
  -8   2  -2   59.77   12.85
  -8   2  -2   64.41    3.58
  -9   2  -2   59.75    3.27
  -9   2  -2   70.27    3.83
 -10   2  -2   16.87    1.89
 -10   2  -2   18.99    1.41
 -11  -1   2   17.33    1.48
 -11  -1   2   21.54    2.20
 -10  -1   2   32.46    2.29
 -10  -1   2   29.11    1.94
  -9  -1   2   83.36    4.36
  -9  -1   2   78.52    4.02
  -8  -1   2   36.09    2.31
  -8  -1   2   36.62    4.84
  -8  -1   2   37.91    2.09
  -7  -1   2   27.63    3.73
  -7  -1   2   24.20    1.47
  -7  -1   2   24.43    1.67
  -7  -1   2   25.28    3.22
  -6  -1   2  197.57   11.60
  -6  -1   2  187.71    8.43
  -6  -1   2  194.42    9.96
  -6  -1   2  193.54   11.17
  -6  -1   2  183.79    8.63
  -6  -1   2  194.14    8.68
   5   1  -2   25.37    1.87
  -5  -1   2   21.80    1.41
  -5  -1   2   24.74    2.84
  -5  -1   2   22.59    2.07
  -5  -1   2   23.69    1.44
  -5  -1   2   24.08    1.29
  -5  -1   2   24.44    2.83
   4   1  -2   11.76    0.85
   4   1  -2   10.53    0.78
   4   1  -2   10.81    0.69
  -4  -1   2   10.33    0.78
  -4  -1   2   12.62    1.90
  -4  -1   2   10.90    1.23
  -4  -1   2   11.00    1.65
  -4  -1   2   10.98    0.79
  -4  -1   2   11.05    0.82
  -4  -1   2   11.76    0.70
   3   1  -2  132.36    6.09
   3   1  -2  140.48    5.98
   3   1  -2  136.05    6.17
  -3  -1   2  141.44    7.51
  -3  -1   2  140.92    6.16
  -3  -1   2  137.91    6.80
  -3  -1   2  138.32    6.06
  -3  -1   2  137.37    8.03
  -3  -1   2  136.81    6.13
  -2  -1   2  917.68   39.94
  -2  -1   2  907.50   38.84
  -2  -1   2  901.68   39.47
  -2  -1   2  946.09   40.91
   1   1  -2  919.25   38.81
   1   1  -2  898.78   39.57
  -1  -1   2  856.60   39.42
  -1  -1   2  994.61   40.69
   0   1  -2    0.17    0.23
   0  -1   2    0.29    0.34
   0  -1   2    0.23    0.13
   0  -1   2    1.09    0.36
   0  -1   2    0.35    0.38
   0  -1   2    0.21    0.26
  -1   1  -2  720.40   29.71
  -1   1  -2  670.87   30.29
   1  -1   2  747.61   31.12
   1  -1   2  679.71   30.23
  -2   1  -2  214.21    9.10
  -2   1  -2  219.19    9.03
  -2   1  -2  207.64    9.45
  -2   1  -2  215.86    9.21
  -2   1  -2  200.92    9.59
   2  -1   2  214.12   10.21
   2  -1   2  194.07    9.34
   2  -1   2  214.10    9.47
   2  -1   2  221.79    9.11
  -3   1  -2    6.02    1.69
  -3   1  -2    6.18    0.46
  -3   1  -2    7.14    0.72
  -3   1  -2    6.91    0.96
  -3   1  -2    7.12    0.57
  -3   1  -2    6.95    0.60
  -3   1  -2    6.17    1.59
   3  -1   2    6.33    0.66
   3  -1   2    5.53    0.83
   3  -1   2    7.21    0.58
   3  -1   2    7.95    0.83
   3  -1   2    7.32    0.66
   3  -1   2    6.87    0.50
  -4   1  -2  153.73    9.91
  -4   1  -2  176.72    7.94
  -4   1  -2  160.66    8.15
  -4   1  -2  173.56    7.76
  -4   1  -2  180.18    7.57
  -4   1  -2  172.31    7.80
  -4   1  -2  166.38   10.34
   4  -1   2  177.52    7.68
   4  -1   2  175.79    7.77
   4  -1   2  186.17    7.64
   4  -1   2  181.05    7.92
  -5   1  -2  144.65    6.71
  -5   1  -2  141.03    9.70
  -5   1  -2  147.91    6.47
  -5   1  -2  136.02    9.21
  -5   1  -2  145.58    6.75
  -5   1  -2  153.65    6.88
   5  -1   2  150.17    6.74
  -6   1  -2    7.64    0.73
  -6   1  -2    7.69    0.96
  -6   1  -2    7.07    0.97
  -6   1  -2    8.46    1.00
  -6   1  -2    7.27    2.36
  -6   1  -2    7.20    2.27
  -7   1  -2    4.56    2.18
  -7   1  -2    4.17    0.54
  -7   1  -2    3.99    0.81
  -7   1  -2    4.34    0.75
  -8   1  -2   57.00    3.42
  -8   1  -2   62.61    3.36
  -8   1  -2   49.59    6.57
  -8   1  -2   59.80    2.99
  -9   1  -2   82.04    4.08
  -9   1  -2   83.19    4.51
 -10   1  -2    3.03    0.61
 -10   1  -2    5.25    1.11
 -11   0   2   12.17    1.68
 -11   0   2   11.59    1.27
 -10   0   2    6.17    0.89
 -10   0   2    6.84    1.21
  -9   0   2    4.05    0.66
  -9   0   2    5.44    0.98
  -8   0   2    0.46    0.29
  -8   0   2    1.19    1.16
  -8   0   2    0.95    0.50
  -8   0   2   -0.18    0.39
  -7   0   2   82.45    6.93
  -7   0   2   80.39    3.88
  -7   0   2   81.82    4.15
  -7   0   2   80.89    4.31
  -6   0   2  200.35    9.15
  -6   0   2  210.44   11.67
  -6   0   2  213.46    9.41
  -6   0   2  211.25   12.26
  -6   0   2  209.88    9.35
  -6   0   2  206.68    9.55
  -5   0   2    0.53    0.32
  -5   0   2    0.91    0.24
  -5   0   2    0.93    0.47
  -5   0   2    1.03    0.29
  -5   0   2    1.06    0.78
  -5   0   2    1.16    0.79
  -5   0   2    0.40    0.29
   4   0  -2  488.54   20.82
   4   0  -2  473.97   20.68
  -4   0   2  478.88   20.78
  -4   0   2  484.17   21.40
  -4   0   2  483.13   20.83
  -4   0   2  479.84   20.68
  -4   0   2  473.87   20.82
  -4   0   2  500.03   20.96
  -4   0   2  508.17   22.91
  -4   0   2  497.40   23.21
   3   0  -2   63.44    3.02
   3   0  -2   65.62    3.07
   3   0  -2   66.96    2.98
  -3   0   2   69.21    3.18
  -3   0   2   62.63    3.38
  -3   0   2   70.76    4.39
  -3   0   2   71.35    4.96
  -3   0   2   64.47    3.06
  -3   0   2   64.69    3.03
  -3   0   2   65.28    3.07
   2   0  -2  485.02   20.29
   2   0  -2  453.46   20.30
   2   0  -2  466.84   20.37
  -2   0   2  479.90   20.36
  -2   0   2  506.04   20.43
  -2   0   2  473.32   20.33
  -2   0   2  501.46   21.63
  -2   0   2  495.02   22.84
  -2   0   2  460.81   20.33
   1   0  -2  348.50   14.80
   1   0  -2  363.03   15.86
   1   0  -2  343.73   14.85
   1   0  -2  339.57   14.91
  -1   0   2  347.65   15.84
  -1   0   2  363.55   16.00
  -1   0   2  346.20   14.90
   0   0  -2  228.28   11.34
   0   0   2  245.17   12.60
  -1   0  -2    0.78    0.29
  -1   0  -2    0.73    0.14
  -1   0  -2   -0.11    0.37
  -1   0  -2    0.41    0.19
  -1   0  -2    0.08    0.39
  -1   0  -2    0.86    0.14
   1   0   2    0.56    0.23
   1   0   2    0.82    0.28
   1   0   2    0.09    0.40
   1   0   2   -0.01    0.44
   1   0   2    0.36    0.50
  -2   0  -2    3.63    0.33
  -2   0  -2    3.50    0.56
  -2   0  -2    4.35    0.53
  -2   0  -2    3.21    0.26
  -2   0  -2    4.05    0.33
  -2   0  -2    2.02    0.87
  -2   0  -2    1.83    0.91
   2   0   2    3.09    0.30
   2   0   2    4.12    0.35
   2   0   2    3.36    1.04
   2   0   2    3.89    0.55
   2   0   2    3.55    0.42
  -3   0  -2  458.00   18.57
  -3   0  -2  374.39   20.59
  -3   0  -2  450.74   18.42
  -3   0  -2  454.35   18.71
  -3   0  -2  408.86   18.53
  -3   0  -2  397.69   20.99
  -3   0  -2  445.42   18.86
   3   0   2  458.42   18.72
   3   0   2  451.80   18.84
  -4   0  -2  203.50    9.25
  -4   0  -2  210.04    9.28
  -4   0  -2  205.60    9.36
  -4   0  -2  202.66    9.54
  -4   0  -2  214.68    9.09
  -4   0  -2  195.48   11.57
  -4   0  -2  207.98   12.15
   4   0   2  221.29    9.40
   4   0   2  201.05    9.52
   4   0   2  236.01   10.03
  -5   0  -2    2.00    0.43
  -5   0  -2    1.28    0.39
  -5   0  -2    1.91    1.18
  -5   0  -2    1.29    0.27
  -5   0  -2    1.33    0.36
  -5   0  -2    1.59    1.08
   5   0   2    1.86    0.52
   5   0   2    1.55    0.38
   5   0   2    1.94    0.34
  -6   0  -2  179.74    8.05
  -6   0  -2  185.42    8.40
  -6   0  -2  172.08   11.37
  -6   0  -2  183.44    8.31
  -6   0  -2  183.07   12.24
  -6   0  -2  189.36    8.45
  -7   0  -2  241.92   15.85
  -7   0  -2  285.06   12.37
  -7   0  -2  276.45   11.88
  -7   0  -2  290.81   12.41
  -7   0  -2  278.44   12.21
  -7   0  -2  247.65   16.70
  -8   0  -2   12.23    3.79
  -8   0  -2   14.27    1.05
  -8   0  -2   11.82    1.46
  -8   0  -2   16.22    1.38
  -9   0  -2   87.18    4.38
  -9   0  -2   93.96    4.87
 -10   0  -2   32.16    2.41
 -10   0  -2   32.43    1.99
 -11   0  -2   23.56    2.09
 -11   0  -2   22.36    1.63
 -10   1   2    0.80    0.43
 -10   1   2    1.27    0.73
  -9   1   2   63.17    3.37
  -9   1   2   65.19    3.71
  -8   1   2   55.60    3.25
  -8   1   2   58.48    6.21
  -8   1   2   57.50    2.97
  -7   1   2    2.40    0.46
  -7   1   2    1.66    0.47
  -7   1   2    1.92    1.26
  -7   1   2    2.40    0.66
  -6   1   2   73.21    3.86
  -6   1   2   71.91    3.84
  -6   1   2   74.42    5.98
  -6   1   2   74.02    3.75
  -6   1   2   74.52    3.50
  -5   1   2  105.32    6.85
  -5   1   2  105.49    5.11
  -5   1   2  106.78    7.04
  -5   1   2  106.33    5.04
  -5   1   2  107.67    4.93
  -5   1   2  108.13    4.83
   4  -1  -2  316.77   13.77
   4  -1  -2  323.94   13.91
   4  -1  -2  328.76   13.72
  -4   1   2  326.88   15.83
  -4   1   2  325.12   16.26
  -4   1   2  326.33   13.91
  -4   1   2  306.67   13.94
  -4   1   2  314.48   13.77
  -4   1   2  313.02   13.81
  -4   1   2  321.44   13.72
   3  -1  -2    4.72    0.40
   3  -1  -2    4.68    0.41
   3  -1  -2    5.71    0.50
   3  -1  -2    4.62    0.38
  -3   1   2    4.55    0.39
  -3   1   2    5.30    0.42
  -3   1   2    5.58    1.70
  -3   1   2    4.66    0.56
  -3   1   2    5.31    1.23
  -3   1   2    4.88    0.54
   2  -1  -2  704.96   29.15
   2  -1  -2  665.94   27.68
   2  -1  -2  651.51   27.75
  -2   1   2  681.10   29.09
  -2   1   2  644.07   27.74
  -2   1   2  644.69   27.81
  -2   1   2  596.45   30.70
   1  -1  -2   81.19    4.57
   1  -1  -2   76.44    3.60
   1  -1  -2   79.64    3.52
  -1   1   2   81.89    3.59
  -1   1   2   84.08    4.62
  -1   1   2   82.25    4.78
  -1   1   2   81.34    3.51
  -1   1   2   81.01    3.48
   0  -1  -2   75.00    3.19
   0  -1  -2   71.14    3.33
   0   1   2   74.84    3.18
   0   1   2   69.95    3.31
   0   1   2   76.21    3.24
  -1  -1  -2   86.11    3.96
  -1  -1  -2   88.11    3.77
  -1  -1  -2   87.44    3.86
   1   1   2   87.55    3.88
  -2  -1  -2  342.67   14.64
  -2  -1  -2  357.80   14.77
  -2  -1  -2  353.33   14.86
  -2  -1  -2  336.35   14.64
  -2  -1  -2  353.10   14.61
   2   1   2  302.88   16.22
   2   1   2  348.52   14.79
   2   1   2  353.63   14.79
   2   1   2  349.43   14.63
  -3  -1  -2  291.95   13.24
  -3  -1  -2  315.72   13.14
  -3  -1  -2  315.47   13.36
  -3  -1  -2  260.23   15.66
  -3  -1  -2  295.90   13.26
   3   1   2  348.52   14.82
   3   1   2  312.00   13.39
   3   1   2  325.24   13.39
  -4  -1  -2   10.22    0.84
  -4  -1  -2   11.89    2.04
  -4  -1  -2   11.72    0.91
  -4  -1  -2   11.41    2.58
  -4  -1  -2   13.51    0.78
  -4  -1  -2   13.22    0.95
   4   1   2   14.89    1.54
   4   1   2   12.04    0.96
   4   1   2   15.80    1.02
  -5  -1  -2  161.78   10.09
  -5  -1  -2  161.65    7.42
  -5  -1  -2  165.18    7.13
  -5  -1  -2  148.28   10.48
  -5  -1  -2  161.84    7.40
  -5  -1  -2  160.68    7.57
  -5  -1  -2  143.37    7.28
   5   1   2  163.26    7.43
   5   1   2  181.09    8.33
   5   1   2  169.72    7.55
  -6  -1  -2   77.46    6.54
  -6  -1  -2   79.24    3.65
  -6  -1  -2   80.11    3.99
  -6  -1  -2   78.28    7.14
  -6  -1  -2   80.35    3.99
  -6  -1  -2   72.09    3.86
  -7  -1  -2   38.64    2.43
  -7  -1  -2   42.09    5.42
  -7  -1  -2   42.23    2.19
  -7  -1  -2   45.93    2.63
  -7  -1  -2   38.02    4.76
  -7  -1  -2   44.40    2.57
  -8  -1  -2   22.14    1.80
  -8  -1  -2   16.87    3.90
  -8  -1  -2   19.12    4.66
  -8  -1  -2   20.53    1.34
  -8  -1  -2   25.01    1.73
  -9  -1  -2   42.74    2.34
  -9  -1  -2   41.11    2.67
 -10  -1  -2    1.16    0.38
 -10  -1  -2    0.58    0.48
 -11  -1  -2   12.73    1.69
 -11  -1  -2   12.83    1.27
 -10   2   2    7.67    1.01
 -10   2   2    6.10    1.24
  -9   2   2   52.06    3.25
  -9   2   2   54.04    2.94
  -8   2   2   14.15    1.56
  -8   2   2   13.12    3.35
  -8   2   2   14.13    1.12
  -7   2   2   44.59    4.82
  -7   2   2   42.14    2.68
  -7   2   2   44.65    2.62
  -7   2   2   41.35    2.28
   6  -2  -2  165.10    7.76
  -6   2   2  170.61    7.89
  -6   2   2  161.18    7.45
  -6   2   2  174.62   10.53
  -6   2   2  168.52    7.77
   5  -2  -2    0.12    0.22
  -5   2   2    0.49    0.22
  -5   2   2    0.82    0.35
  -5   2   2    0.28    0.16
  -5   2   2    0.41    0.26
  -5   2   2    0.27    0.47
   4  -2  -2    5.91    0.68
   4  -2  -2    4.48    0.48
  -4   2   2    6.27    1.79
  -4   2   2    7.15    0.76
  -4   2   2    4.78    0.49
  -4   2   2    5.82    0.74
  -4   2   2    4.56    0.49
  -4   2   2    5.00    1.38
  -4   2   2    5.56    0.49
   3  -2  -2  342.13   13.93
   3  -2  -2  329.33   14.05
  -3   2   2  324.50   14.05
  -3   2   2  288.68   17.01
  -3   2   2  347.82   15.71
  -3   2   2  326.16   13.93
  -3   2   2  332.10   14.18
  -3   2   2  316.83   13.96
   2  -2  -2  265.58   12.30
   2  -2  -2  260.69   10.89
   2  -2  -2  245.26   10.95
  -2   2   2  255.09   11.09
  -2   2   2  254.75   10.85
  -2   2   2  250.59   10.97
  -2   2   2  246.53   10.85
  -2   2   2  266.35   12.38
   1  -2  -2   72.16    4.23
   1  -2  -2   70.28    3.11
   1  -2  -2   70.26    3.06
   1  -2  -2   68.27    3.20
  -1   2   2   70.09    3.23
  -1   2   2   66.24    4.17
   0  -2  -2   97.18    4.14
   0  -2  -2   96.49    4.21
   0  -2  -2   95.20    4.11
   0   2   2   92.61    4.10
   0   2   2   96.69    4.09
  -1  -2  -2  394.26   20.66
   1   2   2  494.04   21.22
  -2  -2  -2  123.67    5.31
  -2  -2  -2  124.55    5.36
  -2  -2  -2  127.58    5.38
  -2  -2  -2  122.01    5.43
   2   2   2  120.46    5.44
   2   2   2  120.88    5.46
  -3  -2  -2  412.14   16.54
  -3  -2  -2  400.50   16.69
  -3  -2  -2  395.81   16.49
  -3  -2  -2  387.37   16.58
  -3  -2  -2  318.61   19.22
   3   2   2  390.68   16.70
   3   2   2  405.51   16.73
  -4  -2  -2  106.01    4.51
  -4  -2  -2   99.44    4.60
  -4  -2  -2  102.31    4.48
  -4  -2  -2  102.51    4.72
  -4  -2  -2   92.54    6.79
  -4  -2  -2   90.19    7.28
   4   2   2  104.45    4.75
   4   2   2  103.80    4.75
  -5  -2  -2   13.54    2.88
  -5  -2  -2   12.40    0.98
  -5  -2  -2   13.19    0.81
  -5  -2  -2   11.65    0.92
  -5  -2  -2   11.94    0.78
  -5  -2  -2   12.22    2.96
   5   2   2   12.18    1.00
   5   2   2   13.45    1.23
   5   2   2   13.46    1.02
  -6  -2  -2   86.33    7.25
  -6  -2  -2  100.42    4.69
  -6  -2  -2   88.04    7.94
  -6  -2  -2   88.74    4.53
  -6  -2  -2   94.04    4.33
   6   2   2  103.58    5.15
  -7  -2  -2   71.27    3.89
  -7  -2  -2   78.11    7.09
  -7  -2  -2   78.07    3.66
  -7  -2  -2   69.56    7.40
  -7  -2  -2   83.69    4.08
  -8  -2  -2   20.43    1.61
  -8  -2  -2   20.07    1.29
  -8  -2  -2   19.59    4.42
  -8  -2  -2   21.23    5.08
  -9  -2  -2   15.06    1.11
  -9  -2  -2   13.14    1.49
 -10  -2  -2    4.91    0.98
 -10  -2  -2    4.85    0.74
 -11  -2  -2   64.68    3.48
 -11  -2  -2   66.92    3.97
 -10   3   2    5.47    1.17
 -10   3   2    7.19    0.99
  -9   3   2    2.26    0.82
  -9   3   2    3.57    0.66
  -8   3   2    6.50    2.47
  -8   3   2    7.25    0.86
  -8   3   2    6.19    1.06
   7  -3  -2   36.90    2.35
  -7   3   2   36.95    2.02
  -7   3   2   36.53    2.34
  -7   3   2   35.96    4.37
  -7   3   2   32.57    2.37
   6  -3  -2   76.19    4.01
  -6   3   2   80.97    6.32
  -6   3   2   74.92    3.70
  -6   3   2   77.30    4.14
  -6   3   2   81.58    4.06
   5  -3  -2   66.69    3.44
  -5   3   2   66.42    3.58
  -5   3   2   64.65    3.43
  -5   3   2   66.93    3.22
  -5   3   2   77.34    3.72
  -5   3   2   64.85    5.16
   4  -3  -2  147.22    6.64
  -4   3   2  139.92    6.71
  -4   3   2  142.54    6.63
  -4   3   2  149.49    6.52
  -4   3   2  131.48    9.21
  -4   3   2  149.55    6.81
  -4   3   2  150.84    6.45
  -4   3   2  156.62    8.50
   3  -3  -2  128.50    5.60
   3  -3  -2  128.19    5.75
  -3   3   2  124.64    5.74
  -3   3   2  130.39    5.60
  -3   3   2  126.13    5.91
  -3   3   2  118.32    5.78
  -3   3   2  134.71    7.25
  -3   3   2  129.83    5.65
   2  -3  -2    5.31    0.37
   2  -3  -2    5.69    0.97
   2  -3  -2    5.38    0.41
   2  -3  -2    5.17    0.45
  -2   3   2    5.36    0.47
  -2   3   2    5.63    0.97
  -2   3   2    5.19    0.44
  -2   3   2    4.49    0.46
  -2   3   2    3.08    1.66
  -2   3   2    4.51    0.61
   1  -3  -2  678.36   29.56
   1  -3  -2  659.43   28.07
   1  -3  -2  653.97   28.19
   1  -3  -2  666.69   28.17
  -1   3   2  674.47   28.43
  -1   3   2  661.39   29.52
   0  -3  -2  211.98    8.96
   0  -3  -2  208.31    8.95
   0   3   2  207.02    8.87
   0   3   2  204.09    8.86
  -1  -3  -2   14.93    0.85
  -1  -3  -2   14.22    0.86
  -1  -3  -2   15.97    0.86
   1   3   2   14.79    0.85
   1   3   2   15.24    0.84
  -2  -3  -2    1.91    0.28
  -2  -3  -2    0.68    0.76
  -2  -3  -2    1.94    0.23
  -2  -3  -2    1.80    0.30
  -2  -3  -2    1.59    0.26
   2   3   2    1.95    0.32
   2   3   2    1.58    0.83
   2   3   2    1.72    0.29
  -3  -3  -2  875.35   37.02
  -3  -3  -2  869.75   37.13
  -3  -3  -2  873.61   37.09
  -3  -3  -2  902.82   37.24
   3   3   2  867.92   37.26
   3   3   2  877.28   37.24
  -4  -3  -2  210.48   13.03
  -4  -3  -2  251.88   10.46
  -4  -3  -2  258.01   10.69
  -4  -3  -2  206.21   13.79
  -4  -3  -2  248.63   10.41
  -4  -3  -2  250.45   10.57
   4   3   2  257.97   10.74
   4   3   2  242.38   10.68
  -5  -3  -2  110.92    4.93
  -5  -3  -2  102.99    4.79
  -5  -3  -2  102.18    4.59
  -5  -3  -2   98.30    7.46
  -5  -3  -2  104.08    4.61
  -5  -3  -2   84.74    7.75
   5   3   2  109.28    4.97
   5   3   2  101.02    4.91
  -6  -3  -2  103.18    5.23
  -6  -3  -2  117.32    5.41
  -6  -3  -2   95.53    8.74
  -6  -3  -2  110.49    5.03
  -6  -3  -2  110.94    8.43
   6   3   2  117.39    5.46
   6   3   2  120.64    6.12
  -7  -3  -2  134.32   10.19
  -7  -3  -2  135.95   11.16
  -7  -3  -2  150.14    6.28
  -7  -3  -2  132.44    6.50
  -8  -3  -2   19.27    1.24
  -8  -3  -2   18.36    4.97
  -8  -3  -2   17.30    4.32
  -8  -3  -2   20.12    1.54
  -9  -3  -2   80.24    4.40
  -9  -3  -2   86.15    4.06
 -10  -3  -2    0.60    0.36
 -10  -3  -2    1.23    0.59
 -11  -3  -2   11.91    1.23
 -11  -3  -2   11.08    1.54
  -9   4   2   68.60    4.02
  -9   4   2   64.00    3.48
   8  -4  -2   33.89    2.40
  -8   4   2   33.30    2.39
  -8   4   2   32.02    2.00
   7  -4  -2   10.85    1.33
  -7   4   2    8.37    0.91
  -7   4   2   10.26    1.35
   6  -4  -2   40.18    2.42
  -6   4   2   40.86    2.13
  -6   4   2   38.99    2.41
  -6   4   2   40.45    2.58
  -6   4   2   38.78    4.17
   5  -4  -2   46.12    2.66
  -5   4   2   53.15    2.92
  -5   4   2   51.62    4.40
  -5   4   2   49.42    2.44
  -5   4   2   46.21    2.66
   4  -4  -2   27.93    1.69
  -4   4   2   30.97    1.65
  -4   4   2   27.34    1.68
  -4   4   2   27.20    1.49
  -4   4   2   28.02    1.87
  -4   4   2   30.04    2.91
   3  -4  -2   10.66    0.70
   3  -4  -2    9.97    0.65
   3  -4  -2   10.89    0.80
   3  -4  -2    9.77    0.69
  -3   4   2    9.27    0.92
  -3   4   2    8.04    2.76
  -3   4   2   11.15    0.97
  -3   4   2   10.25    0.78
  -3   4   2   10.54    0.66
  -3   4   2   10.61    0.80
  -3   4   2   11.33    1.53
   2  -4  -2  240.54   10.20
   2  -4  -2  242.44   10.32
   2  -4  -2  219.34   11.53
   2  -4  -2  241.84   10.40
   2  -4  -2  235.19   10.19
  -2   4   2  239.50   10.40
  -2   4   2  240.14   11.67
  -2   4   2  248.37   10.71
   1  -4  -2  224.99    9.58
   1  -4  -2  227.31    9.76
   1  -4  -2  220.78    9.78
  -1   4   2  224.96   10.11
  -1   4   2  228.53   11.08
   0  -4  -2   27.93    1.41
   0  -4  -2   26.37    1.41
   0  -4  -2   26.87    1.24
   0   4   2   26.03    1.36
   0   4   2   27.01    1.36
  -1  -4  -2  586.47   25.93
  -1  -4  -2  618.10   26.13
  -1  -4  -2  628.44   26.14
   1   4   2  629.42   26.10
  -2  -4  -2  387.37   17.20
  -2  -4  -2  413.80   17.45
  -2  -4  -2  409.93   17.39
  -2  -4  -2  409.75   17.38
   2   4   2  404.63   17.45
   2   4   2  416.61   17.42
  -3  -4  -2   50.64    2.31
  -3  -4  -2   48.20    2.44
  -3  -4  -2   51.42    2.43
  -3  -4  -2   53.13    2.55
   3   4   2   51.02    2.53
   3   4   2   49.44    2.55
  -4  -4  -2   11.72    0.88
  -4  -4  -2   11.92    0.82
  -4  -4  -2   12.08    0.69
  -4  -4  -2   12.90    2.61
  -4  -4  -2   11.91    0.76
  -4  -4  -2    7.83    2.41
   4   4   2   10.88    0.88
   4   4   2   11.58    0.91
  -5  -4  -2  107.53    9.24
  -5  -4  -2  129.49    5.61
  -5  -4  -2  126.53    5.66
  -5  -4  -2  109.47    8.43
  -5  -4  -2  125.41    5.80
  -5  -4  -2  134.42    5.97
   5   4   2  138.35    6.05
   5   4   2  132.17    5.99
  -6  -4  -2   37.93    5.16
  -6  -4  -2   41.41    2.05
  -6  -4  -2   37.00    4.51
  -6  -4  -2   38.38    2.24
   6   4   2   43.96    2.48
   6   4   2   45.29    3.18
  -7  -4  -2    0.74    1.12
  -7  -4  -2    1.05    1.09
  -7  -4  -2    0.68    0.25
  -7  -4  -2    0.83    0.34
   7   4   2    0.63    0.52
  -8  -4  -2  103.67    5.08
  -8  -4  -2  108.92    4.75
  -8  -4  -2   83.63    9.30
  -9  -4  -2   90.40    4.27
  -9  -4  -2   86.69    4.64
 -10  -4  -2   17.19    1.29
 -10  -4  -2   20.52    1.72
 -11  -4  -2   26.70    1.79
 -11  -4  -2   28.39    2.20
   9  -5  -2   17.72    1.62
  -9   5   2   19.15    2.16
  -9   5   2   21.65    1.55
   8  -5  -2    1.01    0.60
  -8   5   2    0.34    0.52
  -8   5   2    0.82    0.40
   7  -5  -2   82.13    4.58
  -7   5   2   89.45    4.23
  -7   5   2   85.95    4.63
   6  -5  -2   81.89    4.25
   6  -5  -2   74.41    4.02
  -6   5   2   81.77    4.25
  -6   5   2   84.68    3.89
   5  -5  -2    0.17    0.20
   5  -5  -2    0.03    0.24
  -5   5   2   -0.10    0.22
  -5   5   2    1.20    0.31
  -5   5   2    0.05    0.27
   4  -5  -2   56.92    3.00
   4  -5  -2   53.46    2.82
  -4   5   2   63.00    3.34
  -4   5   2   56.37    3.00
  -4   5   2   59.88    2.76
   3  -5  -2  114.50    5.25
   3  -5  -2  120.91    5.49
   3  -5  -2  120.59    5.34
  -3   5   2  116.31    5.48
  -3   5   2  118.41    5.79
  -3   5   2  116.94    5.21
  -3   5   2  112.65    5.53
  -3   5   2  121.99    6.84
   2  -5  -2   58.57    2.84
   2  -5  -2   58.54    2.69
   2  -5  -2   57.75    2.91
  -2   5   2   62.34    3.97
  -2   5   2   56.88    3.22
  -2   5   2   58.44    2.68
   1  -5  -2   82.67    3.82
   1  -5  -2   80.75    3.84
   1  -5  -2   81.09    4.88
   1  -5  -2   84.43    3.60
   1  -5  -2   79.82    3.62
  -1   5   2   82.85    4.93
   0  -5  -2   75.68    5.26
   0  -5  -2   82.66    3.76
   0  -5  -2   81.75    3.75
   0  -5  -2   81.03    3.50
   0   5   2   81.92    3.76
   0   5   2   79.23    3.71
  -1  -5  -2  141.27    5.97
  -1  -5  -2  138.81    6.24
  -1  -5  -2  139.84    6.24
   1   5   2  137.81    6.27
   1   5   2  141.50    6.22
  -2  -5  -2    0.66    0.24
  -2  -5  -2    0.21    0.55
  -2  -5  -2    1.08    0.16
  -2  -5  -2    1.62    0.31
   2   5   2    0.85    0.26
   2   5   2    1.07    0.28
  -3  -5  -2  438.99   19.39
  -3  -5  -2  449.46   19.18
  -3  -5  -2  444.12   19.38
  -3  -5  -2  469.26   19.56
   3   5   2  458.70   19.56
   3   5   2  456.70   19.49
  -4  -5  -2  319.85   14.11
  -4  -5  -2  330.37   13.96
  -4  -5  -2  338.07   14.35
  -4  -5  -2  315.52   14.17
   4   5   2  332.13   14.32
   4   5   2  327.44   14.37
  -5  -5  -2   11.23    0.85
  -5  -5  -2   10.53    0.67
  -5  -5  -2    6.23    2.05
  -5  -5  -2   10.01    0.74
  -5  -5  -2    9.07    2.91
   5   5   2   10.59    1.45
   5   5   2   10.35    0.95
  -6  -5  -2  113.62    5.05
  -6  -5  -2   91.31    9.07
  -6  -5  -2  116.94    5.14
  -6  -5  -2  114.27    5.33
  -6  -5  -2   90.43    8.06
   6   5   2  122.02    5.61
   6   5   2  126.05    6.74
  -7  -5  -2   46.74    2.54
  -7  -5  -2   44.21    2.25
  -7  -5  -2   42.93    5.32
  -7  -5  -2   36.22    5.61
   7   5   2   49.51    3.73
  -8  -5  -2   34.08    6.99
  -8  -5  -2   41.79    2.12
  -8  -5  -2   38.57    2.38
  -9  -5  -2    0.42    0.38
  -9  -5  -2    0.09    0.24
 -10  -5  -2   76.91    4.36
 -10  -5  -2   80.85    3.94
 -11  -5  -2   44.64    2.57
 -11  -5  -2   46.24    3.05
   8  -6  -2   11.33    1.37
   8  -6  -2   11.65    1.63
  -8   6   2   14.35    1.85
   7  -6  -2   18.08    1.59
   7  -6  -2   14.38    1.27
  -7   6   2   15.13    1.67
   6  -6  -2    1.91    0.49
   6  -6  -2    2.41    0.66
  -6   6   2    1.28    0.54
   5  -6  -2  138.38    6.41
   5  -6  -2  126.78    6.10
  -5   6   2  138.32    7.51
  -5   6   2  131.03    6.37
   4  -6  -2  173.74    8.01
   4  -6  -2  182.07    8.30
  -4   6   2  187.52    8.70
  -4   6   2  183.08    8.32
   3  -6  -2    6.42    0.62
   3  -6  -2    6.48    0.53
   3  -6  -2    6.43    0.80
  -3   6   2    7.37    0.86
  -3   6   2    6.81    1.06
   2  -6  -2  150.13    6.84
   2  -6  -2  146.67    6.55
   2  -6  -2  156.09    6.78
  -2   6   2  146.44    7.27
   1  -6  -2  353.20   15.40
   1  -6  -2  365.14   16.66
   1  -6  -2  339.32   15.16
   1  -6  -2  348.38   15.43
  -1   6   2  376.01   17.81
   0  -6  -2   17.87    1.12
   0  -6  -2   17.64    2.06
   0  -6  -2   16.13    1.10
   0   6   2   17.14    1.94
   0   6   2   17.58    1.10
   0   6   2   17.19    1.15
  -1  -6  -2   50.19    2.48
  -1  -6  -2   47.37    2.46
   1   6   2   48.45    2.47
   1   6   2   48.72    2.55
  -2  -6  -2    7.71    0.66
  -2  -6  -2    7.42    0.65
   2   6   2    7.48    0.71
  -3  -6  -2  112.92    5.05
  -3  -6  -2  107.13    5.01
   3   6   2  107.37    5.19
  -4  -6  -2   23.72    1.21
  -4  -6  -2   24.53    1.41
  -4  -6  -2   16.24    3.89
  -4  -6  -2   24.45    1.44
   4   6   2   24.88    1.61
  -5  -6  -2   89.30    4.48
  -5  -6  -2   90.29    4.22
  -5  -6  -2   94.61    4.41
   5   6   2   95.05    4.74
   5   6   2  105.45    6.05
  -6  -6  -2  200.90    9.10
  -6  -6  -2  195.82    9.39
  -6  -6  -2  208.25    9.26
   6   6   2  229.77   11.24
   6   6   2  215.70    9.74
  -7  -6  -2    7.24    3.07
  -7  -6  -2   10.33    0.97
  -7  -6  -2   10.37    0.76
   7   6   2   13.17    2.24
  -8  -6  -2   36.86    2.31
  -8  -6  -2   41.39    2.03
  -8  -6  -2   22.62    5.61
   8   6   2   41.66    3.92
  -9  -6  -2   28.11    1.99
  -9  -6  -2   26.68    1.61
 -10  -6  -2    1.45    0.39
 -10  -6  -2    1.79    0.70
 -11  -6  -2    0.33    0.36
 -11  -6  -2    0.50    0.48
   7  -7  -2    4.59    0.74
   7  -7  -2    6.26    1.14
  -7   7   2    4.41    1.01
   6  -7  -2   65.92    3.43
   6  -7  -2   67.96    3.85
  -6   7   2   72.00    3.91
   5  -7  -2   15.74    1.11
   5  -7  -2   18.84    1.49
  -5   7   2   17.39    1.46
   4  -7  -2    2.35    0.39
   4  -7  -2    1.73    0.46
  -4   7   2    3.94    1.29
  -4   7   2    2.78    0.59
   3  -7  -2   39.08    2.00
   3  -7  -2   37.98    2.29
   3  -7  -2   40.48    2.21
  -3   7   2   41.41    2.36
  -3   7   2   42.04    2.74
   2  -7  -2  151.73    6.88
   2  -7  -2  155.19    7.22
   2  -7  -2  160.14    7.16
  -2   7   2  162.72    7.79
   1  -7  -2    1.82    0.45
   1  -7  -2    1.66    0.39
   0  -7  -2  162.92    7.31
   0  -7  -2  162.62    7.31
   0   7   2  157.62    7.40
  -1  -7  -2  230.31   10.09
  -1  -7  -2  228.08   10.08
   1   7   2  223.33   10.21
  -2  -7  -2   37.96    2.14
  -2  -7  -2   40.46    2.16
   2   7   2   40.26    2.31
  -3  -7  -2   87.85    4.23
  -3  -7  -2   88.99    4.25
   3   7   2   88.74    4.45
  -4  -7  -2   84.80    4.08
  -4  -7  -2   82.72    4.11
   4   7   2   87.37    4.38
  -5  -7  -2   19.36    1.24
  -5  -7  -2   17.57    1.26
  -5  -7  -2   10.01    3.28
   5   7   2   20.21    1.52
   5   7   2   19.87    2.32
  -6  -7  -2    1.64    0.44
  -6  -7  -2    1.32    1.08
  -6  -7  -2    1.94    0.42
  -6  -7  -2    1.69    1.64
   6   7   2    2.17    0.97
   6   7   2    1.79    0.53
  -7  -7  -2   39.95    6.29
  -7  -7  -2   53.98    2.90
   7   7   2   55.23    4.47
  -8  -7  -2   64.80    3.65
  -8  -7  -2   54.75   12.16
   8   7   2   77.06    5.66
  -9  -7  -2    9.25    1.21
 -10  -7  -2   37.75    2.58
 -11  -7  -2   27.65    2.23
   6  -8  -2   13.04    0.99
   6  -8  -2   15.04    1.72
  -6   8   2   13.64    1.66
   5  -8  -2   19.72    1.63
   5  -8  -2   18.58    1.20
  -5   8   2   18.89    1.61
   4  -8  -2  100.59    4.98
   4  -8  -2   97.81    4.51
  -4   8   2   95.56    4.96
   3  -8  -2   17.65    1.24
   3  -8  -2   13.91    0.94
   3  -8  -2   15.97    1.29
  -3   8   2   15.12    1.29
   2  -8  -2    3.98    0.63
   2  -8  -2    3.60    0.65
   2  -8  -2    3.54    0.44
  -2   8   2    3.06    0.83
   1  -8  -2    1.98    0.47
   1  -8  -2    2.40    0.49
   1  -8  -2    2.37    0.35
  -1   8   2    2.44    0.71
   0  -8  -2  168.90    7.66
   0  -8  -2  169.92    7.65
   0   8   2  162.29    7.79
  -1  -8  -2   57.12    2.97
  -1  -8  -2   56.63    2.96
   1   8   2   56.25    3.14
  -2  -8  -2   45.53    2.61
  -2  -8  -2   50.78    2.67
   2   8   2   51.69    2.88
  -3  -8  -2  203.59    9.21
  -3  -8  -2  200.65    9.21
   3   8   2  209.23    9.52
  -4  -8  -2  115.21    5.58
  -4  -8  -2  111.87    5.52
   4   8   2  121.61    5.91
   4   8   2  123.27    7.41
  -5  -8  -2   15.94    1.20
  -5  -8  -2   16.20    1.23
   5   8   2   18.82    2.42
   5   8   2   16.40    1.46
  -6  -8  -2   89.37    4.32
  -6  -8  -2   86.24    4.41
   6   8   2   92.18    6.35
   6   8   2   84.28    4.73
  -7  -8  -2    3.11    2.18
  -7  -8  -2    5.81    0.80
  -7  -8  -2    6.46    0.88
   7   8   2    7.88    2.27
  -8  -8  -2    1.42    0.51
  -9  -8  -2    1.17    0.54
 -10  -8  -2   14.88    1.76
   5  -9  -2   24.12    1.89
   5  -9  -2   21.53    1.32
  -5   9   2   25.11    1.91
   4  -9  -2   30.18    1.67
   4  -9  -2   32.43    2.17
  -4   9   2   32.74    2.20
   3  -9  -2    0.49    0.20
   3  -9  -2    0.48    0.34
   3  -9  -2    0.13    0.26
  -3   9   2    0.84    0.41
   2  -9  -2  118.41    5.83
   2  -9  -2  125.45    5.80
   2  -9  -2  114.91    5.36
   1  -9  -2   82.62    4.17
   1  -9  -2   81.01    4.19
   0  -9  -2    1.74    0.46
   0  -9  -2    3.03    0.58
   0   9   2    1.67    0.87
  -1  -9  -2   44.50    2.57
  -1  -9  -2   44.82    2.57
   1   9   2   48.75    3.96
   1   9   2   46.01    2.81
  -2  -9  -2   50.52    2.87
  -2  -9  -2   51.84    2.87
   2   9   2   52.61    4.31
   2   9   2   56.14    3.19
  -3  -9  -2   12.05    1.02
  -3  -9  -2   10.41    1.15
   3   9   2   10.88    2.12
   3   9   2    9.79    1.12
  -4  -9  -2    7.94    0.99
  -4  -9  -2    7.98    0.99
   4   9   2    8.32    1.27
   4   9   2    9.53    2.15
  -5  -9  -2   78.26    4.11
  -5  -9  -2   77.16    4.04
   5   9   2   85.52    4.55
  -6  -9  -2   52.19    2.84
  -6  -9  -2   49.99    2.90
   6   9   2   50.99    3.28
  -7  -9  -2    6.55    0.88
  -7  -9  -2    7.59    1.04
  -8  -9  -2   68.78    3.82
  -9  -9  -2   34.64    2.39
 -10  -9  -2    0.62    0.48
   4 -10  -2    8.96    0.69
   4 -10  -2    9.68    1.30
  -4  10   2    8.82    1.29
   3 -10  -2   11.22    0.81
   3 -10  -2   11.90    1.43
  -3  10   2   15.27    1.64
   2 -10  -2   53.15    3.04
   2 -10  -2   53.77    2.99
  -2  10   2   46.68    2.96
   1 -10  -2    0.88    0.40
   1 -10  -2    0.75    0.39
   0 -10  -2   56.83    3.13
   0 -10  -2   55.46    3.10
   0  10   2   53.25    4.50
  -1 -10  -2  107.70    5.32
  -1 -10  -2  114.33    5.37
   1  10   2   94.83    8.62
  -2 -10  -2    4.26    0.74
  -2 -10  -2    4.79    0.78
  -3 -10  -2   60.78    3.32
  -3 -10  -2   61.43    3.34
  -4 -10  -2   27.72    1.88
  -4 -10  -2   27.28    1.84
  -5 -10  -2   35.78    2.24
  -5 -10  -2   34.03    2.18
  -6 -10  -2    1.06    0.45
  -6 -10  -2    0.81    0.39
  -7 -10  -2   34.40    2.21
  -7 -10  -2   35.23    2.32
  -8 -10  -2   46.73    2.91
  -9 -10  -2    0.77    0.44
   3 -11  -2    0.04    0.42
  -3  11   2    0.71    0.45
   2 -11  -2   22.65    1.84
   2 -11  -2   25.55    1.86
  -2  11   2   22.87    1.84
   1 -11  -2   42.28    2.71
   1 -11  -2   45.53    2.74
   0 -11  -2   23.93    1.75
   0 -11  -2   21.20    1.70
  -1 -11  -2    0.87    0.46
  -1 -11  -2    0.96    0.41
  -2 -11  -2   29.59    1.98
  -2 -11  -2   26.66    1.92
  -3 -11  -2  107.06    5.49
  -3 -11  -2  111.42    5.50
  -4 -11  -2    3.38    0.70
  -4 -11  -2    5.47    0.91
  -5 -11  -2   45.71    2.75
  -5 -11  -2   42.48    2.66
  -6 -11  -2   45.95    2.78
  -6 -11  -2   45.69    2.83
  -7 -11  -2    1.28    0.49
  -7 -11  -2    0.92    0.43
  -8 -11  -2    1.45    0.58
   0 -12  -2   35.28    2.45
   0 -12  -2   39.58    2.57
  -1 -12  -2   40.81    2.69
  -1 -12  -2   44.49    2.76
  -2 -12  -2    1.92    0.59
  -2 -12  -2    1.75    0.58
  -3 -12  -2    2.88    0.71
  -3 -12  -2    2.13    0.62
  -4 -12  -2    8.73    1.17
  -4 -12  -2    7.86    1.15
  -5 -12  -2   43.66    2.79
  -5 -12  -2   45.53    2.85
  -6 -12  -2   14.97    1.71
  -6 -12  -2   17.33    1.53
  -6 -11   3    0.52    0.42
  -6 -11   3    1.08    0.50
  -6 -11   3   -0.24    1.25
  -5 -11   3    1.81    1.89
  -5 -11   3    2.59    0.67
  -5 -11   3    2.93    0.75
  -4 -11   3   50.72    2.96
  -4 -11   3   42.89    6.55
  -4 -11   3   48.70    2.99
  -3 -11   3    1.30    0.51
  -3 -11   3    2.06    1.90
  -3 -11   3    1.33    0.52
  -2 -11   3   15.27    1.40
  -2 -11   3   17.95    1.56
  -1 -11   3   62.81    3.56
  -1 -11   3   62.70    3.65
   0 -11   3   17.69    1.45
   0 -11   3   14.68    1.40
   0 -11   3   15.82    1.76
   1 -11   3   19.95    1.71
   1 -11   3   19.70    1.59
   1 -11   3   19.88    1.67
  -8 -10   3   12.42    6.83
  -8 -10   3   13.57    1.55
  -7 -10   3    2.89    2.24
  -6 -10   3   99.25    5.15
  -6 -10   3  105.18    5.22
  -6 -10   3   96.03   10.11
  -5 -10   3   12.53    4.30
  -5 -10   3   10.51    1.30
  -5 -10   3    9.68    1.22
  -4 -10   3    3.90    0.75
  -4 -10   3    4.36    2.53
  -4 -10   3    3.34    0.70
  -3 -10   3   40.98    5.83
  -3 -10   3   35.44    2.41
  -3 -10   3   38.46    2.38
  -2 -10   3   43.33    2.67
  -2 -10   3   43.07    2.55
  -2 -10   3   38.30    5.59
  -1 -10   3    2.13    0.61
  -1 -10   3    2.94    0.73
  -1 -10   3    3.74    0.71
   0 -10   3   22.93    1.81
   0 -10   3   24.10    1.75
   0 -10   3   26.07    1.79
   1 -10   3   58.53    3.24
   1 -10   3   55.82    3.30
   1 -10   3   54.39    3.19
  -2  10  -3    8.83    1.19
   2 -10   3   13.25    1.46
   2 -10   3   12.21    1.44
   2 -10   3   10.13    1.26
  -3  10  -3   24.21    2.00
   3 -10   3   30.40    2.13
   3 -10   3   30.52    2.10
   3 -10   3   28.35    2.07
  -9  -9   3    0.40    0.42
  -9  -9   3   -0.36    1.28
  -8  -9   3    3.71    2.49
  -8  -9   3    1.76    0.54
  -7  -9   3   13.43    1.44
  -7  -9   3   12.26    3.97
  -6  -9   3   17.16    1.38
  -6  -9   3   15.27    4.37
  -6  -9   3   15.61    1.34
  -5  -9   3    0.25    0.28
  -5  -9   3    0.91    1.28
  -5  -9   3    0.27    0.31
  -4  -9   3   99.66    4.84
  -4  -9   3   96.04    4.92
  -4  -9   3   91.78    8.90
   3   9  -3  101.09    5.76
  -3  -9   3  101.37    4.97
  -3  -9   3   94.16    8.90
  -3  -9   3  104.35    5.14
   2   9  -3   23.23    2.12
  -2  -9   3   22.10    3.93
  -2  -9   3   23.63    1.60
  -2  -9   3   21.86    1.56
  -2  -9   3   20.82    1.64
   1   9  -3   89.24    6.71
  -1  -9   3   87.15    4.38
  -1  -9   3   79.21    4.42
  -1  -9   3   84.37    4.31
  -1  -9   3   93.21    9.52
   0  -9   3   75.76    4.01
   0  -9   3   77.73    4.14
   0  -9   3   78.26    4.01
   1  -9   3   10.38    1.15
   1  -9   3    8.87    1.18
   1  -9   3   11.53    1.29
  -2   9  -3    4.85    0.87
   2  -9   3    4.32    0.83
   2  -9   3    5.38    0.92
   2  -9   3    6.28    0.95
  -3   9  -3   44.53    2.67
   3  -9   3   41.08    2.62
   3  -9   3   45.39    2.69
   3  -9   3   39.32    2.61
  -4   9  -3   35.99    2.43
   4  -9   3   35.46    2.46
   4  -9   3   38.88    2.47
  -5   9  -3    2.51    0.69
   5  -9   3    1.24    0.55
   5  -9   3    1.35    0.58
  -9  -8   3   26.56    6.27
  -9  -8   3   25.82    1.95
  -8  -8   3   23.59    5.52
  -8  -8   3   26.88    1.89
  -7  -8   3    0.64    0.36
  -7  -8   3    0.62    1.04
  -6  -8   3   20.74    1.48
  -6  -8   3   15.95    4.21
  -6  -8   3   18.68    1.43
  -5  -8   3   45.79    2.57
  -5  -8   3   43.84    2.47
  -5  -8   3   36.42    5.19
   4   8  -3   11.48    2.66
  -4  -8   3   10.33    2.24
  -4  -8   3   12.76    1.13
  -4  -8   3   11.43    1.01
  -4  -8   3    9.83    3.06
   3   8  -3    3.28    0.88
   3   8  -3    2.28    1.16
  -3  -8   3    3.56    0.68
  -3  -8   3    2.85    1.67
  -3  -8   3    3.09    0.58
   2   8  -3   15.50    1.62
   2   8  -3   18.84    3.19
  -2  -8   3   14.76    1.21
  -2  -8   3   16.72    1.23
  -2  -8   3   18.36    4.17
  -2  -8   3   15.60    1.30
   1   8  -3   44.78    4.16
  -1  -8   3   41.54    2.39
  -1  -8   3   40.62    2.48
  -1  -8   3   40.81    2.32
  -1  -8   3   39.89    4.88
   0   8  -3    3.03    1.25
   0  -8   3    3.22    0.61
   0  -8   3    2.44    0.59
   0  -8   3    3.27    0.63
   1  -8   3  158.80    7.42
   1  -8   3  152.80    7.23
   1  -8   3  156.29    7.35
  -2   8  -3   73.67    3.75
   2  -8   3   70.80    3.83
   2  -8   3   72.13    3.83
   2  -8   3   68.95    3.71
  -3   8  -3    4.26    0.77
   3  -8   3    5.56    0.89
   3  -8   3    3.82    0.70
   3  -8   3    3.79    0.75
  -4   8  -3   24.23    1.79
   4  -8   3   26.15    1.82
   4  -8   3   25.31    1.91
  -5   8  -3   32.48    2.21
   5  -8   3   31.50    2.31
   5  -8   3   32.59    2.24
  -6   8  -3    6.70    1.14
   6  -8   3    4.41    0.97
   6  -8   3    4.88    0.99
 -10  -7   3   13.27    1.53
 -10  -7   3   10.26    3.83
  -9  -7   3   18.44    4.79
  -9  -7   3   21.37    1.69
  -8  -7   3    0.85    1.35
  -8  -7   3    0.42    0.32
  -7  -7   3   26.81    1.86
  -7  -7   3   32.78    4.94
   6   7  -3   70.99    6.13
  -6  -7   3   71.25    3.63
  -6  -7   3   70.71    3.64
  -6  -7   3   68.50    7.18
   5   7  -3    2.12    1.22
  -5  -7   3    2.02    1.51
  -5  -7   3    3.41    0.61
  -5  -7   3    2.20    0.49
   4   7  -3   19.47    1.84
   4   7  -3   12.61    2.53
  -4  -7   3   19.68    1.39
  -4  -7   3   18.25    3.28
  -4  -7   3   19.55    2.43
  -4  -7   3   17.49    1.26
   3   7  -3  139.87    8.73
   3   7  -3  133.26    6.98
  -3  -7   3  138.40    6.37
  -3  -7   3  140.50   10.11
  -3  -7   3  143.81    7.98
  -3  -7   3  133.28    6.51
   2   7  -3   55.25    3.43
   2   7  -3   51.69    4.50
  -2  -7   3   56.61    3.05
  -2  -7   3   59.33    5.74
  -2  -7   3   54.07    2.86
  -2  -7   3   57.17    2.94
   1   7  -3    1.03    0.78
  -1  -7   3    1.26    0.38
  -1  -7   3    1.98    1.22
  -1  -7   3    1.96    0.43
  -1  -7   3    1.54    0.41
   0   7  -3    1.76    0.92
   0  -7   3    3.31    1.58
   0  -7   3    3.28    0.60
   0  -7   3    3.39    0.55
   0  -7   3    2.01    0.50
  -1   7  -3  244.98   13.29
   1  -7   3  266.44   11.60
   1  -7   3  262.86   11.45
   1  -7   3  255.07   11.61
   2  -7   3   25.20    1.70
   2  -7   3   22.56    1.63
   2  -7   3   22.78    1.54
  -3   7  -3  103.56    5.87
  -3   7  -3  105.29    5.22
   3  -7   3  106.96    5.41
   3  -7   3  106.11    5.23
   3  -7   3  115.33    5.36
  -4   7  -3  138.29    6.69
   4  -7   3  144.92    6.71
   4  -7   3  137.79    6.87
  -5   7  -3   18.97    1.51
   5  -7   3   17.76    1.50
   5  -7   3   18.36    1.63
  -6   7  -3   26.46    1.99
   6  -7   3   25.95    2.09
   6  -7   3   26.58    2.01
  -7   7  -3   14.50    1.75
   7  -7   3   16.93    2.00
   7  -7   3   13.46    1.69
 -10  -6   3    1.48    1.88
 -10  -6   3    0.23    0.40
  -9  -6   3    5.28    0.88
  -9  -6   3    6.00    2.78
  -8  -6   3   25.86    4.40
  -8  -6   3   24.42    1.74
   7   6  -3   17.78    3.39
  -7  -6   3   19.28    1.39
  -7  -6   3   16.75    3.76
  -7  -6   3   19.22    4.34
   6   6  -3    9.28    2.31
  -6  -6   3   10.96    2.93
  -6  -6   3    9.67    0.90
  -6  -6   3   10.17    0.89
  -6  -6   3   12.75    3.52
   5   6  -3   33.87    3.67
  -5  -6   3   36.18    3.45
  -5  -6   3   29.84    4.22
  -5  -6   3   34.11    1.95
  -5  -6   3   34.10    3.94
  -5  -6   3   34.76    2.01
   4   6  -3   84.77    6.04
   4   6  -3   78.82    4.41
  -4  -6   3   80.37    3.88
  -4  -6   3   83.38    6.08
  -4  -6   3   77.68    5.40
  -4  -6   3   76.86    6.88
  -4  -6   3   82.27    4.02
   3   6  -3   61.63    4.79
   3   6  -3   60.94    3.50
  -3  -6   3   60.07    3.13
  -3  -6   3   56.76    5.54
  -3  -6   3   59.35    4.21
  -3  -6   3   58.60    2.97
   2   6  -3   76.31    5.41
   2   6  -3   72.90    4.16
  -2  -6   3   75.15    3.65
  -2  -6   3   79.48    4.75
  -2  -6   3   78.21    6.40
  -2  -6   3   75.17    3.84
  -2  -6   3   74.65    3.72
   1   6  -3  313.39   15.46
   1   6  -3  337.67   16.93
  -1  -6   3  338.20   15.15
  -1  -6   3  347.59   15.06
  -1  -6   3  335.75   14.93
  -1  -6   3  350.77   18.34
  -1  -6   3  384.85   15.71
   0   6  -3    2.23    0.95
   0   6  -3    0.37    1.01
   0  -6   3    2.30    0.48
   0  -6   3    2.71    0.57
   0  -6   3    1.28    0.32
   0  -6   3    2.84    1.31
  -1   6  -3    8.69    1.78
   1  -6   3    9.89    0.94
   1  -6   3   11.72    0.98
   1  -6   3   10.87    0.85
   2  -6   3   21.33    1.39
   2  -6   3   21.60    1.53
   2  -6   3   21.23    1.49
  -3   6  -3   54.17    3.45
  -3   6  -3   54.54    2.98
   3  -6   3   57.86    3.19
   3  -6   3   58.28    3.01
   3  -6   3   58.89    3.09
  -4   6  -3   14.49    1.76
  -4   6  -3   17.80    1.31
   4  -6   3   17.06    1.29
   4  -6   3   16.35    1.28
  -5   6  -3   12.13    1.14
   5  -6   3   12.87    1.18
   5  -6   3   13.85    1.57
  -6   6  -3   76.45    4.24
   6  -6   3   80.03    4.49
   6  -6   3   83.16    4.32
  -7   6  -3   46.23    3.00
   7  -6   3   47.62    3.05
   7  -6   3   49.31    3.19
  -8   6  -3   38.36    2.61
   8  -6   3   27.42    2.39
   8  -6   3   30.14    2.43
 -10  -5   3    1.04    0.47
 -10  -5   3    1.01    0.46
 -10  -5   3    0.02    1.50
  -9  -5   3  111.34    5.46
  -9  -5   3  106.77    5.14
  -9  -5   3  103.87    9.59
  -8  -5   3   74.29    7.66
  -8  -5   3   72.04    7.39
  -8  -5   3   75.03    3.91
  -8  -5   3   75.40    3.65
   7   5  -3   23.37    3.20
  -7  -5   3   28.61    1.56
  -7  -5   3   28.38    4.22
  -7  -5   3   26.67    1.75
  -7  -5   3   28.10    4.11
   6   5  -3   64.58    5.26
  -6  -5   3   60.87    4.86
  -6  -5   3   59.68    5.64
  -6  -5   3   58.73    3.06
  -6  -5   3   58.64    2.84
  -6  -5   3   56.29    5.93
   5   5  -3  109.52    7.46
  -5  -5   3  114.72    5.12
  -5  -5   3  117.58    7.95
  -5  -5   3  114.46    7.10
  -5  -5   3  114.10    5.37
  -5  -5   3  121.24    5.37
  -5  -5   3  111.66    8.63
   4   5  -3    5.62    0.89
   4   5  -3    4.89    0.84
   4   5  -3    6.04    1.61
  -4  -5   3    6.72    0.47
  -4  -5   3    7.08    1.58
  -4  -5   3    7.16    1.75
  -4  -5   3    6.62    0.61
  -4  -5   3    6.66    0.77
  -4  -5   3    7.54    2.23
   3   5  -3   74.57    4.08
   3   5  -3   81.27    3.98
   3   5  -3   77.16    5.36
  -3  -5   3   75.63    3.78
  -3  -5   3   75.82    6.22
  -3  -5   3   76.82    3.63
  -3  -5   3   74.60    4.81
   2   5  -3  176.49    8.51
   2   5  -3  183.33    9.99
   2   5  -3  190.83    8.71
  -2  -5   3  183.00    8.36
  -2  -5   3  187.87    9.33
  -2  -5   3  185.34    8.24
  -2  -5   3  185.16    9.31
  -2  -5   3  185.94   11.09
  -2  -5   3  183.93    8.15
   1   5  -3  130.18    6.66
   1   5  -3  134.00    7.77
  -1  -5   3  139.35    8.74
  -1  -5   3  146.91    6.83
  -1  -5   3  139.34    6.31
  -1  -5   3  135.61    6.18
  -1  -5   3  134.74    6.40
  -1  -5   3  141.75    7.07
   0   5  -3   50.74    3.84
   0  -5   3   50.22    2.84
   0  -5   3   58.92    3.06
   0  -5   3   56.97    4.60
   0  -5   3   56.54    2.83
   0  -5   3   50.33    2.63
  -1   5  -3  412.61   19.69
   1  -5   3  437.55   18.42
   1  -5   3  421.31   18.41
   1  -5   3  419.91   18.19
  -2   5  -3   63.12    4.38
  -2   5  -3   69.04    3.39
   2  -5   3   68.01    3.38
   2  -5   3   74.46    3.58
   2  -5   3   73.78    3.63
  -3   5  -3   24.32    1.87
  -3   5  -3   24.41    1.52
   3  -5   3   24.96    1.70
   3  -5   3   22.58    1.48
   3  -5   3   26.52    1.62
  -4   5  -3   48.46    2.75
  -4   5  -3   50.58    3.11
   4  -5   3   48.72    2.75
   4  -5   3   56.57    2.83
   4  -5   3   55.64    3.05
  -5   5  -3  100.32    5.40
  -5   5  -3  100.98    5.09
   5  -5   3  105.22    5.12
   5  -5   3  110.90    5.44
  -6   5  -3    7.76    1.07
   6  -5   3    6.90    1.01
   6  -5   3    7.00    1.09
  -7   5  -3    1.55    0.60
   7  -5   3    1.59    0.57
   7  -5   3    2.26    0.73
  -8   5  -3   55.48    3.33
   8  -5   3   47.87    3.33
   8  -5   3   50.39    3.26
 -11  -4   3   14.65    1.70
 -11  -4   3   14.47    1.39
 -10  -4   3    2.24    0.68
 -10  -4   3    4.86    0.78
  -9  -4   3    1.31    0.42
  -9  -4   3    0.52    1.19
  -9  -4   3    1.25    0.51
  -8  -4   3    0.87    0.37
  -8  -4   3    0.54    1.04
  -8  -4   3    0.36    0.25
  -8  -4   3   -0.16    0.82
  -7  -4   3  108.08    4.94
  -7  -4   3  110.08    8.61
  -7  -4   3  105.56    8.61
  -7  -4   3  102.97    5.13
  -7  -4   3  103.59    7.19
  -7  -4   3  114.73    6.30
   6   4  -3  119.20    8.19
  -6  -4   3  140.12    6.65
  -6  -4   3  132.38    9.65
  -6  -4   3  140.77    9.36
  -6  -4   3  137.36    8.15
  -6  -4   3  133.48    6.22
  -6  -4   3  137.74    6.04
   5   4  -3   36.43    3.55
  -5  -4   3   39.06    2.09
  -5  -4   3   37.09    2.06
  -5  -4   3   38.90    1.94
  -5  -4   3   39.58    4.44
  -5  -4   3   41.03    3.40
  -5  -4   3   40.37    2.44
  -5  -4   3   42.00    4.02
   4   4  -3  125.81    5.55
   4   4  -3  121.09    7.54
   4   4  -3  129.23    6.16
  -4  -4   3  127.11    7.17
  -4  -4   3  130.01    5.56
  -4  -4   3  126.39    5.71
  -4  -4   3  128.43    7.72
  -4  -4   3  128.70    8.74
  -4  -4   3  121.14    5.79
   3   4  -3  141.94    6.66
   3   4  -3  132.15    7.89
   3   4  -3  137.19    6.49
   3   4  -3  140.19    6.04
  -3  -4   3  140.18    7.76
  -3  -4   3  141.41    9.04
  -3  -4   3  136.66    6.20
  -3  -4   3  142.51    6.39
  -3  -4   3  142.91    7.54
   2   4  -3   22.25    1.51
   2   4  -3   21.23    1.56
   2   4  -3   22.78    2.32
   2   4  -3   22.36    1.08
  -2  -4   3   23.12    1.25
  -2  -4   3   23.83    1.34
  -2  -4   3   24.06    2.07
  -2  -4   3   19.13    1.86
  -2  -4   3   24.92    2.93
  -2  -4   3   24.57    1.46
   1   4  -3  199.99   10.53
   1   4  -3  206.73    8.83
   1   4  -3  201.77    9.50
  -1  -4   3  209.54    9.04
  -1  -4   3  210.49    9.67
  -1  -4   3  219.21   11.58
  -1  -4   3  198.99   10.12
  -1  -4   3  209.61    9.30
  -1  -4   3  218.59    9.20
  -1  -4   3  205.15    9.99
   0   4  -3  183.82    9.65
   0   4  -3  183.55    8.09
   0  -4   3  199.67    8.51
   0  -4   3  193.07    9.02
   0  -4   3  184.83    8.29
   0  -4   3  186.79    8.42
   0  -4   3  200.32   10.48
   0  -4   3  190.00    8.55
  -1   4  -3  214.61   11.06
  -1   4  -3  237.75    9.67
   1  -4   3  225.43   10.09
   1  -4   3  200.82   10.52
   1  -4   3  234.60    9.87
   1  -4   3  238.67   10.14
   1  -4   3  217.89   10.88
   1  -4   3  238.38   10.09
  -2   4  -3   22.96    1.38
  -2   4  -3   19.54    1.95
  -2   4  -3   24.56    1.22
   2  -4   3   26.76    2.34
   2  -4   3   25.41    1.55
   2  -4   3   25.89    1.61
   2  -4   3   25.44    1.40
  -3   4  -3  464.20   19.39
  -3   4  -3  446.37   19.60
  -3   4  -3  461.11   20.05
  -3   4  -3  412.33   20.29
   3  -4   3  455.88   19.60
   3  -4   3  477.59   19.76
   3  -4   3  471.09   19.92
  -4   4  -3   80.05    3.91
  -4   4  -3   78.56    3.67
  -4   4  -3   73.56    4.48
  -4   4  -3   78.65    4.19
   4  -4   3   88.39    3.98
   4  -4   3   79.81    4.17
   4  -4   3   79.52    3.91
  -5   4  -3    5.56    0.93
  -5   4  -3    4.93    0.56
  -5   4  -3    3.76    0.64
   5  -4   3    4.95    0.85
   5  -4   3    5.41    0.76
  -6   4  -3  125.86    6.17
  -6   4  -3  130.49    5.99
  -6   4  -3  118.18    5.54
   6  -4   3  119.86    5.93
   6  -4   3  115.06    6.13
  -7   4  -3   34.52    2.01
  -7   4  -3   37.14    2.43
   7  -4   3   38.68    2.61
   7  -4   3   38.12    2.46
  -8   4  -3    2.47    0.71
  -8   4  -3    1.33    0.43
   8  -4   3    2.98    0.83
   8  -4   3    2.89    0.76
  -9   4  -3    7.51    0.92
  -9   4  -3    6.86    1.23
   9  -4   3    7.06    1.37
 -11  -3   3   25.61    1.86
 -11  -3   3   27.84    2.15
 -10  -3   3   -0.03    0.33
 -10  -3   3    0.28    0.45
  -9  -3   3   10.79    1.31
  -9  -3   3   11.92    1.13
  -8  -3   3   22.01    4.78
  -8  -3   3   20.00    4.25
  -8  -3   3   17.12    1.39
  -8  -3   3   17.33    3.24
  -8  -3   3   19.32    1.27
  -7  -3   3    8.02    1.89
  -7  -3   3    9.28    2.51
  -7  -3   3    8.15    2.47
  -7  -3   3    8.70    0.97
  -7  -3   3    7.51    0.76
  -6  -3   3    1.24    0.29
  -6  -3   3    3.13    1.52
  -6  -3   3    1.21    0.41
  -6  -3   3    1.52    0.99
  -6  -3   3    1.22    0.73
  -6  -3   3    1.75    0.41
   5   3  -3  123.51    5.29
   5   3  -3   94.86    6.84
  -5  -3   3  118.64    5.72
  -5  -3   3  120.29    5.43
  -5  -3   3  119.94    8.43
  -5  -3   3  116.71    5.34
  -5  -3   3  122.19    6.94
  -5  -3   3  122.35    7.83
  -5  -3   3  122.93    5.29
   4   3  -3  386.31   17.18
   4   3  -3  346.55   18.51
   4   3  -3  399.75   16.70
  -4  -3   3  400.14   18.36
  -4  -3   3  382.17   17.15
  -4  -3   3  406.69   19.13
  -4  -3   3  391.83   16.82
  -4  -3   3  397.93   20.19
  -4  -3   3  397.26   16.70
  -4  -3   3  394.66   17.13
  -4  -3   3  404.27   16.90
   3   3  -3    0.06    0.13
   3   3  -3    0.02    0.31
   3   3  -3    0.50    0.49
   3   3  -3    0.68    0.27
   3   3  -3    0.30    0.11
  -3  -3   3    0.37    0.15
  -3  -3   3    1.46    0.34
  -3  -3   3    1.10    0.61
  -3  -3   3    0.58    0.61
  -3  -3   3    0.44    0.39
   2   3  -3  227.46   12.27
   2   3  -3  252.94   11.27
   2   3  -3  257.32   11.18
   2   3  -3  251.33   10.75
  -2  -3   3  257.22   13.50
  -2  -3   3  253.11   12.05
  -2  -3   3  260.65   12.11
  -2  -3   3  254.05   10.86
  -2  -3   3  256.83   11.11
   1   3  -3  314.40   13.34
   1   3  -3  263.53   14.43
   1   3  -3  323.59   13.91
   1   3  -3  297.00   14.82
  -1  -3   3  326.36   14.81
  -1  -3   3  321.38   14.32
  -1  -3   3  318.85   14.55
  -1  -3   3  336.36   15.95
  -1  -3   3  328.26   13.76
  -1  -3   3  321.79   13.46
   0   3  -3   22.26    2.06
   0   3  -3   25.65    1.73
   0   3  -3   25.43    1.17
   0  -3   3   25.54    1.52
   0  -3   3   24.82    1.27
   0  -3   3   25.00    1.93
   0  -3   3   25.03    2.50
   0  -3   3   24.53    1.72
  -1   3  -3  108.44    4.55
   1  -3   3  110.99    4.92
   1  -3   3   91.84    5.52
   1  -3   3   97.75    5.49
   1  -3   3  107.07    4.93
   1  -3   3  106.27    4.67
   1  -3   3  109.00    5.35
  -2   3  -3   31.11    1.53
  -2   3  -3   32.02    1.66
  -2   3  -3   30.49    1.93
   2  -3   3   34.88    2.43
   2  -3   3   31.57    1.88
   2  -3   3   30.17    1.85
   2  -3   3   30.99    1.64
   2  -3   3   34.87    2.47
   2  -3   3   29.95    2.27
   2  -3   3   30.52    2.12
   2  -3   3   30.66    1.81
  -3   3  -3  136.99    6.10
  -3   3  -3  141.99    6.58
  -3   3  -3  142.14    6.28
  -3   3  -3  132.74    6.88
   3  -3   3  142.99    6.56
   3  -3   3  140.62    6.27
   3  -3   3  128.26    7.19
   3  -3   3  148.46    6.43
  -4   3  -3    7.56    0.94
  -4   3  -3    5.37    2.17
  -4   3  -3    5.97    0.70
  -4   3  -3    5.84    0.49
  -4   3  -3    7.67    1.18
  -4   3  -3    4.09    1.58
   4  -3   3    4.94    0.66
   4  -3   3    6.83    0.65
   4  -3   3    6.48    0.92
  -5   3  -3  174.94    8.35
  -5   3  -3  176.96    7.90
  -5   3  -3  178.12    8.18
  -5   3  -3  190.88    8.83
   5  -3   3  177.56    8.18
  -6   3  -3  128.49    6.02
  -6   3  -3  134.98    6.54
  -6   3  -3  135.73    6.39
   6  -3   3  135.86    6.41
  -7   3  -3    0.26    0.32
  -7   3  -3    0.62    0.27
  -7   3  -3   -0.01    0.35
   7  -3   3    0.06    0.37
  -8   3  -3   61.28    3.32
  -8   3  -3   73.53    3.88
  -9   3  -3   45.39    2.85
  -9   3  -3   36.32    2.25
 -11  -2   3    0.54    0.54
 -11  -2   3    0.69    0.48
 -10  -2   3   24.32    1.68
 -10  -2   3   21.59    1.85
  -9  -2   3   42.31    2.64
  -9  -2   3   42.50    2.40
  -8  -2   3    2.34    1.52
  -8  -2   3    2.60    0.63
  -8  -2   3    2.63    1.50
  -8  -2   3    2.12    0.46
  -7  -2   3   52.61    5.29
  -7  -2   3   50.56    2.79
  -7  -2   3   49.34    5.23
  -7  -2   3   51.74    2.61
  -6  -2   3  136.53    6.23
  -6  -2   3  133.00    6.05
  -6  -2   3  134.87    6.39
  -6  -2   3  133.80    9.23
  -6  -2   3  132.86    7.69
  -6  -2   3  137.85    9.07
   5   2  -3   12.04    0.78
  -5  -2   3   10.72    0.95
  -5  -2   3   12.48    0.89
  -5  -2   3   10.73    1.50
  -5  -2   3   12.25    1.99
  -5  -2   3   11.80    2.62
  -5  -2   3   12.19    0.78
   4   2  -3   93.40    4.67
   4   2  -3   96.28    4.34
  -4  -2   3   98.73    4.65
  -4  -2   3   95.27    6.93
  -4  -2   3   97.10    5.58
  -4  -2   3   96.16    4.44
  -4  -2   3   99.45    4.67
  -4  -2   3   99.12    4.45
  -4  -2   3  100.03    6.32
   3   2  -3   72.47    3.27
   3   2  -3   79.23    3.52
   3   2  -3   70.33    3.59
  -3  -2   3   71.14    4.35
  -3  -2   3   71.65    3.56
  -3  -2   3   74.73    3.33
  -3  -2   3   71.01    3.57
  -3  -2   3   73.68    3.48
  -3  -2   3   70.19    4.70
  -3  -2   3   74.58    5.64
   2   2  -3  136.99    6.20
   2   2  -3  134.65    6.28
   2   2  -3  137.96    5.90
  -2  -2   3  139.20    5.95
  -2  -2   3  139.99    7.25
  -2  -2   3  137.71    8.36
  -2  -2   3  137.34    6.25
  -2  -2   3  133.29    7.03
  -2  -2   3  134.20    6.19
   1   2  -3   46.51    2.12
   1   2  -3   48.99    3.06
   1   2  -3   45.81    2.49
  -1  -2   3   46.22    3.09
  -1  -2   3   47.36    2.49
  -1  -2   3   47.59    3.93
  -1  -2   3   49.01    2.17
  -1  -2   3   47.13    2.45
  -1  -2   3   47.59    3.05
   0   2  -3  188.52    9.08
   0   2  -3  189.93    7.95
   0  -2   3  187.79    9.11
   0  -2   3  193.56    8.45
   0  -2   3  169.55    8.93
   0  -2   3  194.22   10.02
   0  -2   3  186.58    8.33
   0  -2   3  181.67    7.98
  -1   2  -3  732.54   30.50
   1  -2   3  707.87   31.62
   1  -2   3  708.03   31.40
   1  -2   3  737.28   30.88
   1  -2   3  728.24   30.56
  -2   2  -3  154.31    7.90
  -2   2  -3  172.47    7.38
  -2   2  -3  157.38    8.23
  -2   2  -3  174.22    7.64
  -2   2  -3  176.92    7.30
   2  -2   3  170.15    7.37
   2  -2   3  165.93    7.93
   2  -2   3  170.12    8.23
   2  -2   3  185.33    7.70
   2  -2   3  175.88    8.13
   2  -2   3  172.43    7.63
   2  -2   3  141.99    8.82
   2  -2   3  178.97    8.40
  -3   2  -3  117.50    6.91
  -3   2  -3  142.56    6.18
  -3   2  -3  137.41    6.34
  -3   2  -3  134.63    6.69
  -3   2  -3  138.43    6.04
   3  -2   3  141.93    6.69
   3  -2   3  147.46    6.76
   3  -2   3  142.60    6.32
   3  -2   3  137.93    6.39
   3  -2   3  137.48    6.79
   3  -2   3  138.54    6.17
  -4   2  -3  196.74    8.79
  -4   2  -3  196.61    8.60
  -4   2  -3  194.27    8.92
  -4   2  -3  196.82    9.24
   4  -2   3  205.11    8.82
  -5   2  -3   61.21    3.14
  -5   2  -3   45.18    5.26
  -5   2  -3   58.13    2.79
  -5   2  -3   64.18    3.39
  -5   2  -3   58.67    3.03
   5  -2   3   59.32    3.05
  -6   2  -3    2.96    1.67
  -6   2  -3    5.39    0.82
  -6   2  -3    2.71    0.42
  -6   2  -3    3.31    0.66
   6  -2   3    3.58    0.69
  -7   2  -3   98.29    4.61
  -7   2  -3  103.78    5.10
  -7   2  -3  108.08    5.06
  -7   2  -3   78.50    8.42
  -8   2  -3   76.66    4.04
  -8   2  -3   69.00    3.56
  -9   2  -3    8.12    1.24
  -9   2  -3    6.50    0.83
 -10   2  -3   21.51    1.91
 -10   2  -3   16.81    1.37
 -11  -1   3    5.24    1.06
 -11  -1   3    4.73    0.86
 -10  -1   3   25.09    2.00
 -10  -1   3   26.32    1.77
  -9  -1   3    0.62    0.49
  -9  -1   3    0.57    0.37
  -8  -1   3   62.59    3.31
  -8  -1   3   58.03    3.01
  -8  -1   3   55.16    6.09
  -7  -1   3   73.28    6.47
  -7  -1   3   72.88    6.23
  -7  -1   3   64.87    3.43
  -7  -1   3   75.77    3.71
  -6  -1   3  102.88    7.48
  -6  -1   3   95.47    7.23
  -6  -1   3   98.75    4.80
  -6  -1   3  101.96    4.75
  -6  -1   3   96.88    4.56
   5   1  -3   62.10    3.03
  -5  -1   3   64.36    3.23
  -5  -1   3   66.58    5.18
  -5  -1   3   65.59    3.05
  -5  -1   3   65.34    5.50
  -5  -1   3   66.36    4.17
  -5  -1   3   62.11    3.15
   4   1  -3  208.46    9.58
   4   1  -3  219.16    9.34
  -4  -1   3  230.23   12.51
  -4  -1   3  215.27   11.49
  -4  -1   3  210.02    9.53
  -4  -1   3  214.97    9.55
  -4  -1   3  215.36    9.43
  -4  -1   3  216.77   10.49
   3   1  -3    2.71    0.31
   3   1  -3    2.56    0.37
   3   1  -3    2.41    0.40
  -3  -1   3    3.71    0.91
  -3  -1   3    2.53    0.38
  -3  -1   3    2.30    1.12
  -3  -1   3    3.59    0.47
  -3  -1   3    2.65    0.35
  -3  -1   3    2.58    0.86
  -3  -1   3    3.04    0.46
   2   1  -3    2.80    0.85
   2   1  -3    1.96    0.33
   2   1  -3    3.80    0.52
   2   1  -3    2.21    0.26
  -2  -1   3    1.90    0.39
  -2  -1   3    2.22    0.70
  -2  -1   3    2.51    0.83
  -2  -1   3    2.84    0.26
  -2  -1   3    2.98    1.27
  -2  -1   3    2.56    0.41
   1   1  -3   36.15    2.61
   1   1  -3   33.72    1.86
   1   1  -3   33.83    1.60
  -1  -1   3   32.33    1.91
  -1  -1   3   38.37    3.62
  -1  -1   3   35.88    1.88
  -1  -1   3   36.47    2.68
   0   1  -3   89.62    3.94
   0   1  -3   82.18    5.25
   0  -1   3  101.97    6.44
   0  -1   3   91.72    4.34
  -1   1  -3    0.90    0.44
  -1   1  -3   -0.14    0.41
  -1   1  -3    1.02    0.19
  -1   1  -3    0.47    0.77
   1  -1   3   -0.10    0.59
   1  -1   3    0.62    0.67
   1  -1   3   -0.22    0.44
   1  -1   3    0.74    0.32
   1  -1   3    0.49    0.38
  -2   1  -3   46.63    2.03
  -2   1  -3   44.70    2.07
  -2   1  -3   41.46    2.47
  -2   1  -3   42.31    2.68
  -2   1  -3   42.82    2.16
   2  -1   3   46.85    3.72
   2  -1   3   45.22    2.07
   2  -1   3   44.77    2.34
   2  -1   3   45.54    2.58
   2  -1   3   33.59    3.41
  -3   1  -3  203.68   10.75
  -3   1  -3  231.78   10.03
  -3   1  -3  231.95   10.56
  -3   1  -3  233.53   10.22
  -3   1  -3  232.89   10.15
   3  -1   3  238.74   10.17
   3  -1   3  246.04   11.70
   3  -1   3  233.86   10.33
   3  -1   3  245.63   10.61
  -4   1  -3  174.38    7.87
  -4   1  -3  176.43    7.84
  -4   1  -3  180.01    8.16
  -4   1  -3  165.35    8.47
  -4   1  -3  169.55    7.64
   4  -1   3  182.36    8.14
   4  -1   3  177.36    7.85
   4  -1   3  163.97    7.77
   4  -1   3  183.66    8.59
   4  -1   3  182.88    7.88
  -5   1  -3   45.26    5.29
  -5   1  -3   58.82    2.81
  -5   1  -3   64.67    3.31
  -5   1  -3   61.56    3.10
  -5   1  -3   63.68    3.08
  -5   1  -3   49.51    5.47
   5  -1   3   60.40    3.31
   5  -1   3   61.52    3.08
  -6   1  -3   79.71    7.96
  -6   1  -3  111.67    5.08
  -6   1  -3  102.68    4.74
  -6   1  -3  109.58    5.12
  -6   1  -3  111.62    5.30
  -6   1  -3   98.14    8.64
  -7   1  -3    1.22    0.31
  -7   1  -3    1.21    1.47
  -7   1  -3    1.07    0.47
  -7   1  -3    2.33    0.62
  -8   1  -3    0.99    0.50
  -8   1  -3    0.04    1.16
  -8   1  -3    0.04    0.21
  -8   1  -3    1.24    0.51
  -9   1  -3   21.55    1.76
  -9   1  -3   17.91    1.33
 -10   1  -3   58.50    3.28
 -10   1  -3   67.51    3.86
 -10   0   3    5.01    1.00
 -10   0   3    6.21    0.89
  -9   0   3   17.29    1.27
  -9   0   3   13.50    1.53
  -8   0   3   34.84    2.05
  -8   0   3   35.28    4.72
  -8   0   3   38.75    2.39
  -7   0   3   12.26    1.12
  -7   0   3   10.58    1.32
  -7   0   3   10.90    2.71
  -7   0   3   10.99    0.87
  -6   0   3   36.22    3.93
  -6   0   3   37.17    2.07
  -6   0   3   37.21    1.92
  -6   0   3   34.17    2.21
  -6   0   3   36.17    2.09
  -6   0   3   34.37    3.88
   5   0  -3  109.54    5.00
  -5   0   3  107.09    4.99
  -5   0   3  110.49    5.15
  -5   0   3  112.31    7.77
  -5   0   3  114.71    5.33
  -5   0   3  112.75    7.37
  -5   0   3  109.83    5.12
   4   0  -3  120.84    5.42
   4   0  -3  119.94    5.57
  -4   0   3  121.67    5.53
  -4   0   3  124.65    8.28
  -4   0   3  125.80    7.47
  -4   0   3  123.78    5.53
  -4   0   3  126.26    5.68
  -4   0   3  117.31    6.16
  -4   0   3  123.02    5.56
   3   0  -3   83.79    4.01
   3   0  -3   85.65    3.88
   3   0  -3   83.52    3.92
  -3   0   3   86.49    3.95
  -3   0   3   87.01    4.06
  -3   0   3   95.94    6.80
  -3   0   3   89.80    4.01
  -3   0   3   86.65    3.97
  -3   0   3   89.74    5.52
   2   0  -3  971.30   40.90
   2   0  -3  965.99   42.53
  -2   0   3 1000.00   42.62
  -2   0   3  980.15   44.73
  -2   0   3  934.31   41.01
   1   0  -3  479.29   20.73
   1   0  -3  516.45   22.34
  -1   0   3  466.01   24.33
  -1   0   3  497.04   22.31
  -1   0   3  492.76   20.92
   0   0  -3   80.90    5.53
   0   0   3   90.21    4.42
   0   0   3  101.91    4.50
   0   0   3   90.07    6.90
  -1   0  -3  602.89   23.47
  -1   0  -3  542.96   23.83
  -1   0  -3  541.39   24.05
   1   0   3  585.95   24.01
   1   0   3  500.86   23.87
  -2   0  -3  125.05    5.42
  -2   0  -3  130.53    5.47
  -2   0  -3  125.34    5.79
  -2   0  -3  122.04    6.00
  -2   0  -3  120.98    5.46
   2   0   3  127.08    5.51
   2   0   3  113.09    5.81
   2   0   3  131.67    5.93
  -3   0  -3    9.48    0.66
  -3   0  -3    8.90    0.63
  -3   0  -3    8.35    0.77
  -3   0  -3    8.82    0.56
  -3   0  -3    8.48    0.91
  -3   0  -3    6.17    1.85
  -3   0  -3    5.74    1.90
   3   0   3    8.15    0.78
   3   0   3    8.75    0.80
   3   0   3    9.25    1.55
   3   0   3    7.57    0.84
  -4   0  -3   56.70    2.91
  -4   0  -3   53.01    2.69
  -4   0  -3   49.31    3.08
  -4   0  -3   56.01    2.72
  -4   0  -3   54.73    2.56
   4   0   3   59.27    2.94
   4   0   3   54.67    3.10
   4   0   3   57.14    3.80
   4   0   3   49.38    2.78
  -5   0  -3  205.58    8.80
  -5   0  -3  167.26   12.35
  -5   0  -3  217.21    9.26
  -5   0  -3  201.52    9.00
  -5   0  -3  200.58    9.03
   5   0   3  190.64    9.09
   5   0   3  219.34    9.25
  -6   0  -3  214.48    8.96
  -6   0  -3  172.57   12.77
  -6   0  -3  157.40   12.12
  -6   0  -3  194.49    8.67
  -6   0  -3  197.27    8.75
  -6   0  -3  196.46    8.41
  -7   0  -3    0.46    0.36
  -7   0  -3    0.73    0.27
  -7   0  -3    0.59    0.38
  -7   0  -3    0.90    1.28
  -7   0  -3    0.48    0.40
  -7   0  -3    0.63    1.20
  -8   0  -3  119.94   11.46
  -8   0  -3  153.20    6.89
  -8   0  -3  161.71    7.11
  -8   0  -3  114.71   10.94
  -8   0  -3  144.83    6.47
  -9   0  -3   32.25    1.98
  -9   0  -3   37.55    2.48
 -10   0  -3    0.25    0.30
 -10   0  -3   -0.21    0.41
 -11   0  -3   10.08    1.53
 -11   0  -3    9.51    1.07
 -10   1   3   39.15    2.80
 -10   1   3   45.28    2.60
  -9   1   3   43.56    2.80
  -9   1   3   44.05    2.51
  -8   1   3    0.65    1.04
  -8   1   3    0.47    0.29
  -8   1   3    0.00    0.40
  -7   1   3   81.30    4.20
  -7   1   3   75.38    6.63
  -7   1   3   73.02    3.92
  -7   1   3   74.83    3.69
  -6   1   3  157.54    7.13
  -6   1   3  145.56    9.55
  -6   1   3  147.69    6.89
  -6   1   3  143.97    6.66
   5  -1  -3    7.59    0.61
  -5   1   3    8.71    0.99
  -5   1   3    7.82    0.67
  -5   1   3    7.52    0.62
  -5   1   3    8.62    1.97
  -5   1   3    7.68    2.11
  -5   1   3    8.17    0.76
   4  -1  -3   71.35    3.36
   4  -1  -3   70.26    3.41
  -4   1   3   73.51    3.51
  -4   1   3   77.34    5.28
  -4   1   3   72.62    3.43
  -4   1   3   72.42    3.59
  -4   1   3   74.74    6.11
  -4   1   3   75.39    3.41
   3  -1  -3   98.38    4.37
   3  -1  -3   89.83    4.22
   3  -1  -3   97.46    4.26
   3  -1  -3   93.05    4.29
  -3   1   3   98.06    4.29
  -3   1   3   94.04    4.42
  -3   1   3   94.77    4.26
  -3   1   3   97.04    4.36
  -3   1   3   96.61    5.93
  -3   1   3   99.91    7.51
   2  -1  -3  378.27   16.53
   2  -1  -3  388.29   16.53
   2  -1  -3  409.22   16.77
   2  -1  -3  389.75   16.50
   2  -1  -3  409.67   18.26
   2  -1  -3  365.17   16.42
  -2   1   3  379.33   16.60
  -2   1   3  387.59   16.49
  -2   1   3  356.06   20.48
  -2   1   3  401.45   16.52
  -2   1   3  387.14   16.53
  -2   1   3  409.22   18.29
   1  -1  -3   28.15    1.43
   1  -1  -3   26.11    2.39
   1  -1  -3   26.56    1.23
   1  -1  -3   26.71    1.27
  -1   1   3   18.78    3.16
  -1   1   3   28.94    1.32
  -1   1   3   27.24    2.42
  -1   1   3   26.77    1.33
   0  -1  -3  569.31   30.30
   0  -1  -3  741.07   28.53
   0  -1  -3  746.56   28.33
   0   1   3  712.74   28.65
   0   1   3  572.56   32.09
  -1  -1  -3  705.93   29.29
  -1  -1  -3  690.29   29.48
   1   1   3  687.14   29.58
  -2  -1  -3   -0.21    0.45
  -2  -1  -3    0.61    0.25
  -2  -1  -3    0.49    0.18
  -2  -1  -3    0.61    0.18
  -2  -1  -3    0.93    0.30
  -2  -1  -3    0.41    0.17
  -2  -1  -3   -0.20    0.49
   2   1   3    0.39    0.77
   2   1   3    2.19    0.44
   2   1   3    0.40    0.14
   2   1   3    0.41    0.27
  -3  -1  -3  362.74   15.52
  -3  -1  -3  351.25   15.59
  -3  -1  -3  378.58   15.80
  -3  -1  -3  342.00   15.58
   3   1   3  351.75   17.94
   3   1   3  375.07   15.89
   3   1   3  390.48   15.85
  -4  -1  -3   40.17    2.11
  -4  -1  -3   26.01    3.71
  -4  -1  -3   38.56    1.96
  -4  -1  -3   36.68    1.81
  -4  -1  -3   35.33    1.95
   4   1   3   35.91    2.11
   4   1   3   40.24    2.13
   4   1   3   38.76    2.19
  -5  -1  -3   10.63    2.92
  -5  -1  -3   11.42    2.88
  -5  -1  -3   12.76    1.00
  -5  -1  -3   13.64    0.85
  -5  -1  -3   14.83    1.12
  -5  -1  -3   12.82    1.02
   5   1   3   12.19    1.04
   5   1   3   16.71    1.82
   5   1   3   13.23    1.08
  -6  -1  -3   71.73    3.36
  -6  -1  -3   63.72    6.51
  -6  -1  -3   71.90    3.68
  -6  -1  -3   62.04    6.78
  -6  -1  -3   75.58    3.64
  -6  -1  -3   74.96    3.77
  -7  -1  -3   70.15    7.35
  -7  -1  -3   80.33    4.16
  -7  -1  -3   84.58    4.11
  -7  -1  -3   78.04    3.74
  -7  -1  -3   85.62    4.26
  -7  -1  -3   67.20    7.60
  -8  -1  -3   27.42    5.69
  -8  -1  -3   32.88    2.11
  -8  -1  -3   32.11    2.25
  -8  -1  -3   25.83    5.64
  -8  -1  -3   32.94    1.81
  -9  -1  -3    0.07    0.20
  -9  -1  -3    0.20    0.43
 -10  -1  -3   97.03    4.83
 -10  -1  -3  101.76    5.29
 -11  -1  -3   38.85    2.40
 -11  -1  -3   42.95    2.91
 -10   2   3    0.33    0.40
 -10   2   3   -0.58    0.40
  -9   2   3    0.16    0.36
  -9   2   3   -0.22    0.46
  -8   2   3   26.57    4.16
  -8   2   3   30.95    1.84
  -8   2   3   30.72    2.12
  -7   2   3   52.54    2.77
  -7   2   3   56.69    3.24
  -7   2   3   53.77    3.06
  -7   2   3   53.43    5.43
  -6   2   3   10.55    2.55
  -6   2   3    9.37    1.19
  -6   2   3    9.07    0.78
  -6   2   3   15.30    1.16
   5  -2  -3  151.90    7.11
   5  -2  -3  160.09    6.90
  -5   2   3  159.53    6.94
  -5   2   3  146.83    9.85
  -5   2   3  154.99    6.89
  -5   2   3  150.77    7.19
  -5   2   3  156.34    9.40
  -5   2   3  158.22    7.13
   4  -2  -3  508.04   22.13
   4  -2  -3  526.57   21.97
   4  -2  -3  498.13   21.96
  -4   2   3  549.30   24.51
  -4   2   3  496.62   26.04
  -4   2   3  520.52   22.25
  -4   2   3  512.99   22.13
  -4   2   3  498.50   21.99
  -4   2   3  533.52   21.97
   3  -2  -3   87.08    3.85
   3  -2  -3   87.28    3.93
   3  -2  -3   87.76    3.83
  -3   2   3   83.29    3.79
  -3   2   3   84.93    4.02
  -3   2   3   93.26    5.65
  -3   2   3   71.34    6.85
  -3   2   3   83.29    3.77
  -3   2   3   84.33    3.91
   2  -2  -3  132.04    5.64
   2  -2  -3  128.94    5.69
   2  -2  -3  131.80    7.24
   2  -2  -3  127.07    5.68
  -2   2   3  133.13    7.30
  -2   2   3  129.64    5.55
  -2   2   3  124.34    5.53
  -2   2   3  129.50    5.68
  -2   2   3  130.07    5.79
   1  -2  -3  152.87    6.52
   1  -2  -3  152.02    6.61
   1  -2  -3  149.90    8.25
   1  -2  -3  152.22    6.53
  -1   2   3  147.45    6.61
  -1   2   3  155.13    6.54
  -1   2   3  147.89    8.18
   0  -2  -3  105.87    4.53
   0  -2  -3   95.52    4.39
   0   2   3  102.47    4.41
   0   2   3   98.93    4.47
   0   2   3  104.52    4.47
  -1  -2  -3   39.74    1.80
  -1  -2  -3   38.95    1.91
  -1  -2  -3   37.93    1.84
   1   2   3   40.08    1.89
   1   2   3   38.30    1.91
  -2  -2  -3  470.58   19.68
  -2  -2  -3  466.17   19.55
  -2  -2  -3  467.92   19.57
  -2  -2  -3  458.22   19.69
   2   2   3  444.48   19.73
   2   2   3  462.04   19.72
  -3  -2  -3  606.31   25.05
  -3  -2  -3  585.14   24.93
  -3  -2  -3  586.58   25.14
  -3  -2  -3  588.95   24.99
   3   2   3  579.60   25.16
   3   2   3  586.78   25.17
  -4  -2  -3    1.61    1.12
  -4  -2  -3    1.08    0.30
  -4  -2  -3    1.28    0.24
  -4  -2  -3    1.31    0.32
  -4  -2  -3    1.38    0.36
  -4  -2  -3    0.31    0.68
   4   2   3    1.70    0.39
   4   2   3    1.28    0.38
  -5  -2  -3  221.06   15.20
  -5  -2  -3  287.87   11.46
  -5  -2  -3  235.44   11.12
  -5  -2  -3  270.18   11.06
  -5  -2  -3  253.49   11.21
  -5  -2  -3  207.11   14.31
   5   2   3  263.27   11.47
   5   2   3  290.07   11.49
  -6  -2  -3  244.10   10.88
  -6  -2  -3  207.60   14.54
  -6  -2  -3  274.35   11.14
  -6  -2  -3  215.92   15.38
  -6  -2  -3  266.87   10.68
  -7  -2  -3    1.41    0.47
  -7  -2  -3    0.70    1.11
  -7  -2  -3    1.75    0.52
  -7  -2  -3    1.29    0.32
  -7  -2  -3    1.10    1.17
  -8  -2  -3   67.85    3.55
  -8  -2  -3   67.46    3.22
  -8  -2  -3   59.76    8.23
  -8  -2  -3   55.99    7.37
  -9  -2  -3   25.38    1.62
  -9  -2  -3   28.64    1.99
 -10  -2  -3    1.42    0.62
 -10  -2  -3    2.21    0.48
 -11  -2  -3    1.52    0.68
 -10   3   3   37.35    2.86
 -10   3   3   49.41    2.71
  -9   3   3   27.03    2.12
  -9   3   3   27.35    1.84
  -8   3   3   -0.02    0.28
  -8   3   3   -0.31    0.42
   7  -3  -3   42.78    2.72
  -7   3   3   48.91    2.49
  -7   3   3   45.96    2.78
  -7   3   3   47.48    5.10
   6  -3  -3   24.63    1.70
  -6   3   3   23.33    1.66
  -6   3   3   25.76    1.47
  -6   3   3   22.68    1.74
  -6   3   3   23.71    3.20
   5  -3  -3   39.95    2.32
  -5   3   3   41.56    2.33
  -5   3   3   41.15    2.13
  -5   3   3   42.46    3.99
  -5   3   3   44.29    2.50
   4  -3  -3   58.97    2.89
   4  -3  -3   56.62    2.71
  -4   3   3   57.62    2.88
  -4   3   3   59.03    2.70
  -4   3   3   53.77    2.79
  -4   3   3   56.07    2.71
  -4   3   3   60.18    4.55
  -4   3   3   58.69    3.03
  -4   3   3   50.96    5.61
   3  -3  -3  238.49   10.34
   3  -3  -3  233.31   10.20
  -3   3   3  228.78   10.33
  -3   3   3  247.33   10.53
  -3   3   3  244.84   12.25
  -3   3   3  238.33   10.14
  -3   3   3  228.83   10.21
   2  -3  -3  353.97   14.98
   2  -3  -3  342.27   15.07
   2  -3  -3  344.66   15.05
   2  -3  -3  360.66   16.85
  -2   3   3  359.82   16.88
  -2   3   3  349.70   15.08
  -2   3   3  351.99   15.24
   1  -3  -3   84.44    3.68
   1  -3  -3   84.37    5.40
   1  -3  -3   82.72    3.75
   1  -3  -3   84.18    3.79
  -1   3   3   80.27    5.30
  -1   3   3   83.71    3.92
   0  -3  -3  354.13   15.15
   0  -3  -3  362.12   15.29
   0  -3  -3  362.92   15.22
   0   3   3  351.69   15.12
  -1  -3  -3  346.75   15.08
  -1  -3  -3  357.25   15.12
  -1  -3  -3  367.53   15.15
  -1  -3  -3  363.93   15.23
   1   3   3  351.98   15.15
   1   3   3  348.04   15.17
  -2  -3  -3  168.53    7.33
  -2  -3  -3  173.43    7.46
  -2  -3  -3  176.72    7.40
  -2  -3  -3  172.17    7.45
   2   3   3  167.76    7.47
   2   3   3  165.19    7.49
  -3  -3  -3   11.98    0.72
  -3  -3  -3   13.88    0.81
  -3  -3  -3   13.50    0.88
  -3  -3  -3   13.08    0.81
  -3  -3  -3    6.75    2.19
   3   3   3   12.26    0.88
   3   3   3   12.93    0.90
  -4  -3  -3  367.63   15.60
  -4  -3  -3  372.61   15.78
  -4  -3  -3  360.77   15.51
  -4  -3  -3  357.75   15.62
   4   3   3  363.80   15.81
   4   3   3  356.92   15.79
  -5  -3  -3  231.46   10.22
  -5  -3  -3  229.10   10.38
  -5  -3  -3  237.41   10.55
  -5  -3  -3  241.09   10.31
   5   3   3  246.56   10.62
   5   3   3  231.72   10.58
  -6  -3  -3    2.44    0.49
  -6  -3  -3    2.54    1.55
  -6  -3  -3    3.39    0.60
  -6  -3  -3    3.92    1.92
  -6  -3  -3    2.92    0.41
   6   3   3    4.09    0.70
  -7  -3  -3   94.13    4.39
  -7  -3  -3   76.25    8.34
  -7  -3  -3   94.23    4.12
  -7  -3  -3   75.86    7.70
  -8  -3  -3  120.76    5.87
  -8  -3  -3   99.92   10.52
  -8  -3  -3  131.78    5.59
  -9  -3  -3   18.69    1.53
  -9  -3  -3   17.25    1.22
 -10  -3  -3   38.86    2.62
 -10  -3  -3   38.16    2.23
 -11  -3  -3   40.94    2.79
 -11  -3  -3   37.74    2.31
  -9   4   3   15.50    1.48
  -9   4   3   14.27    1.80
  -8   4   3   10.75    1.49
  -8   4   3   10.06    1.09
   7  -4  -3  124.19    6.32
  -7   4   3  129.84    5.95
  -7   4   3  128.86    6.36
   6  -4  -3    9.89    1.21
  -6   4   3   12.07    2.69
  -6   4   3    9.54    1.27
  -6   4   3   11.78    0.89
  -6   4   3   13.07    1.34
   5  -4  -3   72.34    3.68
  -5   4   3   72.89    3.44
  -5   4   3   72.13    5.62
  -5   4   3   69.44    3.67
  -5   4   3   73.78    3.87
   4  -4  -3   58.12    2.97
   4  -4  -3   59.85    2.79
  -4   4   3   61.91    4.66
  -4   4   3   59.62    2.78
  -4   4   3   48.93    3.01
  -4   4   3   60.87    3.20
  -4   4   3   61.11    2.80
  -4   4   3   59.41    2.99
   3  -4  -3   90.28    4.13
   3  -4  -3   95.34    4.21
   3  -4  -3   95.78    4.28
   3  -4  -3   90.57    4.35
  -3   4   3   99.92    4.63
  -3   4   3   98.96    6.07
  -3   4   3   77.90    4.35
  -3   4   3   99.05    4.19
  -3   4   3   97.19    4.39
   2  -4  -3    2.78    0.41
   2  -4  -3    2.54    0.19
   2  -4  -3    2.75    0.40
   2  -4  -3    4.48    0.40
   2  -4  -3    3.22    1.06
  -2   4   3    3.26    0.47
  -2   4   3    3.10    0.53
  -2   4   3    1.66    1.61
  -2   4   3    3.35    1.05
   1  -4  -3   22.06    1.23
   1  -4  -3   21.47    2.33
   1  -4  -3   22.68    1.24
   1  -4  -3   21.66    1.11
  -1   4   3   23.58    1.47
  -1   4   3   22.15    2.35
   0  -4  -3   49.83    2.29
   0  -4  -3   43.74    2.14
   0  -4  -3   39.78    3.90
   0  -4  -3   47.68    2.32
   0   4   3   50.09    2.19
   0   4   3   49.82    2.16
  -1  -4  -3   87.67    3.99
  -1  -4  -3   86.80    4.03
  -1  -4  -3   90.65    3.97
   1   4   3   88.90    3.95
   1   4   3   88.07    3.97
  -2  -4  -3  143.43    6.23
  -2  -4  -3  140.18    6.26
  -2  -4  -3  139.66    6.09
  -2  -4  -3  143.37    6.26
   2   4   3  140.99    6.26
   2   4   3  139.02    6.28
  -3  -4  -3  248.10   10.46
  -3  -4  -3  239.99   10.60
  -3  -4  -3  247.23   10.59
  -3  -4  -3  249.89   10.68
   3   4   3  237.96   10.70
   3   4   3  241.53   10.69
  -4  -4  -3    8.34    0.65
  -4  -4  -3    8.70    0.64
  -4  -4  -3    8.28    0.55
  -4  -4  -3    4.39    1.55
  -4  -4  -3    8.70    0.73
   4   4   3    7.51    0.72
   4   4   3    7.62    0.72
  -5  -4  -3    7.19    0.65
  -5  -4  -3    8.99    0.59
  -5  -4  -3    6.60    0.59
  -5  -4  -3    3.67    1.82
  -5  -4  -3    8.46    0.78
  -5  -4  -3    6.67    2.29
   5   4   3    7.70    0.78
   5   4   3    6.92    0.75
  -6  -4  -3   63.97    2.86
  -6  -4  -3   57.85    2.74
  -6  -4  -3   43.07    5.28
  -6  -4  -3   43.13    5.90
  -6  -4  -3   57.77    2.96
   6   4   3   64.13    3.22
  -7  -4  -3   89.71    8.52
  -7  -4  -3  112.03    5.10
  -7  -4  -3  114.52    4.83
  -7  -4  -3   89.76    9.38
  -8  -4  -3    4.28    0.56
  -8  -4  -3    1.74    1.71
  -8  -4  -3    4.70    0.82
  -9  -4  -3    0.09    0.23
  -9  -4  -3    0.31    0.33
 -10  -4  -3   57.54    3.46
 -10  -4  -3   58.67    3.06
 -11  -4  -3   22.42    1.93
 -11  -4  -3   23.11    1.61
  -9   5   3   11.61    1.23
  -9   5   3    8.70    1.43
   8  -5  -3   33.86    2.46
  -8   5   3   30.70    1.99
  -8   5   3   32.88    2.44
   7  -5  -3   16.68    1.53
  -7   5   3   17.11    1.55
  -7   5   3   15.92    1.20
   6  -5  -3   20.07    1.56
  -6   5   3   18.43    1.52
  -6   5   3   18.26    1.24
   5  -5  -3  135.52    6.30
   5  -5  -3  121.35    5.99
  -5   5   3  141.38    6.60
  -5   5   3  133.43    6.30
  -5   5   3  132.24    5.98
   4  -5  -3   34.72    2.05
   4  -5  -3   34.16    1.80
  -4   5   3   34.49    2.06
  -4   5   3   35.60    2.28
  -4   5   3   37.12    3.47
  -4   5   3   37.46    1.85
   3  -5  -3  108.10    5.12
   3  -5  -3  112.59    5.02
   3  -5  -3  103.48    4.77
   3  -5  -3  111.32    4.89
  -3   5   3  110.31    4.99
  -3   5   3  112.61    5.42
  -3   5   3  109.87    6.73
  -3   5   3  108.47    4.88
  -3   5   3  108.29    5.12
   2  -5  -3  227.04    9.85
   2  -5  -3  219.73    9.62
   2  -5  -3  212.49    9.49
   2  -5  -3  230.93   11.56
   2  -5  -3  223.70    9.80
  -2   5   3  231.99   10.20
  -2   5   3  221.99   11.51
   1  -5  -3  190.05    9.90
   1  -5  -3  177.98    8.03
   1  -5  -3  178.94    8.02
  -1   5   3  181.44    8.38
  -1   5   3  180.43    9.78
   0  -5  -3    6.78    1.81
   0  -5  -3    8.41    0.63
   0  -5  -3    7.43    0.47
   0  -5  -3    7.07    0.62
   0   5   3    8.12    0.54
   0   5   3    7.86    0.57
  -1  -5  -3  215.35    9.40
  -1  -5  -3  211.87    9.43
  -1  -5  -3  210.87    9.18
   1   5   3  218.95    9.39
   1   5   3  219.45    9.34
  -2  -5  -3  153.97    7.00
  -2  -5  -3  162.97    7.24
  -2  -5  -3  168.41    7.23
  -2  -5  -3  166.70    7.27
   2   5   3  163.20    7.27
   2   5   3  163.42    7.22
  -3  -5  -3  309.39   12.89
  -3  -5  -3  263.41   12.57
  -3  -5  -3  302.34   12.80
  -3  -5  -3  299.31   12.78
   3   5   3  298.49   12.87
   3   5   3  298.21   12.90
  -4  -5  -3   61.74    3.01
  -4  -5  -3   62.75    3.00
  -4  -5  -3   61.13    2.84
   4   5   3   60.67    3.16
  -5  -5  -3  346.81   14.92
  -5  -5  -3  332.73   14.97
  -5  -5  -3  344.88   14.78
   5   5   3  354.61   15.23
  -6  -5  -3   25.78    5.65
  -6  -5  -3   33.71    1.74
  -6  -5  -3   36.09    1.87
  -6  -5  -3   32.58    1.93
   6   5   3   32.71    2.12
  -7  -5  -3    0.74    0.32
  -7  -5  -3    0.67    1.20
  -7  -5  -3    0.17    0.17
  -7  -5  -3    0.42    0.97
   7   5   3    0.59    0.53
  -8  -5  -3   82.03    9.80
  -8  -5  -3  117.99    5.40
  -8  -5  -3  113.60    5.03
  -9  -5  -3   29.65    1.74
  -9  -5  -3   29.39    2.05
 -10  -5  -3    1.80    0.61
 -10  -5  -3    2.29    0.51
 -11  -5  -3    0.88    0.53
 -11  -5  -3   -0.08    0.27
   8  -6  -3    2.33    0.55
   8  -6  -3    1.68    0.79
  -8   6   3    1.86    0.79
   7  -6  -3   22.85    1.90
   7  -6  -3   19.69    1.46
  -7   6   3   26.10    1.97
   6  -6  -3   26.07    1.65
   6  -6  -3   28.15    2.02
  -6   6   3   31.96    2.11
   5  -6  -3   38.96    2.16
   5  -6  -3   46.05    2.59
  -5   6   3   46.94    2.69
  -5   6   3   43.69    2.57
   4  -6  -3   15.85    0.97
   4  -6  -3   19.14    1.34
  -4   6   3   18.14    1.54
  -4   6   3   18.77    1.35
  -4   6   3   17.22    1.16
   3  -6  -3   96.00    4.47
   3  -6  -3  105.88    4.79
   3  -6  -3  105.12    4.90
  -3   6   3  101.42    4.66
  -3   6   3  105.44    4.92
  -3   6   3   99.05    5.19
   2  -6  -3  169.52    7.59
   2  -6  -3  158.19    7.24
   2  -6  -3  173.62    7.66
   2  -6  -3  167.47    9.38
  -2   6   3  168.34    8.04
  -2   6   3  179.12   10.98
  -2   6   3  172.32    7.49
   1  -6  -3    1.74    0.38
   1  -6  -3    0.14    0.15
   1  -6  -3    0.34    0.45
  -1   6   3    0.29    0.42
  -1   6   3    0.21    0.31
   0  -6  -3  152.19    6.90
   0  -6  -3  152.05    6.88
   0   6   3  154.44    6.85
   0   6   3  153.71    6.76
  -1  -6  -3  287.18   12.55
  -1  -6  -3  282.41   12.57
   1   6   3  293.83   12.48
   1   6   3  289.91   12.57
  -2  -6  -3   15.15    0.83
  -2  -6  -3   15.45    1.04
  -2  -6  -3   16.24    1.06
   2   6   3   16.56    1.10
  -3  -6  -3  111.68    4.98
  -3  -6  -3  110.32    4.97
  -3  -6  -3  101.20    4.68
   3   6   3  106.70    5.08
  -4  -6  -3   33.70    1.85
  -4  -6  -3   33.61    1.86
   4   6   3   33.06    2.00
  -5  -6  -3    9.78    0.64
  -5  -6  -3    5.36    1.49
  -5  -6  -3    5.92    2.55
  -5  -6  -3    8.63    0.78
  -5  -6  -3    9.79    0.77
   5   6   3    9.97    0.94
  -6  -6  -3    6.12    0.61
  -6  -6  -3    7.39    0.85
  -6  -6  -3    4.22    2.38
  -6  -6  -3    3.61    1.66
  -6  -6  -3    5.92    0.70
   6   6   3    8.62    1.74
   6   6   3    5.33    0.83
  -7  -6  -3   12.11    3.87
  -7  -6  -3   17.94    1.11
  -7  -6  -3   10.89    3.88
  -7  -6  -3   18.86    1.35
   7   6   3   22.29    2.42
  -8  -6  -3   72.35    3.46
  -8  -6  -3   70.11    3.78
  -9  -6  -3    1.33    0.36
  -9  -6  -3    1.79    0.55
 -10  -6  -3   48.19    3.02
 -10  -6  -3   46.71    2.57
 -11  -6  -3   31.66    1.98
 -11  -6  -3   32.17    2.41
   7  -7  -3   31.19    1.90
   7  -7  -3   36.65    2.56
  -7   7   3   40.31    2.64
   6  -7  -3    0.72    0.43
   6  -7  -3    0.21    0.18
  -6   7   3    0.40    0.41
   5  -7  -3   73.01    3.52
   5  -7  -3   77.41    4.08
  -5   7   3   79.96    4.10
   4  -7  -3   70.63    3.40
   4  -7  -3   77.66    3.91
  -4   7   3   79.01    3.95
  -4   7   3   75.51    4.66
   3  -7  -3   44.66    2.16
   3  -7  -3   47.57    2.62
   3  -7  -3   47.98    2.53
  -3   7   3   46.78    2.62
  -3   7   3   48.27    2.98
   2  -7  -3   38.55    2.17
   2  -7  -3   38.37    2.11
   2  -7  -3   35.04    1.75
  -2   7   3   41.22    2.59
   1  -7  -3  249.99   11.22
   1  -7  -3  254.70   11.21
  -1   7   3  256.20   11.76
   0  -7  -3   70.99    3.51
   0  -7  -3   71.00    3.52
   0   7   3   71.72    3.53
  -1  -7  -3    4.59    0.62
  -1  -7  -3    4.45    1.63
  -1  -7  -3    4.93    0.66
   1   7   3    5.15    0.70
  -2  -7  -3  194.90    8.66
  -2  -7  -3  190.83    8.64
   2   7   3  193.84    8.75
  -3  -7  -3  299.92   13.45
  -3  -7  -3  311.13   13.48
   3   7   3  311.97   13.64
  -4  -7  -3    1.97    1.51
  -4  -7  -3    2.97    0.50
  -4  -7  -3    3.93    0.59
   4   7   3    3.59    0.67
  -5  -7  -3  155.70    7.06
  -5  -7  -3  150.60    7.09
   5   7   3  157.42    7.38
  -6  -7  -3  186.43    8.50
  -6  -7  -3  183.54    8.59
   6   7   3  179.79    8.86
   6   7   3  207.92   10.64
  -7  -7  -3   41.18    2.30
  -7  -7  -3   26.34    6.15
  -8  -7  -3    5.12    0.85
   8   7   3    0.64    0.71
  -9  -7  -3   22.80    1.77
 -10  -7  -3   33.27    2.38
   6  -8  -3   12.19    1.54
   6  -8  -3   11.77    0.80
  -6   8   3   12.21    1.53
   5  -8  -3   70.04    3.34
   5  -8  -3   76.89    4.07
  -5   8   3   75.26    4.05
   4  -8  -3   14.29    0.86
   4  -8  -3   15.72    1.33
  -4   8   3   16.67    1.39
   3  -8  -3   67.84    3.46
   3  -8  -3   66.46    3.55
   3  -8  -3   61.82    3.00
  -3   8   3   72.84    3.63
   2  -8  -3   63.83    3.24
   2  -8  -3   59.48    3.26
  -2   8   3   60.47    3.71
   1  -8  -3   20.73    1.45
   1  -8  -3   21.00    1.44
  -1   8   3   22.35    1.88
   0  -8  -3    0.79    0.32
   0  -8  -3    0.87    0.34
   0   8   3    1.12    0.36
  -1  -8  -3   82.69    4.13
  -1  -8  -3   83.43    4.12
   1   8   3   85.32    4.24
  -2  -8  -3   81.54    4.07
  -2  -8  -3   80.80    4.07
   2   8   3   85.82    4.25
  -3  -8  -3   45.01    2.47
  -3  -8  -3   41.88    2.43
   3   8   3   48.03    2.68
  -4  -8  -3   21.09    1.43
  -4  -8  -3   20.01    1.39
   4   8   3   21.13    1.59
  -5  -8  -3  195.88    8.87
  -5  -8  -3  185.11    8.87
   5   8   3  206.25    9.27
  -6  -8  -3    1.74    1.81
  -6  -8  -3    5.45    0.80
  -6  -8  -3    4.25    0.65
   6   8   3    6.36    1.05
   6   8   3    4.76    1.46
  -7  -8  -3   70.43    3.87
  -7  -8  -3   75.38    3.79
   7   8   3   77.65    6.56
  -8  -8  -3  100.55    5.14
  -9  -8  -3    0.37    0.44
 -10  -8  -3   12.32    1.50
   5  -9  -3   10.01    1.31
   5  -9  -3    7.36    0.53
  -5   9   3    6.83    1.13
   4  -9  -3   19.16    1.53
   4  -9  -3   17.01    0.96
  -4   9   3   17.42    1.51
   3  -9  -3   46.04    2.74
   3  -9  -3   48.59    3.04
  -3   9   3   43.40    2.72
   2  -9  -3   30.55    1.91
   2  -9  -3   26.67    1.89
   1  -9  -3   80.06    4.15
   1  -9  -3   81.89    4.14
  -1   9   3   81.63    4.80
   0  -9  -3  137.59    6.60
   0  -9  -3  141.68    6.61
  -1  -9  -3    4.12    0.68
  -1  -9  -3    4.17    0.67
   1   9   3    4.15    0.77
  -2  -9  -3   21.15    1.51
  -2  -9  -3   22.92    1.55
   2   9   3   22.78    1.69
  -3  -9  -3  127.59    6.12
  -3  -9  -3  126.87    6.11
   3   9   3  131.84    6.40
  -4  -9  -3   51.28    2.88
  -4  -9  -3   51.30    2.86
   4   9   3   54.32    3.17
  -5  -9  -3    0.35    0.26
  -5  -9  -3    0.39    0.28
   5   9   3    0.16    0.30
  -6  -9  -3   10.85    1.26
  -6  -9  -3   10.71    1.01
   6   9   3   11.50    1.29
  -7  -9  -3   55.30    2.93
  -7  -9  -3   46.82    2.92
  -8  -9  -3   40.10    2.55
  -9  -9  -3   12.14    1.49
 -10  -9  -3   56.72    3.51
   4 -10  -3   21.67    1.81
  -4  10   3   23.39    1.88
   3 -10  -3    4.28    0.88
  -3  10   3    5.44    0.96
   2 -10  -3   23.06    1.76
   2 -10  -3   24.97    1.75
  -2  10   3   22.59    1.76
   1 -10  -3   23.79    1.75
   1 -10  -3   25.54    1.77
   0 -10  -3   38.87    2.40
   0 -10  -3   39.65    2.41
  -1 -10  -3   14.60    1.22
  -1 -10  -3   13.88    1.22
  -2 -10  -3   94.32    4.78
  -2 -10  -3   95.42    4.77
  -3 -10  -3   35.67    2.23
  -3 -10  -3   36.77    2.26
  -4 -10  -3    3.82    0.70
  -4 -10  -3    2.94    0.62
  -5 -10  -3   65.08    3.58
  -5 -10  -3   68.74    3.64
  -6 -10  -3   25.76    1.89
  -6 -10  -3   28.23    1.89
  -7 -10  -3    0.35    0.35
  -7 -10  -3    0.20    0.30
  -8 -10  -3    4.00    0.85
  -9 -10  -3   13.38    1.65
   3 -11  -3   47.53    3.05
  -3  11   3   47.39    3.05
   2 -11  -3   50.59    3.02
   2 -11  -3   48.07    2.92
  -2  11   3   44.14    2.92
   1 -11  -3    2.12    0.62
   1 -11  -3    0.64    0.40
   0 -11  -3   18.47    1.53
   0 -11  -3   19.29    1.56
  -1 -11  -3   32.38    2.19
  -1 -11  -3   35.03    2.26
  -2 -11  -3    0.64    0.38
  -2 -11  -3    1.32    0.43
  -3 -11  -3    2.49    0.63
  -3 -11  -3    2.58    0.65
  -4 -11  -3   33.94    2.29
  -4 -11  -3   38.17    2.37
  -5 -11  -3   30.59    2.13
  -5 -11  -3   33.58    2.20
  -6 -11  -3    2.20    0.63
  -6 -11  -3    2.79    0.66
  -7 -11  -3   26.69    1.94
  -7 -11  -3   26.06    1.99
  -8 -11  -3   18.14    1.64
   0 -12  -3   86.72    4.65
   0 -12  -3   84.89    4.64
  -1 -12  -3    8.64    1.24
  -1 -12  -3    6.87    1.10
  -2 -12  -3   52.63    3.08
  -2 -12  -3   48.88    3.05
  -3 -12  -3   58.82    3.41
  -3 -12  -3   57.20    3.36
  -4 -12  -3    3.84    0.80
  -4 -12  -3    4.23    0.84
  -5 -12  -3    6.42    1.04
  -5 -12  -3    5.77    1.03
  -6 -12  -3   21.14    1.72
  -6 -12  -3   16.51    1.54
  -5 -11   4    0.15    0.38
  -5 -11   4   -0.02    0.34
  -5 -11   4   -0.06    1.29
  -4 -11   4    9.93    1.25
  -4 -11   4   10.70    1.42
  -4 -11   4   11.27    4.12
  -3 -11   4   12.98    4.35
  -3 -11   4   11.23    1.46
  -3 -11   4    9.71    1.23
  -2 -11   4   20.34    1.62
  -2 -11   4   19.69    1.73
  -1 -11   4    0.56    0.39
  -1 -11   4    1.60    0.57
  -1 -11   4    0.68    0.45
   0 -11   4   19.99    1.74
   0 -11   4   19.72    1.64
   0 -11   4   21.65    1.72
  -7 -10   4   14.69    1.59
  -7 -10   4   16.90    5.14
  -6 -10   4   14.84    1.54
  -6 -10   4   12.51    4.43
  -6 -10   4   13.33    1.51
  -5 -10   4   43.68    2.67
  -5 -10   4   39.34    6.13
  -5 -10   4   47.13    2.84
  -4 -10   4   28.97    5.13
  -4 -10   4   33.12    2.12
  -4 -10   4   30.77    2.20
  -3 -10   4    0.24    0.38
  -3 -10   4    0.51    1.12
  -3 -10   4    0.74    0.37
  -2 -10   4   14.91    1.42
  -2 -10   4   14.39    1.27
  -1 -10   4   81.06    4.11
  -1 -10   4   70.97    3.96
  -1 -10   4   73.31    4.16
   0 -10   4   29.39    1.98
   0 -10   4   28.30    2.09
   0 -10   4   26.57    1.98
   1 -10   4   -0.01    0.31
   1 -10   4    0.14    0.34
   1 -10   4    0.06    0.31
  -2  10  -4   43.24    2.65
   2 -10   4   39.96    2.70
   2 -10   4   40.07    2.68
   2 -10   4   43.16    2.66
  -3  10  -4   62.63    3.62
   3 -10   4   62.93    3.64
   3 -10   4   62.62    3.68
   3 -10   4   62.63    3.70
  -8  -9   4    6.38    3.21
  -8  -9   4    5.01    0.89
  -7  -9   4   16.65    4.86
  -7  -9   4   17.40    1.46
  -6  -9   4    0.11    0.33
  -6  -9   4    0.32    0.33
  -6  -9   4    0.36    1.13
  -5  -9   4   24.80    1.86
  -5  -9   4   24.80    5.53
  -5  -9   4   26.46    1.79
  -4  -9   4  109.38    5.56
  -4  -9   4  107.37    9.87
  -4  -9   4  111.17    5.39
  -3  -9   4    2.96    0.61
  -3  -9   4    3.19    1.92
  -3  -9   4    1.67    0.51
  -2  -9   4  100.43    9.01
  -2  -9   4   98.45    4.94
  -2  -9   4   96.68    4.82
  -2  -9   4   95.69    5.04
  -1  -9   4   46.63    2.94
  -1  -9   4   49.85    2.79
  -1  -9   4   51.77    2.90
   0  -9   4    9.33    1.11
   0  -9   4    9.41    1.18
   0  -9   4    9.21    1.23
   1  -9   4   78.50    4.18
   1  -9   4   86.91    4.41
   1  -9   4   79.76    4.38
  -2   9  -4   17.19    1.41
   2  -9   4   17.40    1.50
   2  -9   4   16.60    1.40
   2  -9   4   15.61    1.45
  -3   9  -4    1.08    0.48
   3  -9   4    0.28    0.37
   3  -9   4    1.41    0.55
   3  -9   4    1.78    0.55
  -4   9  -4   10.55    1.34
   4  -9   4    9.91    1.36
   4  -9   4    9.18    1.28
  -9  -8   4    4.05    2.62
  -9  -8   4    6.09    0.98
  -8  -8   4    1.90    0.58
  -8  -8   4    2.04    2.04
  -7  -8   4   43.17    2.58
  -7  -8   4   43.38    6.20
  -6  -8   4   21.87    1.56
  -6  -8   4   21.59    4.94
  -6  -8   4   21.31    1.61
  -5  -8   4   38.05    5.45
  -5  -8   4   43.50    2.45
  -5  -8   4   42.24    2.55
  -4  -8   4  128.28    5.96
  -4  -8   4  126.20    6.14
  -4  -8   4  119.20   10.11
   3   8  -4    5.18    1.78
  -3  -8   4    4.78    0.73
  -3  -8   4    7.91    2.78
  -3  -8   4    7.66    1.05
   2   8  -4    4.96    1.67
  -2  -8   4    4.14    0.77
  -2  -8   4    6.26    0.86
  -2  -8   4    4.65    2.18
  -2  -8   4    5.51    0.76
   1   8  -4   33.27    3.72
  -1  -8   4   30.98    2.09
  -1  -8   4   28.86    4.17
  -1  -8   4   31.00    1.90
  -1  -8   4   33.49    2.06
   0   8  -4  124.05    8.29
   0  -8   4  121.36    5.87
   0  -8   4  121.94    6.12
   0  -8   4  129.55    6.09
   1  -8   4   33.96    2.04
   1  -8   4   31.37    2.16
   1  -8   4   34.03    2.19
  -2   8  -4    4.98    0.79
   2  -8   4    4.67    0.83
   2  -8   4    3.70    0.76
   2  -8   4    4.91    0.79
  -3   8  -4   94.60    4.73
   3  -8   4   93.07    4.72
   3  -8   4   88.05    4.87
   3  -8   4   94.29    4.84
  -4   8  -4   48.52    2.90
   4  -8   4   51.77    3.15
   4  -8   4   48.60    2.91
  -5   8  -4    0.81    0.47
   5  -8   4    0.08    0.41
   5  -8   4    0.04    0.33
  -9  -7   4    5.52    2.89
  -9  -7   4    5.87    0.99
  -8  -7   4   40.99    5.97
  -8  -7   4   37.87    2.41
  -7  -7   4   43.85    5.98
  -7  -7   4   43.15    2.53
  -6  -7   4    0.55    0.34
  -6  -7   4   -0.05    0.70
  -6  -7   4    0.31    0.28
   5   7  -4   86.69    7.10
  -5  -7   4   96.18    4.68
  -5  -7   4   91.29    4.51
  -5  -7   4   93.67    8.48
   4   7  -4  127.04    8.65
  -4  -7   4  125.72    9.84
  -4  -7   4  124.63    5.81
  -4  -7   4  119.83    5.99
   3   7  -4    5.61    1.07
   3   7  -4    5.57    1.80
  -3  -7   4    5.69    0.87
  -3  -7   4    5.18    0.68
  -3  -7   4    7.13    1.68
  -3  -7   4    5.64    0.76
  -3  -7   4    6.05    2.25
   2   7  -4   70.29    4.18
   2   7  -4   64.17    5.46
  -2  -7   4   69.95    3.50
  -2  -7   4   71.58    6.58
  -2  -7   4   74.16    4.64
  -2  -7   4   70.62    3.62
  -2  -7   4   68.20    3.73
   1   7  -4   75.46    5.87
  -1  -7   4   80.38    4.06
  -1  -7   4   79.43    3.89
  -1  -7   4   76.79    4.13
  -1  -7   4   86.84    7.11
   0   7  -4    0.74    0.71
   0  -7   4    1.19    0.42
   0  -7   4    1.44    0.44
   0  -7   4    0.93    0.32
   0  -7   4    2.07    1.29
  -1   7  -4    7.85    2.76
   1  -7   4    9.49    0.89
   1  -7   4   11.95    1.12
   1  -7   4   12.76    1.12
  -2   7  -4   66.49    3.53
   2  -7   4   73.98    3.78
   2  -7   4   65.33    3.73
   2  -7   4   70.21    3.55
  -3   7  -4   91.86    4.60
   3  -7   4   91.51    4.59
   3  -7   4   89.55    4.82
   3  -7   4   95.18    4.75
  -4   7  -4    0.55    0.36
   4  -7   4    0.25    0.32
   4  -7   4    0.37    0.31
   4  -7   4    1.06    0.46
  -5   7  -4   36.42    2.45
   5  -7   4   44.03    2.59
   5  -7   4   41.51    2.77
  -6   7  -4   52.16    3.17
   6  -7   4   53.27    3.41
   6  -7   4   51.60    3.18
 -10  -6   4   25.43    5.92
 -10  -6   4   25.42    1.94
  -9  -6   4   10.48    1.27
  -9  -6   4   10.90    3.91
  -8  -6   4    0.35    0.33
  -8  -6   4    1.29    1.54
  -7  -6   4   34.20    5.09
  -7  -6   4   41.73    5.22
  -7  -6   4   42.22    2.37
   6   6  -4   16.04    3.19
  -6  -6   4   24.15    3.55
  -6  -6   4   21.83    3.84
  -6  -6   4   21.80    1.50
  -6  -6   4   22.39    1.48
   5   6  -4   13.65    2.76
  -5  -6   4   18.53    1.34
  -5  -6   4   20.76    2.95
  -5  -6   4   15.50    3.59
  -5  -6   4   16.34    1.19
  -5  -6   4   17.32    4.12
   4   6  -4    1.62    0.98
  -4  -6   4    2.00    0.42
  -4  -6   4    1.88    0.90
  -4  -6   4    1.74    0.49
  -4  -6   4    1.42    1.26
   3   6  -4  196.61   11.50
   3   6  -4  195.25    9.65
  -3  -6   4  205.06    9.24
  -3  -6   4  205.21    8.98
  -3  -6   4  203.87   10.62
  -3  -6   4  202.53    9.08
  -3  -6   4  201.18   12.78
   2   6  -4   22.26    2.78
   2   6  -4   23.15    1.91
  -2  -6   4   28.03    1.76
  -2  -6   4   24.98    2.34
  -2  -6   4   23.35    1.45
  -2  -6   4   24.83    1.58
  -2  -6   4   26.92    3.57
   1   6  -4    9.00    2.01
  -1  -6   4    9.68    1.26
  -1  -6   4    9.52    0.77
  -1  -6   4    9.59    0.89
  -1  -6   4    8.60    1.04
  -1  -6   4   10.12    2.57
   0   6  -4  130.80    8.39
   0  -6   4  142.18    6.87
   0  -6   4  143.54    6.58
   0  -6   4  155.42    9.61
   0  -6   4  153.02    6.84
  -1   6  -4  179.02   10.65
   1  -6   4  205.22    9.21
   1  -6   4  200.96    8.91
   1  -6   4  211.85    9.22
  -2   6  -4    4.00    0.62
   2  -6   4    4.69    0.79
   2  -6   4    3.69    0.58
   2  -6   4    3.96    0.72
  -3   6  -4   56.51    2.92
  -3   6  -4   55.97    3.43
   3  -6   4   51.40    3.01
   3  -6   4   51.87    2.88
   3  -6   4   57.13    3.18
  -4   6  -4   91.32    4.53
  -4   6  -4   88.26    4.98
   4  -6   4   91.20    4.62
   4  -6   4   92.50    4.85
   4  -6   4   91.33    4.54
  -5   6  -4   20.42    1.59
   5  -6   4   23.03    1.86
   5  -6   4   23.89    1.68
  -6   6  -4    0.83    0.46
   6  -6   4    0.08    0.34
   6  -6   4    0.28    0.38
  -7   6  -4   14.41    1.67
   7  -6   4   14.37    1.65
   7  -6   4   19.67    2.13
 -10  -5   4   25.75    1.77
 -10  -5   4   26.09    1.95
 -10  -5   4   23.77    5.41
  -9  -5   4    5.28    0.88
  -9  -5   4    3.78    2.23
  -9  -5   4    4.12    0.68
  -8  -5   4   23.69    4.20
  -8  -5   4   26.59    1.78
  -8  -5   4   26.38    1.59
  -7  -5   4   75.43    7.63
  -7  -5   4   83.37    7.48
  -7  -5   4   86.46    4.17
  -7  -5   4   84.24    3.93
  -6  -5   4   12.04    2.51
  -6  -5   4    9.45    0.85
  -6  -5   4    7.39    2.49
  -6  -5   4   10.54    2.64
  -6  -5   4    8.74    0.70
   5   5  -4   30.57    3.55
  -5  -5   4   36.68    4.60
  -5  -5   4   35.36    1.97
  -5  -5   4   36.05    3.84
  -5  -5   4   34.34    2.06
  -5  -5   4   35.07    3.34
  -5  -5   4   37.96    1.82
   4   5  -4   95.28    6.96
  -4  -5   4  109.87    5.13
  -4  -5   4  113.26    7.09
  -4  -5   4  100.13    6.44
  -4  -5   4  108.50    4.92
  -4  -5   4  105.65    8.26
   3   5  -4  105.56    7.27
   3   5  -4  121.31    5.94
   3   5  -4  122.33    5.94
  -3  -5   4  122.00    5.43
  -3  -5   4  116.15    8.50
  -3  -5   4  113.24    5.29
  -3  -5   4  112.79    5.54
  -3  -5   4  113.60    6.74
   2   5  -4   18.32    2.35
   2   5  -4   17.84    1.55
  -2  -5   4   18.50    1.37
  -2  -5   4   19.47    2.85
  -2  -5   4   19.23    1.98
  -2  -5   4   18.85    1.14
  -2  -5   4   19.87    1.92
  -2  -5   4   18.06    1.24
   1   5  -4   79.79    5.75
  -1  -5   4   89.06    4.33
  -1  -5   4   95.57    6.83
  -1  -5   4   88.61    5.17
  -1  -5   4   91.81    4.16
  -1  -5   4   90.68    4.47
   0   5  -4  120.76    7.76
   0  -5   4  140.46    7.01
   0  -5   4  137.03    6.51
   0  -5   4  142.90    6.45
   0  -5   4  147.92    8.85
   0  -5   4  135.92    6.18
  -1   5  -4   47.61    4.04
   1  -5   4   62.45    3.23
   1  -5   4   62.15    3.14
   1  -5   4   62.35    3.21
   1  -5   4   60.75    2.93
  -2   5  -4   97.31    4.57
   2  -5   4   98.78    4.86
   2  -5   4   95.96    4.56
   2  -5   4   96.68    4.81
  -3   5  -4  251.55   11.29
  -3   5  -4  244.49   11.80
   3  -5   4  274.85   11.70
   3  -5   4  259.00   11.52
   3  -5   4  249.84   11.29
  -4   5  -4   15.70    1.18
  -4   5  -4   14.53    1.67
   4  -5   4   16.11    1.24
   4  -5   4   13.13    1.50
   4  -5   4   14.81    1.16
  -5   5  -4   40.88    2.65
  -5   5  -4   39.61    2.36
   5  -5   4   37.48    2.34
   5  -5   4   41.66    2.67
  -6   5  -4   78.31    4.31
   6  -5   4   82.03    4.36
   6  -5   4   90.42    4.75
  -7   5  -4    7.00    1.11
   7  -5   4    9.01    1.37
   7  -5   4    7.01    1.12
  -8   5  -4    7.14    1.23
   8  -5   4    8.04    1.43
   8  -5   4    6.12    1.18
 -10  -4   4    5.72    0.97
 -10  -4   4    6.98    0.94
  -9  -4   4   11.01    1.13
  -9  -4   4   13.88    3.84
  -9  -4   4   11.88    1.35
  -8  -4   4    2.87    1.82
  -8  -4   4    4.17    0.74
  -8  -4   4    3.81    0.58
  -7  -4   4   20.93    4.15
  -7  -4   4   17.80    1.33
  -7  -4   4   18.45    1.21
  -7  -4   4   20.42    2.71
  -7  -4   4   16.48    3.78
  -6  -4   4   10.64    2.53
  -6  -4   4   10.11    0.77
  -6  -4   4   10.25    1.13
  -6  -4   4   10.44    1.80
  -6  -4   4   12.53    3.24
  -6  -4   4    9.39    0.84
   5   4  -4   84.46    3.94
  -5  -4   4   89.37    4.20
  -5  -4   4   86.47    5.75
  -5  -4   4   84.36    4.08
  -5  -4   4   86.20    3.95
  -5  -4   4   88.94    6.48
  -5  -4   4   84.16    7.26
   4   4  -4   29.37    3.23
   4   4  -4   38.38    1.79
  -4  -4   4   38.69    1.93
  -4  -4   4   40.29    3.59
  -4  -4   4   36.27    3.14
  -4  -4   4   34.08    2.05
  -4  -4   4   33.51    4.11
   3   4  -4    0.22    0.24
   3   4  -4    0.97    0.62
   3   4  -4    0.12    0.19
   3   4  -4    0.57    0.15
  -3  -4   4    0.55    0.50
  -3  -4   4    0.17    0.20
  -3  -4   4    0.66    0.74
  -3  -4   4    0.89    0.60
  -3  -4   4    0.03    0.13
   2   4  -4  212.18    9.70
   2   4  -4  211.73    9.56
   2   4  -4  184.04   10.87
   2   4  -4  214.97    8.96
  -2  -4   4  216.31   12.32
  -2  -4   4  211.28    9.45
  -2  -4   4  206.17   10.53
  -2  -4   4  210.25    9.27
  -2  -4   4  211.06    9.11
   1   4  -4  176.47    7.63
   1   4  -4  150.69    9.33
  -1  -4   4  186.15    8.76
  -1  -4   4  180.60    8.18
  -1  -4   4  188.48    8.04
  -1  -4   4  185.94   10.65
  -1  -4   4  174.15    9.03
  -1  -4   4  180.90    7.80
   0   4  -4    2.39    0.89
   0   4  -4    3.52    0.28
   0   4  -4    3.62    0.62
   0  -4   4    3.35    0.42
   0  -4   4    3.34    0.70
   0  -4   4    4.11    0.98
   0  -4   4    3.52    0.58
   0  -4   4    1.73    1.17
   0  -4   4    3.70    0.64
   0  -4   4    1.81    1.01
   0  -4   4    3.20    1.26
  -1   4  -4  121.91    5.20
   1  -4   4  117.07    6.10
   1  -4   4  116.91    5.98
   1  -4   4  116.83    6.51
   1  -4   4  115.96    5.34
   1  -4   4  121.07    5.70
   1  -4   4  123.97    5.66
  -2   4  -4   58.51    2.73
  -2   4  -4   59.12    2.89
   2  -4   4   60.57    3.15
   2  -4   4   57.56    2.88
   2  -4   4   59.40    3.16
   2  -4   4   61.72    3.21
  -3   4  -4   63.95    2.93
  -3   4  -4   60.08    3.09
  -3   4  -4   59.01    3.82
  -3   4  -4   62.98    3.49
   3  -4   4   65.30    3.33
   3  -4   4   63.00    3.10
   3  -4   4   65.90    3.45
  -4   4  -4   68.54    4.69
  -4   4  -4   51.08    2.56
  -4   4  -4   53.24    2.78
  -4   4  -4   47.97    2.99
   4  -4   4   50.92    2.76
   4  -4   4   52.87    3.09
   4  -4   4   56.05    2.91
  -5   4  -4  149.16    6.79
  -5   4  -4  155.03    7.36
  -5   4  -4  150.82    7.08
   5  -4   4  149.15    7.08
   5  -4   4  157.33    7.46
  -6   4  -4   65.36    3.19
  -6   4  -4   65.34    3.71
  -6   4  -4   61.18    3.48
   6  -4   4   66.45    3.83
   6  -4   4   66.16    3.55
  -7   4  -4    5.50    0.68
  -7   4  -4    4.36    0.85
   7  -4   4    5.38    1.06
   7  -4   4    6.08    1.01
  -8   4  -4  155.32    7.58
  -8   4  -4  147.27    7.02
   8  -4   4  154.39    7.60
   8  -4   4  155.42    7.87
  -9   4  -4    5.03    0.78
  -9   4  -4    8.70    1.35
   9  -4   4    6.95    1.37
 -10  -3   4   30.78    2.07
 -10  -3   4   35.30    2.35
  -9  -3   4   48.93    6.31
  -9  -3   4   46.86    2.82
  -9  -3   4   48.00    2.64
  -8  -3   4   26.49    1.61
  -8  -3   4   25.59    4.10
  -8  -3   4   25.77    1.76
  -7  -3   4  145.75    6.57
  -7  -3   4  144.09    8.81
  -7  -3   4  146.06    6.75
  -7  -3   4  150.70   10.43
  -7  -3   4  136.95   10.46
  -6  -3   4    5.43    1.89
  -6  -3   4    5.93    2.29
  -6  -3   4    5.31    0.68
  -6  -3   4    5.12    0.85
  -6  -3   4    5.35    1.50
  -6  -3   4    4.59    0.55
   5   3  -4    0.74    0.22
  -5  -3   4    0.21    0.52
  -5  -3   4    0.66    0.24
  -5  -3   4    0.59    0.26
  -5  -3   4    1.08    1.00
  -5  -3   4    0.74    0.23
  -5  -3   4    0.73    0.36
  -5  -3   4    0.87    0.69
   4   3  -4    4.51    0.46
   4   3  -4    4.22    0.97
  -4  -3   4    4.26    1.69
  -4  -3   4    5.58    1.47
  -4  -3   4    5.05    0.54
  -4  -3   4    4.04    0.60
  -4  -3   4    5.82    1.44
   3   3  -4  234.57   10.29
   3   3  -4  240.43   10.70
   3   3  -4  235.93   10.86
  -3  -3   4  245.18   13.86
  -3  -3   4  239.71   10.37
  -3  -3   4  239.62   10.67
  -3  -3   4  242.49   12.26
  -3  -3   4  242.16   11.97
   2   3  -4   19.47    1.35
   2   3  -4   17.68    1.39
   2   3  -4   19.59    0.99
  -2  -3   4   20.59    2.78
  -2  -3   4   19.51    2.02
  -2  -3   4   18.81    1.32
  -2  -3   4   19.09    1.97
  -2  -3   4   20.53    1.06
   1   3  -4   24.49    1.21
   1   3  -4   26.16    2.15
  -1  -3   4   25.64    1.29
  -1  -3   4   22.04    2.03
  -1  -3   4   24.92    2.96
  -1  -3   4   26.94    2.32
  -1  -3   4   25.15    1.61
   0   3  -4  379.78   16.38
   0   3  -4  403.60   17.67
   0  -3   4  379.12   16.89
   0  -3   4  377.58   16.45
   0  -3   4  398.66   19.14
   0  -3   4  383.83   17.64
   0  -3   4  382.70   17.85
  -1   3  -4  602.43   24.36
  -1   3  -4  482.97   25.84
   1  -3   4  600.24   25.75
   1  -3   4  648.08   24.85
   1  -3   4  608.39   24.89
   1  -3   4  579.60   25.65
   1  -3   4  595.17   24.45
   1  -3   4  491.46   26.26
  -2   3  -4   43.24    2.05
  -2   3  -4   44.03    2.16
   2  -3   4   46.87    3.36
   2  -3   4   44.36    2.16
   2  -3   4   43.97    2.89
   2  -3   4   33.05    3.43
   2  -3   4   45.09    2.46
   2  -3   4   43.68    2.44
   2  -3   4   43.80    3.00
  -3   3  -4  129.26    5.58
  -3   3  -4  124.74    6.01
  -3   3  -4  126.12    5.71
  -3   3  -4  109.25    6.34
   3  -3   4  129.69    5.73
   3  -3   4  129.83    5.98
   3  -3   4  130.13    6.15
  -4   3  -4  115.37    5.32
  -4   3  -4  110.27    5.12
  -4   3  -4  106.66    5.50
  -4   3  -4  115.48    6.01
   4  -3   4  124.87    5.51
   4  -3   4  112.00    5.31
   4  -3   4  115.58    5.66
  -5   3  -4   26.62    1.66
  -5   3  -4   24.75    1.74
  -5   3  -4   27.35    1.44
  -5   3  -4   15.02    4.04
   5  -3   4   26.29    1.66
   5  -3   4   25.03    1.85
  -6   3  -4   10.16    1.16
  -6   3  -4   10.71    0.85
  -6   3  -4   12.24    1.36
   6  -3   4   12.29    1.44
   6  -3   4   12.79    1.13
  -7   3  -4   71.78    3.99
  -7   3  -4   76.35    4.14
  -7   3  -4   75.32    3.64
   7  -3   4   73.64    4.03
  -8   3  -4   96.64    4.83
  -8   3  -4  107.19    5.36
  -9   3  -4    3.22    0.88
  -9   3  -4    1.84    0.48
 -10  -2   4    5.39    1.01
 -10  -2   4    4.98    0.86
  -9  -2   4    0.57    0.43
  -9  -2   4    0.08    0.30
  -8  -2   4   32.35    1.90
  -8  -2   4   34.29    2.10
  -8  -2   4   32.24    6.62
  -8  -2   4   30.08    4.35
  -7  -2   4  111.66    5.19
  -7  -2   4  110.43    5.35
  -7  -2   4  112.84    8.85
  -7  -2   4  112.06    8.62
   6   2  -4    2.26    0.40
  -6  -2   4    2.74    0.42
  -6  -2   4    3.47    0.68
  -6  -2   4    2.97    1.36
  -6  -2   4    2.78    1.27
  -6  -2   4    3.83    1.80
  -6  -2   4    2.84    0.54
   5   2  -4  313.30   13.51
  -5  -2   4  312.91   13.91
  -5  -2   4  310.13   16.43
  -5  -2   4  318.74   13.62
  -5  -2   4  321.85   17.64
  -5  -2   4  304.90   15.23
   4   2  -4  229.33   10.48
   4   2  -4  226.60   10.05
  -4  -2   4  240.70   12.50
  -4  -2   4  235.49   11.69
  -4  -2   4  236.42   10.12
  -4  -2   4  246.37   13.94
  -4  -2   4  223.28   10.42
  -4  -2   4  227.18   10.27
   3   2  -4   58.21    2.97
   3   2  -4   53.52    2.93
   3   2  -4   52.58    2.54
  -3  -2   4   54.59    2.88
  -3  -2   4   58.51    5.25
  -3  -2   4   55.50    4.13
  -3  -2   4   54.13    2.57
  -3  -2   4   56.10    2.86
  -3  -2   4   55.38    3.82
   2   2  -4   25.41    2.34
   2   2  -4   22.55    1.16
   2   2  -4   22.25    1.51
   2   2  -4   20.96    1.41
  -2  -2   4   26.01    2.37
  -2  -2   4   24.15    1.52
  -2  -2   4   24.16    2.23
  -2  -2   4   23.39    3.07
  -2  -2   4   23.87    1.18
  -2  -2   4   22.19    1.48
   1   2  -4  187.89    9.45
   1   2  -4  179.95    7.98
  -1  -2   4  185.12    9.53
  -1  -2   4  188.56    8.47
  -1  -2   4  179.18    7.97
  -1  -2   4  182.59    8.45
  -1  -2   4  196.42   11.16
  -1  -2   4  190.02    9.51
   0   2  -4    6.15    1.28
   0   2  -4    4.41    0.33
   0  -2   4    4.78    1.51
   0  -2   4    3.58    0.61
   0  -2   4    3.95    0.31
  -1   2  -4   14.60    0.79
  -1   2  -4   14.42    0.81
   1  -2   4   13.43    1.42
   1  -2   4   14.43    1.68
   1  -2   4   14.16    0.80
   1  -2   4   14.71    2.08
   1  -2   4   13.79    1.12
  -2   2  -4  237.01   12.34
  -2   2  -4  279.15   11.67
  -2   2  -4  275.49   11.72
  -2   2  -4  258.70   12.82
  -2   2  -4  272.84   12.00
   2  -2   4  264.68   12.10
   2  -2   4  294.18   13.77
   2  -2   4  277.18   11.72
   2  -2   4  259.01   13.09
   2  -2   4  289.38   12.73
   2  -2   4  288.64   12.12
  -3   2  -4  232.14   12.47
  -3   2  -4  256.78   11.62
  -3   2  -4  270.27   11.34
  -3   2  -4  261.55   11.43
  -3   2  -4  249.28   12.09
   3  -2   4  259.32   11.72
   3  -2   4  276.78   12.26
   3  -2   4  282.12   11.84
   3  -2   4  264.39   13.39
   3  -2   4  268.08   11.45
   3  -2   4  285.10   12.68
   3  -2   4  252.77   12.59
  -4   2  -4    3.11    0.39
  -4   2  -4    1.57    1.36
  -4   2  -4    1.93    0.43
  -4   2  -4    2.85    0.48
  -4   2  -4    1.71    1.15
  -4   2  -4    1.89    0.59
   4  -2   4    2.57    0.71
   4  -2   4    3.47    0.52
   4  -2   4    3.19    0.56
  -5   2  -4  100.52    4.78
  -5   2  -4  108.29    5.05
  -5   2  -4  106.02    5.13
  -5   2  -4  107.56    5.49
   5  -2   4  105.62    5.05
  -6   2  -4   97.55    5.01
  -6   2  -4   95.10    4.64
  -6   2  -4  108.43    5.02
   6  -2   4  102.87    4.99
  -7   2  -4    9.57    0.91
  -7   2  -4   11.84    1.39
  -7   2  -4    8.61    1.11
  -8   2  -4   13.18    1.00
  -8   2  -4   10.39    1.31
  -9   2  -4   31.90    1.97
  -9   2  -4   33.82    2.39
 -10   2  -4   19.02    1.47
 -10   2  -4   20.88    1.90
 -10  -1   4   17.98    1.47
 -10  -1   4   19.85    1.74
  -9  -1   4   11.31    1.34
  -9  -1   4   12.15    1.19
  -8  -1   4   20.98    6.81
  -8  -1   4   24.29    1.71
  -8  -1   4   22.25    1.50
  -7  -1   4    1.95    0.43
  -7  -1   4    1.29    1.10
  -7  -1   4    1.14    0.46
  -7  -1   4    1.52    1.10
   6   1  -4   69.89    3.45
  -6  -1   4   71.67    3.81
  -6  -1   4   75.63    3.63
  -6  -1   4   73.21    6.13
  -6  -1   4   71.24    3.46
  -6  -1   4   73.65    6.52
   5   1  -4   87.87    4.14
  -5  -1   4   91.27    6.24
  -5  -1   4   91.78    7.35
  -5  -1   4   86.64    6.43
  -5  -1   4   88.39    4.40
  -5  -1   4   96.33    4.28
   4   1  -4    9.63    0.66
   4   1  -4    9.48    0.84
  -4  -1   4    8.81    0.78
  -4  -1   4    8.40    1.86
  -4  -1   4    9.49    0.71
  -4  -1   4   10.92    2.79
  -4  -1   4    9.43    0.81
  -4  -1   4    9.94    0.83
  -4  -1   4    9.36    1.33
   3   1  -4  732.68   30.90
   3   1  -4  720.42   31.22
  -3  -1   4  740.51   30.91
  -3  -1   4  753.88   35.21
  -3  -1   4  729.31   31.17
  -3  -1   4  775.39   33.26
  -3  -1   4  707.89   31.23
  -3  -1   4  685.76   32.24
   2   1  -4  498.89   21.63
   2   1  -4  496.02   21.40
   2   1  -4  520.86   23.33
   2   1  -4  488.30   21.75
  -2  -1   4  514.65   25.52
  -2  -1   4  530.09   23.41
  -2  -1   4  481.63   21.84
  -2  -1   4  506.66   21.37
  -2  -1   4  511.71   21.73
   1   1  -4   43.10    2.01
   1   1  -4   43.90    3.33
  -1  -1   4   48.57    4.75
  -1  -1   4   44.49    2.35
  -1  -1   4   43.46    3.37
  -1  -1   4   39.13    2.41
   0   1  -4  381.09   16.17
   0   1  -4  348.64   18.19
   0  -1   4  378.85   16.74
   0  -1   4  420.42   20.36
  -1   1  -4  199.06    8.58
   1  -1   4  197.38    9.12
   1  -1   4  194.94    9.41
   1  -1   4  207.50   12.06
  -2   1  -4   19.29    0.98
  -2   1  -4   11.61    2.84
  -2   1  -4   17.18    1.08
  -2   1  -4   18.88    0.99
  -2   1  -4   20.38    1.49
   2  -1   4   19.34    1.55
   2  -1   4   18.70    2.72
   2  -1   4   13.02    2.30
   2  -1   4   19.32    1.00
   2  -1   4   18.31    1.35
  -3   1  -4    2.56    0.60
  -3   1  -4    0.59    0.79
  -3   1  -4    4.22    0.51
  -3   1  -4    1.53    0.34
  -3   1  -4    1.05    0.52
  -3   1  -4    2.56    0.35
  -3   1  -4    0.48    0.89
   3  -1   4    4.30    0.51
   3  -1   4    2.01    0.50
   3  -1   4    2.39    1.17
   3  -1   4    1.86    0.51
   3  -1   4    3.27    1.35
  -4   1  -4  187.70    8.75
  -4   1  -4  184.59    8.15
  -4   1  -4  182.55    8.30
  -4   1  -4  187.56    8.36
   4  -1   4  189.03    8.33
   4  -1   4  187.43    8.76
   4  -1   4  194.04    9.94
   4  -1   4  180.81    8.49
  -5   1  -4  321.50   14.30
  -5   1  -4  335.58   14.58
  -5   1  -4  335.99   14.54
  -5   1  -4  328.26   14.89
   5  -1   4  339.82   14.60
  -6   1  -4    0.25    0.29
  -6   1  -4   -0.07    0.75
  -6   1  -4    0.85    1.17
  -6   1  -4    0.42    0.33
  -6   1  -4    0.40    0.32
  -6   1  -4    0.57    0.21
   6  -1   4    0.70    0.42
  -7   1  -4  130.72    6.08
  -7   1  -4  120.78    5.72
  -7   1  -4  123.84    6.11
  -8   1  -4  145.49    6.78
  -8   1  -4  143.96    7.24
  -8   1  -4  155.96    7.20
  -9   1  -4   13.69    1.08
  -9   1  -4   11.50    1.49
 -10   1  -4    6.42    1.22
 -10   1  -4    5.21    0.77
 -10   0   4   44.02    2.66
 -10   0   4   47.25    2.98
  -9   0   4    1.01    0.45
  -9   0   4    2.73    0.76
  -8   0   4   25.59    1.84
  -8   0   4   25.98    1.65
  -7   0   4  147.62    6.72
  -7   0   4  139.36   11.26
  -7   0   4  138.71    6.46
  -7   0   4  139.73    9.95
   6   0  -4   58.41    2.78
  -6   0   4   56.94    2.96
  -6   0   4   53.74    2.76
  -6   0   4   56.89    5.19
  -6   0   4   51.78    5.37
   5   0  -4   31.51    1.68
  -5   0   4   31.48    1.81
  -5   0   4   31.89    3.46
  -5   0   4   29.48    3.90
  -5   0   4   33.29    1.81
   4   0  -4   19.20    1.09
   4   0  -4   19.45    1.25
  -4   0   4   21.11    2.51
  -4   0   4   18.71    1.20
  -4   0   4   18.20    1.26
  -4   0   4   20.18    1.18
  -4   0   4   18.40    1.19
  -4   0   4   19.26    3.09
   3   0  -4  134.30    6.03
   3   0  -4  133.12    5.82
  -3   0   4  138.33    7.87
  -3   0   4  130.76    5.97
  -3   0   4  138.78    5.85
  -3   0   4  117.29    6.15
  -3   0   4  133.30    5.98
  -3   0   4  133.08    9.54
   2   0  -4  108.47    4.97
   2   0  -4  110.75    4.83
   2   0  -4  116.47    6.57
   2   0  -4  103.28    4.74
  -2   0   4   92.34    5.16
  -2   0   4  114.80    6.61
  -2   0   4  105.90    8.38
  -2   0   4  107.34    4.77
  -2   0   4  109.99    4.94
   1   0  -4  156.76    8.39
   1   0  -4  147.88    6.44
  -1   0   4  148.82   10.50
  -1   0   4  130.15    6.93
  -1   0   4  155.77    6.72
  -1   0   4  153.93    8.37
   0   0  -4  564.46   28.49
   0   0  -4  635.23   26.04
   0   0   4  591.86   26.64
   0   0   4  666.24   26.76
   0   0   4  619.37   31.01
  -1   0  -4  245.12    9.52
  -1   0  -4  218.26    9.97
   1   0   4  187.22   13.10
   1   0   4  228.91   10.19
   1   0   4  221.36   10.12
  -2   0  -4  164.20    7.14
  -2   0  -4  169.61    7.15
  -2   0  -4  168.77    7.62
  -2   0  -4  158.63    7.13
   2   0   4  172.26    7.77
   2   0   4  156.06    7.69
  -3   0  -4  571.29   25.25
  -3   0  -4  596.44   25.26
  -3   0  -4  620.78   25.71
  -3   0  -4  600.23   25.20
   3   0   4  563.34   25.73
   3   0   4  631.25   25.80
   3   0   4  576.49   25.88
  -4   0  -4    9.70    2.70
  -4   0  -4   15.66    1.23
  -4   0  -4   15.23    0.91
  -4   0  -4   16.85    1.04
  -4   0  -4   14.85    1.01
   4   0   4   16.39    1.27
   4   0   4   14.84    1.22
   4   0   4   13.99    1.35
   4   0   4   18.03    2.29
  -5   0  -4   46.69    2.31
  -5   0  -4   46.16    2.49
  -5   0  -4   47.86    2.48
  -5   0  -4   47.63    2.73
   5   0   4   48.92    2.65
   5   0   4   43.18    3.09
  -6   0  -4   15.18    1.18
  -6   0  -4   11.77    3.52
  -6   0  -4    8.32    2.94
  -6   0  -4   15.41    0.95
  -6   0  -4   13.91    1.26
  -6   0  -4   13.60    1.11
  -7   0  -4   24.59    1.50
  -7   0  -4   19.79    4.90
  -7   0  -4   26.63    1.76
  -7   0  -4   27.56    1.86
  -7   0  -4   28.72    2.00
  -7   0  -4   22.32    5.10
  -8   0  -4   -0.18    0.39
  -8   0  -4    0.23    0.24
  -8   0  -4    0.51    0.43
  -8   0  -4    0.76    1.58
  -9   0  -4   49.40    2.97
  -9   0  -4   43.12    2.48
 -10   0  -4   34.53    2.50
 -10   0  -4   34.06    2.08
 -10   1   4    4.33    0.78
 -10   1   4    2.99    0.82
  -9   1   4   13.07    1.31
  -9   1   4   14.46    1.63
  -8   1   4   20.44    1.62
  -8   1   4   19.68    1.39
  -7   1   4    1.75    0.61
  -7   1   4    2.24    0.60
  -7   1   4    2.92    0.53
  -7   1   4    2.06    1.25
   6  -1  -4    7.94    0.79
  -6   1   4    8.54    0.82
  -6   1   4    8.82    2.26
  -6   1   4    8.87    1.02
  -6   1   4    8.55    1.13
  -6   1   4    9.95    2.72
   5  -1  -4  143.38    6.62
  -5   1   4  142.76    9.16
  -5   1   4  148.07    6.71
  -5   1   4  155.86   10.51
  -5   1   4  151.69    6.96
  -5   1   4  152.76    6.80
   4  -1  -4   76.50    3.57
  -4   1   4   84.76    3.86
  -4   1   4   81.44    3.63
  -4   1   4   62.45    3.78
  -4   1   4   79.74    3.69
  -4   1   4   78.88    5.63
  -4   1   4   76.57    3.63
  -4   1   4   81.50    7.11
   3  -1  -4   16.57    2.09
   3  -1  -4   14.58    0.89
   3  -1  -4   15.55    0.97
   3  -1  -4   15.14    0.95
  -3   1   4   16.79    0.97
  -3   1   4   15.74    0.93
  -3   1   4   16.94    3.82
  -3   1   4   17.04    1.07
  -3   1   4   15.02    0.93
  -3   1   4   16.39    2.10
  -3   1   4   14.94    1.20
   2  -1  -4  115.65    5.22
   2  -1  -4  110.16    5.16
   2  -1  -4  119.24    7.05
   2  -1  -4  121.48    5.24
  -2   1   4  123.06    5.34
  -2   1   4  119.32    5.23
  -2   1   4  124.18    7.19
  -2   1   4  100.88    8.97
  -2   1   4  120.13    5.31
  -2   1   4  138.68    5.78
   1  -1  -4  211.75   10.94
   1  -1  -4  211.30    8.71
   1  -1  -4  181.59    8.72
   1  -1  -4  208.84    8.73
  -1   1   4  164.93   12.80
  -1   1   4  210.70    8.87
  -1   1   4  204.14   10.81
  -1   1   4  218.97    8.73
   0  -1  -4    9.83    0.57
   0  -1  -4    9.80    0.51
   0  -1  -4    7.01    1.91
   0  -1  -4    9.24    0.72
   0   1   4    8.33    2.88
  -1  -1  -4  266.62   11.64
  -1  -1  -4  274.89   11.90
   1   1   4  278.95   12.11
   1   1   4  271.65   12.03
  -2  -1  -4  215.41   10.21
  -2  -1  -4  244.44   10.31
  -2  -1  -4  244.74   10.27
  -2  -1  -4  246.06   10.61
   2   1   4  248.35   10.74
   2   1   4  244.07   10.24
   2   1   4  241.56   10.74
  -3  -1  -4  142.22    6.11
  -3  -1  -4  140.63    6.42
  -3  -1  -4  135.75    6.12
  -3  -1  -4  119.88    6.08
   3   1   4  146.63    6.61
   3   1   4  151.29    6.68
   3   1   4  141.19    6.20
   3   1   4  142.71    6.50
  -4  -1  -4   54.02    2.86
  -4  -1  -4   60.68    2.89
  -4  -1  -4   59.18    2.78
  -4  -1  -4   62.93    3.14
   4   1   4   60.93    3.30
   4   1   4   58.28    3.24
  -5  -1  -4  546.13   22.72
  -5  -1  -4  497.71   22.44
  -5  -1  -4  525.10   22.26
  -5  -1  -4  505.06   22.42
   5   1   4  478.34   22.69
   5   1   4  578.01   22.79
  -6  -1  -4  108.08    5.26
  -6  -1  -4  106.77    5.03
  -6  -1  -4  100.49    5.06
  -6  -1  -4  103.34    4.79
  -7  -1  -4    5.22    2.49
  -7  -1  -4    4.33    2.33
  -7  -1  -4    8.38    1.01
  -7  -1  -4    7.66    0.77
  -7  -1  -4    7.63    1.01
  -8  -1  -4   12.81    4.12
  -8  -1  -4   19.49    1.27
  -8  -1  -4   21.22    1.57
  -8  -1  -4   19.93    1.66
  -9  -1  -4   52.10    2.94
  -9  -1  -4   63.66    3.42
 -10  -1  -4   24.12    1.63
 -10  -1  -4   25.05    2.03
 -11  -1  -4   23.53    2.06
 -11  -1  -4   22.57    1.64
 -10   2   4   26.97    2.18
 -10   2   4   22.77    1.74
  -9   2   4    4.52    0.76
  -9   2   4    3.40    0.83
  -8   2   4    0.98    0.52
  -8   2   4    0.54    0.34
  -7   2   4   18.61    1.25
  -7   2   4   17.43    3.03
  -7   2   4   16.17    1.41
  -7   2   4   19.11    1.62
   6  -2  -4   86.12    4.09
  -6   2   4   86.66    4.33
  -6   2   4   83.96    4.09
  -6   2   4   87.10    4.47
  -6   2   4   88.95    6.87
   5  -2  -4    4.01    0.63
   5  -2  -4    2.77    0.41
  -5   2   4    3.24    0.46
  -5   2   4    2.82    0.43
  -5   2   4    4.14    0.66
  -5   2   4    2.85    0.62
  -5   2   4    3.87    1.43
  -5   2   4    3.35    1.70
   4  -2  -4    1.62    0.31
   4  -2  -4    2.07    0.41
  -4   2   4    2.05    0.45
  -4   2   4    1.47    0.28
  -4   2   4    1.59    0.29
  -4   2   4    1.07    0.82
  -4   2   4    0.93    0.30
  -4   2   4    0.35    1.01
   3  -2  -4  182.65    9.91
   3  -2  -4  179.94    7.70
   3  -2  -4  181.07    7.78
  -3   2   4  177.49    7.64
  -3   2   4  174.35    7.63
  -3   2   4  179.66    7.88
  -3   2   4  175.07    7.76
  -3   2   4  180.90    9.92
  -3   2   4  150.14   12.05
   2  -2  -4  211.37    9.29
   2  -2  -4  215.97    9.30
   2  -2  -4  224.06   11.44
   2  -2  -4  208.72    9.43
  -2   2   4  208.89    9.23
  -2   2   4  225.31   11.51
  -2   2   4  212.68    9.30
  -2   2   4  216.30    9.41
  -2   2   4  221.21    9.25
   1  -2  -4   14.47    0.76
   1  -2  -4   15.73    2.10
   1  -2  -4   14.20    0.78
   1  -2  -4   14.20    0.92
  -1   2   4   12.33    3.77
  -1   2   4   13.55    0.75
  -1   2   4   13.80    1.95
  -1   2   4   13.30    0.81
   0  -2  -4  155.23    6.53
   0  -2  -4  119.47    8.63
   0  -2  -4  148.32    6.30
   0  -2  -4  151.05    6.32
   0   2   4  154.11    6.30
   0   2   4  150.52    6.56
   0   2   4  155.11    6.50
   0   2   4  117.28   10.39
  -1  -2  -4  329.12   14.33
   1   2   4  324.90   14.47
   1   2   4  350.48   14.46
  -2  -2  -4    0.03    0.48
  -2  -2  -4    0.51    0.14
  -2  -2  -4    0.02    0.16
  -2  -2  -4   -0.11    0.08
  -2  -2  -4    1.20    0.29
   2   2   4    0.11    0.16
   2   2   4    0.16    0.10
   2   2   4    0.07    0.14
  -3  -2  -4    1.97    0.39
  -3  -2  -4    2.43    0.34
  -3  -2  -4    2.65    0.46
  -3  -2  -4    0.59    0.66
  -3  -2  -4    0.65    0.63
  -3  -2  -4    2.25    0.28
   3   2   4    1.90    0.38
   3   2   4    2.04    0.41
   3   2   4    1.62    0.24
  -4  -2  -4   88.51    4.23
  -4  -2  -4   94.60    4.48
  -4  -2  -4   87.90    4.36
  -4  -2  -4   95.12    4.19
   4   2   4   93.37    4.57
   4   2   4   95.50    4.52
  -5  -2  -4  178.05    7.68
  -5  -2  -4  166.31    7.78
  -5  -2  -4  178.20    8.05
   5   2   4  178.84    8.09
   5   2   4  171.80    8.16
  -6  -2  -4    2.82    0.44
  -6  -2  -4    2.83    1.83
  -6  -2  -4    3.18    0.56
  -6  -2  -4    3.60    2.06
  -6  -2  -4    2.79    0.57
  -7  -2  -4  147.73    6.27
  -7  -2  -4  106.68   10.76
  -7  -2  -4  148.12    6.54
  -8  -2  -4  129.45    5.90
  -8  -2  -4  126.26    6.20
  -9  -2  -4   13.97    1.51
  -9  -2  -4   13.41    1.06
 -10  -2  -4   40.70    2.39
 -10  -2  -4   45.07    2.85
 -11  -2  -4    1.79    0.50
 -11  -2  -4    1.77    0.70
  -9   3   4    0.44    0.52
  -9   3   4    1.17    0.49
  -8   3   4   77.26    3.89
  -8   3   4   76.33    4.22
  -7   3   4   36.09    2.30
  -7   3   4   30.31    4.12
  -7   3   4   36.59    2.03
   6  -3  -4   10.41    1.16
  -6   3   4    8.90    0.87
  -6   3   4   10.03    1.16
  -6   3   4   10.02    2.48
  -6   3   4    9.16    1.18
   5  -3  -4  152.85    6.92
   5  -3  -4  145.54    6.68
  -5   3   4  149.02    7.04
  -5   3   4  149.81    6.69
  -5   3   4  150.36    9.39
  -5   3   4  148.10    6.90
   4  -3  -4   62.81    2.98
   4  -3  -4   59.47    2.82
  -4   3   4   58.34    2.73
  -4   3   4   55.67    2.77
  -4   3   4   59.99    3.10
  -4   3   4   53.90    6.37
  -4   3   4   60.43    2.97
  -4   3   4   58.86    4.77
   3  -3  -4   31.07    1.68
   3  -3  -4   32.61    1.62
   3  -3  -4   33.58    3.18
   3  -3  -4   32.02    1.69
  -3   3   4   32.61    1.83
  -3   3   4   22.78    4.29
  -3   3   4   31.56    1.49
  -3   3   4   33.32    3.19
  -3   3   4   30.81    1.50
  -3   3   4   32.36    1.70
   2  -3  -4   20.63    1.08
   2  -3  -4   19.49    0.90
   2  -3  -4   19.26    1.11
   2  -3  -4   20.86    1.18
   2  -3  -4   21.48    2.41
  -2   3   4   20.14    1.12
  -2   3   4   20.49    2.39
  -2   3   4   11.91    3.76
  -2   3   4   21.38    1.25
   1  -3  -4  391.42   16.74
   1  -3  -4  411.17   19.36
   1  -3  -4  392.57   16.59
   1  -3  -4  392.59   16.62
  -1   3   4  385.28   16.74
  -1   3   4  368.79   18.95
   0  -3  -4  346.90   15.29
   0  -3  -4  361.25   15.48
   0  -3  -4  370.73   15.32
   0   3   4  345.91   15.31
   0   3   4  362.34   15.30
   0   3   4  373.62   15.45
  -1  -3  -4   18.79    0.98
  -1  -3  -4   17.98    0.96
  -1  -3  -4   19.03    1.11
  -1  -3  -4   19.72    0.98
   1   3   4   16.27    1.02
   1   3   4   18.07    1.03
  -2  -3  -4  396.84   16.48
  -2  -3  -4  387.97   16.46
  -2  -3  -4  392.08   16.58
  -2  -3  -4  381.97   16.62
   2   3   4  379.42   16.64
   2   3   4  384.02   16.63
  -3  -3  -4  309.36   13.50
  -3  -3  -4  317.59   13.39
  -3  -3  -4  317.61   13.55
  -3  -3  -4  306.49   13.34
   3   3   4  313.47   13.60
   3   3   4  307.03   13.59
  -4  -3  -4    1.45    1.05
  -4  -3  -4    1.39    1.11
  -4  -3  -4    3.15    0.43
  -4  -3  -4    3.63    0.56
  -4  -3  -4    3.37    0.40
  -4  -3  -4    2.98    0.46
   4   3   4    2.96    0.52
   4   3   4    3.01    0.51
  -5  -3  -4   51.42    2.58
  -5  -3  -4   49.80    2.60
  -5  -3  -4   54.50    2.79
  -5  -3  -4   49.77    2.45
   5   3   4   49.74    2.80
   5   3   4   47.94    2.75
  -6  -3  -4  101.23    4.92
  -6  -3  -4  102.58    4.74
   6   3   4  107.84    5.20
  -7  -3  -4   49.52    6.86
  -7  -3  -4   67.39    3.10
  -7  -3  -4   64.69    3.31
  -8  -3  -4    2.99    0.62
  -8  -3  -4    2.21    1.84
  -8  -3  -4    2.47    0.47
  -9  -3  -4   65.97    3.35
  -9  -3  -4   66.92    3.70
 -10  -3  -4  116.89    5.83
 -10  -3  -4  107.40    5.34
 -11  -3  -4    2.59    0.84
 -11  -3  -4    1.41    0.52
  -9   4   4    7.78    1.32
  -9   4   4    9.53    1.14
  -8   4   4   25.90    1.78
  -8   4   4   31.41    2.24
   7  -4  -4    4.14    0.83
  -7   4   4    5.63    0.96
  -7   4   4    3.63    0.62
  -7   4   4    2.67    1.52
   6  -4  -4   16.56    1.37
  -6   4   4   19.06    1.19
  -6   4   4   13.49    1.36
  -6   4   4   16.13    2.73
  -6   4   4   17.36    1.39
   5  -4  -4  254.47   11.49
   5  -4  -4  261.90   11.25
  -5   4   4  256.72   11.70
  -5   4   4  252.85   11.49
  -5   4   4  261.36   14.27
  -5   4   4  257.13   11.25
   4  -4  -4    7.41    0.61
   4  -4  -4    9.34    0.94
  -4   4   4    7.14    0.69
  -4   4   4    7.33    0.54
  -4   4   4    8.29    1.96
  -4   4   4    8.26    0.90
  -4   4   4    8.65    1.05
  -4   4   4    8.51    3.31
   3  -4  -4  243.81   10.57
   3  -4  -4  236.54   10.70
   3  -4  -4  258.51   13.08
   3  -4  -4  241.16   10.68
  -3   4   4  251.35   13.02
  -3   4   4  241.86   10.72
  -3   4   4  240.60   10.91
   2  -4  -4  188.87   10.39
   2  -4  -4  183.13    8.32
   2  -4  -4  189.44    8.19
   2  -4  -4  186.50    8.30
  -2   4   4  191.64   10.47
  -2   4   4  192.62    8.32
  -2   4   4  189.81    8.50
   1  -4  -4    1.28    0.28
   1  -4  -4    0.94    0.22
   1  -4  -4    1.38    0.79
   1  -4  -4    1.39    0.22
  -1   4   4    1.03    0.30
  -1   4   4    1.26    0.81
   0  -4  -4   89.57    4.15
   0  -4  -4   90.19    3.96
   0  -4  -4   93.14    4.06
   0  -4  -4   76.03    6.38
   0   4   4   90.87    3.94
   0   4   4   86.81    3.93
   0   4   4   96.43    4.30
  -1  -4  -4  162.04    6.90
  -1  -4  -4  164.88    6.97
  -1  -4  -4  152.18    6.86
  -1  -4  -4  160.13    7.07
   1   4   4  160.16    6.95
   1   4   4  154.44    6.95
  -2  -4  -4  246.59   10.76
  -2  -4  -4  253.66   10.66
  -2  -4  -4  252.99   10.69
  -2  -4  -4  241.81   10.57
   2   4   4  241.88   10.74
   2   4   4  244.05   10.73
  -3  -4  -4    5.72    0.44
  -3  -4  -4    5.75    0.55
  -3  -4  -4    6.88    0.53
  -3  -4  -4    5.03    0.60
   3   4   4    5.62    0.57
   3   4   4    6.57    0.61
  -4  -4  -4   90.20    4.04
  -4  -4  -4   90.96    4.29
  -4  -4  -4   90.48    4.14
  -4  -4  -4   89.23    4.19
   4   4   4   87.51    4.32
   4   4   4   87.79    4.32
  -5  -4  -4  240.60   10.54
  -5  -4  -4  237.67   10.66
  -5  -4  -4  247.36   10.70
   5   4   4  246.64   10.94
  -6  -4  -4    5.69    2.58
  -6  -4  -4    5.18    2.15
  -6  -4  -4   10.29    1.03
  -6  -4  -4    9.59    0.82
  -6  -4  -4   10.10    0.72
   6   4   4   10.44    1.00
  -7  -4  -4   32.12    5.49
  -7  -4  -4   43.10    2.41
  -7  -4  -4   45.59    2.22
  -8  -4  -4   34.00    6.01
  -8  -4  -4   48.34    2.45
  -8  -4  -4   51.35    2.75
  -9  -4  -4   22.46    1.46
 -10  -4  -4    0.65    0.47
 -10  -4  -4    0.58    0.32
 -11  -4  -4    9.63    1.09
 -11  -4  -4    8.49    1.31
   8  -5  -4    7.61    1.26
  -8   5   4    7.33    1.24
  -8   5   4    6.95    0.91
   7  -5  -4   51.94    3.13
  -7   5   4   51.92    2.75
  -7   5   4   48.99    3.10
   6  -5  -4   31.72    2.08
  -6   5   4   28.38    2.03
  -6   5   4   30.31    1.77
   5  -5  -4   15.07    1.00
   5  -5  -4   16.52    1.30
  -5   5   4   17.64    2.66
  -5   5   4   18.48    1.49
  -5   5   4   17.22    1.11
  -5   5   4   17.05    1.33
   4  -5  -4   92.08    4.24
   4  -5  -4   91.35    4.46
   4  -5  -4   83.86    4.04
  -4   5   4   92.43    4.48
  -4   5   4   98.30    6.63
  -4   5   4   92.67    4.25
  -4   5   4   97.37    4.75
   3  -5  -4  342.56   15.17
   3  -5  -4  357.11   17.56
   3  -5  -4  353.73   15.14
   3  -5  -4  348.69   14.98
  -3   5   4  335.66   15.42
  -3   5   4  354.38   17.54
  -3   5   4  351.11   15.20
   2  -5  -4  121.24    7.30
   2  -5  -4  114.25    5.29
   2  -5  -4  115.80    5.11
   2  -5  -4  117.77    5.31
  -2   5   4  115.05    7.23
  -2   5   4  117.02    5.32
  -2   5   4   94.10   10.54
  -2   5   4  118.05    5.57
   1  -5  -4  100.39    4.61
   1  -5  -4  102.87    4.44
   1  -5  -4   99.17    6.70
   1  -5  -4  100.79    4.65
  -1   5   4   97.37    4.87
  -1   5   4   99.34    6.66
   0  -5  -4  388.06   16.22
   0  -5  -4  391.18   16.39
   0  -5  -4  346.80   19.46
   0  -5  -4  387.79   16.46
   0   5   4  384.13   16.21
   0   5   4  385.08   16.24
  -1  -5  -4   37.28    1.82
  -1  -5  -4   40.59    1.99
  -1  -5  -4   37.46    2.03
   1   5   4   40.53    1.95
   1   5   4   38.87    1.92
  -2  -5  -4   82.95    3.65
  -2  -5  -4   84.61    3.82
  -2  -5  -4   82.49    3.80
  -2  -5  -4   80.01    3.86
   2   5   4   79.04    3.83
   2   5   4   81.66    3.82
  -3  -5  -4   88.38    4.05
  -3  -5  -4   94.69    4.22
  -3  -5  -4   89.97    4.26
  -3  -5  -4   94.79    4.31
   3   5   4   89.03    4.31
   3   5   4   88.61    4.33
  -4  -5  -4  252.18   10.76
  -4  -5  -4  243.79   10.90
  -4  -5  -4  247.35   10.95
   4   5   4  254.42   11.11
  -5  -5  -4   44.26    2.35
  -5  -5  -4   45.51    2.36
  -5  -5  -4   45.30    2.21
   5   5   4   44.55    2.55
  -6  -5  -4  248.67   11.46
  -6  -5  -4  261.48   11.28
  -6  -5  -4  261.58   11.44
   6   5   4  264.68   11.78
  -7  -5  -4   69.08    3.65
  -7  -5  -4   74.23    3.46
  -8  -5  -4    6.05    0.91
  -8  -5  -4    7.02    0.77
  -8  -5  -4    4.44    2.73
  -9  -5  -4   24.83    1.54
  -9  -5  -4   23.38    1.78
 -10  -5  -4   56.20    2.96
 -10  -5  -4   54.42    3.34
 -11  -5  -4    0.62    0.47
 -11  -5  -4    0.65    0.40
   8  -6  -4   35.55    2.60
   8  -6  -4   30.02    1.93
  -8   6   4   38.42    2.69
   7  -6  -4   12.75    0.97
   7  -6  -4   11.29    1.46
  -7   6   4   15.12    1.84
  -7   6   4   13.54    1.59
   6  -6  -4   15.97    1.41
   6  -6  -4   14.64    0.98
  -6   6   4   16.21    1.16
  -6   6   4   17.76    1.48
   5  -6  -4   40.90    2.07
   5  -6  -4   47.98    2.65
  -5   6   4   46.19    2.32
  -5   6   4   43.18    2.60
   4  -6  -4    1.23    0.30
   4  -6  -4    2.01    0.49
   4  -6  -4    1.21    0.16
  -4   6   4    1.66    0.34
  -4   6   4    0.86    0.37
  -4   6   4    1.59    0.53
   3  -6  -4    7.73    0.72
   3  -6  -4    6.44    0.79
   3  -6  -4    7.13    0.57
  -3   6   4    5.48    0.75
  -3   6   4    5.67    0.90
  -3   6   4    6.59    0.63
   2  -6  -4   15.51    2.11
   2  -6  -4   12.61    0.97
   2  -6  -4   12.98    0.81
   2  -6  -4   12.37    0.97
  -2   6   4   12.55    1.40
  -2   6   4   13.91    2.02
   1  -6  -4  202.57    9.05
   1  -6  -4  203.71    9.07
   1  -6  -4  213.07   11.46
  -1   6   4  198.31    8.76
  -1   6   4  203.90   11.33
  -1   6   4  202.79    9.43
   0  -6  -4   81.31    3.98
   0  -6  -4   77.28    6.31
   0  -6  -4   83.69    3.71
   0  -6  -4   86.90    3.96
   0   6   4   86.95    3.85
   0   6   4   81.52    3.75
  -1  -6  -4    5.01    0.63
  -1  -6  -4    4.27    0.35
  -1  -6  -4    5.73    0.64
  -1  -6  -4    2.83    1.44
   1   6   4    4.09    0.44
   1   6   4    4.65    0.61
  -2  -6  -4  413.36   17.71
  -2  -6  -4  417.75   17.65
  -2  -6  -4  392.45   17.39
   2   6   4  415.65   17.69
  -3  -6  -4   96.80    4.63
  -3  -6  -4  100.19    4.59
   3   6   4   98.42    4.69
  -4  -6  -4  163.97    7.37
  -4  -6  -4  164.70    7.40
  -4  -6  -4  162.80    7.15
   4   6   4  163.46    7.54
  -5  -6  -4   28.19    1.49
  -5  -6  -4   26.89    1.65
  -5  -6  -4   27.27    1.66
   5   6   4   28.92    1.85
  -6  -6  -4  137.98    6.51
  -6  -6  -4  138.46    6.28
  -6  -6  -4  144.65    6.50
   6   6   4  140.36    6.79
  -7  -6  -4    9.75    0.75
  -7  -6  -4    3.76    2.47
  -7  -6  -4    9.47    1.06
   7   6   4   11.03    1.96
  -8  -6  -4   53.97    3.12
  -8  -6  -4   59.12    2.89
  -9  -6  -4   36.76    2.06
  -9  -6  -4   35.48    2.35
 -10  -6  -4   40.32    2.72
 -10  -6  -4   42.19    2.36
 -11  -6  -4    0.84    0.48
 -11  -6  -4    0.46    0.37
   7  -7  -4   10.38    1.47
   7  -7  -4    9.39    0.69
  -7   7   4   13.53    1.70
   6  -7  -4   53.39    3.11
   6  -7  -4   47.00    2.30
  -6   7   4   52.32    3.10
   5  -7  -4   55.06    3.04
   5  -7  -4   49.13    2.30
  -5   7   4   53.47    3.04
   4  -7  -4    1.47    0.46
  -4   7   4    0.86    0.59
  -4   7   4    1.04    0.40
   3  -7  -4  106.13    5.01
   3  -7  -4  101.43    5.06
  -3   7   4  105.43    5.44
  -3   7   4  104.00    5.09
   2  -7  -4   28.90    1.76
   2  -7  -4   27.42    1.72
  -2   7   4   28.76    2.06
   1  -7  -4    3.49    0.57
   1  -7  -4    3.43    0.55
  -1   7   4    3.15    0.70
   0  -7  -4   54.28    2.82
   0  -7  -4   54.44    2.85
   0   7   4   57.49    2.77
   0   7   4   50.68    5.86
  -1  -7  -4  143.62    6.48
  -1  -7  -4  139.22    6.51
   1   7   4  141.72    6.46
  -2  -7  -4   90.70    4.26
  -2  -7  -4   87.67    4.30
   2   7   4   89.10    4.31
  -3  -7  -4    0.26    0.21
  -3  -7  -4    0.93    1.15
  -3  -7  -4    0.73    0.26
   3   7   4    0.30    0.23
  -4  -7  -4  184.72    8.33
  -4  -7  -4  183.26    8.35
   4   7   4  186.53    8.52
  -5  -7  -4   85.97    4.22
  -5  -7  -4   83.12    4.20
   5   7   4   89.44    4.47
  -6  -7  -4    2.28    1.90
  -6  -7  -4    6.39    0.84
  -6  -7  -4    5.90    0.76
   6   7   4    6.32    0.95
  -7  -7  -4   52.59    3.05
   7   7   4   62.29    4.72
  -8  -7  -4   12.63    1.17
   8   7   4   13.56    2.42
  -9  -7  -4    0.29    0.35
 -10  -7  -4   24.15    1.91
   6  -8  -4    0.24    0.42
  -6   8   4    1.04    0.56
   5  -8  -4    0.05    0.33
  -5   8   4    0.03    0.29
   4  -8  -4   38.64    2.38
  -4   8   4   36.60    2.37
   3  -8  -4   97.44    4.80
   3  -8  -4   96.77    4.87
  -3   8   4   97.46    4.89
   2  -8  -4    0.85    0.36
   2  -8  -4    0.28    0.24
  -2   8   4    0.43    0.35
   1  -8  -4   66.73    3.34
   1  -8  -4   59.36    3.26
  -1   8   4   63.35    3.75
   0  -8  -4  104.13    5.05
   0  -8  -4  105.92    5.02
   0   8   4  103.66    4.97
  -1  -8  -4    0.73    0.30
  -1  -8  -4    1.15    0.39
   1   8   4    0.51    0.29
  -2  -8  -4   82.21    4.09
  -2  -8  -4   78.64    4.02
   2   8   4   85.13    4.16
  -3  -8  -4   52.56    2.81
  -3  -8  -4   52.17    2.77
   3   8   4   52.19    2.91
  -4  -8  -4   20.40    1.43
  -4  -8  -4   21.29    1.46
   4   8   4   22.12    1.60
  -5  -8  -4    0.69    1.29
  -5  -8  -4    2.08    0.48
  -5  -8  -4    2.42    0.54
   5   8   4    2.00    0.57
  -6  -8  -4   61.02    3.30
  -6  -8  -4   62.60    3.28
   6   8   4   61.88    3.59
  -7  -8  -4  157.73    7.55
  -7  -8  -4  162.50    7.49
  -8  -8  -4   14.56    1.53
  -9  -8  -4   36.19    2.43
 -10  -8  -4   62.76    3.70
   5  -9  -4   55.60    3.33
  -5   9   4   52.75    3.28
   4  -9  -4    1.05    0.47
  -4   9   4    1.37    0.56
   3  -9  -4   10.34    1.27
  -3   9   4   11.98    1.35
   2  -9  -4   58.05    3.23
   2  -9  -4   58.93    3.22
  -2   9   4   58.27    3.24
   1  -9  -4   60.32    3.23
   1  -9  -4   56.98    3.20
  -1   9   4   62.10    3.76
   0  -9  -4    0.87    0.37
   0  -9  -4    1.14    0.42
   0   9   4    0.68    0.32
  -1  -9  -4   44.05    2.55
  -1  -9  -4   43.80    2.51
   1   9   4   45.56    2.61
  -2  -9  -4  105.06    5.05
  -2  -9  -4  101.66    5.06
   2   9   4  103.64    5.18
  -3  -9  -4   27.86    1.80
  -3  -9  -4   26.70    1.75
   3   9   4   27.28    1.91
  -4  -9  -4   64.85    3.47
  -4  -9  -4   65.46    3.45
   4   9   4   66.26    3.69
  -5  -9  -4   40.87    2.44
  -5  -9  -4   43.32    2.47
   5   9   4   40.82    2.68
  -6  -9  -4    9.99    1.16
  -6  -9  -4   10.00    1.16
   6   9   4   10.24    1.88
  -7  -9  -4    1.65    0.51
  -7  -9  -4    1.28    0.47
  -8  -9  -4   27.76    1.99
  -9  -9  -4   10.57    1.32
   4 -10  -4   11.56    1.42
  -4  10   4   11.70    1.47
   3 -10  -4  130.73    6.51
  -3  10   4  130.05    6.51
   2 -10  -4   22.58    1.73
   2 -10  -4   24.37    1.78
  -2  10   4   24.91    1.81
   1 -10  -4   13.49    1.23
   1 -10  -4   13.53    1.23
   0 -10  -4   39.63    2.40
   0 -10  -4   36.63    2.33
  -1 -10  -4   93.24    4.75
  -1 -10  -4   96.44    4.83
  -2 -10  -4    5.05    0.84
  -2 -10  -4    5.20    0.81
  -3 -10  -4   60.44    3.29
  -3 -10  -4   57.62    3.22
  -4 -10  -4   93.00    4.79
  -4 -10  -4   96.45    4.80
  -5 -10  -4   31.96    2.05
  -5 -10  -4   29.01    2.00
  -6 -10  -4   33.44    2.20
  -6 -10  -4   34.63    2.24
  -7 -10  -4   82.96    4.51
  -7 -10  -4   88.34    4.52
  -8 -10  -4    9.16    1.22
  -9 -10  -4   10.74    1.40
   2 -11  -4    4.25    0.86
   2 -11  -4    4.06    0.86
  -2  11   4    4.70    0.94
   1 -11  -4  109.74    5.52
   1 -11  -4  106.62    5.52
   0 -11  -4   13.63    1.46
   0 -11  -4   10.79    1.29
  -1 -11  -4   35.67    2.37
  -1 -11  -4   37.75    2.37
  -2 -11  -4   37.31    2.37
  -2 -11  -4   34.32    2.27
  -3 -11  -4   37.74    2.42
  -3 -11  -4   38.90    2.46
  -4 -11  -4    0.42    0.31
  -4 -11  -4    0.34    0.37
  -5 -11  -4   25.39    1.87
  -5 -11  -4   24.91    1.86
  -6 -11  -4   29.42    2.08
  -6 -11  -4   29.72    2.09
  -7 -11  -4   17.65    1.54
  -7 -11  -4   16.03    1.48
  -8 -11  -4    5.68    0.99
   0 -12  -4    0.54    0.38
   0 -12  -4    0.95    0.49
  -1 -12  -4   51.24    3.08
  -1 -12  -4   49.58    3.09
  -2 -12  -4   62.30    3.59
  -2 -12  -4   59.76    3.49
  -3 -12  -4    0.54    0.42
  -3 -12  -4    2.16    0.58
  -4 -12  -4   81.11    4.51
  -4 -12  -4   85.97    4.54
  -5 -12  -4   39.54    2.60
  -5 -12  -4   39.20    2.61
  -6 -12  -4    1.21    0.56
  -6 -12  -4    0.37    0.37
  -3 -11   5   -0.16    0.36
  -3 -11   5    0.46    0.40
  -2 -11   5   27.96    1.97
  -2 -11   5   24.45    2.07
  -1 -11   5   18.53    1.77
  -1 -11   5   20.36    1.73
  -1 -11   5   20.71    1.66
  -6 -10   5   20.49    1.75
  -6 -10   5   20.37    1.64
  -6 -10   5   18.43    5.40
  -5 -10   5   10.19    3.77
  -5 -10   5   11.37    1.47
  -5 -10   5    9.09    1.19
  -4 -10   5    0.53    1.23
  -4 -10   5    0.64    0.49
  -4 -10   5    0.32    0.35
  -3 -10   5   51.63    6.90
  -3 -10   5   55.54    3.13
  -3 -10   5   57.44    3.41
  -2 -10   5   61.53    3.52
  -2 -10   5   56.94    3.59
  -2 -10   5   64.89    3.43
  -1 -10   5    0.34    0.42
  -1 -10   5    0.89    0.52
  -1 -10   5    0.57    0.47
   0 -10   5   20.02    1.59
   0 -10   5   18.60    1.70
   0 -10   5   22.99    1.77
   1 -10   5   26.86    2.16
   1 -10   5   33.42    2.28
   1 -10   5   29.40    2.06
  -2  10  -5    5.32    0.91
   2 -10   5    3.35    0.83
   2 -10   5    3.05    0.73
   2 -10   5    4.16    0.87
  -8  -9   5    3.66    4.00
  -8  -9   5    7.98    1.12
  -7  -9   5   43.58    2.68
  -7  -9   5   43.23    6.71
  -6  -9   5   -0.21    1.06
  -6  -9   5   -0.11    0.23
  -6  -9   5    0.27    0.39
  -5  -9   5   26.49    1.89
  -5  -9   5   20.21    1.57
  -5  -9   5   17.64    4.71
  -4  -9   5    0.69    0.50
  -4  -9   5    0.97    0.43
  -4  -9   5   -0.20    0.66
  -3  -9   5    3.16    0.66
  -3  -9   5    3.21    2.01
  -3  -9   5    3.92    0.87
  -2  -9   5    0.99    0.40
  -2  -9   5    1.32    1.34
  -2  -9   5    1.60    0.52
  -2  -9   5    1.29    0.54
  -1  -9   5   23.89    1.93
  -1  -9   5   27.82    1.80
  -1  -9   5   26.16    1.90
   0  -9   5   70.22    3.76
   0  -9   5   79.55    4.06
   0  -9   5   65.95    3.98
   1  -9   5   14.08    1.36
   1  -9   5   11.29    1.42
   1  -9   5   13.54    1.20
  -2   9  -5   28.77    2.00
   2  -9   5   33.07    2.27
   2  -9   5   29.86    2.21
   2  -9   5   29.72    2.03
  -3   9  -5   72.39    3.89
   3  -9   5   71.12    4.13
   3  -9   5   68.80    4.01
   3  -9   5   71.20    3.89
  -4   9  -5    5.10    0.92
   4  -9   5    4.54    0.91
   4  -9   5    5.50    1.09
  -8  -8   5    1.29    0.53
  -8  -8   5    1.93    2.00
  -7  -8   5    1.43    0.45
  -7  -8   5    1.42    1.57
  -6  -8   5    9.20    3.54
  -6  -8   5   11.51    1.29
  -6  -8   5    9.39    1.10
  -5  -8   5  142.03   11.85
  -5  -8   5  146.77    6.96
  -5  -8   5  154.41    7.24
  -4  -8   5    8.61    3.05
  -4  -8   5   10.90    1.34
  -4  -8   5    8.11    0.98
  -3  -8   5   18.06    4.41
  -3  -8   5   18.91    1.55
  -3  -8   5   18.56    1.36
   2   8  -5   29.86    4.14
  -2  -8   5   35.53    2.07
  -2  -8   5   35.51    2.24
  -2  -8   5   35.33    2.34
  -2  -8   5   35.16    4.82
   1   8  -5   23.26    3.27
  -1  -8   5   22.37    1.79
  -1  -8   5   23.45    1.58
  -1  -8   5   26.12    4.03
  -1  -8   5   26.36    1.82
   0   8  -5    3.25    1.46
   0  -8   5    3.40    0.76
   0  -8   5    4.04    0.68
   0  -8   5    4.25    0.82
   1  -8   5   36.33    2.17
   1  -8   5   34.33    2.39
   1  -8   5   38.77    2.44
  -2   8  -5   42.00    2.52
   2  -8   5   42.79    2.53
   2  -8   5   46.79    2.85
   2  -8   5   43.49    2.76
  -3   8  -5   26.17    1.84
   3  -8   5   26.67    1.86
   3  -8   5   27.61    2.10
   3  -8   5   28.11    2.03
  -4   8  -5   12.50    1.43
   4  -8   5   11.03    1.48
   4  -8   5   16.83    1.40
  -5   8  -5   42.15    2.68
   5  -8   5   38.09    2.62
   5  -8   5   44.22    2.99
  -9  -7   5    8.71    3.49
  -9  -7   5   11.32    1.31
  -8  -7   5    0.00    0.29
  -8  -7   5    0.23    1.15
  -7  -7   5   12.56    1.13
  -7  -7   5   13.05    3.98
  -6  -7   5   11.89    1.33
  -6  -7   5   12.53    1.07
  -6  -7   5   13.37    4.07
  -5  -7   5    7.24    2.92
  -5  -7   5    6.99    0.86
  -5  -7   5    5.93    0.91
   4   7  -5    2.61    1.31
  -4  -7   5    3.05    0.67
  -4  -7   5    1.97    1.48
  -4  -7   5    3.14    0.54
   3   7  -5  189.52   12.27
  -3  -7   5  218.35    9.45
  -3  -7   5  210.75   13.95
  -3  -7   5  217.92    9.82
   2   7  -5  139.68    9.49
  -2  -7   5  151.24   10.83
  -2  -7   5  149.73    8.31
  -2  -7   5  155.77    7.10
  -2  -7   5  150.67    6.88
  -2  -7   5  149.62    7.24
   1   7  -5   71.61    6.03
  -1  -7   5   88.62    4.27
  -1  -7   5   77.07    4.28
  -1  -7   5   85.18    7.26
  -1  -7   5   81.44    3.96
   0  -7   5  128.66    5.96
   0  -7   5  118.29    5.63
   0  -7   5  114.36    5.96
   1  -7   5   37.69    2.52
   1  -7   5   42.11    2.30
   1  -7   5   42.69    2.59
  -2   7  -5   16.94    1.26
   2  -7   5   18.00    1.53
   2  -7   5   15.17    1.40
   2  -7   5   17.39    1.28
  -3   7  -5   39.63    2.33
   3  -7   5   40.34    2.35
   3  -7   5   37.78    2.50
   3  -7   5   39.82    2.63
  -4   7  -5   38.85    2.40
   4  -7   5   44.54    2.80
   4  -7   5   38.32    2.41
   4  -7   5   38.14    2.51
  -5   7  -5   22.78    1.71
   5  -7   5   23.74    1.97
   5  -7   5   19.73    1.66
  -6   7  -5   15.73    1.76
   6  -7   5   17.05    1.82
   6  -7   5   17.35    2.04
 -10  -6   5    9.12    1.23
 -10  -6   5   10.25    3.76
  -9  -6   5    0.11    0.30
  -9  -6   5    0.62    1.42
  -8  -6   5   31.91    2.11
  -8  -6   5   37.42    5.63
  -7  -6   5   41.57    5.20
  -7  -6   5   36.77    2.23
  -7  -6   5   35.22    5.37
  -6  -6   5    0.92    0.35
  -6  -6   5    1.24    1.31
  -6  -6   5    0.42    0.92
  -6  -6   5    1.41    0.70
  -5  -6   5  134.77    6.38
  -5  -6   5  122.82   10.22
  -5  -6   5  135.75    6.14
   4   6  -5   14.46    2.86
  -4  -6   5   17.24    3.91
  -4  -6   5   17.62    1.40
  -4  -6   5   16.05    1.15
  -4  -6   5   18.67    3.09
   3   6  -5    0.27    0.70
  -3  -6   5    0.33    0.80
  -3  -6   5    0.38    0.22
  -3  -6   5    0.58    0.36
  -3  -6   5    0.20    0.45
   2   6  -5   -0.02    0.25
   2   6  -5   -0.08    0.56
  -2  -6   5    0.19    0.24
  -2  -6   5    0.12    0.39
  -2  -6   5   -0.06    0.16
  -2  -6   5    0.77    0.93
  -2  -6   5    0.23    0.30
   1   6  -5   91.27    6.94
  -1  -6   5  110.07    5.01
  -1  -6   5  108.28    6.20
  -1  -6   5  120.04    8.45
  -1  -6   5  109.21    5.43
   0  -6   5  142.23    9.49
   0  -6   5  140.77    7.27
   0  -6   5  136.33    6.82
   0  -6   5  153.32    6.80
   0  -6   5  136.87    6.43
  -1   6  -5    0.06    1.23
   1  -6   5    0.47    0.32
   1  -6   5    0.87    0.40
   1  -6   5    0.18    0.19
  -2   6  -5  189.85    8.66
   2  -6   5  204.30    9.11
   2  -6   5  186.92    8.99
   2  -6   5  190.20    8.66
  -3   6  -5   84.32    5.04
  -3   6  -5   98.07    4.59
   3  -6   5   90.92    4.81
   3  -6   5   98.63    4.97
   3  -6   5   94.53    4.57
  -4   6  -5    1.46    0.44
  -4   6  -5    1.08    0.61
   4  -6   5    2.94    0.66
   4  -6   5    1.49    0.48
   4  -6   5    1.83    0.64
  -5   6  -5   47.93    2.83
   5  -6   5   51.94    3.21
   5  -6   5   47.54    2.84
  -6   6  -5   49.97    2.93
   6  -6   5   49.52    3.23
   6  -6   5   43.49    2.85
  -7   6  -5    1.50    0.61
   7  -6   5    1.47    0.68
   7  -6   5    1.73    0.70
 -10  -5   5   13.19    1.49
 -10  -5   5   13.82    4.28
 -10  -5   5   16.24    2.00
  -9  -5   5   19.32    4.89
  -9  -5   5   18.24    1.46
  -9  -5   5   20.34    1.57
  -8  -5   5    9.76    0.96
  -8  -5   5    8.66    1.03
  -8  -5   5    5.56    2.44
  -7  -5   5    0.30    0.28
  -7  -5   5    0.26    0.29
  -7  -5   5    0.35    1.04
  -7  -5   5    0.15    0.92
  -6  -5   5   25.94    4.21
  -6  -5   5   26.25    3.65
  -6  -5   5   27.38    1.66
  -5  -5   5  221.39   12.67
  -5  -5   5  210.52   11.77
  -5  -5   5  214.74    9.80
  -5  -5   5  218.76   14.29
  -5  -5   5  213.24    9.57
  -4  -5   5    2.91    1.10
  -4  -5   5    3.87    1.86
  -4  -5   5    4.96    0.80
  -4  -5   5    3.77    0.54
  -4  -5   5    3.81    1.36
  -3  -5   5  121.48    5.35
  -3  -5   5  121.67    9.02
  -3  -5   5  102.63    6.87
  -3  -5   5  120.25    7.10
  -3  -5   5  119.04    5.72
   2   5  -5  145.34    7.41
  -2  -5   5  147.96    6.69
  -2  -5   5  154.73   10.28
  -2  -5   5  148.33    8.30
  -2  -5   5  155.28    6.95
  -2  -5   5  147.57    7.11
  -1  -5   5   35.36    2.91
  -1  -5   5   33.32    2.04
  -1  -5   5   34.15    1.82
  -1  -5   5   33.94    3.94
  -1  -5   5   36.69    2.24
   0  -5   5   85.06    4.43
   0  -5   5   84.89    4.01
   0  -5   5   83.62    5.07
   0  -5   5   86.47    6.55
   0  -5   5   91.11    4.37
   1  -5   5   82.71    6.04
   1  -5   5   77.92    4.10
   1  -5   5   81.00    4.54
   1  -5   5   78.00    3.77
   1  -5   5   78.59    4.17
  -2   5  -5  126.32    5.82
   2  -5   5  133.84    6.23
   2  -5   5  123.84    6.16
   2  -5   5  123.93    5.80
  -3   5  -5   -0.03    0.28
  -3   5  -5    0.48    1.19
  -3   5  -5    0.05    0.21
   3  -5   5    0.39    0.39
   3  -5   5    0.04    0.22
   3  -5   5    0.09    0.19
  -4   5  -5  164.60    8.32
  -4   5  -5  170.19    7.90
   4  -5   5  182.45    8.40
   4  -5   5  177.64    8.16
   4  -5   5  170.21    7.92
  -5   5  -5  118.77    6.31
  -5   5  -5  131.33    6.06
   5  -5   5  126.86    6.44
   5  -5   5  124.00    6.03
  -6   5  -5    0.30    0.35
   6  -5   5    0.09    0.34
   6  -5   5    0.24    0.38
  -7   5  -5   59.91    3.54
   7  -5   5   61.88    3.59
   7  -5   5   59.36    3.83
  -8   5  -5   48.56    3.23
   8  -5   5   49.96    3.28
   8  -5   5   55.85    3.63
 -10  -4   5   16.86    1.51
 -10  -4   5   18.98    1.46
  -9  -4   5    2.01    0.52
  -9  -4   5    1.88    0.57
  -9  -4   5    3.42    2.25
  -8  -4   5   11.54    3.73
  -8  -4   5    9.70    1.12
  -8  -4   5   11.96    0.98
  -7  -4   5   32.55    1.94
  -7  -4   5   29.54    4.17
  -7  -4   5   31.45    1.81
  -7  -4   5   33.76    3.64
  -7  -4   5   30.87    4.72
   6   4  -5    7.02    0.69
  -6  -4   5    4.72    1.84
  -6  -4   5    6.34    0.79
  -6  -4   5    5.70    2.26
  -6  -4   5    6.17    0.68
  -6  -4   5    6.02    1.67
   5   4  -5    2.07    0.36
  -5  -4   5    2.42    0.53
  -5  -4   5    2.23    0.40
  -5  -4   5    2.21    1.18
  -5  -4   5    0.84    1.12
  -5  -4   5    4.10    1.37
   4   4  -5   59.32    2.78
  -4  -4   5   59.17    5.96
  -4  -4   5   58.75    4.48
  -4  -4   5   57.66    3.16
  -4  -4   5   61.01    4.85
  -4  -4   5   59.45    2.89
   3   4  -5   73.81    3.41
  -3  -4   5   71.99    5.05
  -3  -4   5   76.19    5.24
  -3  -4   5   77.72    3.92
  -3  -4   5   75.54    3.51
  -3  -4   5   77.09    6.70
   2   4  -5    1.55    0.24
   2   4  -5    1.81    0.58
  -2  -4   5    1.22    0.97
  -2  -4   5    2.09    0.92
  -2  -4   5    1.98    0.54
  -2  -4   5    1.27    0.40
  -2  -4   5    1.57    0.29
   1   4  -5   78.17    3.67
  -1  -4   5   86.25    4.30
  -1  -4   5   86.95    6.66
  -1  -4   5   78.17    3.78
  -1  -4   5   86.44    5.03
  -1  -4   5   88.70    4.10
  -1  -4   5   79.36    5.18
   0   4  -5  134.59    6.20
   0   4  -5  143.44    7.47
   0  -4   5  139.32    6.33
   0  -4   5  153.41    6.72
   0  -4   5  142.00    6.83
   0  -4   5  138.68    7.73
   0  -4   5  147.90    9.18
   0  -4   5  148.99    7.50
  -1   4  -5   13.94    0.80
   1  -4   5   13.68    1.18
   1  -4   5   13.21    1.11
   1  -4   5   13.56    2.06
   1  -4   5   13.10    0.86
   1  -4   5   13.52    1.57
  -2   4  -5   68.26    3.30
  -2   4  -5   68.43    3.17
   2  -4   5   68.92    3.30
   2  -4   5   68.39    4.08
   2  -4   5   72.60    3.71
   2  -4   5   67.03    3.67
  -3   4  -5   74.98    4.23
  -3   4  -5   85.48    3.91
  -3   4  -5   85.82    3.74
  -3   4  -5   69.06    4.63
   3  -4   5   82.99    4.30
   3  -4   5   78.94    4.19
   3  -4   5   83.68    3.90
   3  -4   5   82.45    4.17
  -4   4  -5   59.85    3.40
  -4   4  -5   57.52    3.09
  -4   4  -5   61.38    2.93
   4  -4   5   58.10    3.30
   4  -4   5   61.45    3.13
   4  -4   5   67.81    3.59
  -5   4  -5    7.81    1.11
  -5   4  -5    8.86    1.03
  -5   4  -5    9.78    0.76
   5  -4   5   10.43    1.12
   5  -4   5    7.32    1.13
  -6   4  -5   81.53    4.50
  -6   4  -5   79.13    4.01
  -6   4  -5   85.23    4.37
   6  -4   5   84.24    4.71
   6  -4   5   90.72    4.43
  -7   4  -5   62.32    3.10
  -7   4  -5   57.27    3.44
   7  -4   5   55.78    3.69
   7  -4   5   63.68    3.54
  -8   4  -5   21.46    1.79
  -8   4  -5   16.54    1.33
   8  -4   5   17.87    2.12
 -10  -3   5   12.84    1.48
 -10  -3   5   12.89    1.33
  -9  -3   5   13.02    1.27
  -9  -3   5   14.52    1.28
  -9  -3   5   12.62    3.78
  -8  -3   5  146.04    6.81
  -8  -3   5  139.23    6.63
  -8  -3   5  147.17   11.45
  -7  -3   5    2.04    1.48
  -7  -3   5    2.01    0.43
  -7  -3   5    1.68    0.45
  -7  -3   5    2.91    1.58
   6   3  -5  166.50    7.42
  -6  -3   5  164.17    7.42
  -6  -3   5  163.65    7.50
  -6  -3   5  169.42    9.68
  -6  -3   5  166.35   10.81
  -6  -3   5  168.09   11.92
   5   3  -5  155.01    6.96
  -5  -3   5  157.97    9.85
  -5  -3   5  153.98    7.03
  -5  -3   5  159.98    9.04
  -5  -3   5  160.36    7.24
  -5  -3   5  155.03   11.12
   4   3  -5   35.50    1.82
  -4  -3   5   38.22    4.60
  -4  -3   5   35.90    1.86
  -4  -3   5   35.81    3.23
  -4  -3   5   35.09    2.13
  -4  -3   5   38.58    3.66
   3   3  -5   42.09    1.98
   3   3  -5   38.29    2.47
  -3  -3   5   41.11    4.66
  -3  -3   5   41.15    2.39
  -3  -3   5   41.54    3.44
  -3  -3   5   42.27    3.61
  -3  -3   5   39.79    2.00
   2   3  -5  112.71    5.02
   2   3  -5  108.06    5.63
  -2  -3   5  115.79    5.58
  -2  -3   5  113.57    5.06
  -2  -3   5  119.12    6.85
  -2  -3   5  120.13    8.55
  -2  -3   5  113.26    6.79
   1   3  -5  188.55    9.55
   1   3  -5  177.93    7.87
  -1  -3   5  175.55    7.90
  -1  -3   5  190.85   11.44
  -1  -3   5  182.41    9.74
  -1  -3   5  183.17    8.48
   0   3  -5   32.39    2.74
   0   3  -5   31.02    1.52
   0  -3   5   30.54    2.70
   0  -3   5   35.55    2.00
   0  -3   5   29.45    1.99
   0  -3   5   31.19    2.80
   0  -3   5   34.34    3.68
   0  -3   5   28.73    1.53
  -1   3  -5   16.72    2.16
  -1   3  -5   18.34    1.01
   1  -3   5   17.48    1.85
   1  -3   5   18.19    1.42
   1  -3   5   18.92    2.06
   1  -3   5   19.07    1.35
   1  -3   5   19.06    1.05
   1  -3   5   21.85    2.67
  -2   3  -5  278.50   12.12
  -2   3  -5  283.40   12.05
   2  -3   5  278.20   12.12
   2  -3   5  294.08   14.40
   2  -3   5  291.70   12.59
   2  -3   5  274.13   12.60
   2  -3   5  272.78   13.58
   2  -3   5  268.80   13.32
  -3   3  -5   64.30    3.49
  -3   3  -5   66.09    3.10
  -3   3  -5   68.17    3.22
  -3   3  -5   60.29    3.93
   3  -3   5   69.99    3.60
   3  -3   5   67.81    3.22
   3  -3   5   67.04    4.16
  -4   3  -5   78.90    4.07
  -4   3  -5   78.34    3.69
  -4   3  -5   81.00    3.86
  -4   3  -5   74.70    4.55
   4  -3   5   84.86    4.30
   4  -3   5   79.98    3.86
   4  -3   5   79.82    4.11
   4  -3   5   77.37    4.23
  -5   3  -5   87.77    4.54
  -5   3  -5   92.69    4.41
  -5   3  -5   86.41    4.15
   5  -3   5   90.65    4.41
   5  -3   5   87.45    4.75
  -6   3  -5   83.09    4.03
  -6   3  -5   80.41    4.40
  -6   3  -5   86.81    4.35
   6  -3   5   84.40    4.35
   6  -3   5   89.38    4.73
  -7   3  -5    8.84    0.90
  -7   3  -5    7.16    1.15
  -7   3  -5    8.47    1.13
   7  -3   5    8.00    1.10
   7  -3   5    8.63    1.34
  -8   3  -5    7.37    0.87
  -8   3  -5    7.92    1.21
   8  -3   5    8.86    1.46
  -9   3  -5    5.27    1.10
  -9   3  -5    6.76    0.89
   9  -3   5    4.29    1.15
 -10  -2   5   17.11    1.80
 -10  -2   5   17.67    1.43
  -9  -2   5    7.87    0.94
  -9  -2   5    8.35    1.14
  -8  -2   5    2.55    0.62
  -8  -2   5    4.06    2.03
  -8  -2   5    2.82    0.55
  -7  -2   5   10.35    0.93
  -7  -2   5   12.44    3.37
  -7  -2   5    7.52    0.84
  -7  -2   5    7.86    2.50
   6   2  -5   35.06    1.90
  -6  -2   5   34.64    1.91
  -6  -2   5   39.03    4.89
  -6  -2   5   34.47    1.98
  -6  -2   5   34.67    4.07
   5   2  -5  109.86    5.06
  -5  -2   5  109.01    6.80
  -5  -2   5  115.54    5.13
  -5  -2   5  114.00    8.97
  -5  -2   5  109.99    7.69
   4   2  -5   10.84    0.77
  -4  -2   5   13.28    1.80
  -4  -2   5   14.47    3.39
  -4  -2   5   12.61    1.05
  -4  -2   5   12.38    0.81
  -4  -2   5   12.97    2.05
   3   2  -5   96.55    4.43
   3   2  -5   94.80    4.90
  -3  -2   5   98.63    6.13
  -3  -2   5   95.67    4.84
  -3  -2   5  104.82    8.16
  -3  -2   5   97.37    4.42
  -3  -2   5  112.24    6.70
  -3  -2   5   98.62    4.89
   2   2  -5   56.98    3.18
   2   2  -5   52.31    3.18
   2   2  -5   55.23    2.70
   2   2  -5   63.73    4.43
  -2  -2   5   63.67    4.47
  -2  -2   5   59.26    3.23
  -2  -2   5   59.04    4.28
  -2  -2   5   60.43    3.18
  -2  -2   5   60.22    2.69
  -2  -2   5   64.90    5.94
   1   2  -5    5.46    1.32
   1   2  -5    6.25    0.47
  -1  -2   5    8.61    2.47
  -1  -2   5    9.50    1.91
  -1  -2   5    7.24    1.54
  -1  -2   5    6.15    0.93
  -1  -2   5    7.11    0.45
  -1  -2   5    7.31    0.80
   0   2  -5  542.24   25.67
   0   2  -5  548.85   23.40
   0  -2   5  556.10   24.08
   0  -2   5  621.01   27.95
   0  -2   5  529.94   25.42
   0  -2   5  562.34   24.64
   0  -2   5  552.11   23.36
   0  -2   5  514.93   25.44
  -1   2  -5  124.07    5.48
  -1   2  -5  124.34    5.50
   1  -2   5  118.22    6.57
   1  -2   5  124.58    5.48
   1  -2   5  123.41    6.10
   1  -2   5  139.25    8.79
  -2   2  -5    0.04    0.52
  -2   2  -5    0.15    0.19
  -2   2  -5    0.52    0.19
  -2   2  -5    1.45    0.57
  -2   2  -5    0.20    0.14
  -2   2  -5   -0.15    0.61
   2  -2   5    0.38    0.26
   2  -2   5    0.90    0.23
   2  -2   5    0.21    0.35
   2  -2   5    0.31    0.29
   2  -2   5    0.71    0.75
   2  -2   5    0.08    0.42
  -3   2  -5   24.62    1.33
  -3   2  -5   25.69    1.56
  -3   2  -5   25.43    1.99
  -3   2  -5   26.49    1.41
   3  -2   5   26.04    1.74
   3  -2   5   24.11    1.71
   3  -2   5   24.21    1.39
   3  -2   5   22.61    2.40
   3  -2   5   25.79    3.39
   3  -2   5   22.71    1.98
  -4   2  -5  146.06    7.01
  -4   2  -5  154.75    6.77
  -4   2  -5  154.78    7.62
  -4   2  -5  156.12    6.92
   4  -2   5  148.99    7.20
   4  -2   5  155.13    6.93
   4  -2   5  147.56    8.20
   4  -2   5  158.47    7.33
  -5   2  -5   18.21    1.62
  -5   2  -5   17.21    1.08
  -5   2  -5   16.80    1.28
  -5   2  -5    9.63    3.42
  -5   2  -5   17.22    1.24
   5  -2   5   15.57    1.22
   5  -2   5   17.83    1.69
   5  -2   5   17.73    1.35
  -6   2  -5    8.46    1.08
  -6   2  -5    6.90    0.74
  -6   2  -5    7.96    0.98
  -6   2  -5    4.40    2.50
   6  -2   5    8.98    1.05
  -7   2  -5  138.99    6.90
  -7   2  -5  140.73    6.50
  -7   2  -5  146.40    6.86
  -8   2  -5   73.83    3.95
  -8   2  -5   68.78    3.57
  -9   2  -5    2.43    0.77
  -9   2  -5    2.11    0.51
 -10  -1   5    8.80    1.08
 -10  -1   5   10.33    1.39
  -9  -1   5    3.05    0.59
  -8  -1   5   74.01    3.70
  -8  -1   5   73.14    3.85
   7   1  -5   43.05    2.37
  -7  -1   5   44.83    5.06
  -7  -1   5   45.13    5.42
  -7  -1   5   46.78    2.54
  -7  -1   5   44.83    2.39
   6   1  -5    4.40    0.57
  -6  -1   5    5.27    0.72
  -6  -1   5    5.00    0.61
  -6  -1   5    3.82    1.82
  -6  -1   5    5.47    1.89
   5   1  -5    9.74    0.72
  -5  -1   5    8.91    2.21
  -5  -1   5    9.26    2.84
  -5  -1   5    8.37    0.86
  -5  -1   5    8.73    0.74
   4   1  -5  150.91    6.75
  -4  -1   5  152.34    6.76
  -4  -1   5  156.62   11.02
  -4  -1   5  155.29    9.28
  -4  -1   5  154.73    7.12
  -4  -1   5  149.74    8.35
   3   1  -5  405.08   17.78
   3   1  -5  409.73   18.18
   3   1  -5  425.20   20.31
  -3  -1   5  410.05   18.11
  -3  -1   5  434.06   22.90
  -3  -1   5  422.36   17.75
  -3  -1   5  433.21   20.38
  -3  -1   5  400.21   18.27
   2   1  -5   60.06    2.96
   2   1  -5   69.76    4.80
   2   1  -5   62.77    3.33
  -2  -1   5   65.60    6.39
  -2  -1   5   66.98    3.34
  -2  -1   5   65.42    2.89
  -2  -1   5   60.68    3.48
  -2  -1   5   70.42    4.87
   1   1  -5  245.58   12.62
   1   1  -5  230.71   10.42
  -1  -1   5  248.12   12.67
  -1  -1   5  233.96   11.09
  -1  -1   5  262.25   15.31
  -1  -1   5  243.20   10.89
   0   1  -5  287.25   14.97
   0  -1   5  292.98   13.30
   0  -1   5  242.71   14.25
   0  -1   5  288.25   13.02
   0  -1   5  337.78   17.62
  -1   1  -5    3.27    0.35
  -1   1  -5    1.66    1.00
   1  -1   5    3.85    1.88
   1  -1   5    2.57    0.64
  -2   1  -5  438.31   19.03
  -2   1  -5  452.89   18.88
  -2   1  -5  460.17   18.91
  -2   1  -5  390.46   19.55
   2  -1   5  457.11   18.90
   2  -1   5  465.84   19.93
   2  -1   5  440.90   19.58
  -3   1  -5  214.11    9.39
  -3   1  -5  207.75   10.04
  -3   1  -5  222.25    9.35
  -3   1  -5  206.20    9.45
   3  -1   5  228.76    9.84
   3  -1   5  221.78   10.22
   3  -1   5  215.31    9.41
   3  -1   5  208.59   12.93
   3  -1   5  212.63    9.94
  -4   1  -5   44.91    2.29
  -4   1  -5   42.59    2.16
  -4   1  -5   44.67    2.33
  -4   1  -5   44.81    2.76
   4  -1   5   45.51    2.64
   4  -1   5   42.55    2.77
   4  -1   5   41.37    2.28
  -5   1  -5    1.38    0.39
  -5   1  -5    0.95    0.27
  -5   1  -5    0.84    1.31
  -5   1  -5    0.75    1.08
  -5   1  -5    1.15    0.35
  -5   1  -5    0.98    0.44
   5  -1   5    0.69    0.34
  -6   1  -5   87.74    4.08
  -6   1  -5   85.57    4.34
  -6   1  -5   90.44    4.73
  -6   1  -5   91.05    4.33
   6  -1   5   78.20    5.16
  -7   1  -5   90.44    4.29
  -7   1  -5   85.10    4.58
  -7   1  -5   93.79    4.58
  -8   1  -5    1.18    0.36
  -8   1  -5    1.14    0.53
  -9   1  -5   51.22    3.24
  -9   1  -5   56.99    2.95
 -10   1  -5   53.89    3.44
 -10   1  -5   53.62    2.99
 -10   0   5    2.47    0.80
 -10   0   5    2.00    0.59
  -9   0   5    6.00    1.01
  -9   0   5    5.49    0.83
  -8   0   5   70.04    3.57
  -8   0   5   69.86    3.73
   7   0  -5    7.00    0.79
  -7   0   5    8.34    1.03
  -7   0   5    7.09    0.79
  -7   0   5    9.90    3.01
  -7   0   5    8.19    2.44
   6   0  -5   41.24    2.21
  -6   0   5   40.98    5.07
  -6   0   5   43.89    2.35
  -6   0   5   45.18    4.65
  -6   0   5   40.05    2.21
   5   0  -5  157.51    7.11
  -5   0   5  160.27   11.44
  -5   0   5  158.34    9.96
  -5   0   5  164.19    7.21
  -5   0   5  158.58    7.33
   4   0  -5    1.17    0.25
  -4   0   5    2.41    0.57
  -4   0   5    2.16    0.37
  -4   0   5    1.36    0.36
  -4   0   5    1.61    1.37
  -4   0   5    2.73    1.09
   3   0  -5   79.17    3.61
   3   0  -5   80.18    5.63
   3   0  -5   74.25    3.83
  -3   0   5   72.78    4.08
  -3   0   5   84.75    5.78
  -3   0   5   88.12    7.82
  -3   0   5   80.64    3.59
  -3   0   5   78.43    3.81
   2   0  -5  114.62    5.18
   2   0  -5  121.40    7.29
  -2   0   5  120.32    9.72
  -2   0   5  121.52    5.46
  -2   0   5  102.18    5.73
  -2   0   5  124.57    7.41
   1   0  -5  180.86    7.66
   1   0  -5  178.95   10.02
  -1   0   5  186.26    8.03
  -1   0   5  157.14    8.28
  -1   0   5  182.47   10.03
  -1   0   5  170.14   12.46
   0   0  -5   22.06    1.09
   0   0  -5   20.10    2.71
   0   0   5   21.36    3.76
   0   0   5   19.51    1.62
   0   0   5   19.35    1.60
  -1   0  -5  107.99    4.54
  -1   0  -5   97.44    5.04
   1   0   5  108.48    5.35
   1   0   5  101.49    5.25
   1   0   5   92.50    8.46
  -2   0  -5  324.88   13.67
  -2   0  -5  319.33   13.66
  -2   0  -5  340.28   13.73
  -2   0  -5  328.16   14.30
   2   0   5  313.51   14.45
   2   0   5  266.98   18.04
   2   0   5  340.30   14.54
  -3   0  -5   13.45    0.83
  -3   0  -5   13.76    1.18
  -3   0  -5   15.56    0.85
  -3   0  -5    6.95    2.30
  -3   0  -5   13.08    0.83
   3   0   5   12.00    1.19
   3   0   5   13.89    1.59
  -4   0  -5  400.36   17.74
  -4   0  -5  417.39   18.23
  -4   0  -5  399.12   17.72
  -4   0  -5  433.14   17.68
   4   0   5  396.82   18.28
   4   0   5  438.08   18.36
   4   0   5  402.86   18.55
  -5   0  -5  216.38    9.65
  -5   0  -5  213.25    9.07
  -5   0  -5  200.77    9.20
  -5   0  -5  204.84    9.18
   5   0   5  196.42    9.54
  -6   0  -5    6.55    0.97
  -6   0  -5    8.57    0.98
  -6   0  -5    4.24    2.29
  -6   0  -5    7.71    0.75
  -6   0  -5    4.19    2.14
  -6   0  -5   10.00    0.88
  -7   0  -5   60.54    3.04
  -7   0  -5   59.15    3.34
  -7   0  -5   62.58    3.30
  -8   0  -5  123.64    5.82
  -8   0  -5  109.93    5.43
  -9   0  -5   13.93    1.27
  -9   0  -5   13.10    1.50
 -10   0  -5    1.74    0.52
 -10   0  -5    1.68    0.76
 -10   1   5   16.09    1.84
 -10   1   5   17.75    1.47
  -9   1   5   -0.24    0.46
  -9   1   5    0.70    0.42
  -8   1   5    5.99    0.83
  -8   1   5    6.58    1.02
  -7   1   5   51.45    2.66
  -7   1   5   48.58    5.30
  -7   1   5   51.86    3.07
  -7   1   5   49.10    2.82
   6  -1  -5   39.97    2.17
  -6   1   5   40.44    2.50
  -6   1   5   41.93    2.20
  -6   1   5   44.47    4.61
  -6   1   5   40.51    2.31
  -6   1   5   38.38    4.96
   5  -1  -5    7.57    0.75
  -5   1   5    6.62    0.90
  -5   1   5    8.65    0.79
  -5   1   5    9.20    2.24
  -5   1   5    9.06    2.96
   4  -1  -5  104.05    4.55
  -4   1   5  108.05    4.80
  -4   1   5   92.60    4.95
  -4   1   5   87.65    4.91
  -4   1   5  103.07    4.60
  -4   1   5  100.85    6.97
  -4   1   5   99.32    4.63
  -4   1   5   99.99    8.84
   3  -1  -5  326.31   14.19
   3  -1  -5  342.24   16.84
  -3   1   5  345.07   14.36
  -3   1   5  292.19   14.68
  -3   1   5  344.26   16.95
  -3   1   5  315.38   19.82
  -3   1   5  336.35   14.29
  -3   1   5  339.47   14.21
   2  -1  -5    0.16    0.38
   2  -1  -5    0.11    0.12
  -2   1   5    0.15    0.35
  -2   1   5    0.55    0.17
  -2   1   5    0.14    0.18
  -2   1   5    0.24    0.46
  -2   1   5    0.51    0.20
  -2   1   5   -0.05    0.75
   1  -1  -5  178.76    8.65
   1  -1  -5  166.83    8.40
   1  -1  -5  212.83   11.25
   1  -1  -5  197.60    8.42
  -1   1   5  211.44    8.69
  -1   1   5  169.04   13.41
  -1   1   5  206.20   11.10
  -1   1   5  222.46    9.17
   0  -1  -5  211.56    8.39
   0  -1  -5  193.67    8.27
   0  -1  -5  185.24   11.41
   0  -1  -5  195.82    8.70
   0   1   5  202.70    9.02
   0   1   5  164.32   13.17
  -1  -1  -5  163.04    6.90
  -1  -1  -5  149.34    7.20
   1   1   5  163.46    7.50
  -2  -1  -5    7.06    0.51
  -2  -1  -5    6.43    0.40
  -2  -1  -5    7.71    0.49
  -2  -1  -5    6.60    0.70
   2   1   5    8.14    1.07
   2   1   5    6.44    1.00
   2   1   5    7.42    0.82
   2   1   5    5.28    2.43
  -3  -1  -5  112.73    4.87
  -3  -1  -5   93.27    4.79
  -3  -1  -5  112.73    5.26
  -3  -1  -5  109.29    4.84
   3   1   5  110.49    5.53
   3   1   5  108.23    4.86
   3   1   5  114.10    5.39
   3   1   5  115.21    5.52
  -4  -1  -5  316.00   13.71
  -4  -1  -5  284.35   13.68
  -4  -1  -5  333.95   14.15
  -4  -1  -5  331.65   13.69
   4   1   5  320.87   14.41
   4   1   5  295.46   14.30
   4   1   5  341.95   14.24
  -5  -1  -5  108.63    5.05
  -5  -1  -5  103.91    5.05
  -5  -1  -5  108.14    4.94
  -5  -1  -5  112.36    5.41
   5   1   5  100.53    5.47
   5   1   5  116.21    5.47
  -6  -1  -5  115.70    5.65
  -6  -1  -5  119.95    5.44
  -6  -1  -5  121.50    5.62
  -7  -1  -5  204.73    9.20
  -7  -1  -5  201.75    9.28
  -7  -1  -5  198.52    8.96
  -8  -1  -5    6.31    2.98
  -8  -1  -5   12.33    0.96
  -8  -1  -5   14.05    1.42
  -9  -1  -5   21.72    1.52
  -9  -1  -5   25.70    1.87
 -10  -1  -5   39.72    2.67
 -10  -1  -5   37.19    2.26
 -10   2   5    7.65    1.35
 -10   2   5    7.77    1.07
  -9   2   5   35.32    2.10
  -9   2   5   28.59    2.23
  -8   2   5   67.86    3.70
  -8   2   5   64.68    3.44
  -7   2   5   25.98    1.83
  -7   2   5   28.04    3.95
  -7   2   5   28.77    1.71
  -7   2   5   27.09    2.05
   6  -2  -5   29.49    1.68
  -6   2   5   30.02    3.77
  -6   2   5   27.30    1.66
  -6   2   5   28.77    2.01
  -6   2   5   28.83    1.84
   5  -2  -5   96.79    4.53
  -5   2   5   97.55    4.83
  -5   2   5   99.84    7.21
  -5   2   5   97.97    4.68
  -5   2   5   96.73    8.74
   4  -2  -5   50.77    2.62
   4  -2  -5   55.48    2.54
  -4   2   5   49.62    4.50
  -4   2   5   50.52    2.61
  -4   2   5   50.13    2.51
  -4   2   5   54.47    2.75
  -4   2   5   47.58    6.10
  -4   2   5   51.31    2.50
   3  -2  -5    8.42    0.63
   3  -2  -5    8.75    1.95
   3  -2  -5    9.23    0.69
  -3   2   5    9.67    0.69
  -3   2   5    9.22    2.06
  -3   2   5    5.14    2.49
  -3   2   5    9.31    0.65
  -3   2   5    9.07    0.76
  -3   2   5    9.41    0.63
   2  -2  -5   76.14    4.00
   2  -2  -5   85.10    3.81
   2  -2  -5   85.11    3.78
   2  -2  -5   91.53    6.09
  -2   2   5   66.47    7.92
  -2   2   5   84.70    3.82
  -2   2   5   84.70    3.78
  -2   2   5   88.65    6.08
  -2   2   5   88.48    3.89
   1  -2  -5  483.46   19.63
   1  -2  -5  483.74   22.95
   1  -2  -5  469.87   19.74
   1  -2  -5  445.68   20.00
   1  -2  -5  456.79   19.74
  -1   2   5  467.61   19.74
  -1   2   5  480.27   19.71
  -1   2   5  434.42   20.07
  -1   2   5  459.39   22.63
   0  -2  -5   20.99    1.32
   0  -2  -5   20.80    1.12
   0  -2  -5   20.98    1.08
   0  -2  -5   19.46    2.87
   0   2   5   15.70    4.39
   0   2   5   18.67    1.35
   0   2   5   22.60    1.01
  -1  -2  -5   75.43    3.33
  -1  -2  -5   72.88    3.45
  -1  -2  -5   74.53    3.60
   1   2   5   77.40    3.70
   1   2   5   56.21    7.04
   1   2   5   76.27    3.67
  -2  -2  -5  291.30   12.57
  -2  -2  -5  309.51   12.51
  -2  -2  -5  292.42   12.80
  -2  -2  -5  279.56   12.86
   2   2   5  290.27   12.39
   2   2   5  299.15   12.99
   2   2   5  290.77   12.95
  -3  -2  -5  144.97    6.22
  -3  -2  -5  124.61    6.45
  -3  -2  -5  145.81    6.51
  -3  -2  -5  143.80    6.19
   3   2   5  142.07    6.66
   3   2   5  139.24    6.11
   3   2   5  146.87    6.61
  -4  -2  -5  101.89    4.87
  -4  -2  -5   98.85    4.53
  -4  -2  -5   98.47    4.55
   4   2   5  103.41    4.94
   4   2   5   96.94    5.01
  -5  -2  -5   75.14    3.69
  -5  -2  -5   74.77    3.62
  -5  -2  -5   79.14    4.02
   5   2   5   76.57    4.19
   5   2   5   77.87    4.04
   5   2   5   83.98    4.26
  -6  -2  -5   19.80    4.90
  -6  -2  -5   33.75    1.92
  -6  -2  -5   34.07    1.75
  -7  -2  -5   46.12    2.59
  -7  -2  -5   45.46    2.39
  -8  -2  -5   13.25    1.00
  -8  -2  -5   14.16    1.23
  -8  -2  -5    6.34    3.11
  -9  -2  -5  120.16    5.73
  -9  -2  -5  123.50    6.07
 -10  -2  -5    6.78    1.14
 -10  -2  -5    9.46    1.04
 -11  -2  -5    9.54    1.13
 -11  -2  -5   10.60    1.48
  -9   3   5   13.16    1.33
  -9   3   5   16.33    1.85
  -8   3   5   42.30    2.42
  -8   3   5   40.35    2.65
  -7   3   5   24.95    1.60
  -7   3   5   26.58    1.86
  -7   3   5   22.54    3.61
   6  -3  -5   77.59    4.03
   6  -3  -5   77.79    3.81
  -6   3   5   80.89    4.06
  -6   3   5   77.63    6.60
  -6   3   5   79.37    4.20
  -6   3   5   77.67    3.82
   5  -3  -5   52.32    2.84
   5  -3  -5   52.86    2.67
  -5   3   5   53.53    2.86
  -5   3   5   54.10    6.52
  -5   3   5   54.07    2.98
  -5   3   5   53.61    4.94
   4  -3  -5    1.94    0.43
   4  -3  -5    2.30    0.38
  -4   3   5    2.17    0.31
  -4   3   5    2.07    0.43
  -4   3   5    1.99    0.31
  -4   3   5    2.02    1.69
  -4   3   5    1.98    0.49
  -4   3   5    1.34    0.87
   3  -3  -5  213.60   11.55
   3  -3  -5  205.98    8.85
   3  -3  -5  196.04    8.89
   3  -3  -5  196.56    8.65
   3  -3  -5  198.33    9.01
  -3   3   5  200.89    8.73
  -3   3   5  205.30    8.91
  -3   3   5  208.29    9.06
  -3   3   5  202.40    8.69
  -3   3   5  203.12   11.47
   2  -3  -5   31.14    1.60
   2  -3  -5   33.57    1.80
   2  -3  -5   30.67    1.61
   2  -3  -5   30.87    1.48
   2  -3  -5   31.84    3.30
  -2   3   5   23.93    5.78
  -2   3   5   32.11    1.73
  -2   3   5   35.60    3.49
  -2   3   5   32.15    1.62
   1  -3  -5    9.74    2.30
   1  -3  -5    6.98    0.51
   1  -3  -5    6.89    0.63
   1  -3  -5    7.36    0.50
  -1   3   5    6.99    0.55
  -1   3   5    7.32    0.51
  -1   3   5    6.24    1.79
  -1   3   5    6.78    0.56
  -1   3   5    3.87    2.44
   0  -3  -5  155.44   10.87
   0  -3  -5  187.38    8.04
   0  -3  -5  193.80    7.77
   0  -3  -5  176.46    7.78
   0   3   5  191.75    7.96
   0   3   5  178.79    7.92
   0   3   5  185.63    7.81
   0   3   5  151.81   13.36
  -1  -3  -5  273.74   11.77
  -1  -3  -5  260.98   11.51
  -1  -3  -5  258.49   11.53
  -1  -3  -5  276.69   11.48
   1   3   5  256.92   11.69
   1   3   5  271.86   11.71
   1   3   5  282.27   11.51
  -2  -3  -5   27.11    1.57
  -2  -3  -5   27.09    1.48
  -2  -3  -5   28.80    1.35
  -2  -3  -5   26.26    1.35
   2   3   5   25.24    1.53
   2   3   5   24.59    1.54
  -3  -3  -5   17.86    1.19
  -3  -3  -5   18.32    1.22
  -3  -3  -5   17.80    1.02
  -3  -3  -5   19.33    1.04
   3   3   5   16.35    1.21
   3   3   5   17.97    1.26
   3   3   5   19.06    0.98
  -4  -3  -5  378.99   16.48
  -4  -3  -5  388.78   16.22
  -4  -3  -5  376.78   16.17
  -4  -3  -5  371.58   16.42
   4   3   5  381.74   16.54
   4   3   5  365.16   16.57
  -5  -3  -5   99.97    4.97
  -5  -3  -5  104.88    4.73
  -5  -3  -5  104.95    4.81
   5   3   5  104.64    5.12
  -6  -3  -5    5.41    2.59
  -6  -3  -5   10.04    0.90
  -6  -3  -5   10.51    0.78
   6   3   5   11.62    1.09
  -7  -3  -5  106.77    5.10
  -7  -3  -5  103.38    4.89
  -8  -3  -5   22.58    6.05
  -8  -3  -5   29.22    1.98
  -8  -3  -5   34.65    1.84
  -9  -3  -5    7.56    1.06
  -9  -3  -5    5.19    0.72
 -10  -3  -5    0.85    0.38
 -10  -3  -5    1.25    0.66
 -11  -3  -5   44.00    2.64
 -11  -3  -5   47.61    3.08
  -9   4   5    8.85    1.43
  -9   4   5    9.46    1.14
  -8   4   5    0.37    0.34
  -8   4   5    0.38    0.51
   7  -4  -5   40.53    2.51
  -7   4   5   37.72    2.47
  -7   4   5   38.80    2.19
  -7   4   5   31.21    5.10
   6  -4  -5   12.40    0.97
   6  -4  -5   13.32    1.42
  -6   4   5   12.97    1.21
  -6   4   5   13.43    1.56
  -6   4   5   13.28    1.01
  -6   4   5   12.07    2.85
   5  -4  -5   36.07    2.09
   5  -4  -5   32.76    1.86
  -5   4   5   32.82    1.86
  -5   4   5   36.23    2.10
  -5   4   5   32.42    3.79
  -5   4   5   35.02    2.22
   4  -4  -5   67.96    3.10
   4  -4  -5   61.23    2.80
   4  -4  -5   67.11    3.24
  -4   4   5   51.48    7.20
  -4   4   5   61.86    3.01
  -4   4   5   65.12    3.23
  -4   4   5   67.31    5.43
  -4   4   5   66.18    3.41
   3  -4  -5  278.69   12.36
   3  -4  -5  280.61   12.30
   3  -4  -5  276.44   12.19
   3  -4  -5  291.02   15.05
  -3   4   5  280.88   14.99
  -3   4   5  283.07   12.32
  -3   4   5  286.17   12.50
   2  -4  -5    0.62    0.26
   2  -4  -5    0.36    0.48
   2  -4  -5    0.66    0.21
   2  -4  -5    0.76    0.20
  -2   4   5    0.53    0.25
  -2   4   5    0.85    1.66
  -2   4   5    0.50    0.20
  -2   4   5    1.05    0.77
   1  -4  -5  164.83    7.08
   1  -4  -5  172.21   10.18
   1  -4  -5  166.16    7.13
   1  -4  -5  165.09    7.30
  -1   4   5  126.37   12.76
  -1   4   5  165.79    7.28
  -1   4   5  161.97    9.88
   0  -4  -5  301.26   13.29
   0  -4  -5  323.75   13.12
   0  -4  -5  250.80   16.34
   0  -4  -5  309.41   13.07
   0   4   5  330.29   13.29
   0   4   5  314.52   13.08
   0   4   5  298.91   13.04
  -1  -4  -5   49.31    2.27
  -1  -4  -5   48.11    2.20
  -1  -4  -5   46.50    2.43
  -1  -4  -5   43.42    2.20
   1   4   5   47.33    2.31
   1   4   5   48.94    2.33
  -2  -4  -5  105.34    4.63
  -2  -4  -5  106.73    4.69
  -2  -4  -5   99.91    4.59
   2   4   5  102.46    4.77
   2   4   5  101.82    4.76
  -3  -4  -5  139.05    6.30
  -3  -4  -5  138.98    6.12
  -3  -4  -5  143.65    6.17
  -3  -4  -5  138.64    6.34
   3   4   5  135.05    6.36
   3   4   5  137.40    6.38
  -4  -4  -5   75.99    3.81
  -4  -4  -5   77.41    3.61
  -4  -4  -5   81.72    3.69
   4   4   5   78.55    3.92
  -5  -4  -5    0.00    0.63
  -5  -4  -5    0.41    0.27
  -5  -4  -5   -0.02    0.14
  -5  -4  -5    0.12    0.15
  -5  -4  -5   -0.17    0.47
   5   4   5    0.47    0.30
  -6  -4  -5  115.39    5.46
  -6  -4  -5  116.50    5.33
  -6  -4  -5  114.50    5.56
   6   4   5  120.74    5.80
  -7  -4  -5  131.82    6.29
  -7  -4  -5  136.12    6.12
  -8  -4  -5    0.58    0.28
  -8  -4  -5    0.63    0.37
  -8  -4  -5    0.14    1.05
  -9  -4  -5   42.38    2.34
  -9  -4  -5   41.36    2.58
 -10  -4  -5   19.80    1.42
 -10  -4  -5   19.37    1.73
 -11  -4  -5    1.35    0.62
 -11  -4  -5    1.65    0.54
  -8   5   5   16.62    1.89
  -8   5   5   18.11    1.40
   7  -5  -5    6.22    1.08
  -7   5   5    6.95    0.88
  -7   5   5    7.28    1.19
   6  -5  -5    0.26    0.36
  -6   5   5    1.34    0.41
  -6   5   5    1.22    0.48
   5  -5  -5   21.11    1.30
   5  -5  -5   20.44    1.48
   5  -5  -5   18.09    1.06
  -5   5   5   20.92    3.02
  -5   5   5   20.77    1.50
  -5   5   5   21.25    1.66
  -5   5   5   21.92    1.32
   4  -5  -5    8.31    0.71
   4  -5  -5    8.72    0.98
  -4   5   5   10.51    2.43
  -4   5   5   10.60    1.09
  -4   5   5    9.39    1.14
   3  -5  -5    2.76    0.47
   3  -5  -5    3.34    1.27
   3  -5  -5    2.23    0.36
   3  -5  -5    3.28    0.55
  -3   5   5    2.88    0.48
  -3   5   5    1.52    1.97
  -3   5   5    2.47    1.17
  -3   5   5    3.42    0.67
   2  -5  -5   73.83    3.62
   2  -5  -5   77.27    5.74
   2  -5  -5   72.21    3.40
   2  -5  -5   74.55    3.55
  -2   5   5   74.17    3.56
  -2   5   5   72.79    5.67
  -2   5   5   71.94    3.73
   1  -5  -5  248.30   10.50
   1  -5  -5  237.12   10.36
   1  -5  -5  234.13   10.60
   1  -5  -5  244.59   13.59
  -1   5   5  229.85   13.29
  -1   5   5  247.31   10.74
   0  -5  -5    4.77    0.62
   0  -5  -5    4.72    0.46
   0  -5  -5    5.45    2.00
   0  -5  -5    4.61    0.52
   0   5   5    4.78    0.39
   0   5   5    5.03    0.68
   0   5   5    4.44    0.36
  -1  -5  -5  293.43   12.93
  -1  -5  -5  314.38   13.07
  -1  -5  -5  299.61   13.21
   1   5   5  298.23   13.02
   1   5   5  306.91   13.03
  -2  -5  -5  209.84    9.32
  -2  -5  -5  217.56    9.16
  -2  -5  -5  214.10    9.16
  -2  -5  -5  198.46    9.04
   2   5   5  211.11    9.24
   2   5   5  205.93    9.23
  -3  -5  -5   21.45    1.37
  -3  -5  -5   20.33    1.25
  -3  -5  -5   22.86    1.18
   3   5   5   22.06    1.38
  -4  -5  -5  141.58    6.40
  -4  -5  -5  140.10    6.51
  -4  -5  -5  145.37    6.29
   4   5   5  140.35    6.60
  -5  -5  -5  132.62    6.05
  -5  -5  -5  134.25    5.93
  -5  -5  -5  132.17    6.14
   5   5   5  129.66    6.30
  -6  -5  -5    2.42    0.51
  -6  -5  -5    3.28    0.55
  -6  -5  -5    2.32    0.38
  -6  -5  -5    1.53    1.22
  -6  -5  -5    1.24    1.41
   6   5   5    2.85    0.61
  -7  -5  -5   -0.11    0.81
  -7  -5  -5   -0.63    0.83
  -7  -5  -5    0.04    0.16
  -7  -5  -5    0.24    0.27
  -8  -5  -5   89.83    4.60
  -8  -5  -5   93.14    4.39
  -9  -5  -5  104.72    5.41
  -9  -5  -5  111.28    5.17
 -10  -5  -5    8.41    0.97
 -10  -5  -5    6.65    1.13
 -11  -5  -5   61.27    3.32
 -11  -5  -5   60.99    3.68
   8  -6  -5    0.45    0.64
   8  -6  -5    0.20    0.21
  -8   6   5    0.01    0.52
  -8   6   5    0.01    0.61
   7  -6  -5   18.86    1.17
   7  -6  -5   23.18    1.89
  -7   6   5   22.16    1.52
  -7   6   5   27.58    2.02
   6  -6  -5   91.36    4.45
   6  -6  -5  107.99    5.30
  -6   6   5  110.72    5.33
  -6   6   5  107.54    4.91
   5  -6  -5   23.59    1.70
  -5   6   5   23.87    1.72
  -5   6   5   23.48    1.46
   4  -6  -5   75.47    3.94
   4  -6  -5   76.57    3.71
  -4   6   5   76.50    3.71
  -4   6   5   77.91    3.97
  -4   6   5   85.22    4.29
   3  -6  -5  198.34   11.44
   3  -6  -5  195.97    8.89
   3  -6  -5  195.14    8.88
   3  -6  -5  195.33    8.64
  -3   6   5  202.64    9.19
  -3   6   5  193.01    8.88
  -3   6   5  197.98   11.44
   2  -6  -5   20.60    1.19
   2  -6  -5   21.72    2.79
   2  -6  -5   22.56    1.40
   2  -6  -5   21.70    1.42
  -2   6   5   21.74    1.59
  -2   6   5   14.01    5.22
  -2   6   5   21.95    2.81
  -2   6   5   22.69    1.41
   1  -6  -5   21.96    1.35
   1  -6  -5   22.02    1.43
   1  -6  -5   22.13    1.20
   1  -6  -5   22.35    2.96
  -1   6   5   21.04    2.87
  -1   6   5   23.20    1.61
   0  -6  -5   37.53    4.35
   0  -6  -5   38.92    1.87
   0  -6  -5   40.10    2.15
   0  -6  -5   38.41    2.03
   0   6   5   37.04    1.85
   0   6   5   38.71    1.89
   0   6   5   38.37    2.31
  -1  -6  -5  116.87    5.42
  -1  -6  -5  112.83    5.10
  -1  -6  -5  118.26    5.30
   1   6   5  115.25    5.22
  -2  -6  -5   70.83    3.53
  -2  -6  -5   73.16    3.42
  -2  -6  -5   69.01    3.23
   2   6   5   71.81    3.45
  -3  -6  -5   20.43    1.24
  -3  -6  -5   19.77    1.32
  -3  -6  -5   19.82    1.10
   3   6   5   19.60    1.31
  -4  -6  -5  499.91   21.49
  -4  -6  -5  507.94   21.79
  -4  -6  -5  510.25   21.69
   4   6   5  500.22   21.88
  -5  -6  -5  145.62    6.56
  -5  -6  -5  143.82    6.63
  -5  -6  -5  144.85    6.37
   5   6   5  137.10    6.77
  -6  -6  -5   16.24    1.18
  -6  -6  -5   13.92    1.08
  -6  -6  -5   13.81    0.94
  -6  -6  -5    5.97    2.97
   6   6   5   14.86    1.29
  -7  -6  -5   76.67    3.94
  -7  -6  -5   78.57    3.74
  -8  -6  -5   49.74    2.81
  -8  -6  -5   47.57    2.55
  -9  -6  -5    7.95    1.13
  -9  -6  -5    6.70    0.85
 -10  -6  -5    5.46    1.02
 -10  -6  -5    5.30    0.75
 -11  -6  -5   27.89    2.25
 -11  -6  -5   31.65    1.98
   7  -7  -5   12.68    1.64
  -7   7   5   14.59    1.72
   6  -7  -5    0.09    0.38
  -6   7   5    0.36    0.49
   5  -7  -5   29.62    2.04
  -5   7   5   29.30    2.05
   4  -7  -5   46.39    2.68
  -4   7   5   44.80    3.50
  -4   7   5   47.06    2.70
   3  -7  -5   30.11    1.86
   3  -7  -5   28.85    1.86
  -3   7   5   28.21    1.87
  -3   7   5   31.42    2.15
   2  -7  -5   50.29    2.71
   2  -7  -5   51.15    2.75
  -2   7   5   39.22    9.41
  -2   7   5   51.41    2.74
  -2   7   5   51.81    3.02
   1  -7  -5  164.31    7.64
   1  -7  -5  172.21    7.60
  -1   7   5  162.94    7.94
   0  -7  -5   43.21    4.62
   0  -7  -5   43.02    2.36
   0  -7  -5   41.46    2.25
   0   7   5   42.59    2.12
   0   7   5   35.44    4.04
   0   7   5   43.53    2.62
  -1  -7  -5   20.31    1.34
  -1  -7  -5   19.14    1.24
  -1  -7  -5   15.44    3.57
   1   7   5   19.16    1.20
  -2  -7  -5  126.09    5.74
  -2  -7  -5  118.71    5.81
   2   7   5  127.53    5.77
  -3  -7  -5   -0.06    0.69
  -3  -7  -5    0.98    0.34
  -3  -7  -5    0.41    0.24
   3   7   5    0.50    0.25
  -4  -7  -5   20.16    1.40
  -4  -7  -5   20.30    1.32
   4   7   5   19.92    1.44
  -5  -7  -5   82.60    3.99
  -5  -7  -5   80.97    4.04
   5   7   5   78.31    4.18
  -6  -7  -5  297.82   13.38
  -6  -7  -5  312.87   13.28
  -6  -7  -5  295.27   13.34
   6   7   5  300.15   13.66
  -7  -7  -5    0.85    0.38
  -7  -7  -5    2.74    0.48
  -7  -7  -5    0.28    0.28
  -7  -7  -5   -0.05    1.03
   7   7   5    0.14    0.29
  -8  -7  -5   21.21    1.37
  -8  -7  -5   20.93    1.59
  -9  -7  -5   57.55    3.06
  -9  -7  -5   61.78    3.44
 -10  -7  -5   15.08    1.23
 -10  -7  -5   15.96    1.68
   6  -8  -5   43.53    2.87
  -6   8   5   42.64    2.87
   5  -8  -5   34.36    2.35
  -5   8   5   35.87    2.40
   4  -8  -5    4.05    0.77
  -4   8   5    4.11    0.80
   3  -8  -5   17.72    1.40
   3  -8  -5   18.06    1.42
  -3   8   5   18.50    1.45
   2  -8  -5   68.13    3.55
   2  -8  -5   71.13    3.60
  -2   8   5   63.15    3.52
  -2   8   5   69.55    3.93
   1  -8  -5   66.82    3.44
   1  -8  -5   69.81    3.53
  -1   8   5   62.43    3.78
   0  -8  -5   28.42    1.76
   0  -8  -5   28.52    1.82
   0   8   5   29.53    1.66
   0   8   5   25.05    2.04
  -1  -8  -5  232.82   10.66
  -1  -8  -5  235.60   10.56
   1   8   5  242.15   10.56
  -2  -8  -5  174.17    8.08
  -2  -8  -5  173.57    7.98
   2   8   5  179.24    8.06
  -3  -8  -5   25.61    1.72
  -3  -8  -5   26.95    1.68
   3   8   5   28.10    1.78
  -4  -8  -5  113.20    5.33
  -4  -8  -5  106.49    5.22
   4   8   5  109.01    5.41
  -5  -8  -5   14.07    1.17
  -5  -8  -5   15.32    1.17
   5   8   5   14.47    1.30
  -6  -8  -5    8.64    1.04
  -6  -8  -5    7.43    0.93
   6   8   5    6.95    1.03
  -7  -8  -5    0.68    0.39
  -7  -8  -5    0.39    0.30
   7   8   5    0.31    0.34
  -8  -8  -5   74.58    4.01
  -9  -8  -5   41.72    2.67
 -10  -8  -5    0.59    0.43
   5  -9  -5    0.34    0.44
  -5   9   5    0.51    0.52
   4  -9  -5   75.25    3.91
  -4   9   5   63.83    3.79
   3  -9  -5   40.66    2.56
  -3   9   5   42.08    2.60
   2  -9  -5    0.49    0.35
   2  -9  -5    0.10    0.30
  -2   9   5    0.20    0.31
   1  -9  -5   35.80    2.24
   1  -9  -5   37.93    2.32
  -1   9   5   39.09    2.70
   0  -9  -5   43.29    2.52
   0  -9  -5   48.48    2.66
   0   9   5   41.37    2.61
   0   9   5   46.40    3.01
  -1  -9  -5    8.45    1.06
  -1  -9  -5   10.08    0.94
   1   9   5   11.08    0.99
  -2  -9  -5    2.81    0.58
  -2  -9  -5    3.73    0.64
   2   9   5    4.07    0.71
  -3  -9  -5   83.46    4.32
  -3  -9  -5   88.52    4.43
   3   9   5   88.62    4.54
  -4  -9  -5   83.00    4.23
  -4  -9  -5   80.03    4.14
   4   9   5   83.32    4.67
  -5  -9  -5    3.37    0.67
  -5  -9  -5    2.98    0.62
  -6  -9  -5  111.36    5.45
  -6  -9  -5  107.32    5.38
  -7  -9  -5   13.62    1.24
  -7  -9  -5   13.50    1.25
  -8  -9  -5    1.16    0.51
  -9  -9  -5    8.59    1.21
   4 -10  -5   34.35    2.40
  -4  10   5   33.56    2.40
   3 -10  -5   10.93    1.34
  -3  10   5   10.03    1.35
   2 -10  -5   29.98    2.09
   2 -10  -5   30.67    2.13
  -2  10   5   32.54    2.15
   1 -10  -5   66.41    3.67
   1 -10  -5   66.22    3.61
   0 -10  -5   13.27    1.45
   0 -10  -5   12.56    1.17
  -1 -10  -5   40.95    2.45
  -1 -10  -5   35.31    2.27
  -2 -10  -5  108.42    5.41
  -2 -10  -5  113.12    5.54
  -3 -10  -5    6.96    1.02
  -3 -10  -5    7.38    0.97
  -4 -10  -5    2.09    0.53
  -4 -10  -5    1.64    0.50
  -5 -10  -5   27.48    1.93
  -5 -10  -5   27.96    1.90
  -6 -10  -5  101.98    5.25
  -6 -10  -5  105.45    5.30
  -7 -10  -5    0.18    0.34
  -7 -10  -5    0.44    0.37
  -8 -10  -5   32.74    2.26
  -9 -10  -5   46.90    3.01
   2 -11  -5   23.31    1.84
   2 -11  -5   23.98    1.87
  -2  11   5   22.09    1.81
   1 -11  -5   11.42    1.39
   1 -11  -5   11.68    1.37
   0 -11  -5   23.23    1.75
   0 -11  -5   22.15    1.77
  -1 -11  -5   63.54    3.57
  -1 -11  -5   60.39    3.45
  -2 -11  -5   12.15    1.44
  -2 -11  -5   10.14    1.21
  -3 -11  -5    7.39    1.08
  -3 -11  -5    9.97    1.27
  -4 -11  -5   58.83    3.50
  -4 -11  -5   70.39    3.71
  -5 -11  -5   16.37    1.47
  -5 -11  -5   16.78    1.46
  -6 -11  -5    0.14    0.35
  -6 -11  -5    0.37    0.34
  -7 -11  -5   11.26    1.43
  -7 -11  -5   11.32    1.40
   0 -12  -5    2.32    0.71
   0 -12  -5    1.98    0.61
  -1 -12  -5    5.85    1.01
  -1 -12  -5    7.37    1.09
  -2 -12  -5   10.32    1.36
  -2 -12  -5    7.34    1.12
  -3 -12  -5   45.97    2.98
  -3 -12  -5   50.56    2.97
  -4 -12  -5   11.47    1.48
  -4 -12  -5   15.68    1.66
  -5 -12  -5    4.58    0.91
  -5 -12  -5    4.24    0.90
  -6 -12  -5   64.08    3.70
  -6 -12  -5   62.08    3.71
  -5 -10   6    2.08    1.98
  -5 -10   6    1.08    0.58
  -4 -10   6   12.36    1.58
  -4 -10   6   13.34    4.36
  -3 -10   6    6.98    3.13
  -3 -10   6    6.43    1.19
  -2 -10   6   13.22    1.67
  -1 -10   6   15.59    1.82
   0 -10   6   32.16    2.43
   0 -10   6   32.20    2.35
   1 -10   6    7.97    1.27
   1 -10   6    8.74    1.35
  -7  -9   6   -0.04    1.32
  -6  -9   6   58.51    3.50
  -6  -9   6   57.90    7.75
  -5  -9   6   70.37    8.39
  -5  -9   6   72.21    4.12
  -4  -9   6    1.02    1.47
  -4  -9   6    1.34    0.56
  -3  -9   6   72.01    8.09
  -3  -9   6   83.63    4.50
  -2  -9   6   45.14    6.02
  -2  -9   6   42.82    2.91
  -2  -9   6   46.97    3.18
  -1  -9   6    3.20    0.80
  -1  -9   6    2.88    0.64
   0  -9   6    5.89    1.10
   0  -9   6    3.11    0.66
   0  -9   6    4.73    0.91
  -1   9  -6   30.71    1.93
   1  -9   6   28.26    1.90
   1  -9   6   23.55    2.02
   1  -9   6   26.32    2.09
  -2   9  -6   49.39    2.87
   2  -9   6   48.47    3.15
   2  -9   6   45.70    3.08
   2  -9   6   49.90    2.88
  -3   9  -6    4.11    0.80
   3  -9   6    5.08    0.87
   3  -9   6    5.62    1.07
   3  -9   6    4.15    0.96
  -8  -8   6    0.83    1.67
  -7  -8   6   13.64    4.48
  -6  -8   6    5.41    0.96
  -6  -8   6    4.69    2.85
  -5  -8   6    1.06    0.50
  -5  -8   6    0.75    1.44
  -4  -8   6   21.65    5.06
  -4  -8   6   24.69    1.91
  -3  -8   6   42.04    2.83
  -3  -8   6   46.17    2.56
  -3  -8   6   46.79    5.98
  -2  -8   6    1.27    0.54
  -2  -8   6   -0.05    0.78
  -2  -8   6    0.16    0.25
  -1  -8   6   45.29    2.58
  -1  -8   6   48.25    3.00
   0  -8   6   74.56    3.99
   0  -8   6   66.62    3.99
   0  -8   6   70.83    3.64
   1  -8   6    8.04    1.25
   1  -8   6    7.45    0.94
   1  -8   6    9.24    1.29
  -2   8  -6   16.15    1.31
   2  -8   6   14.38    1.26
   2  -8   6   17.89    1.59
   2  -8   6   16.98    1.59
  -3   8  -6   31.15    2.16
   3  -8   6   35.43    2.22
   3  -8   6   36.52    2.57
   3  -8   6   37.21    2.50
  -4   8  -6    6.67    1.01
   4  -8   6    6.64    1.22
   4  -8   6    3.52    0.76
  -9  -7   6    7.03    3.33
  -8  -7   6   18.56    5.24
  -7  -7   6   12.13    4.16
  -6  -7   6   37.83    5.77
  -6  -7   6   37.68    2.44
  -5  -7   6   28.45    2.05
  -5  -7   6   28.48    4.78
  -4  -7   6   15.91    1.20
  -4  -7   6   16.31    1.48
  -4  -7   6   17.48    4.41
  -3  -7   6    5.49    0.72
  -3  -7   6    5.98    1.01
  -3  -7   6    5.40    2.48
  -2  -7   6   64.61    6.64
  -2  -7   6   61.05    3.64
  -2  -7   6   66.12    3.26
  -1  -7   6  114.71    9.05
  -1  -7   6  115.29    6.58
  -1  -7   6  108.04    5.75
  -1  -7   6  112.10    5.30
   0  -7   6   10.40    0.91
   0  -7   6   10.79    1.36
   0  -7   6   10.66    1.27
   1  -7   6   47.46    2.61
   1  -7   6   50.38    3.01
   1  -7   6   47.17    2.99
  -2   7  -6  219.07    9.92
   2  -7   6  223.74   10.39
   2  -7   6  218.88    9.91
   2  -7   6  217.53   10.34
  -3   7  -6   33.54    2.14
   3  -7   6   37.68    2.57
   3  -7   6   36.29    2.46
   3  -7   6   35.96    2.17
  -4   7  -6   33.29    2.09
   4  -7   6   32.50    2.41
   4  -7   6   29.66    2.20
   4  -7   6   30.28    2.05
  -5   7  -6   28.13    2.08
   5  -7   6   33.08    2.49
   5  -7   6   32.57    2.19
  -6   7  -6   19.85    1.72
   6  -7   6   20.05    1.75
   6  -7   6   18.98    2.23
  -9  -6   6    6.28    3.21
  -8  -6   6    0.25    1.32
  -7  -6   6    8.28    3.26
  -6  -6   6   13.79    3.99
  -5  -6   6   33.76    2.21
  -5  -6   6   31.37    1.89
  -5  -6   6   34.60    5.07
  -4  -6   6    9.89    0.85
  -4  -6   6   12.66    3.57
  -4  -6   6   11.16    1.32
  -3  -6   6  114.29    9.37
  -3  -6   6  115.69    5.78
  -3  -6   6  112.60    5.29
  -2  -6   6    0.41    0.37
  -2  -6   6    0.43    0.53
  -2  -6   6    0.93    0.30
  -2  -6   6    1.05    1.19
  -1  -6   6    6.51    2.33
  -1  -6   6    7.01    1.06
  -1  -6   6    6.71    1.54
  -1  -6   6    6.17    0.70
   0  -6   6   18.42    2.95
   0  -6   6   16.91    1.40
   0  -6   6   16.87    1.48
   0  -6   6   16.09    1.82
   0  -6   6   16.30    1.12
   1  -6   6   56.65    2.85
   1  -6   6   49.38    3.19
   1  -6   6   60.50    3.29
  -2   6  -6   16.70    1.18
   2  -6   6   15.18    1.43
   2  -6   6   16.23    1.46
   2  -6   6   15.74    1.15
  -3   6  -6    1.41    0.62
  -3   6  -6    1.47    0.44
   3  -6   6    1.81    0.60
   3  -6   6    1.26    0.54
   3  -6   6    1.95    0.47
  -4   6  -6  134.01    6.51
   4  -6   6  131.85    6.51
   4  -6   6  147.94    7.09
   4  -6   6  139.68    6.83
  -5   6  -6   37.18    2.35
   5  -6   6   38.19    2.39
   5  -6   6   37.80    2.72
  -6   6  -6   13.58    1.52
   6  -6   6   11.23    1.41
   6  -6   6   13.89    1.85
  -7   6  -6   49.96    3.15
   7  -6   6   50.13    3.45
   7  -6   6   47.88    3.14
  -9  -5   6    4.82    2.84
  -8  -5   6   10.29    3.72
  -7  -5   6   43.92    5.38
  -7  -5   6   48.86    6.42
  -6  -5   6    2.22    1.68
  -6  -5   6    1.74    1.31
  -6  -5   6    1.60    0.43
  -5  -5   6   15.19    1.10
  -5  -5   6   16.85    4.15
  -5  -5   6   16.63    1.39
  -5  -5   6   16.22    2.67
  -4  -5   6    7.66    2.74
  -4  -5   6    7.57    0.68
  -4  -5   6    6.87    1.77
  -4  -5   6    7.93    2.01
  -4  -5   6    7.22    1.01
  -3  -5   6  196.58   13.16
  -3  -5   6  192.70    8.61
  -3  -5   6  194.18   10.79
  -3  -5   6  196.53    9.16
  -2  -5   6    6.30    0.58
  -2  -5   6    5.73    2.25
  -2  -5   6    5.34    0.91
  -2  -5   6    6.36    1.56
  -1  -5   6  260.98   13.36
  -1  -5   6  259.99   12.08
  -1  -5   6  277.77   15.70
  -1  -5   6  258.43   11.46
   0  -5   6   63.55    5.69
   0  -5   6   58.29    4.25
   0  -5   6   60.64    3.51
   0  -5   6   66.26    3.42
   0  -5   6   60.79    2.99
   1  -5   6   16.29    1.80
   1  -5   6   14.63    1.03
   1  -5   6   15.83    1.42
   1  -5   6   15.79    1.35
  -2   5  -6   58.79    3.03
   2  -5   6   60.09    3.68
   2  -5   6   61.27    3.04
   2  -5   6   65.28    3.51
   2  -5   6   59.67    3.48
  -3   5  -6   59.96    3.53
  -3   5  -6   57.71    3.02
   3  -5   6   61.56    3.45
   3  -5   6   59.70    3.04
   3  -5   6   57.37    3.45
  -4   5  -6   27.02    1.69
  -4   5  -6   14.20    4.78
  -4   5  -6   24.09    1.95
   4  -5   6   26.49    1.70
   4  -5   6   27.94    2.08
   4  -5   6   29.90    2.00
  -5   5  -6    4.23    0.91
  -5   5  -6    4.40    0.79
   5  -5   6    5.24    1.05
   5  -5   6    4.84    0.80
  -6   5  -6   63.45    3.58
   6  -5   6   67.42    4.03
   6  -5   6   63.67    3.62
  -7   5  -6   74.51    4.20
   7  -5   6   74.36    4.22
   7  -5   6   77.52    4.60
 -10  -4   6    0.60    0.48
 -10  -4   6    0.09    2.56
  -9  -4   6   26.44    4.89
  -9  -4   6   24.78    1.69
  -8  -4   6   16.42    1.25
  -8  -4   6   19.87    4.87
   7   4  -6   12.05    0.93
  -7  -4   6   11.77    3.59
  -7  -4   6   10.42    0.96
  -7  -4   6   10.29    3.03
  -7  -4   6   12.39    0.95
   6   4  -6   81.21    3.79
  -6  -4   6   83.04    6.97
  -6  -4   6   73.35    7.73
  -6  -4   6   83.64    3.82
  -6  -4   6   77.53    3.86
  -6  -4   6   75.23    5.93
   5   4  -6   90.63    4.18
  -5  -4   6   89.18    4.25
  -5  -4   6   87.23    4.56
  -5  -4   6   92.62    7.02
  -5  -4   6   93.92    8.49
  -5  -4   6   87.90    6.31
   4   4  -6    8.65    0.65
  -4  -4   6    8.72    2.83
  -4  -4   6    9.07    2.03
  -4  -4   6   11.42    2.35
  -4  -4   6    9.08    1.14
  -4  -4   6    8.42    0.69
   3   4  -6   21.57    1.18
  -3  -4   6   22.04    3.64
  -3  -4   6   21.00    1.23
  -3  -4   6   22.87    2.67
  -3  -4   6   20.46    1.62
  -3  -4   6   21.22    2.55
   2   4  -6  129.21    5.76
  -2  -4   6  127.99    7.83
  -2  -4   6  126.42    5.83
  -2  -4   6  137.92    9.87
  -2  -4   6  129.91    6.45
  -2  -4   6  138.14    7.83
   1   4  -6  100.31    4.58
   1   4  -6  103.66    6.25
  -1  -4   6   94.08    4.63
  -1  -4   6  108.04    5.33
  -1  -4   6  113.55    8.33
  -1  -4   6  107.94    6.34
  -1  -4   6  102.89    6.53
   0   4  -6   13.90    0.82
   0  -4   6   12.52    1.12
   0  -4   6   15.10    1.95
   0  -4   6   14.26    2.55
   0  -4   6   14.15    1.32
   0  -4   6   15.00    0.91
  -1   4  -6  176.11    7.59
   1  -4   6  166.46    9.30
   1  -4   6  175.32    8.31
   1  -4   6  181.19   10.76
   1  -4   6  171.95    7.67
  -2   4  -6  213.19    9.10
  -2   4  -6  208.19    9.21
   2  -4   6  204.48   10.60
   2  -4   6  209.52    9.79
   2  -4   6  210.31    9.22
  -3   4  -6    0.94    0.44
  -3   4  -6    0.57    0.22
  -3   4  -6    0.64    0.57
  -3   4  -6    0.86    1.48
  -3   4  -6    0.41    0.23
   3  -4   6    0.69    0.46
   3  -4   6    0.74    0.29
   3  -4   6    0.27    0.35
   3  -4   6    0.82    0.38
  -4   4  -6   68.81    3.47
  -4   4  -6   68.20    3.29
  -4   4  -6   65.70    3.74
   4  -4   6   70.40    3.82
   4  -4   6   73.89    3.97
   4  -4   6   66.90    3.46
  -5   4  -6   63.43    3.29
  -5   4  -6   57.65    3.44
  -5   4  -6   61.09    3.04
   5  -4   6   61.60    3.70
   5  -4   6   63.06    3.30
  -6   4  -6   19.97    1.35
  -6   4  -6   20.08    1.58
   6  -4   6   20.54    1.87
   6  -4   6   22.23    1.65
  -7   4  -6    2.47    0.70
   7  -4   6    0.56    0.54
   7  -4   6    0.37    0.43
  -8   4  -6   51.23    3.20
   8  -4   6   50.18    3.51
 -10  -3   6    0.63    0.46
  -9  -3   6   10.71    3.60
  -9  -3   6   12.09    1.21
  -8  -3   6    0.32    0.32
  -8  -3   6    1.01    1.43
  -8  -3   6    0.63    0.36
   7   3  -6   25.38    1.56
  -7  -3   6   24.65    1.60
  -7  -3   6   25.38    3.89
  -7  -3   6   25.63    4.40
  -7  -3   6   25.63    1.57
   6   3  -6  142.65    6.69
  -6  -3   6  148.77    6.76
  -6  -3   6  153.68   11.71
  -6  -3   6  151.43   10.27
   5   3  -6   64.34    3.07
  -5  -3   6   64.91    3.43
  -5  -3   6   57.99    6.51
  -5  -3   6   63.07    3.09
  -5  -3   6   64.88    5.60
  -5  -3   6   63.91    4.99
   4   3  -6  123.53    5.57
  -4  -3   6  128.35   10.04
  -4  -3   6  122.72    7.70
  -4  -3   6  124.01    5.58
  -4  -3   6  125.64    6.08
  -4  -3   6  122.71    8.13
   3   3  -6  188.87    8.45
  -3  -3   6  197.33   10.77
  -3  -3   6  193.97   10.93
  -3  -3   6  205.16   13.30
  -3  -3   6  191.25    9.06
  -3  -3   6  191.93    8.46
   2   3  -6    0.25    0.14
   2   3  -6    0.20    0.40
  -2  -3   6    0.49    0.16
  -2  -3   6    0.48    0.37
  -2  -3   6    0.91    0.66
  -2  -3   6    0.25    0.84
  -2  -3   6    0.33    0.51
   1   3  -6  130.58    7.68
   1   3  -6  128.91    5.79
  -1  -3   6  122.64    5.76
  -1  -3   6  141.09    9.85
  -1  -3   6  143.99    7.94
  -1  -3   6  126.50    6.47
  -1  -3   6  133.94    7.98
   0   3  -6  139.97    6.40
   0   3  -6  146.89    8.44
   0  -3   6  148.10    6.40
   0  -3   6  133.77    8.28
   0  -3   6  158.10    6.89
   0  -3   6  140.46    7.80
   0  -3   6  160.87   10.33
   0  -3   6  145.42    8.56
   0  -3   6  147.47    7.16
  -1   3  -6   35.80    1.75
  -1   3  -6   34.30    1.73
  -1   3  -6   30.92    3.32
   1  -3   6   31.22    2.76
   1  -3   6   35.64    2.33
   1  -3   6   35.50    3.27
   1  -3   6   41.13    2.23
   1  -3   6   30.48    3.13
   1  -3   6   34.88    1.74
   1  -3   6   38.04    4.09
  -2   3  -6    0.81    1.05
  -2   3  -6    0.55    0.67
  -2   3  -6    0.15    0.14
  -2   3  -6    0.81    0.23
   2  -3   6    0.99    0.24
   2  -3   6    0.35    0.32
   2  -3   6    0.03    0.25
   2  -3   6    0.18    0.46
   2  -3   6    0.31    0.46
  -3   3  -6   74.30    3.34
  -3   3  -6   70.36    3.71
  -3   3  -6   69.51    3.40
  -3   3  -6   63.28    4.22
   3  -3   6   73.11    4.85
   3  -3   6   67.23    3.82
   3  -3   6   71.94    3.42
   3  -3   6   75.62    3.96
  -4   3  -6  271.34   13.38
  -4   3  -6  282.39   12.28
  -4   3  -6  270.78   12.64
  -4   3  -6  287.30   12.44
   4  -3   6  275.81   13.58
   4  -3   6  285.18   12.45
   4  -3   6  285.07   12.87
   4  -3   6  308.12   13.05
  -5   3  -6   -0.01    0.29
  -5   3  -6    0.35    0.22
  -5   3  -6    0.09    1.28
  -5   3  -6    1.34    0.42
   5  -3   6    0.28    0.36
   5  -3   6   -0.16    0.22
   5  -3   6    0.94    0.39
  -6   3  -6  102.07    5.21
  -6   3  -6  106.70    4.96
   6  -3   6  109.04    5.69
   6  -3   6  104.42    5.24
  -7   3  -6   46.32    2.56
  -7   3  -6   49.27    2.89
   7  -3   6   48.27    3.23
  -8   3  -6    9.77    1.32
  -8   3  -6   10.19    1.05
   8  -3   6    7.11    1.34
  -9   3  -6   31.58    2.32
  -9   3  -6   29.66    1.93
   9  -3   6   28.52    2.56
 -10  -2   6    7.57    1.06
  -9  -2   6   17.59    1.39
  -8  -2   6   13.43    1.12
  -8  -2   6   11.89    3.62
  -8  -2   6   15.23    1.23
   7   2  -6    0.95    0.33
  -7  -2   6    1.86    0.46
  -7  -2   6    0.83    0.36
  -7  -2   6    0.26    0.87
  -7  -2   6    0.22    1.08
   6   2  -6    1.98    0.42
  -6  -2   6    1.88    0.44
  -6  -2   6    2.38    1.84
  -6  -2   6    1.24    1.07
   5   2  -6  119.78    5.42
  -5  -2   6  118.50    8.31
  -5  -2   6  116.49    9.77
  -5  -2   6  120.60    5.43
   4   2  -6  119.64    5.45
  -4  -2   6  123.53    5.95
  -4  -2   6  119.55    7.47
  -4  -2   6  122.21    5.42
  -4  -2   6  121.81    8.07
  -4  -2   6  120.56    9.84
   3   2  -6   57.07    2.76
  -3  -2   6   59.70    4.58
  -3  -2   6   59.95    4.82
  -3  -2   6   58.49    6.30
  -3  -2   6   58.35    3.32
  -3  -2   6   58.21    2.71
   2   2  -6   89.79    6.02
   2   2  -6   84.60    3.97
  -2  -2   6   89.88    6.08
  -2  -2   6   95.54    8.13
  -2  -2   6   85.30    3.89
  -2  -2   6   89.71    4.65
  -2  -2   6   86.72    5.94
   1   2  -6  439.02   21.12
   1   2  -6  421.65   18.67
  -1  -2   6  445.95   19.37
  -1  -2   6  429.20   19.45
  -1  -2   6  471.60   21.40
  -1  -2   6  408.73   20.97
  -1  -2   6  472.19   24.22
  -1  -2   6  428.14   18.57
   0   2  -6   66.10    3.14
   0   2  -6   70.15    5.28
   0  -2   6   66.49    5.12
   0  -2   6   69.96    3.05
   0  -2   6   79.94    6.96
   0  -2   6   64.77    3.81
   0  -2   6   65.73    4.24
  -1   2  -6   44.81    4.57
  -1   2  -6   54.61    2.49
  -1   2  -6   54.56    2.56
   1  -2   6   52.48    3.20
   1  -2   6   55.66    2.50
   1  -2   6   56.81    3.71
   1  -2   6   59.81    5.78
  -2   2  -6  337.90   15.20
  -2   2  -6  350.44   14.93
  -2   2  -6  313.62   15.83
  -2   2  -6  347.69   14.91
   2  -2   6  352.31   14.92
   2  -2   6  393.14   15.53
   2  -2   6  344.63   15.68
   2  -2   6  346.30   16.24
  -3   2  -6   64.05    3.97
  -3   2  -6   67.48    3.19
  -3   2  -6   64.15    3.35
  -3   2  -6   66.97    3.14
   3  -2   6   67.93    3.66
   3  -2   6   69.35    3.78
   3  -2   6   66.94    3.20
  -4   2  -6    5.79    2.63
  -4   2  -6    7.57    1.22
  -4   2  -6    9.77    0.72
  -4   2  -6    8.99    0.84
  -4   2  -6   10.17    0.81
   4  -2   6   13.28    1.46
   4  -2   6    8.56    1.91
   4  -2   6   10.11    1.26
   4  -2   6    8.96    0.79
  -5   2  -6  160.89    7.36
  -5   2  -6  157.13    7.42
  -5   2  -6  161.70    7.18
   5  -2   6  149.49    8.63
   5  -2   6  171.08    7.88
   5  -2   6  160.57    7.38
   5  -2   6  162.16    7.68
  -6   2  -6  213.09    9.93
  -6   2  -6  233.90   10.22
   6  -2   6  228.43   10.67
  -7   2  -6    7.53    0.86
  -7   2  -6    8.77    1.14
   7  -2   6    8.30    1.36
  -8   2  -6    7.43    0.89
  -8   2  -6    6.78    1.08
  -9   2  -6   77.61    4.29
  -9   2  -6   74.93    3.91
 -10  -1   6    9.80    1.18
  -9  -1   6   44.42    2.73
  -9  -1   6   41.92    2.52
  -8  -1   6   34.06    2.01
  -8  -1   6   33.21    2.10
  -8  -1   6   30.49    4.82
   7   1  -6   37.40    2.08
  -7  -1   6   36.35    2.14
  -7  -1   6   39.98    4.82
  -7  -1   6   34.68    5.08
  -7  -1   6   36.20    2.08
   6   1  -6   75.99    3.62
  -6  -1   6   71.20    6.37
  -6  -1   6   74.67    7.56
  -6  -1   6   75.28    3.66
   5   1  -6    1.98    0.38
  -5  -1   6    2.45    0.44
  -5  -1   6    2.17    1.73
  -5  -1   6    0.96    0.82
   4   1  -6   30.34    1.58
  -4  -1   6   29.70    1.98
  -4  -1   6   26.56    3.24
  -4  -1   6   31.61    4.64
  -4  -1   6   28.33    1.53
   3   1  -6    3.16    1.25
   3   1  -6    1.85    0.32
  -3  -1   6    1.99    0.99
  -3  -1   6    2.46    0.66
  -3  -1   6    2.51    1.71
  -3  -1   6    2.48    0.31
   2   1  -6  119.59    5.36
   2   1  -6  124.43    7.67
  -2  -1   6  126.19    7.78
  -2  -1   6  117.43    5.29
  -2  -1   6  120.07    9.96
  -2  -1   6  114.63    6.05
  -2  -1   6  123.05    5.82
   1   1  -6   44.70    2.17
   1   1  -6   45.97    4.06
  -1  -1   6   48.21    5.79
  -1  -1   6   39.76    2.78
  -1  -1   6   47.77    4.15
  -1  -1   6   46.89    2.66
   0   1  -6   29.50    1.46
   0   1  -6   27.41    3.26
   0  -1   6   29.36    1.95
   0  -1   6   29.66    2.30
   0  -1   6   25.12    3.00
   0  -1   6   27.00    2.08
   0  -1   6   30.31    4.50
  -1   1  -6  197.88    8.36
  -1   1  -6  168.09    9.03
   1  -1   6  216.65   13.83
   1  -1   6  195.60    9.22
   1  -1   6  190.19    9.47
  -2   1  -6  192.67    8.83
  -2   1  -6  203.08    8.68
  -2   1  -6  181.88    9.47
  -2   1  -6  204.33    8.74
   2  -1   6  204.52    9.84
   2  -1   6  202.46    9.56
   2  -1   6  220.96   13.92
   2  -1   6  201.83    8.69
  -3   1  -6   98.73    4.46
  -3   1  -6   94.48    4.53
  -3   1  -6   97.09    4.48
  -3   1  -6   91.58    5.15
   3  -1   6   97.51    4.49
   3  -1   6   98.18    5.17
   3  -1   6  101.12    8.35
   3  -1   6  103.62    5.44
   3  -1   6  103.22    4.98
  -4   1  -6  152.95    7.16
  -4   1  -6  163.00    7.14
  -4   1  -6  157.35    7.05
  -4   1  -6  152.79    7.78
   4  -1   6  166.55    7.63
   4  -1   6  160.87    7.72
  -5   1  -6   25.61    1.59
  -5   1  -6   36.22    2.90
  -5   1  -6   25.43    1.46
  -5   1  -6   24.92    1.56
  -5   1  -6   15.10    4.31
   5  -1   6   22.87    1.82
  -6   1  -6   12.88    0.92
  -6   1  -6   13.69    1.10
  -6   1  -6    6.12    2.75
  -6   1  -6    7.70    3.28
  -7   1  -6   94.79    4.71
  -7   1  -6   91.86    4.47
  -8   1  -6   40.01    2.29
  -8   1  -6   41.30    2.56
  -9   1  -6   12.34    1.51
  -9   1  -6   10.27    1.10
 -10   1  -6    3.06    0.67
 -10   1  -6    2.34    0.87
 -10   0   6    5.60    0.89
  -9   0   6    1.55    0.65
  -9   0   6    2.91    0.67
  -8   0   6   13.10    1.38
  -8   0   6   12.32    1.22
   7   0  -6   12.85    1.00
  -7   0   6   10.11    3.26
  -7   0   6   13.35    3.26
  -7   0   6   12.13    1.01
  -7   0   6   11.77    1.08
   6   0  -6   61.86    3.07
  -6   0   6   62.18    3.13
  -6   0   6   58.65    5.69
  -6   0   6   62.56    6.85
   5   0  -6    0.93    0.28
  -5   0   6    1.12    0.34
  -5   0   6    0.33    0.58
  -5   0   6    1.37    1.41
   4   0  -6  338.99   14.51
  -4   0   6  310.55   15.03
  -4   0   6  347.70   17.76
  -4   0   6  354.52   20.75
  -4   0   6  334.42   14.46
   3   0  -6   52.19    4.50
   3   0  -6   50.99    2.46
  -3   0   6   51.37    4.52
  -3   0   6   45.64    3.01
  -3   0   6   52.69    2.39
  -3   0   6   50.61    6.24
   2   0  -6   20.19    2.57
   2   0  -6   19.38    1.10
  -2   0   6   16.30    1.58
  -2   0   6   20.76    1.37
  -2   0   6   21.04    4.98
  -2   0   6   20.44    2.63
   1   0  -6  114.82    7.55
   1   0  -6  109.12    4.92
  -1   0   6  115.31    5.37
  -1   0   6  108.08    9.87
  -1   0   6  112.07    7.46
  -1   0   6  102.46    5.68
   0   0  -6  344.34   14.38
   0   0  -6  327.90   17.90
   0   0   6  335.36   15.30
   0   0   6  327.32   15.32
   0   0   6  345.32   20.92
  -1   0  -6    0.42    0.29
  -1   0  -6    1.58    0.28
  -1   0  -6    0.48    0.77
   1   0   6    0.52    1.06
   1   0   6    0.43    0.37
   1   0   6    0.70    0.44
  -2   0  -6   72.71    3.33
  -2   0  -6   72.97    3.30
  -2   0  -6   74.94    4.01
  -2   0  -6   77.53    3.42
   2   0   6   77.86    4.26
   2   0   6   78.03    4.26
   2   0   6   62.59    7.17
  -3   0  -6  144.19    6.46
  -3   0  -6  149.11    7.13
  -3   0  -6  153.81    6.51
  -3   0  -6  138.33    6.44
   3   0   6  150.63    7.35
  -4   0  -6  220.59   10.22
  -4   0  -6  220.53    9.59
  -4   0  -6  215.04    9.60
  -4   0  -6  208.48    9.60
   4   0   6  219.76   10.37
   4   0   6  233.54   10.40
  -5   0  -6    4.14    0.59
  -5   0  -6    0.84    1.09
  -5   0  -6    3.34    0.53
  -5   0  -6    1.43    1.53
  -5   0  -6    3.46    0.49
   5   0   6    3.61    0.81
  -6   0  -6  112.07    5.26
  -6   0  -6  108.58    5.11
  -7   0  -6  102.12    4.97
  -7   0  -6  109.26    5.20
  -8   0  -6    2.34    2.14
  -8   0  -6    5.67    0.94
  -8   0  -6    4.46    0.67
  -9   0  -6   60.24    3.31
  -9   0  -6   66.95    3.68
 -10   0  -6   44.13    2.85
 -10   0  -6   39.84    2.46
 -10   1   6    2.42    0.60
  -9   1   6   35.25    2.13
  -9   1   6   29.09    2.18
  -8   1   6   29.95    2.02
  -8   1   6   28.23    1.84
   7  -1  -6    0.56    0.31
  -7   1   6    0.52    0.30
  -7   1   6    0.54    0.43
  -7   1   6    0.42    0.90
   6  -1  -6   32.83    1.84
  -6   1   6   31.09    4.81
  -6   1   6   33.79    4.13
  -6   1   6   30.88    1.91
   5  -1  -6   37.45    2.01
  -5   1   6   40.86    5.59
  -5   1   6   38.81    2.08
  -5   1   6   35.22    4.04
   4  -1  -6   34.02    1.76
  -4   1   6   34.38    5.24
  -4   1   6   36.19    3.81
  -4   1   6   33.86    1.76
  -4   1   6   25.41    2.12
   3  -1  -6    1.02    0.78
   3  -1  -6    0.53    0.20
  -3   1   6    0.84    1.24
  -3   1   6    0.43    0.20
  -3   1   6    0.46    0.21
  -3   1   6    0.44    0.54
  -3   1   6    0.66    0.49
   2  -1  -6  209.31    9.15
   2  -1  -6  222.66   12.06
  -2   1   6  189.39    9.82
  -2   1   6  214.25    9.02
  -2   1   6  223.68   12.20
  -2   1   6  222.15    9.40
  -2   1   6  182.30   14.78
   1  -1  -6  151.24    6.35
   1  -1  -6  124.95    6.60
   1  -1  -6  150.06    9.34
  -1   1   6  153.12    9.30
  -1   1   6  124.57   11.57
  -1   1   6  147.31    7.14
  -1   1   6  154.41    6.69
   0  -1  -6    4.69    1.70
   0  -1  -6    5.02    0.34
   0  -1  -6    4.30    0.69
   0  -1  -6    6.08    0.46
   0   1   6    6.63    1.12
   0   1   6    7.40    1.12
   0   1   6    5.19    2.61
  -1  -1  -6   47.67    2.61
   1   1   6   50.45    2.91
   1   1   6   47.76    2.93
   1   1   6   34.61    5.51
  -2  -1  -6  125.41    5.45
  -2  -1  -6  123.11    5.89
   2   1   6  115.09    6.19
   2   1   6  124.85    6.13
  -3  -1  -6   -0.04    0.45
  -3  -1  -6    0.85    0.91
  -3  -1  -6    0.41    0.15
  -3  -1  -6    0.14    0.15
  -3  -1  -6    0.33    0.17
  -3  -1  -6    0.22    0.24
   3   1   6    0.94    0.40
   3   1   6    0.23    0.28
   3   1   6    0.13    0.78
   3   1   6    0.01    0.30
  -4  -1  -6   14.43    1.22
  -4  -1  -6   12.13    0.86
  -4  -1  -6   14.24    0.92
   4   1   6   14.86    1.31
   4   1   6   10.35    3.41
   4   1   6   13.32    1.40
   4   1   6   14.51    1.72
  -5  -1  -6   81.39    3.59
  -5  -1  -6   77.17    3.62
  -5  -1  -6   70.66    3.60
   5   1   6   84.77    4.19
   5   1   6   69.68    4.18
   5   1   6   55.48    7.86
  -6  -1  -6  155.26    6.87
  -6  -1  -6  148.91    6.96
  -7  -1  -6    1.12    0.44
  -7  -1  -6    1.31    0.35
  -7  -1  -6    0.30    1.08
  -8  -1  -6   51.32    3.00
  -8  -1  -6   55.76    2.85
  -9  -1  -6   71.75    3.74
  -9  -1  -6   75.62    4.04
 -10  -1  -6    1.38    0.62
 -10  -1  -6    0.99    0.47
  -9   2   6   29.80    2.26
  -9   2   6   31.59    2.05
  -8   2   6   11.72    1.21
  -8   2   6    8.91    1.22
   7  -2  -6   34.40    1.94
  -7   2   6   30.33    2.04
  -7   2   6   31.36    1.91
   6  -2  -6  120.16    5.77
  -6   2   6  123.87    9.10
  -6   2   6  133.24    6.23
  -6   2   6  130.57    5.95
  -6   2   6  115.75   10.37
   5  -2  -6   30.85    1.72
  -5   2   6   31.77    2.00
  -5   2   6   28.95    3.64
  -5   2   6   29.14    4.98
  -5   2   6   30.90    1.81
   4  -2  -6   72.19    3.52
   4  -2  -6   77.17    6.07
  -4   2   6   75.37    3.59
  -4   2   6   69.43    5.88
  -4   2   6   77.19    3.77
  -4   2   6   77.22    8.44
   3  -2  -6  160.41    9.90
   3  -2  -6  164.78    7.20
   3  -2  -6  160.74    7.19
  -3   2   6  164.32   10.07
  -3   2   6  160.36    7.19
  -3   2   6  155.23   13.28
  -3   2   6  161.65    7.20
  -3   2   6  164.47    7.34
  -3   2   6  171.69    7.90
   2  -2  -6   58.53    2.80
   2  -2  -6   64.14    5.19
   2  -2  -6   59.63    2.75
  -2   2   6   50.51    7.07
  -2   2   6   59.10    5.11
  -2   2   6   58.24    2.74
  -2   2   6   62.29    2.89
  -2   2   6   59.99    2.89
   1  -2  -6    2.85    0.33
   1  -2  -6    3.83    1.58
   1  -2  -6    2.30    0.33
  -1   2   6    3.14    2.20
  -1   2   6    2.48    1.24
  -1   2   6    2.52    0.59
  -1   2   6    3.02    0.37
   0  -2  -6  183.57    7.80
   0  -2  -6  189.62    7.69
   0  -2  -6  170.15   11.33
   0   2   6  181.53    8.23
   0   2   6  138.80   13.08
  -1  -2  -6  419.67   18.53
  -1  -2  -6  426.74   18.32
   1   2   6  436.46   18.88
   1   2   6  438.26   18.88
  -2  -2  -6   12.31    0.78
  -2  -2  -6   12.70    0.69
  -2  -2  -6   11.60    0.94
   2   2   6   13.02    1.16
   2   2   6   13.81    1.14
   2   2   6    7.18    3.02
  -3  -2  -6  252.76   10.77
  -3  -2  -6  246.95   11.18
  -3  -2  -6  249.18   10.84
   3   2   6  249.67   11.47
   3   2   6  248.56   10.69
   3   2   6  255.72   11.35
  -4  -2  -6  314.73   13.92
  -4  -2  -6  318.81   13.91
   4   2   6  312.32   14.66
   4   2   6  332.97   14.46
   4   2   6  338.60   14.77
  -5  -2  -6    1.87    0.37
  -5  -2  -6    0.34    0.84
  -5  -2  -6    1.17    0.32
  -5  -2  -6    0.57    1.02
   5   2   6    2.73    0.64
   5   2   6    3.07    0.82
  -6  -2  -6   41.06    2.21
  -6  -2  -6   40.89    2.12
   6   2   6   34.06    3.06
  -7  -2  -6   51.55    2.61
  -7  -2  -6   48.26    2.71
  -8  -2  -6   35.88    2.10
  -8  -2  -6   38.72    2.32
  -9  -2  -6    4.20    0.84
  -9  -2  -6    5.02    0.75
 -10  -2  -6    6.96    1.16
 -10  -2  -6    8.57    1.02
  -9   3   6    0.29    0.56
  -9   3   6   -0.17    0.35
  -8   3   6    5.83    0.86
  -8   3   6    3.94    0.87
   7  -3  -6    8.22    0.93
  -7   3   6   10.22    1.02
  -7   3   6    8.37    1.15
   6  -3  -6   16.40    1.19
  -6   3   6   16.29    1.49
  -6   3   6   18.20    3.04
  -6   3   6   15.87    1.33
  -6   3   6   18.26    1.24
   5  -3  -6   14.06    0.99
   5  -3  -6   12.18    1.06
  -5   3   6   14.07    1.21
  -5   3   6   14.85    3.06
  -5   3   6   12.47    1.07
  -5   3   6   15.23    4.57
   4  -3  -6  215.30    9.44
   4  -3  -6  225.49   12.73
   4  -3  -6  218.24    9.54
  -4   3   6  206.79   16.17
  -4   3   6  217.75    9.68
  -4   3   6  208.57    9.51
  -4   3   6  207.83   12.51
   3  -3  -6   82.02    3.78
   3  -3  -6   80.43    3.75
   3  -3  -6   71.86    3.95
   3  -3  -6   88.77    6.41
  -3   3   6   83.75    6.33
  -3   3   6   83.73    3.79
  -3   3   6   63.47    8.44
  -3   3   6   84.30    3.64
  -3   3   6   79.50    3.89
   2  -3  -6  241.29   10.22
   2  -3  -6  226.25   10.48
   2  -3  -6  234.18   10.17
   2  -3  -6  247.63   13.44
  -2   3   6  237.68   10.29
  -2   3   6  206.18   10.36
  -2   3   6  241.50   10.18
  -2   3   6  250.96   13.53
  -2   3   6  238.41   10.15
   1  -3  -6  343.04   14.00
   1  -3  -6  340.68   17.86
   1  -3  -6  320.67   14.37
   1  -3  -6  324.65   14.06
  -1   3   6  301.42   14.28
  -1   3   6  332.91   14.07
  -1   3   6  308.86   17.33
  -1   3   6  349.04   14.01
   0  -3  -6   43.70    4.92
   0  -3  -6   51.38    2.17
   0  -3  -6   47.10    2.23
   0  -3  -6   48.59    2.54
   0   3   6   43.98    2.45
   0   3   6   46.81    2.51
   0   3   6   34.96    6.11
   0   3   6   47.00    2.16
  -1  -3  -6    3.73    1.90
  -1  -3  -6    9.01    0.52
  -1  -3  -6    5.59    0.76
  -1  -3  -6    6.57    0.54
  -1  -3  -6    8.77    0.62
   1   3   6    8.15    0.75
   1   3   6    7.84    0.44
   1   3   6    8.00    0.78
  -2  -3  -6  184.61    8.45
  -2  -3  -6  186.94    8.62
  -2  -3  -6  188.46    8.30
  -2  -3  -6  195.42    8.22
   2   3   6  196.85    8.72
   2   3   6  190.16    8.62
  -3  -3  -6  224.59    9.38
  -3  -3  -6  205.85    9.74
  -3  -3  -6  223.53    9.75
   3   3   6  217.96    9.79
   3   3   6  209.66    9.87
  -4  -3  -6   48.20    2.36
  -4  -3  -6   44.14    2.63
  -4  -3  -6   49.73    2.36
   4   3   6   48.42    2.72
  -5  -3  -6   55.20    2.86
  -5  -3  -6   60.17    2.86
   5   3   6   60.11    3.27
  -6  -3  -6  360.80   15.61
  -6  -3  -6  355.01   15.69
   6   3   6  365.73   16.16
  -7  -3  -6   41.07    2.37
  -7  -3  -6   42.19    2.25
  -8  -3  -6   74.99    3.98
  -8  -3  -6   79.13    3.83
  -9  -3  -6   55.02    2.91
  -9  -3  -6   52.91    3.12
 -10  -3  -6   14.73    1.38
 -10  -3  -6   15.19    1.64
 -11  -3  -6    0.68    0.59
 -11  -3  -6    0.53    0.41
  -8   4   6   15.75    1.29
  -8   4   6   12.31    1.56
  -7   4   6   11.09    1.33
  -7   4   6   11.65    1.13
   6  -4  -6   38.52    2.17
   6  -4  -6   36.64    2.36
  -6   4   6   37.80    4.54
  -6   4   6   40.30    2.58
  -6   4   6   39.45    2.41
  -6   4   6   39.59    2.19
   5  -4  -6   72.71    3.59
   5  -4  -6   76.63    3.79
  -5   4   6   73.26    3.92
  -5   4   6   75.80    3.79
  -5   4   6   68.81    6.17
   4  -4  -6    0.72    0.14
   4  -4  -6    1.36    0.40
   4  -4  -6    0.61    0.24
  -4   4   6    0.81    0.31
  -4   4   6    0.70    0.36
  -4   4   6    0.35    0.63
  -4   4   6    1.19    1.67
   3  -4  -6    0.58    0.22
   3  -4  -6    0.81    0.33
   3  -4  -6    0.44    0.65
   3  -4  -6    0.66    0.25
  -3   4   6    0.60    0.25
  -3   4   6    0.08    0.52
  -3   4   6   -0.07    0.20
  -3   4   6    1.96    2.29
   2  -4  -6   93.16    4.64
   2  -4  -6   95.56    4.40
   2  -4  -6   93.78    4.41
   2  -4  -6  102.78    7.24
  -2   4   6   96.01    4.56
  -2   4   6  100.26    4.45
  -2   4   6   97.86    7.16
   1  -4  -6  142.30    5.94
   1  -4  -6  133.01    5.92
   1  -4  -6  136.77    9.26
   1  -4  -6  131.40    6.19
  -1   4   6  138.88    6.04
  -1   4   6  128.31    5.83
  -1   4   6  124.23    8.83
   0  -4  -6   58.18    5.93
   0  -4  -6   62.57    2.96
   0  -4  -6   60.17    3.20
   0  -4  -6   68.55    2.97
   0   4   6   68.59    3.13
   0   4   6   61.85    2.98
   0   4   6   50.70    7.77
   0   4   6   66.30    3.02
  -1  -4  -6  170.26    7.83
  -1  -4  -6  163.53    7.52
  -1  -4  -6  171.85    7.49
  -1  -4  -6  176.78    7.53
   1   4   6  169.41    7.67
   1   4   6  184.11    7.59
   1   4   6  172.72    7.75
  -2  -4  -6  236.43   10.37
  -2  -4  -6  246.97   10.36
  -2  -4  -6  247.17   10.69
  -2  -4  -6  238.78   10.46
   2   4   6  236.52   10.65
   2   4   6  234.13   10.59
  -3  -4  -6    1.35    0.27
  -3  -4  -6    0.67    0.95
  -3  -4  -6    1.49    0.41
  -3  -4  -6    0.93    0.22
   3   4   6    1.45    0.37
  -4  -4  -6  161.74    7.15
  -4  -4  -6  162.72    7.17
  -4  -4  -6  157.35    7.44
   4   4   6  163.76    7.52
  -5  -4  -6   95.12    4.50
  -5  -4  -6   97.03    4.78
  -5  -4  -6   93.66    4.45
   5   4   6  100.09    4.89
  -6  -4  -6   11.93    0.88
  -6  -4  -6   13.71    0.99
  -6  -4  -6   11.58    1.11
  -6  -4  -6    5.49    2.62
   6   4   6   12.59    1.19
  -7  -4  -6   19.67    1.39
  -7  -4  -6   19.23    1.27
  -8  -4  -6  110.92    5.40
  -8  -4  -6  109.63    5.21
  -9  -4  -6   38.54    2.25
  -9  -4  -6   40.54    2.48
 -10  -4  -6   25.29    1.92
 -10  -4  -6   21.72    1.59
 -11  -4  -6   41.11    2.74
 -11  -4  -6   38.85    2.42
  -8   5   6    0.56    0.40
  -8   5   6    0.75    0.63
   7  -5  -6   95.78    4.99
  -7   5   6   94.20    4.62
  -7   5   6   90.54    4.95
   6  -5  -6    0.05    0.24
   6  -5  -6    0.25    0.39
  -6   5   6    0.20    0.40
  -6   5   6    0.56    0.33
  -6   5   6    0.50    1.00
   5  -5  -6   17.43    1.41
   5  -5  -6   21.24    1.31
  -5   5   6   19.08    1.46
  -5   5   6   16.70    2.87
  -5   5   6   21.58    1.67
  -5   5   6   21.28    1.32
   4  -5  -6  112.51    5.08
   4  -5  -6  110.97    5.23
  -4   5   6   80.46   10.69
  -4   5   6  113.09    5.26
  -4   5   6  114.17    5.46
  -4   5   6  115.10    8.08
   3  -5  -6   65.08    5.44
   3  -5  -6   63.67    3.06
   3  -5  -6   57.03    3.12
   3  -5  -6   62.48    2.93
  -3   5   6   61.13    3.05
  -3   5   6   59.83    3.21
  -3   5   6   41.30    7.51
  -3   5   6   61.48    5.37
   2  -5  -6    0.46    0.20
   2  -5  -6   -0.06    0.38
   2  -5  -6    0.03    0.16
   2  -5  -6    0.44    0.26
  -2   5   6    0.19    0.58
  -2   5   6    0.09    0.17
  -2   5   6   -0.44    1.10
  -2   5   6    0.20    0.22
   1  -5  -6   12.29    0.77
   1  -5  -6   11.49    0.80
   1  -5  -6   10.75    0.92
   1  -5  -6   10.75    2.74
  -1   5   6   11.23    0.91
  -1   5   6    8.44    4.10
  -1   5   6   12.64    2.80
   0  -5  -6  176.70    7.50
   0  -5  -6  164.54    7.71
   0  -5  -6  162.75   11.40
   0  -5  -6  163.91    7.42
   0   5   6  179.50    7.68
   0   5   6  172.90    7.46
   0   5   6  166.07    7.37
  -1  -5  -6   72.05    3.55
  -1  -5  -6   81.05    3.65
  -1  -5  -6   78.27    3.49
  -1  -5  -6   76.28    3.85
   1   5   6   80.35    3.80
   1   5   6   78.36    3.65
   1   5   6   81.46    3.81
  -2  -5  -6   41.87    2.29
  -2  -5  -6   43.80    2.08
  -2  -5  -6   39.20    2.00
   2   5   6   39.36    2.16
  -3  -5  -6  297.70   12.89
  -3  -5  -6  304.74   12.96
  -3  -5  -6  297.63   13.20
   3   5   6  297.15   13.17
  -4  -5  -6  166.22    7.54
  -4  -5  -6  170.37    7.33
  -4  -5  -6  160.25    7.23
   4   5   6  158.09    7.56
  -5  -5  -6    1.82    0.39
  -5  -5  -6    1.38    1.35
  -5  -5  -6    1.83    0.33
  -5  -5  -6    2.48    0.53
   5   5   6    1.42    0.42
  -6  -5  -6  130.54    6.00
  -6  -5  -6  130.05    6.11
  -6  -5  -6  132.16    6.32
   6   5   6  134.67    6.49
  -7  -5  -6   80.07    3.77
  -7  -5  -6   74.28    3.87
  -8  -5  -6   12.62    1.12
  -8  -5  -6   12.20    0.99
  -9  -5  -6    4.48    0.78
  -9  -5  -6    4.00    0.64
 -10  -5  -6   24.15    1.86
 -10  -5  -6   23.90    1.64
   7  -6  -6   19.89    1.82
  -7   6   6   23.96    1.60
  -7   6   6   19.86    1.83
   6  -6  -6    0.22    0.43
  -6   6   6    0.18    0.29
  -6   6   6    0.02    0.37
   5  -6  -6   27.94    1.95
   5  -6  -6   31.74    1.79
  -5   6   6   28.73    1.76
  -5   6   6   31.05    2.02
   4  -6  -6   62.25    3.08
   4  -6  -6   60.87    3.28
  -4   6   6   62.54    3.53
  -4   6   6   64.45    3.32
  -4   6   6   61.11    5.70
   3  -6  -6    0.07    0.59
   3  -6  -6    0.28    0.28
   3  -6  -6    0.24    0.20
   3  -6  -6    0.32    0.25
  -3   6   6    0.16    0.25
  -3   6   6   -0.02    0.26
  -3   6   6    0.50    0.70
  -3   6   6   -0.20    1.57
   2  -6  -6  134.74    5.99
   2  -6  -6  133.54    6.15
   2  -6  -6  134.61    8.98
   2  -6  -6  129.48    6.28
  -2   6   6  133.86    9.02
  -2   6   6  129.18    6.36
  -2   6   6  140.19    6.19
   1  -6  -6  152.23    6.90
   1  -6  -6  151.71    6.75
   1  -6  -6  155.56   10.22
   1  -6  -6  152.53    7.08
  -1   6   6  161.09    7.17
  -1   6   6  144.39    9.90
   0  -6  -6    0.25    0.18
   0  -6  -6    0.46    0.27
   0  -6  -6    0.87    0.88
   0  -6  -6    0.47    0.17
   0   6   6    0.42    0.14
   0   6   6    0.08    0.59
   0   6   6    0.54    0.28
  -1  -6  -6    5.33    0.73
  -1  -6  -6    5.47    0.61
  -1  -6  -6    3.90    1.91
  -1  -6  -6    5.62    0.53
   1   6   6    5.25    0.49
  -2  -6  -6   71.02    3.54
  -2  -6  -6   65.57    3.18
  -2  -6  -6   72.65    3.34
   2   6   6   67.73    3.36
  -3  -6  -6   44.77    2.31
  -3  -6  -6   44.64    2.49
  -3  -6  -6   42.17    2.17
   3   6   6   46.85    2.46
  -4  -6  -6    7.71    0.81
  -4  -6  -6    6.19    0.63
  -4  -6  -6    7.09    0.92
   4   6   6    7.04    0.93
  -5  -6  -6    7.73    0.92
  -5  -6  -6    5.41    0.70
  -5  -6  -6    3.58    0.51
  -5  -6  -6    1.78    1.83
   5   6   6    5.43    0.85
  -6  -6  -6  113.20    5.62
  -6  -6  -6  117.32    5.33
  -6  -6  -6  116.71    5.48
   6   6   6  115.72    5.81
  -7  -6  -6    6.92    0.75
  -7  -6  -6    7.03    0.87
  -7  -6  -6    4.64    2.81
  -8  -6  -6   78.11    4.00
  -8  -6  -6   74.51    3.76
  -9  -6  -6   80.85    4.37
  -9  -6  -6   86.03    4.16
 -10  -6  -6    4.03    0.82
   7  -7  -6   13.06    1.69
  -7   7   6   15.02    1.83
   6  -7  -6   29.50    2.16
  -6   7   6   28.06    2.14
   5  -7  -6   16.60    1.45
  -5   7   6   17.55    1.49
   4  -7  -6    0.36    0.32
  -4   7   6    0.05    0.29
   3  -7  -6   50.87    2.93
   3  -7  -6   53.58    2.89
  -3   7   6   54.15    3.16
  -3   7   6   54.12    2.91
   2  -7  -6   62.08    3.27
   2  -7  -6   63.95    3.39
  -2   7   6   64.10    3.54
  -2   7   6   70.39    3.35
  -2   7   6   48.54    8.85
   1  -7  -6    5.48    0.71
   1  -7  -6    5.58    0.83
   1  -7  -6    4.96    1.90
  -1   7   6    4.29    0.80
  -1   7   6    6.01    2.00
   0  -7  -6  202.41    8.63
   0  -7  -6  199.77    8.80
   0  -7  -6  185.74   12.45
   0   7   6  203.35    8.98
   0   7   6  192.29    8.38
   0   7   6  162.39   11.60
  -1  -7  -6  155.09    6.80
  -1  -7  -6  158.09    7.02
  -1  -7  -6  122.79   10.52
   1   7   6  153.27    6.72
  -2  -7  -6    1.86    1.49
  -2  -7  -6    4.41    0.61
  -2  -7  -6    4.46    0.74
   2   7   6    4.42    0.60
  -3  -7  -6   59.05    3.02
  -3  -7  -6   61.92    3.05
  -3  -7  -6   58.55    3.18
   3   7   6   60.26    3.13
  -4  -7  -6  181.17    8.28
  -4  -7  -6  179.17    8.10
  -4  -7  -6  176.57    7.89
   4   7   6  180.87    8.30
  -5  -7  -6   18.85    1.44
  -5  -7  -6   21.52    1.40
  -5  -7  -6   19.05    1.18
   5   7   6   20.59    1.55
  -6  -7  -6    0.43    0.33
  -6  -7  -6    0.10    1.19
  -6  -7  -6    0.85    0.26
  -6  -7  -6    0.47    0.27
   6   7   6    0.54    0.32
  -7  -7  -6   23.12    1.43
  -7  -7  -6   23.65    1.63
  -7  -7  -6   25.82    1.77
   7   7   6   21.26    1.82
  -8  -7  -6   30.40    1.82
  -8  -7  -6   32.01    2.05
  -9  -7  -6   17.26    1.46
  -9  -7  -6   13.43    1.14
 -10  -7  -6   18.18    1.40
 -10  -7  -6   19.41    1.66
   6  -8  -6   11.40    1.53
  -6   8   6   15.12    1.79
   5  -8  -6   12.69    1.46
  -5   8   6   12.25    1.47
   4  -8  -6   79.90    4.18
  -4   8   6   76.95    4.17
   3  -8  -6   39.93    2.42
  -3   8   6   40.51    2.44
   2  -8  -6    6.87    0.89
   2  -8  -6    8.53    1.09
  -2   8   6    7.05    0.93
  -2   8   6    9.82    1.30
   1  -8  -6   32.50    2.03
   1  -8  -6   29.78    1.87
  -1   8   6   30.66    2.17
   0  -8  -6  102.41    4.90
   0  -8  -6  103.33    5.05
   0   8   6  101.26    4.68
   0   8   6   99.49    5.26
  -1  -8  -6   12.71    1.12
  -1  -8  -6   11.45    0.97
   1   8   6   13.05    0.96
  -2  -8  -6    5.61    2.38
  -2  -8  -6    7.30    0.97
  -2  -8  -6    7.55    0.85
   2   8   6    5.85    0.66
  -3  -8  -6  177.05    8.27
  -3  -8  -6  179.69    8.12
   3   8   6  178.36    8.22
  -4  -8  -6  117.81    5.62
  -4  -8  -6  119.61    5.78
   4   8   6  119.18    5.81
  -5  -8  -6  108.00    5.21
  -5  -8  -6  100.20    5.03
   5   8   6  104.81    5.30
  -6  -8  -6  107.75    5.28
  -6  -8  -6  102.32    5.14
   6   8   6  105.41    5.46
  -7  -8  -6   36.74    2.29
  -7  -8  -6   38.23    2.40
   7   8   6   38.77    3.55
  -8  -8  -6    2.20    0.55
  -9  -8  -6   23.50    1.82
 -10  -8  -6    4.69    0.92
   5  -9  -6   26.19    2.04
  -5   9   6   24.83    2.02
   4  -9  -6   19.82    1.63
  -4   9   6   18.79    1.62
   3  -9  -6    0.94    0.43
  -3   9   6    1.71    0.58
   2  -9  -6  102.71    5.22
   2  -9  -6  100.97    5.12
  -2   9   6  104.09    5.15
   1  -9  -6   48.95    2.77
   1  -9  -6   49.48    2.90
   0  -9  -6    3.05    0.68
   0  -9  -6    2.90    0.60
  -1  -9  -6   91.46    4.67
  -1  -9  -6   91.07    4.51
  -2  -9  -6   50.31    2.99
  -2  -9  -6   55.98    2.91
  -3  -9  -6    1.25    0.43
  -3  -9  -6    2.46    0.51
  -4  -9  -6    5.74    0.91
  -4  -9  -6    6.86    0.90
  -5  -9  -6   82.34    4.51
  -5  -9  -6   93.85    4.48
  -6  -9  -6   66.58    3.53
  -6  -9  -6   64.16    3.61
  -7  -9  -6   24.16    1.86
  -7  -9  -6   27.03    1.84
  -8  -9  -6   76.54    4.14
  -9  -9  -6   11.07    1.31
   3 -10  -6   21.06    1.70
  -3  10   6   19.72    1.68
   2 -10  -6   13.07    1.42
   2 -10  -6   10.99    1.36
  -2  10   6   10.31    1.28
   1 -10  -6    4.35    0.79
   1 -10  -6    4.12    0.82
   0 -10  -6   85.52    4.31
   0 -10  -6   79.90    4.39
  -1 -10  -6   99.10    4.82
  -1 -10  -6   91.52    4.90
  -2 -10  -6    3.85    0.70
  -3 -10  -6   96.65    4.91
  -3 -10  -6   92.39    4.75
  -4 -10  -6   78.43    4.16
  -4 -10  -6   82.57    4.32
  -5 -10  -6    0.79    0.42
  -5 -10  -6    0.19    0.30
  -6 -10  -6    9.73    1.18
  -6 -10  -6    8.11    1.14
  -7 -10  -6   34.74    2.36
  -7 -10  -6   33.63    2.27
  -8 -10  -6   60.63    3.50
   2 -11  -6    7.67    1.15
   2 -11  -6    6.86    1.11
  -2  11   6    8.17    1.14
   1 -11  -6   12.62    1.45
   1 -11  -6   11.44    1.43
   0 -11  -6    8.17    1.21
   0 -11  -6    7.35    1.07
  -1 -11  -6    1.72    0.55
  -1 -11  -6    1.64    0.58
  -2 -11  -6   19.13    1.53
  -2 -11  -6   19.42    1.64
  -3 -11  -6   46.40    2.76
  -3 -11  -6   46.20    2.89
  -4 -11  -6   14.00    1.35
  -4 -11  -6   13.68    1.45
  -5 -11  -6   56.94    3.20
  -5 -11  -6   52.00    3.24
  -6 -11  -6   26.67    1.97
  -6 -11  -6   27.46    2.06
  -7 -11  -6    1.57    0.50
  -7 -11  -6    2.57    0.73
  -1 -12  -6   51.53    3.08
  -1 -12  -6   48.71    3.15
  -2 -12  -6    2.23    0.65
  -2 -12  -6    2.26    0.67
  -3 -12  -6   39.29    2.44
  -3 -12  -6   32.69    2.45
  -4 -12  -6   31.21    2.25
  -4 -12  -6   27.48    2.05
  -5 -12  -6   21.37    1.74
  -5 -12  -6   20.87    1.82
  -3 -10   7   27.07    2.25
  -2 -10   7   17.93    2.09
  -1 -10   7    0.32    0.43
  -6  -9   7   22.14    1.92
  -6  -9   7   19.58    5.63
  -5  -9   7    1.16    1.66
  -5  -9   7    2.10    0.74
  -4  -9   7   41.09    6.31
  -4  -9   7   39.67    2.81
  -3  -9   7   22.27    1.96
  -3  -9   7   20.81    5.25
  -2  -9   7    0.57    0.51
  -1  -9   7   65.43    3.98
   0  -9   7   59.07    3.70
   1  -9   7    7.16    1.21
   2  -9   7    1.69    0.68
   2  -9   7    3.82    0.94
  -7  -8   7    1.80    2.02
  -6  -8   7   11.81    1.53
  -6  -8   7   12.02    4.31
  -5  -8   7   21.34    1.80
  -5  -8   7   14.37    4.41
  -4  -8   7    6.65    1.13
  -4  -8   7    7.19    3.00
  -3  -8   7    2.47    1.96
  -3  -8   7    2.19    0.73
  -2  -8   7   40.04    5.52
  -2  -8   7   37.40    2.68
  -1  -8   7   29.42    2.28
   0  -8   7    1.56    0.62
   1  -8   7   71.86    4.22
   2  -8   7   70.37    4.33
   2  -8   7   83.04    4.51
   3  -8   7    2.52    0.78
   3  -8   7    1.75    0.63
   4  -8   7   32.19    2.55
  -8  -7   7   -0.37    1.24
  -7  -7   7   29.97    5.52
  -6  -7   7   35.59    5.79
  -5  -7   7    0.00    0.99
  -5  -7   7   -0.08    0.28
  -4  -7   7   67.41    7.57
  -4  -7   7   61.85    3.75
  -3  -7   7   43.77    5.81
  -3  -7   7   43.72    2.88
  -2  -7   7    4.19    2.21
  -2  -7   7    2.80    0.78
  -1  -7   7    1.92    0.65
  -1  -7   7    1.76    1.43
   0  -7   7   30.07    2.28
   1  -7   7   78.38    4.46
   2  -7   7    8.31    1.27
   2  -7   7   10.39    1.46
   3  -7   7   42.70    2.91
   3  -7   7   41.79    2.83
   4  -7   7  113.08    5.98
   4  -7   7  105.26    5.73
   5  -7   7    3.53    1.01
  -9  -6   7    8.04    3.60
  -8  -6   7   13.81    4.54
  -7  -6   7    3.02    2.12
  -6  -6   7    1.53    1.67
  -5  -6   7   16.11    1.52
  -5  -6   7   18.64    4.73
  -4  -6   7   94.12    5.03
  -4  -6   7   94.26    9.05
  -3  -6   7    3.07    0.76
  -3  -6   7    2.57    1.79
  -2  -6   7   53.02    6.05
  -2  -6   7   50.45    3.19
  -1  -6   7   65.81    3.81
  -1  -6   7   62.05    6.40
   0  -6   7   21.58    1.85
   0  -6   7   23.46    3.71
   1  -6   7   17.37    1.88
   1  -6   7   18.01    1.64
   2  -6   7   78.92    4.49
   2  -6   7   82.22    4.49
  -3   6  -7   25.03    2.14
   3  -6   7   24.40    2.00
   3  -6   7   22.83    1.91
   4  -6   7    4.37    0.95
   4  -6   7    7.22    1.28
   5  -6   7   17.02    1.95
   6  -6   7   73.51    4.52
  -9  -5   7   32.44    5.84
  -8  -5   7    8.99    3.61
  -7  -5   7   15.94    4.57
  -6  -5   7   48.26    5.35
  -6  -5   7   48.08    6.47
  -5  -5   7   20.15    3.27
  -5  -5   7   18.75    4.64
  -5  -5   7   21.29    1.69
  -4  -5   7   23.64    4.27
  -4  -5   7   27.58    2.01
  -3  -5   7   34.82    2.44
  -3  -5   7   34.58    4.92
  -3  -5   7   38.18    4.65
  -2  -5   7  116.53    7.62
  -2  -5   7  122.18    6.19
  -2  -5   7  122.83    9.79
  -1  -5   7    6.77    1.71
  -1  -5   7    6.47    2.38
  -1  -5   7    7.72    1.24
   0  -5   7  147.06   10.11
   0  -5   7  133.94    8.07
   0  -5   7  132.33    6.89
   1  -5   7   82.98    4.63
   1  -5   7   85.01    5.52
   2  -5   7   66.88    3.82
   2  -5   7   59.40    4.19
   2  -5   7   70.45    3.77
  -3   5  -7   42.23    2.83
   3  -5   7   45.72    2.91
   3  -5   7   45.73    2.90
   4  -5   7  118.64    6.07
   4  -5   7  116.71    6.16
  -5   5  -7   11.39    1.39
   5  -5   7   13.44    1.72
   5  -5   7    9.75    1.26
  -6   5  -7    1.10    0.72
   6  -5   7    0.67    0.54
   6  -5   7    1.22    0.63
   7  -5   7   16.27    2.57
   7  -5   7   18.12    2.24
  -9  -4   7    8.17    1.07
  -9  -4   7   11.90    4.05
  -8  -4   7   10.80    1.12
  -8  -4   7   10.71    3.88
   7   4  -7   90.76    4.29
  -7  -4   7   86.35    9.12
  -7  -4   7   87.29    4.29
   6   4  -7    5.26    0.64
  -6  -4   7    3.07    1.54
  -6  -4   7    4.46    2.30
   5   4  -7    6.32    0.70
  -5  -4   7    7.94    2.16
  -5  -4   7    6.97    1.03
  -5  -4   7   10.97    3.75
  -5  -4   7    8.63    2.39
   4   4  -7  118.81    5.58
  -4  -4   7  128.29    8.19
  -4  -4   7  127.46    6.27
  -4  -4   7  120.36    8.35
  -4  -4   7  127.71   10.56
   3   4  -7   89.44    4.24
  -3  -4   7   94.17    6.61
  -3  -4   7   87.81    8.39
  -3  -4   7   96.48    6.71
  -3  -4   7   97.97    5.02
   2   4  -7    5.57    0.56
  -2  -4   7    5.76    2.46
  -2  -4   7    4.73    0.98
  -2  -4   7    5.46    1.54
  -2  -4   7    5.06    1.56
   1   4  -7    2.74    0.37
  -1  -4   7    2.31    1.55
  -1  -4   7    2.28    1.08
  -1  -4   7    1.96    0.63
   0   4  -7   85.79    4.01
   0  -4   7   85.03    4.79
   0  -4   7   94.94    7.72
   0  -4   7   89.24    6.15
  -1   4  -7   67.54    3.13
   1  -4   7   61.41    3.81
   1  -4   7   65.48    4.94
   1  -4   7   71.25    6.18
  -2   4  -7   31.55    1.66
   2  -4   7   29.46    2.21
   2  -4   7   33.61    2.46
   2  -4   7   28.44    2.88
  -3   4  -7  140.54    7.24
  -3   4  -7  153.28    6.88
   3  -4   7  153.85    7.51
   3  -4   7  160.80    7.49
   3  -4   7  148.75    8.27
  -4   4  -7   76.26    3.80
  -4   4  -7   79.70    4.22
   4  -4   7   77.58    4.26
   4  -4   7   73.59    3.77
   4  -4   7   71.49    4.25
  -5   4  -7    3.62    0.68
   5  -4   7    3.09    0.67
   5  -4   7    5.02    1.07
  -6   4  -7   98.35    5.09
   6  -4   7  105.03    5.65
   6  -4   7  100.55    5.13
  -7   4  -7   16.67    1.53
   7  -4   7   19.73    1.67
   7  -4   7   17.58    2.12
  -8   4  -7    2.19    0.74
   8  -4   7    2.14    0.90
  -9  -3   7    4.50    0.77
  -9  -3   7    4.89    2.85
  -8  -3   7    0.51    0.37
  -8  -3   7   -0.21    1.22
   7   3  -7    0.12    0.23
  -7  -3   7    0.24    0.28
  -7  -3   7    0.53    1.27
   6   3  -7   18.03    1.16
  -6  -3   7   14.93    3.30
  -6  -3   7   15.16    4.17
   5   3  -7    1.00    0.28
  -5  -3   7    0.83    0.84
  -5  -3   7    0.81    0.45
  -5  -3   7    0.66    1.07
  -5  -3   7    0.45    0.77
   4   3  -7   32.35    1.76
  -4  -3   7   32.25    2.25
  -4  -3   7   33.97    3.55
  -4  -3   7   32.35    4.95
  -4  -3   7   33.93    3.79
   3   3  -7    1.34    0.29
  -3  -3   7    2.23    1.13
  -3  -3   7    1.26    0.56
  -3  -3   7    1.23    1.32
  -3  -3   7    2.14    1.14
   2   3  -7  240.45   12.73
   2   3  -7  222.91   10.04
  -2  -3   7  237.23   12.75
  -2  -3   7  223.86   12.69
  -2  -3   7  235.44   15.38
  -2  -3   7  231.15   10.88
   1   3  -7  265.35   11.95
   1   3  -7  268.33   14.36
  -1  -3   7  287.46   17.28
  -1  -3   7  274.70   12.84
  -1  -3   7  287.35   14.86
  -1  -3   7  284.77   14.62
   0   3  -7   13.12    2.03
   0   3  -7   10.70    0.75
   0  -3   7   12.02    2.05
   0  -3   7   13.91    1.65
   0  -3   7   11.48    3.19
   0  -3   7   12.05    2.04
  -1   3  -7  191.51    8.44
  -1   3  -7  186.88   11.27
   1  -3   7  221.45   13.08
   1  -3   7  178.17   10.93
   1  -3   7  189.19   10.99
   1  -3   7  201.21    9.36
   1  -3   7  190.18   10.14
  -2   3  -7   52.12    2.59
   2  -3   7   53.70    4.51
   2  -3   7   56.48    3.35
  -3   3  -7    0.55    1.14
  -3   3  -7    2.47    0.65
  -3   3  -7    1.76    0.49
  -3   3  -7    2.44    0.39
   3  -3   7    3.00    0.76
   3  -3   7    3.01    1.23
   3  -3   7    1.45    0.54
   3  -3   7    2.28    0.47
  -4   3  -7   30.14    1.66
  -4   3  -7   16.92    5.01
  -4   3  -7   28.41    1.72
   4  -3   7   35.27    2.30
   4  -3   7   29.43    2.86
   4  -3   7   32.37    2.23
   4  -3   7   28.07    1.74
  -5   3  -7   73.87    3.56
  -5   3  -7   70.05    3.72
   5  -3   7   73.35    4.10
   5  -3   7   72.13    3.75
   5  -3   7   77.01    4.29
  -6   3  -7  115.52    5.63
  -6   3  -7  109.87    5.37
   6  -3   7  115.19    5.66
   6  -3   7  121.26    6.23
  -7   3  -7    0.30    0.26
  -7   3  -7    1.05    0.51
   7  -3   7    1.03    1.04
  -8   3  -7   76.70    4.26
  -8   3  -7   78.22    3.95
  -9  -2   7   22.55    6.57
  -9  -2   7   31.02    1.95
   8   2  -7    2.83    0.59
  -8  -2   7    2.73    0.55
  -8  -2   7    3.07    2.17
   7   2  -7   15.30    1.15
  -7  -2   7   15.85    4.35
  -7  -2   7   15.72    1.18
   6   2  -7  134.07    6.14
  -6  -2   7  136.66   11.43
  -6  -2   7  131.22    9.65
   5   2  -7   26.57    1.56
  -5  -2   7   27.61    3.60
  -5  -2   7   28.58    4.71
   4   2  -7   17.67    1.14
  -4  -2   7   18.34    2.77
  -4  -2   7   19.36    2.70
  -4  -2   7   19.57    1.64
  -4  -2   7   22.26    5.10
   3   2  -7   48.01    2.47
   3   2  -7   49.92    4.57
  -3  -2   7   54.02    6.43
  -3  -2   7   52.48    4.50
  -3  -2   7   52.68    3.17
  -3  -2   7   51.04    4.65
   2   2  -7   42.95    2.18
   2   2  -7   44.02    4.08
  -2  -2   7   46.01    2.93
  -2  -2   7   40.63    3.97
  -2  -2   7   49.03    6.02
  -2  -2   7   47.43    4.26
   1   2  -7   20.17    2.63
   1   2  -7   20.17    1.15
  -1  -2   7   19.25    2.62
  -1  -2   7   22.69    1.86
  -1  -2   7   21.53    4.80
   0   2  -7   80.99    6.25
   0   2  -7   80.59    3.80
   0  -2   7   81.96    5.10
   0  -2   7   84.43    4.68
   0  -2   7   85.85    6.33
   0  -2   7   91.74    8.27
  -1   2  -7  245.05   15.03
  -1   2  -7  265.07   11.67
   1  -2   7  277.46   12.65
   1  -2   7  312.16   17.50
   1  -2   7  258.54   13.10
  -2   2  -7  133.08    6.19
  -2   2  -7  130.83    6.43
   2  -2   7  152.60    7.17
   2  -2   7  150.40   10.61
   2  -2   7  137.65    7.54
  -3   2  -7   75.94    3.89
  -3   2  -7   75.92    3.88
  -3   2  -7   82.72    3.71
   3  -2   7   78.84    3.81
   3  -2   7   80.12    4.45
  -4   2  -7  157.66    7.12
  -4   2  -7  165.82    7.23
   4  -2   7  149.72    9.39
   4  -2   7  163.73    7.89
   4  -2   7  159.69    7.23
  -5   2  -7    2.65    0.55
  -5   2  -7    2.70    0.45
   5  -2   7    3.16    1.27
   5  -2   7    3.97    0.66
   5  -2   7    2.36    0.71
  -6   2  -7    2.70    0.57
  -6   2  -7    1.99    0.43
   6  -2   7    1.71    1.17
  -7   2  -7   80.37    4.18
  -7   2  -7   78.59    3.94
  -8   2  -7   53.23    3.13
  -8   2  -7   51.82    2.86
  -9   2  -7    0.18    0.49
  -9   2  -7    0.12    0.32
  -9  -1   7    0.01    0.36
   8   1  -7    4.40    0.72
  -8  -1   7    2.93    0.61
  -8  -1   7    5.12    2.63
   7   1  -7   47.51    2.54
  -7  -1   7   45.43    2.53
   6   1  -7    1.63    0.39
  -6  -1   7    1.25    1.51
  -6  -1   7    2.38    1.44
   5   1  -7   59.99    3.00
  -5  -1   7   63.23    5.73
  -5  -1   7   58.52    7.08
   4   1  -7  127.05    5.69
  -4  -1   7  122.79   10.79
  -4  -1   7  119.59    6.28
  -4  -1   7  131.83    8.76
   3   1  -7   21.11    1.28
   3   1  -7   22.87    2.96
  -3  -1   7   25.67    3.13
  -3  -1   7   25.95    5.68
  -3  -1   7   22.80    1.88
   2   1  -7  158.29    9.71
   2   1  -7  154.71    7.02
  -2  -1   7  154.99   12.48
  -2  -1   7  165.02    9.92
  -2  -1   7  163.57    7.95
   1   1  -7   27.55    1.44
   1   1  -7   25.59    3.14
  -1  -1   7   29.11    3.35
  -1  -1   7   22.48    5.13
  -1  -1   7   26.77    2.13
   0   1  -7    7.84    2.20
   0   1  -7    8.42    0.62
   0  -1   7    9.23    1.39
   0  -1   7    9.81    2.37
   0  -1   7    8.69    1.43
   0  -1   7   11.61    3.75
  -1   1  -7    8.28    0.61
  -1   1  -7    6.42    1.12
  -1   1  -7    6.12    2.08
   1  -1   7   12.40    3.75
   1  -1   7    7.20    1.31
   1  -1   7    9.18    1.40
  -2   1  -7   51.26    2.64
  -2   1  -7   52.86    2.58
  -2   1  -7   55.39    4.00
   2  -1   7   57.06    6.56
   2  -1   7   54.24    3.60
   2  -1   7   53.12    3.39
  -3   1  -7  111.51    9.04
  -4   1  -7  110.51    5.10
  -4   1  -7  109.67    5.07
   4  -1   7  112.87    5.87
  -5   1  -7  218.43    9.85
  -5   1  -7  221.61    9.78
   5  -1   7  224.54   10.51
  -6   1  -7  169.39    7.65
  -6   1  -7  169.07    7.77
  -7   1  -7   25.99    1.82
  -7   1  -7   28.31    1.70
  -8   1  -7    9.36    1.19
  -8   1  -7    9.19    1.02
  -9   1  -7   35.93    2.44
  -9   1  -7   30.80    2.03
  -9   0   7   58.91    3.26
   8   0  -7   12.61    1.24
  -8   0   7   12.35    1.25
   7   0  -7    1.09    0.36
  -7   0   7    0.86    0.35
  -7   0   7    0.65    1.24
   6   0  -7   28.34    1.69
  -6   0   7   29.71    3.99
  -6   0   7   27.69    4.77
   5   0  -7   96.91    4.50
  -5   0   7   97.63    9.51
  -5   0   7   93.28    7.45
   4   0  -7   23.24    1.38
  -4   0   7   24.14    1.93
  -4   0   7   22.68    3.16
  -4   0   7   27.06    4.77
   3   0  -7   69.19    3.20
   3   0  -7   66.99    5.56
  -3   0   7   70.46    7.99
  -3   0   7   67.42    5.65
  -3   0   7   61.13    3.87
   2   0  -7  439.81   18.85
   2   0  -7  435.57   22.08
  -2   0   7  465.39   22.43
  -2   0   7  449.94   26.42
  -2   0   7  414.38   19.76
   1   0  -7  161.63   10.12
   1   0  -7  154.47    6.94
  -1   0   7  165.10   10.16
  -1   0   7  150.41    7.87
  -1   0   7  156.15   13.00
   0   0  -7   37.96    4.33
   0   0  -7   38.41    1.81
   0   0  -7   30.46    2.24
   0   0   7   34.05    3.88
   0   0   7   35.70    2.60
   0   0   7   35.69    2.64
   0   0   7   36.55    5.73
  -1   0  -7  411.74   16.75
  -1   0  -7  366.56   17.43
   1   0   7  397.04   17.89
   1   0   7  373.78   23.69
   1   0   7  402.22   17.86
  -2   0  -7   40.86    2.08
  -2   0  -7   47.13    2.19
  -2   0  -7   43.98    2.85
   2   0   7   41.78    2.96
   2   0   7   46.80    3.05
   2   0   7   41.46    5.99
  -3   0  -7    0.83    0.97
  -3   0  -7    2.65    0.43
  -3   0  -7    3.27    0.44
   3   0   7    2.90    1.95
   3   0   7    1.94    0.60
   3   0   7    2.75    0.79
  -4   0  -7   22.20    1.30
  -4   0  -7   22.43    1.29
  -4   0  -7   13.95    3.72
   4   0   7   19.27    4.80
   4   0   7   25.60    2.02
   4   0   7   23.31    1.92
  -5   0  -7  130.24    5.97
  -5   0  -7  127.41    5.99
   5   0   7  137.91    6.82
  -6   0  -7   24.92    1.59
  -6   0  -7   24.05    1.50
  -7   0  -7   22.43    1.48
  -7   0  -7   24.16    1.69
  -8   0  -7   91.55    4.66
  -8   0  -7  100.73    4.94
  -9   0  -7   35.20    2.17
  -9   0  -7   36.17    2.42
 -10   0  -7    2.88    0.79
 -10   0  -7    2.10    0.56
  -9   1   7    9.43    1.15
   8  -1  -7    0.11    0.30
  -8   1   7    0.33    0.34
   7  -1  -7   69.22    3.46
  -7   1   7   66.39    3.46
  -7   1   7   65.74    7.64
   6  -1  -7   45.37    2.49
  -6   1   7   45.10    5.08
  -6   1   7   54.00    6.81
   5  -1  -7   39.08    2.13
  -5   1   7   39.31    4.46
  -5   1   7   41.80    6.11
   4  -1  -7   34.99    3.98
   4  -1  -7   33.56    1.86
  -4   1   7   37.97    5.92
  -4   1   7   35.79    4.04
  -4   1   7   33.83    2.49
   3  -1  -7   18.23    1.12
   3  -1  -7   18.77    2.74
  -3   1   7   18.66    2.78
  -3   1   7   17.87    1.74
  -3   1   7   19.72    5.26
   2  -1  -7   72.67    3.35
   2  -1  -7   75.69    6.00
  -2   1   7   67.25    4.13
  -2   1   7   63.45    8.11
  -2   1   7   73.12    6.00
   1  -1  -7   70.22    3.11
   1  -1  -7   70.96    5.97
   1  -1  -7   54.56    3.36
  -1   1   7   64.96    3.83
  -1   1   7   62.25    7.98
  -1   1   7   67.39    5.81
  -1   1   7   65.12    3.93
  -1   1   7   70.59    3.50
   0  -1  -7  202.99    9.61
   0  -1  -7  219.34    9.16
   0  -1  -7  195.76    8.97
   0  -1  -7  222.26   13.46
   0   1   7  219.63   10.11
   0   1   7  221.55   10.19
   0   1   7  195.19   15.76
  -1  -1  -7   72.40    3.96
  -1  -1  -7   81.98    3.55
  -1  -1  -7   65.21    6.66
   1   1   7   78.35    4.44
   1   1   7   86.17    4.44
   1   1   7   68.25    8.32
  -2  -1  -7   26.30    1.40
  -2  -1  -7   28.93    2.22
   2   1   7   28.24    2.06
   2   1   7   20.81    1.96
   2   1   7   19.06    5.19
  -3  -1  -7  398.51   16.79
  -3  -1  -7  393.71   16.66
   3   1   7  414.80   17.65
   3   1   7  350.97   17.67
  -4  -1  -7  102.46    4.68
  -4  -1  -7  100.50    4.61
   4   1   7  107.04    5.40
   4   1   7   94.89    5.50
  -5  -1  -7   22.37    1.31
  -5  -1  -7   23.48    1.32
  -5  -1  -7   11.55    3.47
   5   1   7   22.28    1.92
   5   1   7   17.74    2.10
  -6  -1  -7   47.00    2.55
  -6  -1  -7   48.71    2.51
  -7  -1  -7   63.06    3.25
  -7  -1  -7   65.49    3.37
  -8  -1  -7   18.32    1.47
  -8  -1  -7   18.70    1.33
  -9  -1  -7   20.79    1.68
  -9  -1  -7   17.60    1.37
 -10  -1  -7   51.71    2.96
 -10  -1  -7   53.34    3.23
  -9   2   7    8.55    1.14
  -8   2   7    4.78    0.78
   7  -2  -7   15.59    1.19
  -7   2   7   14.06    1.17
   6  -2  -7    0.58    0.29
  -6   2   7    0.53    0.50
  -6   2   7    1.58    1.21
  -6   2   7    0.78    1.54
   5  -2  -7   64.53    3.32
  -5   2   7   67.47    8.17
  -5   2   7   67.13    6.12
  -5   2   7   72.09    3.64
   4  -2  -7  127.60    6.03
   4  -2  -7  138.65    9.26
  -4   2   7  128.61   12.17
  -4   2   7  133.94    6.23
  -4   2   7  137.55    9.29
   3  -2  -7   11.07    2.51
   3  -2  -7   12.82    0.87
  -3   2   7   15.01    4.87
  -3   2   7   12.71    2.71
  -3   2   7   12.60    1.65
  -3   2   7   12.77    0.97
   2  -2  -7  189.70   11.60
   2  -2  -7  190.42    8.33
  -2   2   7  203.36   11.88
  -2   2   7  153.82   14.59
  -2   2   7  191.62    8.35
  -2   2   7  199.48    9.22
  -2   2   7  189.87    8.49
   1  -2  -7  105.91    4.69
   1  -2  -7   88.10    4.71
   1  -2  -7  110.49    8.11
  -1   2   7  101.28    5.30
  -1   2   7   80.21    9.87
  -1   2   7  125.87    5.72
  -1   2   7  112.06    5.01
  -1   2   7  108.30    7.91
   0  -2  -7   39.91    2.09
   0  -2  -7   40.05    1.92
   0  -2  -7   36.48    4.60
   0   2   7   26.13    6.39
   0   2   7   37.40    2.44
  -1  -2  -7   94.83    4.77
  -1  -2  -7  102.83    4.54
   1   2   7  104.06    5.19
  -2  -2  -7  236.06   10.53
   2   2   7  264.22   11.54
   2   2   7  236.27   11.14
   2   2   7  238.26   11.91
  -3  -2  -7   84.92    3.72
  -3  -2  -7   79.77    3.83
   3   2   7   86.11    4.42
   3   2   7   91.63    4.77
   3   2   7   66.03    8.53
  -4  -2  -7    0.43    0.88
  -4  -2  -7    2.09    0.35
  -4  -2  -7    2.12    0.35
   4   2   7    3.02    0.82
   4   2   7    2.15    0.55
   4   2   7    3.37    2.46
  -5  -2  -7  265.83   11.28
  -5  -2  -7  253.43   11.28
   5   2   7  241.40   12.15
   5   2   7  267.96   11.93
  -6  -2  -7  122.06    5.56
  -6  -2  -7  121.78    5.52
   6   2   7  111.43    6.28
  -7  -2  -7    1.22    1.65
  -7  -2  -7    0.65    0.29
  -7  -2  -7    1.55    0.47
  -8  -2  -7   33.51    2.10
  -8  -2  -7   32.24    1.95
  -9  -2  -7   67.43    3.60
  -9  -2  -7   60.64    3.34
 -10  -2  -7    1.21    0.60
 -10  -2  -7    0.08    0.30
  -9   3   7   19.85    1.60
  -8   3   7    2.18    0.54
   7  -3  -7   23.47    1.63
  -7   3   7   26.88    1.71
   6  -3  -7   19.05    1.34
  -6   3   7   19.67    1.69
  -6   3   7   21.92    3.49
   5  -3  -7   18.84    1.26
  -5   3   7   21.01    1.57
  -5   3   7   15.75    3.29
  -5   3   7   21.69    5.84
   4  -3  -7    8.57    0.82
   4  -3  -7    8.23    2.27
  -4   3   7    8.22    3.78
  -4   3   7    7.88    2.27
  -4   3   7    8.23    0.98
   3  -3  -7   16.41    2.67
   3  -3  -7   16.20    1.05
  -3   3   7   16.61    2.70
  -3   3   7   15.93    1.14
  -3   3   7   14.68    5.13
   2  -3  -7  181.79    7.75
   2  -3  -7  156.80    8.04
   2  -3  -7  190.77   11.35
  -2   3   7  183.61    7.79
  -2   3   7  140.06   14.25
  -2   3   7  184.42    7.78
  -2   3   7  196.08   11.50
  -2   3   7  161.76    8.06
   1  -3  -7   56.02    2.65
   1  -3  -7   60.33    5.68
   1  -3  -7   51.74    2.97
  -1   3   7   53.42    2.99
  -1   3   7   58.07    2.61
  -1   3   7   38.06    6.86
  -1   3   7   59.64    5.54
   0  -3  -7  114.25    5.10
   0  -3  -7  113.65    5.51
   0  -3  -7  113.69    5.05
   0  -3  -7  108.44    8.90
   0   3   7  120.17    5.54
   0   3   7  119.93    4.96
   0   3   7   88.60   10.77
  -1  -3  -7  157.63    7.23
  -1  -3  -7  173.88    7.17
  -1  -3  -7  159.68    7.56
   1   3   7  137.41   13.68
   1   3   7  170.41    7.72
   1   3   7  163.74    7.57
  -2  -3  -7   21.40    1.26
  -2  -3  -7   23.24    1.62
  -2  -3  -7   25.62    1.18
  -2  -3  -7   14.73    3.75
   2   3   7   18.26    5.50
   2   3   7   23.26    1.60
  -3  -3  -7   17.30    1.07
  -3  -3  -7   16.74    1.37
  -3  -3  -7   18.50    1.01
   3   3   7   18.62    1.41
  -4  -3  -7   93.46    4.19
  -4  -3  -7   90.44    4.24
   4   3   7   89.84    4.67
  -5  -3  -7   42.32    6.00
  -6  -3  -7    3.33    2.26
  -6  -3  -7    9.41    0.81
  -6  -3  -7    8.05    0.79
   6   3   7   10.73    1.55
   6   3   7   11.11    2.06
  -7  -3  -7  106.91    5.02
  -7  -3  -7  100.58    4.90
  -8  -3  -7   83.46    4.27
  -8  -3  -7   84.50    4.15
  -9  -3  -7    4.09    0.67
  -9  -3  -7    3.42    0.73
 -10  -3  -7   41.41    2.61
 -10  -3  -7   36.42    2.32
  -8   4   7    1.16    0.50
   7  -4  -7   23.09    1.56
  -7   4   7   21.43    1.54
   6  -4  -7    7.38    0.90
  -6   4   7    9.49    1.01
   5  -4  -7   41.65    2.31
  -5   4   7   43.59    7.64
  -5   4   7   44.47    4.89
  -5   4   7   43.33    2.61
   4  -4  -7  103.03    7.80
   4  -4  -7  101.94    4.91
   4  -4  -7   98.94    4.69
  -4   4   7  100.71    7.77
  -4   4   7  103.80    4.96
  -4   4   7   85.22   10.57
  -4   4   7  102.39    4.87
   3  -4  -7    8.67    0.69
   3  -4  -7    7.45    0.69
   3  -4  -7    6.95    0.95
   3  -4  -7    8.42    2.28
  -3   4   7   10.38    2.56
  -3   4   7    7.58    0.79
  -3   4   7    9.07    4.30
  -3   4   7    8.49    0.93
   2  -4  -7   36.64    1.86
   2  -4  -7   37.01    4.19
   2  -4  -7   33.95    1.82
   2  -4  -7   35.95    2.16
  -2   4   7   40.06    4.36
  -2   4   7   26.66    7.25
  -2   4   7   36.70    1.95
  -2   4   7   31.26    1.80
  -2   4   7   37.74    1.85
   1  -4  -7   29.32    1.83
   1  -4  -7   28.25    3.82
   1  -4  -7   29.21    1.46
   1  -4  -7   27.61    1.50
  -1   4   7   25.52    1.52
  -1   4   7   29.50    1.47
  -1   4   7   18.01    5.80
  -1   4   7   26.07    3.62
  -1   4   7   28.05    1.52
   0  -4  -7  162.36    7.38
   0  -4  -7  151.69   11.23
   0  -4  -7  172.37    6.94
   0  -4  -7  158.04    6.99
   0   4   7  160.50    6.95
   0   4   7  163.88    7.35
   0   4   7  154.16    7.12
   0   4   7  123.69   13.72
  -1  -4  -7   24.52    1.28
  -1  -4  -7   25.76    1.27
  -1  -4  -7   24.00    1.31
  -1  -4  -7   22.71    1.59
  -1  -4  -7   15.54    3.95
   1   4   7   24.02    1.48
  -2  -4  -7  112.74    5.59
  -2  -4  -7  122.00    5.17
  -2  -4  -7  111.88    5.21
   2   4   7  117.42    5.51
  -3  -4  -7  196.14    8.45
  -3  -4  -7  197.73    8.40
  -3  -4  -7  185.16    8.83
   3   4   7  189.33    8.79
  -4  -4  -7   41.22    2.51
  -4  -4  -7   43.35    2.18
  -4  -4  -7   44.69    2.17
   4   4   7   40.60    2.49
  -5  -4  -7   68.36    3.27
  -5  -4  -7   61.85    3.59
  -5  -4  -7   69.54    3.27
   5   4   7   67.51    3.68
  -6  -4  -7  121.15    5.53
  -6  -4  -7  120.42    5.49
   6   4   7  114.49    5.97
  -7  -4  -7   52.45    2.81
  -7  -4  -7   51.80    2.72
  -8  -4  -7   16.17    1.28
  -8  -4  -7   14.18    1.12
  -9  -4  -7   20.36    1.49
  -9  -4  -7   23.51    1.69
 -10  -4  -7   81.15    4.24
 -10  -4  -7   85.50    4.50
  -8   5   7   22.43    1.68
  -7   5   7   30.11    1.93
   6  -5  -7   16.79    1.26
  -6   5   7   17.20    1.28
   5  -5  -7  113.08    5.71
   5  -5  -7  114.48    5.36
  -5   5   7  113.36    8.73
  -5   5   7  116.23    5.76
  -5   5   7  112.61    5.57
   4  -5  -7   75.55    3.64
   4  -5  -7   72.23    6.42
   4  -5  -7   74.19    3.75
  -4   5   7   80.31    3.81
  -4   5   7   64.19    9.44
  -4   5   7   77.59    3.97
  -4   5   7   72.43    6.44
   3  -5  -7   21.91    1.54
   3  -5  -7   20.64    1.31
   3  -5  -7   21.55    3.14
   3  -5  -7   19.71    1.24
  -3   5   7   19.58    1.30
  -3   5   7   18.49    1.40
  -3   5   7   14.92    5.51
  -3   5   7   20.54    3.12
   2  -5  -7  321.86   13.91
   2  -5  -7  317.42   17.71
   2  -5  -7  316.59   14.27
   2  -5  -7  327.26   13.96
  -2   5   7  322.10   17.84
  -2   5   7  324.90   14.11
  -2   5   7  320.17   13.96
   1  -5  -7   11.11    0.78
   1  -5  -7   14.15    3.34
   1  -5  -7   10.68    1.00
   1  -5  -7   11.41    0.80
  -1   5   7   11.16    0.88
  -1   5   7   12.49    3.03
  -1   5   7    6.29    3.89
   0  -5  -7   10.20    0.72
   0  -5  -7   10.75    3.07
   0  -5  -7   10.53    0.73
   0  -5  -7   10.16    0.96
   0   5   7   11.04    5.00
   0   5   7    9.83    0.69
  -1  -5  -7   35.70    2.11
  -1  -5  -7   37.98    1.81
  -1  -5  -7   32.94    1.77
  -1  -5  -7   27.25    4.40
   1   5   7   35.81    1.89
  -2  -5  -7  164.58    7.02
  -2  -5  -7  148.02    6.98
  -2  -5  -7  158.23    7.38
   2   5   7  162.83    7.23
  -3  -5  -7   86.65    3.90
  -3  -5  -7   84.23    4.24
  -3  -5  -7   80.80    3.87
   3   5   7   82.47    4.15
  -4  -5  -7    0.38    0.96
  -4  -5  -7    0.53    0.36
  -4  -5  -7    0.78    0.25
  -4  -5  -7    0.44    0.22
   4   5   7    0.44    0.26
  -5  -5  -7  163.46    7.35
  -5  -5  -7  163.22    7.74
  -5  -5  -7  167.14    7.39
   5   5   7  162.07    7.78
  -6  -5  -7   81.27    3.90
  -6  -5  -7   75.93    4.18
  -6  -5  -7   76.86    3.81
   6   5   7   82.05    4.33
  -7  -5  -7   41.09    2.25
  -7  -5  -7   41.34    2.16
  -7  -5  -7   28.39    4.70
  -8  -5  -7  102.97    4.96
  -8  -5  -7  104.05    5.11
  -9  -5  -7    2.57    0.56
  -9  -5  -7    4.13    0.78
 -10  -5  -7    0.14    0.36
 -10  -5  -7    0.40    0.35
  -7   6   7   17.45    1.39
   6  -6  -7    8.33    0.99
  -6   6   7   10.13    1.07
   5  -6  -7    0.69    0.34
   5  -6  -7    0.47    0.40
  -5   6   7    0.43    0.40
   4  -6  -7   32.34    1.80
   4  -6  -7   29.47    1.91
  -4   6   7   32.63    1.98
  -4   6   7   30.68    2.12
  -4   6   7   28.62    3.88
   3  -6  -7   32.21    1.84
   3  -6  -7   28.54    1.96
   3  -6  -7   30.95    3.87
   3  -6  -7   30.10    1.70
  -3   6   7   29.27    3.82
  -3   6   7   31.63    1.85
  -3   6   7   21.54    7.04
  -3   6   7   30.56    2.00
   2  -6  -7   81.69    3.89
   2  -6  -7   79.44    6.72
   2  -6  -7   82.83    3.78
   2  -6  -7   78.00    4.11
  -2   6   7   85.98    3.93
  -2   6   7   56.17    9.66
  -2   6   7   80.43    6.81
  -2   6   7   80.28    4.10
   1  -6  -7    1.84    0.35
   1  -6  -7    2.60    1.42
   1  -6  -7    2.27    0.43
   1  -6  -7    2.15    0.51
  -1   6   7    0.33    1.94
  -1   6   7    2.28    1.39
   0  -6  -7  219.80   14.56
   0  -6  -7  237.71   10.29
   0  -6  -7  247.09    9.98
   0  -6  -7  231.33    9.86
   0   6   7  186.08   13.38
   0   6   7  225.68    9.77
  -1  -6  -7  103.58    4.57
  -1  -6  -7   77.28    8.17
  -1  -6  -7   98.82    4.47
  -1  -6  -7  102.08    4.88
   1   6   7  101.06    4.55
  -2  -6  -7   49.15    2.80
  -2  -6  -7   53.76    2.56
  -2  -6  -7   47.81    2.44
   2   6   7   51.55    2.64
  -3  -6  -7  228.36    9.87
  -3  -6  -7  225.06   10.19
  -3  -6  -7  220.64    9.78
   3   6   7  222.59   10.07
  -4  -6  -7  142.06    6.86
  -4  -6  -7  144.53    6.56
  -4  -6  -7  144.48    6.47
   4   6   7  147.05    6.86
  -5  -6  -7    4.43    0.78
  -5  -6  -7    4.66    0.63
  -5  -6  -7    3.51    0.49
  -5  -6  -7    1.17    1.51
   5   6   7    4.92    0.79
  -6  -6  -7   25.09    1.83
  -6  -6  -7   25.67    1.62
  -6  -6  -7   25.57    1.53
   6   6   7   25.78    1.91
  -7  -6  -7   88.70    4.27
  -7  -6  -7   90.23    4.42
  -7  -6  -7   86.30    4.69
  -8  -6  -7   64.85    3.40
  -8  -6  -7   69.20    3.59
  -9  -6  -7    4.85    0.76
  -9  -6  -7    3.75    0.79
 -10  -6  -7   52.85    2.86
 -10  -6  -7   48.07    3.02
   5  -7  -7   40.10    2.51
  -5   7   7   38.62    2.50
   4  -7  -7   42.75    2.51
  -4   7   7   41.99    2.51
   3  -7  -7    7.03    0.90
   3  -7  -7    5.41    0.88
  -3   7   7    6.52    0.88
   2  -7  -7   37.20    2.15
   2  -7  -7   40.08    4.49
   2  -7  -7   41.98    2.45
   2  -7  -7   36.64    2.32
  -2   7   7   35.82    2.15
  -2   7   7   23.52    7.80
  -2   7   7   40.13    4.52
   1  -7  -7   85.89    4.12
   1  -7  -7   86.00    4.01
   1  -7  -7   84.95    4.36
   1  -7  -7   91.38    7.46
  -1   7   7   84.50    7.23
  -1   7   7   66.97   10.82
   0  -7  -7  123.26    5.79
   0  -7  -7  121.25    5.33
   0  -7  -7  116.04    9.44
   0  -7  -7  121.72    5.50
   0   7   7  118.51    5.25
   0   7   7  102.13    8.67
  -1  -7  -7    2.09    0.44
  -1  -7  -7    2.98    0.62
  -1  -7  -7    2.98    1.96
  -1  -7  -7    2.10    0.36
   1   7   7    2.75    0.42
  -2  -7  -7  239.68   10.77
  -2  -7  -7  249.23   11.25
  -2  -7  -7  256.32   10.97
   2   7   7  249.40   11.00
  -3  -7  -7   47.73    2.44
  -3  -7  -7   53.85    2.63
  -3  -7  -7   47.54    2.81
   3   7   7   50.34    2.73
  -4  -7  -7    1.65    0.34
  -4  -7  -7    1.19    0.41
  -4  -7  -7    1.06    0.34
  -4  -7  -7    0.55    1.22
   4   7   7    1.17    0.41
  -5  -7  -7   73.85    3.92
  -5  -7  -7   70.77    3.51
  -5  -7  -7   72.34    3.67
   5   7   7   76.74    3.99
  -6  -7  -7   68.81    3.65
  -6  -7  -7   61.37    3.20
  -6  -7  -7   67.74    3.40
   6   7   7   63.72    3.70
  -7  -7  -7    1.16    0.49
  -7  -7  -7    0.32    0.29
  -7  -7  -7    0.98    0.36
   7   7   7    1.03    0.43
  -8  -7  -7    0.84    0.39
  -8  -7  -7    1.91    0.45
  -9  -7  -7   34.42    2.05
  -9  -7  -7   32.84    2.23
 -10  -7  -7   13.85    1.51
 -10  -7  -7   13.14    1.34
   5  -8  -7   40.39    2.59
  -5   8   7   36.37    2.54
   4  -8  -7    0.74    0.43
  -4   8   7    1.02    0.48
   3  -8  -7   31.60    2.03
  -3   8   7   31.80    2.06
   2  -8  -7   77.68    3.91
   2  -8  -7   77.45    4.10
  -2   8   7   79.03    3.94
  -2   8   7   54.27   12.40
   1  -8  -7    0.22    0.29
   1  -8  -7    0.62    0.32
  -1   8   7    0.30    2.27
   0  -8  -7   45.46    2.47
   0  -8  -7   43.95    2.66
   0   8   7   44.09    2.20
  -1  -8  -7   18.25    4.37
  -1  -8  -7   22.80    1.65
  -1  -8  -7   22.99    1.46
   1   8   7   21.81    1.35
  -2  -8  -7  101.48    5.14
  -2  -8  -7  103.37    4.91
   2   8   7  102.89    4.91
  -3  -8  -7    1.42    0.46
  -3  -8  -7    1.21    0.37
  -3  -8  -7    1.43    1.58
   3   8   7    1.30    0.39
  -4  -8  -7   83.92    4.42
  -4  -8  -7   86.42    4.20
   4   8   7   84.71    4.38
  -5  -8  -7  101.66    5.17
  -5  -8  -7  101.92    4.95
   5   8   7  101.97    5.51
  -6  -8  -7   11.52    1.33
  -6  -8  -7   10.56    0.99
  -7  -8  -7   71.84    3.85
  -7  -8  -7   75.84    4.11
  -8  -8  -7  125.56    6.17
  -9  -8  -7    4.84    0.87
   4  -9  -7   12.39    1.46
  -4   9   7   12.01    1.47
   3  -9  -7   11.95    1.31
  -3   9   7   11.81    1.35
   2  -9  -7   11.58    1.39
   2  -9  -7   13.13    1.16
  -2   9   7   11.05    1.24
   1  -9  -7   32.54    2.03
   1  -9  -7   31.51    2.18
   0  -9  -7   92.64    4.73
   0  -9  -7  100.61    5.03
  -1  -9  -7    6.36    0.83
  -1  -9  -7    5.07    0.86
  -2  -9  -7   12.00    1.17
  -2  -9  -7   12.45    1.06
  -3  -9  -7   82.99    4.35
  -3  -9  -7   80.37    4.10
  -4  -9  -7   11.88    1.34
  -4  -9  -7    7.81    3.43
  -4  -9  -7   12.88    1.08
  -5  -9  -7    1.28    0.51
  -5  -9  -7    0.89    0.36
  -5  -9  -7    2.43    2.14
  -6  -9  -7   19.02    1.45
  -6  -9  -7   18.05    1.56
  -7  -9  -7   44.90    2.81
  -7  -9  -7   41.51    2.58
  -8  -9  -7    6.72    0.98
  -9  -9  -7    1.36    0.51
   3 -10  -7    3.21    0.73
  -3  10   7    3.33    0.77
   2 -10  -7   32.17    2.29
   2 -10  -7   30.36    2.09
  -2  10   7   30.48    2.12
   1 -10  -7   26.53    1.86
   1 -10  -7   26.55    2.02
   0 -10  -7    3.76    0.71
   0 -10  -7    5.20    0.96
  -1 -10  -7   15.79    1.30
  -1 -10  -7   16.00    1.45
  -2 -10  -7   55.98    3.09
  -2 -10  -7   56.10    3.31
  -3 -10  -7   44.26    2.82
  -3 -10  -7   47.02    2.68
  -4 -10  -7    7.72    1.12
  -4 -10  -7    6.85    0.95
  -5 -10  -7   81.01    4.42
  -5 -10  -7   81.28    4.23
  -6 -10  -7   31.81    2.26
  -6 -10  -7   30.81    2.09
  -7 -10  -7    1.17    0.46
  -7 -10  -7    1.07    0.52
  -8 -10  -7   10.11    1.31
   1 -11  -7    3.27    0.86
   1 -11  -7    3.05    0.76
   0 -11  -7   45.60    2.94
   0 -11  -7   43.89    2.71
  -1 -11  -7   16.50    1.56
  -1 -11  -7   18.70    1.49
  -2 -11  -7    1.84    0.55
  -2 -11  -7    2.43    0.73
  -3 -11  -7    9.34    1.16
  -3 -11  -7    8.91    1.31
  -4 -11  -7   34.52    2.47
  -4 -11  -7   39.20    2.41
  -5 -11  -7   22.27    1.84
  -5 -11  -7   21.40    1.68
  -6 -11  -7    0.08    0.34
  -6 -11  -7    0.29    0.41
  -7 -11  -7   93.16    4.96
  -7 -11  -7   95.34    5.17
  -1 -12  -7    2.58    0.74
  -1 -12  -7    2.14    0.69
  -2 -12  -7   61.98    3.51
  -2 -12  -7   59.27    3.69
  -3 -12  -7   96.87    5.34
  -3 -12  -7  100.71    5.15
  -4 -12  -7    1.20    0.52
  -4 -12  -7    0.88    0.51
  -4  -9   8    0.38    1.48
  -4  -9   8    2.02    0.73
  -3  -9   8    1.74    0.69
  -3  -9   8    3.58    2.55
  -2  -9   8   53.19    3.56
  -1  -9   8   14.24    1.85
   0  -9   8   14.84    1.93
   1  -9   8   69.08    4.27
  -6  -8   8   11.06    4.37
  -6  -8   8   13.45    1.94
  -5  -8   8   14.84    4.66
  -5  -8   8   12.10    1.65
  -4  -8   8   25.28    6.03
  -4  -8   8   25.78    2.19
  -3  -8   8    7.17    1.27
  -3  -8   8    6.77    2.94
  -2  -8   8    0.23    0.41
  -2  -8   8    0.61    1.22
  -1  -8   8   32.78    2.54
   0  -8   8   31.20    2.49
   1  -8   8   31.37    2.48
   2  -8   8    0.14    0.46
   3  -8   8   57.99    3.72
  -7  -7   8    3.42    2.47
  -6  -7   8    0.37    1.14
  -5  -7   8   34.14    5.81
  -5  -7   8   34.54    2.53
  -4  -7   8   23.62    2.05
  -4  -7   8   27.34    4.96
  -3  -7   8    8.45    3.35
  -3  -7   8    6.64    1.18
  -2  -7   8   47.74    3.15
  -2  -7   8   43.18    5.89
  -1  -7   8   27.16    4.58
  -1  -7   8   27.36    2.24
   0  -7   8    2.88    0.81
   1  -7   8   48.83    3.28
   2  -7   8   19.10    2.18
   3  -7   8    8.56    1.34
   4  -7   8    0.40    0.47
  -8  -6   8    0.65    1.75
  -7  -6   8   10.50    3.98
  -6  -6   8   10.41    3.90
  -5  -6   8    3.87    0.90
  -5  -6   8    4.63    2.73
  -4  -6   8    0.25    0.43
  -4  -6   8    0.08    0.96
  -3  -6   8   29.11    2.27
  -3  -6   8   27.61    4.71
  -2  -6   8   66.03    3.92
  -2  -6   8   59.78    6.88
  -1  -6   8    2.53    1.70
  -1  -6   8    2.92    0.80
   0  -6   8   88.03    4.99
   1  -6   8   83.69    4.79
   2  -6   8    0.77    0.49
   3  -6   8   35.93    2.62
   4  -6   8   34.81    2.56
  -8  -5   8    3.66    2.63
  -7  -5   8   55.82    7.62
  -6  -5   8    8.76    3.56
  -5  -5   8   78.83    8.68
  -5  -5   8   75.03    4.30
  -4  -5   8  101.22    5.51
  -4  -5   8  105.64   10.00
  -3  -5   8    5.58    2.55
  -3  -5   8    9.83    1.42
  -2  -5   8   10.79    3.53
  -2  -5   8   12.46    1.61
  -1  -5   8   49.84    5.95
  -1  -5   8   49.57    3.27
   0  -5   8   64.75    6.56
   0  -5   8   62.35    3.87
   1  -5   8    1.31    0.61
   2  -5   8   65.06    3.95
   3  -5   8  122.62    6.45
   4  -5   8   16.21    1.85
  -9  -4   8    9.91    1.14
  -9  -4   8   10.59    4.16
  -8  -4   8    0.14    0.31
  -8  -4   8    1.18    1.69
   7   4  -8   14.59    1.11
  -7  -4   8   12.03    4.18
  -7  -4   8   13.74    1.12
   6   4  -8    0.49    0.28
  -6  -4   8    0.06    1.02
  -6  -4   8    0.50    0.93
   5   4  -8   36.49    2.04
  -5  -4   8   34.72    5.61
  -5  -4   8   39.64    4.59
  -5  -4   8   41.63    2.66
   4   4  -8   22.85    1.36
  -4  -4   8   22.64    1.93
  -4  -4   8   23.32    3.14
  -4  -4   8   23.69    3.31
  -4  -4   8   21.94    5.18
   3   4  -8   41.33    2.14
  -3  -4   8   42.31    4.28
  -3  -4   8   42.24    4.27
  -3  -4   8   41.98    5.85
  -3  -4   8   41.05    2.85
   2   4  -8  166.37    7.75
  -2  -4   8  189.51   13.50
  -2  -4   8  179.92    8.74
  -2  -4   8  174.27   10.67
   1   4  -8    5.04    0.62
  -1  -4   8    5.85    1.16
  -1  -4   8    4.22    2.20
  -1  -4   8    2.98    1.33
   0  -4   8    0.48    0.93
   0  -4   8    0.26    0.57
   0  -4   8    0.20    0.41
   1  -4   8   98.64    9.15
   1  -4   8  109.49    8.67
   1  -4   8  103.62    5.68
   2  -4   8  115.31    6.15
   3  -4   8    0.55    0.45
   4  -4   8   25.79    2.12
   5  -4   8  145.38    7.67
  -9  -3   8   19.96    1.53
  -9  -3   8   17.67    5.01
   8   3  -8   81.07    4.23
  -8  -3   8   87.42    4.30
  -8  -3   8   87.57    9.64
   7   3  -8   53.56    2.84
  -7  -3   8   58.35    7.49
  -7  -3   8   50.68    2.83
   6   3  -8   18.58    1.23
  -6  -3   8   19.13    4.96
  -6  -3   8   14.38    3.36
   5   3  -8    3.15    0.50
  -5  -3   8    3.59    2.26
  -5  -3   8    3.32    1.57
  -5  -3   8    3.40    0.80
   4   3  -8   59.18    2.87
  -4  -3   8   58.45    3.55
  -4  -3   8   57.14    5.40
  -4  -3   8   55.91    5.10
  -4  -3   8   59.14    7.21
   3   3  -8    8.69    0.70
  -3  -3   8    9.01    1.34
  -3  -3   8    9.37    2.33
  -3  -3   8    9.01    2.29
  -3  -3   8   10.35    3.49
   2   3  -8   65.54    5.37
   2   3  -8   60.08    3.04
  -2  -3   8   66.47    5.55
  -2  -3   8   67.63    7.47
  -2  -3   8   65.64    3.93
  -2  -3   8   62.18    5.34
   1   3  -8   24.21    1.38
   1   3  -8   23.12    2.94
  -1  -3   8   23.92    3.16
  -1  -3   8   25.63    2.13
  -1  -3   8   27.93    4.57
  -1  -3   8   26.21    3.17
   0   3  -8  253.01   11.32
   0   3  -8  256.12   14.27
   0  -3   8  245.64   13.08
   0  -3   8  261.18   12.38
   0  -3   8  253.32   14.45
   0  -3   8  284.07   17.27
   0  -3   8  278.73   14.60
  -1   3  -8   35.38    1.85
   1  -3   8   34.75    3.83
   1  -3   8   36.34    4.87
   1  -3   8   35.66    2.62
  -2   3  -8    9.24    0.74
   2  -3   8    9.29    2.29
   2  -3   8   10.99    1.53
  -3   3  -8  116.63    5.33
   3  -3   8  116.10    6.20
  -4   3  -8  121.86    5.60
   4  -3   8  121.33    6.39
  -5   3  -8    0.65    0.29
   5  -3   8    0.67    0.48
  -6   3  -8   14.76    1.13
  -7   3  -8   23.90    1.59
  -8   3  -8   24.82    1.71
  -9  -2   8    3.68    0.73
  -9  -2   8    3.48    2.56
   8   2  -8   36.86    2.19
  -8  -2   8   38.05    2.23
  -8  -2   8   32.02    5.69
   7   2  -8    7.28    0.90
  -7  -2   8    8.51    3.55
   6   2  -8   11.17    0.93
  -6  -2   8   13.98    4.32
  -6  -2   8   11.43    3.03
   5   2  -8   46.12    2.34
  -5  -2   8   42.62    6.25
  -5  -2   8   41.72    4.75
   4   2  -8   66.11    3.18
  -4  -2   8   61.32    5.71
  -4  -2   8   66.84    7.85
  -4  -2   8   65.82    3.88
   3   2  -8    2.73    1.28
   3   2  -8    2.41    0.42
  -3  -2   8    2.67    2.07
  -3  -2   8    2.59    0.81
  -3  -2   8    2.18    1.23
  -3  -2   8    2.46    1.29
   2   2  -8   80.30    3.79
   2   2  -8   82.92    6.34
  -2  -2   8   83.65    8.73
  -2  -2   8   83.62    6.46
  -2  -2   8   79.29    4.67
  -2  -2   8   78.26    6.23
   1   2  -8   35.42    1.85
   1   2  -8   33.10    3.74
  -1  -2   8   33.35    5.28
  -1  -2   8   36.68    3.97
  -1  -2   8   37.95    2.70
   0   2  -8   21.37    3.04
   0   2  -8   18.44    1.19
   0  -2   8   20.14    2.22
   0  -2   8   23.27    3.15
   0  -2   8   22.51    2.00
   0  -2   8   28.30    4.65
  -1   2  -8    2.75    0.40
  -1   2  -8    1.57    1.10
   1  -2   8    3.33    1.07
   1  -2   8    3.01    0.84
   1  -2   8    3.23    2.07
  -2   2  -8  226.78    9.98
   2  -2   8  255.84   15.84
   2  -2   8  180.42   13.05
   2  -2   8  240.87   11.10
  -3   2  -8   10.22    3.34
  -4   2  -8   17.64    1.21
   4  -2   8   22.44    1.90
  -5   2  -8  125.09    5.86
   5  -2   8  129.22    6.63
  -6   2  -8  131.20    6.10
  -7   2  -8    0.66    0.34
  -8   2  -8   23.02    1.60
  -9  -1   8    1.85    0.56
   8   1  -8    0.75    0.35
  -8  -1   8    0.68    1.49
  -8  -1   8    1.16    0.45
   7   1  -8    1.93    0.49
  -7  -1   8    0.48    1.50
   6   1  -8   20.61    1.38
  -6  -1   8   20.83    5.22
  -6  -1   8   20.55    3.48
   5   1  -8   36.45    1.98
  -5  -1   8   37.54    5.92
  -5  -1   8   32.54    4.18
   4   1  -8    0.45    0.24
  -4  -1   8    1.20    1.61
  -4  -1   8    0.38    0.68
  -4  -1   8    0.27    0.40
   3   1  -8  101.56    7.63
   3   1  -8  104.89    4.89
  -3  -1   8  114.63   10.72
  -3  -1   8  107.28    5.79
  -3  -1   8  107.60    7.88
   2   1  -8  197.10   12.20
   2   1  -8  204.49    9.19
  -2  -1   8  211.66   12.55
  -2  -1   8  213.10   10.26
  -2  -1   8  228.58   16.30
   1   1  -8    4.02    0.50
   1   1  -8    5.78    1.92
  -1  -1   8    3.56    0.99
  -1  -1   8    4.68    1.73
  -1  -1   8    5.45    1.12
  -1  -1   8    4.02    2.38
   0   1  -8  212.24   12.98
   0   1  -8  200.79    9.12
   0  -1   8  236.44   16.36
   0  -1   8  203.64   12.64
   0  -1   8  218.34   10.34
   0  -1   8  193.31   10.45
  -1   1  -8  112.12    5.21
  -1   1  -8  107.09    8.82
   1  -1   8  135.20   11.42
   1  -1   8  121.91    6.36
   1  -1   8  109.75    6.47
  -2   1  -8   17.61    1.06
  -2   1  -8   10.91    3.16
   2  -1   8   20.32    4.99
   2  -1   8   14.74    1.90
   2  -1   8   17.41    1.89
  -3   1  -8   18.62    1.18
   3  -1   8   23.88    5.36
   3  -1   8   19.40    1.87
   3  -1   8   18.65    1.95
  -4   1  -8   -0.12    0.80
  -4   1  -8    0.28    1.10
  -4   1  -8    2.26    0.41
   4  -1   8    1.42    0.60
  -5   1  -8   81.02    3.93
   5  -1   8   82.36    4.72
  -6   1  -8   14.33    1.08
  -7   1  -8   74.27    3.75
  -8   1  -8   75.71    3.88
  -9   1  -8    9.82    1.11
  -9   0   8   11.99    1.36
   8   0  -8   25.40    1.72
  -8   0   8   25.74    1.74
   7   0  -8   40.13    2.28
  -7   0   8   38.63    6.10
   6   0  -8    8.16    0.90
  -6   0   8    9.91    3.59
  -6   0   8    7.10    3.29
   5   0  -8    2.38    0.45
  -5   0   8    2.80    1.48
  -5   0   8    3.63    2.59
   4   0  -8  157.68   10.45
   4   0  -8  159.97    7.06
  -4   0   8  164.35   13.67
  -4   0   8  154.02   10.44
  -4   0   8  148.33    7.83
   3   0  -8   19.20    1.17
   3   0  -8   16.49    2.70
  -3   0   8   16.63    1.97
  -3   0   8   23.66    5.98
  -3   0   8   18.76    2.93
   2   0  -8    1.53    0.32
   2   0  -8    1.11    0.93
  -2   0   8    2.18    1.21
  -2   0   8    0.79    0.50
  -2   0   8    1.71    1.82
   1   0  -8   46.15    4.78
   1   0  -8   41.76    2.19
  -1   0   8   39.97    3.05
  -1   0   8   48.98    7.01
  -1   0   8   45.45    4.75
  -1   0   8   43.31    3.10
   0   0  -8  179.66   11.72
   0   0  -8  172.76    7.52
   0   0   8  178.61   14.54
   0   0   8  162.82   11.02
   0   0   8  161.29    8.66
   0   0   8  169.61    8.65
  -1   0  -8    9.46    2.97
  -1   0  -8    9.06    0.70
   1   0   8   10.72    1.69
   1   0   8    8.72    3.61
   1   0   8    8.82    1.45
  -2   0  -8   77.60    3.71
   2   0   8   81.46    4.76
   2   0   8   82.28    4.78
   2   0   8   73.94    8.73
  -3   0  -8  469.24   20.04
   3   0   8  423.50   27.16
   3   0   8  492.45   21.26
   3   0   8  478.08   21.26
  -4   0  -8   10.42    0.78
  -4   0  -8    3.91    2.13
   4   0   8    7.47    1.40
   4   0   8   13.27    1.82
  -5   0  -8   62.39    3.11
   5   0   8   61.83    3.92
  -7   0  -8   16.16    4.81
  -8   0  -8   -0.09    0.26
  -9   0  -8   35.45    2.20
  -9   1   8    0.66    0.47
   8  -1  -8    9.69    1.08
  -8   1   8    7.66    1.00
   7  -1  -8   21.28    1.47
  -7   1   8   20.53    5.14
   6  -1  -8   17.36    1.24
  -6   1   8   16.43    4.87
   5  -1  -8   31.21    1.77
  -5   1   8   30.98    6.81
  -5   1   8   28.38    3.93
   4  -1  -8   35.38    1.96
   4  -1  -8   40.85    4.49
  -4   1   8   31.03    2.58
  -4   1   8   43.78    6.71
  -4   1   8   35.49    4.28
   3  -1  -8    3.33    0.51
   3  -1  -8    2.43    1.29
  -3   1   8    2.86    2.16
  -3   1   8    2.65    1.38
  -3   1   8    3.32    0.98
   2  -1  -8  118.55    5.29
   2  -1  -8  119.89    8.54
  -2   1   8  107.86   11.43
  -2   1   8  119.76    8.63
  -2   1   8  109.69    6.22
   1  -1  -8   79.96    6.87
   1  -1  -8   79.12    3.71
  -1   1   8   71.75    4.59
  -1   1   8   86.05    7.01
  -1   1   8   84.76    9.78
  -1   1   8   76.36    4.57
   0  -1  -8    0.84    0.98
   0  -1  -8    0.75    0.26
   0   1   8    0.38    0.48
   0   1   8    0.18    0.73
   0   1   8    0.81    0.45
   0   1   8    1.49    1.81
  -1  -1  -8   18.67    4.26
  -1  -1  -8   26.67    1.40
   1   1   8   22.36    2.09
   1   1   8   25.33    6.45
   1   1   8   25.31    2.09
  -2  -1  -8  169.39    7.13
   2   1   8  162.99    8.25
   2   1   8  173.01    8.13
   2   1   8  122.13   12.68
  -3  -1  -8  138.12    5.93
   3   1   8  131.49    7.00
   3   1   8  138.11    6.83
   3   1   8  106.31   11.34
  -4  -1  -8   70.71    3.35
   4   1   8   49.82    7.39
   4   1   8   69.78    4.31
   4   1   8   77.41    4.18
  -5  -1  -8  100.52    9.83
  -6  -1  -8   47.04    2.47
   6   1   8   44.65    3.23
  -7  -1  -8   14.15    4.71
  -7  -1  -8   27.01    1.57
  -8  -1  -8   38.10    2.24
  -9  -1  -8   23.09    1.63
 -10  -1  -8    3.85    0.73
   8  -2  -8    6.92    0.96
  -8   2   8    7.35    0.98
   7  -2  -8   31.04    1.98
  -7   2   8   34.20    2.05
   6  -2  -8   19.05    1.35
  -6   2   8   20.40    5.43
   5  -2  -8    6.28    0.75
  -5   2   8    8.98    3.91
  -5   2   8    7.06    2.27
   4  -2  -8   25.56    3.54
   4  -2  -8   22.71    1.41
  -4   2   8   26.02    6.49
  -4   2   8   20.02    3.25
   3  -2  -8  259.76   11.21
   3  -2  -8  270.59   15.13
  -3   2   8  222.39   12.03
  -3   2   8  249.02   19.41
  -3   2   8  277.39   15.36
   2  -2  -8   60.35    2.82
   2  -2  -8   61.00    5.71
  -2   2   8   60.88    5.73
  -2   2   8   52.02    3.57
  -2   2   8   53.80    3.39
  -2   2   8   51.43    7.88
   1  -2  -8   27.65    1.49
   1  -2  -8   31.07    4.07
  -1   2   8   28.06    3.83
  -1   2   8   26.27    2.20
  -1   2   8   24.05    6.61
  -1   2   8   22.48    1.95
   0  -2  -8  192.03    8.37
   0  -2  -8  182.57   12.85
   0   2   8  184.80    9.15
   0   2   8  203.24    9.47
  -1  -2  -8  142.67    5.92
  -1  -2  -8  110.27    9.92
   1   2   8  141.17    6.72
   1   2   8  147.55    7.03
   1   2   8  100.05   11.65
  -2  -2  -8    6.60    0.63
  -2  -2  -8    3.71    1.88
   2   2   8    5.42    0.94
   2   2   8    7.91    1.35
   2   2   8    7.04    3.52
  -3  -2  -8   80.19    3.62
   3   2   8   81.98    4.31
   3   2   8   55.82    8.25
   3   2   8   77.36    4.56
  -4  -2  -8   84.61    3.83
   4   2   8   76.33    4.71
   4   2   8   59.68    8.51
   4   2   8   88.90    4.53
  -5  -2  -8   76.27    3.57
   5   2   8   53.97    8.05
   5   2   8   70.79    4.46
   5   2   8   80.64    4.24
  -6  -2  -8    1.06    1.51
  -6  -2  -8    4.26    0.58
   6   2   8    4.07    1.07
  -7  -2  -8  222.44    9.96
  -8  -2  -8   54.87    2.95
  -9  -2  -8    9.78    1.10
 -10  -2  -8   84.11    4.35
   8  -3  -8   38.28    2.38
  -8   3   8   40.25    2.42
   7  -3  -8   53.62    2.94
  -7   3   8   53.42    2.96
   6  -3  -8    1.74    0.47
  -6   3   8    1.79    0.68
   5  -3  -8   51.30    2.75
  -5   3   8   55.99    3.07
  -5   3   8   52.65    7.87
  -5   3   8   51.26    5.54
   4  -3  -8    2.21    1.42
   4  -3  -8    2.02    0.42
  -4   3   8    2.14    0.61
  -4   3   8    4.29    2.81
  -4   3   8    1.51    1.19
   3  -3  -8    0.71    0.87
   3  -3  -8    0.87    0.29
  -3   3   8    0.75    0.61
  -3   3   8    1.07    1.86
  -3   3   8    0.16    0.58
   2  -3  -8   -0.04    0.53
   2  -3  -8    0.16    0.16
  -2   3   8    0.33    0.72
  -2   3   8    0.37    1.58
   1  -3  -8  123.64    9.21
   1  -3  -8  116.61    5.16
  -1   3   8  113.11    5.67
  -1   3   8  120.07    8.96
  -1   3   8   83.71   11.09
   0  -3  -8  110.56    9.29
   0  -3  -8  120.97    5.11
   0   3   8  118.09    5.65
   0   3   8   83.09   10.94
  -1  -3  -8    5.26    2.30
  -1  -3  -8    3.88    0.50
   1   3   8    4.83    0.84
   1   3   8    2.31    2.27
  -2  -3  -8   94.75    4.29
   2   3   8   70.78    9.80
   2   3   8  100.79    4.86
  -3  -3  -8  225.63    9.65
   3   3   8  172.01   16.69
   3   3   8  243.56   10.30
  -4  -3  -8    1.72    1.62
  -4  -3  -8    1.65    0.34
   4   3   8    1.78    0.69
   4   3   8    1.34    0.45
  -5  -3  -8  153.43    6.93
   5   3   8  154.35    7.51
   5   3   8  150.34    7.90
  -6  -3  -8   16.48    4.98
  -7  -3  -8   35.37    2.04
  -8  -3  -8    9.82    1.66
  -8  -3  -8   10.20    1.03
  -9  -3  -8   68.81    4.52
  -9  -3  -8   65.40    3.50
 -10  -3  -8   47.92    2.78
  -8   4   8    0.41    0.42
   7  -4  -8    4.90    0.77
  -7   4   8    4.73    0.78
   6  -4  -8   59.56    3.14
   5  -4  -8   86.73    3.92
  -5   4   8   66.80    9.39
  -5   4   8   74.46    6.98
   4  -4  -8    0.17    0.20
   4  -4  -8    0.08    0.64
  -4   4   8    0.26    1.69
  -4   4   8    0.24    0.81
   3  -4  -8  102.59    4.54
   3  -4  -8  102.78    7.90
  -3   4   8   81.86    4.53
  -3   4   8   92.55   11.65
  -3   4   8  109.03    8.16
   2  -4  -8  140.39    5.76
   2  -4  -8  136.43    9.55
   2  -4  -8  121.98    6.13
  -2   4   8   91.29   12.09
  -2   4   8  142.96    9.76
  -2   4   8  114.89    5.81
   1  -4  -8   -0.04    0.28
   1  -4  -8    0.43    0.74
   1  -4  -8    0.24    0.22
  -1   4   8    0.28    0.24
  -1   4   8   -0.39    1.16
  -1   4   8    0.29    0.80
   0  -4  -8   88.23    4.46
   0  -4  -8   90.47    4.02
   0  -4  -8   80.07    7.84
   0   4   8   62.37    9.68
   0   4   8   91.95    4.28
  -1  -4  -8  160.78    7.16
  -1  -4  -8  158.06    6.62
  -1  -4  -8  118.83   10.87
   1   4   8  127.24   14.15
   1   4   8  155.84    6.96
  -2  -4  -8   78.95    3.59
  -2  -4  -8   71.37    3.99
   2   4   8   82.19    3.97
   2   4   8   61.03    9.40
  -3  -4  -8    7.12    1.00
  -3  -4  -8    4.42    0.53
  -3  -4  -8    1.71    1.51
   3   4   8    4.94    0.78
  -4  -4  -8   98.39    4.49
  -4  -4  -8   86.61    4.89
   4   4   8  102.28    4.98
  -5  -4  -8  155.97    7.08
   5   4   8  156.92    7.59
  -6  -4  -8    0.44    1.30
  -6  -4  -8    1.58    0.38
   6   4   8    1.64    0.52
  -7  -4  -8   25.42    1.75
  -7  -4  -8   25.42    1.60
  -8  -4  -8   34.97    2.16
  -8  -4  -8   35.96    2.11
  -9  -4  -8   18.14    1.52
  -9  -4  -8   18.53    1.40
 -10  -4  -8    4.69    0.97
   7  -5  -8    6.71    0.96
  -7   5   8    7.33    0.97
   6  -5  -8    3.73    0.68
  -6   5   8    3.01    0.66
   5  -5  -8    4.05    0.62
   4  -5  -8   29.14    4.02
   4  -5  -8   30.12    1.76
  -4   5   8   31.45    4.18
  -4   5   8   24.70    7.25
   3  -5  -8  102.99    4.61
   3  -5  -8  101.52    8.00
   3  -5  -8   97.73    5.02
  -3   5   8   70.68   10.83
  -3   5   8  102.08    8.08
   2  -5  -8   48.84    2.34
   2  -5  -8   47.89    5.17
   2  -5  -8   41.62    2.65
  -2   5   8   43.28    4.99
  -2   5   8   33.08    8.62
   1  -5  -8   54.11    2.67
   1  -5  -8   54.50    3.08
   1  -5  -8   56.94    5.98
  -1   5   8   53.29    2.55
  -1   5   8   56.22    5.86
  -1   5   8   39.52    9.55
   0  -5  -8  200.11   13.52
   0  -5  -8  203.25    8.73
   0  -5  -8  198.71    8.21
   0   5   8  144.18   16.24
   0   5   8  161.80   12.05
  -1  -5  -8    0.44    0.19
  -1  -5  -8   -0.13    0.24
  -1  -5  -8    0.72    1.07
   1   5   8    0.09    1.45
   1   5   8    0.33    0.20
  -2  -5  -8   48.11    2.82
  -2  -5  -8   44.84    2.38
   2   5   8   51.48    2.67
  -3  -5  -8   62.68    3.42
  -3  -5  -8   59.52    2.97
   3   5   8   61.19    3.28
  -4  -5  -8   20.67    1.25
  -4  -5  -8   20.63    1.61
  -4  -5  -8   10.56    3.87
   4   5   8   22.95    1.60
  -5  -5  -8    0.48    0.42
  -5  -5  -8   -0.18    0.87
  -5  -5  -8    0.92    0.29
   5   5   8    0.76    0.37
  -6  -5  -8   59.06    3.73
  -6  -5  -8   69.40    3.39
  -6  -5  -8   70.94    3.55
   6   5   8   70.50    3.90
  -7  -5  -8  144.70    6.66
  -7  -5  -8  140.97    6.60
  -8  -5  -8    7.83    0.98
  -8  -5  -8   12.41    1.13
  -9  -5  -8   53.24    3.03
  -9  -5  -8   52.22    2.90
 -10  -5  -8   38.35    2.44
 -10  -5  -8   34.20    2.22
  -7   6   8    7.02    0.95
   6  -6  -8    8.09    0.95
  -6   6   8    7.28    0.96
   5  -6  -8   27.12    1.71
   4  -6  -8   19.83    3.39
   4  -6  -8   21.65    1.39
  -4   6   8   20.88    4.16
   3  -6  -8   22.33    1.77
   3  -6  -8   23.39    1.45
   3  -6  -8   25.61    3.71
  -3   6   8   18.14    6.85
  -3   6   8   25.12    3.71
   2  -6  -8   34.35    1.86
   2  -6  -8   34.08    2.23
   2  -6  -8   34.21    4.38
  -2   6   8   32.26    4.29
  -2   6   8   28.80    8.41
   1  -6  -8   49.43    2.52
   1  -6  -8   53.75    5.82
   1  -6  -8   49.94    2.94
  -1   6   8   42.88   10.57
  -1   6   8   52.85    5.72
   0  -6  -8   66.74    3.14
   0  -6  -8   69.46    7.15
   0  -6  -8   67.93    3.59
   0   6   8   64.81    3.05
   0   6   8   61.72    6.41
   0   6   8   49.62    9.33
  -1  -6  -8   39.66    2.42
  -1  -6  -8   35.91    5.39
  -1  -6  -8   39.45    2.02
   1   6   8   39.44    2.09
  -2  -6  -8  231.06   10.48
  -2  -6  -8  223.79    9.95
   2   6   8  229.51   10.19
  -3  -6  -8  121.44    5.68
  -3  -6  -8  127.42    6.17
   3   6   8  128.00    6.01
  -4  -6  -8   12.52    0.91
  -4  -6  -8   11.74    1.36
   4   6   8   13.41    1.18
  -5  -6  -8  152.51    6.78
  -5  -6  -8  139.99    7.00
  -5  -6  -8  140.93    6.52
   5   6   8  141.57    6.99
  -6  -6  -8   37.17    2.06
  -6  -6  -8   34.98    2.37
  -6  -6  -8   21.31    8.01
  -6  -6  -8   34.11    1.95
   6   6   8   34.51    2.38
  -7  -6  -8    3.78    0.63
  -7  -6  -8    5.45    1.03
  -7  -6  -8    4.69    0.72
  -8  -6  -8   12.51    1.11
  -8  -6  -8   11.96    1.16
  -9  -6  -8   58.28    3.11
  -9  -6  -8   56.73    3.24
 -10  -6  -8   33.54    2.13
 -10  -6  -8   34.00    2.31
   4  -7  -8    0.65    0.33
   3  -7  -8   62.78    3.96
   3  -7  -8   57.97    2.87
  -3   7   8   33.81    9.88
   2  -7  -8   64.15    3.10
   2  -7  -8   66.53    3.59
   2  -7  -8   62.89    6.19
  -2   7   8   60.55    6.15
  -2   7   8   44.35   10.99
   1  -7  -8    3.28    1.72
   1  -7  -8    5.34    0.92
   1  -7  -8    4.82    0.60
  -1   7   8    5.29    4.12
  -1   7   8    5.25    2.18
   0  -7  -8   36.69    5.16
   0  -7  -8   37.20    2.42
   0  -7  -8   42.12    2.06
   0   7   8   35.10    4.77
   0   7   8   39.49    1.92
   0   7   8   32.26    9.34
  -1  -7  -8   23.31    1.70
  -1  -7  -8   20.99    4.90
  -1  -7  -8   20.46    1.28
   1   7   8   23.16    1.35
  -2  -7  -8   26.79    1.50
  -2  -7  -8   19.54    4.99
  -2  -7  -8   27.89    1.92
   2   7   8   28.17    1.67
  -3  -7  -8    5.41    0.93
  -3  -7  -8    3.21    2.17
  -3  -7  -8    6.30    0.67
   3   7   8    6.02    0.81
  -4  -7  -8  155.38    7.36
  -4  -7  -8  171.36    7.63
  -4  -7  -8  169.12    7.91
   4   7   8  164.91    7.78
  -5  -7  -8   98.06    4.84
  -5  -7  -8  100.71    5.32
  -5  -7  -8  110.96    5.00
   5   7   8  106.35    5.35
  -6  -7  -8    3.91    0.59
  -6  -7  -8    5.45    0.76
  -6  -7  -8    5.58    0.99
   6   7   8    5.88    1.00
  -7  -7  -8  142.66    6.51
  -7  -7  -8  137.47    7.01
  -7  -7  -8  140.23    6.64
  -8  -7  -8   12.50    1.17
  -8  -7  -8   13.87    1.11
  -9  -7  -8    9.05    1.04
  -9  -7  -8    7.30    1.02
   2  -8  -8    0.55    0.43
  -2   8   8   -0.80    2.30
   1  -8  -8   47.65    2.83
  -1   8   8   32.50    9.84
   0  -8  -8  170.09    8.15
   0  -8  -8  182.62   12.75
   0   8   8  159.15   12.61
  -1  -8  -8    5.70    0.96
  -1  -8  -8    3.76    2.19
   1   8   8    5.06    0.56
  -2  -8  -8   66.53    8.13
  -2  -8  -8   88.54    4.37
  -3  -8  -8   40.65    2.39
  -3  -8  -8   39.21    2.52
  -4  -8  -8   16.19    1.40
  -4  -8  -8   16.08    1.16
  -4  -8  -8    7.22    3.44
  -5  -8  -8   20.83    1.43
  -5  -8  -8   19.31    1.64
  -6  -8  -8   48.11    2.66
  -6  -8  -8   45.30    2.92
  -7  -8  -8  114.55    5.61
  -7  -8  -8  114.62    5.96
  -8  -8  -8    1.93    0.55
  -9  -8  -8   65.86    3.70
   2  -9  -8   57.45    3.46
   1  -9  -8    6.43    1.04
  -1   9   8    1.31    3.33
   0  -9  -8    4.01    0.84
  -1  -9  -8   89.54    4.77
  -2  -9  -8  112.50    5.71
  -2  -9  -8  110.35    6.04
  -3  -9  -8    2.92    2.64
  -3  -9  -8    3.24    0.74
  -3  -9  -8    2.12    0.50
  -4  -9  -8   40.04    2.41
  -4  -9  -8   45.55    2.77
  -5  -9  -8   62.74    3.30
  -5  -9  -8   58.82    3.54
  -6  -9  -8    2.72    0.76
  -6  -9  -8    3.12    0.65
  -7  -9  -8    7.98    1.25
  -7  -9  -8    5.74    0.89
  -8  -9  -8   21.71    1.70
   2 -10  -8    5.66    1.06
   1 -10  -8   45.15    2.96
   0 -10  -8   29.39    2.20
  -1 -10  -8   17.65    1.61
  -2 -10  -8    0.90    0.39
  -2 -10  -8    0.34    0.40
  -3 -10  -8   38.51    2.30
  -3 -10  -8   36.25    2.53
  -4 -10  -8   56.82    3.45
  -4 -10  -8   58.56    3.20
  -5 -10  -8    0.10    0.34
  -5 -10  -8    0.25    0.30
  -6 -10  -8   61.81    3.46
  -6 -10  -8   62.79    3.74
  -7 -10  -8   49.53    2.96
  -7 -10  -8   48.86    3.20
   1 -11  -8   70.98    4.21
   0 -11  -8   14.87    1.76
  -1 -11  -8   29.68    2.28
  -2 -11  -8   86.97    4.92
  -2 -11  -8   93.80    5.57
  -3 -11  -8   19.07    1.50
  -3 -11  -8   17.06    1.66
  -4 -11  -8    0.21    0.36
  -4 -11  -8    0.28    0.39
  -5 -11  -8   13.09    1.46
  -5 -11  -8   14.10    1.74
  -6 -11  -8   33.58    2.30
  -6 -11  -8   35.51    2.56
  -5  -8   9   38.52    2.93
  -5  -8   9   43.04    7.03
  -4  -8   9   15.40    1.96
  -4  -8   9   10.59    3.96
  -3  -8   9   36.91    6.11
  -3  -8   9   40.31    2.99
  -2  -8   9   28.33    2.46
  -1  -8   9    0.64    0.58
   0  -8   9    1.14    0.68
   1  -8   9    5.50    1.16
   2  -8   9   21.98    2.12
  -6  -7   9    2.89    2.45
  -5  -7   9   -0.32    0.35
  -5  -7   9   -0.15    1.11
  -4  -7   9    1.64    0.75
  -4  -7   9    0.14    1.38
  -3  -7   9   60.54    3.92
  -3  -7   9   61.30    7.76
  -2  -7   9   26.11    2.34
  -2  -7   9   29.95    5.14
  -1  -7   9   25.91    2.30
   0  -7   9  121.63    6.64
   1  -7   9   26.09    2.31
   2  -7   9   29.43    2.45
   3  -7   9   31.50    2.55
  -7  -6   9   15.82    5.25
  -6  -6   9    7.97    3.78
  -5  -6   9   52.60    7.43
  -5  -6   9   47.83    3.27
  -4  -6   9   14.75    1.83
  -4  -6   9   12.44    4.10
  -3  -6   9    0.49    1.39
  -3  -6   9    0.01    0.42
  -2  -6   9   18.39    2.17
  -2  -6   9   17.66    4.61
  -1  -6   9   55.86    6.71
  -1  -6   9   53.17    3.62
   0  -6   9   20.92    2.37
   1  -6   9    2.96    0.93
   2  -6   9   70.94    4.39
   3  -6   9   87.66    5.09
   4  -6   9   13.99    1.85
  -8  -5   9    0.39    1.58
  -7  -5   9    1.32    1.88
  -6  -5   9   10.47    4.35
  -5  -5   9   20.53    5.67
  -5  -5   9   20.86    1.92
  -4  -5   9    1.96    1.93
  -4  -5   9    1.56    0.66
  -3  -5   9   27.82    2.34
  -3  -5   9   28.64    5.13
  -2  -5   9   45.43    6.26
  -2  -5   9   45.96    3.21
  -1  -5   9    0.35    0.52
  -1  -5   9    0.62    1.17
   0  -5   9   49.12    5.96
   0  -5   9   37.99    2.99
   1  -5   9   39.92    2.97
   2  -5   9   15.33    1.99
   3  -5   9    1.97    0.72
   4  -5   9   44.70    3.14
   8   4  -9   12.30    1.38
  -8  -4   9   14.95    1.45
  -8  -4   9   13.52    4.67
   7   4  -9   11.65    1.21
  -7  -4   9   11.15    4.34
  -7  -4   9   11.57    1.19
   6   4  -9    1.01    0.35
  -6  -4   9    1.00    1.60
   5   4  -9    5.65    0.74
  -5  -4   9    5.39    2.00
  -5  -4   9    4.90    2.73
  -5  -4   9    6.30    1.12
   4   4  -9   29.41    1.89
  -4  -4   9   32.58    5.62
  -4  -4   9   31.59    2.49
  -4  -4   9   40.46    6.76
  -3  -4   9   54.41    7.09
  -3  -4   9   49.92    3.44
  -2  -4   9    9.69    3.53
  -2  -4   9    9.65    1.48
  -1  -4   9   73.06    4.52
  -1  -4   9   76.13    8.15
   0  -4   9  132.56    7.39
   0  -4   9  151.41   11.72
   1  -4   9    0.00    0.33
   2  -4   9   58.86    3.84
   3  -4   9   88.22    5.13
   4  -4   9   31.83    2.52
   5  -4   9    0.89    0.52
   8   3  -9   37.95    2.28
  -8  -3   9   36.60    6.32
  -8  -3   9   37.39    2.30
   7   3  -9   53.26    2.88
  -7  -3   9   52.98    7.61
   6   3  -9   26.20    1.62
  -6  -3   9   22.54    5.71
   5   3  -9   74.88    3.55
  -5  -3   9   69.75    4.65
  -5  -3   9   69.38    8.48
  -5  -3   9   68.31    6.59
   4   3  -9    4.77    0.63
  -4  -3   9    4.04    1.80
  -4  -3   9    4.91    1.07
  -4  -3   9    5.49    3.00
  -4  -3   9    4.21    1.78
   3   3  -9   70.45    3.37
  -3  -3   9   69.90    6.15
  -3  -3   9   71.12    8.33
  -3  -3   9   64.11    5.90
  -3  -3   9   71.93    4.31
   2   3  -9   14.87    3.11
   2   3  -9   14.71    1.01
  -2  -3   9   13.63    2.84
  -2  -3   9   15.87    4.53
  -2  -3   9   16.88    2.81
  -2  -3   9   17.00    2.01
   1   3  -9   20.96    3.21
   1   3  -9   19.69    1.23
  -1  -3   9   17.97    2.24
  -1  -3   9   20.36    3.02
  -1  -3   9   25.81    5.81
  -1  -3   9   18.39    2.97
  -1  -3   9   22.11    3.12
   0   3  -9   17.16    1.09
   0  -3   9   16.09    3.31
   0  -3   9   15.27    4.25
   0  -3   9   19.14    2.23
  -1   3  -9   17.58    1.18
   1  -3   9   21.18    2.02
   1  -3   9   22.87    4.17
  -2   3  -9   25.68    1.52
   2  -3   9   28.07    2.34
  -3   3  -9   39.05    2.19
   3  -3   9   46.05    3.14
  -4   3  -9   28.53    1.70
   4  -3   9   30.15    2.43
  -5   3  -9  118.03    5.59
   5  -3   9  121.12    6.44
  -6   3  -9    7.76    0.91
  -7   3  -9   12.34    1.23
   8   2  -9    4.60    0.79
  -8  -2   9    5.18    3.22
  -8  -2   9    5.31    0.85
   7   2  -9    2.22    0.54
  -7  -2   9    1.68    1.88
   6   2  -9   61.81    3.25
  -6  -2   9   67.26    8.45
   5   2  -9   12.91    0.99
  -5  -2   9   10.89    2.92
  -5  -2   9   13.90    4.73
   4   2  -9    4.08    0.56
  -4  -2   9    2.70    0.85
  -4  -2   9    3.70    1.68
  -4  -2   9    2.35    1.95
   3   2  -9  163.51   10.83
   3   2  -9  161.62    7.50
  -3  -2   9  166.41   10.98
  -3  -2   9  179.61   14.40
  -3  -2   9  172.84    8.58
   2   2  -9   48.29    2.54
   2   2  -9   51.70    5.02
  -2  -2   9   52.76    5.15
  -2  -2   9   47.09    4.86
  -2  -2   9   51.53    3.50
  -2  -2   9   57.05    7.48
   1   2  -9  106.04    7.84
   1   2  -9  102.07    4.82
  -1  -2   9   93.36    6.23
  -1  -2   9  111.93   10.70
  -1  -2   9  111.04    6.00
  -1  -2   9  107.24    7.99
   0   2  -9  124.78    5.87
   0   2  -9  124.94    9.14
   0  -2   9  150.45   12.38
   0  -2   9  134.30    9.37
   0  -2   9  133.60    7.07
   0  -2   9  121.07    7.44
  -1   2  -9  131.83    5.96
  -1   2  -9  133.46    9.83
   1  -2   9  119.83    7.45
   1  -2   9  152.83   12.23
   1  -2   9  124.35    9.32
   1  -2   9  134.22    7.14
  -2   2  -9   20.20    1.27
  -2   2  -9   17.16    4.59
   2  -2   9   25.52    5.65
   2  -2   9   21.40    2.07
  -3   2  -9  116.59    5.58
   3  -2   9  129.89    6.74
  -4   2  -9  164.26    7.44
   4  -2   9  165.44    8.46
  -5   2  -9   36.64    2.18
   5  -2   9   44.56    3.02
  -6   2  -9   10.33    1.05
  -7   2  -9  127.90    6.07
  -8   2  -9   16.67    1.35
   8   1  -9   42.03    2.53
  -8  -1   9   43.60    6.88
  -8  -1   9   44.71    2.60
   7   1  -9    3.01    0.58
  -7  -1   9    1.18    1.82
   6   1  -9    0.57    0.31
  -6  -1   9    1.06    1.78
   5   1  -9   14.64    1.10
  -5  -1   9   15.59    3.45
  -5  -1   9   16.42    4.93
   4   1  -9   39.36    2.22
  -4  -1   9   42.32    4.84
  -4  -1   9   46.56    3.11
  -4  -1   9   41.27    6.57
   3   1  -9   45.14    4.77
   3   1  -9   41.20    2.26
  -3  -1   9   48.09    5.00
  -3  -1   9   40.22    3.06
  -3  -1   9   44.89    6.80
   2   1  -9    5.89    1.94
   2   1  -9    4.31    0.56
  -2  -1   9    3.49    2.46
  -2  -1   9    6.28    2.10
  -2  -1   9    4.10    1.02
   1   1  -9  135.70    9.51
   1   1  -9  130.35    6.03
  -1  -1   9  119.05    7.33
  -1  -1   9  137.85    7.25
  -1  -1   9  138.29    9.65
  -1  -1   9  146.31   12.93
   0   1  -9  217.99   13.75
   0   1  -9  216.17    9.61
   0  -1   9  236.81   17.30
   0  -1   9  224.78   10.92
   0  -1   9  196.85   11.01
   0  -1   9  226.68   13.77
  -1   1  -9   78.11    7.48
  -1   1  -9   81.33    3.90
   1  -1   9   99.16   10.04
   1  -1   9   79.89    5.22
   1  -1   9   83.21    5.03
  -2   1  -9  106.83    5.30
   2  -1   9  129.41   11.60
   2  -1   9  127.83    6.62
   2  -1   9  111.41    6.63
  -3   1  -9    6.25    2.63
  -3   1  -9   11.81    0.85
   3  -1   9   13.42    1.88
  -4   1  -9    7.09    0.74
  -4   1  -9    3.52    2.10
   4  -1   9    7.42    1.43
  -5   1  -9   83.83    4.03
   5  -1   9   79.65    4.85
  -6   1  -9   41.34    2.33
  -7   1  -9   21.72    1.51
  -8   1  -9    0.65    0.38
   8   0  -9   17.68    1.40
  -8   0   9   14.58    4.68
  -8   0   9   17.55    1.43
   7   0  -9    0.28    0.28
  -7   0   9    1.09    1.72
   6   0  -9   59.47    3.12
  -6   0   9   60.39    8.14
   5   0  -9   40.93    2.16
  -5   0   9   35.88    6.22
  -5   0   9   34.40    4.58
   4   0  -9    3.46    1.60
   4   0  -9    2.79    0.47
  -4   0   9    4.02    1.87
  -4   0   9    2.03    2.12
  -4   0   9    2.55    0.87
   3   0  -9   83.73    7.07
   3   0  -9   82.00    4.05
  -3   0   9   85.58    5.08
  -3   0   9   88.24    7.33
  -3   0   9   92.19   10.30
   2   0  -9   87.19    4.11
   2   0  -9   83.73    7.10
  -2   0   9   88.75    7.38
  -2   0   9   89.65    5.22
  -2   0   9   84.93    9.97
   1   0  -9    2.02    0.40
   1   0  -9    2.44    1.46
  -1   0   9    1.88    2.03
  -1   0   9    2.32    1.41
  -1   0   9    2.51    0.90
  -1   0   9    2.23    0.88
   0   0  -9   -0.16    0.54
   0   0  -9    0.45    0.24
   0   0   9    0.42    0.57
   0   0   9   -0.06    1.04
   0   0   9    0.34    0.87
   0   0   9    0.35    0.45
  -1   0  -9  217.48   15.26
  -1   0  -9  244.97   10.47
   1   0   9  251.69   11.86
   1   0   9  242.58   18.43
   1   0   9  237.34   11.82
  -2   0  -9  166.89    7.68
   2   0   9  171.01   14.74
   2   0   9  171.21    8.92
   2   0   9  182.96    9.03
  -3   0  -9    3.58    2.06
  -3   0  -9    4.10    0.53
   3   0   9    6.44    1.35
   3   0   9    3.09    2.48
   3   0   9    7.00    1.40
  -4   0  -9  144.72    6.64
   4   0   9  148.37    7.82
  -5   0  -9  166.74    7.70
   5   0   9  174.30    8.81
  -6   0  -9   -0.15    1.12
  -6   0  -9    0.04    0.20
  -7   0  -9   61.52    3.24
  -8   0  -9  111.13    5.41
  -9   0  -9   10.14    1.14
   8  -1  -9    8.91    1.13
  -8   1   9   10.40    1.21
   7  -1  -9    0.23    0.26
  -7   1   9    0.67    1.87
   6  -1  -9   18.07    1.32
  -6   1   9   19.51    5.56
   5  -1  -9    0.42    0.27
  -5   1   9    1.13    1.89
  -5   1   9    0.21    0.77
   4  -1  -9   26.32    3.78
   4  -1  -9   27.82    1.64
  -4   1   9   29.60    7.06
  -4   1   9   27.86    3.96
  -4   1   9   25.14    2.33
   3  -1  -9   64.29    6.08
   3  -1  -9   64.64    3.16
  -3   1   9   66.01    6.24
  -3   1   9   59.85    4.05
  -3   1   9   62.18    8.65
   2  -1  -9   19.77    1.24
   2  -1  -9   21.28    3.31
  -2   1   9   21.19    6.03
  -2   1   9   22.51    3.50
  -2   1   9   17.90    2.23
  -2   1   9   17.96    1.88
   1  -1  -9  122.64    5.48
   1  -1  -9  127.55    9.48
  -1   1   9  118.30   12.48
  -1   1   9  117.65    6.61
  -1   1   9  126.22    9.42
  -1   1   9  107.61    6.42
   0  -1  -9   51.62    2.52
   0  -1  -9   46.32    5.60
   0   1   9   48.00    5.44
   0   1   9   54.31    8.03
   0   1   9   48.69    3.43
   0   1   9   51.89    3.59
  -1  -1  -9   36.36    1.87
  -1  -1  -9   31.66    4.79
   1   1   9   34.47    6.35
   1   1   9   34.65    2.68
   1   1   9   32.21    2.75
  -2  -1  -9    6.16    2.66
  -2  -1  -9   11.10    0.80
   2   1   9    9.52    4.12
   2   1   9    8.32    1.52
   2   1   9   11.78    1.72
  -3  -1  -9   75.76    3.47
   3   1   9   64.11    4.41
   3   1   9   55.71    8.24
   3   1   9   79.97    4.46
  -4  -1  -9   47.53    2.45
   4   1   9   50.10    3.27
   4   1   9   37.83    6.60
   4   1   9   48.49    3.47
  -5  -1  -9   36.13    2.03
   5   1   9   36.07    2.89
  -6  -1  -9   60.74    3.14
   6   1   9   60.78    4.03
  -7  -1  -9  113.04    5.41
  -8  -1  -9    4.83    0.75
  -9  -1  -9   35.27    2.21
   8  -2  -9   61.91    3.37
  -8   2   9   59.31    3.34
   7  -2  -9    0.19    0.30
   6  -2  -9    8.61    0.99
  -6   2   9    8.74    3.80
   5  -2  -9   19.86    1.35
  -5   2   9   17.34    5.59
   4  -2  -9   39.14    4.76
   4  -2  -9   40.78    2.24
  -4   2   9   41.21    7.23
  -4   2   9   43.19    5.04
   3  -2  -9    8.04    0.80
   3  -2  -9    8.01    2.54
  -3   2   9    6.68    1.36
  -3   2   9    6.04    2.19
  -3   2   9    6.57    3.66
   2  -2  -9   53.28    2.75
   2  -2  -9   60.76    5.94
  -2   2   9   53.47    3.71
  -2   2   9   52.23    8.29
  -2   2   9   51.94    3.47
  -2   2   9   58.98    5.96
   1  -2  -9   58.11    6.04
   1  -2  -9   54.98    2.64
  -1   2   9   47.97    3.51
  -1   2   9   48.06    5.52
  -1   2   9   46.84    7.95
  -1   2   9   52.14    3.39
   0  -2  -9   11.30    0.82
   0  -2  -9   11.40    3.39
   0   2   9   12.38    1.37
   0   2   9    9.71    1.60
   0   2   9    5.58    3.36
   0   2   9   12.87    3.34
  -1  -2  -9   41.71    5.73
  -1  -2  -9   51.51    2.46
   1   2   9   49.04    3.19
   1   2   9   50.52    3.46
   1   2   9   41.92    7.35
  -2  -2  -9  173.01    7.77
   2   2   9  139.65   14.64
   2   2   9  178.15    8.99
   2   2   9  196.06    8.78
  -3  -2  -9   15.35    1.05
   3   2   9   16.79    2.18
   3   2   9    9.86    4.22
   3   2   9   17.63    1.62
  -4  -2  -9   29.65    1.66
   4   2   9   19.85    5.98
   4   2   9   33.28    2.34
   4   2   9   23.31    2.36
  -5  -2  -9   79.69    3.76
   5   2   9   68.61    4.67
   5   2   9   61.86    9.09
   5   2   9   85.22    4.54
  -6  -2  -9   25.72    1.60
   6   2   9   24.16    2.78
  -7  -2  -9    3.88    0.65
  -8  -2  -9   17.66    1.34
  -9  -2  -9   78.61    4.08
   8  -3  -9    6.91    1.03
  -8   3   9    7.36    1.04
   7  -3  -9    0.85    0.42
   6  -3  -9   66.13    3.42
  -6   3   9   62.92    8.90
   5  -3  -9   41.46    2.32
  -5   3   9   41.31    7.41
   4  -3  -9   28.13    4.05
   4  -3  -9   28.26    1.70
  -4   3   9   26.09    3.93
  -4   3   9   34.40    8.44
   3  -3  -9   89.92    7.53
   3  -3  -9   83.63    3.99
  -3   3   9   84.47    7.43
  -3   3   9   80.72   10.75
  -3   3   9   84.15    5.00
  -3   3   9   76.17    4.46
   2  -3  -9   75.67    6.82
   2  -3  -9   69.48    3.28
  -2   3   9   54.53    3.66
  -2   3   9   76.05    6.90
  -2   3   9   69.81    4.28
  -2   3   9   57.65    9.25
   1  -3  -9    0.44    0.87
   1  -3  -9    0.35    0.23
  -1   3   9    0.87    1.57
  -1   3   9   -0.14    0.56
  -1   3   9    0.42    0.38
  -1   3   9   -0.01    0.43
   0  -3  -9   75.67    7.72
   0  -3  -9   77.10    3.69
   0   3   9   77.28    4.30
   0   3   9   91.13    4.89
   0   3   9   70.68    7.14
  -1  -3  -9   71.01    3.35
  -1  -3  -9   62.11    7.27
   1   3   9   56.09    9.08
   1   3   9   78.57    4.05
  -2  -3  -9   47.63    2.42
   2   3   9   31.32    8.01
   2   3   9   58.33    3.57
   2   3   9   47.38    2.96
  -3  -3  -9   19.32    1.22
   3   3   9   20.06    1.67
   3   3   9   12.98    5.09
   3   3   9   23.16    2.52
  -4  -3  -9  228.11    9.88
   4   3   9  179.72   17.61
   4   3   9  240.32   10.62
   4   3   9  228.85   11.09
  -5  -3  -9  138.40    6.20
   5   3   9  142.20    6.90
   5   3   9  108.94   12.98
   5   3   9  136.94    7.36
  -6  -3  -9    6.66    3.25
  -6  -3  -9   16.29    1.12
   6   3   9   14.56    2.14
  -7  -3  -9   85.21    4.22
  -8  -3  -9   21.39    1.50
  -9  -3  -9    2.41    0.60
   7  -4  -9   16.92    1.38
  -7   4   9   17.40    1.41
   6  -4  -9    5.69    0.84
   5  -4  -9    0.72    0.34
  -5   4   9    0.01    1.69
   4  -4  -9   49.39    5.57
   4  -4  -9   52.86    2.60
  -4   4   9   51.78    5.67
  -4   4   9   46.40    8.32
  -4   4   9   41.54    2.64
   3  -4  -9   88.94    7.48
   3  -4  -9   85.25    3.83
  -3   4   9   86.66    7.50
  -3   4   9   71.49   10.61
  -3   4   9   64.26    3.88
   2  -4  -9   15.52    3.55
   2  -4  -9   17.22    1.10
  -2   4   9   16.84    3.68
  -2   4   9   13.72    5.68
  -2   4   9   13.49    1.19
   1  -4  -9  148.14   10.91
   1  -4  -9  146.31    6.27
  -1   4   9  131.66    6.53
  -1   4   9  105.22   13.53
  -1   4   9  147.86   10.77
   0  -4  -9   62.85    6.90
   0  -4  -9   62.91    2.85
   0   4   9   56.67    3.13
   0   4   9   44.03   10.03
   0   4   9   45.29    5.66
  -1  -4  -9    9.35    1.26
  -1  -4  -9   10.44    3.53
  -1  -4  -9    9.26    0.77
   1   4   9   12.81    1.12
   1   4   9    8.34    4.44
  -2  -4  -9   32.90    5.53
  -2  -4  -9   50.24    2.41
   2   4   9   37.96    9.23
   2   4   9   52.16    2.86
  -3  -4  -9   78.46    3.72
   3   4   9   59.78    9.79
   3   4   9   83.20    4.23
  -4  -4  -9    0.08    0.96
  -4  -4  -9    0.66    0.28
   4   4   9    0.34    0.29
  -5  -4  -9    2.29    0.44
  -5  -4  -9    1.31    1.61
   5   4   9    2.21    0.59
  -6  -4  -9  117.96    5.63
   6   4   9  119.54    6.24
   6   4   9  123.39    6.77
  -7  -4  -9   88.32    4.35
  -8  -4  -9   14.64    1.19
  -9  -4  -9   58.84    3.21
   7  -5  -9    1.18    0.52
  -7   5   9    1.58    0.58
   6  -5  -9   52.14    2.89
   5  -5  -9   12.69    1.21
   4  -5  -9    0.89    0.35
  -4   5   9    1.54    2.62
   3  -5  -9    0.62    0.96
   3  -5  -9    0.88    0.33
  -3   5   9   -0.58    1.70
  -3   5   9   -0.05    0.69
   2  -5  -9   41.26    5.07
   2  -5  -9   38.87    2.58
   2  -5  -9   42.60    2.17
  -2   5   9   29.48    8.59
  -2   5   9   37.81    4.91
   1  -5  -9  114.83    4.92
   1  -5  -9  114.02    9.35
   1  -5  -9   99.26    5.36
  -1   5   9   75.45   11.78
  -1   5   9  104.73    4.85
  -1   5   9  108.50    9.06
   0  -5  -9   -0.18    0.24
   0  -5  -9    0.77    1.16
   0  -5  -9    0.14    0.19
   0   5   9    0.03    1.66
   0   5   9    1.45    1.29
   0   5   9    1.09    0.33
  -1  -5  -9  252.83   18.05
  -1  -5  -9  286.24   12.10
  -1  -5  -9  297.44   12.76
   1   5   9  294.40   12.37
   1   5   9  226.36   21.87
  -2  -5  -9  262.60   11.70
  -2  -5  -9  258.63   11.08
   2   5   9  190.67   20.01
   2   5   9  272.19   11.47
  -3  -5  -9    5.25    2.78
  -3  -5  -9    9.59    0.88
  -3  -5  -9    8.93    1.23
   3   5   9    9.98    1.00
  -4  -5  -9  147.26    7.47
  -4  -5  -9  155.78    6.93
   4   5   9  153.83    7.39
  -5  -5  -9  117.88    6.50
  -5  -5  -9  134.14    6.03
   5   5   9  137.22    6.59
  -6  -5  -9    4.73    0.67
   6   5   9    6.40    1.04
  -7  -5  -9    1.40    0.43
   7   5   9    2.89    1.39
  -8  -5  -9   63.59    3.36
  -9  -5  -9   66.18    3.53
   6  -6  -9   24.51    1.72
  -6   6   9   24.97    1.75
   5  -6  -9    3.02    0.61
   4  -6  -9   53.22    2.79
  -4   6   9   45.81   10.85
   3  -6  -9   53.57    3.36
   3  -6  -9   62.26    6.35
   3  -6  -9   60.65    2.95
  -3   6   9   36.10   10.10
  -3   6   9   54.93    6.02
   2  -6  -9   17.08    3.94
   2  -6  -9   15.53    1.11
   2  -6  -9   14.81    1.46
  -2   6   9   17.26    3.91
  -2   6   9   12.85    6.01
   1  -6  -9   17.52    1.17
   1  -6  -9   18.85    1.60
   1  -6  -9   19.91    4.33
  -1   6   9   18.32    4.16
  -1   6   9   13.73    6.01
   0  -6  -9   22.57    1.32
   0  -6  -9   21.87    1.73
   0  -6  -9   18.83    4.63
   0   6   9   20.70    4.52
   0   6   9   20.65    1.25
   0   6   9   18.88    7.08
  -1  -6  -9   14.07    1.37
  -1  -6  -9   14.50    1.00
  -1  -6  -9   13.94    4.28
   1   6   9   15.94    1.10
   1   6   9   10.16    5.26
  -2  -6  -9    0.15    1.10
  -2  -6  -9    1.49    0.33
  -2  -6  -9    1.91    0.59
   2   6   9    1.34    0.39
  -3  -6  -9   52.05    2.67
  -3  -6  -9   54.04    3.19
   3   6   9   53.27    2.99
  -4  -6  -9   95.35    5.10
  -4  -6  -9   93.94    4.55
   4   6   9  100.09    5.00
  -5  -6  -9   10.99    1.46
  -5  -6  -9    6.66    3.83
  -5  -6  -9   12.77    0.93
   5   6   9    9.88    1.12
  -6  -6  -9   35.31    2.57
  -6  -6  -9   35.64    2.08
   6   6   9   39.64    2.62
  -7  -6  -9   85.63    4.23
  -8  -6  -9   11.51    1.18
  -9  -6  -9    8.39    1.05
   5  -7  -9   15.97    1.28
   4  -7  -9   28.08    1.77
   3  -7  -9    1.74    0.44
  -3   7   9    0.93    3.02
   2  -7  -9   44.09    2.86
   2  -7  -9   47.05    5.51
   2  -7  -9   45.69    2.38
  -2   7   9   44.02    5.41
  -2   7   9   28.10    8.91
   1  -7  -9  141.54   10.89
   1  -7  -9  138.71    6.28
   1  -7  -9  136.20    6.85
  -1   7   9  133.20   10.60
   0  -7  -9    5.97    2.74
   0  -7  -9    5.27    0.91
   0  -7  -9    7.57    0.76
   0   7   9    2.52    3.18
   0   7   9    5.77    2.48
   0   7   9    5.49    0.49
  -1  -7  -9   34.94    1.87
  -1  -7  -9   32.62    5.37
  -1  -7  -9   33.43    2.31
   1   7   9   27.08    9.18
   1   7   9   34.89    1.90
  -2  -7  -9   52.44    2.60
  -2  -7  -9   37.42    6.18
  -2  -7  -9   52.85    3.13
   2   7   9   55.07    2.81
  -3  -7  -9   29.99    1.69
  -3  -7  -9   29.09    2.13
  -3  -7  -9   22.96    5.91
   3   7   9   31.50    2.01
  -4  -7  -9    1.53    0.55
  -4  -7  -9    0.64    1.50
  -4  -7  -9    2.37    0.44
  -5  -7  -9   40.96    2.69
  -5  -7  -9   38.30    2.16
  -6  -7  -9   92.66    5.11
  -6  -7  -9   94.86    4.53
  -7  -7  -9   27.53    2.24
  -7  -7  -9   29.08    1.78
  -8  -7  -9   31.28    1.95
  -9  -7  -9  114.63    5.58
   2  -8  -9   19.76    1.72
  -2   8   9   10.45    6.01
   1  -8  -9    7.22    1.18
  -1   8   9    5.56    4.62
   0  -8  -9    5.20    2.48
   0  -8  -9    5.50    0.97
   0   8   9    5.49    2.51
   0   8   9    9.93    6.32
  -1  -8  -9   77.50    8.49
  -1  -8  -9   81.27    4.25
   1   8   9   63.73    7.21
  -2  -8  -9   39.00    6.35
  -2  -8  -9   56.28    3.17
  -3  -8  -9   21.79    1.72
  -3  -8  -9   14.23    4.71
  -4  -8  -9   76.47    4.29
  -5  -8  -9   34.08    2.43
  -6  -8  -9    4.84    0.98
  -7  -8  -9   10.38    1.47
   2  -9  -9    2.77    0.80
   1  -9  -9   68.35    3.79
  -1   9   9   37.64   11.50
   0  -9  -9   48.16    3.02
   0   9   9   35.03   10.95
  -1  -9  -9   -0.07    0.34
  -2  -9  -9    1.04    0.56
  -3  -9  -9   62.20    3.69
  -4  -9  -9   47.48    3.05
  -5  -9  -9    0.12    0.38
  -6  -9  -9   77.39    4.46
  -7  -9  -9   64.56    3.97
   2 -10  -9   11.73    1.60
   1 -10  -9   47.15    3.11
  -1  10   9   37.08   11.73
   0 -10  -9   13.94    1.74
   0  10   9    7.54    5.60
  -1 -10  -9   80.14    4.56
  -2 -10  -9   52.46    3.33
  -3 -10  -9    7.54    1.22
  -4 -10  -9   19.79    1.81
  -5 -10  -9   62.81    3.82
  -6 -10  -9   34.52    2.57
  -7 -10  -9    1.75    0.71
   0 -11  -9    9.79    1.48
   0  11   9   11.81    7.71
  -1 -11  -9   80.20    4.65
  -2 -11  -9   18.14    1.77
  -3 -11  -9   23.89    2.03
  -4 -11  -9   47.31    3.18
  -5 -11  -9    0.73    0.54
  -3  -8  10    6.53    1.43
  -3  -8  10    7.27    3.54
  -2  -8  10    0.32    0.55
  -1  -8  10   47.91    3.55
  -5  -7  10   12.88    1.78
  -5  -7  10   14.16    5.06
  -4  -7  10    1.83    2.10
  -4  -7  10    4.35    1.10
  -3  -7  10    0.37    0.53
  -3  -7  10    0.18    1.44
  -2  -7  10    4.70    1.13
  -2  -7  10    6.11    3.22
  -1  -7  10   41.54    3.20
   0  -7  10    7.16    1.44
   1  -7  10   19.80    2.40
   2  -7  10   83.16    5.09
  -6  -6  10   17.63    5.39
  -5  -6  10   21.70    6.07
  -5  -6  10   21.87    2.09
  -4  -6  10   11.55    1.69
  -4  -6  10   12.68    4.58
  -3  -6  10   65.80    4.29
  -3  -6  10   67.81    8.46
  -2  -6  10    4.10    1.14
  -2  -6  10    3.57    2.42
  -1  -6  10   10.08    1.69
  -1  -6  10   10.38    3.75
   0  -6  10   10.55    1.69
   1  -6  10   18.61    2.32
   2  -6  10   22.97    2.24
   3  -6  10    8.84    1.51
   4  -6  10   86.88    5.19
  -7  -5  10    0.43    1.42
  -6  -5  10    6.48    3.36
  -5  -5  10    6.14    3.27
  -5  -5  10    8.48    1.46
  -4  -5  10   15.22    4.86
  -4  -5  10   17.90    2.11
  -3  -5  10   20.62    5.81
  -3  -5  10   18.74    2.28
  -2  -5  10    7.31    3.29
  -2  -5  10    7.65    1.46
  -1  -5  10   77.26    4.93
  -1  -5  10   86.19    9.01
   0  -5  10   37.33    2.98
   1  -5  10    7.49    1.51
   2  -5  10   86.87    5.25
   3  -5  10   27.19    2.45
   4  -5  10    0.72    0.59
  -7  -4  10   -0.05    1.31
  -6  -4  10   47.46    7.50
  -5  -4  10   17.74    2.09
  -5  -4  10   21.36    5.92
  -4  -4  10    0.55    1.46
  -4  -4  10    0.71    0.54
  -3  -4  10   24.48    2.29
  -3  -4  10   25.04    6.01
  -2  -4  10   48.92    3.56
  -2  -4  10   53.93    7.35
  -1  -4  10   25.02    2.33
  -1  -4  10   25.12    5.89
   0  -4  10    2.54    2.23
   0  -4  10    3.32    1.05
   1  -4  10   91.27    5.46
   2  -4  10   92.32    5.50
   3  -4  10    0.82    0.56
   4  -4  10   86.45    5.17
   5  -4  10   23.35    2.19
   8   3 -10    2.04    0.58
  -8  -3  10    3.29    0.75
  -8  -3  10    2.68    2.74
   7   3 -10    6.89    0.92
  -7  -3  10    4.40    2.95
   6   3 -10   15.49    1.20
  -6  -3  10   15.49    4.93
   5   3 -10    0.37    0.28
  -5  -3  10    0.27    1.26
   4   3 -10   35.39    2.00
  -4  -3  10   34.91    4.51
  -4  -3  10   33.75    6.05
  -4  -3  10   34.25    2.76
   3   3 -10   56.06    2.91
  -3  -3  10   57.72    7.93
  -3  -3  10   60.14    3.94
  -3  -3  10   57.94    5.80
   2   3 -10    1.32    0.37
  -2  -3  10    1.44    1.21
  -2  -3  10    1.72    1.93
  -2  -3  10    1.55    0.72
   1   3 -10   99.31    4.73
  -1  -3  10  100.37    5.90
  -1  -3  10  106.29   10.59
   0   3 -10   46.44    2.55
   0  -3  10   58.54    7.43
   0  -3  10   53.33    3.70
  -1   3 -10    0.22    0.22
   1  -3  10    0.06    0.51
   1  -3  10    0.16    1.10
  -2   3 -10   19.24    1.24
   2  -3  10   17.23    2.23
  -3   3 -10   77.44    3.74
   3  -3  10   73.26    4.72
  -4   3 -10   68.74    3.49
   4  -3  10   71.19    4.48
  -5   3 -10    4.29    0.66
   5  -3  10    5.33    1.20
  -6   3 -10   46.54    2.61
   8   2 -10   16.96    1.59
  -8  -2  10   14.46    4.91
  -8  -2  10   15.33    1.57
   7   2 -10    0.24    0.33
  -7  -2  10    0.46    1.43
   6   2 -10    1.36    0.42
  -6  -2  10    1.57    2.24
   5   2 -10   18.56    1.29
  -5  -2  10   15.54    4.90
   4   2 -10   39.29    2.14
  -4  -2  10   38.42    6.55
  -4  -2  10   34.84    4.60
  -4  -2  10   38.59    2.94
   3   2 -10    5.61    0.69
   3   2 -10    5.13    1.96
  -3  -2  10    7.13    3.38
  -3  -2  10    4.03    1.06
  -3  -2  10    5.75    2.21
   2   2 -10   40.25    4.57
   2   2 -10   36.06    2.04
  -2  -2  10   36.71    2.99
  -2  -2  10   39.64    6.57
  -2  -2  10   39.04    4.62
  -2  -2  10   35.45    4.39
   1   2 -10  205.09    9.23
   1   2 -10  199.06   12.87
  -1  -2  10  220.44   13.40
  -1  -2  10  221.97   16.90
  -1  -2  10  193.78   11.02
  -1  -2  10  214.12   10.59
   0   2 -10   18.37    1.19
   0   2 -10   18.56    3.18
   0  -2  10   16.98    2.58
   0  -2  10   19.18    5.21
   0  -2  10   18.19    3.78
   0  -2  10   17.60    2.31
  -1   2 -10   27.76    1.67
   1  -2  10   31.82    2.70
   1  -2  10   33.61    5.74
   1  -2  10   29.26    4.12
  -2   2 -10   90.91    4.56
   2  -2  10  111.15   11.61
   2  -2  10   99.37    5.79
  -3   2 -10   15.03    1.10
   3  -2  10   17.13    2.20
  -4   2 -10   22.68    1.46
   4  -2  10   22.57    2.21
  -5   2 -10   35.18    2.07
   5  -2  10   36.94    2.88
  -6   2 -10   51.92    2.83
  -7   2 -10   10.66    1.15
   8   1 -10   19.17    1.53
  -8  -1  10   20.62    1.60
  -8  -1  10   17.90    5.52
   7   1 -10    9.22    1.10
  -7  -1  10   10.40    4.26
   6   1 -10   42.05    2.38
  -6  -1  10   40.31    6.93
   5   1 -10    6.79    0.84
  -5  -1  10    5.74    3.25
   4   1 -10   13.98    1.10
   4   1 -10   15.95    3.61
  -4  -1  10   15.58    3.52
  -4  -1  10   17.84    2.10
  -4  -1  10   16.97    5.27
   3   1 -10   34.26    1.90
   3   1 -10   31.52    4.19
  -3  -1  10   33.78    6.21
  -3  -1  10   30.83    4.22
  -3  -1  10   34.17    2.79
   2   1 -10    0.48    0.75
   2   1 -10    0.90    0.30
  -2  -1  10    0.04    1.18
  -2  -1  10    0.65    0.58
  -2  -1  10    0.31    0.52
  -2  -1  10    0.57    0.96
   1   1 -10    3.78    1.73
   1   1 -10    3.88    0.56
  -1  -1  10    3.69    2.60
  -1  -1  10    5.13    1.22
  -1  -1  10    2.36    0.93
  -1  -1  10    2.42    1.41
   0   1 -10    5.66    2.29
   0   1 -10    6.70    0.71
   0  -1  10    8.83    3.94
   0  -1  10    7.72    1.69
   0  -1  10    8.21    1.53
   0  -1  10    7.30    2.53
  -1   1 -10  125.31   10.30
  -1   1 -10  130.37    5.96
   1  -1  10  121.43    9.82
   1  -1  10  157.35    7.59
   1  -1  10  123.73    7.45
  -2   1 -10   69.56    3.47
  -2   1 -10   60.06    7.14
   2  -1  10   82.04    4.85
   2  -1  10   74.87    8.97
   2  -1  10   73.60    4.88
  -3   1 -10   13.07    0.99
   3  -1  10   12.46    1.99
  -4   1 -10  145.49    6.90
   4  -1  10  160.56    8.22
  -5   1 -10   73.81    3.76
   5  -1  10   78.30    4.80
  -6   1 -10   41.34    2.37
  -7   1 -10   51.34    2.86
  -8   1 -10   21.15    1.58
   8   0 -10    1.20    0.52
  -8   0  10    3.60    0.77
  -8   0  10    1.42    2.17
   7   0 -10    5.93    0.85
  -7   0  10    2.67    2.54
   6   0 -10    9.68    1.06
  -6   0  10   10.00    4.24
   5   0 -10    3.78    0.64
  -5   0  10    3.36    2.63
   4   0 -10   58.70    6.12
   4   0 -10   61.37    3.13
  -4   0  10   60.28    6.29
  -4   0  10   64.13    4.12
  -4   0  10   57.47    8.38
   3   0 -10   57.11    5.87
   3   0 -10   52.11    2.88
  -3   0  10   59.00    6.08
  -3   0  10   63.88    4.08
  -3   0  10   57.78    8.46
   2   0 -10    1.75    0.38
   2   0 -10    0.67    0.87
  -2   0  10    0.93    2.07
  -2   0  10    0.18    0.51
  -2   0  10    0.58    0.60
  -2   0  10    0.60    1.03
   1   0 -10  195.33   12.95
   1   0 -10  191.86    8.58
  -1   0  10  189.51   16.56
  -1   0  10  193.84    9.93
  -1   0  10  175.47    9.92
  -1   0  10  210.61   13.33
   0   0 -10   23.39    3.87
   0   0 -10   20.55    1.35
   0   0  10   24.70    2.43
   0   0  10   26.31    2.44
   0   0  10   22.38    3.79
   0   0  10   20.64    6.21
  -1   0 -10    3.59    0.53
  -1   0 -10    3.47    2.01
   1   0  10    4.31    1.18
   1   0  10    5.41    3.22
   1   0  10    4.57    1.25
  -2   0 -10    0.93    1.24
  -2   0 -10    0.56    0.27
   2   0  10    0.59    1.75
   2   0  10    1.86    0.79
   2   0  10    0.70    0.60
  -3   0 -10  216.14    9.85
   3   0  10  233.58   11.34
   3   0  10  220.91   17.72
   3   0  10  221.79   11.18
  -4   0 -10   31.92    1.84
   4   0  10   31.06    2.75
  -5   0 -10   10.78    1.01
  -5   0 -10    4.46    2.66
   5   0  10   11.61    1.86
  -6   0 -10   76.08    3.95
   6   0  10   83.82    5.29
  -7   0 -10   77.01    3.94
  -8   0 -10    7.92    1.03
   8  -1 -10   32.54    2.14
  -8   1  10   31.62    2.16
   7  -1 -10    0.83    0.37
  -7   1  10    0.36    1.76
   6  -1 -10   32.02    1.97
  -6   1  10   30.02    7.05
   5  -1 -10   24.17    1.61
  -5   1  10   29.16    7.38
   4  -1 -10   21.06    1.38
  -4   1  10   16.70    2.22
  -4   1  10   19.71    4.10
  -4   1  10   19.64    6.05
   3  -1 -10    7.48    0.82
   3  -1 -10    7.61    2.55
  -3   1  10    5.64    1.28
  -3   1  10    7.11    2.44
  -3   1  10    7.08    3.83
   2  -1 -10   36.11    4.63
   2  -1 -10   33.98    1.92
  -2   1  10   30.91    2.73
  -2   1  10   37.96    8.70
  -2   1  10   38.05    4.84
  -2   1  10   30.91    2.82
   1  -1 -10  161.22    7.30
   1  -1 -10  180.04   12.15
  -1   1  10  171.63   11.97
  -1   1  10  149.08    8.44
  -1   1  10  153.07    8.55
  -1   1  10  160.74   15.43
   0  -1 -10   -0.13    0.61
   0  -1 -10    0.49    0.24
   0   1  10    0.18    0.42
   0   1  10    0.15    1.20
   0   1  10    0.46    0.96
   0   1  10    0.94    0.64
  -1  -1 -10  266.18   11.45
  -1  -1 -10  237.84   16.96
   1   1  10  265.43   12.91
   1   1  10  247.10   20.22
   1   1  10  279.65   12.83
  -2  -1 -10   21.17    1.32
  -2  -1 -10   17.10    4.64
   2   1  10   21.05    2.06
   2   1  10   26.59    7.18
   2   1  10   17.93    2.38
  -3  -1 -10    0.43    1.19
  -3  -1 -10    0.50    0.26
   3   1  10    0.68    0.51
   3   1  10    2.35    0.95
   3   1  10    1.74    2.41
  -4  -1 -10    5.03    2.83
  -4  -1 -10   11.66    0.88
   4   1  10    9.75    1.46
   4   1  10    6.67    3.57
   4   1  10    8.49    1.71
  -5  -1 -10   67.32    3.40
   5   1  10   67.31    4.51
  -6  -1 -10   67.05    3.43
   6   1  10   64.67    4.41
  -7  -1 -10    1.88    0.50
  -8  -1 -10   69.98    3.70
  -9  -1 -10   82.10    4.29
   7  -2 -10   19.70    1.50
  -7   2  10   18.77    8.99
   6  -2 -10   33.12    2.03
  -6   2  10   31.10    7.55
   5  -2 -10    8.44    0.93
  -5   2  10    8.33    4.21
   4  -2 -10   51.78    2.70
  -4   2  10   44.80    7.99
   3  -2 -10   84.71    7.54
   3  -2 -10   84.09    3.91
  -3   2  10   76.72   10.48
  -3   2  10   72.92    4.89
  -3   2  10   85.12    7.67
  -3   2  10   72.56    4.67
   2  -2 -10    1.64    0.40
   2  -2 -10    1.74    1.25
  -2   2  10    1.78    0.74
  -2   2  10    3.19    1.76
  -2   2  10    1.79    2.45
  -2   2  10    1.33    0.82
   1  -2 -10    7.55    2.59
   1  -2 -10    6.81    0.76
  -1   2  10    5.39    3.55
  -1   2  10    5.57    2.37
  -1   2  10    7.76    1.62
  -1   2  10    6.78    1.35
   0  -2 -10   50.82    6.19
   0  -2 -10   47.70    2.43
   0   2  10   43.29    3.44
   0   2  10   46.29    5.68
   0   2  10   47.46    3.27
   0   2  10   41.16    7.69
  -1  -2 -10  138.21    6.05
  -1  -2 -10  122.66   11.08
   1   2  10  130.88    7.33
   1   2  10  145.94    7.15
   1   2  10  110.39   13.20
  -2  -2 -10    7.88    0.77
  -2  -2 -10    4.34    2.44
   2   2  10   10.34    1.84
   2   2  10    9.84    1.53
   2   2  10    6.21    3.73
  -3  -2 -10  159.97    6.90
   3   2  10  124.23   13.99
   3   2  10  144.04    8.12
   3   2  10  162.51    7.87
  -4  -2 -10  147.90    6.46
   4   2  10  136.74    7.72
   4   2  10  108.81   13.03
   4   2  10  153.48    7.42
  -5  -2 -10    0.68    1.26
   5   2  10    2.42    0.95
  -6  -2 -10   80.12    3.86
   6   2  10   70.09    4.86
  -7  -2 -10   45.23    2.56
  -8  -2 -10    9.54    1.08
  -9  -2 -10    0.81    0.43
   7  -3 -10    3.34    0.71
   6  -3 -10   21.53    1.58
  -6   3  10   28.48    7.41
   5  -3 -10   12.85    1.22
  -5   3  10   11.69    4.92
   4  -3 -10   75.16    3.67
  -4   3  10   65.70    9.92
   3  -3 -10   29.27    1.74
   3  -3 -10   34.47    4.60
  -3   3  10   26.51    7.60
  -3   3  10   25.69    2.17
  -3   3  10   33.29    4.59
  -3   3  10   25.16    2.53
   2  -3 -10   41.42    2.25
   2  -3 -10   45.17    5.42
  -2   3  10   41.25    3.24
  -2   3  10   44.11    5.44
  -2   3  10   38.30    2.78
  -2   3  10   39.08    9.56
   1  -3 -10  250.79   16.14
   1  -3 -10  251.96   10.82
  -1   3  10  228.90   11.51
  -1   3  10  255.68   16.27
  -1   3  10  241.79   12.08
   0  -3 -10   46.00    2.37
   0  -3 -10   47.62    6.14
   0   3  10   43.14    5.57
   0   3  10   34.40    8.88
   0   3  10   43.73    3.36
   0   3  10   47.94    3.05
  -1  -3 -10   29.96    1.69
  -1  -3 -10   26.85    5.89
   1   3  10   29.65    2.26
   1   3  10   23.23    7.51
   1   3  10   33.16    2.73
  -2  -3 -10   41.21    6.37
  -2  -3 -10   59.00    2.83
   2   3  10   62.20    4.03
   2   3  10   61.82    3.55
   2   3  10   39.51    9.31
  -3  -3 -10   86.41    4.01
   3   3  10   87.76    5.22
   3   3  10   85.68    4.70
   3   3  10   61.75    9.93
  -4  -3 -10    4.59    2.70
  -4  -3 -10    9.21    0.92
   4   3  10    9.32    1.76
   4   3  10    9.97    4.92
   4   3  10   10.66    1.46
  -5  -3 -10   44.09    2.31
   5   3  10   29.24    8.02
   5   3  10   43.59    2.91
   5   3  10   37.36    3.19
  -6  -3 -10   94.23    4.45
   6   3  10   84.22    5.54
  -7  -3 -10   22.10    1.55
  -8  -3 -10   61.44    3.32
  -9  -3 -10   47.18    2.76
   7  -4 -10   11.75    1.30
   6  -4 -10   12.90    1.28
   5  -4 -10    1.54    0.46
  -5   4  10    0.65    2.16
   4  -4 -10    1.37    0.42
  -4   4  10    1.24    2.60
   3  -4 -10   13.68    1.06
  -3   4  10   14.91    6.18
  -3   4  10   11.67    3.37
  -3   4  10   13.23    2.03
   2  -4 -10   30.02    4.42
   2  -4 -10   26.26    1.62
  -2   4  10   28.75    4.41
  -2   4  10   25.82    1.89
  -2   4  10   27.79    8.39
  -2   4  10   27.22    2.55
   1  -4 -10    0.34    0.93
   1  -4 -10    0.68    0.28
  -1   4  10    0.59    0.34
  -1   4  10    0.66    0.99
  -1   4  10    0.09    1.85
   0  -4 -10   14.62    4.17
   0  -4 -10   12.69    0.94
   0   4  10   10.17    3.24
   0   4  10   12.58    1.23
   0   4  10    8.59    4.65
  -1  -4 -10  102.15    4.52
  -1  -4 -10   92.58    9.51
   1   4  10   69.98   11.14
   1   4  10  100.12    5.03
  -2  -4 -10   15.56    4.71
  -2  -4 -10   20.89    1.30
   2   4  10   20.29    1.66
   2   4  10   19.01    7.17
  -3  -4 -10   36.45    1.97
   3   4  10   27.96    8.48
   3   4  10   35.41    2.41
  -4  -4 -10   90.43    4.45
   4   4  10  108.45    5.87
   4   4  10   97.92    5.09
   4   4  10   70.89   11.09
  -5  -4 -10   80.32    3.85
   5   4  10   78.51    4.44
   5   4  10   58.74   10.16
   5   4  10   84.37    5.11
  -6  -4 -10    2.47    0.51
   6   4  10    1.27    2.38
   6   4  10    1.56    0.96
  -7  -4 -10   25.31    1.69
  -8  -4 -10   85.96    4.36
  -9  -4 -10    6.65    0.95
   6  -5 -10   23.25    1.66
   5  -5 -10   11.69    1.22
   4  -5 -10  102.31    4.84
  -4   5  10   91.20   12.93
   3  -5 -10   21.12    1.40
  -3   5  10   15.99    6.49
   2  -5 -10    0.25    0.94
   2  -5 -10    0.32    0.25
  -2   5  10    0.02    0.83
  -2   5  10    0.04    2.16
  -2   5  10    0.36    0.20
   1  -5 -10    7.81    2.88
   1  -5 -10    9.16    0.90
  -1   5  10    8.76    3.05
  -1   5  10    2.82    3.18
  -1   5  10    6.34    0.69
   0  -5 -10   87.19    8.75
   0  -5 -10   87.12    3.98
   0  -5 -10   75.96    4.48
   0   5  10   87.10    8.35
   0   5  10   85.70    4.17
   0   5  10   57.33   10.61
  -1  -5 -10   69.67    4.23
  -1  -5 -10   80.50    3.72
  -1  -5 -10   81.54    8.87
   1   5  10   83.40    4.05
   1   5  10   54.09   10.21
  -2  -5 -10    1.51    1.64
  -2  -5 -10    1.09    0.33
  -2  -5 -10    1.21    0.55
   2   5  10    0.99    0.40
   2   5  10    1.85    2.64
  -3  -5 -10   70.51    3.51
   3   5  10   61.36   10.75
   3   5  10   76.32    4.01
  -4  -5 -10  124.87    5.59
   4   5  10   93.06   13.47
   4   5  10  123.95    6.10
  -5  -5 -10    2.15    0.46
   5   5  10    2.78    0.73
  -6  -5 -10  158.80    7.69
   6   5  10  164.01    8.39
   6   5  10  192.28    9.30
  -7  -5 -10   38.89    2.25
   7   5  10   37.06    3.25
  -8  -5 -10    1.24    0.47
  -9  -5 -10    5.50    0.84
   6  -6 -10    0.35    0.36
   5  -6 -10    3.02    0.62
   4  -6 -10   31.39    1.88
  -4   6  10   21.77    7.92
  -3   6  10    1.77    3.23
   2  -6 -10   66.34    3.24
   2  -6 -10   61.69    3.79
  -2   6  10   52.80   12.81
   1  -6 -10   28.53    2.28
   1  -6 -10   34.35    1.86
   1  -6 -10   31.69    4.88
  -1   6  10   32.24    1.66
  -1   6  10   29.58    4.67
  -1   6  10   23.10    7.97
   0  -6 -10    9.18    1.40
   0  -6 -10    6.47    2.92
   0  -6 -10    6.85    0.78
   0   6  10    8.21    0.72
   0   6  10    8.73    3.05
   0   6  10    4.88    4.10
  -1  -6 -10   32.76    1.88
  -1  -6 -10   34.73    2.44
  -1  -6 -10   32.21    5.46
   1   6  10   28.57    9.22
   1   6  10   34.31    2.02
  -2  -6 -10   61.89    3.00
  -2  -6 -10   57.86    3.55
  -2  -6 -10   40.55    6.65
   2   6  10   57.06   13.19
   2   6  10   66.84    3.33
  -3  -6 -10   12.54    0.98
  -3  -6 -10   16.43    1.81
  -3  -6 -10    8.16    3.60
   3   6  10    6.34    4.57
   3   6  10   16.98    1.45
  -4  -6 -10    6.91    1.23
  -4  -6 -10    6.48    0.77
  -5  -6 -10   21.10    1.38
  -5  -6 -10   18.37    1.77
  -6  -6 -10   65.45    3.37
  -7  -6 -10    0.77    0.35
  -8  -6 -10   88.28    4.45
  -9  -6 -10   74.17    3.92
   5  -7 -10    0.62    0.39
   4  -7 -10    5.01    0.74
   3  -7 -10   33.04    1.91
  -3   7  10   20.71    8.21
   2  -7 -10   57.01    2.82
   2  -7 -10   51.56    3.36
  -2   7  10   36.09   10.98
   1  -7 -10    2.13    0.74
   1  -7 -10    2.31    0.48
  -1   7  10    1.97    3.57
   0  -7 -10   79.59    3.70
   0  -7 -10   75.31    4.30
   0   7  10   56.46   13.54
   0   7  10   72.86    7.81
  -1  -7 -10  147.56    7.19
  -1  -7 -10  139.59   13.03
  -1  -7 -10  147.53    6.48
   1   7  10  113.74   16.19
  -2  -7 -10   -0.01    1.80
  -2  -7 -10   -0.09    0.18
  -2  -7 -10    0.37    0.40
   2   7  10    0.31    2.20
  -3  -7 -10  103.12    5.47
  -3  -7 -10   99.98    4.76
  -4  -7 -10   74.14    3.66
  -4  -7 -10   74.61    4.31
  -5  -7 -10   12.68    1.04
  -5  -7 -10   14.57    1.77
  -6  -7 -10    2.92    0.86
  -6  -7 -10    2.56    0.53
  -7  -7 -10   23.14    1.58
  -8  -7 -10   36.11    2.20
   2  -8 -10   18.47    2.10
  -2   8  10   10.36    6.22
   1  -8 -10   28.94    2.28
  -1   8  10   22.74    8.99
   0  -8 -10   24.25    1.99
   0   8  10   18.30    7.84
  -1  -8 -10    3.20    0.89
   1   8  10    3.31    4.31
  -2  -8 -10   31.87    2.39
  -3  -8 -10   97.89    5.33
  -4  -8 -10    8.20    1.28
  -5  -8 -10   55.14    3.53
  -6  -8 -10   73.20    4.39
  -7  -8 -10   17.13    2.13
   2  -9 -10   63.54    3.83
  -2   9  10   39.15   12.04
   1  -9 -10   14.47    1.77
  -1   9  10    7.27    5.62
   0  -9 -10   20.60    1.86
   0   9  10   11.52    6.75
  -1  -9 -10   58.45    3.55
   1   9  10   42.09   12.41
  -2  -9 -10   12.13    1.63
  -3  -9 -10    0.25    0.41
  -4  -9 -10   30.19    2.37
  -5  -9 -10   72.54    4.33
  -6  -9 -10    9.11    1.50
  -7  -9 -10    9.61    1.56
   1 -10 -10   17.17    2.09
  -1  10  10   11.54    7.32
   0 -10 -10   22.80    2.04
   0  10  10   14.16    7.91
  -1 -10 -10   63.25    3.91
   1  10  10   55.82   14.81
  -2 -10 -10   -0.15    0.38
  -3 -10 -10   47.16    3.21
  -4 -10 -10   27.45    2.26
  -5 -10 -10    2.97    0.89
  -6 -10 -10   21.47    2.03
  -2 -11 -10   10.99    1.67
  -3 -11 -10   25.31    2.23
  -3  -7  11   26.31    6.49
  -3  -7  11   33.21    2.84
  -2  -7  11    1.00    0.69
  -2  -7  11   -0.06    2.48
  -1  -7  11   11.62    1.93
   0  -7  11   17.94    2.42
  -5  -6  11    7.29    1.45
  -5  -6  11    6.56    3.80
  -4  -6  11    6.64    3.64
  -4  -6  11    6.00    1.33
  -3  -6  11   -0.13    0.47
  -3  -6  11   -0.27    1.24
  -2  -6  11   22.67    6.01
  -2  -6  11   23.53    2.73
  -1  -6  11   31.92    2.85
   0  -6  11    1.95    0.82
   1  -6  11   15.97    2.16
   2  -6  11   29.06    2.68
  -6  -5  11   29.87    7.50
  -5  -5  11   16.33    2.13
  -5  -5  11   14.79    5.34
  -4  -5  11    3.57    1.04
  -4  -5  11    3.37    2.62
  -3  -5  11   19.67    5.65
  -3  -5  11   20.29    2.42
  -2  -5  11   23.35    6.23
  -2  -5  11   18.25    2.38
  -1  -5  11    3.63    2.35
   0  -5  11   21.72    2.59
   1  -5  11   97.99    5.93
   2  -5  11   11.52    1.91
   3  -5  11   16.65    2.31
   4  -5  11   32.96    2.82
  -6  -4  11   11.85    4.51
  -5  -4  11    6.88    3.47
  -4  -4  11   63.76    4.15
  -4  -4  11   54.12    8.10
  -3  -4  11   13.63    4.77
  -3  -4  11   12.38    1.88
  -2  -4  11    8.62    3.77
  -2  -4  11    7.70    1.52
  -1  -4  11   14.40    4.79
  -1  -4  11   14.12    2.16
   0  -4  11    5.48    2.92
   0  -4  11    4.15    1.22
   1  -4  11    4.82    1.19
   2  -4  11   13.16    2.05
   3  -4  11   69.95    4.62
   4  -4  11   54.94    3.89
   5  -4  11   28.70    2.59
   7   3 -11    2.97    0.63
  -7  -3  11    4.19    2.88
   6   3 -11    4.55    0.71
  -6  -3  11    2.93    2.53
   5   3 -11    1.70    0.46
  -5  -3  11    1.28    1.77
   4   3 -11   22.79    1.51
  -4  -3  11   23.69    2.32
  -4  -3  11   22.53    6.24
   3   3 -11    0.83    0.33
  -3  -3  11    2.06    0.91
  -3  -3  11    2.20    2.29
   2   3 -11   92.09    4.57
  -2  -3  11  101.94    5.89
  -2  -3  11   96.61   10.81
   1   3 -11  113.67    5.65
  -1  -3  11  135.81   12.70
  -1  -3  11  126.08    7.05
   0   3 -11    1.69    0.41
   0  -3  11    2.12    1.94
   0  -3  11    3.17    1.10
  -1   3 -11   95.09    4.87
   1  -3  11  115.24   11.47
   1  -3  11  111.32    6.32
  -2   3 -11   99.20    4.95
   2  -3  11  115.25    6.40
  -3   3 -11    0.29    0.28
   3  -3  11    0.71    0.64
  -4   3 -11   14.52    1.13
   4  -3  11   11.91    1.88
   5  -3  11   17.70    2.24
   7   2 -11   12.47    1.33
  -7  -2  11   12.42    4.99
   6   2 -11   23.95    1.62
  -6  -2  11   20.69    6.03
   5   2 -11    0.16    0.29
  -5  -2  11   -0.09    1.31
   4   2 -11    2.06    0.47
  -4  -2  11    1.52    2.11
  -4  -2  11    1.36    0.82
   3   2 -11   18.96    1.34
   3   2 -11   20.39    3.46
  -3  -2  11   20.09    4.14
  -3  -2  11   25.70    2.37
  -3  -2  11   16.50    5.23
   2   2 -11    9.49    0.96
   2   2 -11    7.28    2.40
  -2  -2  11    9.98    1.75
  -2  -2  11   11.22    4.44
  -2  -2  11    8.34    1.99
  -2  -2  11    9.59    2.88
   1   2 -11    7.09    0.79
   1   2 -11    4.64    1.90
  -1  -2  11    4.16    1.46
  -1  -2  11    5.03    2.09
  -1  -2  11    6.41    3.53
  -1  -2  11    5.87    1.36
   0   2 -11   45.38    2.46
   0  -2  11   50.44    7.53
   0  -2  11   48.51    3.65
   0  -2  11   42.67    6.67
   0  -2  11   46.42    9.29
  -1   2 -11   70.36    3.65
   1  -2  11   80.47    5.03
   1  -2  11   80.51    9.46
  -2   2 -11    1.92    0.42
   2  -2  11    0.84    0.77
  -3   2 -11  105.74    5.17
   3  -2  11  116.19    6.54
  -4   2 -11   79.10    4.00
   4  -2  11   83.44    5.16
  -5   2 -11    1.03    0.36
   5  -2  11    1.15    0.70
  -6   2 -11   23.60    1.64
  -7   2 -11   32.60    2.09
   7   1 -11   10.53    1.17
  -7  -1  11    4.70    3.17
   6   1 -11    0.22    0.31
  -6  -1  11   -0.58    1.16
   5   1 -11   57.69    3.04
  -5  -1  11   52.90    8.28
   4   1 -11   44.32    2.51
  -4  -1  11   43.17    3.40
  -4  -1  11   53.60    8.13
   3   1 -11    2.44    0.51
   3   1 -11    2.23    1.47
  -3  -1  11    2.48    2.53
  -3  -1  11    1.09    1.21
  -3  -1  11    3.19    1.03
   2   1 -11   61.90    6.22
   2   1 -11   59.82    2.97
  -2  -1  11   63.26    8.86
  -2  -1  11   51.14    4.24
  -2  -1  11   50.67    5.88
  -2  -1  11   55.74    4.03
   1   1 -11   56.96    2.96
   1   1 -11   60.35    6.25
  -1  -1  11   60.24    4.17
  -1  -1  11   61.97    6.43
  -1  -1  11   58.98    8.53
  -1  -1  11   50.13    4.24
   0   1 -11   11.50    3.29
   0   1 -11   11.37    0.92
   0  -1  11    8.50    1.82
   0  -1  11   12.22    3.38
   0  -1  11   14.13    5.02
   0  -1  11   13.00    2.07
  -1   1 -11    0.57    1.05
  -1   1 -11    0.65    0.28
   1  -1  11    1.31    1.28
   1  -1  11    1.02    1.74
   1  -1  11    0.59    0.58
   1  -1  11    0.94    0.74
  -2   1 -11   33.01    1.88
  -2   1 -11   33.91    5.25
   2  -1  11   32.45    7.34
   2  -1  11   28.95    2.77
  -3   1 -11   56.30    3.00
   3  -1  11   62.06    4.25
  -4   1 -11   21.80    1.51
   4  -1  11   26.95    2.52
  -5   1 -11   41.45    2.43
   5  -1  11   48.26    3.54
  -6   1 -11  138.01    6.51
  -7   1 -11   26.64    1.80
   7   0 -11    9.17    1.11
   6   0 -11    6.06    0.89
  -6   0  11    6.07    3.77
   5   0 -11   14.52    1.20
  -5   0  11   23.57    6.79
   4   0 -11    1.08    0.37
  -4   0  11    0.27    0.56
  -4   0  11    0.72    1.88
   3   0 -11   22.97    1.51
  -3   0  11   21.30    2.58
  -3   0  11   19.67    6.23
  -3   0  11   25.97    4.09
   2   0 -11   87.41    7.89
   2   0 -11   86.48    4.23
  -2   0  11   88.36    8.08
  -2   0  11   76.91    5.46
  -2   0  11   92.87    5.57
  -2   0  11   97.57   11.45
   1   0 -11    6.95    2.45
   1   0 -11    6.41    0.77
  -1   0  11   12.61    5.15
  -1   0  11    8.75    2.85
  -1   0  11    6.28    1.45
   0   0 -11   52.27    2.82
   0   0 -11   59.04    6.60
   0   0  11   64.44    4.26
   0   0  11   55.70    8.54
   0   0  11   55.84    6.39
   0   0  11   50.88    4.03
  -1   0 -11  103.58    9.59
  -1   0 -11  102.51    4.78
   1   0  11  101.35    6.17
   1   0  11  112.88   12.29
   1   0  11  102.38    6.23
   1   0  11   89.14    8.70
  -2   0 -11   17.93    1.24
  -2   0 -11   14.65    4.27
   2   0  11   18.47    5.95
   2   0  11   24.00    2.89
   2   0  11   18.72    2.15
  -3   0 -11   13.80    4.30
  -3   0 -11   20.84    1.35
   3   0  11   20.26    2.61
   3   0  11   26.38    6.87
  -4   0 -11   74.13    3.69
   4   0  11   71.72    4.86
  -5   0 -11    6.35    0.83
   5   0  11    8.22    1.67
  -6   0 -11    0.13    0.29
   6   0  11    0.38    0.57
  -7   0 -11    8.36    1.05
  -8   0 -11  108.18    5.39
   7  -1 -11   19.47    1.52
  -7   1  11   20.70    6.23
   6  -1 -11   17.54    1.37
  -6   1  11   16.16    5.46
   5  -1 -11    6.10    0.86
  -5   1  11    3.94    3.18
   4  -1 -11   27.96    1.78
  -4   1  11   30.29    7.95
   3  -1 -11   27.25    1.73
  -3   1  11   29.47    2.72
  -3   1  11   28.92    7.72
   2  -1 -11    0.14    0.24
   2  -1 -11    0.29    0.71
  -2   1  11    0.49    1.11
  -2   1  11   -0.18    1.34
  -2   1  11   -0.24    0.53
  -2   1  11    0.02    0.39
   1  -1 -11   34.29    4.90
   1  -1 -11   31.84    1.85
  -1   1  11   27.59    2.69
  -1   1  11   31.34    2.86
  -1   1  11   31.57    4.75
  -1   1  11   38.98    8.96
   0  -1 -11   18.76    4.48
   0  -1 -11   21.90    1.35
   0   1  11   21.50    6.63
   0   1  11   18.87    2.12
   0   1  11   22.67    4.74
   0   1  11   17.52    2.45
  -1  -1 -11   96.66    4.51
  -1  -1 -11   96.43    9.47
   1   1  11   88.81    5.79
   1   1  11   88.70   11.41
   1   1  11   98.71    5.78
  -2  -1 -11   24.78    1.47
  -2  -1 -11   16.39    4.75
   2   1  11   22.58    6.78
   2   1  11   24.72    2.34
   2   1  11   20.51    2.68
  -3  -1 -11  144.57    6.61
   3   1  11  152.27    8.16
   3   1  11  143.15    7.77
   3   1  11  131.19   14.09
  -4  -1 -11   26.20    6.37
  -4  -1 -11   44.05    2.32
   4   1  11   47.16    3.56
  -5  -1 -11   -0.09    0.23
   5   1  11    0.48    0.61
  -6  -1 -11  112.67    5.56
   6   1  11  122.15    6.91
  -7  -1 -11   17.87    1.39
  -8  -1 -11    0.79    0.43
   7  -2 -11    0.78    0.46
  -7   2  11   -0.48    1.85
   6  -2 -11    0.22    0.33
  -6   2  11    0.97    2.43
   5  -2 -11   43.52    2.50
  -5   2  11   42.51    7.92
   4  -2 -11   26.86    1.76
  -4   2  11   34.61    8.63
   3  -2 -11    0.21    0.26
  -3   2  11    0.76    0.67
  -3   2  11   -0.22    1.60
   2  -2 -11   51.75    6.06
   2  -2 -11   53.83    2.71
  -2   2  11   53.55    6.23
  -2   2  11   43.46    3.73
  -2   2  11   49.45    8.75
  -2   2  11   46.73    3.72
   1  -2 -11  130.97    5.81
   1  -2 -11  135.35   10.74
  -1   2  11  118.91   13.97
  -1   2  11  126.83   10.52
  -1   2  11  114.66    6.76
  -1   2  11  117.17    7.06
   0  -2 -11   23.31    1.42
   0  -2 -11   23.58    5.13
   0   2  11   19.25    4.57
   0   2  11   21.47    7.12
   0   2  11   14.40    2.29
   0   2  11   24.04    2.21
  -1  -2 -11   18.73    1.25
  -1  -2 -11   17.51    4.73
   1   2  11   19.07    1.95
   1   2  11   15.01    5.69
   1   2  11   23.65    2.89
  -2  -2 -11   36.10    5.97
  -2  -2 -11   45.14    2.33
   2   2  11   36.70    9.00
   2   2  11   41.46    3.43
   2   2  11   45.79    3.22
  -3  -2 -11  105.48    4.75
   3   2  11   95.27    6.04
   3   2  11   74.45   10.99
   3   2  11  107.96    5.78
  -4  -2 -11    1.34    1.74
  -4  -2 -11    5.72    0.74
   4   2  11    5.80    1.46
   4   2  11    5.06    1.07
   4   2  11    5.10    3.57
  -5  -2 -11  110.72    5.22
   5   2  11  105.82    6.53
  -6  -2 -11   52.84    2.84
   6   2  11   49.60    3.90
  -7  -2 -11    2.55    0.56
  -8  -2 -11   56.86    3.18
   6  -3 -11    5.00    0.84
  -6   3  11    4.02    3.17
   5  -3 -11    3.43    0.63
  -5   3  11    3.08    3.27
   4  -3 -11    1.39    0.42
  -4   3  11    1.14    2.24
   3  -3 -11   12.85    1.06
  -3   3  11   12.96    5.50
  -3   3  11   13.88    2.23
   2  -3 -11   53.27    2.67
  -2   3  11   52.59    9.25
  -2   3  11   43.11    3.62
  -2   3  11   43.59    6.22
   1  -3 -11   63.58    6.99
   1  -3 -11   53.81    2.82
  -1   3  11   57.75    4.08
  -1   3  11   50.28    3.46
  -1   3  11   44.46   10.44
  -1   3  11   53.86    6.48
   0  -3 -11  103.84    9.59
   0  -3 -11   90.15    4.24
   0   3  11   86.54    8.59
   0   3  11   82.32    5.41
   0   3  11   89.33    5.02
   0   3  11   64.46   10.67
  -1  -3 -11  115.90    5.07
  -1  -3 -11   98.85   10.13
   1   3  11   89.25   12.51
   1   3  11  110.87    6.40
   1   3  11  106.55    5.83
  -2  -3 -11    0.94    1.43
  -2  -3 -11    0.46    0.27
   2   3  11    1.36    1.94
   2   3  11    0.50    0.45
   2   3  11    0.40    0.58
  -3  -3 -11   70.86    3.49
   3   3  11   75.82    4.32
   3   3  11   72.88    4.80
   3   3  11   50.98    9.33
  -4  -3 -11   63.98    3.23
   4   3  11   69.46    4.03
   4   3  11   59.42    4.39
   4   3  11   48.25    9.03
  -5  -3 -11   35.77    2.04
   5   3  11   38.66    2.75
   5   3  11   29.27    2.95
   5   3  11   22.98    7.46
  -6  -3 -11   -0.17    0.23
   6   3  11   -0.25    0.56
  -7  -3 -11   80.84    4.13
  -8  -3 -11   89.51    4.56
   6  -4 -11   -0.12    0.30
   5  -4 -11   27.55    1.83
  -5   4  11   26.74    7.96
   4  -4 -11   21.39    1.52
  -4   4  11   24.68    7.84
   3  -4 -11    1.49    0.46
  -3   4  11    1.27    2.71
  -3   4  11    1.11    0.87
   2  -4 -11   29.07    1.73
  -2   4  11   27.19    3.09
  -2   4  11   20.53    7.35
   1  -4 -11   46.95    2.53
  -1   4  11   53.96    3.83
  -1   4  11   36.03    9.69
  -1   4  11   45.66    6.03
   0  -4 -11   51.81    6.80
   0  -4 -11   51.24    2.66
   0   4  11   47.18    6.23
   0   4  11   57.39    3.98
   0   4  11   49.27    3.13
   0   4  11   39.98   10.14
  -1  -4 -11   31.00    1.76
  -1  -4 -11   23.83    5.67
   1   4  11   32.79    2.88
   1   4  11   30.46    2.22
   1   4  11   22.08    7.60
  -2  -4 -11   46.28    2.40
  -2  -4 -11   30.82    6.87
   2   4  11   46.46    2.95
   2   4  11   30.73    8.93
   2   4  11   54.45    3.77
  -3  -4 -11  167.89    7.29
  -3  -4 -11  128.56   15.50
   3   4  11  176.12    8.05
   3   4  11  120.38   15.53
   3   4  11  171.69    8.79
  -4  -4 -11    3.40    0.59
   4   4  11    3.69    0.90
   4   4  11    1.72    2.76
   4   4  11    4.11    1.31
  -5  -4 -11   30.85    1.85
   5   4  11   18.53    6.88
   5   4  11   30.54    2.44
   5   4  11   30.20    3.43
  -6  -4 -11   69.09    3.50
   6   4  11   63.17    4.66
  -7  -4 -11    8.99    1.02
  -8  -4 -11    2.41    0.60
   6  -5 -11    1.33    0.50
   5  -5 -11   57.78    3.17
  -5   5  11   57.46   10.23
   4  -5 -11   25.84    1.72
  -4   5  11   24.48    8.25
   3  -5 -11   28.81    1.83
  -3   5  11   23.37    8.31
  -3   5  11   31.96    3.01
   2  -5 -11   56.51    2.92
  -2   5  11   46.29   11.60
   1  -5 -11   15.87    1.15
  -1   5  11    9.63    5.48
   0  -5 -11   70.46    3.29
   0   5  11   45.70   11.51
   0   5  11   59.25    7.88
  -1  -5 -11   94.26    4.26
   1   5  11   69.26   11.99
  -2  -5 -11    1.56    0.40
   2   5  11    0.87    2.41
  -3  -5 -11    6.58    0.79
   3   5  11    4.12    3.91
  -4  -5 -11   27.58    1.68
   4   5  11   24.62    8.50
  -5  -5 -11  105.20    4.83
   5   5  11   74.96   12.51
   5   5  11  104.61    6.24
  -6  -5 -11   26.86    1.72
   6   5  11   20.74    8.00
   6   5  11   28.88    3.33
  -7  -5 -11   38.07    2.29
   7   5  11   38.36    3.44
  -8  -5 -11   81.88    4.22
   5  -6 -11    5.02    0.81
   4  -6 -11   10.55    1.12
  -4   6  11   10.75    5.98
   3  -6 -11   30.28    1.91
  -3   6  11   31.71   10.14
   2  -6 -11   17.10    1.25
  -2   6  11   14.02    6.75
   1  -6 -11    8.53    0.92
  -1   6  11    8.45    5.59
   0  -6 -11   55.82    3.68
   0  -6 -11   65.95    3.14
   0   6  11   48.53   12.40
  -1  -6 -11   33.65    1.86
  -1  -6 -11   28.29    2.32
   1   6  11   24.01    9.00
  -2  -6 -11    2.35    0.72
  -2  -6 -11    2.32    0.46
   2   6  11    3.23    3.85
  -3  -6 -11   59.29    3.90
  -3  -6 -11   71.46    3.35
   3   6  11   57.55   13.49
  -4  -6 -11   54.98    2.82
   4   6  11   42.48   11.48
  -5  -6 -11   -0.22    0.22
   5   6  11    1.21    2.74
  -6  -6 -11   12.09    1.20
  -7  -6 -11   67.53    3.61
   7   6  11   71.74    5.02
  -8  -6 -11   29.45    1.94
   4  -7 -11   19.57    1.48
   3  -7 -11    4.44    0.75
  -3   7  11    5.66    5.18
   2  -7 -11   16.49    2.06
   2  -7 -11   17.65    1.29
  -2   7  11   13.52    7.11
   1  -7 -11   21.77    1.41
   1  -7 -11   17.77    2.09
  -1   7  11   14.83    7.30
   0  -7 -11   27.31    2.30
   0  -7 -11   30.12    1.75
   0   7  11   20.08    8.37
  -1  -7 -11    6.04    1.17
  -1  -7 -11    7.03    0.84
   1   7  11    5.42    4.92
  -2  -7 -11  105.31    5.67
  -2  -7 -11  107.73    4.88
   2   7  11   78.96   13.73
  -3  -7 -11   34.86    1.94
  -3  -7 -11   31.47    2.51
   3   7  11   26.73    9.45
  -4  -7 -11    1.38    0.42
  -4  -7 -11    1.93    0.76
  -5  -7 -11   86.43    4.16
  -5  -7 -11   80.27    4.86
  -6  -7 -11   40.95    2.37
  -7  -7 -11   13.19    1.30
  -8  -7 -11   25.32    1.77
  -3   8  11   16.08   11.07
   2  -8 -11   38.50    2.84
  -2   8  11   22.28    8.85
   1  -8 -11    2.71    0.88
  -1   8  11    0.58    2.81
   0  -8 -11   19.42    2.17
   0   8  11   11.37    6.88
  -1  -8 -11   25.52    2.14
   1   8  11   15.49    7.92
  -2  -8 -11   12.27    1.67
   2   8  11   13.62    7.43
  -3  -8 -11    0.31    0.27
  -3  -8 -11    0.00    0.41
   3   8  11   -0.19    2.80
  -4  -8 -11   30.97    1.92
  -4  -8 -11   35.66    2.66
  -5  -8 -11   69.46    4.33
  -5  -8 -11   70.75    3.59
  -6  -8 -11    8.73    1.51
  -6  -8 -11    7.91    0.97
  -7  -8 -11   31.98    2.75
  -7  -8 -11   36.99    2.18
   2  -9 -11    1.97    0.82
  -2   9  11    2.01    3.90
   1  -9 -11   12.88    1.84
  -1   9  11   11.76    6.92
   0  -9 -11   65.02    3.98
   0   9  11   41.37   12.53
  -1  -9 -11    8.68    1.47
   1   9  11    7.60    5.63
  -2  -9 -11   40.21    2.93
   2   9  11   32.74   11.37
  -3  -9 -11   87.85    5.11
  -4  -9 -11    5.75    1.19
  -5  -9 -11    1.34    0.62
  -6  -9 -11   19.19    2.23
   0 -10 -11    3.26    0.98
   0  10  11    4.27    5.63
  -1 -10 -11    9.47    1.60
   1  10  11    2.49    4.52
  -2 -10 -11   31.33    2.52
   2  10  11   17.93    9.07
  -3 -10 -11   10.93    1.67
  -4 -10 -11   37.66    2.91
  -5 -10 -11   49.08    3.48
  -2  -6  12    4.35    3.08
  -2  -6  12    7.38    1.68
  -1  -6  12    2.39    1.03
   0  -6  12   74.58    5.04
  -4  -5  12   21.85    6.30
  -4  -5  12   23.67    2.73
  -3  -5  12    3.60    2.72
  -3  -5  12    3.56    1.16
  -2  -5  12    9.89    1.84
  -2  -5  12    6.92    3.67
  -1  -5  12   42.14    3.55
  -1  -5  12   48.39    7.35
   0  -5  12   20.24    2.65
   1  -5  12    1.44    0.85
   2  -5  12   29.55    2.84
  -5  -4  12    6.82    3.96
  -4  -4  12    2.84    1.04
  -4  -4  12    1.49    2.09
  -3  -4  12   22.05    2.74
  -3  -4  12   21.84    6.15
  -2  -4  12   46.76    7.56
  -2  -4  12   40.87    3.48
  -1  -4  12    1.10    1.94
  -1  -4  12    1.38    0.78
   0  -4  12   44.88    3.60
   1  -4  12   57.37    4.25
   2  -4  12   16.65    2.39
   3  -4  12    3.62    1.15
   4  -4  12   36.23    3.13
   6   3 -12    5.00    0.81
  -6  -3  12    5.01    3.46
   5   3 -12    6.70    0.90
  -5  -3  12    8.88    4.50
   4   3 -12   13.43    1.28
  -4  -3  12   16.58    5.57
  -4  -3  12   14.45    2.17
   3   3 -12    8.41    0.96
  -3  -3  12    8.92    1.69
  -3  -3  12   11.88    4.85
   2   3 -12    6.17    0.80
  -2  -3  12    7.56    1.57
  -2  -3  12    6.76    3.83
   1   3 -12   -0.09    0.23
  -1  -3  12    0.10    1.31
  -1  -3  12    0.26    0.62
   0   3 -12   39.73    2.37
   0  -3  12   48.06    7.43
   0  -3  12   48.37    3.70
  -1   3 -12   13.70    1.07
   1  -3  12   12.67    2.08
  -2   3 -12   16.12    1.93
   2  -3  12   22.12    2.81
   3  -3  12   57.83    4.20
   4  -3  12   34.15    3.04
   5  -3  12    2.91    1.08
   6   2 -12    0.52    0.39
  -6  -2  12    1.22    2.10
   5   2 -12   39.75    2.40
  -5  -2  12   43.84    7.67
   4   2 -12    8.80    1.01
  -4  -2  12   10.63    4.70
  -4  -2  12    9.64    1.77
   3   2 -12   26.72    1.76
  -3  -2  12   30.62    7.82
  -3  -2  12   29.99    2.78
   2   2 -12   33.00    2.04
  -2  -2  12   37.20    3.15
  -2  -2  12   39.16    7.05
   1   2 -12   21.15    1.38
  -1  -2  12   20.13    2.62
  -1  -2  12   13.62    2.91
  -1  -2  12   19.79    6.12
   0   2 -12    4.09    0.63
   0  -2  12    6.24    3.52
   0  -2  12    5.03    1.35
  -1   2 -12    4.31    0.67
   1  -2  12    6.72    3.56
   1  -2  12    8.01    1.64
  -2   2 -12   40.81    2.34
   2  -2  12   45.77    3.63
  -3   2 -12   37.56    2.23
   3  -2  12   42.67    3.44
  -4   2 -12    1.10    0.42
   4  -2  12    2.48    1.01
  -5   2 -12  125.43    6.18
   5  -2  12  137.42    7.53
  -6   2 -12   48.22    2.77
   6   1 -12    3.51    0.73
  -6  -1  12    3.59    3.07
   5   1 -12    6.41    0.90
  -5  -1  12    7.81    4.41
   4   1 -12    4.47    0.70
  -4  -1  12    5.11    1.33
  -4  -1  12    5.39    3.34
   3   1 -12   49.23    2.70
  -3  -1  12   50.10    3.78
  -3  -1  12   46.42    8.08
   2   1 -12   52.74    2.88
  -2  -1  12   55.74    4.09
  -2  -1  12   54.39    8.63
   1   1 -12    0.31    0.26
   1   1 -12    0.69    1.13
  -1  -1  12    0.28    1.07
  -1  -1  12    0.03    1.56
  -1  -1  12   -0.02    0.62
   0   1 -12   88.94    4.33
   0   1 -12   87.66    8.37
   0  -1  12   92.49    8.63
   0  -1  12  100.71    5.93
   0  -1  12   78.43    5.83
   0  -1  12   87.43   10.95
  -1   1 -12   76.36    3.79
  -1   1 -12   75.53    7.95
   1  -1  12   77.02   10.08
   1  -1  12   81.67    5.26
   1  -1  12   69.66    7.62
  -2   1 -12    0.23    0.27
   2  -1  12   -0.27    1.47
   2  -1  12    0.76    0.72
  -3   1 -12   17.01    1.27
   3  -1  12   20.02    2.62
  -4   1 -12   20.66    1.45
   4  -1  12   18.15    2.58
  -5   1 -12   20.58    1.52
   5  -1  12   24.66    2.95
  -6   1 -12    1.96    0.52
   6   0 -12    1.59    0.52
  -6   0  12    2.17    2.75
   5   0 -12   10.96    1.17
  -5   0  12    7.26    3.89
   4   0 -12   20.50    1.53
  -4   0  12   28.82    7.64
  -4   0  12   24.62    2.86
   3   0 -12   13.52    1.14
  -3   0  12   15.78    5.81
  -3   0  12   14.70    2.22
  -2   0  12    0.10    1.46
  -2   0  12    1.99    0.92
   1   0 -12   40.15    2.31
  -1   0  12   47.51    8.24
  -1   0  12   41.77    3.51
  -1   0  12   40.74    5.57
   0   0 -12   78.83    3.83
   0   0 -12   73.52    7.84
   0   0  12   76.13    7.95
   0   0  12   67.41    5.09
   0   0  12   84.97    5.36
   0   0  12   85.12   10.96
  -1   0 -12    0.04    0.96
  -1   0 -12    0.81    0.32
   1   0  12    0.30    1.10
   1   0  12    0.25    0.63
   1   0  12    0.62    0.67
   1   0  12   -0.34    1.57
  -2   0 -12   71.39    8.51
  -2   0 -12   79.12    3.97
   2   0  12   82.58    5.40
   2   0  12   84.49   10.80
   2   0  12   86.29    5.50
  -3   0 -12   80.86    9.75
  -3   0 -12   98.63    4.66
   3   0  12  105.12    6.23
  -4   0 -12    2.16    0.49
   4   0  12   -0.03    0.59
  -5   0 -12   27.70    1.85
   5   0  12   32.54    2.95
  -6   0 -12   56.36    3.05
   6   0  12   53.23    4.07
  -7   0 -12   20.93    1.58
   6  -1 -12   11.22    1.24
  -6   1  12   12.46    4.92
   5  -1 -12   31.61    2.03
  -5   1  12   33.48    8.31
   4  -1 -12    4.50    0.73
  -4   1  12    3.26    2.96
   3  -1 -12   33.79    2.02
  -3   1  12   29.10    8.16
  -3   1  12   32.24    3.01
   2  -1 -12   37.62    2.23
  -2   1  12   42.92    9.99
  -2   1  12   39.47    3.38
   1  -1 -12   12.87    1.04
  -1   1  12   10.98    1.96
  -1   1  12   14.10    5.94
   0  -1 -12   -0.01    0.89
   0  -1 -12    0.09    0.23
   0   1  12    0.28    0.62
   0   1  12    0.48    2.12
   0   1  12    1.08    1.10
   0   1  12    0.59    0.72
  -1  -1 -12   75.04    8.37
  -1  -1 -12   72.71    3.50
   1   1  12   64.73    7.53
   1   1  12   63.93    9.98
   1   1  12   65.90    4.61
   1   1  12   65.34    4.77
  -2  -1 -12   78.23    9.35
  -2  -1 -12   89.14    4.35
   2   1  12   93.55    5.64
   2   1  12   89.34   11.70
   2   1  12   93.40    5.88
  -3  -1 -12   10.65    1.06
   3   1  12    7.88    1.61
   3   1  12    9.22    4.64
   3   1  12    7.55    1.76
  -4  -1 -12   52.43    2.93
   4   1  12   59.91    4.32
  -5  -1 -12  114.05    5.55
   5   1  12  116.81    6.98
  -6  -1 -12   37.76    2.27
   6   1  12   36.49    3.28
  -7  -1 -12   44.19    2.62
   6  -2 -12    0.39    0.39
  -6   2  12    0.23    1.82
   5  -2 -12    2.57    0.61
  -5   2  12    1.64    2.71
   4  -2 -12    1.88    0.48
  -4   2  12    1.09    2.37
   3  -2 -12   88.29    4.33
  -3   2  12   81.44   11.66
  -3   2  12   87.90    5.67
   2  -2 -12   11.20    1.12
  -2   2  12    9.99    1.90
  -2   2  12   10.95    5.48
   1  -2 -12    9.26    0.98
  -1   2  12    5.77    4.06
  -1   2  12    9.15    1.77
   0  -2 -12   71.11    3.41
   0   2  12   55.69    9.10
   0   2  12   65.60    4.68
   0   2  12   61.66   10.18
  -1  -2 -12   21.79    1.43
   1   2  12   20.03    4.80
   1   2  12   22.41    2.94
   1   2  12   19.76    6.91
   1   2  12   21.21    2.98
  -2  -2 -12   14.11    1.08
   2   2  12   12.17    5.50
   2   2  12   12.57    1.84
   2   2  12   14.01    2.35
  -3  -2 -12   15.61    1.11
   3   2  12   12.48    2.19
   3   2  12   10.26    5.10
   3   2  12   10.32    1.64
  -4  -2 -12   48.61    2.62
   4   2  12   50.68    3.54
   4   2  12   43.39    3.75
   4   2  12   35.94    9.09
  -5  -2 -12    1.04    0.40
   5   2  12    0.92    0.75
  -6  -2 -12   11.86    1.21
   6   2  12   11.33    2.09
  -7  -2 -12   32.86    2.11
   6  -3 -12    5.27    0.86
  -6   3  12    3.37    3.53
   5  -3 -12   32.51    2.07
  -5   3  12   29.62    8.20
   4  -3 -12    0.73    0.42
  -4   3  12    1.11    2.45
   3  -3 -12    0.58    0.38
  -3   3  12    1.14    0.88
  -3   3  12   -0.13    1.97
   2  -3 -12   59.72    3.06
  -2   3  12   55.28   10.05
  -2   3  12   52.01    4.20
   1  -3 -12   14.50    1.14
  -1   3  12   13.70    6.24
  -1   3  12   12.53    2.19
   0  -3 -12    4.55    0.68
   0   3  12    6.43    4.77
   0   3  12    3.64    1.22
  -1  -3 -12    0.87    0.32
   1   3  12   -0.13    0.59
   1   3  12    0.00    2.16
  -2  -3 -12  144.66    6.16
   2   3  12  103.78   14.12
   2   3  12  129.88    7.65
  -3  -3 -12   81.20    3.82
   3   3  12   78.45    5.25
   3   3  12   57.02   10.24
  -4  -3 -12    0.29    0.27
   4   3  12    1.15    0.95
   4   3  12   -0.14    1.80
  -5  -3 -12   53.73    2.85
   5   3  12   47.02    3.99
  -6  -3 -12   88.32    4.29
   6   3  12   76.46    5.50
  -7  -3 -12    1.49    0.48
  -8  -3 -12   39.10    2.44
   5  -4 -12   31.09    2.07
  -5   4  12   34.27    9.57
   4  -4 -12   -0.16    0.25
  -4   4  12    0.41    2.45
   3  -4 -12    9.76    1.07
  -3   4  12   11.46    2.15
  -3   4  12    8.79    5.19
   2  -4 -12   52.68    2.82
  -2   4  12   48.02    4.00
  -2   4  12   54.35   12.10
   1  -4 -12    3.68    0.62
  -1   4  12    3.37    3.30
  -1   4  12    3.54    1.31
   0  -4 -12   12.30    1.17
   0   4  12   11.82    2.09
   0   4  12   11.02    6.12
  -1  -4 -12    9.50    0.96
   1   4  12   11.53    2.20
   1   4  12    8.64    4.97
  -2  -4 -12    7.50    0.84
   2   4  12    9.82    5.30
   2   4  12   10.43    1.96
  -3  -4 -12    0.15    0.26
   3   4  12   -0.29    1.62
   3   4  12    1.39    1.02
  -4  -4 -12   56.89    2.84
   4   4  12   49.60    4.05
   4   4  12   37.88   10.34
  -5  -4 -12   58.81    3.06
   5   4  12   56.14    4.37
   5   4  12   45.83   11.30
  -6  -4 -12    0.74    0.39
   6   4  12   -0.04    0.80
  -7  -4 -12   13.06    1.29
  -8  -4 -12   24.84    1.79
   5  -5 -12    0.51    0.41
  -5   5  12    1.17    2.94
   4  -5 -12   12.07    1.27
  -4   5  12   10.36    5.65
   3  -5 -12   26.93    1.77
  -3   5  12   20.38    7.66
   2  -5 -12    1.18    0.40
  -2   5  12    0.63    2.65
  -2   5  12    0.31    0.82
   1  -5 -12   63.03    3.27
  -1   5  12   66.26    4.70
  -1   5  12   51.82   12.98
   0  -5 -12  157.68    7.14
   0   5  12  179.66    9.01
   0   5  12  115.89   16.37
  -1  -5 -12   10.35    1.06
   1   5  12    6.63    4.66
   1   5  12   11.00    2.10
  -2  -5 -12  117.84    5.80
   2   5  12  135.40    7.50
  -3  -5 -12   51.47    2.78
   3   5  12   52.64    4.11
  -4  -5 -12    3.58    0.62
   4   5  12    3.82    4.36
   4   5  12    3.93    1.31
  -5  -5 -12    6.27    0.87
   5   5  12    5.01    4.38
   5   5  12    7.72    1.77
  -6  -5 -12   51.09    2.69
   6   5  12   30.25    9.34
   6   5  12   43.49    3.85
  -7  -5 -12   66.51    3.45
   7   5  12   57.26    4.67
   4  -6 -12    3.36    0.65
  -4   6  12    4.23    4.33
   3  -6 -12    0.54    0.36
  -3   6  12    0.94    2.77
   2  -6 -12   15.53    1.23
  -2   6  12   13.44    6.68
   1  -6 -12   27.98    1.71
  -1   6  12   15.61    7.21
   0  -6 -12    0.22    0.26
   0   6  12    1.60    3.35
  -1  -6 -12    1.06    0.42
   1   6  12   -0.74    2.00
  -2  -6 -12  131.71    6.16
  -3  -6 -12   56.54    2.82
   3   6  12   33.94   10.59
  -4  -6 -12   31.28    1.85
   4   6  12   20.51    8.28
  -5  -6 -12   59.30    3.12
   5   6  12   65.91    4.70
   5   6  12   41.91   11.66
  -6  -6 -12   12.54    1.24
   6   6  12    7.93    5.43
   6   6  12   12.17    2.31
  -7  -6 -12    4.84    0.81
   7   6  12    4.92    1.57
   3  -7 -12   51.38    2.82
  -3   7  12   38.34   11.78
   2  -7 -12   10.65    1.13
  -2   7  12    5.54    5.26
   1  -7 -12    8.11    0.94
  -1   7  12    5.99    5.31
   0  -7 -12   52.62    2.72
   0   7  12   32.14   10.84
  -1  -7 -12   13.09    1.87
  -1  -7 -12   16.31    1.20
   1   7  12   14.62    7.76
  -2  -7 -12    1.41    0.68
  -2  -7 -12    2.02    0.47
   2   7  12   -0.20    2.77
  -3  -7 -12   13.05    1.78
  -3  -7 -12   14.64    1.14
   3   7  12   12.03    6.47
  -4  -7 -12   59.81    3.11
   4   7  12   50.48   13.70
  -5  -7 -12   46.29    2.57
   5   7  12   40.13   12.18
  -6  -7 -12   26.59    1.77
   6   7  12   22.44    8.95
  -7  -7 -12  115.54    5.59
   7   7  12   86.55   15.24
   7   7  12  129.56    7.49
  -2   8  12   -0.36    3.59
   1  -8 -12   39.69    3.05
  -1   8  12   33.79   11.49
   0  -8 -12   30.12    2.23
   0  -8 -12   23.44    2.30
   0   8  12   20.78    8.87
  -1  -8 -12    4.56    0.70
  -1  -8 -12    4.18    1.10
   1   8  12    3.31    4.33
  -2  -8 -12   29.00    2.56
  -2  -8 -12   32.44    1.92
   2   8  12   31.16   11.14
  -3  -8 -12   41.52    3.12
  -3  -8 -12   42.33    2.35
   3   8  12   36.15   11.72
  -4  -8 -12    3.41    0.64
  -4  -8 -12    2.19    0.85
   4   8  12    3.47    4.52
  -5  -8 -12   16.35    2.16
  -5  -8 -12   19.20    1.41
   5   8  12   17.72    8.58
  -6  -8 -12   24.51    1.69
   0  -9 -12    0.33    0.59
   0   9  12    2.47    4.65
  -1  -9 -12   16.44    2.15
   1   9  12   12.33    7.99
  -2  -9 -12   15.54    2.13
   2   9  12   13.69    7.69
  -3  -9 -12    0.57    0.50
   3   9  12    0.71    3.99
  -4  -9 -12   24.42    2.34
   4   9  12   25.98   10.50
  -5  -9 -12   23.93    2.34
  -1  -5  13    6.37    1.58
  -3  -4  13   20.81    6.05
  -3  -4  13   26.54    3.10
  -2  -4  13    5.95    3.53
  -2  -4  13    9.79    1.86
  -1  -4  13   11.98    2.02
  -1  -4  13   10.95    4.68
   0  -4  13   69.85    4.97
   1  -4  13   10.47    2.05
   2  -4  13   50.45    4.03
  -4  -3  13    1.38    0.93
  -4  -3  13    0.81    2.22
  -3  -3  13   32.94    7.76
  -3  -3  13   33.37    3.12
  -2  -3  13   29.95    2.92
  -2  -3  13   29.99    7.56
  -1  -3  13    4.04    1.23
  -1  -3  13    5.30    3.31
   0  -3  13   18.32    2.64
   0  -3  13   19.14    5.86
   1  -3  13   23.80    3.06
   2  -3  13   56.15    4.32
   3  -3  13    1.76    0.99
   5   2 -13   10.06    1.14
  -5  -2  13    5.31    3.65
   4   2 -13    7.14    0.93
  -4  -2  13    8.53    4.21
  -4  -2  13    7.55    1.69
   3   2 -13   48.76    2.77
  -3  -2  13   50.68    3.94
  -3  -2  13   49.97    8.49
   2   2 -13   17.40    1.35
  -2  -2  13   18.00    6.23
  -2  -2  13   21.67    2.82
   1   2 -13   17.54    1.35
  -1  -2  13   16.30    5.39
  -1  -2  13   21.39    2.81
   0   2 -13   48.19    2.67
   0  -2  13   49.80    8.15
   0  -2  13   45.68    3.82
  -1   2 -13    3.03    0.59
   1  -2  13    4.37    3.17
   1  -2  13    3.13    1.19
  -2   2 -13    0.57    0.34
   2  -2  13    0.40    0.75
  -3   2 -13   23.69    1.64
   3  -2  13   25.72    3.19
  -4   2 -13   59.88    3.31
   4  -2  13   67.16    4.68
   5   1 -13   18.57    1.46
  -5  -1  13   16.37    5.83
   4   1 -13    0.08    0.30
  -4  -1  13    0.17    0.63
  -4  -1  13    0.12    1.79
   3   1 -13    1.87    0.49
  -3  -1  13    0.77    2.11
  -3  -1  13    1.99    1.00
   2   1 -13    4.52    0.74
  -2  -1  13    4.01    1.30
  -2  -1  13    5.69    3.80
   1   1 -13   55.89    3.08
  -1  -1  13   63.49    4.53
  -1  -1  13   56.16    8.98
   0   1 -13   32.71    2.06
   0  -1  13   36.04    8.52
   0  -1  13   37.86    3.33
  -1   1 -13   14.07    1.16
   1  -1  13   15.84    2.46
   1  -1  13   18.88    6.25
  -2   1 -13   81.60    4.25
   2  -1  13   96.92    5.95
  -3   1 -13   23.62    1.62
   3  -1  13   26.61    3.19
  -4   1 -13   16.97    1.34
   4  -1  13   17.88    2.63
  -5   1 -13   52.69    2.95
   5  -1  13   50.65    4.05
   5   0 -13   42.64    2.55
  -5   0  13   39.21    9.12
   4   0 -13    2.07    0.55
  -4   0  13    2.31    2.79
   3   0 -13   37.72    2.22
  -3   0  13   37.62    3.36
  -3   0  13   28.45    7.63
   2   0 -13    8.65    1.01
  -2   0  13   12.20    5.45
  -2   0  13    9.00    1.85
   1   0 -13    1.26    0.41
  -1   0  13    1.11    2.37
  -1   0  13    1.10    0.89
   0   0 -13    7.03    0.88
   0   0  13    7.21    4.09
   0   0  13    7.74    1.79
  -1   0 -13   24.89    1.62
   1   0  13   22.45    2.95
   1   0  13   26.39    7.53
  -2   0 -13   33.50    2.02
   2   0  13   38.62    3.37
   2   0  13   27.64    7.59
  -3   0 -13    0.61    0.34
   3   0  13    0.72    0.72
  -4   0 -13   68.61    3.61
   4   0  13   71.09    5.03
  -5   0 -13   75.54    4.00
   5   0  13   80.06    5.39
  -6   0 -13    3.37    0.68
   6   0  13    1.77    0.92
   5  -1 -13   -0.12    0.30
  -5   1  13   -0.49    1.85
   4  -1 -13    4.81    0.81
  -4   1  13    3.28    3.19
   3  -1 -13   25.71    1.75
  -3   1  13   25.50    3.15
  -3   1  13   26.20    8.25
   2  -1 -13    6.25    0.87
  -2   1  13    6.37    1.59
  -2   1  13    5.39    3.93
   1  -1 -13   42.70    2.49
  -1   1  13   47.04    3.84
  -1   1  13   44.19   10.20
   0  -1 -13   67.80    3.40
   0   1  13   59.41    9.89
   0   1  13   61.00    4.66
  -1  -1 -13    6.50    0.83
   1   1  13    8.78    1.90
   1   1  13    4.26    3.42
  -2  -1 -13   14.70    1.16
   2   1  13   18.46    2.69
   2   1  13   14.71    6.01
  -3  -1 -13   23.10    1.59
   3   1  13   27.96    8.18
   3   1  13   24.62    3.13
  -4  -1 -13   28.79    1.84
   4   1  13   28.35    3.43
  -5  -1 -13    3.24    0.65
   5   1  13    2.55    1.14
  -6  -1 -13   53.84    3.08
   6   1  13   56.80    4.33
   5  -2 -13   21.12    1.62
  -5   2  13   19.73    7.09
   4  -2 -13    0.77    0.43
  -4   2  13    0.45    2.34
   3  -2 -13    1.27    0.47
  -3   2  13    1.01    0.80
  -3   2  13    0.06    2.06
   2  -2 -13    1.25    0.42
  -2   2  13    2.59    2.90
  -2   2  13    2.65    1.20
   1  -2 -13   41.62    2.38
  -1   2  13   40.38   10.14
  -1   2  13   38.71    3.56
   0  -2 -13    0.06    0.28
   0   2  13    1.00    0.82
   0   2  13   -0.88    1.43
  -1  -2 -13   54.58    2.88
   1   2  13   59.51   10.14
   1   2  13   47.03    4.09
  -2  -2 -13   90.69    4.26
   2   2  13   75.89   11.65
   2   2  13   82.03    5.70
  -3  -2 -13    3.95    0.69
   3   2  13    1.46    0.92
   3   2  13    4.53    3.78
  -4  -2 -13   25.14    1.71
   4   2  13   29.31    3.59
  -5  -2 -13   34.37    2.14
   5   2  13   33.59    3.28
  -6  -2 -13   17.25    1.39
   6   2  13   15.13    2.46
   5  -3 -13   24.41    1.79
  -5   3  13   22.61    7.58
   4  -3 -13   33.91    2.20
  -4   3  13   37.37    9.81
   3  -3 -13   89.28    4.38
  -3   3  13   87.32   12.84
  -3   3  13   78.12    5.64
   2  -3 -13   12.08    1.24
  -2   3  13    8.84    5.22
  -2   3  13   10.76    2.12
   1  -3 -13   -0.04    0.29
  -1   3  13    0.37    0.66
  -1   3  13    0.38    2.35
   0  -3 -13   35.73    2.09
   0   3  13   36.18    3.39
   0   3  13   26.05    8.65
  -1  -3 -13   30.83    1.87
   1   3  13   30.54    9.00
   1   3  13   25.77    3.36
  -2  -3 -13   16.00    1.19
   2   3  13   12.33    2.26
   2   3  13   10.85    5.89
  -3  -3 -13   37.43    2.14
   3   3  13   26.72    8.43
   3   3  13   34.12    3.35
  -4  -3 -13   76.19    3.75
   4   3  13   73.78    5.26
   4   3  13   58.13   10.64
  -5  -3 -13   17.02    1.32
   5   3  13   14.06    2.48
  -6  -3 -13    4.83    0.81
   6   3  13    1.56    1.07
  -7  -3 -13   98.84    5.00
   4  -4 -13   18.18    1.47
  -4   4  13   15.85    6.69
   3  -4 -13   16.38    1.30
  -3   4  13    9.04    5.28
  -3   4  13   10.82    2.22
   2  -4 -13   34.22    2.00
  -2   4  13   29.95    9.51
  -2   4  13   21.91    3.15
   1  -4 -13   54.21    2.81
  -1   4  13   43.72    4.00
  -1   4  13   41.20   11.36
   0  -4 -13   31.73    1.91
   0   4  13   17.50    7.53
   0   4  13   32.34    3.73
  -1  -4 -13   22.67    1.54
   1   4  13   24.71    3.25
   1   4  13   18.08    7.40
  -2  -4 -13   38.89    2.18
   2   4  13   33.67    3.35
   2   4  13   29.17    9.14
  -3  -4 -13   15.85    1.24
   3   4  13   13.08    6.25
   3   4  13   17.76    2.76
  -4  -4 -13   10.78    1.08
   4   4  13    6.99    1.73
   4   4  13    3.31    3.67
  -5  -4 -13   21.96    1.55
   5   4  13   15.28    6.61
   5   4  13   23.10    3.20
  -6  -4 -13   70.98    3.65
   6   4  13   61.23    4.94
  -7  -4 -13    5.90    0.92
   4  -5 -13    0.18    0.40
  -4   5  13    0.95    3.18
   3  -5 -13    4.77    0.80
  -3   5  13    0.84    2.94
   2  -5 -13   13.01    1.31
  -2   5  13   17.02    7.55
  -2   5  13   13.22    2.35
   1  -5 -13   11.71    1.20
  -1   5  13   14.97    7.51
  -1   5  13   10.06    2.14
   0  -5 -13    0.13    0.31
   0   5  13   -0.07    0.78
   0   5  13   -0.24    2.35
  -1  -5 -13   54.70    2.87
   1   5  13   33.68   10.52
   1   5  13   54.92    4.32
  -2  -5 -13   82.93    4.01
   2   5  13   68.45   12.67
   2   5  13   77.69    5.52
  -3  -5 -13    0.22    0.30
   3   5  13   -0.06    2.52
   3   5  13    0.07    0.79
  -4  -5 -13   91.73    4.41
   4   5  13   70.51   12.69
   4   5  13   91.33    6.04
  -5  -5 -13   37.82    2.23
   5   5  13   28.15    9.87
   5   5  13   36.13    3.54
  -6  -5 -13   11.41    1.19
   6   5  13    5.20    1.64
  -7  -5 -13   22.33    1.66
   7   5  13   18.20    2.92
   3  -6 -13   17.77    1.43
  -3   6  13   13.90    7.01
   2  -6 -13    1.77    0.52
  -2   6  13    2.00    1.32
  -2   6  13    3.08    4.34
   1  -6 -13    5.51    0.81
  -1   6  13    2.43    3.89
  -1   6  13    7.02    1.89
   0  -6 -13   25.06    1.68
   0   6  13   16.01    7.64
   0   6  13   30.43    3.69
  -1  -6 -13    8.84    1.02
   1   6  13    7.06    5.26
   1   6  13   12.29    2.26
  -2  -6 -13    0.16    0.27
   2   6  13    1.24    3.25
   2   6  13    0.33    0.68
  -3  -6 -13   20.47    1.48
   3   6  13   19.72    8.50
   3   6  13   24.81    3.31
  -4  -6 -13   65.28    3.32
   4   6  13   66.51    4.93
   4   6  13   38.85   12.00
  -5  -6 -13    0.47    0.37
   5   6  13    0.29    0.82
   5   6  13    1.51    3.95
  -6  -6 -13   29.41    1.93
   6   6  13   20.74    8.31
   6   6  13   30.82    3.77
   2  -7 -13   24.84    1.73
  -2   7  13   29.09    3.84
  -2   7  13   14.88    7.82
   1  -7 -13   17.58    1.37
  -1   7  13   13.90    7.42
   0  -7 -13    7.70    0.97
   0   7  13    2.90    4.32
  -1  -7 -13   24.70    1.63
   1   7  13   15.45    8.20
  -2  -7 -13   57.52    2.97
   2   7  13   35.03   11.53
  -3  -7 -13    0.04    0.28
   3   7  13   -0.39    2.81
  -4  -7 -13    0.19    0.29
   4   7  13   -0.49    2.80
  -5  -7 -13   10.22    1.12
   5   7  13    4.60    4.70
  -6  -7 -13   24.69    1.72
   6   7  13   13.06    7.23
   6   7  13   26.11    3.57
   0  -8 -13   13.19    1.28
   0   8  13    7.10    5.91
  -1  -8 -13   41.82    2.35
   1   8  13   23.98   10.16
  -2  -8 -13   45.48    2.48
   2   8  13   25.62   10.43
  -3  -8 -13    7.01    0.90
   3   8  13    2.90    4.41
  -4  -8 -13   98.83    4.76
   4   8  13   78.46   17.82
  -5  -8 -13   17.27    1.35
   5   8  13    9.13    6.41
  -2  -3  14    0.68    1.94
  -2  -3  14    0.33    0.72
  -1  -3  14   26.85    7.16
  -1  -3  14   21.29    2.91
   0  -3  14   53.50    4.30
   1  -3  14    0.63    0.82
   3   2 -14   11.17    1.23
  -3  -2  14    8.14    1.76
  -3  -2  14   13.13    5.67
   2   2 -14   25.38    1.68
  -2  -2  14   24.79    3.06
  -2  -2  14   14.12    5.67
   1   2 -14   37.63    2.37
  -1  -2  14   48.39    8.42
  -1  -2  14   41.62    3.68
   0   2 -14   13.05    1.31
   0  -2  14   15.92    5.56
   0  -2  14   13.78    2.36
  -1   2 -14   25.49    1.73
   1  -2  14   25.18    3.23
  -2   2 -14   74.43    3.91
   2  -2  14   78.98    5.45
  -3   2 -14    0.01    0.34
   3  -2  14   -0.19    0.53
   4   1 -14   14.23    1.45
  -4  -1  14   12.07    5.80
   3   1 -14   18.07    1.44
  -3  -1  14   17.20    2.55
  -3  -1  14   16.15    6.17
   2   1 -14    2.62    0.63
  -2  -1  14    4.50    1.45
  -2  -1  14    2.58    2.70
   1   1 -14    3.47    0.66
  -1  -1  14    2.99    3.12
  -1  -1  14    4.52    1.31
   0   1 -14    5.67    0.81
   0  -1  14    3.81    3.24
   0  -1  14    7.96    1.81
  -1   1 -14   37.44    2.27
   1  -1  14   40.83    9.36
   1  -1  14   37.43    3.49
  -2   1 -14   20.17    1.50
   2  -1  14   20.16    2.87
  -3   1 -14   26.10    1.81
   3  -1  14   32.29    3.64
  -4   1 -14   76.00    4.12
   4  -1  14   89.41    5.78
   4   0 -14   30.77    2.04
  -4   0  14   26.24    7.80
   3   0 -14   16.49    1.33
  -3   0  14   11.52    5.16
  -3   0  14   12.82    2.20
   2   0 -14   13.66    1.34
  -2   0  14   11.99    2.22
  -2   0  14   10.39    4.89
   1   0 -14   58.27    3.13
  -1   0  14   56.21    4.44
  -1   0  14   53.09    9.30
   0   0 -14   15.23    1.28
   0   0  14   20.19    2.88
   0   0  14   13.37    5.63
  -1   0 -14    2.23    0.54
   1   0  14    0.44    1.97
   1   0  14    2.08    1.06
  -2   0 -14   15.42    1.41
   2   0  14   13.34    5.20
   2   0  14   13.09    2.31
  -3   0 -14   37.13    2.29
   3   0  14   40.05    3.63
  -4   0 -14   13.18    1.33
   4   0  14   17.59    2.73
   4  -1 -14    1.77    0.59
  -4   1  14    0.55    2.46
   3  -1 -14    0.66    0.39
  -3   1  14    0.53    2.07
  -3   1  14    1.17    0.97
   2  -1 -14   18.85    1.43
  -2   1  14   15.77    2.50
  -2   1  14   13.06    5.67
   1  -1 -14   15.55    1.29
  -1   1  14   14.97    2.51
  -1   1  14   13.32    5.71
   0  -1 -14    7.87    0.97
   0   1  14    6.06    4.31
   0   1  14    7.59    1.80
  -1  -1 -14   39.18    2.28
   1   1  14   34.74    3.46
   1   1  14   36.91    9.30
  -2  -1 -14   18.23    1.43
   2   1  14   22.41    3.03
   2   1  14   21.30    7.27
  -3  -1 -14    6.37    0.87
   3   1  14    2.27    1.19
  -4  -1 -14   45.57    2.64
   4   1  14   44.46    3.97
  -5  -1 -14   16.67    1.37
   5   1  14   17.03    2.77
   4  -2 -14   40.13    2.49
  -4   2  14   37.70   10.07
   3  -2 -14   32.75    2.18
  -3   2  14   37.30    3.51
  -3   2  14   35.94    9.38
   2  -2 -14    2.37    0.60
  -2   2  14    4.65    1.45
  -2   2  14    2.35    3.30
   1  -2 -14   17.84    1.39
  -1   2  14   18.90    2.80
  -1   2  14   17.06    6.81
   0  -2 -14   25.78    1.74
   0   2  14   25.79    8.56
   0   2  14   22.65    3.22
  -1  -2 -14   24.48    1.67
   1   2  14   21.67    3.09
   1   2  14   26.13    8.47
  -2  -2 -14    1.89    0.55
   2   2  14    1.15    1.04
   2   2  14    0.89    2.68
  -3  -2 -14   26.56    1.73
   3   2  14   21.56    3.04
   3   2  14   20.80    7.23
  -4  -2 -14   87.33    4.43
   4   2  14   86.58    6.03
  -5  -2 -14    0.41    0.36
   5   2  14    0.64    0.89
   3  -3 -14   24.57    1.71
  -3   3  14   16.95    2.70
  -3   3  14   23.52    8.05
   2  -3 -14    2.83    0.61
  -2   3  14    3.27    1.31
  -2   3  14    2.49    3.38
   1  -3 -14   44.23    2.47
  -1   3  14   32.52    3.99
  -1   3  14   35.93    9.93
   0  -3 -14    4.05    0.73
   0   3  14    4.71    1.57
   0   3  14    4.01    4.19
  -1  -3 -14   31.49    1.98
   1   3  14   36.21   10.20
   1   3  14   26.66    3.49
  -2  -3 -14   59.87    3.08
   2   3  14   47.45    4.28
   2   3  14   55.63   12.96
  -3  -3 -14    4.07    0.70
   3   3  14    3.47    3.96
   3   3  14    5.43    1.65
  -4  -3 -14    0.08    0.27
   4   3  14    0.07    2.63
   4   3  14    0.03    0.73
  -5  -3 -14   19.87    1.55
   5   3  14   23.39    3.26
   3  -4 -14    4.13    0.77
  -3   4  14    3.04    3.48
   2  -4 -14   41.07    2.42
  -2   4  14   36.02    4.18
  -2   4  14   34.62   10.23
   1  -4 -14   16.44    1.51
  -1   4  14   11.70    2.48
  -1   4  14   17.75    7.49
   0  -4 -14   15.22    1.39
   0   4  14   12.97    6.33
   0   4  14   10.95    2.31
  -1  -4 -14   76.18    3.81
   1   4  14   67.92   12.32
   1   4  14   66.74    5.27
  -2  -4 -14   14.66    1.19
   2   4  14    8.03    5.52
   2   4  14   11.84    2.37
  -3  -4 -14   29.58    1.87
   3   4  14   26.43    3.58
   3   4  14   23.95    8.85
  -4  -4 -14   55.30    2.77
   4   4  14   28.33    9.20
   4   4  14   38.75    3.91
  -5  -4 -14   42.05    2.55
   5   4  14   45.29    4.08
   2  -5 -14    6.39    0.90
  -2   5  14    3.61    1.58
  -2   5  14    4.53    4.81
   1  -5 -14   14.89    1.40
  -1   5  14   10.45    2.18
  -1   5  14   12.86    6.72
   0  -5 -14    6.98    0.93
   0   5  14   10.05    2.20
   0   5  14    3.80    3.91
  -1  -5 -14   10.07    1.14
   1   5  14    6.93    5.46
   1   5  14    7.94    2.00
  -2  -5 -14    0.80    0.38
   2   5  14    0.35    3.07
   2   5  14    0.91    1.00
  -3  -5 -14   47.06    2.64
   3   5  14   45.32    4.12
   3   5  14   37.28   11.29
  -4  -5 -14   29.83    1.87
   4   5  14   17.27    7.64
   4   5  14   24.52    3.39
  -5  -5 -14   18.83    1.44
   5   5  14   18.48    2.98
   5   5  14    8.98    5.53
   1  -6 -14   24.39    1.73
  -1   6  14   24.83    9.67
  -1   6  14   25.12    3.63
   0  -6 -14    8.82    1.05
   0   6  14    4.94    5.05
   0   6  14    5.86    1.76
  -1  -6 -14   44.14    2.48
   1   6  14   24.24    9.93
   1   6  14   42.05    3.96
  -2  -6 -14   32.19    2.03
   2   6  14   31.86    3.94
   2   6  14   26.64   10.19
  -3  -6 -14    1.24    0.46
   3   6  14    0.22    3.08
   3   6  14   -0.54    0.86
  -4  -6 -14    0.47    0.37
   4   6  14   -0.28    0.86
   4   6  14    0.55    3.52
  -5  -6 -14   52.58    2.85
   5   6  14   28.77   10.09
   5   6  14   51.16    4.45
   0  -7 -14   32.29    2.12
   0   7  14   28.90   10.50
   0   7  14   40.82    4.67
  -1  -7 -14   23.51    1.67
   1   7  14   28.29    3.68
   1   7  14   16.97    8.27
  -2  -7 -14   -0.02    0.30
   2   7  14    0.39    0.97
   2   7  14    0.32    3.08
  -3  -7 -14   59.65    3.21
   3   7  14   69.54    5.20
   3   7  14   38.23   12.00
  -4  -7 -14   13.98    1.42
   4   7  14    9.13    6.31
   4   7  14   17.70    2.97
   1   1 -15    4.67    0.82
  -1  -1  15    6.54    4.13
  -1  -1  15    5.10    1.55
   0   1 -15    5.44    0.86
   0  -1  15    6.89    4.20
   0  -1  15    6.74    1.72
  -1   1 -15   15.99    1.52
   1  -1  15   19.12    2.85
   1  -1  15   15.54    5.93
   2   0 -15   33.86    2.18
  -2   0  15   29.31    8.58
  -2   0  15   33.29    3.82
   1   0 -15    9.13    1.13
  -1   0  15    9.94    5.32
  -1   0  15    6.21    1.66
   0   0 -15   12.42    1.30
   0   0  15   10.67    2.25
   0   0  15    8.85    4.72
  -1   0 -15   67.20    3.64
   1   0  15   64.55   10.44
   1   0  15   70.71    5.19
  -2   0 -15    4.47    0.76
   2   0  15    5.82    1.63
   2  -1 -15    3.40    0.69
  -2   1  15    2.11    1.30
  -2   1  15    0.23    2.26
   1  -1 -15   17.34    1.44
  -1   1  15   19.09    2.80
  -1   1  15   17.66    7.17
   0  -1 -15   22.72    1.68
   0   1  15   26.85    3.45
   0   1  15   20.88    7.75
  -1  -1 -15   10.84    1.21
   1   1  15   11.60    2.21
   1   1  15   10.98    5.59
  -2  -1 -15   12.24    1.27
   2   1  15   11.42    5.49
   2   1  15   13.83    2.53
  -3  -1 -15   61.89    3.40
   3   1  15   64.93    5.04
   2  -2 -15   52.26    2.92
  -2   2  15   44.20    4.14
  -2   2  15   48.53   11.44
   1  -2 -15   10.78    1.20
  -1   2  15    4.07    4.02
  -1   2  15    6.82    1.79
   0  -2 -15    1.50    0.51
   0   2  15    1.57    2.78
   0   2  15    1.02    1.01
  -1  -2 -15   14.58    1.40
   1   2  15   10.46    5.63
   1   2  15   12.11    2.40
  -2  -2 -15   24.40    1.70
   2   2  15   20.06    7.09
   2   2  15   24.63    3.36
  -3  -2 -15    7.45    0.99
   3   2  15    7.62    1.83
   3   2  15    6.64    4.53
   2  -3 -15    9.81    1.15
  -2   3  15    5.67    1.71
  -2   3  15    5.33    4.69
   1  -3 -15    0.33    0.38
  -1   3  15   -0.23    0.83
  -1   3  15    0.92    2.99
   0  -3 -15   43.93    2.57
   0   3  15   37.09    4.37
  -1  -3 -15   28.32    1.85
   1   3  15   19.07    3.04
   1   3  15   24.20    8.59
  -2  -3 -15    0.78    0.40
   2   3  15    1.39    1.11
   2   3  15   -0.32    2.01
  -3  -3 -15   50.52    2.77
   3   3  15   41.91    4.12
   3   3  15   39.90   10.78
  -4  -3 -15   49.14    2.83
   4   3  15   46.01    4.23
   1  -4 -15    5.79    0.90
  -1   4  15    4.06    1.51
  -1   4  15    3.72    4.51
   0  -4 -15    9.89    1.17
   0   4  15    3.93    4.26
   0   4  15    7.29    1.96
  -1  -4 -15    0.14    0.34
   1   4  15   -0.06    0.75
   1   4  15    0.27    2.32
  -2  -4 -15   11.40    1.20
   2   4  15    4.03    3.99
   2   4  15    8.34    2.05
  -3  -4 -15   49.22    2.72
   3   4  15   32.39   10.31
   3   4  15   42.69    4.09
   0  -5 -15   11.27    1.24
   0   5  15   12.05    2.50
   0   5  15    6.92    5.68
  -1  -5 -15   40.21    2.40
   1   5  15   36.80    4.39
   1   5  15   29.07   10.07
  -2  -5 -15    1.97    0.59
   2   5  15    0.97    1.09
   2   5  15    2.64    4.29
  -3  -5 -15    7.20    0.96
   3   5  15    4.52    1.67
   3   5  15    2.24    4.10
   0   0   0    0.00    0.00
;
_shelx_hkl_checksum              36714
_olex2_submission_special_instructions 'No special instructions were received'
loop_
_space_group_symop_operation_xyz
'x, y, z'
'-x, -y, -z'
loop_
_atom_site_label
_atom_site_type_symbol
_atom_site_fract_x
_atom_site_fract_y
_atom_site_fract_z
_atom_site_U_iso_or_equiv
_atom_site_adp_type
_atom_site_occupancy
_atom_site_site_symmetry_order
_atom_site_calc_flag
_atom_site_refinement_flags_posn
_atom_site_refinement_flags_adp
_atom_site_refinement_flags_occupancy
_atom_site_disorder_assembly
_atom_site_disorder_group
I1 I 0.35182(2) 0.30884(2) 0.24224(2) 0.01921(5) Uani 1 1 d . . . . .
P1 P 0.75377(5) 0.33879(5) 0.48884(4) 0.01108(9) Uani 1 1 d . . . . .
O1 O 0.89676(15) 0.31046(14) 0.39085(12) 0.0141(3) Uani 1 1 d . . . . .
O2 O 0.85700(15) 0.22385(15) 0.59228(12) 0.0149(3) Uani 1 1 d . . . . .
O3 O 0.69374(15) 0.49525(14) 0.50937(13) 0.0153(3) Uani 1 1 d . . . . .
N1 N 0.60723(18) 0.27111(17) 0.45450(15) 0.0122(3) Uani 1 1 d . . . . .
C1 C 0.8784(2) 0.4104(2) 0.28119(17) 0.0140(4) Uani 1 1 d . . . . .
C2 C 0.9469(2) 0.5330(2) 0.26659(18) 0.0154(4) Uani 1 1 d . . . . .
H2 H 1.004414 0.549615 0.329192 0.018 Uiso 1 1 calc R U . . .
C3 C 0.9297(2) 0.6312(2) 0.15817(19) 0.0184(4) Uani 1 1 d . . . . .
H3 H 0.976590 0.715494 0.146066 0.022 Uiso 1 1 calc R U . . .
C4 C 0.8444(3) 0.6067(2) 0.0676(2) 0.0227(4) Uani 1 1 d . . . . .
H4 H 0.831087 0.675444 -0.005603 0.027 Uiso 1 1 calc R U . . .
C5 C 0.7783(3) 0.4817(2) 0.0839(2) 0.0234(4) Uani 1 1 d . . . . .
H5 H 0.720959 0.464591 0.021439 0.028 Uiso 1 1 calc R U . . .
C6 C 0.7960(2) 0.3817(2) 0.19152(19) 0.0193(4) Uani 1 1 d . . . . .
H6 H 0.752315 0.295415 0.203073 0.023 Uiso 1 1 calc R U . . .
C7 C 0.6234(2) 0.13165(19) 0.41372(17) 0.0116(3) Uani 1 1 d . . . . .
C8 C 0.5284(2) 0.1214(2) 0.32217(17) 0.0130(3) Uani 1 1 d . . . . .
C9 C 0.5410(2) -0.0148(2) 0.28378(18) 0.0151(4) Uani 1 1 d . . . . .
H9 H 0.474369 -0.019371 0.221874 0.018 Uiso 1 1 calc R U . . .
C10 C 0.6517(2) -0.1445(2) 0.33641(19) 0.0170(4) Uani 1 1 d . . . . .
H10 H 0.660679 -0.238324 0.311022 0.020 Uiso 1 1 calc R U . . .
C11 C 0.7486(2) -0.1362(2) 0.42589(19) 0.0167(4) Uani 1 1 d . . . . .
H11 H 0.825437 -0.224485 0.461194 0.020 Uiso 1 1 calc R U . . .
C12 C 0.7346(2) 0.0003(2) 0.46471(18) 0.0150(4) Uani 1 1 d . . . . .
H12 H 0.801578 0.004226 0.526641 0.018 Uiso 1 1 calc R U . . .
C13 C 0.8045(2) 0.1842(2) 0.70978(18) 0.0149(4) Uani 1 1 d . . . . .
C14 C 0.8965(2) 0.0489(2) 0.77073(19) 0.0196(4) Uani 1 1 d . . . . .
H14 H 0.984284 -0.012154 0.731510 0.023 Uiso 1 1 calc R U . . .
C15 C 0.8580(3) 0.0043(2) 0.8898(2) 0.0260(5) Uani 1 1 d . . . . .
H15 H 0.920416 -0.087711 0.932621 0.031 Uiso 1 1 calc R U . . .
C16 C 0.7288(3) 0.0934(3) 0.9468(2) 0.0287(5) Uani 1 1 d . . . . .
H16 H 0.703114 0.062877 1.028428 0.034 Uiso 1 1 calc R U . . .
C17 C 0.6377(3) 0.2269(3) 0.8836(2) 0.0244(4) Uani 1 1 d . . . . .
H17 H 0.548675 0.287288 0.922389 0.029 Uiso 1 1 calc R U . . .
C18 C 0.6745(2) 0.2740(2) 0.76430(19) 0.0187(4) Uani 1 1 d . . . . .
H18 H 0.611835 0.365648 0.721284 0.022 Uiso 1 1 calc R U . . .
H1 H 0.520(3) 0.327(3) 0.456(2) 0.025(7) Uiso 1 1 d . . . . .
loop_
_atom_site_aniso_label
_atom_site_aniso_U_11
_atom_site_aniso_U_22
_atom_site_aniso_U_33
_atom_site_aniso_U_23
_atom_site_aniso_U_13
_atom_site_aniso_U_12
I1 0.02215(7) 0.01412(7) 0.02094(8) -0.00272(5) -0.01125(5) -0.00093(5)
P1 0.0103(2) 0.01131(19) 0.0116(2) -0.00117(17) -0.00152(17) -0.00292(15)
O1 0.0115(6) 0.0151(6) 0.0137(7) 0.0008(5) 0.0004(5) -0.0024(5)
O2 0.0133(6) 0.0180(6) 0.0125(7) 0.0004(5) -0.0022(5) -0.0035(5)
O3 0.0142(6) 0.0132(6) 0.0193(7) -0.0045(5) -0.0014(5) -0.0035(5)
N1 0.0090(7) 0.0117(7) 0.0157(8) -0.0035(6) -0.0023(6) -0.0007(5)
C1 0.0120(8) 0.0155(8) 0.0129(9) -0.0004(7) 0.0014(7) -0.0025(6)
C2 0.0135(8) 0.0169(8) 0.0166(10) -0.0034(7) -0.0009(7) -0.0045(7)
C3 0.0206(9) 0.0175(8) 0.0184(10) -0.0020(8) 0.0012(8) -0.0085(7)
C4 0.0262(10) 0.0270(10) 0.0156(10) 0.0028(9) 0.0000(8) -0.0122(8)
C5 0.0281(10) 0.0314(11) 0.0151(10) -0.0024(9) -0.0048(8) -0.0155(9)
C6 0.0210(9) 0.0217(9) 0.0182(10) -0.0019(8) 0.0003(8) -0.0120(7)
C7 0.0104(7) 0.0111(7) 0.0138(9) -0.0027(7) 0.0026(7) -0.0038(6)
C8 0.0115(8) 0.0127(7) 0.0142(9) -0.0011(7) 0.0004(7) -0.0030(6)
C9 0.0151(8) 0.0161(8) 0.0159(10) -0.0052(7) 0.0016(7) -0.0060(7)
C10 0.0155(8) 0.0140(8) 0.0227(11) -0.0070(8) 0.0041(8) -0.0044(7)
C11 0.0137(8) 0.0132(8) 0.0219(10) -0.0024(8) 0.0023(7) -0.0018(6)
C12 0.0115(8) 0.0144(8) 0.0184(10) -0.0015(7) -0.0013(7) -0.0028(6)
C13 0.0175(8) 0.0162(8) 0.0137(9) -0.0001(7) -0.0034(7) -0.0098(7)
C14 0.0196(9) 0.0185(9) 0.0208(11) 0.0009(8) -0.0062(8) -0.0064(7)
C15 0.0338(12) 0.0258(10) 0.0200(11) 0.0069(9) -0.0101(9) -0.0150(9)
C16 0.0409(13) 0.0358(12) 0.0153(11) 0.0003(9) -0.0024(9) -0.0231(10)
C17 0.0313(11) 0.0295(11) 0.0187(11) -0.0099(9) 0.0041(9) -0.0161(9)
C18 0.0233(9) 0.0177(8) 0.0183(10) -0.0047(8) -0.0017(8) -0.0094(7)
loop_
_atom_type_symbol
_atom_type_description
_atom_type_scat_dispersion_real
_atom_type_scat_dispersion_imag
_atom_type_scat_source
C C 0.0033 0.0016 'International Tables Vol C Tables 4.2.6.8 and 6.1.1.4'
H H 0.0000 0.0000 'International Tables Vol C Tables 4.2.6.8 and 6.1.1.4'
I I -0.4742 1.8119 'International Tables Vol C Tables 4.2.6.8 and 6.1.1.4'
N N 0.0061 0.0033 'International Tables Vol C Tables 4.2.6.8 and 6.1.1.4'
O O 0.0106 0.0060 'International Tables Vol C Tables 4.2.6.8 and 6.1.1.4'
P P 0.1023 0.0942 'International Tables Vol C Tables 4.2.6.8 and 6.1.1.4'
loop_
_geom_angle_atom_site_label_1
_geom_angle_atom_site_label_2
_geom_angle_atom_site_label_3
_geom_angle
_geom_angle_site_symmetry_1
_geom_angle_site_symmetry_3
_geom_angle_publ_flag
O1 P1 N1 107.97(8) . . ?
O2 P1 O1 94.04(7) . . ?
O2 P1 N1 109.75(8) . . ?
O3 P1 O1 115.86(8) . . ?
O3 P1 O2 115.90(8) . . ?
O3 P1 N1 111.88(8) . . ?
C1 O1 P1 117.64(11) . . ?
C13 O2 P1 127.10(11) . . ?
P1 N1 H1 114.4(19) . . ?
C7 N1 P1 127.11(12) . . ?
C7 N1 H1 118.2(19) . . ?
C2 C1 O1 118.44(17) . . ?
C6 C1 O1 119.27(16) . . ?
C6 C1 C2 122.28(18) . . ?
C1 C2 H2 120.8 . . ?
C1 C2 C3 118.47(19) . . ?
C3 C2 H2 120.8 . . ?
C2 C3 H3 119.8 . . ?
C4 C3 C2 120.38(18) . . ?
C4 C3 H3 119.8 . . ?
C3 C4 H4 120.0 . . ?
C3 C4 C5 120.1(2) . . ?
C5 C4 H4 120.0 . . ?
C4 C5 H5 119.9 . . ?
C6 C5 C4 120.1(2) . . ?
C6 C5 H5 119.9 . . ?
C1 C6 C5 118.62(18) . . ?
C1 C6 H6 120.7 . . ?
C5 C6 H6 120.7 . . ?
C8 C7 N1 121.32(15) . . ?
C12 C7 N1 120.85(17) . . ?
C12 C7 C8 117.83(16) . . ?
C7 C8 I1 121.47(13) . . ?
C9 C8 I1 116.87(14) . . ?
C9 C8 C7 121.60(16) . . ?
C8 C9 H9 120.2 . . ?
C8 C9 C10 119.63(18) . . ?
C10 C9 H9 120.2 . . ?
C9 C10 H10 120.2 . . ?
C11 C10 C9 119.63(17) . . ?
C11 C10 H10 120.2 . . ?
C10 C11 H11 119.7 . . ?
C10 C11 C12 120.53(17) . . ?
C12 C11 H11 119.7 . . ?
C7 C12 H12 119.6 . . ?
C11 C12 C7 120.77(19) . . ?
C11 C12 H12 119.6 . . ?
C14 C13 O2 115.02(17) . . ?
C18 C13 O2 123.32(17) . . ?
C18 C13 C14 121.63(19) . . ?
C13 C14 H14 120.5 . . ?
C15 C14 C13 118.98(19) . . ?
C15 C14 H14 120.5 . . ?
C14 C15 H15 119.8 . . ?
C14 C15 C16 120.4(2) . . ?
C16 C15 H15 119.8 . . ?
C15 C16 H16 120.2 . . ?
C17 C16 C15 119.5(2) . . ?
C17 C16 H16 120.2 . . ?
C16 C17 H17 119.5 . . ?
C16 C17 C18 121.0(2) . . ?
C18 C17 H17 119.5 . . ?
C13 C18 C17 118.49(19) . . ?
C13 C18 H18 120.8 . . ?
C17 C18 H18 120.8 . . ?
loop_
_geom_bond_atom_site_label_1
_geom_bond_atom_site_label_2
_geom_bond_distance
_geom_bond_site_symmetry_2
_geom_bond_publ_flag
I1 C8 2.0944(18) . ?
P1 O1 1.5919(13) . ?
P1 O2 1.5858(14) . ?
P1 O3 1.4661(13) . ?
P1 N1 1.6290(16) . ?
O1 C1 1.409(2) . ?
O2 C13 1.397(2) . ?
N1 C7 1.425(2) . ?
N1 H1 0.79(3) . ?
C1 C2 1.384(3) . ?
C1 C6 1.381(3) . ?
C2 H2 0.9500 . ?
C2 C3 1.391(3) . ?
C3 H3 0.9500 . ?
C3 C4 1.386(3) . ?
C4 H4 0.9500 . ?
C4 C5 1.391(3) . ?
C5 H5 0.9500 . ?
C5 C6 1.391(3) . ?
C6 H6 0.9500 . ?
C7 C8 1.396(3) . ?
C7 C12 1.395(2) . ?
C8 C9 1.389(3) . ?
C9 H9 0.9500 . ?
C9 C10 1.390(3) . ?
C10 H10 0.9500 . ?
C10 C11 1.382(3) . ?
C11 H11 0.9500 . ?
C11 C12 1.392(3) . ?
C12 H12 0.9500 . ?
C13 C14 1.389(3) . ?
C13 C18 1.382(3) . ?
C14 H14 0.9500 . ?
C14 C15 1.388(3) . ?
C15 H15 0.9500 . ?
C15 C16 1.390(3) . ?
C16 H16 0.9500 . ?
C16 C17 1.385(3) . ?
C17 H17 0.9500 . ?
C17 C18 1.392(3) . ?
C18 H18 0.9500 . ?
loop_
_geom_torsion_atom_site_label_1
_geom_torsion_atom_site_label_2
_geom_torsion_atom_site_label_3
_geom_torsion_atom_site_label_4
_geom_torsion
_geom_torsion_site_symmetry_1
_geom_torsion_site_symmetry_2
_geom_torsion_site_symmetry_3
_geom_torsion_site_symmetry_4
_geom_torsion_publ_flag
I1 C8 C9 C10 -177.66(13) . . . . ?
P1 O1 C1 C2 94.47(17) . . . . ?
P1 O1 C1 C6 -86.74(19) . . . . ?
P1 O2 C13 C14 159.92(14) . . . . ?
P1 O2 C13 C18 -22.2(3) . . . . ?
P1 N1 C7 C8 -138.56(16) . . . . ?
P1 N1 C7 C12 41.8(2) . . . . ?
O1 P1 O2 C13 -177.49(15) . . . . ?
O1 P1 N1 C7 42.43(18) . . . . ?
O1 C1 C2 C3 179.65(16) . . . . ?
O1 C1 C6 C5 179.73(17) . . . . ?
O2 P1 O1 C1 -168.29(13) . . . . ?
O2 P1 N1 C7 -58.82(18) . . . . ?
O2 C13 C14 C15 176.87(17) . . . . ?
O2 C13 C18 C17 -176.92(17) . . . . ?
O3 P1 O1 C1 -46.90(16) . . . . ?
O3 P1 O2 C13 61.16(16) . . . . ?
O3 P1 N1 C7 171.07(15) . . . . ?
N1 P1 O1 C1 79.44(14) . . . . ?
N1 P1 O2 C13 -66.76(16) . . . . ?
N1 C7 C8 I1 -1.7(2) . . . . ?
N1 C7 C8 C9 -178.58(17) . . . . ?
N1 C7 C12 C11 179.10(17) . . . . ?
C1 C2 C3 C4 0.6(3) . . . . ?
C2 C1 C6 C5 -1.5(3) . . . . ?
C2 C3 C4 C5 -1.3(3) . . . . ?
C3 C4 C5 C6 0.7(3) . . . . ?
C4 C5 C6 C1 0.7(3) . . . . ?
C6 C1 C2 C3 0.9(3) . . . . ?
C7 C8 C9 C10 -0.6(3) . . . . ?
C8 C7 C12 C11 -0.6(3) . . . . ?
C8 C9 C10 C11 -0.4(3) . . . . ?
C9 C10 C11 C12 0.9(3) . . . . ?
C10 C11 C12 C7 -0.4(3) . . . . ?
C12 C7 C8 I1 178.00(13) . . . . ?
C12 C7 C8 C9 1.1(3) . . . . ?
C13 C14 C15 C16 0.4(3) . . . . ?
C14 C13 C18 C17 0.8(3) . . . . ?
C14 C15 C16 C17 0.4(3) . . . . ?
C15 C16 C17 C18 -0.6(3) . . . . ?
C16 C17 C18 C13 0.0(3) . . . . ?
C18 C13 C14 C15 -1.0(3) . . . . ?

_cod_database_fobs_code 2108933
