#------------------------------------------------------------------------------
#$Date: 2017-07-29 08:50:03 +0300 (Sat, 29 Jul 2017) $
#$Revision: 199400 $
#$URL: file:///home/coder/svn-repositories/cod/cif/2/10/81/2108132.cif $
#------------------------------------------------------------------------------
#
# This file is available in the Crystallography Open Database (COD),
# http://www.crystallography.net/. The original data for this entry
# were provided by IUCr Journals, http://journals.iucr.org/.
#
# The file may be used within the scientific community so long as
# proper attribution is given to the journal article from which the
# data were obtained.
#
data_2108132
loop_
_publ_author_name
'Pavan, Mysore. S'
'Sarkar, Sounak'
'Row, Tayur N. Guru'
_publ_section_title
;
 Exploring the rare S---H&#x00B7;&#x00B7;&#x00B7;S hydrogen bond using
 charge density analysis in isomers of mercaptobenzoic acid
;
_journal_issue                   4
_journal_name_full               'Acta Crystallographica Section B'
_journal_page_first              626
_journal_page_last               633
_journal_paper_doi               10.1107/S2052520617008344
_journal_volume                  73
_journal_year                    2017
_chemical_formula_sum            'C7 H6 O2 S'
_chemical_formula_weight         154.18
_space_group_crystal_system      triclinic
_space_group_IT_number           2
_space_group_name_Hall           '-P 1'
_space_group_name_H-M_alt        'P -1'
_symmetry_space_group_name_Hall  '-P 1'
_symmetry_space_group_name_H-M   'P -1'
_atom_sites_solution_hydrogens   difmap
_audit_creation_method           SHELXL-2016/6
_cell_angle_alpha                91.302(7)
_cell_angle_beta                 93.062(7)
_cell_angle_gamma                92.925(8)
_cell_formula_units_Z            2
_cell_length_a                   3.8630(3)
_cell_length_b                   6.0337(6)
_cell_length_c                   14.4721(10)
_cell_measurement_temperature    120(2)
_cell_volume                     336.29(5)
_computing_structure_refinement  'SHELXL-2016/6 (Sheldrick, 2016)'
_diffrn_ambient_temperature      120(2)
_diffrn_measured_fraction_theta_full 0.999
_diffrn_measured_fraction_theta_max 0.999
_diffrn_measurement_device_type  'Xcalibur, Eos, Nova'
_diffrn_radiation_type           MoK\a
_diffrn_radiation_wavelength     0.71073
_diffrn_reflns_av_R_equivalents  0.0368
_diffrn_reflns_limit_h_max       4
_diffrn_reflns_limit_h_min       -4
_diffrn_reflns_limit_k_max       7
_diffrn_reflns_limit_k_min       -7
_diffrn_reflns_limit_l_max       18
_diffrn_reflns_limit_l_min       -18
_diffrn_reflns_number            4199
_diffrn_reflns_theta_full        25.242
_diffrn_reflns_theta_max         26.366
_diffrn_reflns_theta_min         2.820
_exptl_absorpt_coefficient_mu    0.405
_exptl_crystal_density_diffrn    1.523
_exptl_crystal_F_000             160
_refine_diff_density_max         0.313
_refine_diff_density_min         -0.217
_refine_ls_extinction_method     none
_refine_ls_goodness_of_fit_ref   1.061
_refine_ls_hydrogen_treatment    refall
_refine_ls_matrix_type           full
_refine_ls_number_parameters     115
_refine_ls_number_reflns         1375
_refine_ls_number_restraints     0
_refine_ls_restrained_S_all      1.061
_refine_ls_R_factor_all          0.0540
_refine_ls_R_factor_gt           0.0408
_refine_ls_shift/su_max          0.000
_refine_ls_shift/su_mean         0.000
_refine_ls_structure_factor_coef Fsqd
_refine_ls_weighting_details
'w=1/[\s^2^(Fo^2^)+(0.0506P)^2^+0.0164P] where P=(Fo^2^+2Fc^2^)/3'
_refine_ls_weighting_scheme      calc
_refine_ls_wR_factor_gt          0.0952
_refine_ls_wR_factor_ref         0.1037
_reflns_number_gt                1117
_reflns_number_total             1375
_reflns_threshold_expression     'I > 2\s(I)'
_cod_data_source_file            lc5088sup1.cif
_cod_data_source_block           3
_cod_original_cell_volume        336.28(5)
_cod_database_code               2108132
_shelx_space_group_comment
;
The symmetry employed for this shelxl refinement is uniquely defined
by the following loop, which should always be used as a source of
symmetry information in preference to the above space-group names.
They are only intended as comments.
;
_shelx_hkl_file
;
   0   0   2   35.97    2.18
   0   0  -2   32.59    2.27
   0   0  -2   31.56    1.95
   0   0   2   27.97    2.39
   0   0   2   27.56    1.89
   0   0   2   28.59    2.21
   0   0   3   -0.22    1.33
   0   0   3   -0.62    0.88
   0   0  -3   -1.03    1.05
   0   0  -3   -1.28    1.27
   0   0   3   -0.25    0.91
   0   0   3    0.30    0.94
   0   0   4  242.66    9.83
   0   0  -4  241.46    7.77
   0   0   4  257.05    8.72
   0   0   4  230.95    7.64
   0   0   4  245.74    7.57
   0   0  -4  233.08    7.43
   0   0  -4  246.81    8.47
   0   0  -5  108.61    6.34
   0   0  -5   88.08    5.04
   0   0   5  100.51    5.40
   0   0   5   98.43    5.57
   0   0   5   98.03    7.06
   0   0   5  104.20    6.32
   0   0  -5  101.35    5.69
   0   0  -6   68.17    4.92
   0   0   6   78.16    7.23
   0   0  -6   71.35    5.95
   0   0   6   72.33    5.28
   0   0   6   71.99    5.71
   0   0  -6   73.40    5.31
   0   0   6   65.55    4.83
   0   0  -6   67.14    5.59
   0   0   7  552.10   15.64
   0   0   7  539.17   19.17
   0   0  -7  579.63   17.94
   0   0  -7  536.68   16.79
   0   0  -7  557.95   15.69
   0   0   7  577.08   15.22
   0   0  -7  520.03   14.56
   0   0   8   10.98    3.35
   0   0  -8    9.02    2.53
   0   0   8   11.03    2.39
   0   0  -8    6.37    1.96
   0   0  -8    7.67    2.30
   0   0  -8   10.06    2.31
   0   0  -9  354.46   14.30
   0   0  -9  353.22   15.55
   0   0  -9  370.56   16.33
   0   0  -9  351.23   13.66
   0   0   9  346.81   17.80
   0   0  10   -0.57    2.34
   0   0 -10    0.00    1.17
   0   0 -10   -0.91    2.07
   0   0 -10    0.64    1.74
   0   0 -11    7.60    2.84
   0   0 -11    6.08    2.63
   0   0  11    7.53    3.30
   0   0 -11    2.79    1.52
   0   0 -12  260.86   15.95
   0   0 -12  225.81   14.98
   0   0 -12  254.76   14.27
   0   0  12  221.79   16.75
   0   0 -13  345.36   19.25
   0   0  13  329.99   21.67
   0   0 -13  350.56   17.58
   0   0 -14   -0.62    1.91
   0   0 -14    2.51    3.10
   0   0  14    7.28    4.49
   0   0 -15   92.55    9.95
   0   0 -15  115.60   12.27
   0   0  15   97.12   13.11
   0   0 -16   -1.63    2.53
   0   0 -16   -1.99    2.63
   0   0  16    3.46    3.96
   0   0 -16   -3.30    2.19
   0   0  17   13.51    5.68
   0   0 -17    8.68    4.91
   0   0 -17    7.35    3.09
   0   0 -17    9.16    3.67
   0   0 -18   12.06    4.10
   0   0 -18   10.83    5.02
   0   0 -18   10.14    4.63
   0   0  18    4.90    4.22
   0   1 -17   60.29    8.88
   0  -1  17   59.38   11.04
   0   1 -17   59.69    8.46
   0   1 -17   46.13    8.55
   0   1 -17   52.76    9.55
   0   1 -16  117.26   11.63
   0   1 -16  112.40   12.85
   0   1 -16  124.34   13.90
   0   1 -16   97.81   10.94
   0  -1  16   95.59   13.38
   0   1 -15    7.96    3.75
   0   1 -15    4.22    2.65
   0   1 -15    4.00    3.18
   0   1 -15    8.46    3.08
   0  -1  15    2.52    2.50
   0   1 -14    2.77    2.42
   0   1 -14    3.52    2.51
   0   1 -14   -1.63    2.96
   0   1 -14    1.29    2.44
   0  -1  14    3.79    3.48
   0   1 -13    3.68    2.66
   0   1 -13    4.06    2.09
   0   1 -13    5.83    3.41
   0   1 -13    7.55    3.83
   0  -1  13   11.22    4.19
   0   1 -12    2.87    2.55
   0  -1  12    0.47    2.73
   0   1 -12   -0.16    2.17
   0   1 -12    1.47    2.10
   0   1 -11  316.01   16.86
   0   1 -11  301.89   15.35
   0  -1  11  321.87   19.21
   0   1 -11  302.54   17.03
   0   1 -10   16.14    4.03
   0   1 -10   21.07    3.90
   0   1 -10   22.49    4.62
   0  -1  10   18.23    4.79
   0   1  -9  403.32   17.34
   0  -1   9  392.59   18.80
   0   1  -9  393.58   15.47
   0   1  -9  409.92   17.19
   0   1  -8  139.83    9.63
   0   1  -8  124.41    9.07
   0   1  -8  131.44    8.54
   0  -1   8  111.75    9.49
   0   1  -7  221.06   10.33
   0   1  -7  223.19   11.35
   0   1  -7  209.66   11.07
   0  -1   7  212.82   12.02
   0   1  -7  224.13   10.02
   0   1  -6  281.69   10.41
   0   1  -6  295.51   12.05
   0   1  -6  284.63   10.91
   0  -1   6  303.58   11.35
   0  -1   6  266.70   12.73
   0   1  -6  266.20   11.72
   0  -1   6  294.90   10.87
   0   1  -5  631.52   17.34
   0  -1   5  678.47   16.59
   0   1  -5  625.60   15.01
   0  -1   5  643.03   17.65
   0  -1   5  640.84   14.91
   0   1  -5  637.93   16.49
   0  -1   5  669.35   16.28
   0   1  -5  613.20   14.24
   0   1  -5  617.82   15.96
   0   1  -4  639.06   13.93
   0  -1   4  630.42   13.73
   0   1  -4  636.09   14.86
   0  -1   4  653.32   14.66
   0   1  -4  639.94   15.17
   0   1  -4  607.00   13.03
   0  -1   4  652.23   15.84
   0   1  -4  644.37   15.85
   0  -1   3  408.56   11.10
   0   1  -3  411.78   10.33
   0  -1   3  428.16   10.99
   0  -1   3  417.75   10.65
   0   1  -3  397.47   10.84
   0   1  -3  401.51   10.55
   0  -1   3  397.32   10.15
   0  -1   3  399.46    9.51
   0   1  -3  387.21    9.52
   0   1  -3  408.05   11.15
   0  -1   2 3547.86   26.46
   0  -1   2 3483.11   28.51
   0  -1   2 3576.14   28.46
   0  -1   2 3567.57   27.82
   0   1  -2 3561.35   28.21
   0   1  -2 3537.26   27.29
   0   1  -2 3487.12   26.58
   0  -1   2 3616.72   27.65
   0   1  -2 3516.31   28.09
   0  -1   1  212.31    5.86
   0  -1   1  213.52    6.26
   0   1  -1  224.34    6.33
   0  -1   1  207.67    6.15
   0   1  -1  211.70    5.86
   0   1  -1  206.84    6.28
   0   1   0  193.96    5.10
   0   1   0  205.11    6.30
   0  -1   0  193.69    6.11
   0  -1   0  200.50    6.48
   0  -1   0  205.47    5.69
   0   1   0  198.26    6.64
   0   1   1  102.20    4.77
   0  -1  -1   91.45    4.66
   0  -1  -1   94.72    4.60
   0   1   1   98.34    4.82
   0  -1  -2   93.98    4.56
   0   1   2   74.32    3.80
   0  -1  -2   87.04    3.99
   0  -1  -2   84.48    4.80
   0   1   3   24.10    2.37
   0   1   3   25.12    2.86
   0  -1  -3   22.67    2.31
   0  -1  -3   19.80    2.54
   0  -1  -4 1291.32   21.40
   0  -1  -4 1298.37   17.94
   0   1   4 1299.46   21.38
   0   1   4 1337.96   17.97
   0  -1  -5    3.58    1.48
   0   1   5    4.83    1.49
   0   1   5    6.43    1.95
   0  -1  -5    3.79    1.87
   0  -1  -6  866.29   20.67
   0  -1  -6  809.91   16.63
   0   1   6  863.05   17.06
   0  -1  -6  849.77   18.85
   0  -1  -7    3.50    1.82
   0  -1  -7    2.31    1.87
   0   1   7    7.22    1.85
   0  -1  -7    3.42    1.36
   0  -1  -8   59.22    5.22
   0  -1  -8   70.65    6.86
   0   1   8   71.64    7.87
   0   1   8   70.08    5.67
   0  -1  -8   60.63    5.79
   0  -1  -9   48.45    5.48
   0  -1  -9   47.96    5.05
   0   1   9   56.18    7.56
   0  -1  -9   53.06    6.25
   0  -1 -10  671.79   21.08
   0   1  10  716.42   27.15
   0  -1 -10  677.53   19.71
   0  -1 -10  714.65   24.22
   0  -1 -11  427.91   19.62
   0   1  11  440.81   22.79
   0  -1 -11  436.61   16.54
   0  -1 -12  266.98   16.34
   0  -1 -12  293.29   14.37
   0   1  12  291.99   19.44
   0  -1 -12  272.40   14.94
   0  -1 -13  132.97   12.12
   0  -1 -13  119.46    9.51
   0  -1 -13  125.48   11.99
   0  -1 -13  123.95   10.49
   0   1  13  109.31   12.65
   0   1  14   -1.31    3.04
   0  -1 -14    6.73    3.97
   0  -1 -14   -1.30    2.19
   0  -1 -14    0.29    1.90
   0  -1 -14    0.10    1.77
   0   1  15    5.17    3.79
   0  -1 -15    1.86    2.13
   0  -1 -15   -0.20    2.30
   0  -1 -15    7.44    3.74
   0  -1 -16   26.05    6.25
   0  -1 -16   31.03    6.06
   0  -1 -16   27.86    6.22
   0   1  16   37.80    9.52
   0  -1 -17   48.57    7.87
   0   1  17   59.03   10.97
   0  -1 -17   64.57   10.12
   0   2 -17    2.39    1.85
   0   2 -17    1.40    2.75
   0   2 -17    0.26    2.14
   0  -2  17    7.28    4.64
   0   2 -17    0.69    2.21
   0   2 -16    1.00    1.87
   0   2 -16   -1.81    3.15
   0  -2  16   -0.50    2.41
   0   2 -16   -3.41    2.78
   0   2 -16    1.27    3.27
   0  -2  15   -0.91    2.90
   0   2 -15    1.83    2.77
   0   2 -15    2.41    3.22
   0   2 -15    1.65    1.71
   0   2 -15    5.21    2.95
   0   2 -14    4.91    3.07
   0  -2  14   10.53    5.22
   0   2 -14   10.19    3.52
   0   2 -14   13.00    4.40
   0   2 -14   10.12    3.49
   0  -2  13  141.60   14.41
   0   2 -13  159.38   13.80
   0   2 -13  150.89   11.66
   0   2 -13  129.09   12.91
   0   2 -13  147.20   12.12
   0   2 -12  155.28   13.05
   0   2 -12  137.15   11.17
   0  -2  12  140.51   13.42
   0   2 -12  149.15   11.17
   0   2 -12  134.91   12.57
   0   2 -11   14.07    4.12
   0   2 -11   23.10    5.47
   0  -2  11   12.53    4.23
   0   2 -11   11.55    3.29
   0   2 -11   15.59    3.73
   0   2 -10    3.64    2.31
   0   2 -10    8.25    2.89
   0   2 -10    4.84    2.44
   0   2 -10    3.15    2.07
   0  -2  10    1.91    2.71
   0   2  -9    0.35    1.35
   0   2  -9    1.04    1.91
   0   2  -9   -0.58    1.46
   0  -2   9    2.11    2.00
   0   2  -8    0.18    1.24
   0   2  -8    0.94    1.79
   0   2  -8    0.07    1.30
   0  -2   8    0.50    1.75
   0   2  -8   -1.62    1.43
   0   2  -7  592.16   17.73
   0   2  -7  571.38   19.32
   0   2  -7  560.89   18.01
   0  -2   7  570.96   20.39
   0   2  -6  155.42    8.80
   0   2  -6  148.27    9.74
   0   2  -6  131.03    8.34
   0  -2   6  138.74    9.37
   0   2  -5  458.86   14.38
   0  -2   5  488.79   16.33
   0  -2   5  486.13   14.13
   0   2  -5  444.82   15.44
   0   2  -5  442.06   14.53
   0   2  -5  487.14   16.21
   0  -2   4  127.64    7.74
   0   2  -4  132.31    8.12
   0  -2   4  128.31    7.19
   0   2  -4  128.36    7.39
   0   2  -4  120.39    7.54
   0   2  -3  275.15   10.60
   0  -2   3  293.13   10.64
   0   2  -3  279.52   10.76
   0   2  -3  284.55   10.51
   0  -2   3  280.58   10.45
   0  -2   3  279.98   10.39
   0  -2   3  286.80   10.33
   0   2  -2    0.11    1.32
   0  -2   2    1.68    1.37
   0   2  -2    0.85    1.44
   0  -2   2   -1.36    2.09
   0   2  -2    0.63    1.04
   0  -2   2    1.40    1.02
   0  -2   2    0.49    1.00
   0   2  -1  270.83   10.39
   0   2  -1  279.79    9.69
   0  -2   1  286.65   10.19
   0  -2   1  282.11    8.88
   0  -2   1  295.64    9.80
   0  -2   1  273.38   11.18
   0   2  -1  265.24    8.82
   0  -2   0  972.71   20.13
   0  -2   0  980.98   17.18
   0   2   0  951.03   19.71
   0   2   0 1005.36   16.50
   0  -2   0  969.48   18.92
   0   2   0 1002.59   20.84
   0  -2  -1   83.92    6.10
   0  -2  -1   67.57    2.86
   0   2   1   82.63    6.29
   0   2   1   95.59    6.55
   0  -2  -1   93.62    6.04
   0  -2  -2  854.38   19.10
   0   2   2  798.13   19.10
   0  -2  -2  763.24   16.31
   0  -2  -2  805.07   19.01
   0   2   2  778.75   19.05
   0  -2  -3   29.30    3.78
   0   2   3   21.57    3.54
   0  -2  -3   25.36    3.25
   0   2   4 1409.76   28.48
   0  -2  -4 1309.37   24.65
   0  -2  -4 1403.16   22.57
   0  -2  -5  528.46   16.61
   0   2   5  551.96   14.50
   0  -2  -5  522.97   14.26
   0  -2  -6  664.66   19.83
   0  -2  -6  694.77   17.26
   0   2   6  720.81   17.12
   0  -2  -7  122.41    9.06
   0  -2  -7  127.64    7.75
   0  -2  -8  247.08   13.40
   0  -2  -8  261.36   11.65
   0  -2  -9   60.63    6.63
   0  -2  -9   67.76    7.45
   0  -2  -9   57.63    5.78
   0  -2 -10   17.43    4.07
   0   2  10   12.38    4.07
   0  -2 -10   13.18    2.98
   0  -2 -10   16.23    3.93
   0   2  11   23.88    5.64
   0  -2 -11   15.43    3.27
   0  -2 -11   19.11    3.99
   0  -2 -11   19.29    4.54
   0  -2 -12    2.97    1.70
   0  -2 -12   10.36    2.67
   0   2  12   11.92    4.49
   0  -2 -12    4.77    2.37
   0  -2 -13   19.40    5.25
   0  -2 -13   24.40    4.47
   0   2  13   30.37    7.15
   0  -2 -13   12.92    3.49
   0  -2 -14  152.26   13.82
   0  -2 -14  173.29   12.09
   0   2  14  163.26   15.99
   0  -2 -15  109.07   12.28
   0   2  15  119.68   14.31
   0  -2 -15  101.16   10.53
   0  -2 -16   12.99    4.97
   0   2  16   16.08    5.63
   0  -2 -16   20.71    5.01
   0  -2 -16   19.85    5.72
   0  -2 -17   42.15    7.22
   0  -2 -17   63.67    9.92
   0   2  17   36.24    9.05
   0  -2 -17   40.91    8.09
   0   3 -16   39.30    7.48
   0  -3  16   25.56    6.98
   0   3 -16   35.65    6.69
   0   3 -16   23.56    6.32
   0   3 -15   37.14    6.98
   0   3 -15   37.56    7.54
   0  -3  15   41.24    8.43
   0   3 -15   42.08    7.04
   0   3 -14   74.35    9.48
   0  -3  14   91.79   12.03
   0   3 -14   99.47   10.37
   0   3 -14   89.55   11.36
   0  -3  13   81.39   11.03
   0   3 -13   73.97    9.17
   0   3 -13   60.79    7.97
   0   3 -13   66.45    9.60
   0   3 -12    2.88    2.44
   0  -3  12    5.07    2.63
   0   3 -12    3.47    1.57
   0   3 -12    3.75    2.95
   0  -3  11   92.26   10.75
   0   3 -11   94.76    9.56
   0   3 -11  101.64    9.48
   0   3 -11   96.12   10.46
   0  -3  10   50.57    7.56
   0   3 -10   42.10    6.17
   0   3 -10   47.50    7.03
   0   3 -10   48.50    6.37
   0  -3   9   66.05    8.12
   0   3  -9   62.37    7.70
   0   3  -9   78.51    7.82
   0   3  -9   67.40    7.48
   0  -3   8   12.60    3.60
   0   3  -8   15.63    3.95
   0   3  -8   21.59    4.17
   0   3  -7  178.67   11.85
   0   3  -7  202.15   11.82
   0  -3   7  174.41   11.81
   0   3  -6    7.50    3.13
   0   3  -6    3.71    2.71
   0  -3   6   15.16    3.85
   0   3  -5    5.24    2.28
   0  -3   5    2.81    1.78
   0   3  -5    8.81    3.05
   0  -3   4  220.37   11.29
   0   3  -4  224.58   11.94
   0   3  -4  213.10   11.46
   0  -3   3  246.60   11.09
   0   3  -3  242.66   12.17
   0   3  -3  228.62   10.76
   0   3  -3  232.82   11.48
   0   3  -2  868.77   21.26
   0  -3   2  907.49   20.01
   0   3  -2  905.56   23.62
   0   3  -2  910.77   20.26
   0   3  -1   14.52    2.66
   0   3  -1   14.64    3.32
   0   3  -1    9.14    2.58
   0  -3   1   10.00    2.32
   0   3   0   27.78    4.52
   0  -3   0   25.16    4.06
   0   3   0   25.70    4.59
   0   3   0   29.20    3.56
   0  -3  -1   43.65    5.27
   0   3   1   38.57    5.34
   0  -3  -1   42.38    2.70
   0   3   1   57.20    5.06
   0   3   1   46.29    5.53
   0   3   2    2.86    1.58
   0  -3  -2    1.95    1.40
   0   3   2   -0.41    2.57
   0  -3  -3  269.01   12.03
   0   3   3  289.71   14.26
   0   3   3  290.32   14.24
   0   3   4  441.57    9.38
   0  -3  -4  442.89   15.36
   0   3   4  443.53   18.14
   0   3   5   77.52    8.00
   0  -3  -5   71.39    6.27
   0  -3  -5   81.21    7.37
   0  -3  -6   84.76    7.78
   0   3   6   78.55    8.26
   0  -3  -6   84.44    7.01
   0   3   7    1.83    2.26
   0  -3  -7    0.87    1.37
   0  -3  -7    3.00    2.06
   0  -3  -8  108.10    9.62
   0  -3  -8  100.22    8.08
   0  -3  -9  153.80   10.30
   0  -3  -9  162.80   12.36
   0  -3 -10  110.02    8.92
   0  -3 -10   91.80    9.70
   0  -3 -11  135.61   11.56
   0  -3 -11  134.14   10.08
   0  -3 -11  110.44   11.04
   0  -3 -12   49.52    6.42
   0   3  12   43.54    7.57
   0  -3 -12   60.70    8.46
   0  -3 -12   53.80    7.44
   0   3  13   96.31   11.99
   0  -3 -13   77.51    9.89
   0  -3 -13   64.05    8.41
   0  -3 -13   81.96    8.59
   0  -3 -14    8.68    3.30
   0   3  14   11.69    4.44
   0  -3 -14    2.55    2.22
   0  -3 -15    0.47    2.64
   0  -3 -15    2.09    2.46
   0   3  16  171.41   18.07
   0  -3 -16  241.94   19.33
   0   4 -15   25.29    5.94
   0   4 -15   23.90    6.82
   0  -4  15   22.26    6.29
   0   4 -14    0.36    2.77
   0   4 -14    6.87    5.08
   0  -4  14    2.31    3.09
   0   4 -13   42.86    8.17
   0   4 -13   33.96    6.48
   0  -4  13   40.00    7.86
   0  -4  12   11.23    4.24
   0   4 -12   14.52    4.17
   0   4 -12   22.96    6.35
   0   4 -11    9.34    4.19
   0  -4  11    5.42    3.16
   0   4 -11    7.74    2.57
   0   4 -10   10.04    3.77
   0   4 -10    9.82    3.10
   0  -4  10    3.87    2.21
   0   4  -9   48.23    7.52
   0   4  -9   41.49    6.48
   0  -4   9   42.13    7.05
   0   4  -8   86.34    9.08
   0  -4   8   79.01    8.88
   0   4  -8   80.45    9.23
   0  -4   7  551.20   22.38
   0   4  -7  576.07   23.35
   0   4  -7  624.20   23.66
   0   4  -6  155.30   11.78
   0  -4   6  179.16   12.19
   0   4  -6  167.81   12.22
   0   4  -5   19.57    4.33
   0  -4   5   27.41    4.75
   0   4  -5   26.10    4.69
   0   4  -4  123.31    9.86
   0  -4   4  135.88    9.70
   0   4  -4  128.80   10.53
   0   4  -3    1.21    2.12
   0  -4   3   -0.32    1.57
   0   4  -3    5.79    2.69
   0  -4   2  129.14    8.61
   0   4  -2  128.40   10.42
   0   4  -2  113.10    9.05
   0   4  -1  110.95    9.93
   0   4   0  261.38   15.23
   0   4   0  287.50   16.24
   0   4   1   11.86    3.69
   0  -4  -1    8.26    1.34
   0   4   1   16.48    4.33
   0   4   2  258.60   15.34
   0   4   2  269.40   15.67
   0   4   3  121.21   10.69
   0  -4  -3  123.52    9.57
   0   4   3  114.85   10.52
   0   4   4  126.12   11.14
   0   4   4  122.15   10.94
   0  -4  -4  127.08    9.51
   0  -4  -5   30.99    5.26
   0   4   5   41.06    6.82
   0  -4  -5   35.03    5.18
   0   4   6   41.70    6.60
   0  -4  -6   40.15    5.92
   0  -4  -6   48.30    5.97
   0  -4  -7  188.62   11.98
   0   4   7  156.19   13.48
   0  -4  -7  172.84   12.72
   0  -4  -8  105.84   10.29
   0   4   8  120.83   12.24
   0  -4  -8  112.20    9.34
   0  -4  -9  104.95    9.32
   0  -4  -9  107.90   10.93
   0   4   9  101.59   11.52
   0  -4 -10   -0.84    2.09
   0   4  10   -2.66    3.35
   0  -4 -10    0.13    2.06
   0   4  11   25.27    6.72
   0  -4 -11   32.48    5.54
   0  -4 -11   35.72    6.59
   0  -4 -12    9.30    4.01
   0   4  12    8.42    3.90
   0  -4 -12    4.21    3.01
   0  -4 -12    9.63    3.10
   0  -4 -13   45.60    8.07
   0   4  13   50.46    8.89
   0   4  13   48.56   10.01
   0  -4 -13   49.13    7.84
   0   4  14   88.17   13.17
   0   4  14   79.73   11.90
   0  -4 -14   76.11    9.76
   0  -4 -14   87.90   11.34
   0  -4 -15   39.15    7.68
   0   4  15   38.84    8.47
   0  -4 -15   34.34    6.96
   0   4  15   62.72   11.71
   0   5 -13   31.21    6.62
   0   5 -13   57.16    9.63
   0  -5  13   42.69    8.44
   0   5 -12   -0.64    3.45
   0  -5  12   -3.54    3.57
   0   5 -12   -2.44    2.44
   0   5 -11   11.52    4.08
   0   5 -11   13.77    4.72
   0  -5  11    3.78    3.43
   0  -5  10    7.02    2.79
   0   5 -10    9.77    3.65
   0   5 -10    2.97    3.18
   0   5  -9  525.27   25.71
   0  -5   9  528.07   25.01
   0   5  -9  564.91   26.01
   0   5  -8    7.80    3.26
   0   5  -8   12.33    4.06
   0  -5   8    8.44    2.74
   0   5  -7    5.08    3.22
   0  -5   7    2.41    2.20
   0   5  -7    1.98    2.45
   0   5  -6    4.61    2.90
   0   5  -6    7.01    3.37
   0  -5   6    5.16    2.17
   0   5  -5   -1.53    2.22
   0  -5   5    1.19    1.70
   0   5  -5    4.46    2.26
   0  -5   4    4.42    2.31
   0   5  -4    1.59    1.78
   0   5  -4    1.10    2.00
   0  -5   3   23.83    4.60
   0   5  -3   20.49    5.02
   0   5  -2  133.23   12.40
   0   5  -1   41.21    7.04
   0  -5   0  164.06    7.25
   0   5   0  182.11   14.49
   0   5   1   18.49    4.93
   0   5   1   15.57    4.33
   0   5   2   21.55    5.96
   0  -5  -2   21.36    4.85
   0   5   2   25.79    6.11
   0  -5  -3  190.50   13.38
   0   5   3  174.04   14.42
   0   5   3  209.87   16.12
   0  -5  -4  557.20   22.66
   0   5   4  523.83   25.44
   0   5   4  574.92   26.34
   0  -5  -5   26.89    5.67
   0   5   5   18.08    5.06
   0  -5  -5   18.23    4.30
   0   5   6   76.10   10.19
   0  -5  -6   63.26    8.17
   0  -5  -6   54.63    7.21
   0  -5  -7   42.57    6.52
   0   5   7   51.18    8.27
   0  -5  -7   35.10    6.34
   0   5   8    0.10    2.71
   0  -5  -8    1.85    2.32
   0  -5  -8    2.50    3.06
   0   5   9   -2.51    3.77
   0  -5  -9    6.18    3.75
   0  -5  -9   -0.49    2.38
   0  -5 -10    4.95    3.10
   0   5  10    0.76    2.64
   0  -5 -10    6.04    3.19
   0  -5 -11  121.76   13.09
   0  -5 -11  125.70   11.62
   0   5  11  124.81   14.55
   0   5  12   39.43    8.85
   0  -5 -12   28.14    6.53
   0  -5 -13  101.03   12.44
   0  -5 -13   98.25   12.06
   0   5  13   89.59   13.44
   0   5  13  130.69   14.83
   0   6 -11   28.73    7.20
   0   6 -11   32.01    7.10
   0   6 -10    0.08    2.03
   0   6 -10   -1.73    2.46
   0   6  -9    9.90    4.01
   0  -6   9    3.17    2.79
   0   6  -9    7.85    3.49
   0   6  -8    0.64    1.96
   0   6  -8    1.41    2.29
   0  -6   8    0.56    2.46
   0  -6   7   28.04    5.87
   0   6  -7   25.41    6.14
   0   6  -7   30.71    6.98
   0   6  -6   -1.30    2.70
   0   6  -6   -1.24    2.15
   0  -6   6    2.78    2.27
   0  -6   5  101.93   10.02
   0   6  -5   95.86   11.84
   0   6  -4    1.63    1.97
   0   6  -3  135.56   13.97
   0   6  -2   19.80    5.61
   0   6  -1   48.41    9.13
   0   6   0    3.32    2.72
   0  -6  -1  107.16   11.30
   0   6   1   97.41   12.08
   0  -6  -2  235.93   16.89
   0   6   2  252.26   19.06
   0   6   2  225.64   18.50
   0   6   3   91.39   11.70
   0  -6  -3   86.92   10.22
   0   6   3   79.58   10.96
   0  -6  -4   48.31    7.83
   0   6   4   56.28    9.72
   0  -6  -5   12.89    4.26
   0  -6  -5    7.97    3.18
   0   6   5   21.23    6.24
   0  -6  -6    9.04    3.57
   0   6   6    5.64    4.23
   0  -6  -6    5.85    3.39
   0   6   7   27.12    6.92
   0  -6  -7   28.69    5.94
   0  -6  -7   23.33    5.82
   0   6   8   72.36   11.05
   0  -6  -8   80.70   10.01
   0  -6  -8   59.01    9.04
   0  -6  -9   64.58    9.50
   0  -6  -9   85.76   10.18
   0   6   9   59.34   10.48
   0  -6 -10   48.55    7.80
   0  -6 -10   55.88    9.15
   0   6  10   53.43    9.77
   0   7  -7   18.79    6.11
   0   7  -6   -0.56    2.35
   0   7  -5   61.51   10.38
   0   7  -4    9.48    4.64
   0   7  -3   83.76   12.14
   0   7  -2    5.75    2.84
   0   7  -1   13.61    5.27
   0   7   0   21.23    6.97
   0  -7   0   18.35    5.33
   0  -7  -1   24.76    6.31
   0   7   1   10.69    4.97
   0   7   2   16.17    5.93
   0  -7  -2   10.06    4.44
   0   7   3   20.39    5.87
   0  -7  -3   17.39    5.39
   0   7   4    8.91    4.38
   0  -7  -4    1.04    2.45
   0  -7  -5   36.21    7.24
   0  -7  -5   18.18    5.28
   0  -7  -6   54.29    8.66
   0  -7  -6   53.07    8.82
   1  -7  -5   45.88    7.81
  -1   7   5   42.00    9.43
   1  -7  -4   10.12    4.30
  -1   7   4    4.08    4.10
  -1   7   3   27.76    7.55
   1  -7  -3   25.07    6.20
  -1   7   2   35.32    8.46
  -1   7   1    3.14    4.25
  -1   7   0   67.49   11.22
  -1   7  -1    5.62    4.51
  -1   7  -2   51.00    9.81
  -1   7  -3    8.12    4.37
  -1   7  -4   34.37    8.41
  -1   7  -5   13.12    6.04
  -1   7  -6    3.39    2.37
   1  -6 -10    1.48    2.05
   1  -6  -9  155.06   15.98
   1  -6  -8   22.56    5.86
   1  -6  -7  103.90   12.56
   1  -6  -6   29.47    5.38
   1  -6  -6   31.48    6.92
  -1   6   6   29.05    7.31
   1  -6  -5   -1.15    2.22
  -1   6   5    4.25    4.41
   1  -6  -4    0.84    2.07
  -1   6   4    3.62    3.80
  -1   6   3   39.82    8.12
  -1   6   2   16.82    5.25
  -1   6   1   56.23    9.34
  -1   6   0   42.26    8.08
  -1   6  -1    7.00    4.13
  -1   6  -2   86.21   11.45
  -1   6  -3   -0.14    2.42
  -1   6  -4  141.53   14.88
   1  -6   5   -1.29    2.08
  -1   6  -5    0.29    1.59
  -1   6  -5    1.69    2.16
  -1   6  -6   63.75   10.10
   1  -6   6   60.42    9.07
  -1   6  -6   66.45    8.80
   1  -6   7    3.17    3.15
  -1   6  -7    8.68    4.18
  -1   6  -7    1.56    1.85
  -1   6  -8   74.31   10.87
   1  -6   8   63.21   10.03
  -1   6  -8   69.24    9.54
   1  -6   9   -1.05    2.64
  -1   6  -9   -2.39    3.31
  -1   6  -9    1.39    3.82
  -1   6 -10   30.65    7.85
   1  -6  10   22.33    5.92
  -1   6 -10   22.68    5.96
   1  -5 -13    2.72    2.62
   1  -5 -13    3.74    1.99
   1  -5 -12   74.66   11.48
   1  -5 -11   81.60   11.45
   1  -5 -10   75.01   10.67
   1  -5  -9   37.32    7.49
   1  -5  -8    2.86    2.32
   1  -5  -8    4.47    3.35
  -1   5   7   26.22    5.08
   1  -5  -7   35.19    5.13
   1  -5  -7   25.52    6.17
  -1   5   6   46.79    6.59
  -1   5   6   30.04    6.41
   1  -5  -6   32.52    6.43
   1  -5  -6   47.98    6.10
  -1   5   5   57.00    8.62
   1  -5  -5   72.36    7.65
  -1   5   5   76.43    8.28
  -1   5   4   86.31    8.34
  -1   5   4  108.09   11.80
  -1   5   3  623.50   27.57
  -1   5   3  653.71   22.97
  -1   5   2  101.24   11.19
  -1   5   1    0.38    2.08
  -1   5   0    5.87    2.89
  -1   5  -1  112.37   11.61
  -1   5  -2  190.77   15.32
   1  -5   3    9.30    3.77
  -1   5  -3   13.41    5.45
  -1   5  -3    8.16    2.81
   1  -5   4  172.08   13.62
  -1   5  -4  155.15   13.82
  -1   5  -4  144.62   11.08
  -1   5  -5    6.43    2.26
  -1   5  -5    5.86    2.99
   1  -5   5    2.62    2.93
   1  -5   6   14.10    4.48
  -1   5  -6   14.47    4.42
  -1   5  -6   10.39    3.27
  -1   5  -7    7.13    3.49
  -1   5  -7    5.74    2.85
   1  -5   7    1.89    1.88
  -1   5  -8   14.74    5.02
   1  -5   8    4.20    3.13
  -1   5  -8    4.98    2.91
   1  -5   9    5.53    3.15
  -1   5  -9    5.20    3.71
  -1   5  -9    8.89    3.74
  -1   5 -10  117.33   13.04
  -1   5 -10  115.60   12.21
   1  -5  10  117.15   13.43
  -1   5 -11   10.79    3.80
  -1   5 -11    6.92    2.79
   1  -5  11   12.98    5.18
  -1   5 -12   39.17    7.89
   1  -5  12   36.33    8.15
  -1   5 -12   39.76    7.97
  -1   5 -13    4.52    3.61
  -1   5 -13   -0.13    2.98
   1  -5  13    8.16    4.96
   1  -4 -14  163.14   16.87
   1  -4 -14  158.81   15.54
   1  -4 -13   15.52    4.95
   1  -4 -13   32.97    7.13
   1  -4 -12   98.68   12.47
   1  -4 -12  106.61   12.53
  -1   4  12  104.38   12.13
   1  -4 -11    6.36    3.81
  -1   4  11   12.03    5.16
   1  -4 -11    1.14    2.50
  -1   4  10   14.66    4.25
   1  -4 -10   13.89    4.40
  -1   4   9    6.76    3.37
   1  -4  -9   -0.50    2.12
   1  -4  -9    4.24    1.68
   1  -4  -8   73.67    9.63
  -1   4   8   74.67    8.23
   1  -4  -8   87.71    6.95
   1  -4  -7  112.00   11.35
   1  -4  -7  127.35    8.32
  -1   4   7  130.78   10.29
   1  -4  -6    0.97    1.17
   1  -4  -6   -1.81    2.77
  -1   4   6    4.10    2.77
  -1   4   6    0.26    2.95
  -1   4   5  718.51   26.67
   1  -4  -5  735.84   20.48
  -1   4   5  730.95   21.77
  -1   4   4   33.14    4.57
  -1   4   4   33.30    6.00
  -1   4   3  150.54   12.16
  -1   4   3  163.83    9.68
  -1   4   2  100.57    9.86
  -1   4   1  300.82   16.84
   1  -4  -1  314.84   13.04
   1  -4   0   37.30    4.97
  -1   4   0   37.91    6.41
   1  -4   1  164.64   10.13
  -1   4  -1  162.34   12.29
   1  -4   2    2.05    2.08
  -1   4  -2    0.21    1.98
  -1   4  -2    0.13    1.41
  -1   4  -3   -0.06    1.73
   1  -4   3    1.19    1.70
  -1   4  -3   -0.36    1.52
  -1   4  -4    1.38    1.65
   1  -4   4    0.62    1.90
  -1   4  -4    1.23    1.42
   1  -4   5   24.15    5.02
  -1   4  -5   28.08    4.84
  -1   4  -5   33.90    6.33
  -1   4  -6    1.08    1.68
   1  -4   6    3.82    2.29
  -1   4  -6    0.21    2.16
  -1   4  -7  105.89   10.60
   1  -4   7   97.12   10.44
  -1   4  -7  104.84    9.57
  -1   4  -8  874.59   29.18
  -1   4  -8  847.50   30.20
   1  -4   8  848.49   31.95
  -1   4  -9  117.42   11.28
   1  -4   9  109.51   12.09
  -1   4  -9  108.27   11.16
   1  -4  10   -2.68    3.06
  -1   4 -10   -1.82    2.26
  -1   4 -10   -2.14    2.48
   1  -4  11   17.06    4.98
  -1   4 -11   13.09    4.07
  -1   4 -11   18.94    5.20
  -1   4 -12   64.45    9.64
  -1   4 -12   42.06    7.63
   1  -4  12   53.37    9.31
  -1   4 -13    5.06    2.59
  -1   4 -13    5.87    4.00
   1  -4  13    2.16    2.39
   1  -4  14    9.36    4.46
  -1   4 -14    4.42    2.76
  -1   4 -14    0.99    2.40
  -1   3  16   54.20   10.50
   1  -3 -16   45.49    9.20
   1  -3 -16   35.14    7.28
   1  -3 -16   49.12    8.64
   1  -3 -15   73.10   10.16
   1  -3 -15   70.91   11.12
   1  -3 -15   83.72   10.48
   1  -3 -14   10.84    4.43
   1  -3 -14   17.59    5.12
   1  -3 -14   12.00    4.11
   1  -3 -13   46.86    7.80
   1  -3 -13   48.59    8.37
   1  -3 -12   43.81    7.29
   1  -3 -12   36.11    7.19
   1  -3 -11   11.27    4.63
   1  -3 -11    2.97    1.68
   1  -3 -10  195.50   15.06
   1  -3 -10  177.11   13.73
   1  -3 -10  180.42    8.43
   1  -3  -9  104.48   10.92
   1  -3  -9  120.34    6.79
   1  -3  -8  147.20   12.45
   1  -3  -8  158.96    7.75
   1  -3  -7    0.93    2.20
   1  -3  -7    5.63    1.76
  -1   3   6    1.77    1.77
  -1   3   6    2.19    2.41
   1  -3  -6    1.10    0.93
   1  -3  -6   -1.89    2.20
  -1   3   5  251.67   11.13
   1  -3  -5  251.25    9.71
  -1   3   5  242.26   13.54
   1  -3  -5  250.45   14.41
  -1   3   4  172.66    8.52
  -1   3   4  160.60   11.05
  -1   3   3  314.07   10.68
  -1   3   3  305.36   14.69
  -1   3   2    3.30    1.58
   1  -3  -2    2.76    1.03
  -1   3   2    2.96    1.05
   1  -3  -1  278.21    9.60
   1  -3  -1  246.65    7.35
  -1   3   1  268.60   13.58
   1  -3  -1  265.37    9.26
  -1   3   0  339.55   15.34
   1  -3   0  338.07   11.11
   1  -3   0  326.12   10.61
  -1   3  -1  239.28   12.77
  -1   3  -1  246.64    9.64
   1  -3   1  249.44   13.17
   1  -3   1  260.80   10.87
   1  -3   1  260.23    9.77
   1  -3   2   36.33    3.90
   1  -3   2   30.25    5.11
   1  -3   2   36.38    4.52
  -1   3  -2   32.47    5.15
  -1   3  -2   32.37    3.80
   1  -3   3  405.17   17.25
  -1   3  -3  419.20   17.36
  -1   3  -3  406.72   13.98
   1  -3   4  112.07    9.63
  -1   3  -4  111.83    7.84
  -1   3  -4  116.74    9.35
   1  -3   5  235.65   14.18
  -1   3  -5  258.99   12.57
  -1   3  -5  258.82   14.11
  -1   3  -6  323.35   14.74
  -1   3  -6  333.12   16.46
   1  -3   6  321.58   17.25
  -1   3  -7  279.42   15.53
   1  -3   7  281.61   16.99
  -1   3  -7  295.61   14.84
   1  -3   8   50.55    7.32
  -1   3  -8   49.26    6.53
  -1   3  -8   63.09    7.77
  -1   3  -9   26.24    5.14
   1  -3   9   13.72    4.54
  -1   3  -9   29.54    5.70
   1  -3  10   15.58    5.02
  -1   3 -10   14.81    4.26
  -1   3 -10   11.92    3.96
  -1   3 -11   35.78    6.45
   1  -3  11   35.60    6.85
  -1   3 -11   31.91    6.13
  -1   3 -12   62.65    8.87
  -1   3 -12   63.24    8.98
   1  -3  12   55.54    9.21
  -1   3 -13    5.41    3.24
   1  -3  13   -1.73    3.74
  -1   3 -13    1.52    2.69
  -1   3 -14   25.51    6.12
  -1   3 -14   37.56    7.24
   1  -3  14   30.21    7.23
  -1   3 -15   23.26    6.57
   1  -3  15   11.29    4.62
  -1   3 -15   22.51    5.99
   1  -3  16   11.70    4.82
  -1   3 -16   15.88    5.38
  -1   3 -16   13.44    5.39
   1  -2 -17  125.25   14.56
   1  -2 -17  116.78   12.95
  -1   2  17  126.63   15.94
   1  -2 -17  140.03   14.19
   1  -2 -16   45.36    8.83
   1  -2 -16   53.32    8.81
   1  -2 -16   51.70    8.48
  -1   2  16   45.97    9.39
   1  -2 -15   36.60    6.99
  -1   2  15   15.70    5.55
   1  -2 -15   23.67    6.23
   1  -2 -14  127.42   12.47
   1  -2 -14   93.66   10.40
   1  -2 -14   88.36   11.30
   1  -2 -13   65.38    9.52
   1  -2 -13   84.20    9.38
   1  -2 -13   75.01    9.29
   1  -2 -12  111.22   11.74
   1  -2 -12  107.02   10.69
   1  -2 -12  114.36   10.46
   1  -2 -11   28.10    4.94
   1  -2 -11   26.05    2.92
   1  -2 -11   22.92    4.85
   1  -2 -11   27.94    6.21
   1  -2 -10   27.49    5.68
   1  -2 -10   40.26    3.41
   1  -2 -10   33.63    5.95
   1  -2  -9  199.90   14.12
   1  -2  -9  213.53    7.36
   1  -2  -9  212.73   13.50
   1  -2  -8    7.56    3.22
   1  -2  -8    7.96    2.47
   1  -2  -8    7.66    1.46
   1  -2  -7  133.26   10.78
   1  -2  -7  136.96    5.21
   1  -2  -6  113.53    9.48
   1  -2  -6  117.30    4.69
   1  -2  -5  624.19   20.62
  -1   2   5  641.47   18.40
   1  -2  -5  676.53   11.27
   1  -2  -4  164.52   10.21
  -1   2   4  168.96    9.16
   1  -2  -4  169.22    8.93
  -1   2   3   94.55    4.38
  -1   2   3  103.83    5.43
  -1   2   3   90.02    6.64
   1  -2  -3   98.53    6.69
   1  -2  -2  125.15    7.32
  -1   2   2  101.13    3.56
   1  -2  -2  117.91    4.54
  -1   2   2  130.43    7.92
  -1   2   1    4.10    1.84
   1  -2  -1    2.05    0.92
   1  -2  -1    3.01    0.85
   1  -2  -1   -0.46    1.31
   1  -2  -1    2.63    1.34
  -1   2   0  221.30    6.36
   1  -2   0  242.57   10.34
  -1   2   0  228.34   10.79
  -1   2   0  203.92    9.96
   1  -2   0  212.50    6.38
   1  -2   0  203.07    6.15
  -1   2  -1 1530.87   26.85
  -1   2  -1 1444.99   18.34
   1  -2   1 1483.68   27.98
   1  -2   1 1414.77   18.02
   1  -2   2  199.37   10.65
  -1   2  -2  194.20    7.52
   1  -2   2  200.60    7.50
  -1   2  -2  193.96    9.93
   1  -2   3   62.41    4.73
  -1   2  -3   59.36    5.69
   1  -2   3   59.17    6.04
  -1   2  -3   57.81    4.62
   1  -2   4  181.57    8.69
  -1   2  -4  169.50    9.97
  -1   2  -4  164.78    8.36
   1  -2   4  160.91    7.88
   1  -2   4  159.51   10.25
  -1   2  -5    5.50    2.03
   1  -2   5    3.85    2.23
   1  -2   5    3.38    1.33
  -1   2  -5    4.95    2.34
   1  -2   6  309.03   16.01
  -1   2  -6  338.06   15.19
  -1   2  -6  319.11   13.59
  -1   2  -7   43.03    5.79
   1  -2   7   45.27    6.32
  -1   2  -7   43.34    5.42
  -1   2  -8  149.90   10.58
   1  -2   8  144.39   11.82
  -1   2  -8  181.45   12.05
  -1   2  -9   31.77    5.26
   1  -2   9   30.13    5.87
  -1   2  -9   38.71    5.76
   1  -2  10   61.02    8.83
  -1   2 -10   59.66    7.79
  -1   2 -10   58.82    7.50
   1  -2  11   25.37    6.39
  -1   2 -11   19.15    4.80
  -1   2 -11   23.32    5.08
  -1   2 -12   22.79    5.17
   1  -2  12   23.06    6.14
  -1   2 -12   21.62    4.16
  -1   2 -12   28.39    5.97
  -1   2 -13  218.28   13.44
  -1   2 -13  244.64   16.94
   1  -2  13  241.10   19.32
  -1   2 -13  241.57   17.21
  -1   2 -14   62.55    7.74
   1  -2  14   55.49    9.76
  -1   2 -14   60.08    9.03
  -1   2 -14   57.05    8.81
  -1   2 -15   29.30    6.92
   1  -2  15   29.66    8.09
  -1   2 -15   23.13    5.68
  -1   2 -15   22.78    4.69
  -1   2 -16   27.42    7.03
   1  -2  16   17.03    5.59
  -1   2 -16   34.09    7.26
  -1   1  17   29.64    7.82
   1  -1 -17   16.70    5.60
   1  -1 -17   34.09    7.23
   1  -1 -17   35.64    7.13
  -1   1  16  126.67   15.29
   1  -1 -16   89.61   11.78
   1  -1 -16   97.40   11.37
   1  -1 -16  120.19   12.53
   1  -1 -15   89.17   10.75
  -1   1  15   88.11   12.39
   1  -1 -15   84.24   10.04
   1  -1 -15   86.84   11.14
   1  -1 -14    3.22    2.28
  -1   1  14    1.61    4.17
   1  -1 -14   -0.64    1.94
   1  -1 -14   -1.76    2.84
  -1   1  13    3.96    2.95
   1  -1 -13   11.23    3.68
   1  -1 -13   10.99    3.46
   1  -1 -13    7.25    3.54
   1  -1 -12   20.83    4.40
   1  -1 -12   34.15    6.50
   1  -1 -11   26.18    5.72
   1  -1 -11   18.17    3.87
   1  -1 -10  160.48   12.30
   1  -1 -10  174.24   12.00
  -1   1  10  169.92    6.60
   1  -1 -10  180.06   11.26
   1  -1  -9  404.68   18.75
  -1   1   9  397.01    9.09
   1  -1  -9  400.00   17.52
   1  -1  -9  404.46   16.13
   1  -1  -8   91.22    8.43
   1  -1  -8   92.04    7.33
   1  -1  -8   87.45    7.86
   1  -1  -8   87.98    6.68
  -1   1   8   90.52    3.77
   1  -1  -7  335.25   14.80
   1  -1  -7  337.55   12.05
   1  -1  -7  328.54   15.23
   1  -1  -7  339.23   12.58
  -1   1   7  308.67    5.72
   1  -1  -6   44.05    5.45
   1  -1  -6   46.44    4.38
   1  -1  -6   42.50    5.13
   1  -1  -6   41.43    3.99
   1  -1  -5 2002.52   31.79
   1  -1  -5 2025.44   25.32
   1  -1  -5 1975.99   24.66
   1  -1  -5 2006.94   33.94
   1  -1  -4   10.63    1.65
  -1   1   4   13.28    2.14
   1  -1  -4   12.16    2.91
   1  -1  -4   15.47    3.11
   1  -1  -4   12.58    1.97
  -1   1   3 1033.72   16.59
   1  -1  -3 1095.38   21.88
   1  -1  -3 1039.85   12.33
   1  -1  -3 1027.37   16.37
   1  -1  -2   56.32    3.84
   1  -1  -2   59.44    2.86
  -1   1   2   59.60    4.03
  -1   1   1  502.45   11.43
   1  -1  -1  487.25   11.32
  -1   1   1  511.28   12.98
   1  -1  -1  494.75    9.81
  -1   1   1  575.10   14.81
   1  -1   0   31.16    3.81
  -1   1   0   44.26    4.20
   1  -1   0   33.77    3.20
   1  -1   0   33.16    3.67
  -1   1   0   36.21    3.38
   1  -1   0   32.45    2.99
  -1   1  -1    7.42    1.22
   1  -1   1    9.51    1.99
  -1   1  -1   10.55    2.18
   1  -1   1    7.78    1.77
  -1   1  -1    7.10    1.91
  -1   1  -1    6.53    2.01
   1  -1   1    7.41    2.25
  -1   1  -2  356.76   11.57
  -1   1  -2  365.49   11.63
  -1   1  -2  381.43   12.83
   1  -1   2  383.98   11.79
  -1   1  -2  365.39    8.97
   1  -1   2  364.95   12.76
   1  -1   3   30.91    3.69
  -1   1  -3   37.06    4.06
  -1   1  -3   43.31    4.66
  -1   1  -3   28.24    3.75
   1  -1   3   35.94    4.52
  -1   1  -3   29.73    3.10
  -1   1  -4  884.58   20.32
   1  -1   4  885.43   19.30
  -1   1  -4  865.89   20.51
  -1   1  -4  877.37   18.22
   1  -1   4  883.06   13.88
   1  -1   4  878.74   22.11
   1  -1   5  231.01   12.27
   1  -1   5  223.08    7.59
  -1   1  -5  231.22   11.05
  -1   1  -5  228.15   11.47
  -1   1  -5  228.83   10.31
   1  -1   6  575.26   20.31
  -1   1  -6  570.26   18.54
   1  -1   6  562.07   12.87
  -1   1  -6  566.36   17.46
   1  -1   7  123.92   10.06
   1  -1   7  116.60    6.29
  -1   1  -7  117.42    8.95
  -1   1  -7  118.40    6.43
  -1   1  -7  100.84    8.10
  -1   1  -8   27.88    5.04
   1  -1   8   28.93    5.32
  -1   1  -8   24.29    3.20
   1  -1   8   30.57    3.49
  -1   1  -8   27.34    4.74
  -1   1  -9   -0.03    1.55
  -1   1  -9    1.00    0.95
   1  -1   9   -0.75    2.34
   1  -1  10   78.04    9.49
  -1   1 -10   65.31    7.72
  -1   1 -10   89.08    6.75
  -1   1 -10   76.79    8.45
  -1   1 -11  182.14   13.38
   1  -1  11  204.17   15.86
  -1   1 -11  197.26   10.69
  -1   1 -11  191.77   13.65
  -1   1 -12  116.27   11.33
   1  -1  12  124.81   13.06
  -1   1 -12  106.78    8.20
  -1   1 -12  120.70   11.45
  -1   1 -13    1.30    2.74
  -1   1 -13    1.38    1.20
  -1   1 -13    1.37    2.28
   1  -1  13    2.86    3.96
  -1   1 -14   -2.45    2.46
  -1   1 -14    4.39    2.39
  -1   1 -14   -1.70    2.49
   1  -1  14    2.05    3.25
  -1   1 -15   -1.77    2.02
  -1   1 -15   -2.87    2.32
   1  -1  15    0.63    2.91
  -1   1 -16    2.57    2.68
  -1   1 -16    0.97    3.07
  -1   1 -16   -0.50    2.54
   1  -1  17   48.50   10.40
  -1   1 -17   65.40    9.92
  -1   1 -17   50.66    9.16
  -1   0  17   -2.86    3.09
   1   0 -17    2.93    2.70
   1   0 -17    3.00    2.13
   1   0 -17    2.73    2.09
   1   0 -16    3.24    3.44
   1   0 -16    1.04    2.09
   1   0 -16   -3.18    3.13
  -1   0  16    6.84    4.14
  -1   0  15    5.94    3.36
   1   0 -15    1.32    2.10
   1   0 -15    0.88    3.08
   1   0 -15    2.54    2.06
  -1   0  14   95.78   12.15
   1   0 -14   94.52   10.99
   1   0 -14   92.60   10.57
   1   0 -14   75.55    9.32
   1   0 -13  148.47   12.67
  -1   0  13  146.86   14.37
   1   0 -13  149.21   13.19
   1   0 -13  153.31   12.65
   1   0 -12  585.03   24.20
   1   0 -12  633.98   25.74
  -1   0  12  633.28   28.56
   1   0 -12  605.03   23.44
   1   0 -11  461.41   21.19
   1   0 -11  412.86   19.34
  -1   0  11  435.89   22.43
  -1   0  11  413.64   13.18
   1   0 -11  412.62   18.55
   1   0 -10    2.76    1.86
  -1   0  10    2.63    1.28
   1   0 -10   -1.02    1.83
   1   0 -10    2.12    1.90
   1   0  -9   -0.02    1.77
  -1   0   9    2.23    1.45
   1   0  -9   -1.00    2.24
   1   0  -9   -0.53    1.52
   1   0  -8   95.36    8.04
   1   0  -8   92.32    8.18
  -1   0   8   96.50    5.15
   1   0  -8   89.38    7.13
   1   0  -7  529.89   18.25
   1   0  -7  489.78   17.10
  -1   0   7  495.09   10.41
   1   0  -7  488.41   15.47
   1   0  -6    9.39    2.30
  -1   0   6   11.83    1.54
   1   0  -6   10.22    2.77
   1   0  -6    8.98    2.62
   1   0  -5  804.74   19.75
  -1   0   5  798.19   19.27
   1   0  -5  786.72   10.77
   1   0  -5  793.37   16.50
  -1   0   5  829.08   16.51
   1   0  -4    4.36    1.45
  -1   0   4    8.90    1.59
   1   0  -4    6.48    1.95
  -1   0   4    7.65    2.04
  -1   0   4    8.76    1.92
   1   0  -3   27.53    3.27
  -1   0   3   19.72    2.66
  -1   0   3   27.85    3.20
   1   0  -3   21.13    2.35
  -1   0   3   24.15    2.31
  -1   0   3   23.78    1.69
   1   0  -2   20.85    1.95
   1   0  -2   19.48    2.50
  -1   0   2   23.63    2.11
  -1   0   2   19.73    2.43
   1   0  -2   19.76    2.50
   1   0  -2   17.18    1.63
  -1   0   2   19.02    2.43
  -1   0   2   21.11    1.88
  -1   0   2   18.95    2.80
   1   0  -1  155.61    6.69
  -1   0   1  171.08    4.86
  -1   0   1  164.70    6.90
   1   0  -1  179.18    5.96
  -1   0   1  161.58    8.35
   1   0  -1  169.04    5.95
  -1   0   1  176.26    5.79
  -1   0   1  164.53    4.65
   1   0  -1  160.40    5.36
  -1   0   1  174.04    6.15
  -1   0   0   17.93    1.96
  -1   0   0   16.35    2.18
   1   0   0   16.28    2.28
   1   0   0   14.98    2.69
   1   0   0   17.16    2.38
  -1   0   0   18.32    3.41
  -1   0   0   18.80    2.64
   1   0   0   13.07    2.75
   1   0   0   19.95    1.97
  -1   0   0   20.23    2.99
  -1   0  -1 5841.54   39.33
   1   0   1 5778.82   44.12
   1   0   1 5904.20   49.71
  -1   0  -1 6116.47   41.93
   1   0   1 5997.50   40.70
   1   0   1 5774.11   38.91
  -1   0  -2  148.29    6.95
   1   0   2  151.43    6.86
  -1   0  -2  146.95    7.21
   1   0   2  150.95    7.06
   1   0   3  176.44    6.30
  -1   0  -3  163.94    7.91
   1   0   3  159.31    7.95
  -1   0  -3  176.58    8.60
   1   0   3  176.87    8.19
   1   0   4  134.09    7.97
   1   0   4  125.09    5.98
  -1   0  -4  138.70    8.00
  -1   0  -4  123.25    3.26
  -1   0  -4  136.94    8.08
   1   0   4  132.18    7.63
   1   0   5  542.85   17.14
   1   0   5  558.57   13.88
   1   0   5  539.94    9.25
  -1   0  -5  584.86   17.66
  -1   0  -5  573.66   17.36
  -1   0  -5  561.25   14.47
  -1   0  -5  563.03    9.00
   1   0   6  154.81    9.93
   1   0   6  189.32    8.92
  -1   0  -6  166.58    8.65
  -1   0  -6  184.89    6.17
   1   0   6  179.12    6.36
  -1   0  -6  169.30    9.97
  -1   0  -7   49.52    5.21
   1   0   7   57.54    4.10
  -1   0  -7   49.05    3.63
  -1   0  -7   50.74    5.83
   1   0   7   62.93    6.98
   1   0   8  564.08   21.70
  -1   0  -8  580.96   13.89
  -1   0  -8  550.41   18.24
  -1   0  -8  571.66   20.23
  -1   0  -9   10.02    2.86
   1   0   9    4.91    2.78
  -1   0  -9    8.30    2.23
  -1   0  -9   12.09    2.34
   1   0  10  249.29   16.38
  -1   0 -10  269.87   11.08
  -1   0 -10  253.59   14.18
  -1   0 -10  252.67   14.59
   1   0  11   -0.58    2.36
  -1   0 -11    2.58    2.08
  -1   0 -11    3.29    1.62
  -1   0 -11    1.51    1.91
  -1   0 -12   -0.77    2.09
  -1   0 -12    2.29    2.13
  -1   0 -12    0.91    1.85
  -1   0 -12   -0.20    1.08
   1   0  12    2.69    2.41
  -1   0 -13   45.52    7.32
  -1   0 -13   41.05    7.28
  -1   0 -13   54.48    6.00
   1   0  13   51.16    8.90
  -1   0 -13   57.82    7.93
   1   0  14   57.07    9.56
  -1   0 -14   40.20    7.10
  -1   0 -14   36.48    7.09
  -1   0 -14   59.74    6.66
  -1   0 -14   53.57    7.92
   1   0  15  111.80   14.08
  -1   0 -15  132.49   13.37
  -1   0 -15  143.21   14.22
   1   0  16   27.17    7.23
  -1   0 -16   30.62    7.08
  -1   0 -16   24.82    6.33
  -1   0 -17    2.81    3.18
  -1   0 -17    4.94    3.65
   1   0  17    1.17    3.42
   1   1 -17    7.38    4.09
  -1  -1  17   -0.62    3.32
   1   1 -17    3.01    3.39
   1   1 -17    6.96    3.50
   1   1 -16  122.82   13.83
   1   1 -16  125.54   13.36
   1   1 -16  104.64   12.21
  -1  -1  16   97.74   13.46
   1   1 -15    8.88    3.64
  -1  -1  15    7.74    4.41
   1   1 -15    3.80    3.06
   1   1 -14  216.70   11.91
  -1  -1  14  202.86   17.90
   1   1 -14  199.33   15.61
   1   1 -14  204.44   15.88
   1   1 -13   34.74    6.47
  -1  -1  13   39.49    7.91
   1   1 -13   31.82    6.02
   1   1 -13   38.05    4.87
  -1  -1  12   44.68    7.70
   1   1 -12   40.94    4.82
   1   1 -12   45.17    7.29
   1   1 -12   48.46    7.01
   1   1 -12   36.87    6.25
  -1  -1  11   16.15    4.15
   1   1 -11    7.69    3.57
   1   1 -11   20.79    4.60
   1   1 -11   11.25    3.43
   1   1 -11   13.86    2.66
  -1  -1  10  274.28   16.72
   1   1 -10  276.03   15.71
   1   1 -10  314.18   11.29
   1   1 -10  287.64   15.71
   1   1 -10  306.46   15.90
   1   1  -9   14.84    3.31
   1   1  -9   15.53    4.02
  -1  -1   9   18.64    4.36
   1   1  -9    9.96    2.99
   1   1  -9   15.14    2.32
   1   1  -8  299.13   14.51
   1   1  -8  288.04    9.15
   1   1  -8  281.39   14.22
  -1  -1   8  297.48   15.20
   1   1  -8  306.34   14.21
   1   1  -7    0.71    0.66
   1   1  -7   -0.44    1.64
   1   1  -7    0.72    1.42
   1   1  -7    1.43    1.65
  -1  -1   7    3.03    2.15
   1   1  -6   39.66    4.62
  -1  -1   6   35.12    4.73
   1   1  -6   40.56    2.72
   1   1  -6   45.02    5.31
   1   1  -6   37.80    4.76
   1   1  -5   77.46    5.83
   1   1  -5   84.86    3.41
  -1  -1   5  101.13    6.72
   1   1  -5   90.66    6.81
   1   1  -5   95.52    6.70
  -1  -1   4  101.74    6.11
  -1  -1   4   88.02    7.35
  -1  -1   4   95.12    3.10
   1   1  -4   99.41    6.16
  -1  -1   4   99.64    6.40
   1   1  -4   94.60    6.42
   1   1  -4  106.74    6.57
   1   1  -4   96.51    3.30
  -1  -1   4  108.11    6.33
  -1  -1   3   93.73    3.20
  -1  -1   3   95.97    5.30
   1   1  -3   96.14    6.06
  -1  -1   3   95.02    5.79
   1   1  -3  102.33    5.31
   1   1  -3   92.73    3.35
   1   1  -3   95.13    5.91
  -1  -1   3  101.74    5.85
  -1  -1   3   92.61    7.25
  -1  -1   2  134.31    8.51
  -1  -1   2  143.12    5.55
   1   1  -2  140.78    5.35
   1   1  -2  131.67    8.39
  -1  -1   2  134.13    6.53
  -1  -1   2  136.88    6.43
   1   1  -2  142.87    6.72
   1   1  -2  142.20    6.87
  -1  -1   2  134.60    4.46
  -1  -1   2  136.96    6.50
   1   1  -1 9688.05   49.43
  -1  -1   1 9840.09   68.14
   1   1  -1 9384.60   69.85
  -1  -1   1 9843.74   36.96
  -1  -1   1 9954.87   49.76
  -1  -1   1 9590.62   44.31
  -1  -1   1 9934.00   54.16
  -1  -1   1 9999.00   55.63
  -1  -1   0  890.80   20.60
   1   1   0  907.07   22.18
  -1  -1   0  840.31   19.80
   1   1   0  906.05   13.59
  -1  -1   0  880.77   13.66
  -1  -1   0  917.67   17.16
   1   1   0  887.04   17.06
  -1  -1   0  884.64    9.66
  -1  -1  -1  204.82    5.57
  -1  -1  -1  209.74   10.32
  -1  -1  -1  197.04    9.45
   1   1   1  216.84   10.08
   1   1   1  198.54   10.99
  -1  -1  -1  204.21    5.92
  -1  -1  -1  221.15    8.85
   1   1   1  208.81    8.47
   1   1   1  196.44    5.37
   1   1   2   34.32    2.92
   1   1   2   37.12    5.12
  -1  -1  -2   35.26    4.03
   1   1   2   41.57    4.66
  -1  -1  -2   35.74    2.94
   1   1   2   37.01    3.75
  -1  -1  -3  137.86    6.59
   1   1   3  135.00    6.54
  -1  -1  -3  145.39    4.64
   1   1   3  130.00    9.38
   1   1   3  135.36    4.86
  -1  -1  -3  143.40    8.11
   1   1   3  137.54    7.62
  -1  -1  -4   94.42    4.65
   1   1   4   88.32    4.74
   1   1   4   88.45    6.14
  -1  -1  -4   78.64    5.71
  -1  -1  -4   89.82    6.79
   1   1   5  150.18    9.01
  -1  -1  -5  158.35    8.86
   1   1   5  145.54    7.07
  -1  -1  -5  153.40    6.82
  -1  -1  -5  153.51    9.18
  -1  -1  -6  333.21   11.38
   1   1   6  356.15   12.31
   1   1   6  347.31   14.75
  -1  -1  -6  351.70   14.62
  -1  -1  -6  337.37    9.34
  -1  -1  -7    2.90    1.61
  -1  -1  -7    2.30    1.35
  -1  -1  -7    1.31    0.74
   1   1   7    1.02    1.76
  -1  -1  -8  161.94    9.49
   1   1   8  197.42   12.86
  -1  -1  -8  183.09    8.11
  -1  -1  -8  173.08   11.16
  -1  -1  -9   25.11    4.09
   1   1   9   26.66    5.10
  -1  -1  -9   36.79    5.55
   1   1  10   13.94    3.88
  -1  -1 -10   10.99    3.53
  -1  -1 -10   14.60    2.79
   1   1  11  541.45   25.08
  -1  -1 -11  501.39   16.49
  -1  -1 -11  510.70   21.54
   1   1  12  256.88   18.47
  -1  -1 -12  255.23   12.36
  -1  -1 -12  224.27   14.84
  -1  -1 -13   44.92    7.15
   1   1  13   48.30    8.39
  -1  -1 -13   53.09    7.49
  -1  -1 -13   52.64    5.95
  -1  -1 -14   61.33    8.49
  -1  -1 -14   67.65    8.84
   1   1  14   64.52   10.21
  -1  -1 -15    1.90    1.71
   1   1  15    0.15    2.55
  -1  -1 -15    5.16    3.72
  -1  -1 -15    5.42    4.48
  -1  -1 -16   15.06    4.78
   1   1  16    1.71    2.98
  -1  -1 -16   11.20    4.17
  -1  -1 -16   23.65    6.28
   1   1  17    0.60    2.41
  -1  -1 -17    8.33    5.28
  -1  -1 -17    0.50    2.68
  -1  -1 -17    1.24    1.88
  -1  -2  17   39.44    8.90
   1   2 -17   42.82    8.92
   1   2 -17   43.41    8.23
   1   2 -17   46.21    9.00
   1   2 -16    2.76    3.13
  -1  -2  16    1.83    2.96
   1   2 -16    4.47    3.13
   1   2 -16   -0.87    2.86
  -1  -2  15    3.44    3.66
   1   2 -15    3.30    4.15
   1   2 -15    8.98    3.91
   1   2 -15    3.90    3.36
  -1  -2  14    2.08    2.47
   1   2 -14    5.04    3.38
   1   2 -14    5.48    3.94
   1   2 -14    6.02    3.30
  -1  -2  13   12.79    4.66
   1   2 -13    9.65    2.96
   1   2 -13    8.62    3.93
   1   2 -13    9.83    4.26
   1   2 -13    7.43    3.54
  -1  -2  12  227.95   16.95
   1   2 -12  236.61   16.37
   1   2 -12  232.15   16.08
   1   2 -12  246.59   16.91
   1   2 -12  227.00   11.47
   1   2 -11   15.83    4.59
  -1  -2  11   17.09    4.57
   1   2 -11   16.42    4.41
   1   2 -11   12.53    3.49
   1   2 -11   14.77    2.73
   1   2 -10  137.21   11.44
   1   2 -10  138.75    8.20
   1   2 -10  124.38   10.87
  -1  -2  10  125.66   11.23
   1   2 -10  133.21   11.23
   1   2  -9   86.43    6.07
  -1  -2   9   80.90    8.55
   1   2  -9   77.00    8.18
   1   2  -9   84.03    8.79
   1   2  -9   80.17    8.26
   1   2  -8   96.09    6.15
  -1  -2   8   87.02    8.31
   1   2  -8   98.16    8.77
   1   2  -8  103.52    9.19
   1   2  -8   78.90    7.67
  -1  -2   7    6.89    2.03
   1   2  -7   10.47    2.84
   1   2  -7   13.55    2.30
   1   2  -7   16.29    3.60
   1   2  -7    8.25    2.75
   1   2  -6  610.66   19.06
  -1  -2   6  581.41   17.91
  -1  -2   6  608.28   13.33
   1   2  -6  600.19   19.64
   1   2  -6  613.72   20.29
   1   2  -6  595.87   14.04
  -1  -2   5  318.60   12.01
   1   2  -5  324.79   12.80
  -1  -2   5  336.14    9.81
   1   2  -5  316.57   13.95
   1   2  -5  342.26   14.33
   1   2  -5  341.07   10.35
  -1  -2   4  101.18    5.86
  -1  -2   4  123.55    5.98
   1   2  -4  100.68    7.43
  -1  -2   4  107.61    6.67
   1   2  -4  107.51    6.89
   1   2  -4  110.49    7.88
   1   2  -4  116.45    6.05
  -1  -2   3  402.77    9.92
  -1  -2   3  426.38   12.03
   1   2  -3  402.84   13.79
   1   2  -3  404.43   11.61
   1   2  -3  409.34   14.76
  -1  -2   3  428.30   11.41
  -1  -2   2  195.36    5.40
   1   2  -2  181.01   11.94
   1   2  -2  202.32    9.42
   1   2  -2  206.28    8.57
   1   2  -2  194.12    9.92
  -1  -2   2  199.01    8.12
   1   2  -1   18.51    4.42
  -1  -2   1   15.06    3.04
  -1  -2   1   20.15    2.89
  -1  -2   1   21.85    2.97
  -1  -2   1   20.22    2.18
   1   2   0  126.48    9.90
  -1  -2   0  112.93    7.79
  -1  -2   0  116.09    6.33
  -1  -2   0  131.25    7.42
  -1  -2   0  126.12    7.96
  -1  -2  -1   91.14    6.89
   1   2   1   92.19    8.72
  -1  -2  -1  108.71    7.19
  -1  -2  -1  104.60    7.40
   1   2   2   51.54    3.14
  -1  -2  -2   47.73    2.97
   1   2   2   50.56    5.24
   1   2   2   42.21    6.13
  -1  -2  -2   47.07    5.04
   1   2   3  622.52   22.51
  -1  -2  -3  614.62   11.86
   1   2   3  607.88   18.31
   1   2   3  578.63   13.11
  -1  -2  -3  593.82   18.00
   1   2   4   -1.05    1.03
  -1  -2  -4    0.59    1.85
   1   2   4    3.41    2.90
   1   2   4   -0.70    1.54
  -1  -2  -4   -0.51    1.01
   1   2   5  439.53   14.84
  -1  -2  -5  430.25   12.46
   1   2   5  425.18   19.80
  -1  -2  -5  419.70   16.18
   1   2   6   80.03    7.11
  -1  -2  -6   70.87    5.61
   1   2   6   78.61    5.82
  -1  -2  -6   55.41    6.30
   1   2   7  220.91   12.69
  -1  -2  -7  244.26   13.34
  -1  -2  -7  256.05   11.34
  -1  -2  -8  102.88    7.17
  -1  -2  -8   93.62    7.43
  -1  -2  -8   96.76    8.79
   1   2   8   99.40    9.19
   1   2   9  488.88   21.51
  -1  -2  -9  544.62   19.10
  -1  -2  -9  469.13   15.84
  -1  -2  -9  530.13   21.28
   1   2  10  123.34   11.57
  -1  -2 -10  128.67    9.84
  -1  -2 -10  103.99    7.81
  -1  -2 -10  103.49    9.89
   1   2  11  302.73   18.85
  -1  -2 -11  298.19   15.81
  -1  -2 -11  290.74   13.45
  -1  -2 -11  306.28   17.26
   1   2  12  106.06   11.93
  -1  -2 -12  124.57   10.87
  -1  -2 -12  109.85    8.65
  -1  -2 -12  103.76   10.56
   1   2  13    4.11    3.27
  -1  -2 -13    2.58    1.70
  -1  -2 -13   -0.10    2.51
  -1  -2 -14    9.44    3.25
  -1  -2 -14    3.35    2.11
   1   2  14   14.93    4.90
   1   2  15   64.47   11.04
  -1  -2 -15   74.21    9.52
  -1  -2 -16   61.19    9.11
   1   2  16   82.50   12.31
  -1  -3  16   13.91    5.38
   1   3 -16   13.16    5.12
   1   3 -16   12.08    5.05
   1   3 -16   13.34    5.35
  -1  -3  15   24.40    6.50
   1   3 -15    8.36    3.10
   1   3 -15   18.96    5.66
   1   3 -15   13.55    4.90
  -1  -3  14  128.87   14.05
   1   3 -14  105.19   12.61
   1   3 -14  112.93   12.49
   1   3 -14  115.52   13.23
   1   3 -13   60.96    9.35
   1   3 -13   56.36    9.08
   1   3 -13   54.79    8.40
  -1  -3  13   47.57    8.34
  -1  -3  12    0.37    2.76
   1   3 -12    5.73    3.55
   1   3 -12    5.41    3.54
   1   3 -12    7.22    2.71
   1   3 -12    0.62    1.76
  -1  -3  11    9.28    3.57
   1   3 -11    7.10    2.52
   1   3 -11   10.20    3.56
   1   3 -11    8.24    3.45
   1   3 -11    7.68    3.33
  -1  -3  10    4.38    2.87
   1   3 -10    9.86    3.26
   1   3 -10    7.18    2.28
   1   3 -10    7.99    3.48
  -1  -3   9   27.29    5.04
   1   3  -9   22.59    5.07
   1   3  -9   29.13    4.25
   1   3  -9   35.38    6.21
  -1  -3   8  248.85   13.86
   1   3  -8  273.88   15.73
   1   3  -8  272.37   16.02
   1   3  -8  269.07   12.43
  -1  -3   7   40.25    5.39
   1   3  -7   32.50    5.22
   1   3  -7   38.77    4.62
   1   3  -7   38.58    5.90
  -1  -3   6   97.99    7.50
   1   3  -6   93.78    8.72
   1   3  -6  105.44    9.41
   1   3  -6  107.85    7.59
  -1  -3   5   64.33    5.54
   1   3  -5   67.23    7.30
   1   3  -5   58.63    5.64
   1   3  -4   51.04    6.34
   1   3  -4   38.84    4.67
  -1  -3   4   52.74    4.50
   1   3  -3   35.05    4.53
   1   3  -3   24.91    4.36
  -1  -3   3   34.83    3.17
  -1  -3   2  307.08   11.17
   1   3  -2  308.53   18.47
   1   3  -2  289.68   12.89
  -1  -3   2  292.45    7.14
   1   3  -1  460.55   21.39
   1   3  -1  433.96   16.19
  -1  -3   1  413.09   17.26
  -1  -3   0   11.21    2.97
   1   3   0    7.15    3.53
  -1  -3   0    8.71    2.80
   1   3   1  138.78   11.89
   1   3   1  129.22    4.07
  -1  -3  -1  124.13    8.44
  -1  -3  -1  141.49   10.02
   1   3   2   31.10    2.71
   1   3   2   25.46    5.51
  -1  -3  -2   31.48    5.02
   1   3   3  222.87   15.19
  -1  -3  -3  237.30    9.29
   1   3   3  229.64    8.54
  -1  -3  -3  235.40   12.98
   1   3   4  648.26   16.53
  -1  -3  -4  606.33   16.01
   1   3   4  642.28   19.77
  -1  -3  -4  629.78   21.37
   1   3   4  626.26   25.80
   1   3   5  415.14   14.90
   1   3   5  404.11   21.39
  -1  -3  -5  419.58   13.99
  -1  -3  -5  404.88   17.66
   1   3   6   39.41    4.99
  -1  -3  -6   33.49    5.31
   1   3   6   44.57    7.60
  -1  -3  -6   48.15    5.07
   1   3   7   67.51    7.18
   1   3   7   70.60    9.85
  -1  -3  -7   72.33    6.60
  -1  -3  -7   65.98    7.53
   1   3   8   12.69    3.13
  -1  -3  -8    7.95    3.05
   1   3   8   12.15    4.50
  -1  -3  -8    5.98    2.12
   1   3   9    7.23    3.29
  -1  -3  -9    5.10    2.45
   1   3   9   11.54    5.28
  -1  -3  -9   10.52    3.16
   1   3  10    0.54    1.79
   1   3  10   -2.19    3.39
  -1  -3 -10    5.03    2.11
  -1  -3 -10   -1.11    2.26
  -1  -3 -10    1.46    1.70
   1   3  11   61.22    8.68
  -1  -3 -11   52.85    6.93
  -1  -3 -11   48.76    7.31
  -1  -3 -11   54.35    6.44
   1   3  12   49.39    8.30
  -1  -3 -12   39.65    6.47
  -1  -3 -12   51.02    7.71
  -1  -3 -12   45.42    6.21
  -1  -3 -13  125.86   11.82
   1   3  13  146.36   14.70
  -1  -3 -13  153.01   13.68
  -1  -3 -14   50.53    7.90
   1   3  14   49.21    9.17
  -1  -3 -14   46.85    7.71
  -1  -3 -15    4.73    3.25
  -1  -3 -15    0.79    1.98
  -1  -4  15    2.30    2.27
   1   4 -15    9.52    4.33
   1   4 -15   12.07    4.23
  -1  -4  14   59.50    9.46
   1   4 -14   54.13    9.10
   1   4 -14   74.14   11.01
  -1  -4  13   -1.50    2.59
   1   4 -13   -0.55    2.52
   1   4 -13    2.95    3.57
  -1  -4  12   69.16    9.45
   1   4 -12   57.23    8.74
   1   4 -12   73.22   10.61
   1   4 -11   22.66    4.53
  -1  -4  11   19.77    4.94
   1   4 -11   22.25    5.76
   1   4 -10   10.60    2.58
  -1  -4  10   13.36    4.15
   1   4 -10   17.29    5.04
  -1  -4   9   -0.14    1.54
   1   4  -9    4.18    2.79
   1   4  -9    0.81    1.65
  -1  -4   8   80.65    8.09
   1   4  -8   78.64    9.55
   1   4  -8   85.10    8.10
  -1  -4   7    5.57    2.60
   1   4  -7    2.90    2.02
   1   4  -7    7.98    3.57
  -1  -4   6   36.78    4.71
   1   4  -6   49.53    6.33
   1   4  -6   31.06    5.57
   1   4  -5  165.65    9.46
  -1  -4   5  181.20    9.67
   1   4  -5  162.35   12.52
   1   4  -5  175.90   11.70
   1   4  -4  130.52    7.56
   1   4  -4  121.87    9.63
   1   4  -4  112.87   10.55
  -1  -4   4  116.98    6.93
   1   4  -3  235.81    9.10
   1   4  -3  263.24   14.41
  -1  -4   3  242.27    8.85
   1   4  -2   14.00    1.97
   1   4  -2   22.64    6.24
   1   4  -2   10.67    3.39
   1   4  -1   27.23    2.41
   1   4  -1   39.26    7.30
   1   4  -1   45.98    6.10
  -1  -4   1   23.92    4.90
   1   4   0    5.68    1.13
   1   4   0   12.47    3.98
  -1  -4   0    7.25    2.66
  -1  -4   0    8.07    2.99
   1   4   0    9.01    3.25
   1   4   1   29.79    6.45
  -1  -4  -1   39.86    5.16
  -1  -4  -1   38.35    6.03
   1   4   1   36.26    2.86
   1   4   2  162.84   14.64
   1   4   2  158.50    6.71
  -1  -4  -2  152.37   11.69
   1   4   3  159.40   14.33
  -1  -4  -3  159.61   11.97
   1   4   3  158.20    7.48
  -1  -4  -4   34.84    4.65
   1   4   4   30.91    6.49
  -1  -4  -4   32.99    5.42
   1   4   5   19.95    3.48
   1   4   5   18.81    5.66
  -1  -4  -5   30.33    5.50
  -1  -4  -5   20.29    3.65
   1   4   6    5.40    2.28
  -1  -4  -6    3.00    2.46
   1   4   6   -2.72    4.09
  -1  -4  -6    2.37    1.80
  -1  -4  -7    8.26    4.10
  -1  -4  -7    9.41    2.75
   1   4   7    5.81    2.59
   1   4   7    7.33    3.54
   1   4   8  206.89   13.44
  -1  -4  -8  209.03   12.87
   1   4   8  198.62   17.67
  -1  -4  -8  188.01   14.12
   1   4   9  110.67   10.60
  -1  -4  -9  116.82   10.07
   1   4   9   76.22   11.24
  -1  -4  -9  103.52   10.66
   1   4  10   66.98    8.83
  -1  -4 -10   61.61    7.56
  -1  -4 -10   51.24    7.78
   1   4  10   75.55   12.12
   1   4  11    4.34    2.83
  -1  -4 -11    6.13    3.40
   1   4  11    8.29    3.88
  -1  -4 -11   12.46    3.84
   1   4  12   20.60    5.67
  -1  -4 -12   30.52    6.55
   1   4  12   26.28    8.01
   1   4  13   -1.50    2.53
  -1  -4 -13    4.09    2.72
   1   4  13   -0.82    3.37
  -1  -4 -14    4.29    2.29
   1   4  14    4.85    4.14
   1   4  14    2.17    2.78
   1   5 -13    3.78    3.13
   1   5 -12    5.57    3.03
   1   5 -11    6.24    3.34
   1   5 -10    3.37    1.78
   1   5 -10   16.65    5.61
   1   5  -9   -0.96    2.29
   1   5  -9    3.41    1.93
   1   5  -8  458.12   24.57
   1   5  -8  460.08   21.58
   1   5  -7   43.65    6.78
   1   5  -7   42.25    7.79
   1   5  -6    1.52    2.30
   1   5  -6    5.00    3.58
   1   5  -5   22.27    5.09
   1   5  -5   16.36    4.55
   1   5  -4    7.65    3.08
   1   5  -3   31.32    5.69
   1   5  -2    9.25    3.57
   1   5  -1  142.93   15.16
  -1  -5   1  163.38   11.35
   1   5  -1  144.01   12.82
  -1  -5   1  155.87   13.29
  -1  -5   0   14.89    3.32
  -1  -5   0   10.24    3.99
   1   5   0   11.25    4.07
   1   5   0   22.59    6.27
   1   5   1   98.86   12.37
  -1  -5  -1  105.08   10.96
  -1  -5  -2   51.45    7.69
   1   5   2   56.23    9.46
   1   5   3   26.05    7.76
  -1  -5  -3   25.68    5.63
   1   5   4  115.88   13.79
  -1  -5  -4  144.18   10.46
  -1  -5  -4  148.98   12.96
  -1  -5  -5   91.36    8.54
   1   5   5   75.02   11.22
  -1  -5  -5  105.25   11.01
  -1  -5  -6   49.63    6.52
   1   5   6   67.17   11.18
  -1  -5  -6   58.86    8.40
  -1  -5  -7   45.83    6.77
   1   5   7   52.01    9.78
  -1  -5  -7   59.28    8.42
   1   5   8   30.81    7.92
  -1  -5  -8   20.09    5.32
  -1  -5  -9    3.87    3.51
   1   5   9    8.07    4.21
  -1  -5 -10   16.51    5.05
   1   5  10   12.94    5.37
  -1  -5 -11    5.69    3.24
   1   5  11    0.79    2.60
  -1  -5 -12   67.03    9.75
   1   5  12   51.20   10.92
   1   6 -10  175.46   17.14
   1   6  -9    2.54    2.21
   1   6  -9   -3.62    2.18
   1   6  -8    3.20    2.02
   1   6  -8    2.65    2.66
   1   6  -7   -1.39    2.71
   1   6  -7    0.10    2.83
   1   6  -6    3.38    1.85
   1   6  -5    7.79    3.96
   1   6  -4   21.98    5.70
   1   6  -3   42.02    7.72
   1   6  -2   22.71    5.87
  -1  -6   2   21.13    5.42
   1   6  -1   37.78    7.57
  -1  -6   1   51.24    8.55
   1   6   0    4.39    4.35
  -1  -6   0    4.23    2.29
   1   6   1   -3.49    3.51
  -1  -6  -1   -0.26    2.26
   1   6   2  204.84   19.76
  -1  -6  -2  239.77   18.05
   1   6   3  201.40   19.63
  -1  -6  -3  209.12   16.80
   1   6   4   54.29   10.26
  -1  -6  -4   54.86    8.87
   1   6   5   31.29    8.19
  -1  -6  -5   30.13    6.53
  -1  -6  -6   16.94    5.34
   1   6   6    9.42    4.68
   1   6   7    0.53    2.66
  -1  -6  -7    2.92    2.15
  -1  -6  -8    1.92    1.94
   1   6   8   -0.05    4.29
   1   6   9   21.04    6.52
  -1  -6  -9   17.08    4.85
   1   7  -5   -0.62    3.17
   1   7  -4   46.11    8.83
  -1  -7   4   47.04    9.03
   1   7  -3    2.27    2.93
  -1  -7   3   14.03    5.30
   1   7  -2   62.48   10.40
  -1  -7   2   83.15   11.91
  -1  -7   1    4.14    3.51
  -1  -7   0   54.05    9.49
   1   7   1   60.45   12.04
  -1  -7  -1   52.85    9.34
   1   7   2   29.07    8.04
  -1  -7  -2   30.54    7.19
   1   7   3   15.22    6.86
  -1  -7  -3   35.98    7.68
   1   7   4    2.56    4.58
  -1  -7  -4   -6.70    3.64
  -2   7   1   11.11    5.29
  -2   7   0   -0.85    3.02
  -2   7  -1    5.88    4.25
   2  -6  -8  148.14   16.57
  -2   6   7   32.64    7.31
   2  -6  -7   33.13    8.25
  -2   6   6   56.97    9.74
   2  -6  -6   54.34   10.00
  -2   6   5    4.76    2.59
  -2   6   4   21.88    6.49
  -2   6   3    2.44    2.58
  -2   6   2    6.55    3.22
  -2   6   1  147.55   15.47
  -2   6   0    2.60    3.45
  -2   6  -1   66.65   10.46
  -2   6  -2    3.62    3.28
  -2   6  -3   32.63    7.41
  -2   6  -4    4.68    3.80
  -2   6  -5   35.43    8.02
   2  -6   5   36.03    8.12
   2  -6   6   16.57    6.44
  -2   6  -6    9.58    5.32
   2  -6   7   -1.99    2.45
  -2   6  -7    0.92    2.34
  -2   6  -8   42.12    8.60
   2  -6   8   24.43    6.46
   2  -5 -11    2.21    2.21
   2  -5 -11   13.34    5.33
   2  -5 -10  234.94   20.69
   2  -5  -9   15.76    6.29
   2  -5  -8  106.93   13.47
  -2   5   8  102.67   12.02
  -2   5   7    4.45    2.96
   2  -5  -7   10.93    4.40
  -2   5   6   19.78    5.25
   2  -5  -6   21.83    6.16
  -2   5   5   19.79    5.29
  -2   5   4   48.92    8.09
  -2   5   3   -1.85    2.17
  -2   5   2  108.24   11.81
  -2   5   1   50.60    8.04
  -2   5   0    0.90    2.04
  -2   5  -1   23.09    5.64
  -2   5  -2   53.13    8.52
  -2   5  -3  215.64   11.98
  -2   5  -3  217.27   17.09
   2  -5   4   -0.62    2.16
  -2   5  -4    1.33    2.09
  -2   5  -4   -0.14    1.52
  -2   5  -5  114.77   12.72
  -2   5  -5  103.07    9.09
   2  -5   5  105.72   12.53
   2  -5   6    0.11    3.09
  -2   5  -6   -0.26    2.04
  -2   5  -6   -0.73    1.45
   2  -5   7   43.84    8.77
  -2   5  -7   51.77    9.33
  -2   5  -7   38.23    6.20
   2  -5   8   10.58    5.18
  -2   5  -8    6.40    3.82
  -2   5  -8    9.59    3.39
   2  -5   9   55.90   10.01
  -2   5  -9   49.98    7.64
  -2   5  -9   34.52    7.36
   2  -5  10   13.90    5.00
  -2   5 -10   14.07    5.67
  -2   5 -10   11.25    4.20
   2  -5  11   -5.73    3.11
  -2   5 -11    1.99    2.49
  -2   5 -11    0.40    2.35
   2  -4 -13  110.54   14.15
   2  -4 -13  104.41   13.11
   2  -4 -12   63.57   10.58
   2  -4 -12   68.60   10.43
   2  -4 -11   46.74    9.03
   2  -4 -11   30.31    7.24
   2  -4 -10    9.39    3.92
   2  -4 -10   10.13    5.16
   2  -4  -9   13.80    4.62
   2  -4  -8   55.42    8.97
   2  -4  -7   46.79    8.14
  -2   4   7   61.56    8.32
   2  -4  -6   49.67    8.59
  -2   4   6   61.79    8.29
   2  -4  -6   52.36    4.71
  -2   4   5   44.76    6.72
  -2   4   4  860.94   29.63
  -2   4   3   33.57    6.03
  -2   4   2   53.45    7.81
  -2   4   1   20.50    4.90
   2  -4  -1   19.17    2.33
   2  -4   0  198.15    7.84
  -2   4   0  185.93   13.82
   2  -4   1  165.77    7.79
  -2   4  -1  154.91   12.81
  -2   4  -2    8.13    3.47
  -2   4  -2    4.82    1.84
  -2   4  -3  130.54   11.95
   2  -4   3  140.51   12.85
  -2   4  -3  130.03    8.26
   2  -4   4   45.59    7.62
  -2   4  -4   42.39    7.16
  -2   4  -4   39.78    4.93
   2  -4   5   -1.23    2.49
  -2   4  -5    3.95    1.72
  -2   4  -5    3.78    2.82
   2  -4   6   21.69    5.41
  -2   4  -6   19.99    5.33
  -2   4  -6   21.29    4.19
   2  -4   7   12.93    4.44
  -2   4  -7    6.26    3.76
  -2   4  -7    8.93    3.02
   2  -4   8   46.57    8.40
  -2   4  -8   43.55    7.93
  -2   4  -8   49.50    7.11
  -2   4  -9  210.58   17.38
   2  -4   9  222.27   18.50
  -2   4  -9  235.02   15.60
  -2   4 -10    1.50    1.59
  -2   4 -10   -2.16    2.95
   2  -4  10    4.73    3.07
   2  -4  11   10.77    5.38
  -2   4 -11   11.05    4.03
  -2   4 -11   15.17    5.02
  -2   4 -12    8.03    4.50
  -2   4 -12    7.55    4.27
   2  -4  12    8.98    4.88
  -2   4 -13  100.78   13.37
  -2   4 -13  101.48   12.31
   2  -4  13  103.99   13.98
   2  -3 -15  102.72   13.95
   2  -3 -15  115.16   13.62
   2  -3 -14   12.78    4.97
   2  -3 -14    3.60    2.46
   2  -3 -13   36.43    7.93
   2  -3 -13   38.67    7.65
   2  -3 -12   49.57    9.22
   2  -3 -12   51.61    8.60
   2  -3 -11   34.21    4.86
   2  -3 -11   35.76    7.54
   2  -3 -11   27.53    6.28
   2  -3 -10   11.80    3.07
   2  -3 -10    6.84    3.48
   2  -3 -10    5.67    3.13
   2  -3  -9  108.44   12.37
   2  -3  -9  105.82   11.28
   2  -3  -9  100.91    7.24
   2  -3  -8  138.54   13.31
   2  -3  -8  125.81   11.88
   2  -3  -8  126.57    7.47
   2  -3  -7    1.76    1.20
  -2   3   7    5.70    1.69
  -2   3   7   -0.15    1.55
  -2   3   7    1.24    1.64
   2  -3  -7   -2.08    2.66
   2  -3  -6  411.82   21.45
  -2   3   6  403.11   16.01
   2  -3  -6  377.68    9.23
  -2   3   6  366.53   17.17
   2  -3  -6  400.74   10.44
   2  -3  -6  381.04    9.06
  -2   3   5   17.48    3.37
   2  -3  -5   23.52    5.37
   2  -3  -5   22.48    2.71
  -2   3   5   19.73    3.98
   2  -3  -5   20.58    1.96
   2  -3  -5   22.08    2.09
   2  -3  -4  286.08   10.42
   2  -3  -4  251.90    5.31
  -2   3   4  288.42   14.94
   2  -3  -3  157.07    8.30
  -2   3   3  141.55   10.43
  -2   3   2  227.81   13.35
  -2   3   1    8.39    2.79
  -2   3   0  101.53    8.92
  -2   3  -1   24.18    4.76
  -2   3  -1   24.04    2.52
   2  -3   2    4.22    2.50
  -2   3  -2    1.97    2.08
  -2   3  -2    0.36    0.80
   2  -3   3    9.20    3.72
  -2   3  -3    4.35    2.36
  -2   3  -3   14.41    2.57
  -2   3  -4   92.66    9.33
  -2   3  -4   84.59    6.42
   2  -3   4   88.81    9.80
   2  -3   5   32.58    6.46
  -2   3  -5   30.95    5.70
  -2   3  -5   35.07    4.48
  -2   3  -6  209.28   14.75
  -2   3  -6  182.98   11.00
   2  -3   6  180.25   14.44
  -2   3  -7  619.50   26.04
  -2   3  -7  588.21   20.88
   2  -3   7  587.17   26.90
  -2   3  -8  402.53   21.73
  -2   3  -8  420.70   18.85
   2  -3   8  335.17   21.24
  -2   3  -9    8.90    3.42
   2  -3   9    0.24    2.63
  -2   3  -9    4.34    3.59
  -2   3 -10   28.19    5.53
   2  -3  10   33.10    7.15
  -2   3 -10   26.33    5.96
  -2   3 -11   42.69    7.21
   2  -3  11   39.28    8.02
  -2   3 -11   35.70    7.24
  -2   3 -12   10.84    4.02
   2  -3  12    8.14    3.80
  -2   3 -12   13.16    4.84
  -2   3 -13   14.61    4.97
   2  -3  13    6.07    3.87
  -2   3 -13   14.04    5.07
  -2   3 -14   27.68    6.50
   2  -3  14   31.71    8.39
  -2   3 -14   14.95    5.59
   2  -2 -16   38.18    8.38
   2  -2 -16   35.15    7.69
   2  -2 -15    5.68    4.63
   2  -2 -14   88.26   12.12
   2  -2 -14   90.14    9.42
   2  -2 -13   50.70    8.95
   2  -2 -13   42.81    7.61
   2  -2 -13   47.39    6.63
   2  -2 -12   16.58    3.88
   2  -2 -12   10.23    4.01
   2  -2 -12   19.69    5.22
   2  -2 -11  143.33   14.04
   2  -2 -11  136.94   12.62
   2  -2 -11  156.10   10.38
   2  -2 -10   55.47    8.46
   2  -2 -10   61.65    8.53
   2  -2 -10   70.96    6.51
   2  -2  -9   28.20    5.61
   2  -2  -9   36.31    6.33
   2  -2  -9   37.87    4.40
   2  -2  -8   84.89    9.84
   2  -2  -8   92.78    9.44
   2  -2  -8   82.39    5.91
   2  -2  -7   43.39    6.86
   2  -2  -7   31.37    5.35
   2  -2  -7   34.64    3.45
   2  -2  -6  191.57   13.39
   2  -2  -6  171.02   12.11
  -2   2   6  165.43    9.55
   2  -2  -6  176.89    6.59
  -2   2   5  118.57    5.12
   2  -2  -5  112.70    9.87
  -2   2   5  121.16    9.57
   2  -2  -5  129.93   10.04
  -2   2   5  136.68    8.57
   2  -2  -5  114.67    3.79
   2  -2  -5  117.50    4.24
   2  -2  -4  227.21   13.89
  -2   2   4  207.52   12.07
   2  -2  -4  220.93    7.14
  -2   2   4  217.68   10.88
  -2   2   3    0.33    1.33
   2  -2  -3    0.86    0.82
  -2   2   3    0.72    1.85
  -2   2   2   75.75    6.50
   2  -2  -2   90.08    5.88
  -2   2   1  304.07   13.21
   2  -2  -1  334.39   12.25
  -2   2   0  125.32    8.66
   2  -2   0  129.71    5.08
   2  -2   1  173.20   11.78
  -2   2  -1  146.01    9.93
  -2   2  -1  164.82    5.39
  -2   2  -2  527.97   18.85
  -2   2  -2  557.09   12.15
   2  -2   2  580.67   21.77
   2  -2   3   86.68    8.82
  -2   2  -3   98.22    8.57
  -2   2  -3   98.63    6.00
  -2   2  -4  102.52    9.04
  -2   2  -4   99.56    6.52
   2  -2   4  103.93   10.00
   2  -2   5   40.99    6.43
   2  -2   5   46.99    4.27
  -2   2  -5   40.98    4.73
  -2   2  -5   38.64    5.80
  -2   2  -6  410.85   19.11
   2  -2   6  384.42   12.29
  -2   2  -6  387.64   15.37
   2  -2   6  416.67   20.66
  -2   2  -7   44.99    7.24
   2  -2   7   45.25    4.26
   2  -2   7   41.95    7.03
  -2   2  -7   45.89    5.72
  -2   2  -8   22.26    4.34
   2  -2   8   44.83    7.75
  -2   2  -8   25.28    5.45
   2  -2   9   14.77    5.06
  -2   2  -9   11.19    4.33
  -2   2  -9   13.47    3.58
   2  -2  10   41.72    7.86
  -2   2 -10   56.67    8.36
  -2   2 -10   47.83    6.98
  -2   2 -11   48.00    7.19
   2  -2  11   47.35    8.34
  -2   2 -11   66.54    9.35
  -2   2 -12    7.96    3.55
   2  -2  12    8.85    4.51
  -2   2 -12    6.56    3.44
  -2   2 -13    7.31    3.28
   2  -2  13   15.09    6.07
  -2   2 -13   14.47    5.06
   2  -2  14   67.29   11.19
  -2   2 -14   70.75   10.96
  -2   2 -14   72.91   10.38
  -2   2 -15   34.60    7.47
   2  -2  15   35.63    8.95
  -2   2 -15   42.00    8.59
   2  -1 -16   25.51    6.12
  -2   1  16   22.88    7.07
   2  -1 -16   20.29    5.88
   2  -1 -16   32.71    7.27
   2  -1 -15   89.73   11.89
   2  -1 -15   90.84   11.44
   2  -1 -15  102.93   10.87
   2  -1 -14   59.76    9.47
   2  -1 -14   54.70    8.71
   2  -1 -14   51.76    7.44
   2  -1 -13   29.29    5.10
   2  -1 -13   26.68    6.33
   2  -1 -13   22.10    5.51
   2  -1 -12    0.86    1.58
   2  -1 -12    3.36    3.09
   2  -1 -12   -2.19    2.37
   2  -1 -11    1.28    1.62
   2  -1 -11    1.53    2.45
   2  -1 -10  157.12   13.10
   2  -1 -10  148.46    9.86
   2  -1  -9   19.59    3.49
   2  -1  -9   14.02    2.30
   2  -1  -9   22.95    5.70
   2  -1  -9   18.55    4.39
   2  -1  -8  124.28    6.23
   2  -1  -8  112.01   10.34
   2  -1  -8  128.87   10.54
   2  -1  -8  130.20    7.94
   2  -1  -7   94.18    5.18
   2  -1  -7   86.91    8.82
   2  -1  -7   85.14    8.41
   2  -1  -7   89.04    5.95
   2  -1  -6  374.76   10.33
  -2   1   6  382.82   14.48
   2  -1  -6  357.83   17.01
   2  -1  -6  374.09   16.62
   2  -1  -6  374.30   10.99
  -2   1   5   -0.06    1.16
   2  -1  -5   -0.53    1.55
   2  -1  -5   -0.07    0.62
  -2   1   5    0.14    1.12
   2  -1  -5    0.89    1.51
   2  -1  -5    2.32    1.07
  -2   1   4  263.74   10.01
   2  -1  -4  272.19    9.29
   2  -1  -4  252.38   12.95
  -2   1   4  284.37   15.16
   2  -1  -4  280.28   12.99
   2  -1  -4  264.52    6.53
  -2   1   4  276.46    9.44
   2  -1  -4  264.90    6.91
  -2   1   3   93.66    5.54
   2  -1  -3   93.55    7.71
   2  -1  -3  100.08    5.73
  -2   1   3   91.60    8.66
   2  -1  -3   95.92    7.34
  -2   1   3   97.81    5.06
   2  -1  -3   92.46    4.89
  -2   1   3  108.83    6.09
  -2   1   2   43.59    4.10
  -2   1   2   41.91    3.69
   2  -1  -2   51.02    4.44
  -2   1   2   43.36    5.73
   2  -1  -2   40.03    4.75
  -2   1   2   48.02    4.16
   2  -1  -2   43.39    3.84
  -2   1   1  267.58   10.54
   2  -1  -1  249.35    9.05
  -2   1   1  243.64   13.83
   2  -1  -1  256.05   10.66
  -2   1   1  255.14   10.20
  -2   1   1  238.25    4.61
   2  -1  -1  262.14   10.03
  -2   1   0  639.73   17.15
   2  -1   0  617.72   15.59
  -2   1   0  629.04   17.32
   2  -1   0  650.88   16.89
   2  -1   1   24.02    3.45
  -2   1  -1   22.46    3.62
   2  -1   1   21.64    4.28
  -2   1  -1   22.88    3.55
   2  -1   2    7.98    3.03
  -2   1  -2    6.35    2.09
  -2   1  -2    4.24    1.68
  -2   1  -3  202.27   11.38
  -2   1  -3  201.47   11.53
   2  -1   3  197.65   12.04
  -2   1  -4    1.71    2.09
   2  -1   4    0.17    2.05
  -2   1  -4   -1.26    2.34
  -2   1  -5  315.30   15.30
   2  -1   5  288.03    7.00
  -2   1  -5  289.88   15.24
   2  -1   5  284.73   15.88
  -2   1  -6   89.80    8.60
   2  -1   6   77.24    3.62
  -2   1  -6   89.31    9.05
   2  -1   6   80.82    8.80
  -2   1  -7  140.45   11.19
  -2   1  -7  126.58   11.04
   2  -1   7  132.00   11.39
  -2   1  -8   -2.08    2.38
   2  -1   8    2.97    2.34
   2  -1   8    0.05    0.60
  -2   1  -8    0.10    1.79
  -2   1  -9    5.60    3.71
  -2   1  -9    7.40    3.03
   2  -1   9    8.43    3.49
  -2   1 -10   45.74    7.51
   2  -1  10   53.04    8.40
  -2   1 -10   49.69    7.29
  -2   1 -11   -1.25    2.93
  -2   1 -11    0.38    1.88
   2  -1  12  309.31   21.87
  -2   1 -12  335.49   21.11
  -2   1 -12  304.00   19.89
  -2   1 -12  331.66   19.96
  -2   1 -13   36.69    7.11
   2  -1  13   35.07    7.77
  -2   1 -13   42.43    7.86
  -2   1 -14    2.33    2.50
   2  -1  14   -0.30    2.50
  -2   1 -14    7.56    3.66
  -2   1 -15    4.55    2.79
   2  -1  15    3.81    4.12
  -2   1 -15    8.06    3.60
   2   0 -16    8.85    3.62
  -2   0  16   11.93    5.49
   2   0 -16   13.11    4.95
   2   0 -16   18.31    5.60
  -2   0  15   12.35    5.23
   2   0 -15   22.20    5.99
   2   0 -15   12.39    4.06
   2   0 -15    2.34    1.99
   2   0 -14   20.28    5.35
  -2   0  14   20.10    6.05
   2   0 -14   24.86    5.67
   2   0 -14   26.72    6.04
   2   0 -13   17.65    5.12
   2   0 -13   14.44    3.93
   2   0 -13   12.46    4.40
   2   0 -12   28.13    5.32
   2   0 -12   18.68    5.16
   2   0 -12   12.55    3.91
   2   0 -11  245.21   16.37
   2   0 -11  245.34   16.29
   2   0 -11  246.46   14.18
   2   0 -10  288.30   17.04
   2   0 -10  289.31   17.14
   2   0 -10  292.04   14.61
  -2   0   9    5.10    0.88
   2   0  -9    4.66    2.62
   2   0  -9    3.11    1.96
   2   0  -9   10.14    2.86
   2   0  -8   43.45    6.13
   2   0  -8   29.01    5.00
   2   0  -8   42.72    5.13
  -2   0   8   35.94    2.41
   2   0  -7   30.19    4.86
   2   0  -7   23.67    4.29
  -2   0   7   30.90    2.39
   2   0  -7   28.94    3.95
   2   0  -6  879.75   24.45
   2   0  -6  868.62   24.33
   2   0  -6  866.89   19.57
  -2   0   6  830.55   13.41
  -2   0   6  894.15   19.27
  -2   0   5    4.90    1.41
  -2   0   5    6.60    1.48
   2   0  -5    3.70    1.91
   2   0  -5    4.69    2.43
   2   0  -5    4.91    1.21
  -2   0   4  466.53   16.98
   2   0  -4  435.34   15.43
   2   0  -4  469.67   16.10
   2   0  -4  461.35   12.24
  -2   0   4  455.76   11.46
  -2   0   4  446.07   11.94
  -2   0   4  423.65    7.29
  -2   0   3    3.42    1.20
  -2   0   3    2.77    1.30
  -2   0   3    4.51    2.14
  -2   0   3    1.77    2.43
   2   0  -3    2.68    1.49
   2   0  -3    2.69    0.99
   2   0  -3    1.53    1.47
  -2   0   3    3.49    1.04
   2   0  -2   57.12    5.90
  -2   0   2   54.93    5.49
  -2   0   2   59.38    3.88
   2   0  -2   50.76    4.61
  -2   0   2   61.82    7.38
   2   0  -2   55.57    4.98
  -2   0   2   52.34    3.88
  -2   0   2   60.56    4.88
   2   0  -2   58.72    4.61
  -2   0   2   59.63    5.59
  -2   0   1    0.33    1.41
  -2   0   1    0.37    0.83
   2   0  -1    2.84    1.96
  -2   0   1    3.10    2.00
  -2   0   1    0.13    1.03
   2   0  -1   -0.26    0.96
  -2   0   1    3.65    2.95
   2   0  -1   -1.02    1.18
   2   0  -1   -0.08    1.14
  -2   0   1    0.18    0.78
  -2   0   0    2.80    1.93
  -2   0   0    1.06    1.29
   2   0   0    1.26    1.64
  -2   0   0    0.18    3.11
   2   0   0    2.52    1.11
   2   0   1  228.44   12.42
   2   0   1  218.24    6.76
  -2   0  -1  208.37   10.82
   2   0   1  213.57   10.73
  -2   0  -1  207.30   10.35
  -2   0  -2   41.17    5.03
   2   0   2   39.64    5.70
   2   0   2   32.75    2.14
   2   0   2   37.55    4.66
   2   0   3  483.42   19.68
  -2   0  -3  484.24   18.25
   2   0   3  513.72   17.63
  -2   0  -4  108.26    8.96
   2   0   4  125.99    6.58
   2   0   4  128.41    9.30
  -2   0  -5  127.15   10.25
   2   0   5  127.69    9.57
   2   0   6  240.14   13.97
  -2   0  -6  249.94   14.62
   2   0   7   33.33    5.76
  -2   0  -7   22.55    4.82
   2   0   8    3.21    2.68
  -2   0  -8    0.07    1.88
   2   0   9  137.69   12.50
  -2   0  -9  111.97   11.26
   2   0  10  148.31   13.81
  -2   0 -10  149.38   13.08
  -2   0 -11   40.20    7.03
   2   0  11   50.38    8.53
  -2   0 -12    5.50    3.43
   2   0  12    3.68    2.92
  -2   0 -13    8.30    4.07
   2   0  13    6.86    3.83
  -2   0 -14    3.27    3.47
  -2   0 -14    2.38    2.36
   2   0  14    3.81    2.38
  -2   0 -15   11.03    4.66
   2   0  15   12.46    5.69
  -2   0 -15    8.02    3.65
   2   0  16   92.61   13.59
  -2   0 -16  102.75   12.89
  -2   0 -16   85.23   11.97
  -2  -1  16    4.92    4.37
   2   1 -16   -3.48    3.66
   2   1 -16    6.60    3.81
  -2  -1  15   50.84    9.51
   2   1 -15   69.04   10.21
   2   1 -15   60.95    9.80
   2   1 -15   53.87    8.50
  -2  -1  14   40.27    8.72
   2   1 -14   36.28    7.46
   2   1 -14   35.69    7.22
   2   1 -14   30.41    6.15
  -2  -1  13  392.06   23.80
   2   1 -13  443.02   23.76
   2   1 -13  426.90   23.98
   2   1 -13  438.14   22.11
  -2  -1  12   90.48   10.96
   2   1 -12  101.64   11.06
   2   1 -12   89.35   10.58
   2   1 -12  110.52   10.67
   2   1 -11   64.87    8.37
  -2  -1  11   40.05    7.08
   2   1 -11   48.01    7.48
   2   1 -11   56.56    7.48
   2   1 -10   24.74    5.14
   2   1 -10   34.06    6.55
   2   1 -10   32.59    5.35
   2   1  -9  113.19    9.98
   2   1  -9   98.35    9.83
   2   1  -9  107.15    9.24
  -2  -1   9  109.78    7.24
   2   1  -8  170.51   11.53
   2   1  -8  174.18   12.73
   2   1  -8  165.86   10.86
  -2  -1   8  163.94    8.58
   2   1  -7   13.54    3.61
  -2  -1   7   13.66    2.50
   2   1  -7   11.92    3.63
   2   1  -7   18.60    3.45
   2   1  -6  211.17   11.31
   2   1  -6  204.11   12.24
   2   1  -6  183.68   10.57
  -2  -1   6  189.72    9.22
   2   1  -5   19.85    3.21
  -2  -1   5   16.78    2.87
   2   1  -5   17.80    3.61
   2   1  -5   17.80    3.34
   2   1  -4    6.48    1.82
  -2  -1   4    7.73    2.13
  -2  -1   4    8.94    2.17
   2   1  -4    5.28    2.13
   2   1  -4    4.31    1.71
   2   1  -3    1.33    1.94
  -2  -1   3    2.12    1.20
   2   1  -3    1.74    0.98
  -2  -1   3    2.21    0.92
  -2  -1   3    3.31    1.38
   2   1  -3    5.10    2.01
  -2  -1   2    4.28    1.78
   2   1  -2    9.79    4.15
  -2  -1   2    8.35    2.40
  -2  -1   2    7.85    4.19
   2   1  -2    7.79    1.99
   2   1  -2    7.03    2.28
   2   1  -1  223.30    6.92
   2   1  -1  240.53   14.44
  -2  -1   1  253.35   15.51
   2   1  -1  214.78    9.13
  -2  -1   1  215.58    9.04
  -2  -1   1  210.80   10.87
  -2  -1   1  218.18    8.83
   2   1   0 2297.13   17.49
   2   1   0 2325.56   44.11
  -2  -1   0 2349.16   45.08
   2   1   0 2365.93   26.94
  -2  -1   0 2356.06   26.58
  -2  -1   0 2311.11   36.34
  -2  -1   0 2432.00   28.88
  -2  -1  -1    9.90    2.01
  -2  -1  -1    7.19    2.75
   2   1   1    7.03    3.02
   2   1   1    9.36    1.60
  -2  -1  -1   12.52    1.79
   2   1   1   10.32    2.11
   2   1   2    2.69    1.35
  -2  -1  -2    3.66    1.95
  -2  -1  -2    4.70    2.20
   2   1   2    5.74    3.01
  -2  -1  -2    1.20    0.67
   2   1   3    0.34    1.44
  -2  -1  -3    0.73    1.45
  -2  -1  -3    0.71    1.52
   2   1   3   -1.47    2.53
   2   1   3    1.05    0.49
  -2  -1  -3    0.69    0.42
   2   1   4  343.20    8.07
   2   1   4  312.04   17.84
  -2  -1  -4  334.39   15.95
   2   1   4  325.97   13.26
   2   1   5   56.45    3.92
   2   1   5   54.67    7.82
  -2  -1  -5   56.44    7.01
   2   1   5   65.93    6.63
   2   1   6    1.20    1.50
  -2  -1  -6    0.82    2.47
   2   1   6   -0.54    1.00
   2   1   7  327.01   16.40
   2   1   7  339.33   12.33
  -2  -1  -7  319.90   17.68
   2   1   8   -2.01    2.51
  -2  -1  -8    0.77    2.02
   2   1   9  114.55   10.84
  -2  -1  -9  100.93   10.73
  -2  -1 -10   13.54    4.41
   2   1  10   23.94    5.52
  -2  -1 -11   18.34    4.97
   2   1  11    3.82    2.86
   2   1  12  123.60   13.35
  -2  -1 -12  112.21   12.21
   2   1  13   78.79   11.19
  -2  -1 -13   38.20    7.52
  -2  -1 -14   52.46    8.92
   2   1  14   52.49    9.64
  -2  -1 -15    8.94    4.74
   2   1  15    6.82    3.25
  -2  -2  16    3.30    3.89
   2   2 -16    6.74    3.55
   2   2 -16    6.76    4.23
   2   2 -16    2.49    2.99
  -2  -2  15   48.56    9.27
   2   2 -15   47.20    8.76
   2   2 -15   46.97    8.93
   2   2 -15   48.85    8.82
  -2  -2  14    1.40    2.52
   2   2 -14    2.25    3.02
   2   2 -14    3.31    2.37
   2   2 -14    1.76    2.26
  -2  -2  13   42.19    7.90
   2   2 -13   33.61    6.90
   2   2 -13   46.65    8.23
   2   2 -13   44.55    7.83
  -2  -2  12   17.36    5.17
   2   2 -12   23.45    5.55
   2   2 -12   30.98    6.56
   2   2 -12   20.46    5.55
  -2  -2  11  138.51   12.69
   2   2 -11  130.23   11.93
   2   2 -11  152.05   13.68
   2   2 -11  139.85   12.46
  -2  -2  10    7.52    2.99
   2   2 -10    6.92    3.10
   2   2 -10    6.98    3.41
   2   2 -10    2.44    1.82
  -2  -2   9   83.98    8.72
   2   2  -9   86.40    8.96
   2   2  -9   76.41    8.96
   2   2  -9   75.00    8.66
  -2  -2   8   10.65    3.16
   2   2  -8    7.06    2.75
  -2  -2   8    3.98    2.13
   2   2  -8    3.75    2.35
   2   2  -8    4.75    2.72
  -2  -2   7   11.72    3.07
   2   2  -7   13.34    3.35
  -2  -2   7   10.04    3.00
   2   2  -7    7.03    2.76
   2   2  -7   10.54    3.29
  -2  -2   6    7.62    2.38
   2   2  -6    4.92    1.60
  -2  -2   6    6.79    0.88
  -2  -2   6    6.71    2.64
   2   2  -6    9.20    2.93
   2   2  -6    8.82    2.72
  -2  -2   5  172.64    5.64
   2   2  -5  175.45    9.55
   2   2  -5  189.71   11.88
   2   2  -5  180.84   11.40
  -2  -2   5  170.28   10.52
   2   2  -4  109.91    6.86
  -2  -2   4  124.42    7.67
   2   2  -4  112.75    8.61
   2   2  -4  106.11    8.63
  -2  -2   4  115.80    5.43
  -2  -2   4  112.81    8.62
   2   2  -3  125.35    6.65
   2   2  -3  109.74   11.71
  -2  -2   3  116.96    6.83
   2   2  -3  128.35    9.01
  -2  -2   3  121.33    6.42
  -2  -2   3  115.60    9.11
   2   2  -2 1566.25   41.42
  -2  -2   2 1526.57   20.51
  -2  -2   2 1593.07   39.80
   2   2  -2 1516.38   28.37
  -2  -2   2 1500.39   24.55
  -2  -2   2 1491.55   31.41
  -2  -2   2 1507.79   17.58
   2   2  -1  569.80   24.80
  -2  -2   1  603.15    9.84
  -2  -2   1  618.92   24.18
   2   2  -1  606.31   17.09
  -2  -2   1  646.09   17.35
  -2  -2   1  613.74   20.26
  -2  -2   1  608.18    9.96
  -2  -2   0   66.67    3.23
   2   2   0   75.06    9.28
  -2  -2   0   68.79    8.10
  -2  -2   0   70.32    5.51
  -2  -2   0   69.15    7.07
  -2  -2  -1   16.66    1.89
   2   2   1   17.57    4.90
  -2  -2  -1   13.67    3.61
  -2  -2  -1   18.33    4.72
  -2  -2  -1   17.66    2.53
  -2  -2  -2   56.47    3.88
   2   2   2   54.52    8.11
  -2  -2  -2   54.02    4.18
  -2  -2  -2   59.77    6.91
   2   2   2   54.84    3.78
  -2  -2  -3   55.17    4.41
   2   2   3   52.32    7.85
  -2  -2  -3   58.01    4.17
  -2  -2  -3   51.24    6.57
   2   2   3   54.95    4.31
   2   2   4   83.07   10.13
  -2  -2  -4  105.16    5.28
  -2  -2  -4   95.53    9.20
   2   2   4  102.50    6.61
   2   2   5   70.38    9.67
  -2  -2  -5   92.44    4.74
  -2  -2  -5   86.18    8.97
   2   2   5  100.86    7.30
   2   2   6    1.80    1.35
  -2  -2  -6   -1.27    2.21
   2   2   6    3.24    3.40
  -2  -2  -6    0.22    0.49
  -2  -2  -7   22.22    2.79
   2   2   7   32.62    4.98
  -2  -2  -7   21.09    4.85
   2   2   7   15.46    4.95
  -2  -2  -7   20.58    2.24
   2   2   7   23.57    2.88
   2   2   8   82.66    8.58
  -2  -2  -8   81.72    6.15
   2   2   8   61.62    9.74
  -2  -2  -8   78.14    9.10
   2   2   9   57.53    7.51
  -2  -2  -9   51.69    5.43
  -2  -2  -9   49.28    7.69
   2   2   9   29.83    7.16
   2   2  10  431.27   21.70
  -2  -2 -10  432.62   16.89
   2   2  10  436.83   28.13
  -2  -2 -10  418.03   22.62
   2   2  11   48.35    7.88
  -2  -2 -11   59.46    9.04
   2   2  12  103.96   12.08
  -2  -2 -12  109.66   12.38
  -2  -2 -13   39.06    7.73
   2   2  13   24.82    5.76
  -2  -2 -14    0.34    3.15
   2   2  14    9.71    4.58
  -2  -2 -15   20.52    6.10
   2   2  15   16.12    5.91
  -2  -3  15    4.27    3.40
   2   3 -15    3.42    2.91
   2   3 -15    4.18    3.46
   2   3 -15    2.56    2.56
  -2  -3  14   10.96    5.20
   2   3 -14   10.99    4.86
   2   3 -14   10.59    4.63
   2   3 -14    3.45    2.42
  -2  -3  13  116.00   12.46
   2   3 -13  141.99   14.26
   2   3 -13  155.95   15.55
   2   3 -13  115.14   12.94
  -2  -3  12    2.69    3.36
   2   3 -12    5.87    3.53
   2   3 -12    7.73    3.75
   2   3 -12    0.94    2.24
  -2  -3  11    9.81    3.82
   2   3 -11    9.60    3.63
   2   3 -11   19.11    5.27
   2   3 -11   11.14    4.27
  -2  -3  10   40.74    6.44
   2   3 -10   51.56    7.68
   2   3 -10   39.74    7.24
   2   3 -10   47.51    7.82
  -2  -3   9    9.62    3.41
   2   3  -9   14.92    4.17
   2   3  -9   13.79    4.48
   2   3  -9   15.87    4.11
  -2  -3   8    6.26    2.42
   2   3  -8    5.78    2.60
   2   3  -8    2.09    2.69
   2   3  -8    6.79    2.72
  -2  -3   7  299.68   13.35
   2   3  -7  352.38   18.56
   2   3  -7  332.98   18.14
  -2  -3   7  299.34   16.20
  -2  -3   6   81.75    6.24
   2   3  -6   76.72    8.68
   2   3  -6   86.76    9.11
  -2  -3   6   81.42    8.52
  -2  -3   5    9.26    1.98
  -2  -3   5   11.52    3.60
   2   3  -5    8.70    3.18
   2   3  -5   15.78    4.17
  -2  -3   4   23.14    2.34
  -2  -3   4   23.32    3.31
  -2  -3   4   21.51    4.51
   2   3  -4   16.16    3.59
  -2  -3   3   75.42    5.61
   2   3  -3   69.13   10.01
  -2  -3   3   72.78    8.11
   2   3  -2    7.16    4.65
  -2  -3   2    8.15    3.58
  -2  -3   2    8.55    1.88
  -2  -3   2    5.25    2.54
   2   3  -1   92.14   11.46
  -2  -3   1   99.95    4.82
  -2  -3   1  106.27   10.67
  -2  -3   1   97.69    9.24
  -2  -3   0   57.27    2.64
   2   3   0   67.06    9.60
  -2  -3   0   70.83    8.85
  -2  -3   0   71.65    8.09
   2   3   1   32.75    7.17
  -2  -3  -1   29.17    5.29
  -2  -3  -1   29.16    5.55
   2   3   2  119.85   13.05
  -2  -3  -2  139.55   11.64
   2   3   3    2.97    0.79
   2   3   3    2.29    4.40
  -2  -3  -3    4.52    2.93
   2   3   4   76.76   11.05
  -2  -3  -4   74.99    8.78
   2   3   4   68.97    4.59
   2   3   5  154.32    8.10
   2   3   5  145.52   14.88
  -2  -3  -5  168.54   13.40
   2   3   6  203.55   10.80
   2   3   6  184.69   17.34
  -2  -3  -6  231.24   15.84
   2   3   7   34.68    4.97
  -2  -3  -7   43.44    7.03
   2   3   7   42.00    8.33
   2   3   8  159.83   11.34
   2   3   8  164.28   17.08
  -2  -3  -8  176.74   14.51
   2   3   9    1.98    1.83
  -2  -3  -9    0.18    2.31
   2   3   9    2.80    3.05
   2   3  10  177.96   13.81
   2   3  10  149.64   17.28
  -2  -3 -10  154.94   14.12
   2   3  11   56.03    8.08
  -2  -3 -11   58.94    9.12
   2   3  11   52.32   10.58
   2   3  12    9.53    4.65
  -2  -3 -12   17.84    6.11
   2   3  12    0.69    3.74
  -2  -3 -13   30.08    7.31
   2   3  13   11.89    5.10
   2   3  13   22.42    6.73
   2   4 -13   22.45    5.90
   2   4 -13   39.92    8.57
   2   4 -12    5.85    2.48
   2   4 -12    7.54    3.69
   2   4 -11   12.27    3.90
   2   4 -11    7.77    3.91
   2   4 -10   26.68    6.19
   2   4 -10   17.92    4.91
   2   4  -9   69.49    9.47
   2   4  -9   62.19    9.09
   2   4  -8    2.01    2.66
  -2  -4   7   12.69    4.25
   2   4  -7   12.49    4.54
  -2  -4   6   23.62    5.49
   2   4  -6   24.43    5.66
  -2  -4   5    1.40    2.89
  -2  -4   4   41.36    7.06
   2   4  -3  153.55   16.24
  -2  -4   3  163.56   13.50
   2   4  -2  116.40   13.91
  -2  -4   2  116.14   11.86
  -2  -4   2  101.71   10.63
   2   4  -1    4.03    4.03
  -2  -4   1    5.00    3.02
  -2  -4   1    1.67    1.97
   2   4   0    8.81    5.26
  -2  -4   0   11.97    3.62
  -2  -4   0   12.58    4.17
   2   4   1   21.29    6.29
  -2  -4  -1   30.88    5.79
  -2  -4  -1   10.79    3.75
   2   4   2    0.92    3.88
  -2  -4  -2    6.11    2.79
   2   4   3  342.98   24.19
  -2  -4  -3  332.83   19.56
   2   4   4  149.16   16.16
  -2  -4  -4  137.24   12.67
   2   4   5    1.83    3.70
  -2  -4  -5    1.29    2.11
  -2  -4  -6    3.31    3.05
   2   4   6    0.82    3.46
  -2  -4  -7   -1.45    3.28
   2   4   7    2.38    4.84
  -2  -4  -8    1.75    2.35
   2   4   8    4.95    3.61
  -2  -4  -9   12.15    4.76
   2   4   9    7.71    4.46
  -2  -4 -10   72.67   10.34
   2   4  10   68.15   12.19
  -2  -4 -11   22.86    6.34
   2   4  11   23.09    7.51
  -2  -4 -12   42.34    8.48
   2   4  12   38.29    9.57
   2   5 -11   -0.53    2.75
   2   5 -10    0.70    2.25
   2   5  -9   19.27    5.78
  -2  -5   8    5.17    2.65
   2   5  -8   10.20    3.95
  -2  -5   7   66.87    9.69
  -2  -5   6   41.65    7.57
  -2  -5   5   21.74    5.66
  -2  -5   4   32.28    6.70
  -2  -5   3   40.78    7.95
  -2  -5   3   29.60    6.55
   2   5  -2   20.18    7.85
  -2  -5   2   22.97    5.47
  -2  -5   2   11.64    4.32
   2   5  -1   -5.24    4.82
  -2  -5   1    5.06    3.84
  -2  -5   1   -1.02    2.78
   2   5   0   35.90    9.03
  -2  -5   0   29.99    6.60
  -2  -5   0   38.98    7.26
   2   5   1   61.72   11.53
  -2  -5  -1   53.60    8.68
   2   5   2   50.35   10.19
  -2  -5  -2   43.81    8.06
   2   5   3   11.81    4.67
  -2  -5  -3    9.15    4.11
   2   5   4    5.71    5.02
  -2  -5  -4    0.54    2.07
   2   5   5   15.47    6.23
  -2  -5  -5   15.13    5.43
   2   5   6    0.72    3.49
  -2  -5  -6    4.34    3.25
   2   5   7  112.75   15.85
  -2  -5  -7  108.03   12.93
  -2  -5  -8   30.89    6.93
   2   5   8   52.19   11.00
  -2  -5  -9    1.76    2.09
   2   5   9    7.58    4.97
  -2  -5 -10   -3.08    3.72
   2   5  10    2.79    4.69
  -2  -6   7    5.99    3.95
  -2  -6   6   -0.10    2.53
  -2  -6   5    8.95    3.66
  -2  -6   4    7.97    4.24
  -2  -6   3    0.84    2.26
  -2  -6   2   51.94    9.09
   2   6  -1   13.30    6.62
  -2  -6   1    7.71    3.66
   2   6   0   25.93    7.49
  -2  -6   0   20.99    5.68
   2   6   1   20.56    8.22
  -2  -6  -1    8.58    4.36
   2   6   2   -7.93    6.05
  -2  -6  -2    0.09    2.49
   2   6   3  149.32   18.55
  -2  -6  -3  167.15   16.50
   2   6   4   71.65   13.46
  -2  -6  -4   46.71    8.87
   2   6   5    1.34    2.99
  -2  -6  -5    3.43    2.56
   2   6   6   18.79    6.43
  -2  -6  -6    7.09    4.05
  -3   6   3   33.82    7.78
  -3   6   2   11.35    4.95
  -3   6   1    4.00    3.57
  -3   6   0   27.28    6.93
  -3   6  -1   15.80    5.84
  -3   6  -2   65.18   11.01
   3  -5  -8   14.64    6.01
  -3   5   7   38.37    7.42
   3  -5  -7   42.41    8.79
  -3   5   6    3.22    2.77
   3  -5  -6   -3.03    3.59
   3  -5  -5    1.99    3.60
  -3   5   5   -0.04    3.46
  -3   5   4    4.13    2.89
  -3   5   3   50.90    8.71
  -3   5   2  128.08   13.54
  -3   5   1    0.56    2.41
  -3   5   0   42.38    7.97
  -3   5  -1    4.22    2.02
  -3   5  -2   24.15    6.58
  -3   5  -3   29.38    6.87
  -3   5  -4   43.45    8.60
  -3   5  -5    7.12    4.19
   3  -5   5    6.15    4.24
  -3   5  -6    5.28    3.44
   3  -5   6   11.49    5.51
   3  -5   7   39.89    9.30
  -3   5  -7   40.80    8.80
   3  -5   8   33.20    8.31
  -3   5  -8   42.63    8.81
   3  -4 -11  185.31   19.04
   3  -4 -11  183.34   17.84
   3  -4 -10    8.49    4.35
   3  -4 -10    1.55    2.59
   3  -4  -9   48.85    9.61
   3  -4  -9   57.83    9.47
   3  -4  -8    9.80    4.87
   3  -4  -8    7.47    4.53
  -3   4   7   40.87    6.82
   3  -4  -7   62.03   10.36
   3  -4  -7   47.13    8.67
   3  -4  -6   41.20    8.45
  -3   4   6   44.11    7.12
   3  -4  -5   22.35    5.94
  -3   4   5   25.96    5.44
  -3   4   4    3.21    2.70
  -3   4   3  152.53   13.17
  -3   4   2   29.94    6.06
  -3   4   1    5.15    2.99
  -3   4   0    2.76    1.85
  -3   4  -1  116.30   11.92
  -3   4  -2  178.42   15.16
  -3   4  -3    7.67    3.95
  -3   4  -4   77.72   10.33
   3  -4   4   81.28   11.29
   3  -4   5    0.34    3.11
  -3   4  -5   -0.98    2.59
   3  -4   6   16.55    6.12
  -3   4  -6    7.62    3.48
   3  -4   7   14.28    5.26
  -3   4  -7   25.09    6.77
  -3   4  -8   33.73    7.35
   3  -4   8   16.16    4.77
  -3   4  -9   17.41    6.15
   3  -4   9    4.73    4.23
   3  -4  10    6.71    4.45
  -3   4 -10    8.13    4.34
   3  -3 -12    4.01    2.39
   3  -3 -12   -0.48    3.27
   3  -3 -11   -0.18    2.58
   3  -3 -11    7.17    4.48
  -3   3  10   25.75    6.15
   3  -3 -10   33.54    7.74
   3  -3 -10   29.43    6.98
  -3   3   9   37.24    7.02
   3  -3  -9   41.98    8.56
   3  -3  -9   35.71    7.17
  -3   3   8   45.89    7.48
   3  -3  -8   31.17    7.45
   3  -3  -8   43.76    7.62
  -3   3   7   31.78    5.94
  -3   3   7   33.58    5.54
   3  -3  -7   39.23    7.65
   3  -3  -7   42.65    7.45
  -3   3   6   10.21    3.61
  -3   3   6    5.44    2.46
   3  -3  -6    3.60    2.45
   3  -3  -5  658.23   29.37
   3  -3  -5  698.97   27.69
  -3   3   5  614.36   22.92
   3  -3  -4    8.94    3.90
  -3   3   4    7.05    2.98
  -3   3   3  159.98   12.03
  -3   3   2   53.61    7.11
  -3   3   1  156.51   12.42
  -3   3   0   80.55    9.00
  -3   3  -1    1.66    1.80
  -3   3  -2   42.66    6.98
  -3   3  -3   61.14    8.49
   3  -3   3   78.51   10.45
   3  -3   4    1.84    2.41
  -3   3  -4   -1.65    1.81
   3  -3   5   28.59    6.12
  -3   3  -5   21.23    5.24
   3  -3   6    7.49    3.81
  -3   3  -6   13.97    4.35
  -3   3  -7  110.69   12.30
   3  -3   7  114.38   13.34
  -3   3  -8  152.94   14.95
   3  -3   8  174.23   16.95
  -3   3  -9   36.72    6.01
   3  -3   9   33.24    7.41
  -3   3  -9   28.84    6.49
  -3   3 -10    1.58    2.25
   3  -3  10    2.15    3.61
  -3   3 -10    0.25    1.97
  -3   3 -11   16.61    4.39
   3  -3  11   21.35    6.91
  -3   3 -11   32.08    7.68
  -3   3 -12   79.75   12.12
  -3   3 -12   87.89   11.11
   3  -3  12   95.49   13.83
   3  -2 -13   74.70   11.11
   3  -2 -12   28.03    6.95
   3  -2 -11    9.17    4.07
   3  -2 -11    6.48    3.65
   3  -2 -10   69.24   10.25
   3  -2 -10   75.85   10.42
   3  -2  -9   67.04    9.65
  -3   2   9   82.64   10.84
   3  -2  -9   67.04    9.33
  -3   2   8   -3.97    2.92
   3  -2  -8    0.69    2.05
   3  -2  -8    1.42    2.11
   3  -2  -7   77.57   10.00
  -3   2   7   81.55   10.19
   3  -2  -7   77.70    9.15
   3  -2  -6  100.92   10.90
  -3   2   6  117.03   11.79
   3  -2  -6  113.45   10.70
  -3   2   6  101.32    7.77
   3  -2  -5  211.53   15.19
  -3   2   5  231.87   16.61
   3  -2  -5  242.29   15.12
  -3   2   5  210.23   11.41
   3  -2  -4   89.31    9.83
  -3   2   4   91.47   10.27
   3  -2  -4   79.64    8.47
  -3   2   4   91.86    7.76
   3  -2  -3   81.95    8.93
   3  -2  -3   86.50    8.54
  -3   2   3   89.65    7.87
  -3   2   2    1.21    1.71
   3  -2  -2   -0.65    1.70
  -3   2   1   23.48    4.37
   3  -2  -1   20.30    3.91
   3  -2   0   52.52    4.65
   3  -2   0   48.24    5.78
  -3   2   0   39.45    5.80
  -3   2  -1   -0.43    2.22
   3  -2   1   -1.35    1.31
  -3   2  -2   43.07    6.27
   3  -2   2   29.37    4.47
  -3   2  -2   32.71    3.03
  -3   2  -3  122.63   10.93
   3  -2   3  122.54    9.64
  -3   2  -3  136.74    7.20
   3  -2   3  126.27   12.14
   3  -2   4   31.70    6.31
  -3   2  -4   36.43    6.33
  -3   2  -4   30.91    5.68
  -3   2  -4   39.61    4.47
  -3   2  -5  145.33   12.70
  -3   2  -5  157.74   13.22
  -3   2  -5  151.80    9.39
   3  -2   5  136.66   13.09
  -3   2  -6  191.35   14.82
  -3   2  -6  170.23   10.77
   3  -2   6  171.65   14.94
  -3   2  -7  537.85   25.64
  -3   2  -7  509.29   19.94
   3  -2   7  556.58   27.65
  -3   2  -8    6.04    2.91
  -3   2  -8    8.69    2.99
   3  -2   8    5.45    3.90
  -3   2  -9   18.81    4.44
   3  -2   9   22.64    5.98
  -3   2  -9   15.58    5.03
  -3   2 -10   11.79    3.86
   3  -2  10   18.53    5.82
  -3   2 -10   14.52    4.39
  -3   2 -11   13.92    4.37
  -3   2 -11    9.87    4.29
   3  -2  11    5.33    3.51
  -3   2 -12    1.53    2.33
   3  -2  12    4.91    3.12
  -3   2 -12    1.92    3.33
  -3   2 -13    6.52    3.52
   3  -2  13    4.30    2.88
  -3   2 -13   11.01    4.84
   3  -1 -14   29.66    7.13
   3  -1 -14   25.64    6.38
   3  -1 -13    9.00    3.74
   3  -1 -13    7.08    4.01
   3  -1 -12   84.81   11.21
   3  -1 -12   46.05    8.40
   3  -1 -11    9.71    4.10
   3  -1 -11   12.24    4.60
   3  -1 -10   -0.57    2.25
   3  -1 -10    2.00    2.08
   3  -1  -9  105.02   11.29
   3  -1  -9  116.91   11.83
   3  -1  -8   31.69    6.08
   3  -1  -7   61.90    8.25
  -3   1   7   65.42    9.56
   3  -1  -6   56.91    7.59
  -3   1   6   69.46    9.75
   3  -1  -5  107.98    9.96
  -3   1   5  100.14   11.48
   3  -1  -5   99.54    9.13
  -3   1   5  117.22    6.24
  -3   1   5  109.96    6.56
  -3   1   4    7.99    1.91
  -3   1   4    7.59    2.04
  -3   1   4    9.82    2.59
  -3   1   4    3.35    2.06
   3  -1  -4    8.43    1.97
   3  -1  -4    5.21    2.88
   3  -1  -4   10.15    3.45
  -3   1   3   -0.86    1.45
  -3   1   3   -0.34    2.33
  -3   1   3    0.52    1.66
   3  -1  -3    1.32    1.89
   3  -1  -3    2.08    1.42
  -3   1   2  174.76    9.88
   3  -1  -2  157.26    9.52
   3  -1  -2  169.60   11.28
  -3   1   2  162.22   14.11
   3  -1  -2  164.46   10.20
  -3   1   2  162.82    9.93
  -3   1   1   13.01    3.31
  -3   1   1   12.65    2.99
   3  -1  -1   18.59    3.70
   3  -1  -1   14.08    2.85
  -3   1   0  165.53   10.56
   3  -1   0  191.56   11.46
   3  -1   0  177.54    9.34
  -3   1   0  181.45   11.59
   3  -1   1  313.15   15.61
  -3   1  -1  317.18   15.19
   3  -1   1  326.99   11.62
  -3   1  -1  309.67   15.86
  -3   1  -2   23.39    4.39
  -3   1  -2   21.57    4.73
   3  -1   2   15.38    3.89
   3  -1   2   14.70    2.30
   3  -1   2   17.22    4.60
  -3   1  -3    1.54    1.91
   3  -1   3    1.62    2.14
   3  -1   3    2.54    2.44
  -3   1  -3   -0.45    1.80
   3  -1   3    1.11    0.68
  -3   1  -4    0.67    1.83
  -3   1  -4    2.22    1.71
   3  -1   4    5.45    3.03
   3  -1   4    2.80    2.41
   3  -1   4    2.40    0.65
   3  -1   5  253.85   17.08
  -3   1  -5  260.97   16.04
  -3   1  -5  264.12   17.01
   3  -1   5  258.05   17.03
  -3   1  -6   17.18    4.82
   3  -1   6   25.19    5.79
  -3   1  -6   22.45    5.11
  -3   1  -7   17.34    5.23
   3  -1   7   25.35    5.75
  -3   1  -7   22.42    5.19
  -3   1  -8   16.27    5.61
   3  -1   8   11.95    4.16
  -3   1  -8    9.52    3.92
  -3   1  -9   23.92    6.09
   3  -1   9   30.62    7.15
  -3   1  -9   28.65    5.97
  -3   1  -9   29.13    6.68
  -3   1 -10   15.68    5.67
  -3   1 -10   12.46    4.03
   3  -1  10   10.50    3.83
  -3   1 -10   12.09    5.36
  -3   1 -11   13.72    5.65
  -3   1 -11   16.64    5.12
   3  -1  11    9.15    3.82
  -3   1 -11   12.23    5.20
  -3   1 -12   -3.02    2.93
  -3   1 -12    2.66    2.60
   3  -1  12   -4.60    3.50
  -3   1 -12   -8.97    4.22
   3  -1  13   79.62   12.00
  -3   1 -13  105.24   13.52
  -3   1 -13   90.50   12.76
  -3   1 -13  111.20   12.75
   3   0 -14   -0.64    2.44
   3   0 -14   -6.11    3.57
   3   0 -13   22.66    6.06
   3   0 -13   17.93    6.22
   3   0 -12    2.44    2.65
   3   0 -12    2.24    2.10
   3   0 -12    0.11    1.58
   3   0 -11   33.81    6.69
   3   0 -11   43.75    7.86
   3   0 -11   46.24    6.21
   3   0 -10   29.68    5.93
   3   0 -10   12.15    4.12
   3   0 -10   24.09    4.57
   3   0  -9   81.63    9.30
   3   0  -9   74.00    9.36
   3   0  -9   80.37    7.18
   3   0  -8   29.72    5.94
   3   0  -8   24.62    5.42
   3   0  -8   34.74    4.54
   3   0  -7   96.67    9.44
   3   0  -7  103.07    9.96
   3   0  -7   91.61    7.08
  -3   0   6   35.55    7.47
   3   0  -6   35.09    5.51
   3   0  -6   31.03    5.35
  -3   0   6   41.10    4.10
   3   0  -5  219.90   12.85
  -3   0   5  240.63   18.80
   3   0  -5  215.85   13.13
  -3   0   5  224.72   10.32
   3   0  -4   53.93    6.16
  -3   0   4   46.68    7.62
   3   0  -4   38.05    5.33
  -3   0   4   35.36    4.35
  -3   0   4   42.78    3.46
  -3   0   3   45.68    4.19
   3   0  -3   42.31    5.23
  -3   0   3   51.73    8.89
   3   0  -3   39.66    5.24
  -3   0   3   38.85    5.00
   3   0  -2   88.35    9.10
  -3   0   2   97.77    6.65
   3   0  -2  105.17    7.74
  -3   0   2  111.13   12.33
   3   0  -2   93.30    7.31
  -3   0   2   94.97    7.94
  -3   0   2   99.09    6.24
   3   0  -1   98.18    9.58
  -3   0   1  113.68    7.69
   3   0  -1   99.62    7.16
  -3   0   1  121.46   12.43
   3   0  -1  113.07    7.46
  -3   0   1  111.45    8.95
  -3   0   1  102.42    6.55
  -3   0   0    3.01    1.68
  -3   0   0    8.47    2.78
   3   0   0    5.88    2.60
   3   0   0    4.50    1.66
   3   0   0    2.82    1.35
  -3   0  -1   33.33    4.74
  -3   0  -1   30.43    5.16
   3   0   1   43.35    6.82
   3   0   1   42.44    3.72
   3   0   2  105.69   10.82
  -3   0  -2  112.47    9.00
   3   0   2  106.96    4.91
  -3   0  -2   91.34    9.21
   3   0   2  106.02    9.44
   3   0   3    6.18    2.91
  -3   0  -3    3.05    2.50
   3   0   3   10.14    3.88
   3   0   4  171.20   14.31
  -3   0  -4  178.58   13.61
   3   0   4  183.03   12.96
  -3   0  -5   51.37    7.64
   3   0   5   72.18    9.70
   3   0   5   67.81    8.09
   3   0   6   34.51    6.18
  -3   0  -6   22.89    5.28
   3   0   6   32.74    6.93
   3   0   7   27.36    5.72
  -3   0  -7   17.85    5.11
   3   0   7   21.05    6.16
  -3   0  -8    5.18    4.03
   3   0   8    1.92    2.33
  -3   0  -9   39.50    7.80
   3   0   9   32.09    6.97
  -3   0 -10    3.77    3.03
   3   0  10    8.95    4.28
  -3   0 -11  242.80   19.45
   3   0  11  244.26   19.35
  -3   0 -12    8.81    4.69
   3   0  12    7.59    3.66
  -3   0 -13    6.46    4.25
   3   0  13    5.57    3.61
  -3  -1  14   -0.39    2.17
   3   1 -14    0.06    2.81
   3   1 -14    4.33    3.03
   3   1 -14    2.80    2.78
  -3  -1  13   14.82    5.74
   3   1 -13    7.84    3.78
   3   1 -13   13.08    4.50
   3   1 -13    7.80    2.90
   3   1 -12  218.17   16.72
   3   1 -12  221.75   17.80
   3   1 -12  196.35   14.40
   3   1 -11   88.72   10.20
   3   1 -11   93.66   11.49
   3   1 -11  106.13   10.29
   3   1 -10    9.07    3.43
   3   1 -10   11.54    4.26
   3   1 -10   16.47    4.31
   3   1  -9   -1.11    2.40
   3   1  -9   -0.65    1.90
   3   1  -9   -0.62    1.20
   3   1  -8   79.96    8.59
   3   1  -8   74.96    8.79
   3   1  -8   64.41    7.15
   3   1  -7  259.23   14.37
   3   1  -7  263.56   16.17
   3   1  -7  248.06   13.39
  -3  -1   7  237.19   11.57
  -3  -1   6    0.76    1.13
   3   1  -6    0.26    1.53
   3   1  -6   -1.26    1.80
   3   1  -5  129.77    9.07
  -3  -1   5  119.91   13.56
   3   1  -5  130.09   10.31
  -3  -1   5  137.55    9.20
  -3  -1   4    0.71    1.31
  -3  -1   4    4.62    2.96
   3   1  -4    2.77    1.56
   3   1  -4    2.96    1.84
   3   1  -3    0.07    2.33
  -3  -1   3    0.35    1.10
  -3  -1   3    6.35    4.62
   3   1  -3   -0.61    1.40
   3   1  -3    2.85    2.10
  -3  -1   3    1.52    1.17
  -3  -1   2    2.59    2.06
   3   1  -2   -0.59    2.56
  -3  -1   2    4.07    3.26
   3   1  -2    0.70    0.86
   3   1  -2    0.59    1.38
  -3  -1   1    0.66    1.73
   3   1  -1    0.91    3.03
   3   1  -1    4.20    1.22
   3   1  -1    2.20    1.27
   3   1   0  149.18    5.59
   3   1   0  135.80   12.93
   3   1   0  164.15    8.23
  -3  -1   0  140.47   11.10
   3   1   1   89.43    3.36
   3   1   1   94.59    3.51
   3   1   1  103.44   11.61
   3   1   1  125.17    6.37
  -3  -1  -1  116.78   10.21
   3   1   2  137.06   13.38
  -3  -1  -2  120.40   10.68
   3   1   3   17.29    3.62
  -3  -1  -3   18.73    4.76
   3   1   3   14.66    4.87
   3   1   4   -0.36    1.49
  -3  -1  -4   -0.08    2.51
   3   1   4    2.45    2.63
   3   1   5  197.24   16.92
  -3  -1  -5  210.79   15.56
   3   1   5  205.04   12.94
   3   1   6   14.93    4.27
  -3  -1  -6   15.66    4.75
   3   1   6   11.21    4.65
   3   1   7    5.75    2.43
  -3  -1  -7    8.24    3.60
   3   1   7    2.76    3.49
   3   1   8   66.56   11.01
  -3  -1  -8   84.88   11.08
   3   1   8   92.10   10.00
   3   1   9   53.00    7.57
  -3  -1  -9   51.18    8.87
   3   1   9   57.14   10.63
   3   1  10    8.12    4.65
  -3  -1 -10    2.49    2.32
   3   1  10    7.06    4.33
  -3  -1 -11   22.54    6.37
   3   1  11   13.44    4.71
   3   1  11   22.45    6.87
  -3  -1 -12    2.34    3.68
   3   1  12    9.27    4.24
   3   1  12    8.11    5.37
  -3  -1 -13   13.99    5.03
   3   1  13   12.74    4.73
   3   1  13   -0.15    4.88
   3   2 -13   -0.40    2.08
   3   2 -13    9.59    4.53
   3   2 -13    5.48    2.94
   3   2 -12   88.49   10.80
   3   2 -12   80.76   11.13
   3   2 -12   80.71   10.00
  -3  -2  11   20.37    5.10
   3   2 -11   29.00    7.20
   3   2 -11   21.57    4.99
  -3  -2  10   71.94    9.21
   3   2 -10   49.93    8.55
   3   2 -10   45.28    7.17
  -3  -2   9   38.36    6.52
   3   2  -9   33.95    6.64
   3   2  -9   40.92    6.41
  -3  -2   8    4.43    2.43
   3   2  -8    3.80    2.34
   3   2  -8    2.57    1.75
  -3  -2   7   34.95    5.34
   3   2  -7   23.59    5.44
  -3  -2   6   10.78    3.05
   3   2  -6   14.31    3.89
   3   2  -5    0.00    1.10
  -3  -2   5   -0.88    1.37
  -3  -2   5    4.97    4.51
   3   2  -5    4.91    2.73
  -3  -2   4   11.38    3.24
   3   2  -4   13.45    2.48
  -3  -2   4   15.33    5.31
   3   2  -4   20.60    4.26
   3   2  -3    3.14    3.11
   3   2  -3    6.69    1.70
  -3  -2   3    3.08    1.56
  -3  -2   3   10.93    5.08
   3   2  -3    5.17    2.32
   3   2  -2  227.52   18.70
  -3  -2   2  209.98   17.50
   3   2  -2  201.25   11.48
  -3  -2   2  194.36   13.47
   3   2  -1  603.43   29.68
  -3  -2   1  621.22   30.24
   3   2  -1  620.71   19.00
  -3  -2   1  635.50   24.33
   3   2   0  114.67   13.24
  -3  -2   0  107.25   12.40
  -3  -2   0  111.78   10.76
  -3  -2  -1   22.58    5.31
   3   2   1   25.45    6.63
  -3  -2  -2    5.76    3.04
   3   2   2    7.32    3.73
   3   2   3  121.62   14.02
  -3  -2  -3  120.92   11.66
   3   2   4   14.09    2.88
  -3  -2  -4   16.58    5.08
   3   2   4    9.99    4.86
   3   2   5    8.20    2.62
  -3  -2  -5    5.50    3.06
   3   2   5    3.78    3.08
   3   2   6  105.88   13.65
  -3  -2  -6  111.02   12.04
   3   2   6  101.99    8.61
   3   2   7   -1.31    1.46
  -3  -2  -7    6.03    3.76
   3   2   7   -0.56    3.28
   3   2   8   14.40    3.67
  -3  -2  -8   16.68    5.10
   3   2   8   10.67    6.34
   3   2   9   27.36    5.33
  -3  -2  -9   18.07    5.87
   3   2   9   20.21    6.99
   3   2  10   16.93    4.40
  -3  -2 -10   23.31    5.79
   3   2  10   38.07    9.17
   3   2  11  151.28   19.22
  -3  -2 -11  149.64   15.97
  -3  -2 -12   21.21    6.54
   3   2  12    3.61    4.22
   3   3 -12   52.93    8.51
   3   3 -12   54.76    9.75
   3   3 -12   60.18    9.52
   3   3 -11   -0.68    1.68
   3   3 -11   -3.32    3.18
   3   3 -11    4.59    2.56
   3   3 -10    5.74    2.51
   3   3 -10   14.22    4.75
   3   3 -10    6.82    3.03
   3   3  -9   14.83    3.85
  -3  -3   9    6.89    2.83
   3   3  -9    7.20    3.35
   3   3  -9   17.75    5.19
   3   3  -8    0.71    1.69
  -3  -3   8   -0.08    1.56
   3   3  -8   -2.94    2.93
   3   3  -7    1.39    1.68
  -3  -3   7    2.08    2.00
   3   3  -7   -1.32    2.25
   3   3  -6  139.72   12.35
  -3  -3   6  137.16   11.95
  -3  -3   5   39.73    8.51
  -3  -3   5   43.31    6.74
   3   3  -5   39.98    6.54
  -3  -3   4   43.16    7.09
  -3  -3   4   31.96    7.60
   3   3  -4   31.61    5.64
   3   3  -3  170.97   17.85
  -3  -3   3  199.75   17.91
  -3  -3   3  171.15   13.83
   3   3  -2  304.94   23.36
  -3  -3   2  304.23   21.53
  -3  -3   2  276.97   17.59
   3   3  -1   25.19    7.26
  -3  -3   1   18.98    4.77
  -3  -3   1   21.04    6.46
   3   3   0    4.77    3.51
  -3  -3   0    5.76    3.53
  -3  -3   0   11.91    4.47
   3   3   1   27.50    7.94
  -3  -3  -1   14.48    4.87
   3   3   2   18.76    5.68
  -3  -3  -2   22.06    5.31
  -3  -3  -3   33.95    6.79
   3   3   3   38.72    8.97
  -3  -3  -4    3.79    3.34
   3   3   4   16.70    5.95
  -3  -3  -5    1.66    2.58
   3   3   5    0.95    4.34
  -3  -3  -6    2.56    2.31
   3   3   6   -2.13    4.42
  -3  -3  -7   67.75   10.26
   3   3   7   79.46   13.27
  -3  -3  -8   59.09    9.99
   3   3   8   30.30    7.89
   3   3   9  209.05   21.98
  -3  -3  -9  197.61   18.06
  -3  -3 -10   -1.75    2.84
   3   3  10    1.91    4.12
   3   3  11   89.62   14.95
  -3  -3 -11  105.84   13.88
   3   4 -10   -1.48    3.82
   3   4 -10   -1.41    2.17
  -3  -4   9   14.30    4.54
   3   4  -9   24.45    6.25
   3   4  -8   99.25   11.59
  -3  -4   8  103.34   11.58
  -3  -4   7    8.87    3.62
  -3  -4   6   -1.17    2.46
  -3  -4   6    2.52    2.68
  -3  -4   5    0.42    2.96
  -3  -4   5    5.50    4.15
  -3  -4   4   33.04    7.87
  -3  -4   4   24.03    5.81
   3   4  -3    6.64    4.45
  -3  -4   3    7.35    4.49
  -3  -4   3    2.43    2.71
   3   4  -2   61.33   12.56
  -3  -4   2   73.35   11.41
  -3  -4   2   71.04    9.94
   3   4  -1   27.31    8.23
  -3  -4   1   25.21    6.45
  -3  -4   1   36.46    8.21
   3   4   0    1.87    3.68
  -3  -4   0    0.29    3.05
  -3  -4   0    3.98    2.69
   3   4   1   23.76    7.84
  -3  -4  -1   20.34    5.69
   3   4   2    5.83    4.99
  -3  -4  -2    3.43    3.11
   3   4   3    2.34    3.97
  -3  -4  -3    6.26    4.13
   3   4   4  128.49   17.23
  -3  -4  -4  124.13   13.78
   3   4   5   95.75   14.91
  -3  -4  -5   84.20   11.67
  -3  -4  -6    3.28    2.45
   3   4   6    2.38    4.96
  -3  -4  -7   20.09    5.83
   3   4   7   37.04   10.18
  -3  -4  -8   11.58    5.47
   3   4   8    6.07    4.30
  -3  -5   7   15.68    6.66
  -3  -5   7    7.29    3.21
  -3  -5   6    5.01    3.65
  -3  -5   6    4.92    3.84
  -3  -5   5   27.17    7.32
  -3  -5   5   24.40    6.64
  -3  -5   4   55.67   10.54
  -3  -5   4   73.48   10.58
  -3  -5   3    5.91    3.08
  -3  -5   3   16.66    5.30
   3   5  -2    4.44    4.10
  -3  -5   2   23.07    6.01
  -3  -5   2   17.40    5.70
   3   5  -1    1.30    3.42
  -3  -5   1   -1.68    2.98
  -3  -5   1    2.38    3.58
   3   5   0    4.08    4.18
  -3  -5   0    7.34    4.09
   3   5   1   -4.23    3.75
  -3  -5  -1    1.92    3.12
   3   5   2   90.11   15.11
  -3  -5  -2  102.24   13.28
   3   5   3   20.81    7.44
  -3  -5  -3   17.50    5.53
   3   5   4   -2.72    5.22
  -3  -5  -4    5.25    3.02
   3   5   5   -4.68    3.73
  -3  -5  -5   13.49    5.64
   4  -4  -5   20.85    6.64
   4  -4  -5   14.09    4.42
   4  -4  -4   27.80    8.04
   4  -4  -4   27.05    6.37
   4  -4  -3   46.01    9.01
   4  -4  -3   57.43    8.80
  -4   4   2   -1.10    2.20
   4  -4  -2   -0.85    2.41
  -4   4   1   22.36    5.59
   4  -4  -1   24.29    5.74
  -4   4   0    0.67    2.17
  -4   4  -1    4.69    3.60
  -4   4  -2   59.34    9.50
  -4   4  -3   41.83    8.26
  -4   4  -4    2.75    3.46
   4  -3  -8   47.94    9.31
   4  -3  -8   46.82    8.32
   4  -3  -7   24.00    6.63
   4  -3  -7   25.51    6.15
   4  -3  -6   -0.49    2.14
   4  -3  -6    9.17    3.74
   4  -3  -5    3.35    3.34
   4  -3  -5   -0.79    1.87
   4  -3  -4  104.56   12.82
   4  -3  -4  147.94   13.28
   4  -3  -3   -0.41    3.40
   4  -3  -3    3.13    2.76
  -4   3   2   23.80    5.21
   4  -3  -2   36.22    7.85
   4  -3  -2   29.58    5.83
  -4   3   1    5.95    2.80
   4  -3  -1    7.13    3.13
  -4   3   0  123.28   12.20
  -4   3  -1   57.33    8.66
  -4   3  -2    2.74    2.68
  -4   3  -3   40.14    7.63
  -4   3  -4   12.49    4.60
  -4   3  -5   -0.88    2.23
   4  -3   6   29.04    7.51
  -4   3  -6   27.52    6.80
   4  -3   7   21.59    6.93
  -4   3  -7   23.92    6.73
  -4   2   9   23.99    7.08
   4  -2  -9   19.51    5.75
  -4   2   8   10.55    5.12
   4  -2  -8    9.63    3.57
  -4   2   7    0.63    3.36
   4  -2  -7   -1.17    2.58
   4  -2  -6  244.25   18.61
  -4   2   6  248.71   20.64
   4  -2  -6  217.17   16.14
   4  -2  -5   76.78   10.15
   4  -2  -5   66.07    8.61
   4  -2  -4  165.08   14.59
   4  -2  -4  195.38   14.19
   4  -2  -3   29.76    6.37
   4  -2  -3   36.82    6.11
   4  -2  -2   58.77    8.63
   4  -2  -2   57.76    7.24
   4  -2  -1   16.64    4.61
  -4   2   1   10.28    3.41
   4  -2  -1   12.85    3.22
  -4   2   0    3.96    2.02
  -4   2  -1    1.46    1.79
  -4   2  -2   44.74    7.30
  -4   2  -3   -1.47    2.62
  -4   2  -4   29.64    6.25
   4  -2   5    8.51    4.22
  -4   2  -5   16.11    5.26
  -4   2  -6   96.41   11.90
   4  -2   6  101.09   13.05
   4  -2   7   49.20    9.40
  -4   2  -7   54.65    9.45
  -4   2  -8  107.94   13.09
   4  -2   8   92.44   12.96
  -4   1  10   27.37    7.55
   4  -1 -10   24.22    5.96
   4  -1 -10   30.54    7.04
  -4   1   9    2.80    3.47
   4  -1  -9    2.24    1.71
   4  -1  -9    9.26    4.10
   4  -1  -8    0.49    1.79
   4  -1  -8    5.15    3.13
   4  -1  -7  102.86   11.37
  -4   1   7  122.00   15.18
   4  -1  -7  108.11   11.38
   4  -1  -6  100.98   10.62
  -4   1   6  101.95   13.83
   4  -1  -6   91.52   10.17
  -4   1   5   28.37    7.38
   4  -1  -5   32.67    6.17
   4  -1  -5   24.88    5.06
  -4   1   4   25.02    6.12
   4  -1  -4   15.39    4.11
   4  -1  -4   17.85    4.17
   4  -1  -3    4.68    2.48
   4  -1  -3    1.63    2.23
   4  -1  -2   -1.15    2.01
   4  -1  -2   -2.03    1.70
  -4   1   1   37.25    6.15
   4  -1  -1   31.33    5.33
  -4   1   0    2.16    1.75
  -4   1   0    1.18    1.68
   4  -1   0    0.22    1.35
  -4   1  -1   25.51    5.71
  -4   1  -1   21.67    4.55
   4  -1   1   11.43    3.33
  -4   1  -2   83.42    9.35
  -4   1  -2   87.41   10.21
  -4   1  -3   11.94    4.44
  -4   1  -3   13.60    4.11
  -4   1  -4   49.01    8.20
  -4   1  -4   35.26    6.51
  -4   1  -5   15.81    5.04
   4  -1   5    2.57    3.01
  -4   1  -5   11.79    4.14
   4  -1   6  318.39   22.21
  -4   1  -6  363.22   21.97
  -4   1  -6  327.81   22.42
   4  -1   6  382.09   24.08
  -4   1  -7   -0.32    3.28
   4  -1   7    2.12    2.83
   4  -1   7    2.82    3.17
  -4   1  -7    2.65    2.55
  -4   1  -8    2.27    2.78
   4  -1   8    0.89    1.88
   4  -1   8    4.21    3.01
  -4   1  -8   -1.60    2.86
  -4   1  -9   12.45    5.44
  -4   1  -9   11.45    5.27
   4  -1   9   13.27    5.14
   4  -1   9    4.63    3.85
   4   0 -10   61.45    8.98
  -4   0  10   53.34   10.86
   4   0 -10   57.64    9.11
  -4   0   9   10.08    5.12
   4   0  -9   15.20    4.61
   4   0  -9   14.69    5.12
  -4   0   8   15.67    5.38
   4   0  -8   24.53    5.50
   4   0  -8   26.05    5.72
  -4   0   7   41.07    9.52
   4   0  -7   36.30    6.04
   4   0  -7   23.46    5.33
  -4   0   6   23.54    7.05
   4   0  -6   29.59    5.43
   4   0  -6   35.73    6.24
  -4   0   5   22.91    7.00
   4   0  -5   23.65    4.74
   4   0  -5   35.66    6.09
  -4   0   4   12.58    4.43
   4   0  -4   15.71    4.07
  -4   0   3   65.60   11.02
   4   0  -3   62.44    7.07
  -4   0   2    1.19    2.61
   4   0  -2    1.41    1.59
   4   0  -1   93.05   10.73
  -4   0   1   83.13    9.24
   4   0   0   94.89   11.22
  -4   0   0   89.28    9.87
  -4   0  -1   -1.02    1.84
  -4   0  -1   -0.70    2.35
   4   0   1    5.59    3.60
  -4   0  -2   19.19    5.64
   4   0   2   25.18    7.00
  -4   0  -2   18.67    4.60
  -4   0  -3   20.72    5.43
  -4   0  -3   12.21    3.77
   4   0   3   12.21    4.56
   4   0   4  119.00   13.86
  -4   0  -4   93.24   10.39
  -4   0  -4  102.66   11.84
   4   0   5    8.40    3.88
  -4   0  -5    7.27    3.48
   4   0   5   13.47    5.58
  -4   0  -5    6.09    3.03
   4   0   6   20.00    5.47
  -4   0  -6   13.94    6.03
  -4   0  -6   10.80    3.96
   4   0   6    5.42    4.38
   4   0   7    5.92    3.92
  -4   0  -7    8.14    4.16
   4   0   7    7.03    4.23
  -4   0  -7    7.87    2.72
  -4   0  -8    6.04    4.31
   4   0   8    1.64    2.48
   4   0   8    2.49    5.44
  -4   0  -8    8.22    3.91
  -4   0  -9   -2.90    4.26
   4   0   9   -0.50    2.22
  -4   0  -9   -0.21    2.51
   4   0   9    0.13    3.84
  -4  -1  10   20.69    7.32
   4   1 -10   24.77    6.28
  -4  -1   9    2.56    3.27
   4   1  -9   -2.06    2.14
  -4  -1   8    6.38    2.63
   4   1  -8    6.82    3.95
  -4  -1   7   74.56   12.64
   4   1  -7   54.04    8.09
  -4  -1   6   83.56   13.25
   4   1  -6  106.76   10.70
  -4  -1   5    7.11    5.53
   4   1  -5    6.13    2.97
  -4  -1   4   16.21    5.66
   4   1  -4   11.32    3.11
  -4  -1   3   21.64    4.73
  -4  -1   3   23.21    6.74
   4   1  -3   20.50    4.11
  -4  -1   2    7.73    3.17
   4   1  -2   10.44    4.90
  -4  -1   2    9.82    5.62
  -4  -1   1   17.35    4.90
   4   1  -1    8.24    4.11
  -4  -1   0   23.25    5.33
   4   1   0   33.73    7.73
  -4  -1  -1   42.04    7.48
  -4  -1  -1   35.46    5.60
   4   1   1   42.99    8.79
  -4  -1  -2    6.65    4.08
   4   1   2   10.38    5.07
   4   1   3   70.71   11.44
  -4  -1  -3   73.45   10.27
  -4  -1  -4   29.39    6.76
   4   1   4   28.17    7.85
  -4  -1  -5   -2.53    2.87
   4   1   5   -0.14    2.93
  -4  -1  -6   36.03    7.63
   4   1   6   30.88    8.09
  -4  -1  -7    5.64    4.08
   4   1   7    0.72    3.60
  -4  -1  -8   18.22    6.21
   4   1   8    5.35    4.19
  -4  -2   9   48.09   11.24
   4   2  -9   39.02    7.53
  -4  -2   8   40.78   10.25
   4   2  -8   53.04    8.33
  -4  -2   7   -0.82    3.42
   4   2  -7    0.80    2.43
  -4  -2   6   28.04    7.96
   4   2  -6   16.63    4.77
  -4  -2   5    2.55    3.52
   4   2  -5    8.94    3.24
  -4  -2   4    1.04    2.16
  -4  -2   4    5.04    3.15
   4   2  -4    0.48    1.33
   4   2  -3    3.21    3.07
  -4  -2   3    2.98    2.03
  -4  -2   3   -1.08    4.08
  -4  -2   2    6.43    2.96
  -4  -2   2    4.23    4.06
   4   2  -1   85.67   13.37
  -4  -2   1   98.55   11.11
   4   2   0   65.95   11.37
  -4  -2   0   71.21    9.54
  -4  -2  -1    8.15    4.58
   4   2   1    2.21    3.08
  -4  -2  -2    0.84    3.56
   4   2   2    5.02    4.29
  -4  -2  -3   11.52    4.28
   4   2   3   -1.10    3.32
   4   2   4  102.24   14.55
  -4  -2  -4  107.81   12.84
  -4  -2  -5    0.82    2.90
   4   2   5    2.43    3.22
  -4  -2  -6    5.04    4.00
   4   2   6    4.06    5.01
  -4  -2  -7   28.46    7.31
   4   2   7   33.90    9.28
  -4  -3   7    5.35    5.09
   4   3  -7    3.76    2.43
  -4  -3   6   -3.74    4.00
   4   3  -6   -3.40    2.46
  -4  -3   5   14.42    4.25
  -4  -3   5   11.49    6.05
   4   3  -5   16.71    4.61
  -4  -3   4    8.94    3.99
  -4  -3   4    5.22    4.49
   4   3  -3   82.32   13.53
  -4  -3   3   93.46   14.36
  -4  -3   3   98.33   11.79
   4   3  -2  114.02   15.86
  -4  -3   2   95.63   14.09
  -4  -3   2  106.52   12.51
   4   3  -1   99.94   15.58
  -4  -3   1  135.54   14.03
  -4  -3   0   26.40    6.85
   4   3   0   18.29    6.97
  -4  -3  -1    3.35    3.93
   4   3   1    2.56    4.06
  -4  -3  -2   33.74    7.56
   4   3   2   32.30    9.09
  -4  -3  -3    0.45    2.44
   4   3   3    2.09    3.80
  -4  -3  -4    3.77    4.37
   4   3   4    9.73    6.25
  -4  -3  -5   19.31    5.98
   4   3   5   19.93    7.00
   0   0   0    0.00    0.00
TITL face in P-1
REM P-1 (#2 in standard setting)
CELL 0.71073   3.862956   6.033683  14.472148  91.3020  93.0623  92.9253
ZERR    2.00   0.000347   0.000577   0.001022   0.0067   0.0065   0.0075
LATT  1
SFAC C H O S
UNIT 14.00 10.00 4.00 2.00
TREF
HKLF 4
END
;
_shelx_hkl_checksum              11519
_shelx_res_file
;
TITL face_a.res in P-1
    shelx.res
    created by SHELXL-2016/6 at 19:15:31 on 27-Mar-2017
REM Old TITL face in P-1 #2
REM SHELXT solution in P-1
REM R1 0.112, Rweak 0.007, Alpha 0.029, Orientation as input
REM Formula found by SHELXT: C7 O2 S
CELL 0.71073 3.862956 6.033683 14.472148 91.302 93.0623 92.9253
ZERR 2 0.000347 0.000577 0.001022 0.0067 0.0065 0.0075
LATT 1
SFAC C H O S
UNIT 14 12 4 2
L.S. 10
PLAN  10
BOND $H
LIST 4
fmap 2
ACTA
REM <olex2.extras>
REM <HklSrc "%.\\face.hkl">
REM </olex2.extras>
WGHT    0.050600    0.016400
FVAR       0.97752
S1    4    0.911790    0.225859    0.073603    11.00000    0.03276    0.03140 =
         0.02351   -0.00769    0.00284    0.00587
O1    3    0.441887    0.983932    0.385707    11.00000    0.03257    0.02394 =
         0.01924    0.00039    0.00058    0.00883
O2    3    0.724536    0.754616    0.479416    11.00000    0.03927    0.03073 =
         0.01630   -0.00030   -0.00142    0.01379
C1    1    0.693939    0.670844    0.319408    11.00000    0.01695    0.02101 =
         0.01890   -0.00092    0.00096   -0.00065
C4    1    0.833855    0.397245    0.170255    11.00000    0.01478    0.02415 =
         0.02164   -0.00342    0.00300   -0.00170
C7    1    0.608905    0.816814    0.397297    11.00000    0.01875    0.02135 =
         0.02001    0.00204    0.00101   -0.00341
C5    1    0.921897    0.335333    0.260566    11.00000    0.02168    0.01876 =
         0.02317   -0.00089    0.00049    0.00101
C6    1    0.852700    0.472026    0.334139    11.00000    0.02085    0.02430 =
         0.01867    0.00390   -0.00157    0.00071
C3    1    0.676161    0.596920    0.154755    11.00000    0.02399    0.02744 =
         0.01689    0.00066   -0.00090    0.00145
C2    1    0.607063    0.731706    0.228776    11.00000    0.01985    0.02095 =
         0.02123    0.00249   -0.00057    0.00224
H1O   2    0.500305    0.870868    0.218519    11.00000    0.02945
H6    2    0.905860    0.433954    0.392943    11.00000    0.02337
H3    2    0.618726    0.638320    0.091838    11.00000    0.02709
H5    2    1.028632    0.200797    0.271333    11.00000    0.02947
H2    2    0.643131    0.848653    0.519679    11.00000    0.07523
H1S   2    1.116004    0.104138    0.109769    11.00000    0.14870
HKLF 4
REM  face_a.res in P-1
REM R1 =  0.0408 for    1117 Fo > 4sig(Fo)  and  0.0540 for all    1375 data
REM    115 parameters refined using      0 restraints
END
WGHT      0.0506      0.0179
REM Highest difference peak  0.313,  deepest hole -0.217,  1-sigma level  0.061
Q1    1   0.7818  0.2598  0.1228  11.00000  0.05    0.31
Q2    1   0.6044  0.6673  0.2737  11.00000  0.05    0.29
Q3    1   0.9540  0.3556  0.1205  11.00000  0.05    0.29
Q4    1   0.9911  0.3822  0.0362  11.00000  0.05    0.26
Q5    1   0.7943  0.3629  0.2149  11.00000  0.05    0.24
Q6    1   0.7434  0.3499  0.2987  11.00000  0.05    0.24
Q7    1   0.7791  0.7149  0.1836  11.00000  0.05    0.23
Q8    1   0.5420  0.6232  0.1901  11.00000  0.05    0.22
Q9    1   0.7893  0.5127  0.1669  11.00000  0.05    0.22
Q10   1   0.7250  0.7894  0.3578  11.00000  0.05    0.22
;
_shelx_res_checksum              57909
loop_
_space_group_symop_operation_xyz
'x, y, z'
'-x, -y, -z'
loop_
_atom_site_type_symbol
_atom_site_label
_atom_site_fract_x
_atom_site_fract_y
_atom_site_fract_z
_atom_site_U_iso_or_equiv
_atom_site_adp_type
_atom_site_calc_flag
_atom_site_occupancy
S S1 0.91179(15) 0.22586(11) 0.07360(4) 0.0292(2) Uani d 1
O O1 0.4419(4) 0.9839(3) 0.38571(10) 0.0250(4) Uani d 1
O O2 0.7245(4) 0.7546(3) 0.47942(10) 0.0285(4) Uani d 1
C C1 0.6939(5) 0.6708(4) 0.31941(14) 0.0190(5) Uani d 1
C C4 0.8339(5) 0.3972(4) 0.17025(14) 0.0203(5) Uani d 1
C C7 0.6089(5) 0.8168(4) 0.39730(14) 0.0202(5) Uani d 1
C C5 0.9219(6) 0.3353(4) 0.26057(15) 0.0213(5) Uani d 1
C C6 0.8527(5) 0.4720(4) 0.33414(15) 0.0213(5) Uani d 1
C C3 0.6762(5) 0.5969(4) 0.15475(14) 0.0228(5) Uani d 1
C C2 0.6071(5) 0.7317(4) 0.22878(14) 0.0207(5) Uani d 1
H H1O 0.500(6) 0.871(4) 0.2185(16) 0.029(6) Uiso d 1
H H6 0.906(5) 0.434(4) 0.3929(16) 0.023(6) Uiso d 1
H H3 0.619(6) 0.638(4) 0.0918(16) 0.027(6) Uiso d 1
H H5 1.029(6) 0.201(4) 0.2713(16) 0.029(7) Uiso d 1
H H2 0.643(8) 0.849(6) 0.520(2) 0.075(11) Uiso d 1
H H1S 1.116(11) 0.104(8) 0.110(3) 0.149(17) Uiso d 1
loop_
_atom_site_aniso_label
_atom_site_aniso_U_11
_atom_site_aniso_U_22
_atom_site_aniso_U_33
_atom_site_aniso_U_12
_atom_site_aniso_U_13
_atom_site_aniso_U_23
S1 0.0328(4) 0.0314(4) 0.0235(3) 0.0059(3) 0.0028(2) -0.0077(2)
O1 0.0326(9) 0.0239(10) 0.0192(8) 0.0088(7) 0.0006(6) 0.0004(6)
O2 0.0393(10) 0.0307(10) 0.0163(8) 0.0138(8) -0.0014(7) -0.0003(7)
C1 0.0169(11) 0.0210(12) 0.0189(10) -0.0006(9) 0.0010(8) -0.0009(8)
C4 0.0148(11) 0.0241(13) 0.0216(11) -0.0017(9) 0.0030(8) -0.0034(9)
C7 0.0188(11) 0.0213(13) 0.0200(10) -0.0034(10) 0.0010(8) 0.0020(9)
C5 0.0217(11) 0.0188(13) 0.0232(11) 0.0010(10) 0.0005(9) -0.0009(9)
C6 0.0208(11) 0.0243(13) 0.0187(11) 0.0007(10) -0.0016(9) 0.0039(9)
C3 0.0240(12) 0.0274(13) 0.0169(11) 0.0015(10) -0.0009(9) 0.0007(9)
C2 0.0199(11) 0.0210(13) 0.0212(11) 0.0022(10) -0.0006(9) 0.0025(9)
loop_
_atom_type_symbol
_atom_type_description
_atom_type_scat_dispersion_real
_atom_type_scat_dispersion_imag
_atom_type_scat_source
C C 0.0033 0.0016 'International Tables Vol C Tables 4.2.6.8 and 6.1.1.4'
H H 0.0000 0.0000 'International Tables Vol C Tables 4.2.6.8 and 6.1.1.4'
O O 0.0106 0.0060 'International Tables Vol C Tables 4.2.6.8 and 6.1.1.4'
S S 0.1246 0.1234 'International Tables Vol C Tables 4.2.6.8 and 6.1.1.4'
loop_
_geom_angle_atom_site_label_1
_geom_angle_atom_site_label_2
_geom_angle_atom_site_label_3
_geom_angle
C4 S1 H1S 100(2)
C7 O2 H2 106(2)
C6 C1 C2 119.2(2)
C6 C1 C7 121.50(19)
C2 C1 C7 119.3(2)
C3 C4 C5 120.0(2)
C3 C4 S1 118.45(16)
C5 C4 S1 121.55(18)
O1 C7 O2 123.0(2)
O1 C7 C1 122.18(19)
O2 C7 C1 114.8(2)
C6 C5 C4 119.8(2)
C6 C5 H5 119.9(15)
C4 C5 H5 120.3(15)
C5 C6 C1 120.6(2)
C5 C6 H6 121.0(15)
C1 C6 H6 118.4(15)
C2 C3 C4 119.7(2)
C2 C3 H3 121.2(14)
C4 C3 H3 119.1(14)
C3 C2 C1 120.7(2)
C3 C2 H1O 120.1(14)
C1 C2 H1O 119.2(14)
loop_
_geom_bond_atom_site_label_1
_geom_bond_atom_site_label_2
_geom_bond_distance
S1 C4 1.768(2)
S1 H1S 1.21(5)
O1 C7 1.234(3)
O2 C7 1.317(3)
O2 H2 0.88(3)
C1 C6 1.390(3)
C1 C2 1.398(3)
C1 C7 1.476(3)
C4 C3 1.395(3)
C4 C5 1.397(3)
C5 C6 1.378(3)
C5 H5 0.94(2)
C6 H6 0.90(2)
C3 C2 1.376(3)
C3 H3 0.97(2)
C2 H1O 0.97(2)

_cod_database_fobs_code 2108132
