#------------------------------------------------------------------------------
#$Date: 2021-01-26 07:40:26 +0200 (Tue, 26 Jan 2021) $
#$Revision: 261216 $
#$URL: file:///home/coder/svn-repositories/cod/cif/2/10/87/2108752.cif $
#------------------------------------------------------------------------------
#
# This file is available in the Crystallography Open Database (COD),
# http://www.crystallography.net/. The original data for this entry
# were provided by IUCr Journals, http://journals.iucr.org/.
#
# The file may be used within the scientific community so long as
# proper attribution is given to the journal article from which the
# data were obtained.
#
data_2108752
loop_
_publ_author_name
'Beske, Maurice'
'Cronje, Stephanie'
'Schmidt, Martin U.'
'Tapmeyer, Lukas'
_publ_section_title
;
 Disordered sodium alkoxides from powder data: crystal structures of
 sodium ethoxide, propoxide, butoxide and pentoxide, and some of their
 solvates
;
_journal_coeditor_code           NE5003SUP1
_journal_issue                   1
_journal_name_full               'Acta Crystallographica Section B'
_journal_page_first
;
;
_journal_paper_doi               10.1107/S205252062001584X
_journal_volume                  77
_journal_year                    2021
_chemical_compound_source        Synthesis
_chemical_formula_moiety         'C4 H9 O1 1-, Na1 1+'
_chemical_formula_sum            'C4 H9 Na O'
_chemical_formula_weight         96.10
_chemical_name_common            'Sodium butoxide, sodium n-butanolate'
_chemical_name_systematic        'sodium 1-butoxide'
_chemical_properties_physical    'moisture-sensitive, hygroscopic'
_space_group_crystal_system      tetragonal
_space_group_IT_number           129
_space_group_name_Hall           '-P 4a 2a'
_space_group_name_H-M_alt        'P 4/n m m :2'
_cell_angle_alpha                90
_cell_angle_beta                 90
_cell_angle_gamma                90
_cell_formula_units_Z            2
_cell_length_a                   4.43232(9)
_cell_length_b                   4.43232(9)
_cell_length_c                   14.0143(8)
_cell_measurement_reflns_used    115
_cell_measurement_temperature    298
_cell_measurement_theta_max      99.99
_cell_measurement_theta_min      2
_cell_volume                     275.317(18)
_computing_cell_refinement       '<i>TOPAS-Academic</i> (Coelho, 2012)'
_computing_data_collection       '<i>WINX^POW^</i> (Stoe & Cie, 2004)'
_computing_data_reduction        '<i>DASH</i> 3.1 (David <i>et al.</i>, 2006)'
_computing_molecular_graphics    '<i>Mercury</i> (Macrae <i>et al.</i>, 2008)'
_computing_structure_refinement  '<i>TOPAS-Academic</i> (Coelho, 2012)'
_computing_structure_solution    '<i>DASH</i> 3.1 (David <i>et al.</i>, 2006)'
_diffrn_ambient_temperature      298
_diffrn_detector                 'linear position-sensitive detector'
_diffrn_measurement_device_type  STOE-Stadi-P
_diffrn_radiation_monochromator  Ge(111)
_diffrn_radiation_probe          x-ray
_diffrn_radiation_type           'Cu K\a~1~'
_diffrn_radiation_wavelength     1.54056
_diffrn_reflns_number            115
_diffrn_source                   'sealed X-ray tube'
_exptl_absorpt_coefficient_mu    1.314
_exptl_crystal_colour            white
_exptl_crystal_density_diffrn    1.159
_exptl_crystal_description       powder
_exptl_crystal_F_000             104.0
_exptl_crystal_recrystallization_method
'Crystallised from n-butanol solution with subsequent evaporation'
_pd_calc_method                  'Rietveld Refinement'
_pd_char_colour                  White
_pd_char_particle_morphology     powder
_pd_meas_2theta_range_inc        0.0100002
_pd_meas_2theta_range_max        99.9919
_pd_meas_2theta_range_min        2.00000
_pd_meas_number_of_points        9800
_pd_meas_scan_method             step
_pd_proc_2theta_range_inc        0.0100002
_pd_proc_2theta_range_max        99.9919
_pd_proc_2theta_range_min        2.00000
_pd_proc_info_excluded_regions   /
_pd_proc_ls_background_function  'Chebyshev function with 20 terms'
_pd_proc_ls_pref_orient_corr     none
_pd_proc_ls_profile_function     'fundamental parameters'
_pd_proc_ls_prof_R_factor        3.46722689
_pd_proc_ls_prof_wR_expected     2.40146159
_pd_proc_ls_prof_wR_factor       4.71172181
_pd_proc_wavelength              1.54056
_pd_spec_mounting                '1.0 mm glass capillary'
_pd_spec_mount_mode              transmission
_refine_ls_extinction_method     none
_refine_ls_goodness_of_fit_all   1.962
_refine_ls_hydrogen_treatment    refxyz
_refine_ls_matrix_type           fullcycle
_refine_ls_number_constraints    9
_refine_ls_number_parameters     61
_refine_ls_number_restraints     21
_refine_ls_R_I_factor            2.340
_refine_ls_shift/su_max          0.0001
_refine_ls_weighting_details     w=1/\s[Y~obs~]^2^
_refine_ls_weighting_scheme      sigma
_cod_data_source_file            ne5003sup1.cif
_cod_data_source_block           NaOnBu
_cod_original_cell_volume        275.318(19)
_cod_original_sg_symbol_H-M      P4/nmm:2
_cod_original_formula_sum        'C4 H9 Na1 O1'
_cod_database_code               2108752
_publcif_datablock.id            {9cf9a03e-9e0f-43cf-837c-744d608298a4}
loop_
_symmetry_equiv_pos_as_xyz
'x, y, z '
'-x, y+1/2, -z '
'-x+1/2, -y+1/2, z '
'-x+1/2, y, z '
'-y, -x, -z '
'-y, x+1/2, -z '
'-y+1/2, -x+1/2, z '
'-y+1/2, x, z '
'y, -x+1/2, z '
'y, x, z '
'y+1/2, -x, -z '
'y+1/2, x+1/2, -z '
'x, -y+1/2, z '
'-x, -y, -z '
'x+1/2, -y, -z '
'x+1/2, y+1/2, -z '
loop_
_atom_site_label
_atom_site_type_symbol
_atom_site_symmetry_multiplicity
_atom_site_fract_x
_atom_site_fract_y
_atom_site_fract_z
_atom_site_occupancy
_atom_site_B_iso_or_equiv
_atom_site_U_iso_or_equiv
Na1 Na 2 0.75 0.25 0 1 0.90(15) 0.01136
O1 O 2 0.25 0.25 0.0541(7) 1 0.90(15) 0.01136
C1 C 8 0.197(10) 0.197(10) 0.126(2) 0.25 8.8(14) 0.11176
H1 H 16 0.02(5) 0.07(5) 0.126(12) 0.25 10.6(16) 0.13411
C2 C 8 0.267(40) 0.267(40) 0.217(4) 0.25 8.8(14) 0.11176
H2 H 16 0.49(3) 0.27(20) 0.225(13) 0.25 10.6(16) 0.13411
C3 C 8 0.125(7) 0.125(7) 0.300(4) 0.25 8.8(14) 0.11176
H3 H 16 -0.01(8) -0.05(9) 0.277(13) 0.25 10.6(16) 0.13411
C4 C 8 0.126(11) 0.126(11) 0.393(5) 0.25 8.8(14) 0.11176
H4A H 8 -0.02(3) -0.02(3) 0.42(3) 0.25 10.6(16) 0.13411
H4B H 16 0.07(4) 0.34(6) 0.42(2) 0.25 10.6(16) 0.13411
loop_
_geom_angle_atom_site_label_1
_geom_angle_atom_site_label_2
_geom_angle_atom_site_label_3
_geom_angle
Na1 O1 C1 121
loop_
_geom_bond_atom_site_label_1
_geom_bond_atom_site_label_2
_geom_bond_distance
Na1 O1 2.342(2)
loop_
_pd_meas_2theta_scan
_pd_proc_intensity_total
_pd_calc_intensity_total
_pd_proc_ls_weight
2.00000 3851.00000 3607.91806 0.00026
2.01000 3793.00000 3617.57899 0.00026
2.02000 3927.00000 3627.04264 0.00025
2.03000 3964.00000 3636.31146 0.00025
2.04000 3908.00000 3645.38788 0.00026
2.05000 3873.00000 3654.27432 0.00026
2.06000 3827.00000 3662.97316 0.00026
2.07000 3777.00000 3671.48678 0.00026
2.08000 3796.00000 3679.81751 0.00026
2.09000 3882.00000 3687.96770 0.00026
2.10000 3966.00000 3695.93963 0.00025
2.11000 3877.00000 3703.73559 0.00026
2.12000 3902.00000 3711.35785 0.00026
2.13000 3818.00000 3718.80865 0.00026
2.14000 3828.00000 3726.09021 0.00026
2.15000 3815.00000 3733.20473 0.00026
2.16000 3963.00000 3740.15439 0.00025
2.17000 3987.00000 3746.94135 0.00025
2.18000 3984.00000 3753.56775 0.00025
2.19000 3882.00000 3760.03572 0.00026
2.20000 3827.00000 3766.34736 0.00026
2.21000 3884.00000 3772.50474 0.00026
2.22000 3885.00000 3778.50993 0.00026
2.23000 3859.00000 3784.36497 0.00026
2.24000 3924.00000 3790.07190 0.00025
2.25000 3820.00000 3795.63270 0.00026
2.26000 3920.00000 3801.04938 0.00026
2.27000 3923.00000 3806.32389 0.00025
2.28000 3773.00000 3811.45818 0.00027
2.29000 3943.00000 3816.45420 0.00025
2.30000 3779.00000 3821.31384 0.00026
2.31000 3845.00000 3826.03901 0.00026
2.32000 3978.00000 3830.63157 0.00025
2.33000 3859.00000 3835.09339 0.00026
2.34000 3868.00000 3839.42631 0.00026
2.35000 3730.00000 3843.63216 0.00027
2.36000 3801.00000 3847.71272 0.00026
2.37000 3895.00000 3851.66980 0.00026
2.38000 3842.00000 3855.50517 0.00026
2.39000 3741.00000 3859.22057 0.00027
2.40000 3733.00000 3862.81774 0.00027
2.41000 3782.00000 3866.29841 0.00026
2.42000 3942.00000 3869.66427 0.00025
2.43000 3790.00000 3872.91701 0.00026
2.44000 3901.00000 3876.05830 0.00026
2.45000 3859.00000 3879.08980 0.00026
2.46000 3884.00000 3882.01313 0.00026
2.47000 3730.00000 3884.82993 0.00027
2.48000 3888.00000 3887.54179 0.00026
2.49000 3842.00000 3890.15030 0.00026
2.50000 3901.00000 3892.65703 0.00026
2.51000 3798.00000 3895.06355 0.00026
2.52000 3823.00000 3897.37139 0.00026
2.53000 3823.00000 3899.58208 0.00026
2.54000 3727.00000 3901.69712 0.00027
2.55000 3813.00000 3903.71802 0.00026
2.56000 3833.00000 3905.64626 0.00026
2.57000 3837.00000 3907.48328 0.00026
2.58000 3862.00000 3909.23056 0.00026
2.59000 3806.00000 3910.88952 0.00026
2.60000 3766.00000 3912.46158 0.00027
2.61000 3703.00000 3913.94815 0.00027
2.62000 3877.00000 3915.35061 0.00026
2.63000 3874.00000 3916.67036 0.00026
2.64000 3852.00000 3917.90874 0.00026
2.65000 3735.00000 3919.06711 0.00027
2.66000 3677.00000 3920.14679 0.00027
2.67000 3830.00000 3921.14912 0.00026
2.68000 3868.00000 3922.07540 0.00026
2.69000 3775.00000 3922.92691 0.00026
2.70000 3734.00000 3923.70495 0.00027
2.71000 3717.00000 3924.41076 0.00027
2.72000 3860.00000 3925.04562 0.00026
2.73000 3888.00000 3925.61075 0.00026
2.74000 3818.00000 3926.10737 0.00026
2.75000 3787.00000 3926.53671 0.00026
2.76000 3777.00000 3926.89997 0.00026
2.77000 3864.00000 3927.19832 0.00026
2.78000 3784.00000 3927.43294 0.00026
2.79000 3787.00000 3927.60499 0.00026
2.80000 3864.00000 3927.71562 0.00026
2.81000 3858.00000 3927.76597 0.00026
2.82000 3923.00000 3927.75716 0.00025
2.83000 3800.00000 3927.69029 0.00026
2.84000 3831.00000 3927.56648 0.00026
2.85000 3866.00000 3927.38679 0.00026
2.86000 3862.00000 3927.15232 0.00026
2.87000 3722.00000 3926.86412 0.00027
2.88000 3818.00000 3926.52323 0.00026
2.89000 3789.00000 3926.13071 0.00026
2.90000 3740.00000 3925.68757 0.00027
2.91000 3799.00000 3925.19484 0.00026
2.92000 3806.00000 3924.65350 0.00026
2.93000 3791.00000 3924.06457 0.00026
2.94000 3733.00000 3923.42902 0.00027
2.95000 3793.00000 3922.74781 0.00026
2.96000 3729.00000 3922.02192 0.00027
2.97000 3861.00000 3921.25227 0.00026
2.98000 3756.00000 3920.43982 0.00027
2.99000 3776.00000 3919.58549 0.00026
3.00000 3819.00000 3918.69019 0.00026
3.01000 3757.00000 3917.75483 0.00027
3.02000 3754.00000 3916.78029 0.00027
3.03000 3769.00000 3915.76747 0.00027
3.04000 3814.00000 3914.71724 0.00026
3.05000 3853.00000 3913.63045 0.00026
3.06000 3849.00000 3912.50796 0.00026
3.07000 3778.00000 3911.35062 0.00026
3.08000 3751.00000 3910.15925 0.00027
3.09000 3803.00000 3908.93467 0.00026
3.10000 3790.00000 3907.67770 0.00026
3.11000 3724.00000 3906.38914 0.00027
3.12000 3869.00000 3905.06978 0.00026
3.13000 3783.00000 3903.72040 0.00026
3.14000 3854.00000 3902.34178 0.00026
3.15000 3700.00000 3900.93468 0.00027
3.16000 3867.00000 3899.49985 0.00026
3.17000 3730.00000 3898.03803 0.00027
3.18000 3708.00000 3896.54997 0.00027
3.19000 3736.00000 3895.03639 0.00027
3.20000 3867.00000 3893.49799 0.00026
3.21000 3914.00000 3891.93550 0.00026
3.22000 3766.00000 3890.34961 0.00027
3.23000 3797.00000 3888.74101 0.00026
3.24000 3897.00000 3887.11037 0.00026
3.25000 3711.00000 3885.45838 0.00027
3.26000 3761.00000 3883.78569 0.00027
3.27000 3670.00000 3882.09296 0.00027
3.28000 3789.00000 3880.38083 0.00026
3.29000 3835.00000 3878.64995 0.00026
3.30000 3833.00000 3876.90094 0.00026
3.31000 3919.00000 3875.13442 0.00026
3.32000 3670.00000 3873.35100 0.00027
3.33000 3737.00000 3871.55129 0.00027
3.34000 3726.00000 3869.73589 0.00027
3.35000 3877.00000 3867.90538 0.00026
3.36000 3701.00000 3866.06034 0.00027
3.37000 3835.00000 3864.20134 0.00026
3.38000 3893.00000 3862.32895 0.00026
3.39000 3791.00000 3860.44373 0.00026
3.40000 3834.00000 3858.54622 0.00026
3.41000 3808.00000 3856.63696 0.00026
3.42000 3827.00000 3854.71650 0.00026
3.43000 3671.00000 3852.78534 0.00027
3.44000 3798.00000 3850.84402 0.00026
3.45000 3868.00000 3848.89304 0.00026
3.46000 3767.00000 3846.93291 0.00027
3.47000 3765.00000 3844.96413 0.00027
3.48000 3728.00000 3842.98717 0.00027
3.49000 3741.00000 3841.00253 0.00027
3.50000 3868.00000 3839.01068 0.00026
3.51000 3787.00000 3837.01209 0.00026
3.52000 3641.00000 3835.00722 0.00027
3.53000 3664.00000 3832.99652 0.00027
3.54000 3824.00000 3830.98044 0.00026
3.55000 3705.00000 3828.95942 0.00027
3.56000 3841.00000 3826.93390 0.00026
3.57000 3796.00000 3824.90430 0.00026
3.58000 3704.00000 3822.87105 0.00027
3.59000 3792.00000 3820.83455 0.00026
3.60000 3745.00000 3818.79522 0.00027
3.61000 3812.00000 3816.75346 0.00026
3.62000 3797.00000 3814.70966 0.00026
3.63000 3855.00000 3812.66421 0.00026
3.64000 3703.00000 3810.61750 0.00027
3.65000 3788.00000 3808.56989 0.00026
3.66000 3710.00000 3806.52177 0.00027
3.67000 3719.00000 3804.47349 0.00027
3.68000 3763.00000 3802.42542 0.00027
3.69000 3694.00000 3800.37790 0.00027
3.70000 3727.00000 3798.33128 0.00027
3.71000 3692.00000 3796.28591 0.00027
3.72000 3749.00000 3794.24212 0.00027
3.73000 3782.00000 3792.20023 0.00026
3.74000 3786.00000 3790.16057 0.00026
3.75000 3781.00000 3788.12347 0.00026
3.76000 3758.00000 3786.08922 0.00027
3.77000 3825.00000 3784.05814 0.00026
3.78000 3813.00000 3782.03053 0.00026
3.79000 3859.00000 3780.00669 0.00026
3.80000 3762.00000 3777.98690 0.00027
3.81000 3729.00000 3775.97146 0.00027
3.82000 3723.00000 3773.96064 0.00027
3.83000 3754.00000 3771.95471 0.00027
3.84000 3743.00000 3769.95395 0.00027
3.85000 3806.00000 3767.95863 0.00026
3.86000 3770.00000 3765.96899 0.00027
3.87000 3813.00000 3763.98530 0.00026
3.88000 3791.00000 3762.00781 0.00026
3.89000 3885.00000 3760.03676 0.00026
3.90000 3800.00000 3758.07239 0.00026
3.91000 3802.00000 3756.11494 0.00026
3.92000 3755.00000 3754.16464 0.00027
3.93000 3796.00000 3752.22171 0.00026
3.94000 3825.00000 3750.28637 0.00026
3.95000 3747.00000 3748.35885 0.00027
3.96000 3811.00000 3746.43935 0.00026
3.97000 3747.00000 3744.52818 0.00027
3.98000 3750.00000 3742.62575 0.00027
3.99000 3798.00000 3740.73234 0.00026
4.00000 3748.00000 3738.84818 0.00027
4.01000 3754.00000 3736.97346 0.00027
4.02000 3767.00000 3735.10838 0.00027
4.03000 3787.00000 3733.25314 0.00026
4.04000 3829.00000 3731.40793 0.00026
4.05000 3837.00000 3729.57294 0.00026
4.06000 3847.00000 3727.74836 0.00026
4.07000 3781.00000 3725.93437 0.00026
4.08000 3825.00000 3724.13115 0.00026
4.09000 3790.00000 3722.33888 0.00026
4.10000 3747.00000 3720.55772 0.00027
4.11000 3726.00000 3718.78785 0.00027
4.12000 3867.00000 3717.02944 0.00026
4.13000 3766.00000 3715.28271 0.00027
4.14000 3745.00000 3713.54803 0.00027
4.15000 3763.00000 3711.82573 0.00027
4.16000 3852.00000 3710.11597 0.00026
4.17000 3751.00000 3708.41894 0.00027
4.18000 3761.00000 3706.73480 0.00027
4.19000 3776.00000 3705.06370 0.00026
4.20000 3809.00000 3703.40583 0.00026
4.21000 3843.00000 3701.76133 0.00026
4.22000 3802.00000 3700.13037 0.00026
4.23000 3850.00000 3698.51311 0.00026
4.24000 3678.00000 3696.90972 0.00027
4.25000 3921.00000 3695.32034 0.00026
4.26000 3819.00000 3693.74513 0.00026
4.27000 3792.00000 3692.18427 0.00026
4.28000 3799.00000 3690.63792 0.00026
4.29000 3800.00000 3689.10644 0.00026
4.30000 3835.00000 3687.59023 0.00026
4.31000 3811.00000 3686.08949 0.00026
4.32000 3761.00000 3684.60442 0.00027
4.33000 3884.00000 3683.13517 0.00026
4.34000 3667.00000 3681.68195 0.00027
4.35000 3786.00000 3680.24493 0.00026
4.36000 3755.00000 3678.82430 0.00027
4.37000 3669.00000 3677.42025 0.00027
4.38000 3725.00000 3676.03298 0.00027
4.39000 3796.00000 3674.66268 0.00026
4.40000 3791.00000 3673.30957 0.00026
4.41000 3773.00000 3671.97385 0.00027
4.42000 3688.00000 3670.65575 0.00027
4.43000 3731.00000 3669.35561 0.00027
4.44000 3712.00000 3668.07397 0.00027
4.45000 3793.00000 3666.81122 0.00026
4.46000 3802.00000 3665.56762 0.00026
4.47000 3684.00000 3664.34345 0.00027
4.48000 3773.00000 3663.13903 0.00027
4.49000 3767.00000 3661.95465 0.00027
4.50000 3805.00000 3660.79064 0.00026
4.51000 3740.00000 3659.64735 0.00027
4.52000 3851.00000 3658.52515 0.00026
4.53000 3868.00000 3657.42442 0.00026
4.54000 3902.00000 3656.34558 0.00026
4.55000 3810.00000 3655.28906 0.00026
4.56000 3751.00000 3654.25540 0.00027
4.57000 3815.00000 3653.24535 0.00026
4.58000 3803.00000 3652.25980 0.00026
4.59000 3782.00000 3651.29938 0.00026
4.60000 3729.00000 3650.36482 0.00027
4.61000 3795.00000 3649.45692 0.00026
4.62000 3732.00000 3648.57661 0.00027
4.63000 3817.00000 3647.72501 0.00026
4.64000 3770.00000 3646.90356 0.00027
4.65000 3703.00000 3646.11410 0.00027
4.66000 3808.00000 3645.35913 0.00026
4.67000 3813.00000 3644.64203 0.00026
4.68000 3753.00000 3643.96751 0.00027
4.69000 3833.00000 3643.34216 0.00026
4.70000 3755.00000 3642.77520 0.00027
4.71000 3778.00000 3642.27865 0.00026
4.72000 3793.00000 3641.86809 0.00026
4.73000 3661.00000 3641.56339 0.00027
4.74000 3761.00000 3641.38927 0.00027
4.75000 3798.00000 3641.37548 0.00026
4.76000 3835.00000 3641.55666 0.00026
4.77000 3847.00000 3641.97171 0.00026
4.78000 3775.00000 3642.66256 0.00026
4.79000 3717.00000 3643.67247 0.00027
4.80000 3797.00000 3645.04387 0.00026
4.81000 3846.00000 3646.81603 0.00026
4.82000 3868.00000 3649.02240 0.00026
4.83000 3859.00000 3651.68779 0.00026
4.84000 3681.00000 3654.82715 0.00027
4.85000 3833.00000 3658.44544 0.00026
4.86000 3890.00000 3662.53883 0.00026
4.87000 3890.00000 3667.09719 0.00026
4.88000 3886.00000 3672.10738 0.00026
4.89000 3856.00000 3677.55661 0.00026
4.90000 3888.00000 3683.43568 0.00026
4.91000 3849.00000 3689.74171 0.00026
4.92000 3858.00000 3696.48014 0.00026
4.93000 3871.00000 3703.66510 0.00026
4.94000 3890.00000 3711.31851 0.00026
4.95000 3866.00000 3719.46904 0.00026
4.96000 3918.00000 3728.14962 0.00026
4.97000 3850.00000 3737.39437 0.00026
4.98000 3893.00000 3747.23530 0.00026
4.99000 3937.00000 3757.69893 0.00025
5.00000 3921.00000 3768.80393 0.00026
5.01000 4023.00000 3780.56021 0.00025
5.02000 4016.00000 3792.96981 0.00025
5.03000 3910.00000 3806.02843 0.00026
5.04000 3964.00000 3819.72845 0.00025
5.05000 3915.00000 3834.06286 0.00026
5.06000 4055.00000 3849.02861 0.00025
5.07000 3967.00000 3864.62951 0.00025
5.08000 4069.00000 3880.87780 0.00025
5.09000 4087.00000 3897.79468 0.00024
5.10000 3990.00000 3915.41011 0.00025
5.11000 4053.00000 3933.76150 0.00025
5.12000 4067.00000 3952.88897 0.00025
5.13000 4119.00000 3972.83184 0.00024
5.14000 4204.00000 3993.62581 0.00024
5.15000 4205.00000 4015.30008 0.00024
5.16000 4216.00000 4037.87576 0.00024
5.17000 4166.00000 4061.36580 0.00024
5.18000 4159.00000 4085.77717 0.00024
5.19000 4295.00000 4111.11450 0.00023
5.20000 4240.00000 4137.38251 0.00024
5.21000 4184.00000 4164.58975 0.00024
5.22000 4310.00000 4192.75176 0.00023
5.23000 4339.00000 4221.89330 0.00023
5.24000 4515.00000 4252.04850 0.00022
5.25000 4428.00000 4283.26029 0.00023
5.26000 4391.00000 4315.57887 0.00023
5.27000 4463.00000 4349.05693 0.00022
5.28000 4541.00000 4383.74601 0.00022
5.29000 4553.00000 4419.69332 0.00022
5.30000 4535.00000 4456.93938 0.00022
5.31000 4674.00000 4495.51952 0.00021
5.32000 4741.00000 4535.46574 0.00021
5.33000 4701.00000 4576.80726 0.00021
5.34000 4643.00000 4619.57265 0.00022
5.35000 4735.00000 4663.79461 0.00021
5.36000 4792.00000 4709.51693 0.00021
5.37000 4837.00000 4756.79759 0.00021
5.38000 4865.00000 4805.70890 0.00021
5.39000 5024.00000 4856.33370 0.00020
5.40000 5045.00000 4908.76768 0.00020
5.41000 5085.00000 4963.12626 0.00020
5.42000 5194.00000 5019.54516 0.00019
5.43000 5160.00000 5078.18320 0.00019
5.44000 5289.00000 5139.25883 0.00019
5.45000 5348.00000 5203.13466 0.00019
5.46000 5235.00000 5270.67239 0.00019
5.47000 5343.00000 5343.61444 0.00019
5.48000 5458.00000 5418.83915 0.00018
5.49000 5446.00000 5486.53516 0.00018
5.50000 5535.00000 5555.60631 0.00018
5.51000 5733.00000 5626.83396 0.00017
5.52000 5791.00000 5700.30060 0.00017
5.53000 5740.00000 5776.09543 0.00017
5.54000 5886.00000 5854.31120 0.00017
5.55000 5910.00000 5935.04100 0.00017
5.56000 5884.00000 6018.37578 0.00017
5.57000 6072.00000 6104.40363 0.00016
5.58000 6199.00000 6193.21102 0.00016
5.59000 6262.00000 6284.88583 0.00016
5.60000 6197.00000 6379.52099 0.00016
5.61000 6372.00000 6477.21801 0.00016
5.62000 6480.00000 6578.08942 0.00015
5.63000 6796.00000 6682.25976 0.00015
5.64000 6749.00000 6789.86514 0.00015
5.65000 6893.00000 6901.05137 0.00015
5.66000 7153.00000 7015.97141 0.00014
5.67000 6955.00000 7134.78264 0.00014
5.68000 6940.00000 7257.64538 0.00014
5.69000 7268.00000 7384.72306 0.00014
5.70000 7410.00000 7516.18449 0.00013
5.71000 7463.00000 7652.20736 0.00013
5.72000 7626.00000 7792.98244 0.00013
5.73000 7861.00000 7938.71678 0.00013
5.74000 7929.00000 8089.63563 0.00013
5.75000 8034.00000 8245.98305 0.00012
5.76000 8280.00000 8408.02129 0.00012
5.77000 8440.00000 8576.02954 0.00012
5.78000 8732.00000 8750.30306 0.00011
5.79000 8870.00000 8931.15380 0.00011
5.80000 8887.00000 9118.91344 0.00011
5.81000 9070.00000 9313.93882 0.00011
5.82000 9547.00000 9516.61889 0.00010
5.83000 9492.00000 9727.38224 0.00011
5.84000 9737.00000 9946.70405 0.00010
5.85000 9949.00000 10175.11202 0.00010
5.86000 10297.00000 10413.19113 0.00009
5.87000 10274.00000 10661.58724 0.00009
5.88000 10454.00000 10921.01077 0.00009
5.89000 10838.00000 11192.24049 0.00009
5.90000 11154.00000 11476.12774 0.00008
5.91000 11325.00000 11773.60094 0.00008
5.92000 11636.00000 12085.66897 0.00007
5.93000 12076.00000 12413.42264 0.00007
5.94000 12496.00000 12758.03389 0.00006
5.95000 12562.00000 13120.75363 0.00006
5.96000 12924.00000 13502.91049 0.00006
5.97000 13440.00000 13905.91368 0.00006
5.98000 13868.00000 14331.26336 0.00005
5.99000 14329.00000 14780.57048 0.00005
6.00000 14796.00000 15255.58545 0.00005
6.01000 15356.00000 15758.23337 0.00004
6.02000 15702.00000 16290.65345 0.00004
6.03000 16335.00000 16855.24244 0.00004
6.04000 16573.00000 17454.70373 0.00004
6.05000 17264.00000 18092.10526 0.00003
6.06000 18209.00000 18770.95263 0.00003
6.07000 18580.00000 19495.28349 0.00003
6.08000 19374.00000 20269.78973 0.00003
6.09000 20134.00000 21099.97437 0.00002
6.10000 21226.00000 21992.34915 0.00002
6.11000 22050.00000 22954.67633 0.00002
6.12000 23408.00000 23996.24869 0.00002
6.13000 24247.00000 25128.18318 0.00002
6.14000 25611.00000 26363.67170 0.00002
6.15000 26892.00000 27718.08914 0.00001
6.16000 28831.00000 29208.80727 0.00001
6.17000 30575.00000 30854.51643 0.00001
6.18000 32339.00000 32673.82920 0.00001
6.19000 34020.00000 34682.94917 0.00001
6.20000 37000.00000 36892.26070 0.00001
6.21000 39646.00000 39301.84727 0.00001
6.22000 42124.00000 41896.18720 0.00001
6.23000 44806.00000 44638.58404 0.00000
6.24000 47812.00000 47466.20471 0.00000
6.25000 50596.00000 50286.82802 0.00000
6.26000 53155.00000 52978.45224 0.00000
6.27000 55426.00000 55392.71290 0.00000
6.28000 57771.00000 57362.63792 0.00000
6.29000 58757.00000 58714.74719 0.00000
6.30000 58995.00000 59285.09551 0.00000
6.31000 58496.00000 58938.66091 0.00000
6.32000 56954.00000 57591.05306 0.00000
6.33000 54836.00000 55229.79633 0.00000
6.34000 51273.00000 51929.01140 0.00000
6.35000 47338.00000 47848.95614 0.00000
6.36000 42542.00000 43215.77404 0.00001
6.37000 37746.00000 38286.91614 0.00001
6.38000 32602.00000 33315.06109 0.00001
6.39000 28235.00000 28520.95212 0.00001
6.40000 22531.00000 24077.89458 0.00002
6.41000 18879.00000 20105.72245 0.00003
6.42000 15794.00000 16671.42075 0.00004
6.43000 13236.00000 13794.48972 0.00006
6.44000 11321.00000 11455.63519 0.00008
6.45000 9631.00000 9607.34686 0.00010
6.46000 8428.00000 8184.84728 0.00012
6.47000 7426.00000 7116.05138 0.00013
6.48000 6619.00000 6329.56993 0.00015
6.49000 5920.00000 5760.29889 0.00017
6.50000 5440.00000 5352.61313 0.00018
6.51000 5199.00000 5061.52858 0.00019
6.52000 4890.00000 4852.37702 0.00020
6.53000 4866.00000 4699.56604 0.00021
6.54000 4714.00000 4584.92000 0.00021
6.55000 4454.00000 4495.96739 0.00022
6.56000 4372.00000 4424.40090 0.00023
6.57000 4284.00000 4364.81581 0.00023
6.58000 4230.00000 4313.74981 0.00024
6.59000 4170.00000 4268.99489 0.00024
6.60000 4140.00000 4229.12931 0.00024
6.61000 4057.00000 4193.21345 0.00025
6.62000 4010.00000 4160.60003 0.00025
6.63000 4147.00000 4130.81958 0.00024
6.64000 4059.00000 4103.51301 0.00025
6.65000 4011.00000 4078.39235 0.00025
6.66000 3936.00000 4055.21867 0.00025
6.67000 3966.00000 4033.78916 0.00025
6.68000 3980.00000 4013.92860 0.00025
6.69000 3834.00000 3995.48397 0.00026
6.70000 3924.00000 3978.32075 0.00025
6.71000 3900.00000 3962.31995 0.00026
6.72000 3945.00000 3947.37603 0.00025
6.73000 3939.00000 3933.39503 0.00025
6.74000 3875.00000 3920.29291 0.00026
6.75000 3894.00000 3907.99395 0.00026
6.76000 3816.00000 3896.43035 0.00026
6.77000 3757.00000 3885.54143 0.00027
6.78000 3921.00000 3875.27251 0.00026
6.79000 3849.00000 3865.57418 0.00026
6.80000 3771.00000 3856.40158 0.00027
6.81000 3836.00000 3847.71394 0.00026
6.82000 3870.00000 3839.47416 0.00026
6.83000 3810.00000 3831.64791 0.00026
6.84000 3822.00000 3824.20259 0.00026
6.85000 3798.00000 3817.10903 0.00026
6.86000 3776.00000 3810.34113 0.00026
6.87000 3794.00000 3803.87493 0.00026
6.88000 3828.00000 3797.68828 0.00026
6.89000 3892.00000 3791.76052 0.00026
6.90000 3839.00000 3786.07251 0.00026
6.91000 3870.00000 3780.60613 0.00026
6.92000 3753.00000 3775.34368 0.00027
6.93000 3729.00000 3770.26911 0.00027
6.94000 3780.00000 3765.36773 0.00026
6.95000 3805.00000 3760.62576 0.00026
6.96000 3696.00000 3756.02985 0.00027
6.97000 3667.00000 3751.56718 0.00027
6.98000 3747.00000 3747.22509 0.00027
6.99000 3713.00000 3742.99030 0.00027
7.00000 3740.00000 3738.85056 0.00027
7.01000 3671.00000 3734.79449 0.00027
7.02000 3806.00000 3730.81132 0.00026
7.03000 3747.00000 3726.89081 0.00027
7.04000 3743.00000 3723.02099 0.00027
7.05000 3768.00000 3719.18765 0.00027
7.06000 3609.00000 3715.37670 0.00028
7.07000 3714.00000 3711.57572 0.00027
7.08000 3711.00000 3707.77287 0.00027
7.09000 3716.00000 3703.95294 0.00027
7.10000 3696.00000 3700.09638 0.00027
7.11000 3629.00000 3696.17968 0.00028
7.12000 3701.00000 3692.17827 0.00027
7.13000 3682.00000 3688.06204 0.00027
7.14000 3754.00000 3683.78566 0.00027
7.15000 3659.00000 3679.28532 0.00027
7.16000 3776.00000 3674.47383 0.00026
7.17000 3681.00000 3669.20456 0.00027
7.18000 3661.00000 3663.19192 0.00027
7.19000 3737.00000 3655.67329 0.00027
7.20000 3625.00000 3645.06170 0.00028
7.21000 3764.00000 3634.72772 0.00027
7.22000 3692.00000 3633.94133 0.00027
7.23000 3709.00000 3633.99863 0.00027
7.24000 3677.00000 3634.05033 0.00027
7.25000 3671.00000 3634.09636 0.00027
7.25999 3690.00000 3634.13666 0.00027
7.27000 3725.00000 3634.17130 0.00027
7.27999 3634.00000 3634.20009 0.00028
7.29000 3507.00000 3634.22311 0.00029
7.29999 3579.00000 3634.24022 0.00028
7.31000 3574.00000 3634.25146 0.00028
7.31999 3563.00000 3634.25674 0.00028
7.33000 3670.00000 3634.25604 0.00027
7.33999 3741.00000 3634.24933 0.00027
7.35000 3669.00000 3634.23654 0.00027
7.35999 3660.00000 3634.21769 0.00027
7.37000 3547.00000 3634.19265 0.00028
7.37999 3526.00000 3634.16151 0.00028
7.39000 3631.00000 3634.12408 0.00028
7.39999 3619.00000 3634.08050 0.00028
7.41000 3656.00000 3634.03055 0.00027
7.41999 3702.00000 3633.97440 0.00027
7.43000 3635.00000 3633.91179 0.00028
7.43999 3569.00000 3633.84293 0.00028
7.45000 3604.00000 3633.76751 0.00028
7.45999 3643.00000 3633.68582 0.00027
7.47000 3614.00000 3633.59748 0.00028
7.47999 3541.00000 3633.50282 0.00028
7.49000 3675.00000 3633.40143 0.00027
7.49999 3565.00000 3633.29369 0.00028
7.50999 3641.00000 3633.17925 0.00027
7.51999 3647.00000 3633.05818 0.00027
7.52999 3674.00000 3632.93047 0.00027
7.53999 3607.00000 3632.79608 0.00028
7.54999 3669.00000 3632.65499 0.00027
7.55999 3669.00000 3632.50717 0.00027
7.56999 3641.00000 3632.35259 0.00027
7.57999 3648.00000 3632.19122 0.00027
7.58999 3609.00000 3632.02305 0.00028
7.59999 3617.00000 3631.84805 0.00028
7.60999 3674.00000 3631.66619 0.00027
7.61999 3653.00000 3631.47745 0.00027
7.62999 3643.00000 3631.28181 0.00027
7.63999 3672.00000 3631.07924 0.00027
7.64999 3703.00000 3630.86973 0.00027
7.65999 3589.00000 3630.65325 0.00028
7.66999 3632.00000 3630.42977 0.00028
7.67999 3579.00000 3630.19929 0.00028
7.68999 3568.00000 3629.96179 0.00028
7.69999 3685.00000 3629.71723 0.00027
7.70999 3536.00000 3629.46560 0.00028
7.71999 3613.00000 3629.20689 0.00028
7.72999 3653.00000 3628.94108 0.00027
7.73999 3605.00000 3628.66814 0.00028
7.74999 3702.00000 3628.38807 0.00027
7.75999 3660.00000 3628.10085 0.00027
7.76999 3596.00000 3627.80646 0.00028
7.77999 3590.00000 3627.50488 0.00028
7.78999 3670.00000 3627.19610 0.00027
7.79999 3574.00000 3626.88011 0.00028
7.80999 3587.00000 3626.55689 0.00028
7.81999 3512.00000 3626.22644 0.00028
7.82999 3595.00000 3625.88873 0.00028
7.83999 3642.00000 3625.54375 0.00027
7.84999 3608.00000 3625.19150 0.00028
7.85999 3620.00000 3624.83196 0.00028
7.86999 3483.00000 3624.46512 0.00029
7.87999 3598.00000 3624.09097 0.00028
7.88999 3616.00000 3623.70951 0.00028
7.89999 3620.00000 3623.32071 0.00028
7.90999 3551.00000 3622.92458 0.00028
7.91999 3581.00000 3622.52110 0.00028
7.92999 3639.00000 3622.11027 0.00027
7.93999 3610.00000 3621.69208 0.00028
7.94999 3633.00000 3621.26653 0.00028
7.95999 3561.00000 3620.83360 0.00028
7.96999 3567.00000 3620.39329 0.00028
7.97999 3502.00000 3619.94559 0.00029
7.98999 3501.00000 3619.49050 0.00029
7.99999 3660.00000 3619.02802 0.00027
8.00999 3562.00000 3618.55815 0.00028
8.01999 3536.00000 3618.08086 0.00028
8.02999 3595.00000 3617.59618 0.00028
8.03999 3446.00000 3617.10408 0.00029
8.04999 3529.00000 3616.60458 0.00028
8.05999 3552.00000 3616.09766 0.00028
8.06999 3706.00000 3615.58333 0.00027
8.07999 3548.00000 3615.06159 0.00028
8.08999 3551.00000 3614.53243 0.00028
8.09999 3434.00000 3613.99585 0.00029
8.10999 3489.00000 3613.45187 0.00029
8.11999 3495.00000 3612.90047 0.00029
8.12999 3511.00000 3612.34165 0.00028
8.13999 3490.00000 3611.77543 0.00029
8.14999 3554.00000 3611.20180 0.00028
8.15999 3619.00000 3610.62077 0.00028
8.16999 3443.00000 3610.03233 0.00029
8.17999 3447.00000 3609.43649 0.00029
8.18999 3555.00000 3608.83326 0.00028
8.19999 3528.00000 3608.22264 0.00028
8.20999 3456.00000 3607.60464 0.00029
8.21999 3557.00000 3606.97926 0.00028
8.22999 3523.00000 3606.34650 0.00028
8.23999 3460.00000 3605.70637 0.00029
8.24999 3480.00000 3605.05888 0.00029
8.25999 3503.00000 3604.40404 0.00029
8.26999 3586.00000 3603.74185 0.00028
8.27999 3457.00000 3603.07232 0.00029
8.28999 3523.00000 3602.39547 0.00028
8.29999 3524.00000 3601.71128 0.00028
8.30999 3385.00000 3601.01979 0.00030
8.31999 3433.00000 3600.32099 0.00029
8.32999 3464.00000 3599.61489 0.00029
8.33999 3563.00000 3598.90151 0.00028
8.34999 3560.00000 3598.18086 0.00028
8.35999 3525.00000 3597.45295 0.00028
8.36999 3455.00000 3596.71778 0.00029
8.37999 3492.00000 3595.97538 0.00029
8.38999 3515.00000 3595.22574 0.00028
8.39999 3566.00000 3594.46890 0.00028
8.40999 3592.00000 3593.70485 0.00028
8.41999 3560.00000 3592.93361 0.00028
8.42999 3594.00000 3592.15519 0.00028
8.43999 3546.00000 3591.36962 0.00028
8.44999 3459.00000 3590.57690 0.00029
8.45999 3509.00000 3589.77705 0.00028
8.46999 3456.00000 3588.97008 0.00029
8.47999 3551.00000 3588.15601 0.00028
8.48999 3504.00000 3587.33486 0.00029
8.49999 3504.00000 3586.50664 0.00029
8.50999 3429.00000 3585.67136 0.00029
8.51999 3502.00000 3584.82905 0.00029
8.52999 3493.00000 3583.97972 0.00029
8.53999 3458.00000 3583.12340 0.00029
8.54999 3576.00000 3582.26009 0.00028
8.55999 3550.00000 3581.38981 0.00028
8.56999 3586.00000 3580.51260 0.00028
8.57999 3485.00000 3579.62845 0.00029
8.58999 3490.00000 3578.73740 0.00029
8.59999 3415.00000 3577.83947 0.00029
8.60999 3489.00000 3576.93466 0.00029
8.61999 3609.00000 3576.02302 0.00028
8.62999 3429.00000 3575.10454 0.00029
8.63999 3500.00000 3574.17926 0.00029
8.64999 3457.00000 3573.24720 0.00029
8.65999 3481.00000 3572.30838 0.00029
8.66999 3485.00000 3571.36282 0.00029
8.67999 3471.00000 3570.41054 0.00029
8.68999 3544.00000 3569.45157 0.00028
8.69999 3570.00000 3568.48593 0.00028
8.70999 3465.00000 3567.51365 0.00029
8.71999 3421.00000 3566.53473 0.00029
8.72999 3479.00000 3565.54922 0.00029
8.73999 3495.00000 3564.55714 0.00029
8.74999 3533.00000 3563.55850 0.00028
8.75999 3455.00000 3562.55333 0.00029
8.76999 3378.00000 3561.54167 0.00030
8.77999 3468.00000 3560.52353 0.00029
8.78999 3411.00000 3559.49894 0.00029
8.79999 3389.00000 3558.46793 0.00030
8.80999 3516.00000 3557.43052 0.00028
8.81999 3458.00000 3556.38674 0.00029
8.82999 3492.00000 3555.33662 0.00029
8.83999 3542.00000 3554.28018 0.00028
8.84999 3512.00000 3553.21746 0.00028
8.85999 3436.00000 3552.14847 0.00029
8.86999 3459.00000 3551.07325 0.00029
8.87999 3508.00000 3549.99182 0.00029
8.88999 3350.00000 3548.90422 0.00030
8.89999 3483.00000 3547.81048 0.00029
8.90999 3518.00000 3546.71061 0.00028
8.91999 3489.00000 3545.60466 0.00029
8.92999 3438.00000 3544.49265 0.00029
8.93999 3432.00000 3543.37461 0.00029
8.94999 3481.00000 3542.25057 0.00029
8.95999 3416.00000 3541.12056 0.00029
8.96999 3492.00000 3539.98462 0.00029
8.97999 3464.00000 3538.84276 0.00029
8.98999 3519.00000 3537.69504 0.00028
8.99999 3453.00000 3536.54147 0.00029
9.00999 3515.00000 3535.38209 0.00028
9.01999 3488.00000 3534.21693 0.00029
9.02999 3429.00000 3533.04602 0.00029
9.03999 3459.00000 3531.86939 0.00029
9.04999 3511.00000 3530.68708 0.00028
9.05999 3515.00000 3529.49912 0.00028
9.06999 3352.00000 3528.30555 0.00030
9.07999 3511.00000 3527.10639 0.00028
9.08999 3414.00000 3525.90168 0.00029
9.09999 3387.00000 3524.69146 0.00030
9.10999 3385.00000 3523.47575 0.00030
9.11999 3395.00000 3522.25459 0.00029
9.12999 3510.00000 3521.02802 0.00028
9.13999 3463.00000 3519.79608 0.00029
9.14999 3492.00000 3518.55879 0.00029
9.15999 3507.00000 3517.31618 0.00029
9.16999 3404.00000 3516.06831 0.00029
9.17999 3533.00000 3514.81520 0.00028
9.18999 3407.00000 3513.55688 0.00029
9.19999 3444.00000 3512.29340 0.00029
9.20999 3414.00000 3511.02479 0.00029
9.21999 3470.00000 3509.75108 0.00029
9.22999 3456.00000 3508.47232 0.00029
9.23999 3459.00000 3507.18853 0.00029
9.24999 3473.00000 3505.89976 0.00029
9.25999 3444.00000 3504.60604 0.00029
9.26999 3456.00000 3503.30741 0.00029
9.27999 3448.00000 3502.00391 0.00029
9.28999 3516.00000 3500.69558 0.00028
9.29999 3393.00000 3499.38244 0.00029
9.30999 3395.00000 3498.06455 0.00029
9.31999 3384.00000 3496.74194 0.00030
9.32999 3438.00000 3495.41464 0.00029
9.33999 3467.00000 3494.08270 0.00029
9.34999 3426.00000 3492.74615 0.00029
9.35999 3441.00000 3491.40503 0.00029
9.36999 3380.00000 3490.05939 0.00030
9.37999 3449.00000 3488.70926 0.00029
9.38999 3385.00000 3487.35467 0.00030
9.39999 3429.00000 3485.99568 0.00029
9.40999 3447.00000 3484.63231 0.00029
9.41999 3359.00000 3483.26462 0.00030
9.42999 3461.00000 3481.89263 0.00029
9.43999 3479.00000 3480.51639 0.00029
9.44999 3506.00000 3479.13593 0.00029
9.45999 3512.00000 3477.75131 0.00028
9.46999 3516.00000 3476.36256 0.00028
9.47999 3528.00000 3474.96971 0.00028
9.48999 3501.00000 3473.57282 0.00029
9.49999 3514.00000 3472.17192 0.00028
9.50999 3415.00000 3470.76705 0.00029
9.51999 3464.00000 3469.35825 0.00029
9.52999 3466.00000 3467.94556 0.00029
9.53999 3351.00000 3466.52904 0.00030
9.54999 3490.00000 3465.10871 0.00029
9.55999 3401.00000 3463.68461 0.00029
9.56999 3411.00000 3462.25680 0.00029
9.57999 3381.00000 3460.82531 0.00030
9.58999 3337.00000 3459.39019 0.00030
9.59999 3307.00000 3457.95147 0.00030
9.60999 3352.00000 3456.50920 0.00030
9.61999 3423.00000 3455.06342 0.00029
9.62999 3368.00000 3453.61417 0.00030
9.63999 3392.00000 3452.16150 0.00029
9.64999 3455.00000 3450.70544 0.00029
9.65999 3437.00000 3449.24604 0.00029
9.66999 3262.00000 3447.78335 0.00031
9.67999 3457.00000 3446.31741 0.00029
9.68999 3339.00000 3444.84825 0.00030
9.69999 3315.00000 3443.37592 0.00030
9.70999 3384.00000 3441.90047 0.00030
9.71999 3430.00000 3440.42194 0.00029
9.72999 3454.00000 3438.94037 0.00029
9.73999 3354.00000 3437.45580 0.00030
9.74999 3413.00000 3435.96828 0.00029
9.75999 3457.00000 3434.47785 0.00029
9.76999 3423.00000 3432.98456 0.00029
9.77999 3428.00000 3431.48845 0.00029
9.78999 3377.00000 3429.98956 0.00030
9.79999 3364.00000 3428.48793 0.00030
9.80999 3437.00000 3426.98362 0.00029
9.81999 3370.00000 3425.47666 0.00030
9.82999 3390.00000 3423.96709 0.00029
9.83999 3389.00000 3422.45497 0.00030
9.84999 3463.00000 3420.94034 0.00029
9.85999 3437.00000 3419.42323 0.00029
9.86999 3371.00000 3417.90370 0.00030
9.87999 3482.00000 3416.38179 0.00029
9.88999 3421.00000 3414.85754 0.00029
9.89999 3401.00000 3413.33100 0.00029
9.90999 3346.00000 3411.80221 0.00030
9.91999 3467.00000 3410.27122 0.00029
9.92999 3354.00000 3408.73807 0.00030
9.93999 3465.00000 3407.20280 0.00029
9.94999 3366.00000 3405.66546 0.00030
9.95999 3431.00000 3404.12610 0.00029
9.96999 3287.00000 3402.58476 0.00030
9.97999 3342.00000 3401.04148 0.00030
9.98999 3402.00000 3399.49631 0.00029
9.99999 3363.00000 3397.94929 0.00030
10.00999 3422.00000 3396.40047 0.00029
10.01999 3364.00000 3394.84989 0.00030
10.02999 3376.00000 3393.29761 0.00030
10.03999 3499.00000 3391.74365 0.00029
10.04999 3410.00000 3390.18807 0.00029
10.05999 3316.00000 3388.63092 0.00030
10.06999 3341.00000 3387.07223 0.00030
10.07999 3390.00000 3385.51205 0.00029
10.08999 3263.00000 3383.95043 0.00031
10.09999 3293.00000 3382.38742 0.00030
10.10999 3349.00000 3380.82305 0.00030
10.11999 3400.00000 3379.25737 0.00029
10.12999 3308.00000 3377.69043 0.00030
10.13999 3363.00000 3376.12227 0.00030
10.14999 3328.00000 3374.55294 0.00030
10.15999 3395.00000 3372.98248 0.00029
10.16999 3430.00000 3371.41094 0.00029
10.17999 3340.00000 3369.83836 0.00030
10.18999 3332.00000 3368.26478 0.00030
10.19999 3349.00000 3366.69026 0.00030
10.20999 3283.00000 3365.11484 0.00030
10.21999 3322.00000 3363.53855 0.00030
10.22999 3462.00000 3361.96146 0.00029
10.23999 3476.00000 3360.38359 0.00029
10.24999 3342.00000 3358.80501 0.00030
10.25999 3265.00000 3357.22574 0.00031
10.26999 3325.00000 3355.64584 0.00030
10.27999 3264.00000 3354.06536 0.00031
10.28999 3306.00000 3352.48433 0.00030
10.29999 3243.00000 3350.90280 0.00031
10.30999 3309.00000 3349.32081 0.00030
10.31999 3265.00000 3347.73842 0.00031
10.32999 3326.00000 3346.15567 0.00030
10.33999 3229.00000 3344.57265 0.00031
10.34999 3288.00000 3342.98939 0.00030
10.35999 3343.00000 3341.40596 0.00030
10.36999 3413.00000 3339.82238 0.00029
10.37999 3262.00000 3338.23872 0.00031
10.38999 3225.00000 3336.65501 0.00031
10.39999 3332.00000 3335.07130 0.00030
10.40999 3278.00000 3333.48765 0.00031
10.41999 3403.00000 3331.90414 0.00029
10.42999 3361.00000 3330.32082 0.00030
10.43999 3288.00000 3328.73774 0.00030
10.44999 3339.00000 3327.15495 0.00030
10.45999 3309.00000 3325.57250 0.00030
10.46999 3423.00000 3323.99043 0.00029
10.47999 3287.00000 3322.40880 0.00030
10.48999 3297.00000 3320.82768 0.00030
10.49999 3324.00000 3319.24715 0.00030
10.50999 3401.00000 3317.66725 0.00029
10.51999 3320.00000 3316.08805 0.00030
10.52999 3419.00000 3314.50960 0.00029
10.53999 3303.00000 3312.93194 0.00030
10.54999 3367.00000 3311.35513 0.00030
10.55999 3366.00000 3309.77925 0.00030
10.56999 3318.00000 3308.20438 0.00030
10.57999 3360.00000 3306.63058 0.00030
10.58999 3334.00000 3305.05792 0.00030
10.59999 3382.00000 3303.48645 0.00030
10.60999 3295.00000 3301.91623 0.00030
10.61999 3323.00000 3300.34732 0.00030
10.62999 3331.00000 3298.77982 0.00030
10.63999 3230.00000 3297.21382 0.00031
10.64999 3287.00000 3295.64939 0.00030
10.65999 3305.00000 3294.08659 0.00030
10.66999 3409.00000 3292.52549 0.00029
10.67999 3259.00000 3290.96617 0.00031
10.68999 3383.00000 3289.40871 0.00030
10.69999 3336.00000 3287.85325 0.00030
10.70999 3437.00000 3286.29986 0.00029
10.71999 3262.00000 3284.74863 0.00031
10.72999 3277.00000 3283.19963 0.00031
10.73999 3331.00000 3281.65296 0.00030
10.74999 3348.00000 3280.10875 0.00030
10.75999 3359.00000 3278.56715 0.00030
10.76999 3358.00000 3277.02825 0.00030
10.77999 3370.00000 3275.49215 0.00030
10.78999 3319.00000 3273.95898 0.00030
10.79999 3288.00000 3272.42888 0.00030
10.80999 3259.00000 3270.90203 0.00031
10.81999 3344.00000 3269.37861 0.00030
10.82999 3281.00000 3267.85873 0.00030
10.83999 3277.00000 3266.34258 0.00031
10.84999 3299.00000 3264.83035 0.00030
10.85999 3366.00000 3263.32232 0.00030
10.86999 3312.00000 3261.81871 0.00030
10.87999 3329.00000 3260.31972 0.00030
10.88999 3291.00000 3258.82565 0.00030
10.89999 3322.00000 3257.33698 0.00030
10.90999 3321.00000 3255.85416 0.00030
10.91999 3320.00000 3254.37755 0.00030
10.92999 3383.00000 3252.90764 0.00030
10.93999 3231.00000 3251.44507 0.00031
10.94999 3261.00000 3249.99047 0.00031
10.95999 3382.00000 3248.54458 0.00030
10.96999 3345.00000 3247.10837 0.00030
10.97999 3323.00000 3245.68305 0.00030
10.98999 3294.00000 3244.26990 0.00030
10.99999 3318.00000 3242.87058 0.00030
11.00999 3317.00000 3241.48744 0.00030
11.01999 3338.00000 3240.12314 0.00030
11.02999 3312.00000 3238.78163 0.00030
11.03999 3242.00000 3237.46925 0.00031
11.04999 3258.00000 3236.19729 0.00031
11.05999 3293.00000 3234.99283 0.00030
11.06999 3328.00000 3233.93549 0.00030
11.07999 3288.00000 3232.96038 0.00030
11.08999 3303.00000 3231.56003 0.00030
11.09999 3262.00000 3230.12683 0.00031
11.10999 3206.00000 3228.69756 0.00031
11.11999 3335.00000 3227.27229 0.00030
11.12999 3297.00000 3225.85110 0.00030
11.13999 3310.00000 3224.43405 0.00030
11.14999 3326.00000 3223.02121 0.00030
11.15999 3234.00000 3221.61265 0.00031
11.16999 3244.00000 3220.20845 0.00031
11.17999 3290.00000 3218.80868 0.00030
11.18999 3370.00000 3217.41341 0.00030
11.19999 3277.00000 3216.02273 0.00031
11.20999 3264.00000 3214.63671 0.00031
11.21999 3264.00000 3213.25542 0.00031
11.22999 3357.00000 3211.87896 0.00030
11.23999 3409.00000 3210.50740 0.00029
11.24999 3343.00000 3209.14083 0.00030
11.25999 3247.00000 3207.77933 0.00031
11.26999 3311.00000 3206.42300 0.00030
11.27999 3271.00000 3205.07192 0.00031
11.28999 3270.00000 3203.72618 0.00031
11.29999 3169.00000 3202.38589 0.00032
11.30999 3272.00000 3201.05113 0.00031
11.31999 3278.00000 3199.72201 0.00031
11.32999 3312.00000 3198.39864 0.00030
11.33999 3231.00000 3197.08111 0.00031
11.34999 3326.00000 3195.76953 0.00030
11.35999 3270.00000 3194.46403 0.00031
11.36999 3211.00000 3193.16470 0.00031
11.37999 3353.00000 3191.87168 0.00030
11.38999 3337.00000 3190.58508 0.00030
11.39999 3284.00000 3189.30503 0.00030
11.40999 3277.00000 3188.03167 0.00031
11.41999 3278.00000 3186.76512 0.00031
11.42999 3295.00000 3185.50554 0.00030
11.43999 3222.00000 3184.25307 0.00031
11.44999 3259.00000 3183.00785 0.00031
11.45999 3228.00000 3181.77005 0.00031
11.46999 3226.00000 3180.53983 0.00031
11.47999 3263.00000 3179.31737 0.00031
11.48999 3289.00000 3178.10283 0.00030
11.49999 3308.00000 3176.89642 0.00030
11.50999 3323.00000 3175.69832 0.00030
11.51999 3332.00000 3174.50875 0.00030
11.52999 3240.00000 3173.32790 0.00031
11.53999 3294.00000 3172.15602 0.00030
11.54999 3316.00000 3170.99333 0.00030
11.55999 3342.00000 3169.84008 0.00030
11.56999 3234.00000 3168.69654 0.00031
11.57999 3240.00000 3167.56299 0.00031
11.58999 3263.00000 3166.43971 0.00031
11.59999 3262.00000 3165.32702 0.00031
11.60999 3265.00000 3164.22525 0.00031
11.61999 3270.00000 3163.13474 0.00031
11.62999 3283.00000 3162.05588 0.00030
11.63999 3313.00000 3160.98907 0.00030
11.64999 3276.00000 3159.93474 0.00031
11.65999 3350.00000 3158.89336 0.00030
11.66999 3270.00000 3157.86546 0.00031
11.67999 3212.00000 3156.85161 0.00031
11.68999 3259.00000 3155.85245 0.00031
11.69999 3203.00000 3154.86870 0.00031
11.70999 3161.00000 3153.90118 0.00032
11.71999 3162.00000 3152.95087 0.00032
11.72999 3238.00000 3152.01887 0.00031
11.73999 3263.00000 3151.10650 0.00031
11.74999 3256.00000 3150.21531 0.00031
11.75999 3311.00000 3149.34715 0.00030
11.76999 3180.00000 3148.50422 0.00031
11.77999 3226.00000 3147.68908 0.00031
11.78999 3180.00000 3146.90480 0.00031
11.79999 3189.00000 3146.15491 0.00031
11.80999 3327.00000 3145.44353 0.00030
11.81999 3198.00000 3144.77538 0.00031
11.82999 3198.00000 3144.15579 0.00031
11.83999 3130.00000 3143.59075 0.00032
11.84999 3250.00000 3143.08687 0.00031
11.85999 3307.00000 3142.65135 0.00030
11.86999 3215.00000 3142.29195 0.00031
11.87999 3294.00000 3142.01684 0.00030
11.88999 3183.00000 3141.83452 0.00031
11.89999 3340.00000 3141.75368 0.00030
11.90999 3201.00000 3141.78304 0.00031
11.91999 3215.00000 3141.93127 0.00031
11.92999 3267.00000 3142.20693 0.00031
11.93999 3332.00000 3142.61851 0.00030
11.94999 3293.00000 3143.17448 0.00030
11.95999 3269.00000 3143.88335 0.00031
11.96999 3262.00000 3144.75374 0.00031
11.97999 3286.00000 3145.79438 0.00030
11.98999 3211.00000 3147.01416 0.00031
11.99999 3233.00000 3148.42211 0.00031
12.00999 3305.00000 3150.02744 0.00030
12.01999 3301.00000 3151.83966 0.00030
12.02999 3248.00000 3153.86866 0.00031
12.03999 3248.00000 3156.12485 0.00031
12.04999 3269.00000 3158.61921 0.00031
12.05999 3291.00000 3161.36337 0.00030
12.06999 3238.00000 3164.36959 0.00031
12.07999 3263.00000 3167.65079 0.00031
12.08999 3198.00000 3171.22066 0.00031
12.09999 3202.00000 3175.09375 0.00031
12.10999 3227.00000 3179.28558 0.00031
12.11999 3211.00000 3183.81278 0.00031
12.12999 3173.00000 3188.69317 0.00032
12.13999 3251.00000 3193.94582 0.00031
12.14999 3321.00000 3199.59115 0.00030
12.15999 3313.00000 3205.65106 0.00030
12.16999 3329.00000 3212.14907 0.00030
12.17999 3375.00000 3219.11057 0.00030
12.18999 3299.00000 3226.56303 0.00030
12.19999 3395.00000 3234.53618 0.00029
12.20999 3260.00000 3243.06228 0.00031
12.21999 3318.00000 3252.17633 0.00030
12.22999 3309.00000 3261.91648 0.00030
12.23999 3301.00000 3272.32440 0.00030
12.24999 3434.00000 3283.44583 0.00029
12.25999 3448.00000 3295.33113 0.00029
12.26999 3325.00000 3308.03595 0.00030
12.27999 3257.00000 3321.62202 0.00031
12.28999 3345.00000 3336.15812 0.00030
12.29999 3411.00000 3351.72129 0.00029
12.30999 3334.00000 3368.39831 0.00030
12.31999 3317.00000 3386.28743 0.00030
12.32999 3466.00000 3405.50051 0.00029
12.33999 3461.00000 3426.16549 0.00029
12.34999 3424.00000 3448.42940 0.00029
12.35999 3425.00000 3472.46191 0.00029
12.36999 3530.00000 3498.45929 0.00028
12.37999 3496.00000 3526.64881 0.00029
12.38999 3604.00000 3557.29331 0.00028
12.39999 3567.00000 3590.69554 0.00028
12.40999 3710.00000 3627.20172 0.00027
12.41999 3762.00000 3667.20334 0.00027
12.42999 3844.00000 3711.13595 0.00026
12.43999 3845.00000 3759.47331 0.00026
12.44999 3781.00000 3812.71507 0.00026
12.45999 3779.00000 3871.36600 0.00026
12.46999 3863.00000 3935.90493 0.00026
12.47999 3925.00000 4006.74209 0.00025
12.48999 4014.00000 4084.16438 0.00025
12.49999 4161.00000 4168.26958 0.00024
12.50999 4258.00000 4258.89186 0.00023
12.51999 4337.00000 4355.52314 0.00023
12.52999 4407.00000 4457.23645 0.00023
12.53999 4455.00000 4562.61908 0.00022
12.54999 4598.00000 4669.72375 0.00022
12.55999 4687.00000 4776.04606 0.00021
12.56999 4750.00000 4878.53472 0.00021
12.57999 4785.00000 4973.63982 0.00021
12.58999 4804.00000 5057.40398 0.00021
12.59999 4892.00000 5125.60375 0.00020
12.60999 4982.00000 5173.95576 0.00020
12.61999 4883.00000 5198.41085 0.00020
12.62999 4883.00000 5195.55882 0.00020
12.63999 4785.00000 5163.13861 0.00021
12.64999 4799.00000 5100.57679 0.00021
12.65999 4793.00000 5009.38558 0.00021
12.66999 4768.00000 4893.21391 0.00021
12.67999 4767.00000 4757.44339 0.00021
12.68999 4620.00000 4608.42887 0.00022
12.69999 4436.00000 4452.64840 0.00023
12.70999 4379.00000 4296.02190 0.00023
12.71999 4134.00000 4143.51379 0.00024
12.72999 4005.00000 3998.98910 0.00025
12.73999 4097.00000 3865.23013 0.00024
12.74999 3822.00000 3744.03102 0.00026
12.75999 3688.00000 3636.32288 0.00027
12.76999 3667.00000 3542.30999 0.00027
12.77999 3617.00000 3461.61061 0.00028
12.78999 3504.00000 3393.39843 0.00029
12.79999 3470.00000 3336.53982 0.00029
12.80999 3395.00000 3289.72078 0.00029
12.81999 3239.00000 3251.55735 0.00031
12.82999 3295.00000 3220.68530 0.00030
12.83999 3230.00000 3195.82661 0.00031
12.84999 3201.00000 3175.83332 0.00031
12.85999 3272.00000 3159.71083 0.00031
12.86999 3218.00000 3146.62426 0.00031
12.87999 3267.00000 3135.89246 0.00031
12.88999 3295.00000 3126.97351 0.00030
12.89999 3147.00000 3119.44586 0.00032
12.90999 3206.00000 3112.98784 0.00031
12.91999 3228.00000 3107.35791 0.00031
12.92999 3278.00000 3102.37684 0.00031
12.93999 3201.00000 3097.91260 0.00031
12.94999 3263.00000 3093.86810 0.00031
12.95999 3133.00000 3090.17161 0.00032
12.96999 3177.00000 3086.76954 0.00031
12.97999 3198.00000 3083.62116 0.00031
12.98999 3203.00000 3080.69481 0.00031
12.99999 3053.00000 3077.96530 0.00033
13.00999 3177.00000 3075.41204 0.00031
13.01999 3237.00000 3073.01783 0.00031
13.02999 3189.00000 3070.76802 0.00031
13.03999 3255.00000 3068.64994 0.00031
13.04999 3170.00000 3066.65248 0.00032
13.05999 3190.00000 3064.76583 0.00031
13.06999 3142.00000 3062.98124 0.00032
13.07999 3194.00000 3061.29090 0.00031
13.08999 3151.00000 3059.68780 0.00032
13.09999 3158.00000 3058.16562 0.00032
13.10999 3109.00000 3056.71865 0.00032
13.11999 3176.00000 3055.34172 0.00031
13.12999 3229.00000 3054.03015 0.00031
13.13999 3204.00000 3052.77969 0.00031
13.14999 3129.00000 3051.58645 0.00032
13.15999 3233.00000 3050.44690 0.00031
13.16999 3202.00000 3049.35782 0.00031
13.17999 3194.00000 3048.31624 0.00031
13.18999 3031.00000 3047.31947 0.00033
13.19999 3133.00000 3046.36503 0.00032
13.20999 3131.00000 3045.45062 0.00032
13.21999 3119.00000 3044.57416 0.00032
13.22999 3165.00000 3043.73370 0.00032
13.23999 3178.00000 3042.92746 0.00031
13.24999 3250.00000 3042.15379 0.00031
13.25999 3237.00000 3041.41117 0.00031
13.26999 3203.00000 3040.69818 0.00031
13.27999 3159.00000 3040.01351 0.00032
13.28999 3121.00000 3039.35596 0.00032
13.29999 3253.00000 3038.72438 0.00031
13.30999 3160.00000 3038.11773 0.00032
13.31999 3274.00000 3037.53502 0.00031
13.32999 3105.00000 3036.97535 0.00032
13.33999 3187.00000 3036.43786 0.00031
13.34999 3100.00000 3035.92176 0.00032
13.35999 3157.00000 3035.42630 0.00032
13.36999 3205.00000 3034.95079 0.00031
13.37999 3271.00000 3034.49458 0.00031
13.38999 3153.00000 3034.05705 0.00032
13.39999 3172.00000 3033.63763 0.00032
13.40999 3268.00000 3033.23578 0.00031
13.41999 3137.00000 3032.85099 0.00032
13.42999 3184.00000 3032.48279 0.00031
13.43999 3175.00000 3032.13074 0.00031
13.44999 3152.00000 3031.79439 0.00032
13.45999 3223.00000 3031.47337 0.00031
13.46999 3156.00000 3031.16728 0.00032
13.47999 2974.00000 3030.87578 0.00034
13.48999 3128.00000 3030.59853 0.00032
13.49999 3218.00000 3030.33520 0.00031
13.50999 3255.00000 3030.08546 0.00031
13.51999 3037.00000 3029.84902 0.00033
13.52999 3115.00000 3029.62561 0.00032
13.53999 3160.00000 3029.41497 0.00032
13.54999 3119.00000 3029.21686 0.00032
13.55999 3186.00000 3029.03106 0.00031
13.56999 3113.00000 3028.85732 0.00032
13.57999 3036.00000 3028.69545 0.00033
13.58999 3071.00000 3028.54520 0.00033
13.59999 3070.00000 3028.40638 0.00033
13.60999 3096.00000 3028.27881 0.00032
13.61999 3110.00000 3028.16231 0.00032
13.62999 3129.00000 3028.05671 0.00032
13.63999 3178.00000 3027.96186 0.00031
13.64999 3155.00000 3027.87761 0.00032
13.65999 3012.00000 3027.80378 0.00033
13.66999 3128.00000 3027.74021 0.00032
13.67999 3188.00000 3027.68676 0.00031
13.68999 3148.00000 3027.64331 0.00032
13.69999 3229.00000 3027.60972 0.00031
13.70999 3068.00000 3027.58588 0.00033
13.71999 3025.00000 3027.57167 0.00033
13.72999 3112.00000 3027.56696 0.00032
13.73999 3075.00000 3027.57162 0.00033
13.74999 3177.00000 3027.58552 0.00031
13.75999 3098.00000 3027.60857 0.00032
13.76999 3129.00000 3027.64067 0.00032
13.77999 3005.00000 3027.68172 0.00033
13.78999 3087.00000 3027.73164 0.00032
13.79999 3064.00000 3027.79029 0.00033
13.80999 3174.00000 3027.85755 0.00032
13.81999 3090.00000 3027.93334 0.00032
13.82999 3120.00000 3028.01757 0.00032
13.83999 3183.00000 3028.11015 0.00031
13.84999 3181.00000 3028.21101 0.00031
13.85999 3120.00000 3028.32003 0.00032
13.86999 3091.00000 3028.43709 0.00032
13.87999 3127.00000 3028.56210 0.00032
13.88999 3149.00000 3028.69497 0.00032
13.89999 3156.00000 3028.83563 0.00032
13.90999 3167.00000 3028.98399 0.00032
13.91999 3174.00000 3029.13993 0.00032
13.92999 3090.00000 3029.30330 0.00032
13.93999 3141.00000 3029.47404 0.00032
13.94999 3131.00000 3029.65204 0.00032
13.95999 3072.00000 3029.83721 0.00033
13.96999 3113.00000 3030.02943 0.00032
13.97999 3063.00000 3030.22854 0.00033
13.98999 3064.00000 3030.43440 0.00033
13.99999 3085.00000 3030.64691 0.00032
14.00999 3182.00000 3030.86595 0.00031
14.01999 3181.00000 3031.09135 0.00031
14.02999 3138.00000 3031.32289 0.00032
14.03999 3169.00000 3031.56040 0.00032
14.04999 3144.00000 3031.80372 0.00032
14.05999 3107.00000 3032.05261 0.00032
14.06999 3087.00000 3032.30669 0.00032
14.07999 3046.00000 3032.56558 0.00033
14.08999 3037.00000 3032.82900 0.00033
14.09999 3042.00000 3033.09656 0.00033
14.10999 3066.00000 3033.36775 0.00033
14.11999 3127.00000 3033.64205 0.00032
14.12999 3082.00000 3033.91887 0.00032
14.13999 3110.00000 3034.19741 0.00032
14.14999 3123.00000 3034.47663 0.00032
14.15999 3085.00000 3034.75548 0.00032
14.16999 3101.00000 3035.03254 0.00032
14.17999 3190.00000 3035.30576 0.00031
14.18999 3046.00000 3035.57285 0.00033
14.19999 3094.00000 3035.83028 0.00032
14.20999 3009.00000 3036.07227 0.00033
14.21999 3027.00000 3036.28831 0.00033
14.22999 3012.00000 3036.45255 0.00033
14.23999 3105.00000 3036.48794 0.00032
14.24999 3091.00000 3036.46440 0.00032
14.25999 3049.00000 3036.87799 0.00033
14.26999 3193.00000 3037.33741 0.00031
14.27999 3061.00000 3037.80313 0.00033
14.28999 3124.00000 3038.27516 0.00032
14.29999 3032.00000 3038.75346 0.00033
14.30999 3156.00000 3039.23802 0.00032
14.31999 3188.00000 3039.72883 0.00031
14.32999 3104.00000 3040.22586 0.00032
14.33999 3168.00000 3040.72910 0.00032
14.34999 3175.00000 3041.23854 0.00031
14.35999 3104.00000 3041.75416 0.00032
14.36999 3086.00000 3042.27593 0.00032
14.37999 3128.00000 3042.80384 0.00032
14.38999 3163.00000 3043.33788 0.00032
14.39999 3078.00000 3043.87802 0.00032
14.40999 3146.00000 3044.42425 0.00032
14.41999 3159.00000 3044.97656 0.00032
14.42999 3063.00000 3045.53491 0.00033
14.43999 3089.00000 3046.09930 0.00032
14.44999 3112.00000 3046.66970 0.00032
14.45999 3159.00000 3047.24610 0.00032
14.46999 2984.00000 3047.82848 0.00034
14.47999 3070.00000 3048.41682 0.00033
14.48999 3192.00000 3049.01110 0.00031
14.49999 3118.00000 3049.61131 0.00032
14.50999 3117.00000 3050.21741 0.00032
14.51999 3153.00000 3050.82941 0.00032
14.52999 3064.00000 3051.44726 0.00033
14.53999 3111.00000 3052.07096 0.00032
14.54999 3153.00000 3052.70049 0.00032
14.55999 3087.00000 3053.33582 0.00032
14.56999 3108.00000 3053.97695 0.00032
14.57999 3138.00000 3054.62383 0.00032
14.58999 3126.00000 3055.27647 0.00032
14.59999 3038.00000 3055.93483 0.00033
14.60999 3069.00000 3056.59890 0.00033
14.61999 3065.00000 3057.26865 0.00033
14.62999 3122.00000 3057.94408 0.00032
14.63999 3047.00000 3058.62514 0.00033
14.64999 3125.00000 3059.31184 0.00032
14.65999 3046.00000 3060.00413 0.00033
14.66999 3047.00000 3060.70201 0.00033
14.67999 3024.00000 3061.40546 0.00033
14.68999 3060.00000 3062.11444 0.00033
14.69999 3067.00000 3062.82895 0.00033
14.70999 3121.00000 3063.54895 0.00032
14.71999 3104.00000 3064.27444 0.00032
14.72999 3081.00000 3065.00538 0.00032
14.73999 3167.00000 3065.74175 0.00032
14.74999 3151.00000 3066.48354 0.00032
14.75999 3100.00000 3067.23072 0.00032
14.76999 3092.00000 3067.98327 0.00032
14.77999 3065.00000 3068.74117 0.00033
14.78999 3104.00000 3069.50439 0.00032
14.79999 3188.00000 3070.27292 0.00031
14.80999 3124.00000 3071.04673 0.00032
14.81999 3004.00000 3071.82580 0.00033
14.82999 3104.00000 3072.61010 0.00032
14.83999 3103.00000 3073.39963 0.00032
14.84999 3133.00000 3074.19434 0.00032
14.85999 3134.00000 3074.99422 0.00032
14.86999 3078.00000 3075.79925 0.00032
14.87999 3108.00000 3076.60940 0.00032
14.88999 3092.00000 3077.42465 0.00032
14.89999 2986.00000 3078.24498 0.00033
14.90999 3176.00000 3079.07036 0.00031
14.91999 3189.00000 3079.90077 0.00031
14.92999 3122.00000 3080.73620 0.00032
14.93999 3142.00000 3081.57660 0.00032
14.94999 3066.00000 3082.42197 0.00033
14.95999 3030.00000 3083.27227 0.00033
14.96999 3016.00000 3084.12749 0.00033
14.97999 3082.00000 3084.98759 0.00032
14.98999 3037.00000 3085.85257 0.00033
14.99999 3047.00000 3086.72238 0.00033
15.00999 3126.00000 3087.59701 0.00032
15.01999 3038.00000 3088.47644 0.00033
15.02999 3085.00000 3089.36063 0.00032
15.03999 3115.00000 3090.24957 0.00032
15.04999 3048.00000 3091.14323 0.00033
15.05999 3041.00000 3092.04159 0.00033
15.06999 3041.00000 3092.94462 0.00033
15.07999 3046.00000 3093.85229 0.00033
15.08999 3068.00000 3094.76459 0.00033
15.09999 2999.00000 3095.68149 0.00033
15.10999 2975.00000 3096.60296 0.00034
15.11999 3009.00000 3097.52898 0.00033
15.12999 3034.00000 3098.45952 0.00033
15.13999 3137.00000 3099.39456 0.00032
15.14999 2994.00000 3100.33407 0.00033
15.15999 3104.00000 3101.27803 0.00032
15.16999 3111.00000 3102.22641 0.00032
15.17999 3032.00000 3103.17918 0.00033
15.18999 3108.00000 3104.13633 0.00032
15.19999 3110.00000 3105.09783 0.00032
15.20999 3114.00000 3106.06365 0.00032
15.21999 3072.00000 3107.03376 0.00033
15.22999 3127.00000 3108.00814 0.00032
15.23999 3092.00000 3108.98676 0.00032
15.24999 3164.00000 3109.96960 0.00032
15.25999 3000.00000 3110.95663 0.00033
15.26999 2988.00000 3111.94783 0.00033
15.27999 3068.00000 3112.94317 0.00033
15.28999 3022.00000 3113.94262 0.00033
15.29999 3078.00000 3114.94615 0.00032
15.30999 3063.00000 3115.95375 0.00033
15.31999 3127.00000 3116.96539 0.00032
15.32999 3095.00000 3117.98103 0.00032
15.33999 3077.00000 3119.00065 0.00032
15.34999 3030.00000 3120.02423 0.00033
15.35999 3118.00000 3121.05173 0.00032
15.36999 3157.00000 3122.08314 0.00032
15.37999 3123.00000 3123.11843 0.00032
15.38999 3129.00000 3124.15756 0.00032
15.39999 3053.00000 3125.20051 0.00033
15.40999 3037.00000 3126.24726 0.00033
15.41999 3113.00000 3127.29778 0.00032
15.42999 3038.00000 3128.35204 0.00033
15.43999 3079.00000 3129.41001 0.00032
15.44999 3016.00000 3130.47167 0.00033
15.45999 3054.00000 3131.53699 0.00033
15.46999 2981.00000 3132.60594 0.00034
15.47999 3104.00000 3133.67850 0.00032
15.48999 3092.00000 3134.75463 0.00032
15.49999 3194.00000 3135.83432 0.00031
15.50999 3061.00000 3136.91753 0.00033
15.51999 3076.00000 3138.00423 0.00033
15.52999 3042.00000 3139.09440 0.00033
15.53999 3150.00000 3140.18802 0.00032
15.54999 3157.00000 3141.28504 0.00032
15.55999 3086.00000 3142.38546 0.00032
15.56999 3194.00000 3143.48922 0.00031
15.57999 3101.00000 3144.59632 0.00032
15.58999 3098.00000 3145.70673 0.00032
15.59999 3036.00000 3146.82040 0.00033
15.60999 3094.00000 3147.93733 0.00032
15.61999 3118.00000 3149.05747 0.00032
15.62999 3130.00000 3150.18080 0.00032
15.63999 3082.00000 3151.30729 0.00032
15.64999 3135.00000 3152.43692 0.00032
15.65999 2998.00000 3153.56966 0.00033
15.66999 3001.00000 3154.70547 0.00033
15.67999 3147.00000 3155.84433 0.00032
15.68999 3048.00000 3156.98622 0.00033
15.69999 3101.00000 3158.13110 0.00032
15.70999 3025.00000 3159.27894 0.00033
15.71999 3010.00000 3160.42972 0.00033
15.72999 3029.00000 3161.58341 0.00033
15.73999 3143.00000 3162.73998 0.00032
15.74999 3090.00000 3163.89940 0.00032
15.75999 3073.00000 3165.06165 0.00033
15.76999 3199.00000 3166.22668 0.00031
15.77999 3128.00000 3167.39449 0.00032
15.78999 3046.00000 3168.56503 0.00033
15.79999 3163.00000 3169.73828 0.00032
15.80999 3155.00000 3170.91421 0.00032
15.81999 3064.00000 3172.09280 0.00033
15.82999 3161.00000 3173.27400 0.00032
15.83999 3153.00000 3174.45780 0.00032
15.84999 3031.00000 3175.64417 0.00033
15.85999 3044.00000 3176.83307 0.00033
15.86999 3057.00000 3178.02448 0.00033
15.87999 2954.00000 3179.21837 0.00034
15.88999 3017.00000 3180.41471 0.00033
15.89999 3068.00000 3181.61346 0.00033
15.90999 3200.00000 3182.81462 0.00031
15.91999 3096.00000 3184.01813 0.00032
15.92999 3076.00000 3185.22398 0.00033
15.93999 3173.00000 3186.43213 0.00032
15.94999 3025.00000 3187.64256 0.00033
15.95999 3120.00000 3188.85524 0.00032
15.96999 3073.00000 3190.07013 0.00033
15.97999 3158.00000 3191.28721 0.00032
15.98999 3130.00000 3192.50645 0.00032
15.99999 3079.00000 3193.72783 0.00032
16.00999 3187.00000 3194.95130 0.00031
16.01999 3185.00000 3196.17685 0.00031
16.02999 3122.00000 3197.40443 0.00032
16.03999 3063.00000 3198.63404 0.00033
16.04999 3242.00000 3199.86562 0.00031
16.05999 3088.00000 3201.09916 0.00032
16.06999 3089.00000 3202.33463 0.00032
16.07999 3109.00000 3203.57200 0.00032
16.08999 3033.00000 3204.81123 0.00033
16.09999 3129.00000 3206.05230 0.00032
16.10999 3079.00000 3207.29517 0.00032
16.11999 3104.00000 3208.53983 0.00032
16.12999 3155.00000 3209.78624 0.00032
16.13999 3188.00000 3211.03436 0.00031
16.14999 3118.00000 3212.28418 0.00032
16.15999 3080.00000 3213.53566 0.00032
16.16999 3004.00000 3214.78877 0.00033
16.17999 3156.00000 3216.04349 0.00032
16.18999 3205.00000 3217.29978 0.00031
16.19999 3121.00000 3218.55761 0.00032
16.20999 3116.00000 3219.81696 0.00032
16.21999 3144.00000 3221.07779 0.00032
16.22999 3087.00000 3222.34008 0.00032
16.23999 3035.00000 3223.60379 0.00033
16.24999 3071.00000 3224.86892 0.00033
16.25999 3113.00000 3226.13549 0.00032
16.26999 3085.00000 3227.40354 0.00032
16.27999 3132.00000 3228.67303 0.00032
16.28999 3197.00000 3229.94394 0.00031
16.29999 3133.00000 3231.21626 0.00032
16.30999 3063.00000 3232.49001 0.00033
16.31999 3012.00000 3233.76526 0.00033
16.32999 3098.00000 3235.04198 0.00032
16.33999 3080.00000 3236.32018 0.00032
16.34999 3135.00000 3237.59983 0.00032
16.35999 3091.00000 3238.88098 0.00032
16.37000 3050.00000 3240.16500 0.00033
16.38000 3193.00000 3241.44932 0.00031
16.39000 3152.00000 3242.73523 0.00032
16.40000 3071.00000 3244.02274 0.00033
16.41000 3132.00000 3245.31194 0.00032
16.42000 3041.00000 3246.60293 0.00033
16.43000 3088.00000 3247.89571 0.00032
16.44000 3146.00000 3249.19032 0.00032
16.45000 3104.00000 3250.48684 0.00032
16.46000 3108.00000 3251.78543 0.00032
16.47000 3060.00000 3253.08615 0.00033
16.48000 3116.00000 3254.38908 0.00032
16.49000 3075.00000 3255.69431 0.00033
16.50000 3100.00000 3257.00207 0.00032
16.51000 3217.00000 3258.31250 0.00031
16.52000 3086.00000 3259.62572 0.00032
16.53000 3148.00000 3260.94193 0.00032
16.54000 3137.00000 3262.26146 0.00032
16.55000 3066.00000 3263.58451 0.00033
16.56000 3106.00000 3264.91135 0.00032
16.57000 3143.00000 3266.24238 0.00032
16.58000 3088.00000 3267.57806 0.00032
16.59000 3084.00000 3268.91877 0.00032
16.60000 3098.00000 3270.26510 0.00032
16.61000 3112.00000 3271.61781 0.00032
16.62000 3222.00000 3272.97760 0.00031
16.63000 3235.00000 3274.34566 0.00031
16.64000 3149.00000 3275.72361 0.00032
16.65000 3077.00000 3277.11298 0.00032
16.66000 3124.00000 3278.51594 0.00032
16.67000 3155.00000 3279.93510 0.00032
16.68000 3120.00000 3281.37409 0.00032
16.69000 3137.00000 3282.83788 0.00032
16.70000 3134.00000 3284.33333 0.00032
16.71000 3101.00000 3285.87095 0.00032
16.72000 3121.00000 3287.46846 0.00032
16.73000 3172.00000 3289.16976 0.00032
16.74000 3162.00000 3291.09191 0.00032
16.75000 3141.00000 3293.13547 0.00032
16.76000 3145.00000 3294.54389 0.00032
16.77000 3178.00000 3295.87759 0.00031
16.78000 3221.00000 3297.21163 0.00031
16.79000 3246.00000 3298.54600 0.00031
16.80000 3181.00000 3299.88068 0.00031
16.81001 3114.00000 3301.21698 0.00032
16.82001 3145.00000 3302.55221 0.00032
16.83001 3225.00000 3303.88769 0.00031
16.84001 3164.00000 3305.22340 0.00032
16.85001 3077.00000 3306.55932 0.00032
16.86001 3191.00000 3307.89544 0.00031
16.87001 3115.00000 3309.23174 0.00032
16.88001 3226.00000 3310.56819 0.00031
16.89001 3124.00000 3311.90479 0.00032
16.90001 3092.00000 3313.24152 0.00032
16.91001 3110.00000 3314.57836 0.00032
16.92001 3211.00000 3315.91529 0.00031
16.93001 3143.00000 3317.25230 0.00032
16.94001 3167.00000 3318.58937 0.00032
16.95001 3123.00000 3319.92649 0.00032
16.96001 3143.00000 3321.26365 0.00032
16.97001 3107.00000 3322.60083 0.00032
16.98001 3203.00000 3323.93801 0.00031
16.99001 3240.00000 3325.27519 0.00031
17.00001 3249.00000 3326.61235 0.00031
17.01001 3148.00000 3327.94947 0.00032
17.02001 3073.00000 3329.28655 0.00033
17.03001 3136.00000 3330.62358 0.00032
17.04001 3229.00000 3331.96054 0.00031
17.05001 3088.00000 3333.29742 0.00032
17.06001 3085.00000 3334.63422 0.00032
17.07001 3148.00000 3335.97091 0.00032
17.08001 3123.00000 3337.30751 0.00032
17.09001 3158.00000 3338.64398 0.00032
17.10001 3185.00000 3339.98034 0.00031
17.11001 3155.00000 3341.31656 0.00032
17.12001 3180.00000 3342.65265 0.00031
17.13001 3225.00000 3343.98860 0.00031
17.14001 3186.00000 3345.32440 0.00031
17.15001 3225.00000 3346.66004 0.00031
17.16001 3217.00000 3347.99553 0.00031
17.17001 3149.00000 3349.33086 0.00032
17.18001 3257.00000 3350.66603 0.00031
17.19001 3213.00000 3352.00103 0.00031
17.20001 3122.00000 3353.33586 0.00032
17.21001 3221.00000 3354.67053 0.00031
17.22001 3149.00000 3356.00504 0.00032
17.23001 3205.00000 3357.33938 0.00031
17.24002 3239.00000 3358.67489 0.00031
17.25002 3152.00000 3360.00891 0.00032
17.26002 3209.00000 3361.34277 0.00031
17.27002 3212.00000 3362.67649 0.00031
17.28002 3221.00000 3364.01006 0.00031
17.29002 3223.00000 3365.34349 0.00031
17.30002 3180.00000 3366.67680 0.00031
17.31002 3221.00000 3368.00999 0.00031
17.32002 3136.00000 3369.34307 0.00032
17.33002 3226.00000 3370.67605 0.00031
17.34002 3275.00000 3372.00895 0.00031
17.35002 3228.00000 3373.34178 0.00031
17.36002 3227.00000 3374.67456 0.00031
17.37002 3130.00000 3376.00730 0.00032
17.38002 3239.00000 3377.34003 0.00031
17.39002 3174.00000 3378.67276 0.00032
17.40002 3123.00000 3380.00551 0.00032
17.41002 3143.00000 3381.33831 0.00032
17.42002 3242.00000 3382.67118 0.00031
17.43002 3159.00000 3384.00416 0.00032
17.44002 3177.00000 3385.33726 0.00031
17.45002 3263.00000 3386.67051 0.00031
17.46002 3222.00000 3388.00396 0.00031
17.47002 3254.00000 3389.33764 0.00031
17.48002 3158.00000 3390.67157 0.00032
17.49002 3183.00000 3392.00581 0.00031
17.50002 3207.00000 3393.34039 0.00031
17.51002 3160.00000 3394.67535 0.00032
17.52002 3214.00000 3396.01076 0.00031
17.53002 3257.00000 3397.34670 0.00031
17.54002 3316.00000 3398.68321 0.00030
17.55002 3158.00000 3400.02036 0.00032
17.56002 3225.00000 3401.35821 0.00031
17.57002 3269.00000 3402.69685 0.00031
17.58002 3272.00000 3404.03637 0.00031
17.59002 3206.00000 3405.37682 0.00031
17.60002 3224.00000 3406.71831 0.00031
17.61002 3219.00000 3408.06095 0.00031
17.62002 3111.00000 3409.40482 0.00032
17.63002 3285.00000 3410.75002 0.00030
17.64002 3249.00000 3412.09668 0.00031
17.65002 3334.00000 3413.44492 0.00030
17.66002 3311.00000 3414.79487 0.00030
17.67002 3263.00000 3416.14665 0.00031
17.68003 3277.00000 3417.50178 0.00031
17.69003 3231.00000 3418.85771 0.00031
17.70003 3272.00000 3420.21595 0.00031
17.71003 3273.00000 3421.57669 0.00031
17.72003 3257.00000 3422.94014 0.00031
17.73003 3284.00000 3424.30648 0.00030
17.74003 3310.00000 3425.67596 0.00030
17.75003 3163.00000 3427.04885 0.00032
17.76003 3416.00000 3428.42539 0.00029
17.77003 3372.00000 3429.80593 0.00030
17.78003 3221.00000 3431.19079 0.00031
17.79003 3166.00000 3432.58036 0.00032
17.80003 3265.00000 3433.97511 0.00031
17.81003 3318.00000 3435.37553 0.00030
17.82003 3273.00000 3436.78236 0.00031
17.83003 3284.00000 3438.19643 0.00030
17.84003 3309.00000 3439.61878 0.00030
17.85003 3201.00000 3441.05068 0.00031
17.86003 3307.00000 3442.49398 0.00030
17.87003 3301.00000 3443.95130 0.00030
17.88003 3300.00000 3445.42680 0.00030
17.89003 3272.00000 3446.92855 0.00031
17.90003 3183.00000 3448.48460 0.00031
17.91003 3226.00000 3450.09692 0.00031
17.92003 3261.00000 3451.57595 0.00031
17.93003 3190.00000 3453.02747 0.00031
17.94003 3318.00000 3454.48440 0.00030
17.95003 3260.00000 3455.94904 0.00031
17.96003 3348.00000 3457.42183 0.00030
17.97003 3239.00000 3458.90322 0.00031
17.98003 3259.00000 3460.39367 0.00031
17.99003 3358.00000 3461.89371 0.00030
18.00003 3215.00000 3463.40385 0.00031
18.01003 3250.00000 3464.92466 0.00031
18.02003 3323.00000 3466.45674 0.00030
18.03003 3263.00000 3468.00071 0.00031
18.04003 3357.00000 3469.55724 0.00030
18.05003 3225.00000 3471.12704 0.00031
18.06003 3261.00000 3472.71086 0.00031
18.07003 3278.00000 3474.30950 0.00031
18.08003 3265.00000 3475.92379 0.00031
18.09003 3361.00000 3477.55464 0.00030
18.10003 3293.00000 3479.20300 0.00030
18.11003 3306.00000 3480.86988 0.00030
18.12004 3259.00000 3482.55807 0.00031
18.13004 3345.00000 3484.26533 0.00030
18.14004 3292.00000 3485.99458 0.00030
18.15004 3246.00000 3487.74713 0.00031
18.16004 3310.00000 3489.52439 0.00030
18.17004 3383.00000 3491.32785 0.00030
18.18004 3281.00000 3493.15913 0.00030
18.19004 3250.00000 3495.01998 0.00031
18.20004 3308.00000 3496.91225 0.00030
18.21004 3339.00000 3498.83796 0.00030
18.22004 3256.00000 3500.79931 0.00031
18.23004 3219.00000 3502.79867 0.00031
18.24004 3257.00000 3504.83864 0.00031
18.25004 3384.00000 3506.92206 0.00030
18.26004 3335.00000 3509.05206 0.00030
18.27004 3381.00000 3511.23210 0.00030
18.28004 3304.00000 3513.46605 0.00030
18.29004 3373.00000 3515.75820 0.00030
18.30004 3351.00000 3518.11340 0.00030
18.31004 3383.00000 3520.53711 0.00030
18.32004 3330.00000 3523.03552 0.00030
18.33004 3326.00000 3525.61565 0.00030
18.34004 3317.00000 3528.28554 0.00030
18.35004 3364.00000 3531.05434 0.00030
18.36004 3431.00000 3533.93249 0.00029
18.37004 3367.00000 3536.93195 0.00030
18.38004 3297.00000 3540.06635 0.00030
18.39004 3315.00000 3543.35120 0.00030
18.40004 3281.00000 3546.80415 0.00030
18.41004 3305.00000 3550.44514 0.00030
18.42004 3406.00000 3554.29672 0.00029
18.43004 3330.00000 3558.38417 0.00030
18.44004 3323.00000 3562.73578 0.00030
18.45004 3346.00000 3567.38301 0.00030
18.46004 3550.00000 3572.36067 0.00028
18.47004 3410.00000 3577.70704 0.00029
18.48004 3422.00000 3583.46395 0.00029
18.49004 3402.00000 3589.67685 0.00029
18.50004 3424.00000 3596.39475 0.00029
18.51004 3318.00000 3603.67027 0.00030
18.52004 3538.00000 3611.55957 0.00028
18.53004 3467.00000 3620.12236 0.00029
18.54004 3520.00000 3629.42203 0.00028
18.55005 3542.00000 3639.53677 0.00028
18.56005 3554.00000 3650.51721 0.00028
18.57005 3430.00000 3662.44951 0.00029
18.58005 3520.00000 3675.41511 0.00028
18.59005 3546.00000 3689.50148 0.00028
18.60005 3564.00000 3704.80312 0.00028
18.61005 3631.00000 3721.42266 0.00028
18.62005 3552.00000 3739.47234 0.00028
18.63005 3578.00000 3759.07557 0.00028
18.64005 3750.00000 3780.36894 0.00027
18.65005 3607.00000 3803.50439 0.00028
18.66005 3630.00000 3828.65184 0.00028
18.67005 3668.00000 3856.00193 0.00027
18.68005 3675.00000 3885.76919 0.00027
18.69005 3782.00000 3918.19521 0.00026
18.70005 3813.00000 3953.55186 0.00026
18.71005 3983.00000 3992.14430 0.00025
18.72005 3905.00000 4034.31328 0.00026
18.73005 4048.00000 4080.43651 0.00025
18.74005 4102.00000 4130.92847 0.00024
18.75005 4129.00000 4186.23787 0.00024
18.76005 4257.00000 4246.84232 0.00023
18.77005 4305.00000 4313.23916 0.00023
18.78005 4369.00000 4385.93188 0.00023
18.79005 4522.00000 4465.41141 0.00022
18.80005 4758.00000 4552.13186 0.00021
18.81005 4707.00000 4646.48051 0.00021
18.82005 5045.00000 4748.74207 0.00020
18.83005 5068.00000 4859.05818 0.00020
18.84005 5521.00000 4977.38326 0.00018
18.85005 5620.00000 5103.43838 0.00018
18.86005 5927.00000 5236.66675 0.00017
18.87005 6116.00000 5376.19665 0.00016
18.88005 6170.00000 5520.75718 0.00016
18.89005 6238.00000 5668.55621 0.00016
18.90005 6407.00000 5817.59065 0.00016
18.91005 6493.00000 5965.34570 0.00015
18.92005 6372.00000 6108.84565 0.00016
18.93005 6294.00000 6244.68855 0.00016
18.94005 6567.00000 6369.08814 0.00015
18.95005 6417.00000 6477.95195 0.00016
18.96005 6416.00000 6567.01273 0.00016
18.97005 6423.00000 6632.03364 0.00016
18.98005 6561.00000 6669.10424 0.00015
18.99006 6614.00000 6675.00250 0.00015
19.00006 6569.00000 6647.69752 0.00015
19.01006 6578.00000 6586.71605 0.00015
19.02006 6597.00000 6493.39806 0.00015
19.03006 6535.00000 6370.90891 0.00015
19.04006 6610.00000 6223.94346 0.00015
19.05006 6729.00000 6058.19331 0.00015
19.06006 6489.00000 5879.71750 0.00015
19.07006 6295.00000 5694.37427 0.00016
19.08006 6221.00000 5507.41498 0.00016
19.09006 6019.00000 5323.26625 0.00017
19.10006 5745.00000 5145.46643 0.00017
19.11006 5563.00000 4976.70148 0.00018
19.12006 5304.00000 4818.89097 0.00019
19.13006 5152.00000 4673.28994 0.00019
19.14006 5068.00000 4540.58942 0.00020
19.15006 4849.00000 4421.00832 0.00021
19.16006 4578.00000 4314.37900 0.00022
19.17006 4532.00000 4220.22638 0.00022
19.18006 4382.00000 4137.84120 0.00023
19.19006 4182.00000 4066.34612 0.00024
19.20006 4137.00000 4004.75731 0.00024
19.21006 3987.00000 3952.03897 0.00025
19.22006 4041.00000 3907.14905 0.00025
19.23006 3944.00000 3869.07520 0.00025
19.24006 3870.00000 3836.86385 0.00026
19.25006 3792.00000 3809.64045 0.00026
19.26006 3804.00000 3786.61997 0.00026
19.27006 3710.00000 3767.11244 0.00027
19.28006 3800.00000 3750.52388 0.00026
19.29006 3760.00000 3736.35069 0.00027
19.30006 3711.00000 3724.17262 0.00027
19.31006 3686.00000 3713.64541 0.00027
19.32006 3730.00000 3704.48960 0.00027
19.33006 3639.00000 3696.48246 0.00027
19.34006 3688.00000 3689.45173 0.00027
19.35006 3707.00000 3683.26314 0.00027
19.36006 3700.00000 3677.81676 0.00027
19.37006 3553.00000 3673.04093 0.00028
19.38006 3620.00000 3668.89231 0.00028
19.39006 3707.00000 3665.35421 0.00027
19.40006 3608.00000 3662.44251 0.00028
19.41006 3699.00000 3660.22047 0.00027
19.42006 3655.00000 3658.86810 0.00027
19.43007 3692.00000 3659.11715 0.00027
19.44007 3664.00000 3660.99705 0.00027
19.45007 3655.00000 3659.50678 0.00027
19.46007 3639.00000 3657.06952 0.00027
19.47007 3519.00000 3654.73543 0.00028
19.48007 3615.00000 3652.57564 0.00028
19.49007 3654.00000 3650.57730 0.00027
19.50007 3609.00000 3648.72887 0.00028
19.51007 3572.00000 3647.01988 0.00028
19.52007 3659.00000 3645.44083 0.00027
19.53007 3659.00000 3643.98307 0.00027
19.54007 3689.00000 3642.63872 0.00027
19.55007 3657.00000 3641.40058 0.00027
19.56007 3606.00000 3640.26206 0.00028
19.57007 3628.00000 3639.21713 0.00028
19.58007 3728.00000 3638.26025 0.00027
19.59007 3631.00000 3637.38636 0.00028
19.60007 3735.00000 3636.59080 0.00027
19.61007 3636.00000 3635.86929 0.00028
19.62007 3663.00000 3635.21790 0.00027
19.63007 3662.00000 3634.63302 0.00027
19.64007 3605.00000 3634.11134 0.00028
19.65007 3637.00000 3633.64981 0.00027
19.66007 3592.00000 3633.24563 0.00028
19.67007 3527.00000 3632.89623 0.00028
19.68007 3635.00000 3632.59926 0.00028
19.69007 3609.00000 3632.35255 0.00028
19.70007 3567.00000 3632.15412 0.00028
19.71007 3605.00000 3632.00217 0.00028
19.72007 3533.00000 3631.89506 0.00028
19.73007 3577.00000 3631.83128 0.00028
19.74007 3605.00000 3631.80947 0.00028
19.75007 3609.00000 3631.82841 0.00028
19.76007 3670.00000 3631.88700 0.00027
19.77007 3716.00000 3631.98425 0.00027
19.78007 3693.00000 3632.11929 0.00027
19.79007 3613.00000 3632.29135 0.00028
19.80007 3722.00000 3632.49976 0.00027
19.81007 3806.00000 3632.74396 0.00026
19.82007 3593.00000 3633.02347 0.00028
19.83007 3775.00000 3633.33791 0.00026
19.84007 3766.00000 3633.68699 0.00027
19.85007 3762.00000 3634.07048 0.00027
19.86007 3648.00000 3634.48827 0.00027
19.87008 3635.00000 3634.94078 0.00028
19.88008 3709.00000 3635.42714 0.00027
19.89008 3666.00000 3635.94789 0.00027
19.90008 3598.00000 3636.50325 0.00028
19.91008 3682.00000 3637.09347 0.00027
19.92008 3676.00000 3637.71892 0.00027
19.93008 3661.00000 3638.38003 0.00027
19.94008 3707.00000 3639.07732 0.00027
19.95008 3713.00000 3639.81137 0.00027
19.96008 3790.00000 3640.58288 0.00026
19.97008 3744.00000 3641.39261 0.00027
19.98008 3766.00000 3642.24142 0.00027
19.99008 3758.00000 3643.13025 0.00027
20.00008 3754.00000 3644.06014 0.00027
20.01008 3649.00000 3645.03222 0.00027
20.02008 3834.00000 3646.04773 0.00026
20.03008 3825.00000 3647.10802 0.00026
20.04008 3720.00000 3648.21454 0.00027
20.05008 3745.00000 3649.36885 0.00027
20.06008 3723.00000 3650.57263 0.00027
20.07008 3739.00000 3651.82771 0.00027
20.08008 3731.00000 3653.13604 0.00027
20.09008 3703.00000 3654.49970 0.00027
20.10008 3634.00000 3655.92094 0.00028
20.11008 3765.00000 3657.40217 0.00027
20.12008 3726.00000 3658.94595 0.00027
20.13008 3691.00000 3660.55504 0.00027
20.14008 3742.00000 3662.23239 0.00027
20.15008 3641.00000 3663.98116 0.00027
20.16008 3695.00000 3665.80472 0.00027
20.17008 3801.00000 3667.70670 0.00026
20.18008 3819.00000 3669.69097 0.00026
20.19008 3808.00000 3671.76168 0.00026
20.20008 3722.00000 3673.92328 0.00027
20.21008 3743.00000 3676.18054 0.00027
20.22008 3746.00000 3678.53858 0.00027
20.23008 3784.00000 3681.00290 0.00026
20.24008 3834.00000 3683.57942 0.00026
20.25008 3805.00000 3686.27450 0.00026
20.26008 3782.00000 3689.09500 0.00026
20.27008 3749.00000 3692.04834 0.00027
20.28008 3831.00000 3695.14252 0.00026
20.29008 3884.00000 3698.38625 0.00026
20.30009 3854.00000 3701.79243 0.00026
20.31009 3751.00000 3705.36473 0.00027
20.32009 3852.00000 3709.11781 0.00026
20.33009 3690.00000 3713.06427 0.00027
20.34009 3769.00000 3717.21813 0.00027
20.35009 3825.00000 3721.59514 0.00026
20.36009 3876.00000 3726.21317 0.00026
20.37009 3874.00000 3731.09263 0.00026
20.38009 3808.00000 3736.25712 0.00026
20.39009 3801.00000 3741.73411 0.00026
20.40009 3829.00000 3747.55587 0.00026
20.41009 3891.00000 3753.76052 0.00026
20.42009 3837.00000 3760.39336 0.00026
20.43009 3891.00000 3767.50828 0.00026
20.44009 3835.00000 3775.16952 0.00026
20.45009 3842.00000 3783.45358 0.00026
20.46009 3897.00000 3792.45122 0.00026
20.47009 3884.00000 3802.26981 0.00026
20.48009 3879.00000 3813.03558 0.00026
20.49009 3911.00000 3824.89603 0.00026
20.50009 3961.00000 3838.02235 0.00025
20.51009 3892.00000 3852.61163 0.00026
20.52009 3867.00000 3868.88905 0.00026
20.53009 3960.00000 3887.10972 0.00025
20.54009 3849.00000 3907.56022 0.00026
20.55009 3963.00000 3930.55975 0.00025
20.56009 3978.00000 3956.46084 0.00025
20.57009 3980.00000 3985.64960 0.00025
20.58009 4094.00000 4018.54568 0.00024
20.59009 4005.00000 4055.60228 0.00025
20.60009 4241.00000 4097.30637 0.00024
20.61009 4113.00000 4144.17985 0.00024
20.62009 4222.00000 4196.78177 0.00024
20.63009 4184.00000 4255.71202 0.00024
20.64009 4344.00000 4321.61666 0.00023
20.65009 4278.00000 4395.19511 0.00023
20.66009 4568.00000 4477.20964 0.00022
20.67009 4550.00000 4568.49738 0.00022
20.68009 4645.00000 4669.98560 0.00022
20.69009 4725.00000 4782.71036 0.00021
20.70009 4881.00000 4907.83945 0.00020
20.71009 4895.00000 5046.69989 0.00020
20.72009 5217.00000 5200.81050 0.00019
20.73009 5284.00000 5371.91951 0.00019
20.74010 5437.00000 5562.23979 0.00018
20.75010 5657.00000 5773.74420 0.00018
20.76010 5881.00000 6009.30730 0.00017
20.77010 6197.00000 6272.03651 0.00016
20.78010 6576.00000 6565.47944 0.00015
20.79010 6808.00000 6893.63995 0.00015
20.80010 7365.00000 7260.96606 0.00014
20.81010 7753.00000 7672.29732 0.00013
20.82010 8211.00000 8132.75776 0.00012
20.83010 8715.00000 8647.58046 0.00011
20.84010 9260.00000 9221.85152 0.00011
20.85010 10064.00000 9860.16529 0.00010
20.86010 10917.00000 10566.18908 0.00008
20.87010 11509.00000 11342.14490 0.00008
20.88010 12588.00000 12188.22627 0.00006
20.89010 13582.00000 13101.98059 0.00005
20.90010 14761.00000 14077.69864 0.00005
20.91010 15765.00000 15105.86212 0.00004
20.92010 16779.00000 16172.70518 0.00004
20.93010 18463.00000 17259.94478 0.00003
20.94010 19990.00000 18344.72892 0.00003
20.95010 20805.00000 19399.84274 0.00002
20.96010 21911.00000 20394.20416 0.00002
20.97010 22822.00000 21293.68229 0.00002
20.98010 23445.00000 22062.29165 0.00002
20.99010 23802.00000 22663.84900 0.00002
21.00010 24056.00000 23064.21087 0.00002
21.01010 24281.00000 23234.17468 0.00002
21.02010 23587.00000 23152.94211 0.00002
21.03010 23124.00000 22811.66991 0.00002
21.04010 22332.00000 22216.19315 0.00002
21.05010 21223.00000 21387.82454 0.00002
21.06010 20337.00000 20361.55495 0.00002
21.07010 19101.00000 19181.93786 0.00003
21.08010 17839.00000 17897.85147 0.00003
21.09010 16492.00000 16557.58659 0.00004
21.10010 15294.00000 15205.22908 0.00004
21.11010 13844.00000 13878.56151 0.00005
21.12010 12627.00000 12608.19255 0.00006
21.13010 11525.00000 11417.47465 0.00008
21.14010 10707.00000 10322.85806 0.00009
21.15010 9592.00000 9334.48033 0.00010
21.16010 8706.00000 8456.90038 0.00011
21.17010 7989.00000 7689.93289 0.00013
21.18011 7291.00000 7028.90381 0.00014
21.19011 6922.00000 6468.25608 0.00014
21.20011 6465.00000 5998.28068 0.00015
21.21011 5922.00000 5608.84605 0.00017
21.22011 5528.00000 5289.37643 0.00018
21.23011 5470.00000 5029.44556 0.00018
21.24011 5235.00000 4819.22434 0.00019
21.25011 5040.00000 4649.78400 0.00020
21.26011 4859.00000 4513.26759 0.00021
21.27011 4876.00000 4402.95011 0.00021
21.28011 4711.00000 4313.19839 0.00021
21.29011 4564.00000 4239.34858 0.00022
21.30011 4501.00000 4177.89134 0.00022
21.31011 4434.00000 4126.69769 0.00023
21.32011 4435.00000 4083.04469 0.00023
21.33011 4347.00000 4045.18935 0.00023
21.34011 4366.00000 4011.88492 0.00023
21.35011 4245.00000 3982.20176 0.00024
21.36011 4279.00000 3955.44876 0.00023
21.37011 4252.00000 3931.11118 0.00024
21.38011 4288.00000 3908.80279 0.00023
21.39011 4123.00000 3888.23011 0.00024
21.40011 4213.00000 3869.16617 0.00024
21.41011 4076.00000 3851.43163 0.00025
21.42011 4070.00000 3834.88151 0.00025
21.43011 4098.00000 3819.39590 0.00024
21.44011 3973.00000 3804.87354 0.00025
21.45011 4079.00000 3791.22731 0.00025
21.46011 4031.00000 3778.38123 0.00025
21.47011 4025.00000 3766.26821 0.00025
21.48011 4086.00000 3754.82852 0.00024
21.49011 3966.00000 3744.00866 0.00025
21.50011 4012.00000 3733.76040 0.00025
21.51011 3897.00000 3724.04018 0.00026
21.52011 3853.00000 3714.80848 0.00026
21.53011 4015.00000 3706.02937 0.00025
21.54011 4034.00000 3697.67016 0.00025
21.55011 4003.00000 3689.70097 0.00025
21.56011 3946.00000 3682.09453 0.00025
21.57011 3940.00000 3674.82584 0.00025
21.58011 3911.00000 3667.87200 0.00026
21.59011 3977.00000 3661.21197 0.00025
21.60011 3888.00000 3654.82641 0.00026
21.61012 3891.00000 3648.69143 0.00026
21.62012 3860.00000 3642.80302 0.00026
21.63012 3966.00000 3637.13969 0.00025
21.64012 3873.00000 3631.68745 0.00026
21.65012 3974.00000 3626.43332 0.00025
21.66012 3903.00000 3621.36533 0.00026
21.67012 3900.00000 3616.47233 0.00026
21.68012 3838.00000 3611.74401 0.00026
21.69012 3829.00000 3607.17076 0.00026
21.70012 3855.00000 3602.74366 0.00026
21.71012 3919.00000 3598.45439 0.00026
21.72012 3879.00000 3594.29521 0.00026
21.73012 3840.00000 3590.25890 0.00026
21.74012 3871.00000 3586.33870 0.00026
21.75012 3842.00000 3582.52831 0.00026
21.76012 3726.00000 3578.82184 0.00027
21.77012 3924.00000 3575.21376 0.00025
21.78012 3845.00000 3571.69890 0.00026
21.79012 3742.00000 3568.27242 0.00027
21.80012 3784.00000 3564.92977 0.00026
21.81012 3893.00000 3561.66667 0.00026
21.82012 3876.00000 3558.47912 0.00026
21.83012 3810.00000 3555.36333 0.00026
21.84012 3766.00000 3552.31577 0.00027
21.85012 3791.00000 3549.33308 0.00026
21.86012 3851.00000 3546.41212 0.00026
21.87012 3832.00000 3543.54993 0.00026
21.88012 3791.00000 3540.74369 0.00026
21.89012 3804.00000 3537.99078 0.00026
21.90012 3649.00000 3535.28869 0.00027
21.91012 3837.00000 3532.63506 0.00026
21.92012 3845.00000 3530.02768 0.00026
21.93012 3703.00000 3527.46443 0.00027
21.94012 3822.00000 3524.94332 0.00026
21.95012 3735.00000 3522.46246 0.00027
21.96012 3806.00000 3520.02006 0.00026
21.97012 3770.00000 3517.61444 0.00027
21.98012 3836.00000 3515.24398 0.00026
21.99012 3846.00000 3512.90717 0.00026
22.00012 3847.00000 3510.60255 0.00026
22.01012 3741.00000 3508.32878 0.00027
22.02012 3825.00000 3506.08453 0.00026
22.03012 3776.00000 3503.86859 0.00026
22.04012 3835.00000 3501.67977 0.00026
22.05013 3763.00000 3499.51481 0.00027
22.06013 3794.00000 3497.37700 0.00026
22.07013 3791.00000 3495.26314 0.00026
22.08013 3793.00000 3493.17229 0.00026
22.09013 3786.00000 3491.10356 0.00026
22.10013 3678.00000 3489.05609 0.00027
22.11013 3685.00000 3487.02908 0.00027
22.12013 3723.00000 3485.02176 0.00027
22.13013 3703.00000 3483.03339 0.00027
22.14013 3689.00000 3481.06331 0.00027
22.15013 3724.00000 3479.11083 0.00027
22.16013 3767.00000 3477.17535 0.00027
22.17013 3732.00000 3475.25630 0.00027
22.18013 3794.00000 3473.35310 0.00026
22.19013 3600.00000 3471.46525 0.00028
22.20013 3704.00000 3469.59217 0.00027
22.21013 3771.00000 3467.73289 0.00027
22.22013 3723.00000 3465.88665 0.00027
22.23013 3723.00000 3464.05298 0.00027
22.24013 3829.00000 3462.23150 0.00026
22.25013 3801.00000 3460.42167 0.00026
22.26013 3691.00000 3458.62253 0.00027
22.27013 3748.00000 3456.83347 0.00027
22.28013 3678.00000 3455.05414 0.00027
22.29013 3835.00000 3453.28423 0.00026
22.30013 3744.00000 3451.52304 0.00027
22.31013 3753.00000 3449.76969 0.00027
22.32013 3737.00000 3448.02385 0.00027
22.33013 3638.00000 3446.28527 0.00027
22.34013 3683.00000 3444.55353 0.00027
22.35013 3751.00000 3442.82770 0.00027
22.36013 3700.00000 3441.10750 0.00027
22.37013 3574.00000 3439.39299 0.00028
22.38013 3641.00000 3437.68410 0.00027
22.39013 3710.00000 3435.98031 0.00027
22.40013 3634.00000 3434.28218 0.00028
22.41013 3621.00000 3432.59113 0.00028
22.42013 3675.00000 3430.90955 0.00027
22.43013 3718.00000 3429.24441 0.00027
22.44013 3679.00000 3427.61289 0.00027
22.45013 3663.00000 3425.99134 0.00027
22.46013 3623.00000 3424.27183 0.00028
22.47013 3581.00000 3422.53714 0.00028
22.48013 3655.00000 3420.79088 0.00027
22.49014 3675.00000 3419.00499 0.00027
22.50014 3667.00000 3417.19809 0.00027
22.51014 3588.00000 3415.36961 0.00028
22.52014 3638.00000 3413.51463 0.00027
22.53014 3612.00000 3411.62811 0.00028
22.54014 3661.00000 3409.70331 0.00027
22.55014 3665.00000 3407.72896 0.00027
22.56014 3671.00000 3405.69356 0.00027
22.57014 3666.00000 3403.58171 0.00027
22.58014 3657.00000 3401.37414 0.00027
22.59014 3580.00000 3399.04265 0.00028
22.60014 3589.00000 3396.54790 0.00028
22.61014 3607.00000 3393.83051 0.00028
22.62014 3621.00000 3390.79433 0.00028
22.63014 3625.00000 3387.23642 0.00028
22.64014 3603.00000 3382.41598 0.00028
22.65014 3544.00000 3376.32040 0.00028
22.66014 3713.00000 3374.44115 0.00027
22.67014 3511.00000 3372.70746 0.00028
22.68014 3614.00000 3371.56374 0.00028
22.69014 3599.00000 3370.42732 0.00028
22.70014 3518.00000 3369.29867 0.00028
22.71014 3558.00000 3368.17827 0.00028
22.72014 3490.00000 3367.06665 0.00029
22.73014 3679.00000 3365.96435 0.00027
22.74014 3626.00000 3364.87192 0.00028
22.75014 3572.00000 3363.78997 0.00028
22.76014 3458.00000 3362.71912 0.00029
22.77014 3550.00000 3361.66001 0.00028
22.78014 3633.00000 3360.61334 0.00028
22.79014 3480.00000 3359.57982 0.00029
22.80014 3436.00000 3358.56022 0.00029
22.81014 3546.00000 3357.55533 0.00028
22.82014 3595.00000 3356.56599 0.00028
22.83014 3600.00000 3355.59309 0.00028
22.84014 3547.00000 3354.63757 0.00028
22.85014 3467.00000 3353.70041 0.00029
22.86014 3411.00000 3352.78267 0.00029
22.87014 3508.00000 3351.88544 0.00029
22.88014 3522.00000 3351.00991 0.00028
22.89014 3587.00000 3350.15732 0.00028
22.90014 3588.00000 3349.32898 0.00028
22.91014 3597.00000 3348.52631 0.00028
22.92015 3427.00000 3347.75003 0.00029
22.93015 3506.00000 3347.00331 0.00029
22.94015 3541.00000 3346.28705 0.00028
22.95015 3534.00000 3345.60307 0.00028
22.96015 3532.00000 3344.95332 0.00028
22.97015 3503.00000 3344.33987 0.00029
22.98015 3463.00000 3343.76497 0.00029
22.99015 3430.00000 3343.23101 0.00029
23.00015 3468.00000 3342.74056 0.00029
23.01015 3509.00000 3342.29641 0.00028
23.02015 3521.00000 3341.90152 0.00028
23.03015 3637.00000 3341.55913 0.00027
23.04015 3485.00000 3341.27270 0.00029
23.05015 3418.00000 3341.04597 0.00029
23.06015 3446.00000 3340.88299 0.00029
23.07015 3478.00000 3340.78813 0.00029
23.08015 3368.00000 3340.76612 0.00030
23.09015 3424.00000 3340.82207 0.00029
23.10015 3456.00000 3340.96152 0.00029
23.11015 3331.00000 3341.19043 0.00030
23.12015 3421.00000 3341.51529 0.00029
23.13015 3547.00000 3341.94309 0.00028
23.14015 3420.00000 3342.48137 0.00029
23.15015 3469.00000 3343.13832 0.00029
23.16015 3425.00000 3343.92274 0.00029
23.17015 3363.00000 3344.84412 0.00030
23.18015 3489.00000 3345.91270 0.00029
23.19015 3483.00000 3347.13946 0.00029
23.20015 3461.00000 3348.53623 0.00029
23.21015 3381.00000 3350.11565 0.00030
23.22015 3444.00000 3351.89127 0.00029
23.23015 3447.00000 3353.87752 0.00029
23.24015 3405.00000 3356.08980 0.00029
23.25015 3426.00000 3358.54441 0.00029
23.26015 3428.00000 3361.25865 0.00029
23.27015 3462.00000 3364.25075 0.00029
23.28015 3453.00000 3367.53987 0.00029
23.29015 3439.00000 3371.14606 0.00029
23.30015 3404.00000 3375.09024 0.00029
23.31015 3440.00000 3379.39411 0.00029
23.32015 3480.00000 3384.08005 0.00029
23.33015 3414.00000 3389.17102 0.00029
23.34015 3486.00000 3394.69047 0.00029
23.35015 3453.00000 3400.66209 0.00029
23.36016 3413.00000 3407.11619 0.00029
23.37016 3413.00000 3414.06404 0.00029
23.38016 3400.00000 3421.53503 0.00029
23.39016 3343.00000 3429.55193 0.00030
23.40016 3403.00000 3438.13662 0.00029
23.41016 3446.00000 3447.30976 0.00029
23.42016 3429.00000 3457.09043 0.00029
23.43016 3448.00000 3467.49572 0.00029
23.44016 3552.00000 3478.54037 0.00028
23.45016 3456.00000 3490.23620 0.00029
23.46016 3371.00000 3502.59172 0.00030
23.47016 3481.00000 3515.61148 0.00029
23.48016 3542.00000 3529.29551 0.00028
23.49016 3545.00000 3543.63865 0.00028
23.50016 3685.00000 3558.62980 0.00027
23.51016 3501.00000 3574.25114 0.00029
23.52016 3591.00000 3590.47724 0.00028
23.53016 3701.00000 3607.27408 0.00027
23.54016 3663.00000 3624.59807 0.00027
23.55016 3662.00000 3642.39487 0.00027
23.56016 3779.00000 3660.59826 0.00026
23.57016 3791.00000 3679.12887 0.00026
23.58016 3893.00000 3697.89297 0.00026
23.59016 3920.00000 3716.78125 0.00026
23.60016 4056.00000 3735.66772 0.00025
23.61016 3983.00000 3754.40881 0.00025
23.62016 4220.00000 3772.84283 0.00024
23.63016 4170.00000 3790.78983 0.00024
23.64016 4347.00000 3808.05221 0.00023
23.65016 4299.00000 3824.41612 0.00023
23.66016 4411.00000 3839.65391 0.00023
23.67016 4418.00000 3853.52785 0.00023
23.68016 4416.00000 3865.79520 0.00023
23.69016 4527.00000 3876.21467 0.00022
23.70016 4587.00000 3884.55424 0.00022
23.71016 4674.00000 3890.59996 0.00021
23.72016 4592.00000 3894.16551 0.00022
23.73016 4644.00000 3895.10163 0.00022
23.74016 4489.00000 3893.30491 0.00022
23.75016 4512.00000 3888.72483 0.00022
23.76016 4447.00000 3881.36859 0.00022
23.77016 4463.00000 3871.30274 0.00022
23.78016 4464.00000 3858.65162 0.00022
23.79016 4396.00000 3843.59231 0.00023
23.80017 4372.00000 3826.32940 0.00023
23.81017 4322.00000 3807.15250 0.00023
23.82017 4287.00000 3786.32650 0.00023
23.83017 4217.00000 3764.14317 0.00024
23.84017 4191.00000 3740.89495 0.00024
23.85017 4047.00000 3716.86525 0.00025
23.86017 3936.00000 3692.32072 0.00025
23.87017 3913.00000 3667.50553 0.00026
23.88017 3788.00000 3642.63774 0.00026
23.89017 3713.00000 3617.90753 0.00027
23.90017 3684.00000 3593.47697 0.00027
23.91017 3537.00000 3569.48097 0.00028
23.92017 3513.00000 3546.02910 0.00028
23.93017 3473.00000 3523.20788 0.00029
23.94017 3476.00000 3501.08339 0.00029
23.95017 3571.00000 3479.70384 0.00028
23.96017 3441.00000 3459.10214 0.00029
23.97017 3385.00000 3439.29826 0.00030
23.98017 3459.00000 3420.30135 0.00029
23.99017 3302.00000 3402.11164 0.00030
24.00017 3381.00000 3384.72205 0.00030
24.01017 3258.00000 3368.11961 0.00031
24.02017 3334.00000 3352.28664 0.00030
24.03017 3323.00000 3337.20178 0.00030
24.04017 3309.00000 3322.84078 0.00030
24.05017 3299.00000 3309.17725 0.00030
24.06017 3250.00000 3296.18325 0.00031
24.07017 3232.00000 3283.82977 0.00031
24.08017 3192.00000 3272.08713 0.00031
24.09017 3266.00000 3260.92537 0.00031
24.10017 3162.00000 3250.31455 0.00032
24.11017 3175.00000 3240.22493 0.00031
24.12017 3207.00000 3230.62726 0.00031
24.13017 3123.00000 3221.49292 0.00032
24.14017 3172.00000 3212.79406 0.00032
24.15017 3161.00000 3204.50371 0.00032
24.16017 3188.00000 3196.59594 0.00031
24.17017 3178.00000 3189.04584 0.00031
24.18017 3171.00000 3181.82966 0.00032
24.19017 3125.00000 3174.92479 0.00032
24.20017 3112.00000 3168.30983 0.00032
24.21017 3169.00000 3161.96456 0.00032
24.22017 3114.00000 3155.86995 0.00032
24.23018 3235.00000 3150.00233 0.00031
24.24018 3170.00000 3144.35692 0.00032
24.25018 3155.00000 3138.91208 0.00032
24.26018 3180.00000 3133.65337 0.00031
24.27018 3089.00000 3128.56734 0.00032
24.28018 3061.00000 3123.64160 0.00033
24.29018 3157.00000 3118.86467 0.00032
24.30018 3131.00000 3114.22597 0.00032
24.31018 3080.00000 3109.71576 0.00032
24.32018 3036.00000 3105.32511 0.00033
24.33018 3068.00000 3101.04580 0.00033
24.34018 3112.00000 3096.87031 0.00032
24.35018 3072.00000 3092.79173 0.00033
24.36018 3089.00000 3088.80375 0.00032
24.37018 2983.00000 3084.90059 0.00034
24.38018 2989.00000 3081.07696 0.00033
24.39018 3066.00000 3077.32800 0.00033
24.40018 3045.00000 3073.64931 0.00033
24.41018 3009.00000 3070.03680 0.00033
24.42018 2977.00000 3066.48678 0.00034
24.43018 3056.00000 3062.99583 0.00033
24.44018 3050.00000 3059.56082 0.00033
24.45018 3075.00000 3056.17890 0.00033
24.46018 3026.00000 3052.84742 0.00033
24.47018 2974.00000 3049.56397 0.00034
24.48018 3000.00000 3046.32632 0.00033
24.49018 3038.00000 3043.13243 0.00033
24.50018 3116.00000 3039.98040 0.00032
24.51018 3032.00000 3036.86852 0.00033
24.52018 3078.00000 3033.79517 0.00032
24.53018 2911.00000 3030.75890 0.00034
24.54018 3008.00000 3027.75835 0.00033
24.55018 3044.00000 3024.79228 0.00033
24.56018 2996.00000 3021.85956 0.00033
24.57018 2922.00000 3018.95915 0.00034
24.58018 2951.00000 3016.09009 0.00034
24.59018 2954.00000 3013.25154 0.00034
24.60018 2943.00000 3010.44271 0.00034
24.61018 2948.00000 3007.66290 0.00034
24.62018 2982.00000 3004.91151 0.00034
24.63018 2958.00000 3002.18798 0.00034
24.64018 2903.00000 2999.49185 0.00034
24.65018 2953.00000 2996.82273 0.00034
24.66018 2931.00000 2994.18028 0.00034
24.67019 3000.00000 2991.56166 0.00033
24.68019 2898.00000 2988.97193 0.00035
24.69019 2907.00000 2986.40835 0.00034
24.70019 2955.00000 2983.87090 0.00034
24.71019 2971.00000 2981.35964 0.00034
24.72019 2892.00000 2978.87472 0.00035
24.73019 2978.00000 2976.41637 0.00034
24.74019 2967.00000 2973.98491 0.00034
24.75019 2893.00000 2971.58079 0.00035
24.76019 3005.00000 2969.20454 0.00033
24.77019 2924.00000 2966.85685 0.00034
24.78019 3009.00000 2964.53852 0.00033
24.79019 2862.00000 2962.25053 0.00035
24.80019 2924.00000 2959.99400 0.00034
24.81019 2833.00000 2957.77028 0.00035
24.82019 2975.00000 2955.58093 0.00034
24.83019 2868.00000 2953.42776 0.00035
24.84019 2877.00000 2951.31285 0.00035
24.85019 2936.00000 2949.23864 0.00034
24.86019 2954.00000 2947.20791 0.00034
24.87019 2838.00000 2945.22387 0.00035
24.88019 2871.00000 2943.29021 0.00035
24.89019 2932.00000 2941.41114 0.00034
24.90019 2891.00000 2939.59153 0.00035
24.91019 2862.00000 2937.83688 0.00035
24.92019 2789.00000 2936.15353 0.00036
24.93019 2830.00000 2934.54868 0.00035
24.94019 2898.00000 2933.03051 0.00035
24.95019 2877.00000 2931.60834 0.00035
24.96019 2908.00000 2930.29273 0.00034
24.97019 2959.00000 2929.09563 0.00034
24.98019 2831.00000 2928.03056 0.00035
24.99019 2917.00000 2927.11277 0.00034
25.00019 2844.00000 2926.35941 0.00035
25.01019 2857.00000 2925.78974 0.00035
25.02019 2880.00000 2925.42533 0.00035
25.03019 2921.00000 2925.29023 0.00034
25.04019 2800.00000 2925.41122 0.00036
25.05019 2875.00000 2925.81793 0.00035
25.06019 2810.00000 2926.54305 0.00036
25.07019 2815.00000 2927.62248 0.00036
25.08019 2817.00000 2929.09537 0.00035
25.09019 2844.00000 2931.00424 0.00035
25.10019 2851.00000 2933.39487 0.00035
25.11020 2838.00000 2936.31959 0.00035
25.12020 2855.00000 2939.82408 0.00035
25.13020 2799.00000 2943.96539 0.00036
25.14020 2934.00000 2948.79960 0.00034
25.15020 2934.00000 2954.38368 0.00034
25.16020 2951.00000 2960.77442 0.00034
25.17020 2859.00000 2968.02698 0.00035
25.18020 2855.00000 2976.19321 0.00035
25.19020 2871.00000 2985.31960 0.00035
25.20020 2886.00000 2995.44502 0.00035
25.21020 2903.00000 3006.59814 0.00034
25.22020 2894.00000 3018.79460 0.00035
25.23020 2790.00000 3032.03407 0.00036
25.24020 2991.00000 3046.29713 0.00033
25.25020 2867.00000 3061.54212 0.00035
25.26020 2902.00000 3077.70196 0.00034
25.27020 2922.00000 3094.68111 0.00034
25.28020 2943.00000 3112.35255 0.00034
25.29020 2898.00000 3130.55502 0.00035
25.30020 2977.00000 3149.09046 0.00034
25.31020 2941.00000 3167.72174 0.00034
25.32020 2875.00000 3186.17103 0.00035
25.33020 2927.00000 3204.11886 0.00034
25.34020 2912.00000 3221.20461 0.00034
25.35020 2894.00000 3237.02920 0.00035
25.36020 2910.00000 3251.16103 0.00034
25.37020 2917.00000 3263.14662 0.00034
25.38020 2877.00000 3272.52734 0.00035
25.39020 2907.00000 3278.86307 0.00034
25.40020 2844.00000 3281.76278 0.00035
25.41020 2845.00000 3280.91963 0.00035
25.42020 2849.00000 3276.14634 0.00035
25.43020 2843.00000 3267.40431 0.00035
25.44020 2978.00000 3254.81954 0.00034
25.45020 2814.00000 3238.68003 0.00036
25.46020 2885.00000 3219.41370 0.00035
25.47020 2877.00000 3197.55030 0.00035
25.48020 2756.00000 3173.67506 0.00036
25.49020 2832.00000 3148.38275 0.00035
25.50020 2923.00000 3122.23944 0.00034
25.51020 2855.00000 3095.75573 0.00035
25.52020 2882.00000 3069.37195 0.00035
25.53020 2860.00000 3043.45330 0.00035
25.54021 2751.00000 3018.26756 0.00036
25.55021 2747.00000 2994.08982 0.00036
25.56021 2799.00000 2971.06079 0.00036
25.57021 2810.00000 2949.29538 0.00036
25.58021 2818.00000 2928.86497 0.00035
25.59021 2721.00000 2909.80427 0.00037
25.60021 2667.00000 2892.11721 0.00037
25.61021 2682.00000 2875.78232 0.00037
25.62021 2712.00000 2860.75755 0.00037
25.63021 2675.00000 2846.98453 0.00037
25.64021 2730.00000 2834.39252 0.00037
25.65021 2664.00000 2822.90208 0.00038
25.66021 2703.00000 2812.42816 0.00037
25.67021 2666.00000 2802.88306 0.00038
25.68021 2663.00000 2794.17886 0.00038
25.69021 2772.00000 2786.22947 0.00036
25.70021 2817.00000 2778.95232 0.00035
25.71021 2707.00000 2772.26962 0.00037
25.72021 2703.00000 2766.10925 0.00037
25.73021 2683.00000 2760.40538 0.00037
25.74021 2594.00000 2755.09872 0.00039
25.75021 2626.00000 2750.13660 0.00038
25.76021 2683.00000 2745.47284 0.00037
25.77021 2655.00000 2741.06770 0.00038
25.78021 2656.00000 2736.88741 0.00038
25.79021 2627.00000 2732.90382 0.00038
25.80021 2689.00000 2729.09460 0.00037
25.81021 2663.00000 2725.44371 0.00038
25.82021 2642.00000 2721.94402 0.00038
25.83021 2627.00000 2718.61707 0.00038
25.84021 2675.00000 2715.46391 0.00037
25.85021 2620.00000 2712.23217 0.00038
25.86021 2673.00000 2708.98987 0.00037
25.87021 2613.00000 2705.80350 0.00038
25.88021 2508.00000 2702.67578 0.00040
25.89021 2641.00000 2699.60128 0.00038
25.90021 2588.00000 2696.57537 0.00039
25.91021 2663.00000 2693.59408 0.00038
25.92021 2565.00000 2690.65397 0.00039
25.93021 2685.00000 2687.75206 0.00037
25.94021 2640.00000 2684.88572 0.00038
25.95021 2603.00000 2682.05261 0.00038
25.96021 2619.00000 2679.25067 0.00038
25.97021 2694.00000 2676.47803 0.00037
25.98022 2600.00000 2673.73029 0.00038
25.99022 2672.00000 2671.01141 0.00037
26.00022 2602.00000 2668.31725 0.00038
26.01022 2637.00000 2665.64655 0.00038
26.02022 2566.00000 2662.99817 0.00039
26.03022 2486.00000 2660.37103 0.00040
26.04022 2528.00000 2657.76418 0.00040
26.05022 2557.00000 2655.17672 0.00039
26.06022 2642.00000 2652.60783 0.00038
26.07022 2626.00000 2650.05676 0.00038
26.08022 2560.00000 2647.52281 0.00039
26.09022 2608.00000 2645.00533 0.00038
26.10022 2565.00000 2642.50375 0.00039
26.11022 2563.00000 2640.01751 0.00039
26.12022 2552.00000 2637.54613 0.00039
26.13022 2534.00000 2635.08913 0.00039
26.14022 2593.00000 2632.64611 0.00039
26.15022 2514.00000 2630.21667 0.00040
26.16022 2580.00000 2627.80046 0.00039
26.17022 2516.00000 2625.39716 0.00040
26.18022 2606.00000 2623.00648 0.00038
26.19022 2482.00000 2620.62815 0.00040
26.20022 2586.00000 2618.26192 0.00039
26.21022 2531.00000 2615.90758 0.00040
26.22022 2517.00000 2613.56493 0.00040
26.23022 2493.00000 2611.23380 0.00040
26.24022 2515.00000 2608.91404 0.00040
26.25022 2511.00000 2606.60551 0.00040
26.26022 2523.00000 2604.30810 0.00040
26.27022 2551.00000 2602.02171 0.00039
26.28022 2530.00000 2599.74624 0.00040
26.29022 2438.00000 2597.48165 0.00041
26.30022 2501.00000 2595.22788 0.00040
26.31022 2522.00000 2592.98489 0.00040
26.32022 2518.00000 2590.75267 0.00040
26.33022 2464.00000 2588.53120 0.00041
26.34022 2489.00000 2586.32050 0.00040
26.35022 2484.00000 2584.12058 0.00040
26.36022 2537.00000 2581.93148 0.00039
26.37022 2524.00000 2579.75324 0.00040
26.38022 2516.00000 2577.58593 0.00040
26.39022 2475.00000 2575.42961 0.00040
26.40022 2574.00000 2573.28438 0.00039
26.41022 2523.00000 2571.15032 0.00040
26.42023 2473.00000 2569.02543 0.00040
26.43023 2428.00000 2566.91408 0.00041
26.44023 2581.00000 2564.81426 0.00039
26.45023 2497.00000 2562.72614 0.00040
26.46023 2525.00000 2560.64987 0.00040
26.47023 2473.00000 2558.58564 0.00040
26.48023 2409.00000 2556.53363 0.00042
26.49023 2457.00000 2554.49405 0.00041
26.50023 2431.00000 2552.46712 0.00041
26.51023 2404.00000 2550.45306 0.00042
26.52023 2499.00000 2548.45214 0.00040
26.53023 2536.00000 2546.46461 0.00039
26.54023 2457.00000 2544.49075 0.00041
26.55023 2414.00000 2542.53086 0.00041
26.56023 2497.00000 2540.58526 0.00040
26.57023 2391.00000 2538.65427 0.00042
26.58023 2413.00000 2536.73825 0.00041
26.59023 2457.00000 2534.83759 0.00041
26.60023 2454.00000 2532.95265 0.00041
26.61023 2433.00000 2531.08388 0.00041
26.62023 2397.00000 2529.23171 0.00042
26.63023 2390.00000 2527.39661 0.00042
26.64023 2427.00000 2525.57909 0.00041
26.65023 2431.00000 2523.77969 0.00041
26.66023 2422.00000 2521.99898 0.00041
26.67023 2383.00000 2520.23757 0.00042
26.68023 2416.00000 2518.49615 0.00041
26.69023 2415.00000 2516.77545 0.00041
26.70023 2437.00000 2515.07632 0.00041
26.71023 2378.00000 2513.39976 0.00042
26.72023 2500.00000 2511.74690 0.00040
26.73023 2459.00000 2510.11916 0.00041
26.74023 2442.00000 2508.51854 0.00041
26.75023 2426.00000 2506.94821 0.00041
26.76023 2477.00000 2505.41708 0.00040
26.77023 2442.00000 2503.92759 0.00041
26.78023 2343.00000 2502.42416 0.00043
26.79023 2392.00000 2500.93842 0.00042
26.80023 2360.00000 2499.48094 0.00042
26.81023 2404.00000 2498.05324 0.00042
26.82023 2455.00000 2496.65645 0.00041
26.83023 2520.00000 2495.29178 0.00040
26.84023 2360.00000 2493.96051 0.00042
26.85023 2276.00000 2492.66396 0.00044
26.86024 2324.00000 2491.40233 0.00043
26.87024 2257.00000 2490.17961 0.00044
26.88024 2269.00000 2488.99610 0.00044
26.89024 2396.00000 2487.85346 0.00042
26.90024 2401.00000 2486.75345 0.00042
26.91024 2341.00000 2485.69791 0.00043
26.92024 2371.00000 2484.68879 0.00042
26.93024 2407.00000 2483.72814 0.00042
26.94024 2387.00000 2482.81814 0.00042
26.95024 2423.00000 2481.96105 0.00041
26.96024 2401.00000 2481.15929 0.00042
26.97024 2431.00000 2480.41537 0.00041
26.98024 2373.00000 2479.73196 0.00042
26.99024 2286.00000 2479.11185 0.00044
27.00024 2400.00000 2478.55798 0.00042
27.01024 2378.00000 2478.07343 0.00042
27.02024 2376.00000 2477.66143 0.00042
27.03024 2353.00000 2477.32539 0.00042
27.04024 2358.00000 2477.06884 0.00042
27.05024 2438.00000 2476.89552 0.00041
27.06024 2367.00000 2476.80930 0.00042
27.07024 2359.00000 2476.81424 0.00042
27.08024 2406.00000 2476.91459 0.00042
27.09024 2377.00000 2477.11476 0.00042
27.10024 2268.00000 2477.41935 0.00044
27.11024 2331.00000 2477.83312 0.00043
27.12024 2381.00000 2478.36106 0.00042
27.13024 2384.00000 2479.00829 0.00042
27.14024 2323.00000 2479.78014 0.00043
27.15024 2368.00000 2480.68212 0.00042
27.16024 2312.00000 2481.71990 0.00043
27.17024 2294.00000 2482.89934 0.00044
27.18024 2381.00000 2484.22645 0.00042
27.19024 2327.00000 2485.70739 0.00043
27.20024 2328.00000 2487.34847 0.00043
27.21024 2373.00000 2489.15613 0.00042
27.22024 2329.00000 2491.13694 0.00043
27.23024 2382.00000 2493.29753 0.00042
27.24024 2305.00000 2495.64463 0.00043
27.25024 2334.00000 2498.18503 0.00043
27.26024 2352.00000 2500.92550 0.00043
27.27024 2346.00000 2503.87283 0.00043
27.28024 2319.00000 2507.03373 0.00043
27.29025 2376.00000 2510.41840 0.00042
27.30025 2339.00000 2514.02636 0.00043
27.31025 2337.00000 2517.86723 0.00043
27.32025 2300.00000 2521.94696 0.00043
27.33025 2274.00000 2526.27115 0.00044
27.34025 2399.00000 2530.84498 0.00042
27.35025 2376.00000 2535.67306 0.00042
27.36025 2332.00000 2540.75938 0.00043
27.37025 2320.00000 2546.10718 0.00043
27.38025 2359.00000 2551.71879 0.00042
27.39025 2405.00000 2557.59551 0.00042
27.40025 2404.00000 2563.73747 0.00042
27.41025 2317.00000 2570.14341 0.00043
27.42025 2379.00000 2576.81056 0.00042
27.43025 2398.00000 2583.73442 0.00042
27.44025 2481.00000 2590.90851 0.00040
27.45025 2447.00000 2598.32424 0.00041
27.46025 2395.00000 2605.97057 0.00042
27.47025 2364.00000 2613.83388 0.00042
27.48025 2336.00000 2621.89765 0.00043
27.49025 2512.00000 2630.14225 0.00040
27.50025 2532.00000 2638.54469 0.00039
27.51025 2534.00000 2647.07841 0.00039
27.52025 2577.00000 2655.71305 0.00039
27.53025 2629.00000 2664.41431 0.00038
27.54025 2679.00000 2673.14382 0.00037
27.55025 2584.00000 2681.85911 0.00039
27.56025 2659.00000 2690.51370 0.00038
27.57025 2587.00000 2699.05739 0.00039
27.58025 2805.00000 2707.43771 0.00036
27.59025 2793.00000 2715.60090 0.00036
27.60025 2828.00000 2723.47561 0.00035
27.61025 2926.00000 2730.96570 0.00034
27.62025 3004.00000 2738.02333 0.00033
27.63025 3009.00000 2744.58547 0.00033
27.64025 3045.00000 2750.58216 0.00033
27.65025 2967.00000 2755.94397 0.00034
27.66025 2950.00000 2760.60333 0.00034
27.67025 2992.00000 2764.49589 0.00033
27.68025 2939.00000 2767.56191 0.00034
27.69025 3009.00000 2769.74773 0.00033
27.70025 3012.00000 2771.00714 0.00033
27.71025 2946.00000 2771.30266 0.00034
27.72025 2946.00000 2770.60671 0.00034
27.73026 2913.00000 2768.89988 0.00034
27.74026 2898.00000 2766.18108 0.00035
27.75026 2863.00000 2762.45518 0.00035
27.76026 2873.00000 2757.74045 0.00035
27.77026 2854.00000 2752.06662 0.00035
27.78026 2880.00000 2745.47422 0.00035
27.79026 2796.00000 2738.01357 0.00036
27.80026 2831.00000 2729.74363 0.00035
27.81026 2756.00000 2720.73051 0.00036
27.82026 2759.00000 2711.04596 0.00036
27.83026 2748.00000 2700.76578 0.00036
27.84026 2663.00000 2689.96823 0.00038
27.85026 2693.00000 2678.73251 0.00037
27.86026 2569.00000 2667.13742 0.00039
27.87026 2583.00000 2655.26009 0.00039
27.88026 2631.00000 2643.17500 0.00038
27.89026 2545.00000 2630.95319 0.00039
27.90026 2516.00000 2618.66164 0.00040
27.91026 2432.00000 2606.36288 0.00041
27.92026 2552.00000 2594.11476 0.00039
27.93026 2490.00000 2581.97050 0.00040
27.94026 2415.00000 2569.97876 0.00041
27.95026 2354.00000 2558.18390 0.00042
27.96026 2305.00000 2546.62637 0.00043
27.97026 2319.00000 2535.34314 0.00043
27.98026 2281.00000 2524.36824 0.00044
27.99026 2294.00000 2513.73332 0.00044
28.00026 2257.00000 2503.46829 0.00044
28.01026 2289.00000 2493.60199 0.00044
28.02026 2262.00000 2484.16286 0.00044
28.03026 2332.00000 2475.17965 0.00043
28.04026 2208.00000 2466.68222 0.00045
28.05026 2225.00000 2458.70222 0.00045
28.06026 2307.00000 2451.27399 0.00043
28.07026 2244.00000 2444.43530 0.00045
28.08026 2215.00000 2438.22824 0.00045
28.09026 2244.00000 2432.70004 0.00045
28.10026 2206.00000 2427.90403 0.00045
28.11026 2175.00000 2423.90044 0.00046
28.12026 2212.00000 2420.75742 0.00045
28.13026 2223.00000 2418.55175 0.00045
28.14026 2222.00000 2417.36962 0.00045
28.15026 2170.00000 2417.30775 0.00046
28.16026 2220.00000 2418.47538 0.00045
28.17027 2143.00000 2421.00632 0.00047
28.18027 2220.00000 2425.01895 0.00045
28.19027 2245.00000 2430.51959 0.00045
28.20027 2160.00000 2437.71780 0.00046
28.21027 2169.00000 2446.77377 0.00046
28.22027 2182.00000 2457.83026 0.00046
28.23027 2190.00000 2471.02785 0.00046
28.24027 2230.00000 2486.50061 0.00045
28.25027 2272.00000 2504.37061 0.00044
28.26027 2226.00000 2524.74167 0.00045
28.27027 2288.00000 2547.69244 0.00044
28.28027 2218.00000 2573.26862 0.00045
28.29027 2211.00000 2601.47495 0.00045
28.30027 2249.00000 2632.26683 0.00044
28.31027 2382.00000 2665.54199 0.00042
28.32027 2381.00000 2701.13250 0.00042
28.33027 2396.00000 2738.79726 0.00042
28.34027 2392.00000 2778.21550 0.00042
28.35027 2530.00000 2818.98135 0.00040
28.36027 2507.00000 2860.59955 0.00040
28.37027 2533.00000 2902.48296 0.00039
28.38027 2630.00000 2943.95302 0.00038
28.39027 2720.00000 2984.24524 0.00037
28.40027 2711.00000 3022.53627 0.00037
28.41027 2713.00000 3057.91993 0.00037
28.42027 2813.00000 3089.14387 0.00036
28.43027 2857.00000 3115.06198 0.00035
28.44027 2936.00000 3134.86745 0.00034
28.45027 2830.00000 3147.75404 0.00035
28.46027 2824.00000 3152.86311 0.00035
28.47027 2786.00000 3149.61624 0.00036
28.48027 2751.00000 3137.75403 0.00036
28.49027 2857.00000 3117.36913 0.00035
28.50027 2705.00000 3088.92053 0.00037
28.51027 2673.00000 3053.20362 0.00037
28.52027 2650.00000 3011.27982 0.00038
28.53027 2579.00000 2964.37991 0.00039
28.54027 2524.00000 2913.80085 0.00040
28.55027 2511.00000 2860.81428 0.00040
28.56027 2439.00000 2806.59806 0.00041
28.57027 2407.00000 2752.19399 0.00042
28.58027 2407.00000 2698.48868 0.00042
28.59027 2437.00000 2646.21121 0.00041
28.60028 2340.00000 2595.89127 0.00043
28.61028 2311.00000 2548.07381 0.00043
28.62028 2225.00000 2503.02774 0.00045
28.63028 2167.00000 2460.96665 0.00046
28.64028 2201.00000 2422.01085 0.00045
28.65028 2197.00000 2386.20039 0.00046
28.66028 2191.00000 2353.50746 0.00046
28.67028 2168.00000 2323.84799 0.00046
28.68028 2054.00000 2297.09289 0.00049
28.69028 2136.00000 2273.07855 0.00047
28.70028 2017.00000 2251.61674 0.00050
28.71028 2124.00000 2232.50364 0.00047
28.72028 2183.00000 2215.52785 0.00046
28.73028 2069.00000 2200.47745 0.00048
28.74028 2018.00000 2187.14570 0.00050
28.75028 2043.00000 2175.33575 0.00049
28.76028 2028.00000 2164.86409 0.00049
28.77028 2040.00000 2155.56292 0.00049
28.78028 2001.00000 2147.28165 0.00050
28.79028 2059.00000 2139.88755 0.00049
28.80028 2156.00000 2133.26564 0.00046
28.81028 2028.00000 2127.31825 0.00049
28.82028 2095.00000 2121.96403 0.00048
28.83028 2025.00000 2117.13683 0.00049
28.84028 2016.00000 2112.78440 0.00050
28.85028 2029.00000 2108.86706 0.00049
28.86028 2072.00000 2105.35639 0.00048
28.87028 2002.00000 2102.23394 0.00050
28.88028 1981.00000 2099.49005 0.00050
28.89028 2013.00000 2097.12276 0.00050
28.90028 2051.00000 2095.13679 0.00049
28.91028 2045.00000 2093.54253 0.00049
28.92028 2006.00000 2092.35509 0.00050
28.93028 1976.00000 2091.59334 0.00051
28.94028 2048.00000 2091.27888 0.00049
28.95028 1971.00000 2091.43489 0.00051
28.96028 1970.00000 2092.08498 0.00051
28.97028 2037.00000 2093.25172 0.00049
28.98028 1975.00000 2094.95517 0.00051
28.99028 2018.00000 2097.21121 0.00050
29.00028 2055.00000 2100.02968 0.00049
29.01028 2085.00000 2103.41254 0.00048
29.02028 2032.00000 2107.35188 0.00049
29.03028 2107.00000 2111.82800 0.00047
29.04029 2147.00000 2116.81255 0.00047
29.05029 2100.00000 2122.24722 0.00048
29.06029 2107.00000 2128.07096 0.00047
29.07029 2074.00000 2134.20010 0.00048
29.08029 2111.00000 2140.53208 0.00047
29.09029 2148.00000 2146.94493 0.00047
29.10029 2115.00000 2153.29725 0.00047
29.11029 2164.00000 2159.42883 0.00046
29.12029 2115.00000 2165.16199 0.00047
29.13029 2193.00000 2170.30412 0.00046
29.14029 2235.00000 2174.65179 0.00045
29.15029 2126.00000 2177.99710 0.00047
29.16029 2224.00000 2180.13679 0.00045
29.17029 2293.00000 2180.88454 0.00044
29.18029 2218.00000 2180.08579 0.00045
29.19029 2247.00000 2177.63390 0.00045
29.20029 2229.00000 2173.48477 0.00045
29.21029 2250.00000 2167.66654 0.00044
29.22029 2136.00000 2160.28143 0.00047
29.23029 2195.00000 2151.49828 0.00046
29.24029 2155.00000 2141.53694 0.00046
29.25029 2110.00000 2130.64786 0.00047
29.26029 2108.00000 2119.09120 0.00047
29.27029 2092.00000 2107.11904 0.00048
29.28029 1984.00000 2094.96262 0.00050
29.29029 2006.00000 2082.82497 0.00050
29.30029 2032.00000 2070.87780 0.00049
29.31029 2164.00000 2059.26157 0.00046
29.32029 2100.00000 2048.08709 0.00048
29.33029 1988.00000 2037.43798 0.00050
29.34029 1971.00000 2027.37345 0.00051
29.35029 2048.00000 2017.93103 0.00049
29.36029 2078.00000 2009.12931 0.00048
29.37029 1975.00000 2000.97046 0.00051
29.38029 2002.00000 1993.44288 0.00050
29.39029 2022.00000 1986.52374 0.00049
29.40029 1951.00000 1980.18134 0.00051
29.41029 1996.00000 1974.37743 0.00050
29.42029 1982.00000 1969.06943 0.00050
29.43029 1924.00000 1964.21231 0.00052
29.44029 1936.00000 1959.76029 0.00052
29.45029 1997.00000 1955.66826 0.00050
29.46029 1952.00000 1951.89294 0.00051
29.47029 1887.00000 1948.39366 0.00053
29.48030 1897.00000 1945.12976 0.00053
29.49030 1958.00000 1942.07411 0.00051
29.50030 1918.00000 1939.19307 0.00052
29.51030 1947.00000 1936.46023 0.00051
29.52030 1897.00000 1933.85269 0.00053
29.53030 1891.00000 1931.35080 0.00053
29.54030 1912.00000 1928.93791 0.00052
29.55030 1878.00000 1926.59983 0.00053
29.56030 1916.00000 1924.32463 0.00052
29.57030 1920.00000 1922.10222 0.00052
29.58030 1895.00000 1919.92395 0.00053
29.59030 1935.00000 1917.78207 0.00052
29.60030 1912.00000 1915.66921 0.00052
29.61030 1927.00000 1913.57742 0.00052
29.62030 1895.00000 1911.49560 0.00053
29.63030 1959.00000 1909.39303 0.00051
29.64030 1912.00000 1907.26699 0.00052
29.65030 1960.00000 1905.33336 0.00051
29.66030 1870.00000 1903.40772 0.00053
29.67030 1848.00000 1901.52685 0.00054
29.68030 1973.00000 1899.66583 0.00051
29.69030 1949.00000 1897.82375 0.00051
29.70030 1903.00000 1895.99982 0.00053
29.71030 1847.00000 1894.19339 0.00054
29.72030 1890.00000 1892.40389 0.00053
29.73030 1941.00000 1890.63083 0.00052
29.74030 1927.00000 1888.87383 0.00052
29.75030 1881.00000 1887.13255 0.00053
29.76030 1894.00000 1885.40678 0.00053
29.77030 1897.00000 1883.69634 0.00053
29.78030 1931.00000 1882.00120 0.00052
29.79030 1899.00000 1880.32141 0.00053
29.80030 1909.00000 1878.65720 0.00052
29.81030 1957.00000 1877.00895 0.00051
29.82030 1944.00000 1875.37738 0.00051
29.83030 1926.00000 1873.76376 0.00052
29.84030 1816.00000 1872.17021 0.00055
29.85030 1920.00000 1870.60013 0.00052
29.86030 1904.00000 1869.05991 0.00053
29.87030 1882.00000 1867.56572 0.00053
29.88030 1843.00000 1866.14703 0.00054
29.89030 1860.00000 1864.75496 0.00054
29.90030 1872.00000 1863.22530 0.00053
29.91031 1832.00000 1861.67241 0.00055
29.92031 1923.00000 1860.13134 0.00052
29.93031 1871.00000 1858.60072 0.00053
29.94031 1863.00000 1857.08049 0.00054
29.95031 1892.00000 1855.57057 0.00053
29.96031 1894.00000 1854.07094 0.00053
29.97031 1825.00000 1852.58154 0.00055
29.98031 1869.00000 1851.10235 0.00054
29.99031 1895.00000 1849.63335 0.00053
30.00031 1872.00000 1848.17453 0.00053
30.01031 1878.00000 1846.72591 0.00053
30.02031 1884.00000 1845.28748 0.00053
30.03031 1869.00000 1843.85926 0.00054
30.04031 1895.00000 1842.44130 0.00053
30.05031 1877.00000 1841.03362 0.00053
30.06031 1863.00000 1839.63628 0.00054
30.07031 1868.00000 1838.24933 0.00054
30.08031 1829.00000 1836.87285 0.00055
30.09031 1835.00000 1835.50690 0.00054
30.10031 1930.00000 1834.15157 0.00052
30.11031 1887.00000 1832.80696 0.00053
30.12031 1833.00000 1831.47318 0.00055
30.13031 1879.00000 1830.15034 0.00053
30.14031 1907.00000 1828.83857 0.00052
30.15031 1830.00000 1827.53800 0.00055
30.16031 1848.00000 1826.24878 0.00054
30.17031 1818.00000 1824.97107 0.00055
30.18031 1798.00000 1823.70504 0.00056
30.19031 1920.00000 1822.45088 0.00052
30.20031 1842.00000 1821.20878 0.00054
30.21031 1833.00000 1819.97894 0.00055
30.22031 1884.00000 1818.76160 0.00053
30.23031 1835.00000 1817.55698 0.00054
30.24031 1832.00000 1816.36534 0.00055
30.25031 1869.00000 1815.18695 0.00054
30.26031 1903.00000 1814.02209 0.00053
30.27031 1866.00000 1812.87106 0.00054
30.28031 1805.00000 1811.73418 0.00055
30.29031 1825.00000 1810.61179 0.00055
30.30031 1836.00000 1809.50425 0.00054
30.31031 1861.00000 1808.41194 0.00054
30.32031 1809.00000 1807.33525 0.00055
30.33031 1849.00000 1806.27462 0.00054
30.34031 1834.00000 1805.23050 0.00055
30.35032 1850.00000 1804.20235 0.00054
30.36032 1868.00000 1803.19273 0.00054
30.37032 1904.00000 1802.20115 0.00053
30.38032 1856.00000 1801.22817 0.00054
30.39032 1809.00000 1800.27439 0.00055
30.40032 1809.00000 1799.34047 0.00055
30.41032 1880.00000 1798.42707 0.00053
30.42032 1849.00000 1797.53493 0.00054
30.43032 1845.00000 1796.66480 0.00054
30.44032 1820.00000 1795.81752 0.00055
30.45032 1791.00000 1794.99393 0.00056
30.46032 1803.00000 1794.19497 0.00055
30.47032 1792.00000 1793.42161 0.00056
30.48032 1811.00000 1792.67490 0.00055
30.49032 1826.00000 1791.95596 0.00055
30.50032 1842.00000 1791.26597 0.00054
30.51032 1825.00000 1790.60621 0.00055
30.52032 1798.00000 1789.97804 0.00056
30.53032 1784.00000 1789.38290 0.00056
30.54032 1759.00000 1788.82236 0.00057
30.55032 1845.00000 1788.29810 0.00054
30.56032 1817.00000 1787.81190 0.00055
30.57032 1863.00000 1787.36573 0.00054
30.58032 1816.00000 1786.96166 0.00055
30.59032 1777.00000 1786.60199 0.00056
30.60032 1812.00000 1786.28917 0.00055
30.61032 1784.00000 1786.02590 0.00056
30.62032 1849.00000 1785.81512 0.00054
30.63032 1798.00000 1785.66008 0.00056
30.64032 1769.00000 1785.56435 0.00057
30.65032 1814.00000 1785.53188 0.00055
30.66032 1789.00000 1785.56708 0.00056
30.67032 1869.00000 1785.67488 0.00054
30.68032 1842.00000 1785.86084 0.00054
30.69032 1884.00000 1786.13121 0.00053
30.70032 1782.00000 1786.49312 0.00056
30.71032 1803.00000 1786.95466 0.00055
30.72032 1807.00000 1787.52514 0.00055
30.73032 1886.00000 1788.21519 0.00053
30.74032 1837.00000 1789.03713 0.00054
30.75032 1838.00000 1790.00514 0.00054
30.76032 1845.00000 1791.13564 0.00054
30.77032 1815.00000 1792.44771 0.00055
30.78032 1849.00000 1793.96343 0.00054
30.79033 1821.00000 1795.71033 0.00055
30.80033 1768.00000 1797.71473 0.00057
30.81033 1785.00000 1800.01279 0.00056
30.82033 1852.00000 1802.64451 0.00054
30.83033 1861.00000 1805.65609 0.00054
30.84033 1831.00000 1809.10086 0.00055
30.85033 1850.00000 1813.04017 0.00054
30.86033 1912.00000 1817.54433 0.00052
30.87033 1830.00000 1822.69360 0.00055
30.88033 1798.00000 1828.57921 0.00056
30.89033 1894.00000 1835.30433 0.00053
30.90033 1960.00000 1842.98480 0.00051
30.91033 1843.00000 1851.74995 0.00054
30.92033 1855.00000 1861.74301 0.00054
30.93033 2000.00000 1873.12122 0.00050
30.94033 1910.00000 1886.05551 0.00052
30.95033 1923.00000 1900.72975 0.00052
30.96033 1930.00000 1917.33915 0.00052
30.97033 1899.00000 1936.08820 0.00053
30.98033 1952.00000 1957.18752 0.00051
30.99033 2055.00000 1980.84997 0.00049
31.00033 2009.00000 2007.28577 0.00050
31.01033 2074.00000 2036.69665 0.00048
31.02033 2137.00000 2069.26903 0.00047
31.03033 2125.00000 2105.16628 0.00047
31.04033 2220.00000 2144.52021 0.00045
31.05033 2264.00000 2187.42185 0.00044
31.06033 2318.00000 2233.91173 0.00043
31.07033 2417.00000 2283.96984 0.00041
31.08033 2405.00000 2337.50541 0.00042
31.09033 2528.00000 2394.34716 0.00040
31.10033 2512.00000 2454.23385 0.00040
31.11033 2568.00000 2516.80497 0.00039
31.12033 2815.00000 2581.59197 0.00036
31.13033 2895.00000 2648.00865 0.00035
31.14033 2961.00000 2715.32549 0.00034
31.15033 2973.00000 2782.71598 0.00034
31.16033 3065.00000 2849.48814 0.00033
31.17033 3189.00000 2914.49969 0.00031
31.18033 3209.00000 2976.50631 0.00031
31.19033 3303.00000 3034.22836 0.00030
31.20033 3268.00000 3086.31923 0.00031
31.21033 3445.00000 3131.39490 0.00029
31.22034 3355.00000 3168.12119 0.00030
31.23034 3358.00000 3195.14715 0.00030
31.24034 3281.00000 3211.41696 0.00030
31.25034 3301.00000 3216.10840 0.00030
31.26034 3229.00000 3208.76466 0.00031
31.27034 3002.00000 3189.36227 0.00033
31.28034 3080.00000 3158.34006 0.00032
31.29034 3090.00000 3116.57913 0.00032
31.30034 2980.00000 3065.33447 0.00034
31.31034 3005.00000 3006.13013 0.00033
31.32034 2828.00000 2940.63756 0.00035
31.33034 2818.00000 2870.55801 0.00035
31.34034 2875.00000 2797.52513 0.00035
31.35034 2752.00000 2723.03587 0.00036
31.36034 2675.00000 2648.41010 0.00037
31.37034 2639.00000 2574.77429 0.00038
31.38034 2524.00000 2503.06203 0.00040
31.39034 2490.00000 2434.02489 0.00040
31.40034 2321.00000 2368.24836 0.00043
31.41034 2316.00000 2306.16925 0.00043
31.42034 2342.00000 2248.09316 0.00043
31.43034 2192.00000 2194.21076 0.00046
31.44034 2162.00000 2144.61317 0.00046
31.45034 2124.00000 2099.30629 0.00047
31.46034 2151.00000 2058.22435 0.00046
31.47034 2071.00000 2021.24282 0.00048
31.48034 2050.00000 1988.19066 0.00049
31.49034 1987.00000 1958.86193 0.00050
31.50034 1968.00000 1933.02653 0.00051
31.51034 1968.00000 1910.44000 0.00051
31.52034 1906.00000 1890.85227 0.00052
31.53034 1980.00000 1874.01519 0.00051
31.54034 1948.00000 1859.68880 0.00051
31.55034 1918.00000 1847.64635 0.00052
31.56034 1926.00000 1837.67805 0.00052
31.57034 2008.00000 1829.59361 0.00050
31.58034 1950.00000 1823.22374 0.00051
31.59034 1952.00000 1818.42059 0.00051
31.60034 1965.00000 1815.05744 0.00051
31.61034 2013.00000 1813.02770 0.00050
31.62034 2022.00000 1812.24317 0.00049
31.63034 2060.00000 1812.63191 0.00049
31.64034 1934.00000 1814.13525 0.00052
31.65034 2056.00000 1816.70090 0.00049
31.66035 2087.00000 1820.29720 0.00048
31.67035 2127.00000 1824.94538 0.00047
31.68035 2167.00000 1830.59319 0.00046
31.69035 2119.00000 1837.21018 0.00047
31.70035 2171.00000 1844.77522 0.00046
31.71035 2190.00000 1853.26702 0.00046
31.72035 2234.00000 1862.66969 0.00045
31.73035 2184.00000 1872.96231 0.00046
31.74035 2233.00000 1884.01481 0.00045
31.75035 2226.00000 1895.69970 0.00045
31.76035 2252.00000 1908.01197 0.00044
31.77035 2290.00000 1920.88135 0.00044
31.78035 2179.00000 1934.20012 0.00046
31.79035 2145.00000 1947.84166 0.00047
31.80035 2203.00000 1961.65939 0.00045
31.81035 2126.00000 1975.48561 0.00047
31.82035 2161.00000 1989.13087 0.00046
31.83035 2176.00000 2002.38395 0.00046
31.84035 2124.00000 2015.01294 0.00047
31.85035 2158.00000 2026.76790 0.00046
31.86035 2123.00000 2037.38537 0.00047
31.87035 2171.00000 2046.59556 0.00046
31.88035 2180.00000 2054.13210 0.00046
31.89035 2142.00000 2059.74470 0.00047
31.90035 2205.00000 2063.21393 0.00045
31.91035 2236.00000 2064.36698 0.00045
31.92035 2199.00000 2063.09256 0.00045
31.93035 2195.00000 2059.35277 0.00046
31.94035 2251.00000 2053.18974 0.00044
31.95035 2297.00000 2044.72548 0.00044
31.96035 2235.00000 2034.15452 0.00045
31.97035 2270.00000 2021.73036 0.00044
31.98035 2295.00000 2007.74758 0.00044
31.99035 2242.00000 1992.52238 0.00045
32.00035 2255.00000 1976.37414 0.00044
32.01035 2294.00000 1959.60998 0.00044
32.02035 2223.00000 1942.51335 0.00045
32.03035 2159.00000 1925.33691 0.00046
32.04035 2122.00000 1908.29917 0.00047
32.05035 2224.00000 1891.58407 0.00045
32.06035 2123.00000 1875.34256 0.00047
32.07035 2131.00000 1859.69536 0.00047
32.08035 2158.00000 1844.73619 0.00046
32.09035 2131.00000 1830.53516 0.00047
32.10035 2131.00000 1817.14188 0.00047
32.11036 2064.00000 1804.57667 0.00048
32.12035 2063.00000 1792.89176 0.00048
32.13036 1990.00000 1782.04609 0.00050
32.14035 2045.00000 1772.07484 0.00049
32.15036 1944.00000 1762.92384 0.00051
32.16035 1910.00000 1754.60497 0.00052
32.17036 1868.00000 1747.05690 0.00054
32.18036 1951.00000 1740.26818 0.00051
32.19036 1937.00000 1734.19333 0.00052
32.20036 1918.00000 1728.79185 0.00052
32.21036 1892.00000 1724.02158 0.00053
32.22036 1823.00000 1719.83951 0.00055
32.23036 1787.00000 1716.20254 0.00056
32.24036 1832.00000 1713.06805 0.00055
32.25036 1831.00000 1710.39445 0.00055
32.26036 1868.00000 1708.14151 0.00054
32.27036 1851.00000 1706.27073 0.00054
32.28036 1891.00000 1704.74543 0.00053
32.29036 1772.00000 1703.53097 0.00056
32.30036 1851.00000 1702.59469 0.00054
32.31036 1882.00000 1701.90592 0.00053
32.32036 1831.00000 1701.43588 0.00055
32.33036 1841.00000 1701.15758 0.00054
32.34036 1861.00000 1701.04563 0.00054
32.35036 1868.00000 1701.07609 0.00054
32.36036 1891.00000 1701.22625 0.00053
32.37036 1940.00000 1701.47452 0.00052
32.38036 1868.00000 1701.80020 0.00054
32.39036 1963.00000 1702.18336 0.00051
32.40036 1869.00000 1702.60467 0.00054
32.41036 1880.00000 1703.04534 0.00053
32.42036 1823.00000 1703.48704 0.00055
32.43036 1895.00000 1703.91183 0.00053
32.44036 1871.00000 1704.30216 0.00053
32.45036 1898.00000 1704.64094 0.00053
32.46036 1961.00000 1704.91155 0.00051
32.47036 1950.00000 1705.09795 0.00051
32.48036 1893.00000 1705.18481 0.00053
32.49036 1858.00000 1705.15763 0.00054
32.50036 1865.00000 1705.00289 0.00054
32.51036 1851.00000 1704.70827 0.00054
32.52036 1936.00000 1704.26276 0.00052
32.53036 1911.00000 1703.65683 0.00052
32.54036 1908.00000 1702.88262 0.00052
32.55037 1932.00000 1701.93297 0.00052
32.56036 1878.00000 1700.80688 0.00053
32.57037 1927.00000 1699.49742 0.00052
32.58036 1870.00000 1698.00965 0.00053
32.59037 1854.00000 1696.33914 0.00054
32.60036 1897.00000 1694.49624 0.00053
32.61037 1831.00000 1692.47880 0.00055
32.62037 1805.00000 1690.29974 0.00055
32.63037 1830.00000 1687.96562 0.00055
32.64037 1805.00000 1685.48627 0.00055
32.65037 1816.00000 1682.87260 0.00055
32.66037 1839.00000 1680.13640 0.00054
32.67037 1884.00000 1677.29009 0.00053
32.68037 1821.00000 1674.34648 0.00055
32.69037 1812.00000 1671.31859 0.00055
32.70037 1738.00000 1668.21942 0.00058
32.71037 1847.00000 1665.06174 0.00054
32.72037 1803.00000 1661.85802 0.00055
32.73037 1831.00000 1658.62019 0.00055
32.74037 1810.00000 1655.35959 0.00055
32.75037 1767.00000 1652.08688 0.00057
32.76037 1712.00000 1648.81196 0.00058
32.77037 1796.00000 1645.54396 0.00056
32.78037 1692.00000 1642.29117 0.00059
32.79037 1673.00000 1639.06109 0.00060
32.80037 1726.00000 1635.86044 0.00058
32.81037 1719.00000 1632.69512 0.00058
32.82037 1686.00000 1629.57033 0.00059
32.83037 1711.00000 1626.49054 0.00058
32.84037 1655.00000 1623.45958 0.00060
32.85037 1652.00000 1620.48066 0.00061
32.86037 1677.00000 1617.55643 0.00060
32.87037 1695.00000 1614.68904 0.00059
32.88037 1694.00000 1611.88015 0.00059
32.89037 1702.00000 1609.13103 0.00059
32.90037 1700.00000 1606.44256 0.00059
32.91037 1690.00000 1603.81531 0.00059
32.92037 1709.00000 1601.24952 0.00059
32.93037 1629.00000 1598.74521 0.00061
32.94037 1676.00000 1596.30217 0.00060
32.95037 1673.00000 1593.91998 0.00060
32.96037 1689.00000 1591.59808 0.00059
32.97038 1716.00000 1589.33353 0.00058
32.98037 1712.00000 1587.13216 0.00058
32.99038 1641.00000 1584.98428 0.00061
33.00037 1624.00000 1582.89741 0.00062
33.01038 1631.00000 1580.86216 0.00061
33.02037 1649.00000 1578.88550 0.00061
33.03038 1606.00000 1576.95838 0.00062
33.04037 1730.00000 1575.08727 0.00058
33.05038 1564.00000 1573.26348 0.00064
33.06038 1676.00000 1571.49132 0.00060
33.07038 1671.00000 1569.76769 0.00060
33.08038 1589.00000 1568.09136 0.00063
33.09038 1606.00000 1566.46112 0.00062
33.10038 1614.00000 1564.87573 0.00062
33.11038 1627.00000 1563.33399 0.00061
33.12038 1681.00000 1561.83473 0.00059
33.13038 1627.00000 1560.37678 0.00061
33.14038 1604.00000 1558.95899 0.00062
33.15038 1588.00000 1557.58026 0.00063
33.16038 1648.00000 1556.23951 0.00061
33.17038 1557.00000 1554.93567 0.00064
33.18038 1625.00000 1553.66772 0.00062
33.19038 1584.00000 1552.43468 0.00063
33.20038 1618.00000 1551.23559 0.00062
33.21038 1597.00000 1550.06953 0.00063
33.22038 1683.00000 1548.93562 0.00059
33.23038 1639.00000 1547.83303 0.00061
33.24038 1575.00000 1546.76093 0.00063
33.25038 1569.00000 1545.71857 0.00064
33.26038 1573.00000 1544.70521 0.00064
33.27038 1541.00000 1543.72016 0.00065
33.28038 1633.00000 1542.76277 0.00061
33.29038 1629.00000 1541.83242 0.00061
33.30038 1649.00000 1540.92857 0.00061
33.31038 1584.00000 1540.05069 0.00063
33.32038 1575.00000 1539.19831 0.00063
33.33038 1554.00000 1538.37104 0.00064
33.34038 1614.00000 1537.56852 0.00062
33.35038 1654.00000 1536.79052 0.00060
33.36038 1554.00000 1536.03698 0.00064
33.37038 1641.00000 1535.30812 0.00061
33.38038 1572.00000 1534.60477 0.00064
33.39038 1637.00000 1533.93028 0.00061
33.40038 1674.00000 1533.28636 0.00060
33.41039 1626.00000 1532.64849 0.00062
33.42038 1577.00000 1532.02660 0.00063
33.43039 1549.00000 1531.42451 0.00065
33.44038 1622.00000 1530.84515 0.00062
33.45039 1531.00000 1530.28614 0.00065
33.46038 1563.00000 1529.74967 0.00064
33.47039 1622.00000 1529.23359 0.00062
33.48038 1516.00000 1528.73999 0.00066
33.49039 1567.00000 1528.26698 0.00064
33.50039 1574.00000 1527.81608 0.00064
33.51039 1598.00000 1527.38697 0.00063
33.52039 1562.00000 1526.97982 0.00064
33.53039 1602.00000 1526.59486 0.00062
33.54039 1569.00000 1526.23234 0.00064
33.55039 1579.00000 1525.89255 0.00063
33.56039 1610.00000 1525.57585 0.00062
33.57039 1534.00000 1525.28262 0.00065
33.58039 1589.00000 1525.01328 0.00063
33.59039 1587.00000 1524.76833 0.00063
33.60039 1602.00000 1524.54829 0.00062
33.61039 1586.00000 1524.35374 0.00063
33.62039 1575.00000 1524.18532 0.00063
33.63039 1580.00000 1524.04373 0.00063
33.64039 1582.00000 1523.92973 0.00063
33.65039 1623.00000 1523.84415 0.00062
33.66039 1602.00000 1523.78789 0.00062
33.67039 1609.00000 1523.76193 0.00062
33.68039 1555.00000 1523.76733 0.00064
33.69039 1531.00000 1523.80526 0.00065
33.70039 1622.00000 1523.87696 0.00062
33.71039 1590.00000 1523.98382 0.00063
33.72039 1557.00000 1524.12731 0.00064
33.73039 1592.00000 1524.30908 0.00063
33.74039 1576.00000 1524.53091 0.00063
33.75039 1636.00000 1524.79474 0.00061
33.76039 1585.00000 1525.10272 0.00063
33.77039 1509.00000 1525.45721 0.00066
33.78039 1581.00000 1525.86080 0.00063
33.79039 1562.00000 1526.31637 0.00064
33.80039 1496.00000 1526.82709 0.00067
33.81039 1587.00000 1527.39648 0.00063
33.82039 1534.00000 1528.02845 0.00065
33.83039 1596.00000 1528.72738 0.00063
33.84039 1553.00000 1529.49810 0.00064
33.85040 1588.00000 1530.34690 0.00063
33.86039 1576.00000 1531.27703 0.00063
33.87040 1598.00000 1532.29906 0.00063
33.88039 1592.00000 1533.41632 0.00063
33.89040 1610.00000 1534.64178 0.00062
33.90039 1509.00000 1535.97982 0.00066
33.91040 1534.00000 1537.44644 0.00065
33.92039 1556.00000 1539.04732 0.00064
33.93040 1549.00000 1540.80212 0.00065
33.94040 1510.00000 1542.72025 0.00066
33.95040 1571.00000 1544.81958 0.00064
33.96040 1653.00000 1547.11825 0.00060
33.97040 1577.00000 1549.63662 0.00063
33.98040 1669.00000 1552.39553 0.00060
33.99040 1581.00000 1555.41354 0.00063
34.00040 1525.00000 1558.71917 0.00066
34.01040 1602.00000 1562.34131 0.00062
34.02040 1586.00000 1566.31001 0.00063
34.03040 1545.00000 1570.65753 0.00065
34.04040 1574.00000 1575.41832 0.00064
34.05040 1591.00000 1580.62893 0.00063
34.06040 1565.00000 1586.32776 0.00064
34.07040 1605.00000 1592.55482 0.00062
34.08040 1582.00000 1599.35103 0.00063
34.09040 1542.00000 1606.75774 0.00065
34.10040 1606.00000 1614.81588 0.00062
34.11040 1634.00000 1623.56382 0.00061
34.12040 1620.00000 1633.03265 0.00062
34.13040 1624.00000 1643.22324 0.00062
34.14040 1620.00000 1654.14163 0.00062
34.15040 1552.00000 1666.07938 0.00064
34.16040 1644.00000 1679.16333 0.00061
34.17040 1646.00000 1693.25214 0.00061
34.18040 1693.00000 1708.34100 0.00059
34.19040 1689.00000 1724.45340 0.00059
34.20040 1701.00000 1741.60537 0.00059
34.21040 1721.00000 1759.80387 0.00058
34.22040 1760.00000 1779.04536 0.00057
34.23040 1802.00000 1799.31417 0.00055
34.24040 1782.00000 1820.58098 0.00056
34.25040 1931.00000 1842.80107 0.00052
34.26040 2015.00000 1865.91256 0.00050
34.27040 1919.00000 1889.83456 0.00052
34.28040 1942.00000 1914.46525 0.00051
34.29041 2044.00000 1939.70553 0.00049
34.30040 1983.00000 1965.32917 0.00050
34.31041 2105.00000 1991.26272 0.00048
34.32040 2100.00000 2017.19822 0.00048
34.33041 2175.00000 2043.00521 0.00046
34.34040 2136.00000 2068.31728 0.00047
34.35041 2165.00000 2092.94129 0.00046
34.36040 2142.00000 2116.45908 0.00047
34.37041 2197.00000 2138.61804 0.00046
34.38041 2186.00000 2158.98772 0.00046
34.39041 2210.00000 2177.21870 0.00045
34.40041 2277.00000 2192.94153 0.00044
34.41041 2205.00000 2205.80361 0.00045
34.42041 2208.00000 2215.48557 0.00045
34.43041 2196.00000 2221.71889 0.00046
34.44041 2219.00000 2224.30294 0.00045
34.45041 2199.00000 2223.11982 0.00045
34.46041 2163.00000 2218.14487 0.00046
34.47041 2122.00000 2209.45146 0.00047
34.48041 2090.00000 2197.20891 0.00048
34.49041 2115.00000 2181.67366 0.00047
34.50041 2129.00000 2163.17458 0.00047
34.51041 2066.00000 2142.09420 0.00048
34.52041 2088.00000 2118.84812 0.00048
34.53041 2014.00000 2093.86500 0.00050
34.54041 2037.00000 2067.56900 0.00049
34.55041 2025.00000 2040.36868 0.00049
34.56041 2031.00000 2012.64548 0.00049
34.57041 2013.00000 1984.69989 0.00050
34.58041 1968.00000 1956.76488 0.00051
34.59041 1918.00000 1929.12664 0.00052
34.60041 1852.00000 1902.00761 0.00054
34.61041 1803.00000 1875.57699 0.00055
34.62041 1789.00000 1849.96974 0.00056
34.63041 1802.00000 1825.29081 0.00055
34.64041 1805.00000 1801.61894 0.00055
34.65041 1704.00000 1779.01023 0.00059
34.66041 1802.00000 1757.50131 0.00055
34.67041 1728.00000 1737.11220 0.00058
34.68041 1643.00000 1717.84881 0.00061
34.69041 1746.00000 1699.70509 0.00057
34.70041 1715.00000 1682.66490 0.00058
34.71041 1626.00000 1666.70369 0.00062
34.72041 1663.00000 1651.78994 0.00060
34.73042 1608.00000 1637.87333 0.00062
34.74041 1565.00000 1624.95167 0.00064
34.75042 1604.00000 1612.92909 0.00062
34.76041 1631.00000 1601.80515 0.00061
34.77042 1612.00000 1591.48696 0.00062
34.78041 1605.00000 1581.96491 0.00062
34.79042 1590.00000 1573.15137 0.00063
34.80042 1534.00000 1565.02342 0.00065
34.81042 1619.00000 1557.52324 0.00062
34.82042 1501.00000 1550.60333 0.00067
34.83042 1517.00000 1544.21795 0.00066
34.84042 1546.00000 1538.32340 0.00065
34.85042 1539.00000 1532.87822 0.00065
34.86042 1450.00000 1527.84338 0.00069
34.87042 1572.00000 1523.18236 0.00064
34.88042 1578.00000 1518.86120 0.00063
34.89042 1560.00000 1514.84850 0.00064
34.90042 1499.00000 1511.11540 0.00067
34.91042 1565.00000 1507.63547 0.00064
34.92042 1492.00000 1504.38467 0.00067
34.93042 1541.00000 1501.34116 0.00065
34.94042 1466.00000 1498.48524 0.00068
34.95042 1511.00000 1495.79917 0.00066
34.96042 1513.00000 1493.26703 0.00066
34.97042 1529.00000 1490.87457 0.00065
34.98042 1498.00000 1488.60906 0.00067
34.99042 1524.00000 1486.45916 0.00066
35.00042 1490.00000 1484.41477 0.00067
35.01042 1524.00000 1482.46689 0.00066
35.02042 1544.00000 1480.60755 0.00065
35.03042 1435.00000 1478.82962 0.00070
35.04042 1515.00000 1477.12678 0.00066
35.05042 1522.00000 1475.49337 0.00066
35.06042 1517.00000 1473.92437 0.00066
35.07042 1433.00000 1472.41525 0.00070
35.08042 1527.00000 1470.96198 0.00065
35.09042 1473.00000 1469.56090 0.00068
35.10042 1457.00000 1468.20874 0.00069
35.11042 1488.00000 1466.90251 0.00067
35.12042 1429.00000 1465.63951 0.00070
35.13042 1484.00000 1464.41728 0.00067
35.14042 1397.00000 1463.23355 0.00072
35.15042 1468.00000 1462.08626 0.00068
35.16042 1469.00000 1460.97349 0.00068
35.17043 1522.00000 1459.89243 0.00066
35.18042 1534.00000 1458.84460 0.00065
35.19043 1426.00000 1457.82432 0.00070
35.20042 1458.00000 1456.83423 0.00069
35.21043 1453.00000 1455.86905 0.00069
35.22042 1471.00000 1454.93140 0.00068
35.23043 1499.00000 1454.01637 0.00067
35.24043 1497.00000 1453.12565 0.00067
35.25043 1410.00000 1452.25727 0.00071
35.26043 1483.00000 1451.41029 0.00067
35.27043 1456.00000 1450.58378 0.00069
35.28043 1454.00000 1449.77689 0.00069
35.29043 1471.00000 1448.98881 0.00068
35.30043 1369.00000 1448.21878 0.00073
35.31043 1450.00000 1447.46606 0.00069
35.32043 1463.00000 1446.72997 0.00068
35.33043 1496.00000 1446.00985 0.00067
35.34043 1507.00000 1445.30510 0.00066
35.35043 1392.00000 1444.61511 0.00072
35.36043 1395.00000 1443.93934 0.00072
35.37043 1434.00000 1443.27726 0.00070
35.38043 1420.00000 1442.62836 0.00070
35.39043 1480.00000 1441.99216 0.00068
35.40043 1420.00000 1441.36822 0.00070
35.41043 1459.00000 1440.75608 0.00069
35.42043 1458.00000 1440.15535 0.00069
35.43043 1464.00000 1439.56558 0.00068
35.44043 1517.00000 1438.98641 0.00066
35.45043 1475.00000 1438.41746 0.00068
35.46043 1455.00000 1437.85837 0.00069
35.47043 1418.00000 1437.30878 0.00071
35.48043 1429.00000 1436.76838 0.00070
35.49043 1367.00000 1436.23683 0.00073
35.50043 1394.00000 1435.71381 0.00072
35.51043 1463.00000 1435.19904 0.00068
35.52043 1511.00000 1434.69221 0.00066
35.53043 1447.00000 1434.19302 0.00069
35.54043 1409.00000 1433.70119 0.00071
35.55043 1462.00000 1433.21643 0.00068
35.56043 1457.00000 1432.73847 0.00069
35.57043 1441.00000 1432.26698 0.00069
35.58043 1463.00000 1431.80169 0.00068
35.59044 1450.00000 1431.34182 0.00069
35.60043 1420.00000 1430.88841 0.00070
35.61044 1494.00000 1430.43927 0.00067
35.62043 1404.00000 1429.99579 0.00071
35.63044 1387.00000 1429.55570 0.00072
35.64043 1484.00000 1429.12015 0.00067
35.65044 1421.00000 1428.68650 0.00070
35.66043 1420.00000 1428.25533 0.00070
35.67044 1435.00000 1427.82318 0.00070
35.68044 1382.00000 1427.38845 0.00072
35.69044 1506.00000 1426.94474 0.00066
35.70044 1368.00000 1426.47453 0.00073
35.71044 1420.00000 1425.97935 0.00070
35.72044 1396.00000 1425.58061 0.00072
35.73044 1420.00000 1425.20553 0.00070
35.74044 1435.00000 1424.83513 0.00070
35.75044 1486.00000 1424.46923 0.00067
35.76044 1454.00000 1424.10772 0.00069
35.77044 1454.00000 1423.75052 0.00069
35.78044 1389.00000 1423.39755 0.00072
35.79044 1387.00000 1423.04872 0.00072
35.80044 1378.00000 1422.70395 0.00073
35.81044 1443.00000 1422.36316 0.00069
35.82044 1428.00000 1422.02629 0.00070
35.83044 1449.00000 1421.69326 0.00069
35.84044 1450.00000 1421.36401 0.00069
35.85044 1424.00000 1421.03847 0.00070
35.86044 1422.00000 1420.71658 0.00070
35.87044 1358.00000 1420.39828 0.00074
35.88044 1435.00000 1420.08351 0.00070
35.89044 1509.00000 1419.77222 0.00066
35.90044 1408.00000 1419.46436 0.00071
35.91044 1381.00000 1419.15988 0.00072
35.92044 1374.00000 1418.85873 0.00073
35.93044 1420.00000 1418.56086 0.00070
35.94044 1349.00000 1418.26624 0.00074
35.95044 1399.00000 1417.97482 0.00071
35.96044 1396.00000 1417.68656 0.00072
35.97044 1408.00000 1417.40142 0.00071
35.98044 1429.00000 1417.11938 0.00070
35.99044 1424.00000 1416.84039 0.00070
36.00044 1522.00000 1416.56442 0.00066
36.01044 1459.00000 1416.29144 0.00069
36.02044 1339.00000 1416.02143 0.00075
36.03045 1344.00000 1415.75410 0.00074
36.04044 1452.00000 1415.49020 0.00069
36.05045 1399.00000 1415.22867 0.00071
36.06044 1337.00000 1414.97053 0.00075
36.07045 1368.00000 1414.71472 0.00073
36.08044 1367.00000 1414.46224 0.00073
36.09045 1424.00000 1414.21207 0.00070
36.10044 1408.00000 1413.96519 0.00071
36.11045 1405.00000 1413.72059 0.00071
36.12045 1333.00000 1413.47901 0.00075
36.13045 1345.00000 1413.24018 0.00074
36.14045 1375.00000 1413.00409 0.00073
36.15045 1367.00000 1412.77074 0.00073
36.16045 1386.00000 1412.54011 0.00072
36.17045 1362.00000 1412.31220 0.00073
36.18045 1370.00000 1412.08700 0.00073
36.19045 1411.00000 1411.86451 0.00071
36.20045 1436.00000 1411.64473 0.00070
36.21045 1367.00000 1411.42766 0.00073
36.22045 1407.00000 1411.21329 0.00071
36.23045 1415.00000 1411.00163 0.00071
36.24045 1410.00000 1410.79268 0.00071
36.25045 1367.00000 1410.58644 0.00073
36.26045 1346.00000 1410.38292 0.00074
36.27045 1428.00000 1410.18213 0.00070
36.28045 1375.00000 1409.98408 0.00073
36.29045 1417.00000 1409.78876 0.00071
36.30045 1405.00000 1409.59621 0.00071
36.31045 1385.00000 1409.40641 0.00072
36.32045 1421.00000 1409.21936 0.00070
36.33045 1370.00000 1409.03508 0.00073
36.34045 1397.00000 1408.85355 0.00072
36.35045 1403.00000 1408.67481 0.00071
36.36045 1388.00000 1408.49882 0.00072
36.37045 1423.00000 1408.32561 0.00070
36.38045 1467.00000 1408.15518 0.00068
36.39045 1412.00000 1407.98752 0.00071
36.40045 1373.00000 1407.82265 0.00073
36.41045 1394.00000 1407.66056 0.00072
36.42045 1340.00000 1407.50125 0.00075
36.43045 1448.00000 1407.34471 0.00069
36.44045 1413.00000 1407.19095 0.00071
36.45045 1364.00000 1407.03996 0.00073
36.46045 1405.00000 1406.89170 0.00071
36.47046 1443.00000 1406.74605 0.00069
36.48045 1369.00000 1406.60338 0.00073
36.49046 1342.00000 1406.46311 0.00075
36.50045 1403.00000 1406.32574 0.00071
36.51046 1435.00000 1406.19066 0.00070
36.52045 1398.00000 1406.05835 0.00072
36.53046 1415.00000 1405.92815 0.00071
36.54045 1375.00000 1405.80046 0.00073
36.55046 1350.00000 1405.67459 0.00074
36.56046 1407.00000 1405.55065 0.00071
36.57046 1386.00000 1405.42816 0.00072
36.58046 1381.00000 1405.30649 0.00072
36.59046 1365.00000 1405.18487 0.00073
36.60046 1441.00000 1405.06215 0.00069
36.61046 1404.00000 1404.93643 0.00071
36.62046 1415.00000 1404.80437 0.00071
36.63046 1395.00000 1404.65810 0.00072
36.64046 1410.00000 1404.47903 0.00071
36.65046 1372.00000 1404.28515 0.00073
36.66046 1384.00000 1404.19653 0.00072
36.67046 1336.00000 1404.12919 0.00075
36.68046 1436.00000 1404.06633 0.00070
36.69046 1381.00000 1404.00801 0.00072
36.70046 1363.00000 1403.95434 0.00073
36.71046 1360.00000 1403.90541 0.00074
36.72046 1423.00000 1403.86134 0.00070
36.73046 1452.00000 1403.82223 0.00069
36.74046 1345.00000 1403.78819 0.00074
36.75046 1434.00000 1403.75935 0.00070
36.76046 1411.00000 1403.73583 0.00071
36.77046 1381.00000 1403.71775 0.00072
36.78046 1422.00000 1403.70527 0.00070
36.79046 1418.00000 1403.69851 0.00071
36.80046 1353.00000 1403.69762 0.00074
36.81046 1395.00000 1403.70276 0.00072
36.82046 1413.00000 1403.71409 0.00071
36.83046 1431.00000 1403.73177 0.00070
36.84046 1361.00000 1403.75597 0.00073
36.85046 1370.00000 1403.78689 0.00073
36.86046 1403.00000 1403.82470 0.00071
36.87046 1421.00000 1403.86961 0.00070
36.88046 1398.00000 1403.92183 0.00072
36.89046 1388.00000 1403.98156 0.00072
36.90046 1348.00000 1404.04904 0.00074
36.91047 1324.00000 1404.12458 0.00076
36.92046 1382.00000 1404.20819 0.00072
36.93047 1394.00000 1404.30047 0.00072
36.94046 1434.00000 1404.40130 0.00070
36.95047 1384.00000 1404.51139 0.00072
36.96046 1342.00000 1404.63057 0.00075
36.97047 1371.00000 1404.75965 0.00073
36.98046 1403.00000 1404.89842 0.00071
36.99047 1347.00000 1405.04778 0.00074
37.00047 1352.00000 1405.20765 0.00074
37.01047 1392.00000 1405.37854 0.00072
37.02047 1328.00000 1405.56083 0.00075
37.03047 1350.00000 1405.75493 0.00074
37.04047 1408.00000 1405.96126 0.00071
37.05047 1395.00000 1406.18026 0.00072
37.06047 1383.00000 1406.41239 0.00072
37.07047 1385.00000 1406.65812 0.00072
37.08047 1355.00000 1406.91796 0.00074
37.09047 1363.00000 1407.19243 0.00073
37.10047 1404.00000 1407.48208 0.00071
37.11047 1376.00000 1407.78747 0.00073
37.12047 1373.00000 1408.10921 0.00073
37.13047 1404.00000 1408.44790 0.00071
37.14047 1358.00000 1408.80419 0.00074
37.15047 1372.00000 1409.17876 0.00073
37.16047 1416.00000 1409.57230 0.00071
37.17047 1393.00000 1409.98553 0.00072
37.18047 1370.00000 1410.41923 0.00073
37.19047 1346.00000 1410.87415 0.00074
37.20047 1401.00000 1411.35114 0.00071
37.21047 1374.00000 1411.85102 0.00073
37.22047 1379.00000 1412.37468 0.00073
37.23047 1373.00000 1412.92302 0.00073
37.24047 1405.00000 1413.49699 0.00071
37.25047 1374.00000 1414.09756 0.00073
37.26047 1408.00000 1414.72574 0.00071
37.27047 1390.00000 1415.38256 0.00072
37.28047 1350.00000 1416.06911 0.00074
37.29047 1378.00000 1416.78649 0.00073
37.30047 1356.00000 1417.53584 0.00074
37.31047 1337.00000 1418.31833 0.00075
37.32047 1343.00000 1419.13518 0.00074
37.33047 1370.00000 1419.98762 0.00073
37.34047 1372.00000 1420.87693 0.00073
37.35048 1369.00000 1421.80538 0.00073
37.36047 1383.00000 1422.77143 0.00072
37.37048 1394.00000 1423.78035 0.00072
37.38047 1352.00000 1424.82948 0.00074
37.39048 1367.00000 1425.92447 0.00073
37.40047 1392.00000 1427.06236 0.00072
37.41048 1347.00000 1428.24923 0.00074
37.42048 1376.00000 1429.48305 0.00073
37.43048 1430.00000 1430.76650 0.00070
37.44048 1412.00000 1432.10112 0.00071
37.45048 1353.00000 1433.48844 0.00074
37.46048 1418.00000 1434.93002 0.00071
37.47048 1357.00000 1436.42740 0.00074
37.48048 1396.00000 1437.98212 0.00072
37.49048 1373.00000 1439.59574 0.00073
37.50048 1372.00000 1441.26975 0.00073
37.51048 1413.00000 1443.00567 0.00071
37.52048 1349.00000 1444.80494 0.00074
37.53048 1399.00000 1446.66897 0.00071
37.54048 1398.00000 1448.59914 0.00072
37.55048 1373.00000 1450.59671 0.00073
37.56048 1439.00000 1452.66288 0.00069
37.57048 1360.00000 1454.79876 0.00074
37.58048 1372.00000 1457.00532 0.00073
37.59048 1347.00000 1459.28340 0.00074
37.60048 1368.00000 1461.63367 0.00073
37.61048 1364.00000 1464.05662 0.00073
37.62048 1433.00000 1466.55251 0.00070
37.63048 1423.00000 1469.12140 0.00070
37.64048 1376.00000 1471.76304 0.00073
37.65048 1419.00000 1474.47690 0.00070
37.66048 1394.00000 1477.26211 0.00072
37.67048 1414.00000 1480.11745 0.00071
37.68048 1409.00000 1483.04126 0.00071
37.69048 1397.00000 1486.03150 0.00072
37.70048 1456.00000 1489.08562 0.00069
37.71048 1437.00000 1492.20058 0.00070
37.72048 1397.00000 1495.37283 0.00072
37.73048 1385.00000 1498.59825 0.00072
37.74048 1427.00000 1501.87216 0.00070
37.75048 1423.00000 1505.18930 0.00070
37.76048 1368.00000 1508.54381 0.00073
37.77048 1384.00000 1511.92926 0.00072
37.78048 1419.00000 1515.33867 0.00070
37.79049 1462.00000 1518.76795 0.00068
37.80048 1443.00000 1522.19885 0.00069
37.81049 1404.00000 1525.63667 0.00071
37.82048 1528.00000 1529.05902 0.00065
37.83049 1463.00000 1532.47063 0.00068
37.84048 1410.00000 1535.84895 0.00071
37.85049 1456.00000 1539.19850 0.00069
37.86049 1397.00000 1542.50057 0.00072
37.87049 1430.00000 1545.75026 0.00070
37.88049 1489.00000 1548.93995 0.00067
37.89049 1476.00000 1552.06288 0.00068
37.90049 1407.00000 1555.11335 0.00071
37.91049 1458.00000 1558.08696 0.00069
37.92049 1376.00000 1560.98083 0.00073
37.93049 1391.00000 1563.79379 0.00072
37.94049 1433.00000 1566.52659 0.00070
37.95049 1411.00000 1569.18206 0.00071
37.96049 1475.00000 1571.76524 0.00068
37.97049 1472.00000 1574.28347 0.00068
37.98049 1456.00000 1576.74647 0.00069
37.99049 1417.00000 1579.16632 0.00071
38.00049 1364.00000 1581.55745 0.00073
38.01049 1398.00000 1583.93658 0.00072
38.02049 1421.00000 1586.32254 0.00070
38.03049 1475.00000 1588.73618 0.00068
38.04049 1417.00000 1591.20013 0.00071
38.05049 1471.00000 1593.73861 0.00068
38.06049 1432.00000 1596.37719 0.00070
38.07049 1474.00000 1599.14251 0.00068
38.08049 1463.00000 1602.06202 0.00068
38.09049 1427.00000 1605.16374 0.00070
38.10049 1447.00000 1608.47596 0.00069
38.11049 1497.00000 1612.02701 0.00067
38.12049 1439.00000 1615.84498 0.00069
38.13049 1456.00000 1619.95748 0.00069
38.14049 1449.00000 1624.39143 0.00069
38.15049 1434.00000 1629.17281 0.00070
38.16049 1479.00000 1634.32643 0.00068
38.17049 1450.00000 1639.87574 0.00069
38.18049 1516.00000 1645.84256 0.00066
38.19049 1497.00000 1652.24692 0.00067
38.20049 1548.00000 1659.10676 0.00065
38.21049 1522.00000 1666.43770 0.00066
38.22049 1540.00000 1674.25276 0.00065
38.23050 1544.00000 1682.57065 0.00065
38.24049 1577.00000 1691.37243 0.00063
38.25050 1635.00000 1700.69676 0.00061
38.26049 1630.00000 1710.50542 0.00061
38.27050 1646.00000 1720.83255 0.00061
38.28049 1700.00000 1731.62647 0.00059
38.29050 1751.00000 1742.91476 0.00057
38.30050 1713.00000 1754.64223 0.00058
38.31050 1834.00000 1766.79129 0.00055
38.32050 1799.00000 1779.32586 0.00056
38.33050 1808.00000 1792.20182 0.00055
38.34050 1767.00000 1805.36643 0.00057
38.35050 1846.00000 1818.75764 0.00054
38.36050 1797.00000 1832.30361 0.00056
38.37050 1870.00000 1845.92227 0.00053
38.38050 1955.00000 1859.52107 0.00051
38.39050 1931.00000 1872.99704 0.00052
38.40050 1943.00000 1886.23709 0.00051
38.41050 2005.00000 1899.11873 0.00050
38.42050 1945.00000 1911.51145 0.00051
38.43050 1984.00000 1923.27912 0.00050
38.44050 1914.00000 1934.28409 0.00052
38.45050 1927.00000 1944.39836 0.00052
38.46050 1862.00000 1953.48117 0.00054
38.47050 1948.00000 1961.27332 0.00051
38.48050 1919.00000 1967.69192 0.00052
38.49050 1985.00000 1972.64725 0.00050
38.50050 1963.00000 1976.03959 0.00051
38.51050 1899.00000 1977.79158 0.00053
38.52050 1921.00000 1977.85552 0.00052
38.53050 1927.00000 1976.22857 0.00052
38.54050 1966.00000 1972.94933 0.00051
38.55050 1972.00000 1967.93551 0.00051
38.56050 1852.00000 1961.07862 0.00054
38.57050 1898.00000 1952.58821 0.00053
38.58050 1882.00000 1942.61942 0.00053
38.59050 1882.00000 1931.29905 0.00053
38.60050 1875.00000 1918.76779 0.00053
38.61050 1942.00000 1905.17654 0.00051
38.62050 1825.00000 1890.68175 0.00055
38.63050 1840.00000 1875.44097 0.00054
38.64050 1840.00000 1859.60924 0.00054
38.65051 1779.00000 1843.31941 0.00056
38.66050 1757.00000 1826.76226 0.00057
38.67051 1705.00000 1810.00385 0.00059
38.68050 1713.00000 1793.23399 0.00058
38.69051 1694.00000 1776.50160 0.00059
38.70050 1665.00000 1759.98610 0.00060
38.71051 1702.00000 1743.74265 0.00059
38.72050 1655.00000 1728.02515 0.00060
38.73051 1676.00000 1712.94309 0.00060
38.74051 1630.00000 1697.94199 0.00061
38.75051 1648.00000 1682.86778 0.00061
38.76051 1595.00000 1668.12003 0.00063
38.77051 1521.00000 1653.83038 0.00066
38.78051 1530.00000 1640.01822 0.00065
38.79051 1596.00000 1626.69540 0.00063
38.80051 1578.00000 1613.86923 0.00063
38.81051 1484.00000 1601.54328 0.00067
38.82051 1516.00000 1589.71794 0.00066
38.83051 1488.00000 1578.39104 0.00067
38.84051 1529.00000 1567.55851 0.00065
38.85051 1442.00000 1557.21505 0.00069
38.86051 1411.00000 1547.35508 0.00071
38.87051 1460.00000 1537.97462 0.00068
38.88051 1364.00000 1529.07371 0.00073
38.89051 1416.00000 1520.66278 0.00071
38.90051 1382.00000 1512.79396 0.00072
38.91051 1368.00000 1505.52949 0.00073
38.92051 1406.00000 1498.54511 0.00071
38.93051 1413.00000 1491.59447 0.00071
38.94051 1395.00000 1484.91313 0.00072
38.95051 1407.00000 1478.56606 0.00071
38.96051 1416.00000 1472.53891 0.00071
38.97051 1406.00000 1466.81585 0.00071
38.98051 1337.00000 1461.38111 0.00075
38.99051 1305.00000 1456.21896 0.00077
39.00051 1365.00000 1451.31348 0.00073
39.01051 1332.00000 1446.64834 0.00075
39.02051 1353.00000 1442.20638 0.00074
39.03051 1365.00000 1437.96792 0.00073
39.04051 1326.00000 1433.90370 0.00075
39.05051 1375.00000 1429.97297 0.00073
39.06051 1422.00000 1426.21869 0.00070
39.07051 1350.00000 1422.78519 0.00074
39.08051 1355.00000 1419.54696 0.00074
39.09052 1294.00000 1416.45996 0.00077
39.10051 1323.00000 1413.52339 0.00076
39.11052 1328.00000 1410.71660 0.00075
39.12051 1365.00000 1408.04237 0.00073
39.13052 1310.00000 1405.48211 0.00076
39.14051 1352.00000 1403.03863 0.00074
39.15052 1357.00000 1400.69519 0.00074
39.16051 1309.00000 1398.45466 0.00076
39.17052 1366.00000 1396.30201 0.00073
39.18052 1341.00000 1394.23816 0.00075
39.19052 1383.00000 1392.25564 0.00072
39.20052 1339.00000 1390.34956 0.00075
39.21052 1351.00000 1388.51537 0.00074
39.22052 1352.00000 1386.74885 0.00074
39.23052 1315.00000 1385.04607 0.00076
39.24052 1343.00000 1383.40341 0.00074
39.25052 1317.00000 1381.81750 0.00076
39.26052 1292.00000 1380.28522 0.00077
39.27052 1361.00000 1378.80370 0.00073
39.28052 1300.00000 1377.37026 0.00077
39.29052 1239.00000 1375.98243 0.00081
39.30052 1288.00000 1374.63792 0.00078
39.31052 1333.00000 1373.33461 0.00075
39.32052 1302.00000 1372.07052 0.00077
39.33052 1281.00000 1370.84385 0.00078
39.34052 1270.00000 1369.65289 0.00079
39.35052 1294.00000 1368.49608 0.00077
39.36052 1340.00000 1367.37196 0.00075
39.37052 1275.00000 1366.27917 0.00078
39.38052 1335.00000 1365.21646 0.00075
39.39052 1249.00000 1364.18263 0.00080
39.40052 1289.00000 1363.17661 0.00078
39.41052 1352.00000 1362.19738 0.00074
39.42052 1291.00000 1361.24397 0.00077
39.43052 1295.00000 1360.31552 0.00077
39.44052 1332.00000 1359.41119 0.00075
39.45052 1286.00000 1358.53025 0.00078
39.46052 1271.00000 1357.67205 0.00079
39.47052 1330.00000 1356.83613 0.00075
39.48052 1282.00000 1356.02207 0.00078
39.49052 1366.00000 1355.22797 0.00073
39.50052 1346.00000 1354.45358 0.00074
39.51052 1283.00000 1353.69888 0.00078
39.52052 1314.00000 1352.96354 0.00076
39.53053 1368.00000 1352.24648 0.00073
39.54052 1251.00000 1351.54952 0.00080
39.55053 1282.00000 1350.86962 0.00078
39.56052 1295.00000 1350.20930 0.00077
39.57053 1352.00000 1349.56584 0.00074
39.58052 1284.00000 1348.94184 0.00078
39.59053 1268.00000 1348.33501 0.00079
39.60052 1365.00000 1347.74827 0.00073
39.61053 1288.00000 1347.18040 0.00078
39.62053 1294.00000 1346.63563 0.00077
39.63053 1255.00000 1346.12026 0.00080
39.64053 1289.00000 1345.64603 0.00078
39.65053 1315.00000 1345.19121 0.00076
39.66053 1290.00000 1344.70290 0.00078
39.67053 1298.00000 1344.21303 0.00077
39.68053 1259.00000 1343.73727 0.00079
39.69053 1321.00000 1343.27618 0.00076
39.70053 1358.00000 1342.82971 0.00074
39.71053 1282.00000 1342.39785 0.00078
39.72053 1275.00000 1341.98057 0.00078
39.73053 1292.00000 1341.57790 0.00077
39.74053 1251.00000 1341.18988 0.00080
39.75053 1308.00000 1340.81658 0.00076
39.76053 1306.00000 1340.45811 0.00077
39.77053 1301.00000 1340.11459 0.00077
39.78053 1307.00000 1339.78621 0.00077
39.79053 1263.00000 1339.47318 0.00079
39.80053 1256.00000 1339.17579 0.00080
39.81053 1266.00000 1338.89447 0.00079
39.82053 1315.00000 1338.62984 0.00076
39.83053 1313.00000 1338.38300 0.00076
39.84053 1235.00000 1338.15675 0.00081
39.85053 1270.00000 1337.95358 0.00079
39.86053 1233.00000 1337.75969 0.00081
39.87053 1260.00000 1337.57391 0.00079
39.88053 1350.00000 1337.40338 0.00074
39.89053 1301.00000 1337.25039 0.00077
39.90053 1297.00000 1337.11542 0.00077
39.91053 1370.00000 1336.99894 0.00073
39.92053 1273.00000 1336.90146 0.00079
39.93053 1288.00000 1336.82353 0.00078
39.94053 1322.00000 1336.76574 0.00076
39.95053 1272.00000 1336.72873 0.00079
39.96053 1319.00000 1336.71319 0.00076
39.97054 1291.00000 1336.71989 0.00077
39.98053 1244.00000 1336.74956 0.00080
39.99054 1281.00000 1336.80319 0.00078
40.00053 1234.00000 1336.88149 0.00081
40.01054 1234.00000 1336.98577 0.00081
40.02053 1314.00000 1337.11670 0.00076
40.03054 1341.00000 1337.27595 0.00075
40.04053 1296.00000 1337.46415 0.00077
40.05054 1294.00000 1337.68341 0.00077
40.06054 1277.00000 1337.93460 0.00078
40.07054 1336.00000 1338.21951 0.00075
40.08054 1279.00000 1338.53991 0.00078
40.09054 1204.00000 1338.89771 0.00083
40.10054 1298.00000 1339.29503 0.00077
40.11054 1289.00000 1339.73424 0.00078
40.12054 1305.00000 1340.21797 0.00077
40.13054 1311.00000 1340.74921 0.00076
40.14054 1346.00000 1341.33134 0.00074
40.15054 1325.00000 1341.96828 0.00075
40.16054 1281.00000 1342.66459 0.00078
40.17054 1342.00000 1343.42563 0.00075
40.18054 1336.00000 1344.25776 0.00075
40.19054 1287.00000 1345.16862 0.00078
40.20054 1397.00000 1346.16745 0.00072
40.21054 1343.00000 1347.26550 0.00074
40.22054 1277.00000 1348.47656 0.00078
40.23054 1313.00000 1349.81757 0.00076
40.24054 1340.00000 1351.30941 0.00075
40.25054 1293.00000 1352.97787 0.00077
40.26054 1369.00000 1354.85475 0.00073
40.27054 1319.00000 1356.97923 0.00076
40.28054 1346.00000 1359.39946 0.00074
40.29054 1332.00000 1362.17438 0.00075
40.30054 1275.00000 1365.37586 0.00078
40.31054 1260.00000 1369.09105 0.00079
40.32054 1343.00000 1373.42500 0.00074
40.33054 1354.00000 1378.50346 0.00074
40.34054 1431.00000 1384.47589 0.00070
40.35054 1386.00000 1391.51844 0.00072
40.36054 1342.00000 1399.83691 0.00075
40.37054 1379.00000 1409.66941 0.00073
40.38054 1349.00000 1421.28855 0.00074
40.39054 1339.00000 1435.00290 0.00075
40.40054 1452.00000 1451.15741 0.00069
40.41055 1479.00000 1470.15296 0.00068
40.42054 1424.00000 1492.34075 0.00070
40.43055 1436.00000 1518.25127 0.00070
40.44054 1468.00000 1548.24123 0.00068
40.45055 1495.00000 1582.90341 0.00067
40.46054 1549.00000 1622.56725 0.00065
40.47055 1645.00000 1667.84320 0.00061
40.48055 1645.00000 1719.01657 0.00061
40.49055 1798.00000 1776.48372 0.00056
40.50055 1803.00000 1840.51576 0.00055
40.51055 1917.00000 1911.27593 0.00052
40.52055 1978.00000 1988.79418 0.00051
40.53055 2032.00000 2072.94232 0.00049
40.54055 2261.00000 2163.41109 0.00044
40.55055 2336.00000 2259.69048 0.00043
40.56055 2455.00000 2361.05458 0.00041
40.57055 2562.00000 2466.55200 0.00039
40.58055 2715.00000 2575.00309 0.00037
40.59055 2857.00000 2685.00458 0.00035
40.60055 2844.00000 2794.94228 0.00035
40.61055 3171.00000 2903.01235 0.00032
40.62055 3129.00000 3007.25161 0.00032
40.63055 3281.00000 3105.57759 0.00030
40.64055 3393.00000 3195.83966 0.00029
40.65055 3355.00000 3275.88263 0.00030
40.66055 3409.00000 3343.62461 0.00029
40.67055 3550.00000 3397.14968 0.00028
40.68055 3539.00000 3434.81343 0.00028
40.69055 3464.00000 3455.35478 0.00029
40.70055 3625.00000 3458.00194 0.00028
40.71055 3602.00000 3442.55566 0.00028
40.72055 3590.00000 3409.43201 0.00028
40.73055 3693.00000 3359.65220 0.00027
40.74055 3597.00000 3294.77732 0.00028
40.75055 3530.00000 3216.79862 0.00028
40.76055 3397.00000 3128.00264 0.00029
40.77055 3406.00000 3030.83354 0.00029
40.78055 3351.00000 2927.77004 0.00030
40.79055 3111.00000 2821.22709 0.00032
40.80055 3036.00000 2713.48417 0.00033
40.81055 2876.00000 2606.63731 0.00035
40.82055 2833.00000 2502.56967 0.00035
40.83055 2672.00000 2402.93604 0.00037
40.84055 2558.00000 2309.15749 0.00039
40.85056 2351.00000 2222.34105 0.00043
40.86055 2243.00000 2143.70357 0.00045
40.87056 2152.00000 2073.69171 0.00046
40.88055 2133.00000 2013.15793 0.00047
40.89056 2011.00000 1962.26870 0.00050
40.90055 2029.00000 1921.49741 0.00049
40.91056 1923.00000 1890.83807 0.00052
40.92056 1892.00000 1870.47034 0.00053
40.93056 1870.00000 1860.36867 0.00053
40.94056 1881.00000 1860.50318 0.00053
40.95056 1791.00000 1870.82068 0.00056
40.96056 1832.00000 1891.25653 0.00055
40.97056 1838.00000 1921.74100 0.00054
40.98056 1857.00000 1962.19982 0.00054
40.99056 1948.00000 2012.54920 0.00051
41.00056 2030.00000 2072.68568 0.00049
41.01056 2020.00000 2142.47151 0.00050
41.02056 2190.00000 2221.71643 0.00046
41.03056 2337.00000 2310.15696 0.00043
41.04056 2369.00000 2407.43420 0.00042
41.05056 2509.00000 2513.07143 0.00040
41.06056 2590.00000 2626.45254 0.00039
41.07056 2809.00000 2746.80232 0.00036
41.08056 2965.00000 2873.16963 0.00034
41.09056 3141.00000 3004.41401 0.00032
41.10056 3311.00000 3139.19659 0.00030
41.11056 3326.00000 3275.97564 0.00030
41.12056 3557.00000 3413.00752 0.00028
41.13056 3745.00000 3548.35383 0.00027
41.14056 3867.00000 3679.89581 0.00026
41.15056 3854.00000 3805.35808 0.00026
41.16056 4051.00000 3922.34423 0.00025
41.17056 4081.00000 4028.38747 0.00025
41.18056 4142.00000 4121.01979 0.00024
41.19056 4186.00000 4197.86205 0.00024
41.20056 4220.00000 4256.73488 0.00024
41.21056 4176.00000 4295.78538 0.00024
41.22056 4269.00000 4313.61910 0.00023
41.23056 4219.00000 4309.42030 0.00024
41.24056 4235.00000 4283.04034 0.00024
41.25056 4185.00000 4235.03563 0.00024
41.26056 4111.00000 4166.64380 0.00024
41.27057 4078.00000 4079.60567 0.00025
41.28056 3926.00000 3976.50010 0.00025
41.29057 3959.00000 3859.53049 0.00025
41.30056 3890.00000 3731.90668 0.00026
41.31057 3621.00000 3595.88365 0.00028
41.32056 3488.00000 3454.65015 0.00029
41.33057 3385.00000 3310.11307 0.00030
41.34056 3221.00000 3165.08076 0.00031
41.35057 3109.00000 3020.95052 0.00032
41.36057 2967.00000 2879.86675 0.00034
41.37057 2768.00000 2743.12814 0.00036
41.38057 2805.00000 2611.92187 0.00036
41.39057 2427.00000 2487.19063 0.00041
41.40057 2396.00000 2369.64717 0.00042
41.41057 2315.00000 2259.79082 0.00043
41.42057 2255.00000 2157.92548 0.00044
41.43057 2176.00000 2064.17912 0.00046
41.44057 2006.00000 1978.52442 0.00050
41.45057 1904.00000 1900.80034 0.00053
41.46057 1891.00000 1830.73407 0.00053
41.47057 1819.00000 1767.96283 0.00055
41.48057 1701.00000 1712.05512 0.00059
41.49057 1676.00000 1662.53073 0.00060
41.50057 1599.00000 1618.87913 0.00063
41.51057 1609.00000 1580.57596 0.00062
41.52057 1623.00000 1547.09723 0.00062
41.53057 1524.00000 1517.93130 0.00066
41.54057 1531.00000 1492.58861 0.00065
41.55057 1505.00000 1470.60959 0.00066
41.56057 1491.00000 1451.57307 0.00067
41.57057 1498.00000 1435.09280 0.00067
41.58057 1494.00000 1420.77403 0.00067
41.59057 1376.00000 1408.31452 0.00073
41.60057 1417.00000 1397.44998 0.00071
41.61057 1427.00000 1387.94091 0.00070
41.62057 1405.00000 1379.57923 0.00071
41.63057 1402.00000 1372.18688 0.00071
41.64057 1343.00000 1365.61283 0.00074
41.65057 1389.00000 1359.72995 0.00072
41.66057 1408.00000 1354.43195 0.00071
41.67057 1396.00000 1349.63052 0.00072
41.68057 1366.00000 1345.25264 0.00073
41.69057 1363.00000 1341.23817 0.00073
41.70057 1392.00000 1337.53775 0.00072
41.71058 1365.00000 1334.10759 0.00073
41.72057 1339.00000 1330.92450 0.00075
41.73058 1362.00000 1327.94838 0.00073
41.74057 1340.00000 1325.16886 0.00075
41.75058 1285.00000 1322.55618 0.00078
41.76057 1420.00000 1320.10551 0.00070
41.77058 1387.00000 1317.79406 0.00072
41.78057 1311.00000 1315.62027 0.00076
41.79058 1341.00000 1313.56615 0.00075
41.80058 1334.00000 1311.63011 0.00075
41.81058 1356.00000 1309.80316 0.00074
41.82058 1386.00000 1308.07930 0.00072
41.83058 1346.00000 1306.45325 0.00074
41.84058 1333.00000 1304.92033 0.00075
41.85058 1288.00000 1303.47639 0.00078
41.86058 1319.00000 1302.11771 0.00076
41.87058 1345.00000 1300.84099 0.00074
41.88058 1292.00000 1299.64324 0.00077
41.89058 1304.00000 1298.52180 0.00077
41.90058 1321.00000 1297.47430 0.00076
41.91058 1314.00000 1296.49863 0.00076
41.92058 1275.00000 1295.59295 0.00078
41.93058 1332.00000 1294.75564 0.00075
41.94058 1246.00000 1293.98531 0.00080
41.95058 1325.00000 1293.28077 0.00075
41.96058 1329.00000 1292.64105 0.00075
41.97058 1282.00000 1292.06537 0.00078
41.98058 1340.00000 1291.55316 0.00075
41.99058 1260.00000 1291.10405 0.00079
42.00058 1284.00000 1290.71788 0.00078
42.01058 1336.00000 1290.39471 0.00075
42.02058 1286.00000 1290.13481 0.00078
42.03058 1236.00000 1289.93875 0.00081
42.04058 1216.00000 1289.80737 0.00082
42.05058 1316.00000 1289.74190 0.00076
42.06058 1319.00000 1289.74412 0.00076
42.07058 1318.00000 1289.81680 0.00076
42.08058 1321.00000 1289.96455 0.00076
42.09058 1316.00000 1290.19838 0.00076
42.10058 1335.00000 1290.52899 0.00075
42.11058 1320.00000 1290.90833 0.00076
42.12058 1257.00000 1291.33044 0.00080
42.13058 1336.00000 1291.82389 0.00075
42.14058 1314.00000 1292.39992 0.00076
42.15059 1281.00000 1293.06364 0.00078
42.16058 1252.00000 1293.81771 0.00080
42.17059 1325.00000 1294.67067 0.00075
42.18058 1281.00000 1295.62537 0.00078
42.19059 1340.00000 1296.69286 0.00075
42.20058 1275.00000 1297.87704 0.00078
42.21059 1340.00000 1299.19206 0.00075
42.22058 1352.00000 1300.64324 0.00074
42.23059 1378.00000 1302.24855 0.00073
42.24059 1282.00000 1304.01707 0.00078
42.25059 1371.00000 1305.96583 0.00073
42.26059 1369.00000 1308.11230 0.00073
42.27059 1271.00000 1310.47614 0.00079
42.28059 1247.00000 1313.07934 0.00080
42.29059 1331.00000 1315.94651 0.00075
42.30059 1321.00000 1319.10492 0.00076
42.31059 1318.00000 1322.58471 0.00076
42.32059 1310.00000 1326.41917 0.00076
42.33059 1370.00000 1330.64481 0.00073
42.34059 1313.00000 1335.30147 0.00076
42.35059 1382.00000 1340.43250 0.00072
42.36059 1330.00000 1346.08464 0.00075
42.37059 1307.00000 1352.30807 0.00077
42.38059 1314.00000 1359.15623 0.00076
42.39059 1316.00000 1366.68572 0.00076
42.40059 1308.00000 1374.95592 0.00076
42.41059 1353.00000 1384.02863 0.00074
42.42059 1340.00000 1393.96759 0.00075
42.43059 1426.00000 1404.83775 0.00070
42.44059 1375.00000 1416.70457 0.00073
42.45059 1399.00000 1429.63299 0.00071
42.46059 1362.00000 1443.68620 0.00073
42.47059 1388.00000 1458.92402 0.00072
42.48059 1430.00000 1475.40015 0.00070
42.49059 1544.00000 1493.15876 0.00065
42.50059 1405.00000 1512.22711 0.00071
42.51059 1502.00000 1532.58308 0.00067
42.52059 1522.00000 1554.18734 0.00066
42.53059 1512.00000 1577.37880 0.00066
42.54059 1578.00000 1602.38626 0.00063
42.55059 1624.00000 1628.94685 0.00062
42.56059 1697.00000 1656.96286 0.00059
42.57059 1748.00000 1686.39159 0.00057
42.58059 1739.00000 1717.17229 0.00058
42.59060 1798.00000 1749.25390 0.00056
42.60059 1968.00000 1782.42882 0.00051
42.61060 2014.00000 1816.69343 0.00050
42.62059 2054.00000 1851.74381 0.00049
42.63060 2117.00000 1887.52175 0.00047
42.64059 2145.00000 1923.65155 0.00047
42.65060 2219.00000 1960.00938 0.00045
42.66059 2312.00000 1996.14531 0.00043
42.67060 2356.00000 2031.86157 0.00042
42.68060 2382.00000 2066.67227 0.00042
42.69060 2445.00000 2100.20068 0.00041
42.70060 2555.00000 2132.00499 0.00039
42.71060 2435.00000 2161.63875 0.00041
42.72060 2406.00000 2188.65482 0.00042
42.73060 2619.00000 2212.57293 0.00038
42.74060 2513.00000 2232.94762 0.00040
42.75060 2571.00000 2249.37849 0.00039
42.76060 2516.00000 2261.52664 0.00040
42.77060 2469.00000 2269.13461 0.00041
42.78060 2567.00000 2272.04367 0.00039
42.79060 2409.00000 2270.20631 0.00042
42.80060 2437.00000 2263.69210 0.00041
42.81060 2484.00000 2252.68595 0.00040
42.82060 2472.00000 2237.47859 0.00040
42.83060 2413.00000 2218.45046 0.00041
42.84060 2434.00000 2196.05072 0.00041
42.85060 2407.00000 2170.77387 0.00042
42.86060 2353.00000 2143.13640 0.00042
42.87060 2359.00000 2113.65560 0.00042
42.88060 2285.00000 2082.83191 0.00044
42.89060 2244.00000 2051.13550 0.00045
42.90060 2093.00000 2018.99726 0.00048
42.91060 2069.00000 1986.80364 0.00048
42.92060 2055.00000 1954.89470 0.00049
42.93060 1932.00000 1923.56452 0.00052
42.94060 1918.00000 1893.06326 0.00052
42.95060 1938.00000 1863.60011 0.00052
42.96060 1878.00000 1835.34676 0.00053
42.97060 1883.00000 1808.44105 0.00053
42.98060 1845.00000 1782.99075 0.00054
42.99060 1879.00000 1759.07760 0.00053
43.00060 1804.00000 1736.76441 0.00055
43.01060 1731.00000 1716.09439 0.00058
43.02060 1781.00000 1697.03791 0.00056
43.03061 1733.00000 1679.53516 0.00058
43.04060 1694.00000 1663.64600 0.00059
43.05061 1697.00000 1649.28399 0.00059
43.06060 1610.00000 1636.45647 0.00062
43.07061 1630.00000 1625.05181 0.00061
43.08060 1658.00000 1615.04430 0.00060
43.09061 1611.00000 1606.31546 0.00062
43.10061 1663.00000 1598.80679 0.00060
43.11061 1564.00000 1592.41705 0.00064
43.12061 1587.00000 1587.04914 0.00063
43.13061 1579.00000 1582.60412 0.00063
43.14061 1621.00000 1578.98464 0.00062
43.15061 1595.00000 1576.08441 0.00063
43.16061 1572.00000 1573.79879 0.00064
43.17061 1564.00000 1572.02510 0.00064
43.18061 1596.00000 1570.66345 0.00063
43.19061 1600.00000 1569.62063 0.00063
43.20061 1523.00000 1568.81063 0.00066
43.21061 1603.00000 1568.11889 0.00062
43.22061 1533.00000 1567.41632 0.00065
43.23061 1568.00000 1566.64546 0.00064
43.24061 1588.00000 1565.74596 0.00063
43.25061 1497.00000 1564.65146 0.00067
43.26061 1511.00000 1563.30267 0.00066
43.27061 1466.00000 1561.64896 0.00068
43.28061 1470.00000 1559.64880 0.00068
43.29061 1486.00000 1557.26995 0.00067
43.30061 1524.00000 1554.48959 0.00066
43.31061 1491.00000 1551.29409 0.00067
43.32061 1494.00000 1547.67879 0.00067
43.33061 1493.00000 1543.64737 0.00067
43.34061 1465.00000 1539.21126 0.00068
43.35061 1526.00000 1534.38878 0.00066
43.36061 1508.00000 1529.20416 0.00066
43.37061 1496.00000 1523.68659 0.00067
43.38061 1463.00000 1517.86915 0.00068
43.39061 1473.00000 1511.78772 0.00068
43.40061 1491.00000 1505.48005 0.00067
43.41061 1477.00000 1498.98476 0.00068
43.42061 1486.00000 1492.34049 0.00067
43.43061 1425.00000 1485.58517 0.00070
43.44061 1408.00000 1478.75540 0.00071
43.45061 1448.00000 1471.88587 0.00069
43.46061 1456.00000 1465.00905 0.00069
43.47062 1421.00000 1458.14798 0.00070
43.48061 1428.00000 1451.35032 0.00070
43.49062 1375.00000 1444.61313 0.00073
43.50061 1425.00000 1437.98466 0.00070
43.51062 1452.00000 1431.45689 0.00069
43.52061 1495.00000 1425.07153 0.00067
43.53062 1418.00000 1418.81601 0.00071
43.54062 1357.00000 1412.71956 0.00074
43.55062 1390.00000 1406.78353 0.00072
43.56062 1400.00000 1401.01334 0.00071
43.57062 1396.00000 1395.41219 0.00072
43.58062 1358.00000 1389.98132 0.00074
43.59062 1305.00000 1384.72008 0.00077
43.60062 1378.00000 1379.62611 0.00073
43.61062 1367.00000 1374.69547 0.00073
43.62062 1345.00000 1369.92279 0.00074
43.63062 1334.00000 1365.30133 0.00075
43.64062 1315.00000 1360.82317 0.00076
43.65062 1387.00000 1356.47923 0.00072
43.66062 1386.00000 1352.25941 0.00072
43.67062 1327.00000 1348.15252 0.00075
43.68062 1332.00000 1344.14640 0.00075
43.69062 1283.00000 1340.22777 0.00078
43.70062 1290.00000 1336.38190 0.00078
43.71062 1390.00000 1332.59181 0.00072
43.72062 1307.00000 1328.83598 0.00077
43.73062 1261.00000 1325.08509 0.00079
43.74062 1341.00000 1321.29186 0.00075
43.75062 1336.00000 1317.33544 0.00075
43.76062 1290.00000 1313.11528 0.00078
43.77062 1313.00000 1309.26648 0.00076
43.78062 1351.00000 1305.83765 0.00074
43.79062 1279.00000 1302.49848 0.00078
43.80062 1310.00000 1299.17157 0.00076
43.81062 1334.00000 1295.84875 0.00075
43.82062 1273.00000 1292.52713 0.00079
43.83062 1298.00000 1289.20484 0.00077
43.84062 1310.00000 1285.88099 0.00076
43.85062 1284.00000 1282.55561 0.00078
43.86062 1319.00000 1279.22955 0.00076
43.87062 1276.00000 1275.90447 0.00078
43.88062 1249.00000 1272.58264 0.00080
43.89062 1281.00000 1269.26692 0.00078
43.90062 1268.00000 1265.96060 0.00079
43.91063 1240.00000 1262.66408 0.00081
43.92062 1255.00000 1259.39096 0.00080
43.93063 1237.00000 1256.13231 0.00081
43.94062 1243.00000 1252.90504 0.00080
43.95063 1267.00000 1249.70039 0.00079
43.96062 1193.00000 1246.53496 0.00084
43.97063 1252.00000 1243.39990 0.00080
43.98063 1298.00000 1240.30815 0.00077
43.99063 1192.00000 1237.25983 0.00084
44.00063 1261.00000 1234.25797 0.00079
44.01063 1223.00000 1231.30525 0.00082
44.02063 1274.00000 1228.40410 0.00078
44.03063 1239.00000 1225.55660 0.00081
44.04063 1290.00000 1222.76457 0.00078
44.05063 1208.00000 1220.02951 0.00083
44.06063 1224.00000 1217.35266 0.00082
44.07063 1159.00000 1214.73500 0.00086
44.08063 1160.00000 1212.17725 0.00086
44.09063 1254.00000 1209.67994 0.00080
44.10063 1232.00000 1207.24336 0.00081
44.11063 1202.00000 1204.86766 0.00083
44.12063 1174.00000 1202.55281 0.00085
44.13063 1198.00000 1200.29866 0.00083
44.14063 1212.00000 1198.10493 0.00083
44.15063 1214.00000 1195.97124 0.00082
44.16063 1219.00000 1193.89713 0.00082
44.17063 1199.00000 1191.88204 0.00083
44.18063 1163.00000 1189.92541 0.00086
44.19063 1188.00000 1188.02661 0.00084
44.20063 1136.00000 1186.18499 0.00088
44.21063 1197.00000 1184.39992 0.00084
44.22063 1181.00000 1182.67078 0.00085
44.23063 1166.00000 1180.99703 0.00086
44.24063 1218.00000 1179.37822 0.00082
44.25063 1177.00000 1177.81421 0.00085
44.26063 1188.00000 1176.30552 0.00084
44.27063 1226.00000 1174.85485 0.00082
44.28063 1200.00000 1173.46691 0.00083
44.29063 1201.00000 1172.12922 0.00083
44.30063 1179.00000 1170.81927 0.00085
44.31063 1259.00000 1169.55054 0.00079
44.32063 1257.00000 1168.32934 0.00080
44.33064 1200.00000 1167.15425 0.00083
44.34063 1208.00000 1166.02818 0.00083
44.35064 1161.00000 1164.94611 0.00086
44.36063 1229.00000 1163.91193 0.00081
44.37064 1201.00000 1162.92109 0.00083
44.38063 1245.00000 1161.97722 0.00080
44.39064 1188.00000 1161.07627 0.00084
44.40063 1160.00000 1160.22165 0.00086
44.41064 1219.00000 1159.40980 0.00082
44.42064 1172.00000 1158.64318 0.00085
44.43064 1206.00000 1157.92099 0.00083
44.44064 1187.00000 1157.24338 0.00084
44.45064 1143.00000 1156.61058 0.00087
44.46064 1163.00000 1156.02293 0.00086
44.47064 1135.00000 1155.48091 0.00088
44.48064 1170.00000 1154.98514 0.00085
44.49064 1229.00000 1154.53642 0.00081
44.50064 1169.00000 1154.13579 0.00086
44.51064 1191.00000 1153.78474 0.00084
44.52064 1185.00000 1153.48596 0.00084
44.53064 1192.00000 1153.24280 0.00084
44.54064 1228.00000 1153.04963 0.00081
44.55064 1207.00000 1152.90327 0.00083
44.56064 1216.00000 1152.80995 0.00082
44.57064 1136.00000 1152.77403 0.00088
44.58064 1222.00000 1152.79801 0.00082
44.59064 1183.00000 1152.88447 0.00085
44.60064 1173.00000 1153.03624 0.00085
44.61064 1169.00000 1153.25647 0.00086
44.62064 1170.00000 1153.54859 0.00085
44.63064 1191.00000 1153.91638 0.00084
44.64064 1170.00000 1154.36396 0.00085
44.65064 1224.00000 1154.89581 0.00082
44.66064 1230.00000 1155.51680 0.00081
44.67064 1179.00000 1156.23219 0.00085
44.68064 1185.00000 1157.04765 0.00084
44.69064 1172.00000 1157.96930 0.00085
44.70064 1122.00000 1159.00367 0.00089
44.71064 1171.00000 1160.15777 0.00085
44.72064 1183.00000 1161.43903 0.00085
44.73064 1167.00000 1162.85538 0.00086
44.74064 1194.00000 1164.41519 0.00084
44.75064 1170.00000 1166.12729 0.00085
44.76064 1197.00000 1168.00095 0.00084
44.77065 1185.00000 1170.04809 0.00084
44.78064 1179.00000 1172.27232 0.00085
44.79065 1129.00000 1174.69326 0.00089
44.80064 1146.00000 1177.31196 0.00087
44.81065 1191.00000 1180.15034 0.00084
44.82064 1192.00000 1183.20835 0.00084
44.83065 1268.00000 1186.51023 0.00079
44.84064 1172.00000 1190.05447 0.00085
44.85065 1149.00000 1193.86754 0.00087
44.86065 1181.00000 1197.95030 0.00085
44.87065 1203.00000 1202.31848 0.00083
44.88065 1186.00000 1206.98393 0.00084
44.89065 1158.00000 1211.95824 0.00086
44.90065 1212.00000 1217.25261 0.00083
44.91065 1242.00000 1222.87774 0.00081
44.92065 1205.00000 1228.84366 0.00083
44.93065 1222.00000 1235.15960 0.00082
44.94065 1272.00000 1241.83381 0.00079
44.95065 1268.00000 1248.87335 0.00079
44.96065 1262.00000 1256.28389 0.00079
44.97065 1284.00000 1264.06949 0.00078
44.98065 1297.00000 1272.23231 0.00077
44.99065 1307.00000 1280.77235 0.00077
45.00065 1359.00000 1289.68715 0.00074
45.01065 1403.00000 1298.97139 0.00071
45.02065 1352.00000 1308.61658 0.00074
45.03065 1454.00000 1318.61058 0.00069
45.04065 1447.00000 1328.93718 0.00069
45.05065 1484.00000 1339.57564 0.00067
45.06065 1462.00000 1350.50014 0.00068
45.07065 1484.00000 1361.67927 0.00067
45.08065 1556.00000 1373.07552 0.00064
45.09065 1541.00000 1384.64471 0.00065
45.10065 1599.00000 1396.33551 0.00063
45.11065 1589.00000 1408.08905 0.00063
45.12065 1635.00000 1419.83852 0.00061
45.13065 1668.00000 1431.50901 0.00060
45.14065 1733.00000 1443.01752 0.00058
45.15065 1700.00000 1454.27319 0.00059
45.16065 1725.00000 1465.17789 0.00058
45.17065 1778.00000 1475.62711 0.00056
45.18065 1762.00000 1485.51127 0.00057
45.19065 1745.00000 1494.71750 0.00057
45.20065 1730.00000 1503.13181 0.00058
45.21066 1784.00000 1510.64851 0.00056
45.22065 1792.00000 1517.13930 0.00056
45.23066 1685.00000 1522.52882 0.00059
45.24065 1729.00000 1526.70761 0.00058
45.25066 1712.00000 1529.61642 0.00058
45.26065 1683.00000 1531.18751 0.00059
45.27066 1710.00000 1531.38833 0.00058
45.28065 1685.00000 1530.20336 0.00059
45.29066 1706.00000 1527.63308 0.00059
45.30066 1698.00000 1523.71286 0.00059
45.31066 1805.00000 1518.49039 0.00055
45.32066 1673.00000 1512.03430 0.00060
45.33066 1613.00000 1504.42880 0.00062
45.34066 1635.00000 1495.76871 0.00061
45.35066 1661.00000 1486.14751 0.00060
45.36066 1610.00000 1475.66347 0.00062
45.37066 1634.00000 1464.52255 0.00061
45.38066 1578.00000 1452.90054 0.00063
45.39066 1612.00000 1440.84371 0.00062
45.40066 1580.00000 1428.44411 0.00063
45.41066 1565.00000 1415.80491 0.00064
45.42066 1562.00000 1403.02164 0.00064
45.43066 1503.00000 1390.18092 0.00067
45.44066 1452.00000 1377.36018 0.00069
45.45066 1419.00000 1364.62776 0.00070
45.46066 1418.00000 1352.04319 0.00071
45.47066 1374.00000 1339.65771 0.00073
45.48066 1350.00000 1327.51483 0.00074
45.49066 1389.00000 1315.65100 0.00072
45.50066 1305.00000 1304.09628 0.00077
45.51066 1335.00000 1292.87503 0.00075
45.52066 1282.00000 1282.00648 0.00078
45.53066 1269.00000 1271.50538 0.00079
45.54066 1250.00000 1261.38254 0.00080
45.55066 1200.00000 1251.64529 0.00083
45.56066 1188.00000 1242.29794 0.00084
45.57066 1237.00000 1233.34222 0.00081
45.58066 1229.00000 1224.77757 0.00081
45.59066 1306.00000 1216.60151 0.00077
45.60066 1197.00000 1208.80992 0.00084
45.61066 1211.00000 1201.39732 0.00083
45.62066 1188.00000 1194.35706 0.00084
45.63066 1208.00000 1187.68160 0.00083
45.64066 1129.00000 1181.36268 0.00089
45.65067 1149.00000 1175.38579 0.00087
45.66066 1180.00000 1169.75903 0.00085
45.67067 1164.00000 1164.45084 0.00086
45.68066 1166.00000 1159.47292 0.00086
45.69067 1238.00000 1154.79651 0.00081
45.70066 1168.00000 1150.43147 0.00086
45.71067 1110.00000 1146.35230 0.00090
45.72066 1124.00000 1142.56548 0.00089
45.73067 1170.00000 1139.04914 0.00085
45.74067 1112.00000 1135.80823 0.00090
45.75067 1190.00000 1132.83373 0.00084
45.76067 1160.00000 1130.12113 0.00086
45.77067 1078.00000 1127.66701 0.00093
45.78067 1127.00000 1125.46914 0.00089
45.79067 1137.00000 1123.52661 0.00088
45.80067 1153.00000 1121.84006 0.00087
45.81067 1160.00000 1120.41200 0.00086
45.82067 1148.00000 1119.24454 0.00087
45.83067 1124.00000 1118.33609 0.00089
45.84067 1076.00000 1117.69457 0.00093
45.85067 1083.00000 1117.32839 0.00092
45.86067 1119.00000 1117.24614 0.00089
45.87067 1112.00000 1117.45935 0.00090
45.88067 1092.00000 1117.98061 0.00092
45.89067 1098.00000 1118.80379 0.00091
45.90067 1127.00000 1119.93400 0.00089
45.91067 1135.00000 1121.39011 0.00088
45.92067 1165.00000 1123.18580 0.00086
45.93067 1160.00000 1125.33138 0.00086
45.94067 1176.00000 1127.83627 0.00085
45.95067 1120.00000 1130.70889 0.00089
45.96067 1124.00000 1133.95629 0.00089
45.97067 1176.00000 1137.58374 0.00085
45.98067 1174.00000 1141.59438 0.00085
45.99067 1193.00000 1145.98874 0.00084
46.00067 1100.00000 1150.76428 0.00091
46.01067 1110.00000 1155.91502 0.00090
46.02067 1135.00000 1161.43098 0.00088
46.03067 1164.00000 1167.29775 0.00086
46.04067 1178.00000 1173.49600 0.00085
46.05067 1161.00000 1180.00096 0.00086
46.06067 1269.00000 1186.78195 0.00079
46.07067 1212.00000 1193.80186 0.00083
46.08067 1179.00000 1201.01671 0.00085
46.09068 1247.00000 1208.38259 0.00080
46.10067 1237.00000 1215.81821 0.00081
46.11068 1296.00000 1223.28625 0.00077
46.12067 1298.00000 1230.68172 0.00077
46.13068 1240.00000 1237.95100 0.00081
46.14067 1253.00000 1244.97414 0.00080
46.15068 1308.00000 1251.68158 0.00076
46.16068 1315.00000 1257.94919 0.00076
46.17068 1311.00000 1263.67697 0.00076
46.18068 1300.00000 1268.75690 0.00077
46.19068 1327.00000 1273.08315 0.00075
46.20068 1318.00000 1276.55601 0.00076
46.21068 1340.00000 1279.08613 0.00075
46.22068 1330.00000 1280.59908 0.00075
46.23068 1302.00000 1281.03950 0.00077
46.24068 1280.00000 1280.37466 0.00078
46.25068 1301.00000 1278.59687 0.00077
46.26068 1303.00000 1275.72438 0.00077
46.27068 1359.00000 1271.80071 0.00074
46.28068 1272.00000 1266.89230 0.00079
46.29068 1296.00000 1261.08485 0.00077
46.30068 1313.00000 1254.47873 0.00076
46.31068 1235.00000 1247.18395 0.00081
46.32068 1190.00000 1239.31520 0.00084
46.33068 1245.00000 1230.98742 0.00080
46.34068 1200.00000 1222.31208 0.00083
46.35068 1209.00000 1213.39439 0.00083
46.36068 1230.00000 1204.33136 0.00081
46.37068 1234.00000 1195.21071 0.00081
46.38068 1130.00000 1186.11042 0.00088
46.39068 1190.00000 1177.09870 0.00084
46.40068 1182.00000 1168.23440 0.00085
46.41068 1179.00000 1159.56755 0.00085
46.42068 1149.00000 1151.13999 0.00087
46.43068 1209.00000 1142.98609 0.00083
46.44068 1133.00000 1135.13342 0.00088
46.45068 1137.00000 1127.60339 0.00088
46.46068 1118.00000 1120.41183 0.00089
46.47068 1124.00000 1113.56959 0.00089
46.48068 1156.00000 1107.08301 0.00087
46.49068 1154.00000 1100.95442 0.00087
46.50068 1062.00000 1095.18261 0.00094
46.51068 1070.00000 1089.76321 0.00093
46.52068 1119.00000 1084.68918 0.00089
46.53069 1121.00000 1079.94648 0.00089
46.54068 1129.00000 1075.53764 0.00089
46.55069 1064.00000 1071.43188 0.00094
46.56068 1061.00000 1067.63161 0.00094
46.57069 1034.00000 1064.10633 0.00097
46.58068 1099.00000 1060.85455 0.00091
46.59069 1060.00000 1057.84699 0.00094
46.60069 1064.00000 1055.07689 0.00094
46.61069 1064.00000 1052.52496 0.00094
46.62069 1099.00000 1050.17537 0.00091
46.63069 1063.00000 1048.01270 0.00094
46.64069 1039.00000 1046.02215 0.00096
46.65069 1077.00000 1044.18956 0.00093
46.66069 1075.00000 1042.50157 0.00093
46.67069 1075.00000 1040.94563 0.00093
46.68069 1018.00000 1039.51004 0.00098
46.69069 1033.00000 1038.18398 0.00097
46.70069 1110.00000 1036.95750 0.00090
46.71069 1074.00000 1035.82152 0.00093
46.72069 1112.00000 1034.76779 0.00090
46.73069 1103.00000 1033.78886 0.00091
46.74069 1070.00000 1032.87806 0.00093
46.75069 1031.00000 1032.02941 0.00097
46.76069 1072.00000 1031.23762 0.00093
46.77069 1092.00000 1030.49800 0.00092
46.78069 1092.00000 1029.80643 0.00092
46.79069 1095.00000 1029.15931 0.00091
46.80069 1072.00000 1028.55352 0.00093
46.81069 1095.00000 1027.98633 0.00091
46.82069 1087.00000 1027.45541 0.00092
46.83069 1053.00000 1026.95878 0.00095
46.84069 1116.00000 1026.49471 0.00090
46.85069 1079.00000 1026.06172 0.00093
46.86069 1076.00000 1025.65852 0.00093
46.87069 1144.00000 1025.28406 0.00087
46.88069 1022.00000 1024.93743 0.00098
46.89069 998.00000 1024.61792 0.00100
46.90069 1091.00000 1024.32493 0.00092
46.91069 1072.00000 1024.05798 0.00093
46.92069 1071.00000 1023.81671 0.00093
46.93069 1059.00000 1023.60082 0.00094
46.94069 1046.00000 1023.41010 0.00096
46.95070 1083.00000 1023.24423 0.00092
46.96069 1051.00000 1023.10351 0.00095
46.97070 1028.00000 1022.98718 0.00097
46.98069 1055.00000 1022.89543 0.00095
46.99070 1018.00000 1022.82739 0.00098
47.00069 1084.00000 1022.78243 0.00092
47.01070 1055.00000 1022.75837 0.00095
47.02069 1047.00000 1022.75103 0.00096
47.03070 1111.00000 1022.75133 0.00090
47.04070 1111.00000 1022.73247 0.00090
47.05070 1054.00000 1022.65704 0.00095
47.06070 1037.00000 1022.64477 0.00096
47.07070 1041.00000 1022.85255 0.00096
47.08070 1037.00000 1023.15520 0.00096
47.09070 1087.00000 1023.51039 0.00092
47.10070 1099.00000 1023.92037 0.00091
47.11070 1101.00000 1024.38952 0.00091
47.12070 1106.00000 1024.92274 0.00090
47.13070 1066.00000 1025.52548 0.00094
47.14070 1074.00000 1026.20374 0.00093
47.15070 1059.00000 1026.96414 0.00094
47.16070 1036.00000 1027.81394 0.00097
47.17070 1074.00000 1028.76108 0.00093
47.18070 1062.00000 1029.81418 0.00094
47.19070 1075.00000 1030.98257 0.00093
47.20070 1102.00000 1032.27629 0.00091
47.21070 1098.00000 1033.70611 0.00091
47.22070 1053.00000 1035.28349 0.00095
47.23070 1096.00000 1037.02058 0.00091
47.24070 1042.00000 1038.93015 0.00096
47.25070 1119.00000 1041.02558 0.00089
47.26070 1097.00000 1043.32073 0.00091
47.27070 1057.00000 1045.82990 0.00095
47.28070 1034.00000 1048.56770 0.00097
47.29070 1059.00000 1051.54894 0.00094
47.30070 1079.00000 1054.78844 0.00093
47.31070 1003.00000 1058.30090 0.00100
47.32070 1059.00000 1062.10072 0.00094
47.33070 1090.00000 1066.20175 0.00092
47.34070 1122.00000 1070.61708 0.00089
47.35070 1059.00000 1075.35880 0.00094
47.36070 1064.00000 1080.43775 0.00094
47.37070 1103.00000 1085.86320 0.00091
47.38070 1082.00000 1091.64256 0.00092
47.39071 1081.00000 1097.78742 0.00093
47.40070 1089.00000 1104.28151 0.00092
47.41071 1144.00000 1111.15080 0.00087
47.42070 1092.00000 1118.36440 0.00092
47.43071 1173.00000 1125.94429 0.00085
47.44070 1121.00000 1133.84912 0.00089
47.45071 1077.00000 1142.09510 0.00093
47.46070 1145.00000 1150.62882 0.00087
47.47071 1189.00000 1159.45870 0.00084
47.48071 1124.00000 1168.52692 0.00089
47.49071 1184.00000 1177.80412 0.00084
47.50071 1209.00000 1187.24539 0.00083
47.51071 1235.00000 1196.79853 0.00081
47.52071 1199.00000 1206.40367 0.00083
47.53071 1151.00000 1215.99304 0.00087
47.54071 1141.00000 1225.49085 0.00088
47.55071 1206.00000 1234.81349 0.00083
47.56071 1222.00000 1243.86995 0.00082
47.57071 1184.00000 1252.56279 0.00084
47.58071 1246.00000 1260.78945 0.00080
47.59071 1195.00000 1268.44425 0.00084
47.60071 1224.00000 1275.42092 0.00082
47.61071 1254.00000 1281.61580 0.00080
47.62071 1218.00000 1286.93138 0.00082
47.63071 1209.00000 1291.28038 0.00083
47.64071 1248.00000 1294.58974 0.00080
47.65071 1274.00000 1296.80443 0.00078
47.66071 1203.00000 1297.89066 0.00083
47.67071 1256.00000 1297.83813 0.00080
47.68071 1203.00000 1296.66103 0.00083
47.69071 1222.00000 1294.39771 0.00082
47.70071 1298.00000 1291.10890 0.00077
47.71071 1215.00000 1286.87483 0.00082
47.72071 1241.00000 1281.79137 0.00081
47.73071 1279.00000 1275.96563 0.00078
47.74071 1170.00000 1269.51150 0.00085
47.75071 1265.00000 1262.54543 0.00079
47.76071 1236.00000 1255.18265 0.00081
47.77071 1240.00000 1247.53421 0.00081
47.78071 1189.00000 1239.70468 0.00084
47.79071 1180.00000 1231.79066 0.00085
47.80071 1176.00000 1223.87986 0.00085
47.81071 1122.00000 1216.05086 0.00089
47.82071 1132.00000 1208.37311 0.00088
47.83072 1139.00000 1200.90006 0.00088
47.84071 1133.00000 1193.70621 0.00088
47.85072 1151.00000 1186.80800 0.00087
47.86071 1140.00000 1180.27098 0.00088
47.87072 1150.00000 1174.10127 0.00087
47.88071 1104.00000 1168.34999 0.00091
47.89072 1117.00000 1163.01671 0.00090
47.90071 1069.00000 1158.14304 0.00094
47.91072 1078.00000 1153.72548 0.00093
47.92072 1140.00000 1149.76319 0.00088
47.93072 1061.00000 1146.26175 0.00094
47.94072 1078.00000 1143.23183 0.00093
47.95072 1047.00000 1140.67539 0.00096
47.96072 1097.00000 1138.59090 0.00091
47.97072 1061.00000 1136.97490 0.00094
47.98072 1094.00000 1135.82244 0.00091
47.99072 1063.00000 1135.12726 0.00094
48.00072 1117.00000 1134.88215 0.00090
48.01072 1091.00000 1135.07911 0.00092
48.02072 1093.00000 1135.70960 0.00091
48.03072 1064.00000 1136.76474 0.00094
48.04072 1121.00000 1138.23550 0.00089
48.05072 1095.00000 1140.11287 0.00091
48.06072 1051.00000 1142.38795 0.00095
48.07072 1113.00000 1145.05213 0.00090
48.08072 1104.00000 1148.09715 0.00091
48.09072 1084.00000 1151.51518 0.00092
48.10072 1081.00000 1155.29886 0.00093
48.11072 1057.00000 1159.44137 0.00095
48.12072 1055.00000 1163.93640 0.00095
48.13072 1097.00000 1168.77816 0.00091
48.14072 1047.00000 1173.96135 0.00096
48.15072 1075.00000 1179.48111 0.00093
48.16072 1090.00000 1185.33296 0.00092
48.17072 1078.00000 1191.51275 0.00093
48.18072 1094.00000 1198.01656 0.00091
48.19072 1100.00000 1204.84056 0.00091
48.20072 1124.00000 1211.98098 0.00089
48.21072 1151.00000 1219.43389 0.00087
48.22072 1056.00000 1227.19513 0.00095
48.23072 1083.00000 1235.26013 0.00092
48.24072 1127.00000 1243.62375 0.00089
48.25072 1175.00000 1252.28012 0.00085
48.26072 1207.00000 1261.22244 0.00083
48.27073 1138.00000 1270.45223 0.00088
48.28072 1205.00000 1279.93195 0.00083
48.29073 1260.00000 1289.68907 0.00079
48.30072 1175.00000 1299.67178 0.00085
48.31073 1184.00000 1309.90573 0.00084
48.32072 1220.00000 1320.33302 0.00082
48.33073 1226.00000 1330.97623 0.00082
48.34072 1274.00000 1341.77050 0.00078
48.35073 1246.00000 1352.73380 0.00080
48.36073 1279.00000 1363.80434 0.00078
48.37073 1229.00000 1374.95871 0.00081
48.38073 1333.00000 1386.15699 0.00075
48.39073 1278.00000 1397.37185 0.00078
48.40073 1382.00000 1408.58849 0.00072
48.41073 1341.00000 1419.74181 0.00075
48.42073 1404.00000 1430.77723 0.00071
48.43073 1349.00000 1441.64237 0.00074
48.44073 1375.00000 1452.27708 0.00073
48.45073 1314.00000 1462.62305 0.00076
48.46073 1385.00000 1472.61990 0.00072
48.47073 1322.00000 1482.20429 0.00076
48.48073 1337.00000 1491.31139 0.00075
48.49073 1327.00000 1499.87590 0.00075
48.50073 1276.00000 1507.83306 0.00078
48.51073 1302.00000 1515.11989 0.00077
48.52073 1282.00000 1521.67697 0.00078
48.53073 1322.00000 1527.45307 0.00076
48.54073 1310.00000 1532.40149 0.00076
48.55073 1285.00000 1536.43881 0.00078
48.56073 1302.00000 1539.52153 0.00077
48.57073 1384.00000 1541.63074 0.00072
48.58073 1351.00000 1542.74679 0.00074
48.59073 1265.00000 1542.85450 0.00079
48.60073 1344.00000 1541.94766 0.00074
48.61073 1313.00000 1540.02976 0.00076
48.62073 1288.00000 1537.11385 0.00078
48.63073 1348.00000 1533.22229 0.00074
48.64073 1369.00000 1528.38621 0.00073
48.65073 1302.00000 1522.64483 0.00077
48.66073 1307.00000 1516.04451 0.00077
48.67073 1334.00000 1508.63781 0.00075
48.68073 1369.00000 1500.48232 0.00073
48.69073 1331.00000 1491.63952 0.00075
48.70073 1298.00000 1482.17366 0.00077
48.71074 1279.00000 1472.14014 0.00078
48.72073 1283.00000 1461.63668 0.00078
48.73074 1242.00000 1450.68669 0.00081
48.74073 1219.00000 1439.39904 0.00082
48.75074 1252.00000 1427.79087 0.00080
48.76073 1207.00000 1415.96887 0.00083
48.77074 1221.00000 1403.94242 0.00082
48.78074 1152.00000 1391.80093 0.00087
48.79074 1229.00000 1379.58212 0.00081
48.80074 1187.00000 1367.33179 0.00084
48.81074 1159.00000 1355.09185 0.00086
48.82074 1168.00000 1342.90027 0.00086
48.83074 1174.00000 1330.79119 0.00085
48.84074 1125.00000 1318.79504 0.00089
48.85074 1174.00000 1306.93875 0.00085
48.86074 1118.00000 1295.24587 0.00089
48.87074 1152.00000 1283.73686 0.00087
48.88074 1153.00000 1272.42927 0.00087
48.89074 1080.00000 1261.33799 0.00093
48.90074 1085.00000 1250.47544 0.00092
48.91074 1108.00000 1239.85185 0.00090
48.92074 1124.00000 1229.47539 0.00089
48.93074 1100.00000 1219.35246 0.00091
48.94074 1044.00000 1209.48780 0.00096
48.95074 1096.00000 1199.88469 0.00091
48.96074 1079.00000 1190.54513 0.00093
48.97074 1106.00000 1181.46998 0.00090
48.98074 1027.00000 1172.65907 0.00097
48.99074 1055.00000 1164.11133 0.00095
49.00074 1056.00000 1155.82494 0.00095
49.01074 1073.00000 1147.79736 0.00093
49.02074 1053.00000 1140.02549 0.00095
49.03074 1091.00000 1132.50572 0.00092
49.04074 969.00000 1125.23397 0.00103
49.05074 1043.00000 1118.20581 0.00096
49.06074 1094.00000 1111.41651 0.00091
49.07074 1036.00000 1104.86106 0.00097
49.08074 1050.00000 1098.53423 0.00095
49.09074 993.00000 1092.43063 0.00101
49.10074 1068.00000 1086.54475 0.00094
49.11074 1003.00000 1080.87096 0.00100
49.12074 1004.00000 1075.40358 0.00100
49.13074 1055.00000 1070.13688 0.00095
49.14074 1023.00000 1065.06514 0.00098
49.15075 1040.00000 1060.17790 0.00096
49.16074 1011.00000 1055.48367 0.00099
49.17075 1023.00000 1050.95824 0.00098
49.18074 1066.00000 1046.61394 0.00094
49.19075 1006.00000 1042.42811 0.00099
49.20074 996.00000 1038.41192 0.00100
49.21075 1021.00000 1034.54424 0.00098
49.22075 1055.00000 1030.83165 0.00095
49.23075 975.00000 1027.26530 0.00103
49.24075 988.00000 1023.84040 0.00101
49.25075 1045.00000 1020.55232 0.00096
49.26075 989.00000 1017.39662 0.00101
49.27075 1017.00000 1014.36906 0.00098
49.28075 994.00000 1011.46558 0.00101
49.29075 992.00000 1008.68235 0.00101
49.30075 1018.00000 1006.01576 0.00098
49.31075 1003.00000 1003.46240 0.00100
49.32075 953.00000 1001.01913 0.00105
49.33075 942.00000 998.68304 0.00106
49.34075 1000.00000 996.45146 0.00100
49.35075 1015.00000 994.32198 0.00099
49.36075 980.00000 992.29248 0.00102
49.37075 981.00000 990.36106 0.00102
49.38075 1047.00000 988.52613 0.00096
49.39075 1010.00000 986.78637 0.00099
49.40075 1018.00000 985.14071 0.00098
49.41075 1041.00000 983.58840 0.00096
49.42075 981.00000 982.12896 0.00102
49.43075 975.00000 980.76217 0.00103
49.44075 989.00000 979.48810 0.00101
49.45075 984.00000 978.30711 0.00102
49.46075 984.00000 977.21982 0.00102
49.47075 995.00000 976.22709 0.00101
49.48075 997.00000 975.33006 0.00100
49.49075 1006.00000 974.53008 0.00099
49.50075 1041.00000 973.82875 0.00096
49.51075 1008.00000 973.22785 0.00099
49.52075 1004.00000 972.72935 0.00100
49.53075 969.00000 972.33537 0.00103
49.54075 972.00000 972.04819 0.00103
49.55075 995.00000 971.87016 0.00101
49.56075 1023.00000 971.80371 0.00098
49.57076 974.00000 971.85142 0.00103
49.58075 994.00000 972.01536 0.00101
49.59076 997.00000 972.29867 0.00100
49.60075 993.00000 972.70243 0.00101
49.61076 1003.00000 973.23048 0.00100
49.62075 967.00000 973.88257 0.00103
49.63076 1004.00000 974.66307 0.00100
49.64075 1004.00000 975.57014 0.00100
49.65076 1005.00000 976.60847 0.00100
49.66076 1025.00000 977.77560 0.00098
49.67076 1045.00000 979.07249 0.00096
49.68076 1029.00000 980.49852 0.00097
49.69076 1069.00000 982.05238 0.00094
49.70076 1042.00000 983.73195 0.00096
49.71076 1047.00000 985.53422 0.00096
49.72076 1011.00000 987.45522 0.00099
49.73076 1034.00000 989.48981 0.00097
49.74076 1013.00000 991.63165 0.00099
49.75076 1070.00000 993.87300 0.00093
49.76076 1076.00000 996.20462 0.00093
49.77076 1111.00000 998.61559 0.00090
49.78076 1094.00000 1001.09319 0.00091
49.79076 1016.00000 1003.62275 0.00098
49.80076 1152.00000 1006.18751 0.00087
49.81076 1104.00000 1008.76852 0.00091
49.82076 1159.00000 1011.34457 0.00086
49.83076 1077.00000 1013.89216 0.00093
49.84076 1079.00000 1016.38555 0.00093
49.85076 1094.00000 1018.79689 0.00091
49.86076 1085.00000 1021.09644 0.00092
49.87076 1149.00000 1023.25292 0.00087
49.88076 1159.00000 1025.23404 0.00086
49.89076 1067.00000 1027.00706 0.00094
49.90076 1198.00000 1028.53958 0.00083
49.91076 1139.00000 1029.80044 0.00088
49.92076 1165.00000 1030.76064 0.00086
49.93076 1112.00000 1031.39438 0.00090
49.94076 1170.00000 1031.68005 0.00085
49.95076 1087.00000 1031.60108 0.00092
49.96076 1055.00000 1031.14675 0.00095
49.97076 1082.00000 1030.31264 0.00092
49.98076 1071.00000 1029.10094 0.00093
49.99076 1151.00000 1027.52037 0.00087
50.00076 1180.00000 1025.58582 0.00085
50.01077 1075.00000 1023.31527 0.00093
50.02076 1088.00000 1020.74130 0.00092
50.03077 1053.00000 1017.88236 0.00095
50.04076 1028.00000 1014.78148 0.00097
50.05077 1089.00000 1011.45925 0.00092
50.06076 1040.00000 1007.96262 0.00096
50.07077 1076.00000 1004.31082 0.00093
50.08076 1113.00000 1000.55065 0.00090
50.09077 1081.00000 996.69753 0.00093
50.10077 1059.00000 992.79133 0.00094
50.11077 1098.00000 988.85425 0.00091
50.12077 1098.00000 984.90982 0.00091
50.13077 1073.00000 980.97901 0.00093
50.14077 1059.00000 977.08031 0.00094
50.15077 1032.00000 973.22986 0.00097
50.16077 1100.00000 969.44151 0.00091
50.17077 1082.00000 965.72710 0.00092
50.18077 1040.00000 962.09653 0.00096
50.19077 1041.00000 958.55801 0.00096
50.20077 991.00000 955.11820 0.00101
50.21077 1014.00000 951.78236 0.00099
50.22077 1008.00000 948.55449 0.00099
50.23077 1036.00000 945.43747 0.00097
50.24077 1056.00000 942.43318 0.00095
50.25077 1014.00000 939.54259 0.00099
50.26077 1039.00000 936.76592 0.00096
50.27077 966.00000 934.10264 0.00104
50.28077 1035.00000 931.55161 0.00097
50.29077 952.00000 929.11114 0.00105
50.30077 951.00000 926.77903 0.00105
50.31077 929.00000 924.55267 0.00108
50.32077 971.00000 922.42905 0.00103
50.33077 987.00000 920.40482 0.00101
50.34077 996.00000 918.47634 0.00100
50.35077 962.00000 916.63966 0.00104
50.36077 977.00000 914.89051 0.00102
50.37077 970.00000 913.22422 0.00103
50.38077 1017.00000 911.63526 0.00098
50.39077 877.00000 910.11651 0.00114
50.40077 931.00000 908.65469 0.00107
50.41077 934.00000 907.23751 0.00107
50.42077 974.00000 905.91324 0.00103
50.43077 946.00000 904.68464 0.00106
50.44077 996.00000 903.52161 0.00100
50.45078 969.00000 902.41342 0.00103
50.46077 959.00000 901.35932 0.00104
50.47078 956.00000 900.35191 0.00105
50.48077 923.00000 899.39215 0.00108
50.49078 939.00000 898.47341 0.00106
50.50077 938.00000 897.59682 0.00107
50.51078 931.00000 896.75686 0.00107
50.52077 937.00000 895.95652 0.00107
50.53078 912.00000 895.19223 0.00110
50.54078 932.00000 894.45238 0.00107
50.55078 940.00000 893.73475 0.00106
50.56078 914.00000 893.04168 0.00109
50.57078 974.00000 892.37263 0.00103
50.58078 960.00000 891.72609 0.00104
50.59078 988.00000 891.10056 0.00101
50.60078 966.00000 890.49465 0.00104
50.61078 914.00000 889.90710 0.00109
50.62078 958.00000 889.33673 0.00104
50.63078 981.00000 888.78245 0.00102
50.64078 894.00000 888.24328 0.00112
50.65078 959.00000 887.71830 0.00104
50.66078 939.00000 887.20664 0.00106
50.67078 917.00000 886.70750 0.00109
50.68078 915.00000 886.22011 0.00109
50.69078 916.00000 885.74372 0.00109
50.70078 935.00000 885.27753 0.00107
50.71078 914.00000 884.82059 0.00109
50.72078 937.00000 884.37157 0.00107
50.73078 901.00000 883.92746 0.00111
50.74078 942.00000 883.48572 0.00106
50.75078 952.00000 883.06071 0.00105
50.76078 928.00000 882.65282 0.00108
50.77078 883.00000 882.25478 0.00113
50.78078 943.00000 881.86482 0.00106
50.79078 909.00000 881.48253 0.00110
50.80078 933.00000 881.10768 0.00107
50.81078 975.00000 880.74006 0.00103
50.82078 988.00000 880.37945 0.00101
50.83078 947.00000 880.02566 0.00106
50.84078 915.00000 879.67853 0.00109
50.85078 885.00000 879.33789 0.00113
50.86078 909.00000 879.00358 0.00110
50.87078 913.00000 878.67546 0.00110
50.88078 920.00000 878.35341 0.00109
50.89079 907.00000 878.03698 0.00110
50.90078 927.00000 877.72700 0.00108
50.91079 882.00000 877.42212 0.00113
50.92078 948.00000 877.12346 0.00105
50.93079 862.00000 876.82973 0.00116
50.94078 943.00000 876.54201 0.00106
50.95079 949.00000 876.25907 0.00105
50.96078 917.00000 875.98197 0.00109
50.97079 907.00000 875.70953 0.00110
50.98079 927.00000 875.44251 0.00108
50.99079 923.00000 875.18057 0.00108
51.00079 923.00000 874.92366 0.00108
51.01079 886.00000 874.67173 0.00113
51.02079 906.00000 874.42474 0.00110
51.03079 984.00000 874.18263 0.00102
51.04079 928.00000 873.94538 0.00108
51.05079 878.00000 873.71296 0.00114
51.06079 928.00000 873.48533 0.00108
51.07079 962.00000 873.26247 0.00104
51.08079 872.00000 873.04436 0.00115
51.09079 930.00000 872.83099 0.00108
51.10079 914.00000 872.62233 0.00109
51.11079 919.00000 872.41839 0.00109
51.12079 846.00000 872.21915 0.00118
51.13079 891.00000 872.02461 0.00112
51.14079 937.00000 871.83478 0.00107
51.15079 933.00000 871.64967 0.00107
51.16079 952.00000 871.46927 0.00105
51.17079 920.00000 871.29361 0.00109
51.18079 912.00000 871.12271 0.00110
51.19079 901.00000 870.95657 0.00111
51.20079 966.00000 870.79524 0.00104
51.21079 892.00000 870.63873 0.00112
51.22079 927.00000 870.48708 0.00108
51.23079 912.00000 870.34033 0.00110
51.24079 896.00000 870.19852 0.00112
51.25079 883.00000 870.06170 0.00113
51.26079 918.00000 869.92991 0.00109
51.27079 833.00000 869.80321 0.00120
51.28079 909.00000 869.68167 0.00110
51.29079 881.00000 869.56535 0.00114
51.30079 886.00000 869.45432 0.00113
51.31079 879.00000 869.34866 0.00114
51.32079 874.00000 869.24845 0.00114
51.33080 896.00000 869.15369 0.00112
51.34079 946.00000 869.06476 0.00106
51.35080 917.00000 868.98139 0.00109
51.36079 949.00000 868.90405 0.00105
51.37080 918.00000 868.83253 0.00109
51.38079 883.00000 868.76725 0.00113
51.39080 938.00000 868.70810 0.00107
51.40079 892.00000 868.65545 0.00112
51.41080 885.00000 868.60925 0.00113
51.42080 917.00000 868.56983 0.00109
51.43080 897.00000 868.53732 0.00111
51.44080 893.00000 868.51190 0.00112
51.45080 913.00000 868.49380 0.00110
51.46080 880.00000 868.48324 0.00114
51.47080 927.00000 868.48046 0.00108
51.48080 920.00000 868.48571 0.00109
51.49080 885.00000 868.49927 0.00113
51.50080 902.00000 868.52144 0.00111
51.51080 913.00000 868.55252 0.00110
51.52080 934.00000 868.59286 0.00107
51.53080 929.00000 868.64282 0.00108
51.54080 929.00000 868.70276 0.00108
51.55080 922.00000 868.77310 0.00108
51.56080 880.00000 868.85427 0.00114
51.57080 876.00000 868.94674 0.00114
51.58080 926.00000 869.05097 0.00108
51.59080 922.00000 869.16749 0.00108
51.60080 896.00000 869.29685 0.00112
51.61080 898.00000 869.43961 0.00111
51.62080 954.00000 869.59639 0.00105
51.63080 917.00000 869.76782 0.00109
51.64080 917.00000 869.95457 0.00109
51.65080 901.00000 870.15732 0.00111
51.66080 902.00000 870.37675 0.00111
51.67080 881.00000 870.61360 0.00114
51.68080 838.00000 870.86858 0.00119
51.69080 946.00000 871.14248 0.00106
51.70080 865.00000 871.43607 0.00116
51.71080 881.00000 871.75014 0.00114
51.72080 916.00000 872.08549 0.00109
51.73080 904.00000 872.44293 0.00111
51.74080 942.00000 872.82325 0.00106
51.75080 933.00000 873.22721 0.00107
51.76080 905.00000 873.65553 0.00110
51.77081 924.00000 874.10933 0.00108
51.78080 918.00000 874.58773 0.00109
51.79081 873.00000 875.09296 0.00115
51.80080 872.00000 875.62291 0.00115
51.81081 849.00000 876.17877 0.00118
51.82080 865.00000 876.75554 0.00116
51.83081 954.00000 877.34728 0.00105
51.84081 883.00000 877.93528 0.00113
51.85081 940.00000 878.54238 0.00106
51.86081 919.00000 879.26506 0.00109
51.87081 897.00000 880.05039 0.00111
51.88081 885.00000 880.87486 0.00113
51.89081 891.00000 881.73694 0.00112
51.90081 856.00000 882.63667 0.00117
51.91081 873.00000 883.57536 0.00115
51.92081 867.00000 884.55385 0.00115
51.93081 847.00000 885.57250 0.00118
51.94081 867.00000 886.63154 0.00115
51.95081 904.00000 887.73100 0.00111
51.96081 910.00000 888.87073 0.00110
51.97081 872.00000 890.05037 0.00115
51.98081 910.00000 891.26926 0.00110
51.99081 916.00000 892.52645 0.00109
52.00081 932.00000 893.82055 0.00107
52.01081 869.00000 895.14954 0.00115
52.02081 959.00000 896.51036 0.00104
52.03081 852.00000 897.89813 0.00117
52.04081 880.00000 899.30218 0.00114
52.05081 925.00000 900.70793 0.00108
52.06081 910.00000 902.14722 0.00110
52.07081 952.00000 903.66691 0.00105
52.08081 909.00000 905.22456 0.00110
52.09081 897.00000 906.80224 0.00111
52.10081 887.00000 908.39588 0.00113
52.11081 878.00000 910.00188 0.00114
52.12081 876.00000 911.61663 0.00114
52.13081 946.00000 913.23656 0.00106
52.14081 894.00000 914.85833 0.00112
52.15081 902.00000 916.47888 0.00111
52.16081 904.00000 918.09561 0.00111
52.17081 906.00000 919.70654 0.00110
52.18081 878.00000 921.31043 0.00114
52.19081 861.00000 922.90705 0.00116
52.20081 929.00000 924.49755 0.00108
52.21082 887.00000 926.08739 0.00113
52.22081 909.00000 927.68418 0.00110
52.23082 867.00000 929.30605 0.00115
52.24081 900.00000 930.88671 0.00111
52.25082 905.00000 932.43944 0.00110
52.26081 922.00000 933.98362 0.00108
52.27082 923.00000 935.53502 0.00108
52.28082 901.00000 937.09296 0.00111
52.29082 890.00000 938.66208 0.00112
52.30082 969.00000 940.24497 0.00103
52.31082 913.00000 941.84313 0.00110
52.32082 953.00000 943.45587 0.00105
52.33082 929.00000 945.07595 0.00108
52.34082 929.00000 946.69322 0.00108
52.35082 930.00000 948.35177 0.00108
52.36082 948.00000 950.08537 0.00105
52.37082 945.00000 951.85904 0.00106
52.38082 927.00000 953.65961 0.00108
52.39082 912.00000 955.48415 0.00110
52.40082 951.00000 957.32984 0.00105
52.41082 904.00000 959.19314 0.00111
52.42082 958.00000 961.06978 0.00104
52.43082 939.00000 962.95479 0.00106
52.44082 961.00000 964.84258 0.00104
52.45082 960.00000 966.72694 0.00104
52.46082 967.00000 968.60110 0.00103
52.47082 957.00000 970.45783 0.00104
52.48082 934.00000 972.28950 0.00107
52.49082 1025.00000 974.08813 0.00098
52.50082 991.00000 975.84555 0.00101
52.51082 948.00000 977.55345 0.00105
52.52082 915.00000 979.20358 0.00109
52.53082 902.00000 980.78785 0.00111
52.54082 902.00000 982.29842 0.00111
52.55082 970.00000 983.72791 0.00103
52.56082 971.00000 985.06946 0.00103
52.57082 947.00000 986.31690 0.00106
52.58082 992.00000 987.46492 0.00101
52.59082 1014.00000 988.50917 0.00099
52.60082 971.00000 989.44647 0.00103
52.61082 1027.00000 990.27491 0.00097
52.62082 962.00000 990.99415 0.00104
52.63083 949.00000 991.60643 0.00105
52.64082 971.00000 992.11494 0.00103
52.65083 941.00000 992.53655 0.00106
52.66082 977.00000 992.88990 0.00102
52.67083 956.00000 993.13249 0.00105
52.68082 943.00000 993.21961 0.00106
52.69083 946.00000 993.19292 0.00106
52.70082 959.00000 993.07972 0.00104
52.71083 955.00000 992.88987 0.00105
52.72083 919.00000 992.63199 0.00109
52.73083 981.00000 992.31469 0.00102
52.74083 995.00000 991.94690 0.00101
52.75083 984.00000 991.53762 0.00102
52.76083 1024.00000 991.09574 0.00098
52.77083 1031.00000 990.62992 0.00097
52.78083 980.00000 990.14844 0.00102
52.79083 986.00000 989.65901 0.00101
52.80083 1014.00000 989.16869 0.00099
52.81083 927.00000 988.68377 0.00108
52.82083 962.00000 988.20960 0.00104
52.83083 966.00000 987.75055 0.00104
52.84083 975.00000 987.30988 0.00103
52.85083 956.00000 986.88967 0.00105
52.86083 998.00000 986.49074 0.00100
52.87083 922.00000 986.11261 0.00108
52.88083 944.00000 985.75341 0.00106
52.89083 1006.00000 985.40992 0.00099
52.90083 978.00000 985.07750 0.00102
52.91083 1006.00000 984.75014 0.00099
52.92083 998.00000 984.42049 0.00100
52.93083 1012.00000 984.07992 0.00099
52.94083 975.00000 983.71866 0.00103
52.95083 1042.00000 983.32590 0.00096
52.96083 1051.00000 982.89001 0.00095
52.97083 1007.00000 982.39878 0.00099
52.98083 1011.00000 981.83963 0.00099
52.99083 976.00000 981.19998 0.00102
53.00083 885.00000 980.46753 0.00113
53.01083 1059.00000 979.63067 0.00094
53.02083 1009.00000 978.67878 0.00099
53.03083 966.00000 977.60262 0.00104
53.04083 1031.00000 976.39466 0.00097
53.05083 1032.00000 975.04937 0.00097
53.06083 1020.00000 973.56360 0.00098
53.07084 953.00000 971.93521 0.00105
53.08083 976.00000 970.17010 0.00102
53.09084 1026.00000 968.26189 0.00097
53.10083 993.00000 966.22496 0.00101
53.11084 946.00000 964.06003 0.00106
53.12083 965.00000 961.78570 0.00104
53.13084 950.00000 959.40410 0.00105
53.14083 955.00000 956.93716 0.00105
53.15084 961.00000 954.38826 0.00104
53.16084 964.00000 951.77867 0.00104
53.17084 922.00000 949.11979 0.00108
53.18084 955.00000 946.42541 0.00105
53.19084 1007.00000 943.70893 0.00099
53.20084 945.00000 940.98321 0.00106
53.21084 916.00000 938.26037 0.00109
53.22084 962.00000 935.55166 0.00104
53.23084 931.00000 932.86744 0.00107
53.24084 948.00000 930.21710 0.00105
53.25084 885.00000 927.60908 0.00113
53.26084 910.00000 925.05086 0.00110
53.27084 905.00000 922.54902 0.00110
53.28084 914.00000 920.10928 0.00109
53.29084 917.00000 917.73656 0.00109
53.30084 944.00000 915.43503 0.00106
53.31084 877.00000 913.20820 0.00114
53.32084 954.00000 911.05897 0.00105
53.33084 897.00000 908.98967 0.00111
53.34084 921.00000 907.00217 0.00109
53.35084 878.00000 905.09788 0.00114
53.36084 939.00000 903.27786 0.00106
53.37084 933.00000 901.54279 0.00107
53.38084 905.00000 899.89310 0.00110
53.39084 875.00000 898.32893 0.00114
53.40084 883.00000 896.85022 0.00113
53.41084 848.00000 895.45670 0.00118
53.42084 926.00000 894.14794 0.00108
53.43084 873.00000 892.92339 0.00115
53.44084 921.00000 891.78236 0.00109
53.45084 871.00000 890.72408 0.00115
53.46084 900.00000 889.74770 0.00111
53.47084 904.00000 888.85230 0.00111
53.48084 879.00000 888.03694 0.00114
53.49084 873.00000 887.30063 0.00115
53.50084 929.00000 886.64237 0.00108
53.51085 907.00000 886.06061 0.00110
53.52084 888.00000 885.55600 0.00113
53.53085 856.00000 885.12553 0.00117
53.54084 864.00000 884.76998 0.00116
53.55085 870.00000 884.48700 0.00115
53.56084 908.00000 884.27687 0.00110
53.57085 902.00000 884.13791 0.00111
53.58084 898.00000 884.06995 0.00111
53.59085 861.00000 884.07197 0.00116
53.60085 907.00000 884.14348 0.00110
53.61085 903.00000 884.28387 0.00111
53.62085 868.00000 884.49266 0.00115
53.63085 878.00000 884.76943 0.00114
53.64085 923.00000 885.11386 0.00108
53.65085 883.00000 885.52570 0.00113
53.66085 914.00000 886.00476 0.00109
53.67085 847.00000 886.55097 0.00118
53.68085 854.00000 887.16430 0.00117
53.69085 912.00000 887.84482 0.00110
53.70085 924.00000 888.59267 0.00108
53.71085 858.00000 889.40805 0.00117
53.72085 866.00000 890.29125 0.00115
53.73085 916.00000 891.24267 0.00109
53.74085 855.00000 892.26276 0.00117
53.75085 885.00000 893.35209 0.00113
53.76085 926.00000 894.51127 0.00108
53.77085 861.00000 895.74098 0.00116
53.78085 904.00000 897.04202 0.00111
53.79085 848.00000 898.41523 0.00118
53.80085 876.00000 899.86162 0.00114
53.81085 870.00000 901.38233 0.00115
53.82085 883.00000 902.97879 0.00113
53.83085 932.00000 904.65298 0.00107
53.84085 906.00000 906.40855 0.00110
53.85085 891.00000 908.25341 0.00112
53.86085 876.00000 910.19576 0.00114
53.87085 865.00000 912.21298 0.00116
53.88085 868.00000 914.27117 0.00115
53.89085 870.00000 916.39140 0.00115
53.90085 847.00000 918.58749 0.00118
53.91085 871.00000 920.86125 0.00115
53.92085 889.00000 923.21276 0.00112
53.93085 882.00000 925.64193 0.00113
53.94085 874.00000 928.14849 0.00114
53.95086 856.00000 930.73460 0.00117
53.96085 912.00000 933.39170 0.00110
53.97086 900.00000 936.12950 0.00111
53.98085 948.00000 938.93581 0.00105
53.99086 903.00000 941.82035 0.00111
54.00085 927.00000 944.76968 0.00108
54.01086 881.00000 947.79335 0.00114
54.02085 938.00000 950.87655 0.00107
54.03086 1005.00000 954.02848 0.00100
54.04086 951.00000 957.23609 0.00105
54.05086 931.00000 960.49828 0.00107
54.06086 897.00000 963.81024 0.00111
54.07086 953.00000 967.16652 0.00105
54.08086 984.00000 970.56101 0.00102
54.09086 951.00000 973.98690 0.00105
54.10086 949.00000 977.43663 0.00105
54.11086 959.00000 980.90187 0.00104
54.12086 944.00000 984.37348 0.00106
54.13086 917.00000 987.84154 0.00109
54.14086 948.00000 991.29528 0.00105
54.15086 945.00000 994.72313 0.00106
54.16086 992.00000 998.11270 0.00101
54.17086 945.00000 1001.45082 0.00106
54.18086 932.00000 1004.72360 0.00107
54.19086 927.00000 1007.91637 0.00108
54.20086 894.00000 1011.01369 0.00112
54.21086 926.00000 1013.99909 0.00108
54.22086 966.00000 1016.85324 0.00104
54.23086 940.00000 1019.55863 0.00106
54.24086 944.00000 1022.12459 0.00106
54.25086 930.00000 1024.52579 0.00108
54.26086 952.00000 1026.74082 0.00105
54.27086 864.00000 1028.75599 0.00116
54.28086 912.00000 1030.56013 0.00110
54.29086 975.00000 1032.14563 0.00103
54.30086 979.00000 1033.49252 0.00102
54.31086 929.00000 1034.57118 0.00108
54.32086 902.00000 1035.38108 0.00111
54.33086 985.00000 1035.92174 0.00102
54.34086 916.00000 1036.18916 0.00109
54.35086 899.00000 1036.17996 0.00111
54.36086 912.00000 1035.89276 0.00110
54.37086 919.00000 1035.32818 0.00109
54.38086 873.00000 1034.48888 0.00115
54.39087 923.00000 1033.37821 0.00108
54.40086 938.00000 1032.00652 0.00107
54.41087 954.00000 1030.37650 0.00105
54.42086 970.00000 1028.50471 0.00103
54.43087 908.00000 1026.39491 0.00110
54.44086 1002.00000 1024.06831 0.00100
54.45087 910.00000 1021.52921 0.00110
54.46087 907.00000 1018.79956 0.00110
54.47087 933.00000 1015.89213 0.00107
54.48087 827.00000 1012.82256 0.00121
54.49087 884.00000 1009.60674 0.00113
54.50087 916.00000 1006.26060 0.00109
54.51087 925.00000 1002.79992 0.00108
54.52087 920.00000 999.24024 0.00109
54.53087 938.00000 995.59664 0.00107
54.54087 922.00000 991.88369 0.00108
54.55087 953.00000 988.11532 0.00105
54.56087 943.00000 984.30476 0.00106
54.57087 926.00000 980.46449 0.00108
54.58087 942.00000 976.60617 0.00106
54.59087 934.00000 972.74066 0.00107
54.60087 917.00000 968.87798 0.00109
54.61087 981.00000 965.02732 0.00102
54.62087 892.00000 961.19707 0.00112
54.63087 923.00000 957.39481 0.00108
54.64087 922.00000 953.62737 0.00108
54.65087 892.00000 949.90085 0.00112
54.66087 933.00000 946.22067 0.00107
54.67087 862.00000 942.59158 0.00116
54.68087 869.00000 939.01774 0.00115
54.69087 944.00000 935.50273 0.00106
54.70087 871.00000 932.04961 0.00115
54.71087 873.00000 928.66097 0.00115
54.72087 881.00000 925.33895 0.00114
54.73087 862.00000 922.08527 0.00116
54.74087 905.00000 918.90131 0.00110
54.75087 871.00000 915.78809 0.00115
54.76087 846.00000 912.74634 0.00118
54.77087 875.00000 909.77653 0.00114
54.78087 920.00000 906.87886 0.00109
54.79087 850.00000 904.05333 0.00118
54.80087 836.00000 901.29975 0.00120
54.81087 803.00000 898.61773 0.00125
54.82087 867.00000 896.00675 0.00115
54.83088 833.00000 893.46365 0.00120
54.84087 883.00000 890.99513 0.00113
54.85088 825.00000 888.59046 0.00121
54.86087 882.00000 886.25823 0.00113
54.87088 844.00000 883.98808 0.00118
54.88087 872.00000 881.78791 0.00115
54.89088 895.00000 879.64777 0.00112
54.90088 876.00000 877.57289 0.00114
54.91088 873.00000 875.55984 0.00115
54.92088 862.00000 873.60730 0.00116
54.93088 880.00000 871.71394 0.00114
54.94088 873.00000 869.87838 0.00115
54.95088 864.00000 868.09925 0.00116
54.96088 882.00000 866.37517 0.00113
54.97088 864.00000 864.70472 0.00116
54.98088 898.00000 863.08652 0.00111
54.99088 863.00000 861.51917 0.00116
55.00088 874.00000 860.00126 0.00114
55.01088 874.00000 858.53142 0.00114
55.02088 883.00000 857.10827 0.00113
55.03088 830.00000 855.73045 0.00120
55.04088 841.00000 854.39660 0.00119
55.05088 850.00000 853.10540 0.00118
55.06088 891.00000 851.85553 0.00112
55.07088 874.00000 850.64571 0.00114
55.08088 854.00000 849.47467 0.00117
55.09088 888.00000 848.34115 0.00113
55.10088 852.00000 847.24395 0.00117
55.11088 853.00000 846.18187 0.00117
55.12088 843.00000 845.15374 0.00119
55.13088 875.00000 844.15843 0.00114
55.14088 789.00000 843.19481 0.00127
55.15088 866.00000 842.26182 0.00115
55.16088 798.00000 841.35839 0.00125
55.17088 855.00000 840.48351 0.00117
55.18088 836.00000 839.63618 0.00120
55.19088 850.00000 838.81543 0.00118
55.20088 828.00000 838.02034 0.00121
55.21088 830.00000 837.25000 0.00120
55.22088 872.00000 836.50354 0.00115
55.23088 845.00000 835.78011 0.00118
55.24088 809.00000 835.07889 0.00124
55.25089 854.00000 834.39845 0.00117
55.26088 823.00000 833.74001 0.00122
55.27089 793.00000 833.10023 0.00126
55.28088 846.00000 832.48095 0.00118
55.29089 831.00000 831.87904 0.00120
55.30088 773.00000 831.29623 0.00129
55.31089 826.00000 830.72959 0.00121
55.32088 842.00000 830.18078 0.00119
55.33089 845.00000 829.64704 0.00118
55.34089 858.00000 829.12944 0.00117
55.35089 859.00000 828.62694 0.00116
55.36089 797.00000 828.13902 0.00125
55.37089 836.00000 827.66522 0.00120
55.38089 857.00000 827.20508 0.00117
55.39089 845.00000 826.75818 0.00118
55.40089 822.00000 826.32410 0.00122
55.41089 873.00000 825.90245 0.00115
55.42089 921.00000 825.49287 0.00109
55.43089 841.00000 825.09500 0.00119
55.44089 800.00000 824.70851 0.00125
55.45089 830.00000 824.33308 0.00120
55.46089 803.00000 823.96844 0.00125
55.47089 836.00000 823.61433 0.00120
55.48089 831.00000 823.27055 0.00120
55.49089 826.00000 822.93691 0.00121
55.50089 817.00000 822.61325 0.00122
55.51089 840.00000 822.29945 0.00119
55.52089 797.00000 821.99543 0.00125
55.53089 834.00000 821.70117 0.00120
55.54089 826.00000 821.41676 0.00121
55.55089 818.00000 821.14246 0.00122
55.56089 855.00000 820.87883 0.00117
55.57089 865.00000 820.62721 0.00116
55.58089 832.00000 820.39201 0.00120
55.59089 865.00000 820.18050 0.00116
55.60089 840.00000 819.97787 0.00119
55.61089 898.00000 819.75856 0.00111
55.62089 838.00000 819.53521 0.00119
55.63089 839.00000 819.31692 0.00119
55.64089 848.00000 819.10436 0.00118
55.65089 834.00000 818.89617 0.00120
55.66089 847.00000 818.68873 0.00118
55.67089 829.00000 818.47667 0.00121
55.68089 786.00000 818.27293 0.00127
55.69090 832.00000 818.09771 0.00120
55.70089 841.00000 817.93685 0.00119
55.71090 813.00000 817.78352 0.00123
55.72089 819.00000 817.63782 0.00122
55.73090 826.00000 817.49918 0.00121
55.74089 838.00000 817.36816 0.00119
55.75090 877.00000 817.24423 0.00114
55.76089 830.00000 817.12792 0.00120
55.77090 795.00000 817.01878 0.00126
55.78090 803.00000 816.91721 0.00125
55.79090 778.00000 816.82312 0.00129
55.80090 814.00000 816.73657 0.00123
55.81090 842.00000 816.65764 0.00119
55.82090 821.00000 816.58637 0.00122
55.83090 853.00000 816.52287 0.00117
55.84090 833.00000 816.46722 0.00120
55.85090 852.00000 816.41951 0.00117
55.86090 830.00000 816.37985 0.00120
55.87090 842.00000 816.34837 0.00119
55.88090 867.00000 816.32520 0.00115
55.89090 835.00000 816.31046 0.00120
55.90090 835.00000 816.30432 0.00120
55.91090 869.00000 816.30692 0.00115
55.92090 829.00000 816.31845 0.00121
55.93090 832.00000 816.33909 0.00120
55.94090 845.00000 816.36904 0.00118
55.95090 871.00000 816.40849 0.00115
55.96090 848.00000 816.45768 0.00118
55.97090 859.00000 816.51685 0.00116
55.98090 827.00000 816.58623 0.00121
55.99090 877.00000 816.66609 0.00114
56.00090 836.00000 816.75670 0.00120
56.01090 743.00000 816.85837 0.00135
56.02090 782.00000 816.97139 0.00128
56.03090 812.00000 817.09609 0.00123
56.04090 800.00000 817.23279 0.00125
56.05090 795.00000 817.38186 0.00126
56.06090 810.00000 817.54365 0.00123
56.07090 793.00000 817.71855 0.00126
56.08090 832.00000 817.90695 0.00120
56.09090 809.00000 818.10927 0.00124
56.10090 870.00000 818.32593 0.00115
56.11090 808.00000 818.55736 0.00124
56.12090 839.00000 818.80402 0.00119
56.13091 820.00000 819.06663 0.00122
56.14090 810.00000 819.34488 0.00123
56.15091 837.00000 819.64034 0.00119
56.16090 803.00000 819.95235 0.00125
56.17091 856.00000 820.28264 0.00117
56.18090 789.00000 820.63042 0.00127
56.19091 850.00000 820.99758 0.00118
56.20090 835.00000 821.38320 0.00120
56.21091 833.00000 821.78930 0.00120
56.22091 847.00000 822.21526 0.00118
56.23091 824.00000 822.66197 0.00121
56.24091 819.00000 823.12997 0.00122
56.25091 812.00000 823.61977 0.00123
56.26091 819.00000 824.13187 0.00122
56.27091 814.00000 824.66680 0.00123
56.28091 823.00000 825.22504 0.00122
56.29091 843.00000 825.80710 0.00119
56.30091 861.00000 826.41345 0.00116
56.31091 812.00000 827.04460 0.00123
56.32091 843.00000 827.70100 0.00119
56.33091 812.00000 828.38312 0.00123
56.34091 891.00000 829.09144 0.00112
56.35091 849.00000 829.82642 0.00118
56.36091 831.00000 830.58852 0.00120
56.37091 859.00000 831.37820 0.00116
56.38091 794.00000 832.19593 0.00126
56.39091 837.00000 833.04217 0.00119
56.40091 868.00000 833.91741 0.00115
56.41091 849.00000 834.82211 0.00118
56.42091 812.00000 835.75677 0.00123
56.43091 858.00000 836.72187 0.00117
56.44091 829.00000 837.71790 0.00121
56.45091 859.00000 838.74535 0.00116
56.46091 821.00000 839.80468 0.00122
56.47091 801.00000 840.89636 0.00125
56.48091 851.00000 842.02083 0.00118
56.49091 824.00000 843.17846 0.00121
56.50091 859.00000 844.36961 0.00116
56.51091 852.00000 845.59454 0.00117
56.52091 871.00000 846.85345 0.00115
56.53091 867.00000 848.14640 0.00115
56.54091 886.00000 849.47335 0.00113
56.55091 831.00000 850.83408 0.00120
56.56091 843.00000 852.22822 0.00119
56.57092 837.00000 853.65658 0.00119
56.58091 881.00000 855.11404 0.00114
56.59092 888.00000 856.60527 0.00113
56.60091 860.00000 858.12294 0.00116
56.61092 847.00000 859.67134 0.00118
56.62091 873.00000 861.24221 0.00115
56.63092 838.00000 862.83929 0.00119
56.64091 817.00000 864.45330 0.00122
56.65092 812.00000 866.08727 0.00123
56.66092 864.00000 867.73249 0.00116
56.67092 833.00000 869.38622 0.00120
56.68092 865.00000 871.04359 0.00116
56.69092 854.00000 872.69923 0.00117
56.70092 857.00000 874.34727 0.00117
56.71092 853.00000 875.98135 0.00117
56.72092 872.00000 877.59466 0.00115
56.73092 795.00000 879.17998 0.00126
56.74092 826.00000 880.72973 0.00121
56.75092 840.00000 882.23607 0.00119
56.76092 866.00000 883.69095 0.00115
56.77092 876.00000 885.08626 0.00114
56.78092 826.00000 886.41391 0.00121
56.79092 827.00000 887.66601 0.00121
56.80092 886.00000 888.83496 0.00113
56.81092 848.00000 889.91361 0.00118
56.82092 816.00000 890.89545 0.00123
56.83092 854.00000 891.77467 0.00117
56.84092 894.00000 892.54636 0.00112
56.85092 882.00000 893.20660 0.00113
56.86092 820.00000 893.75255 0.00122
56.87092 878.00000 894.18249 0.00114
56.88092 841.00000 894.49593 0.00119
56.89092 842.00000 894.69356 0.00119
56.90092 840.00000 894.77724 0.00119
56.91092 822.00000 894.74993 0.00122
56.92092 843.00000 894.61565 0.00119
56.93092 837.00000 894.37934 0.00119
56.94092 894.00000 894.04672 0.00112
56.95092 879.00000 893.62418 0.00114
56.96092 856.00000 893.11861 0.00117
56.97092 888.00000 892.53724 0.00113
56.98092 907.00000 891.88750 0.00110
56.99092 939.00000 891.17686 0.00106
57.00092 897.00000 890.41271 0.00111
57.01093 834.00000 889.60141 0.00120
57.02092 856.00000 888.75227 0.00117
57.03093 840.00000 887.86843 0.00119
57.04092 868.00000 886.95935 0.00115
57.05093 902.00000 886.02690 0.00111
57.06092 868.00000 885.07969 0.00115
57.07093 857.00000 884.11829 0.00117
57.08092 879.00000 883.15027 0.00114
57.09093 845.00000 882.17492 0.00118
57.10093 928.00000 881.19777 0.00108
57.11093 871.00000 880.21992 0.00115
57.12093 870.00000 879.24291 0.00115
57.13093 826.00000 878.26785 0.00121
57.14093 824.00000 877.29539 0.00121
57.15093 799.00000 876.32581 0.00125
57.16093 873.00000 875.35906 0.00115
57.17093 856.00000 874.39481 0.00117
57.18093 869.00000 873.43247 0.00115
57.19093 853.00000 872.47128 0.00117
57.20093 804.00000 871.51033 0.00124
57.21093 835.00000 870.54863 0.00120
57.22093 856.00000 869.58512 0.00117
57.23093 836.00000 868.61875 0.00120
57.24093 874.00000 867.64847 0.00114
57.25093 839.00000 866.67333 0.00119
57.26093 844.00000 865.69246 0.00118
57.27093 821.00000 864.70509 0.00122
57.28093 815.00000 863.71062 0.00123
57.29093 844.00000 862.70860 0.00118
57.30093 868.00000 861.69876 0.00115
57.31093 779.00000 860.68098 0.00128
57.32093 834.00000 859.65537 0.00120
57.33093 887.00000 858.62219 0.00113
57.34093 869.00000 857.58189 0.00115
57.35093 886.00000 856.53509 0.00113
57.36093 912.00000 855.48255 0.00110
57.37093 864.00000 854.42521 0.00116
57.38093 833.00000 853.36411 0.00120
57.39093 841.00000 852.30038 0.00119
57.40093 861.00000 851.23526 0.00116
57.41093 878.00000 850.17001 0.00114
57.42093 867.00000 849.10596 0.00115
57.43093 871.00000 848.04446 0.00115
57.44093 835.00000 846.98686 0.00120
57.45094 856.00000 845.93344 0.00117
57.46093 826.00000 844.88869 0.00121
57.47094 840.00000 843.84962 0.00119
57.48093 818.00000 842.82160 0.00122
57.49094 867.00000 841.80155 0.00115
57.50093 817.00000 840.79456 0.00122
57.51094 789.00000 839.79737 0.00127
57.52094 871.00000 838.81362 0.00115
57.53094 839.00000 837.84257 0.00119
57.54094 833.00000 836.88381 0.00120
57.55094 817.00000 835.93545 0.00122
57.56094 798.00000 834.99098 0.00125
57.57094 834.00000 834.03966 0.00120
57.58094 832.00000 833.10807 0.00120
57.59094 820.00000 832.24498 0.00122
57.60094 806.00000 831.41931 0.00124
57.61094 834.00000 830.62033 0.00120
57.62094 778.00000 829.85301 0.00129
57.63094 841.00000 829.11069 0.00119
57.64094 831.00000 828.37190 0.00120
57.65094 803.00000 827.64593 0.00125
57.66094 850.00000 826.93994 0.00118
57.67094 879.00000 826.25536 0.00114
57.68094 771.00000 825.59226 0.00130
57.69094 814.00000 824.95063 0.00123
57.70094 880.00000 824.33046 0.00114
57.71094 836.00000 823.73167 0.00120
57.72094 845.00000 823.15421 0.00118
57.73094 835.00000 822.59798 0.00120
57.74094 856.00000 822.06287 0.00117
57.75094 803.00000 821.54878 0.00125
57.76094 804.00000 821.05556 0.00124
57.77094 796.00000 820.58311 0.00126
57.78094 793.00000 820.13128 0.00126
57.79094 819.00000 819.69993 0.00122
57.80094 808.00000 819.28895 0.00124
57.81094 825.00000 818.89821 0.00121
57.82094 826.00000 818.52759 0.00121
57.83094 793.00000 818.17703 0.00126
57.84094 786.00000 817.84651 0.00127
57.85094 810.00000 817.53559 0.00123
57.86094 843.00000 817.24429 0.00119
57.87094 823.00000 816.97287 0.00122
57.88094 838.00000 816.72155 0.00119
57.89095 825.00000 816.48879 0.00121
57.90094 796.00000 816.27490 0.00126
57.91095 841.00000 816.07951 0.00119
57.92094 809.00000 815.90364 0.00124
57.93095 802.00000 815.74657 0.00125
57.94094 762.00000 815.60897 0.00131
57.95095 811.00000 815.49030 0.00123
57.96095 775.00000 815.39101 0.00129
57.97095 807.00000 815.31103 0.00124
57.98095 827.00000 815.25049 0.00121
57.99095 812.00000 815.20951 0.00123
58.00095 825.00000 815.18828 0.00121
58.01095 864.00000 815.18703 0.00116
58.02095 877.00000 815.20602 0.00114
58.03095 811.00000 815.24556 0.00123
58.04095 809.00000 815.30603 0.00124
58.05095 785.00000 815.38788 0.00127
58.06095 808.00000 815.49166 0.00124
58.07095 810.00000 815.61807 0.00123
58.08095 828.00000 815.76828 0.00121
58.09095 821.00000 815.94368 0.00122
58.10095 790.00000 816.14286 0.00127
58.11095 826.00000 816.36862 0.00121
58.12095 807.00000 816.62450 0.00124
58.13095 790.00000 816.89965 0.00127
58.14095 875.00000 817.19745 0.00114
58.15095 860.00000 817.52249 0.00116
58.16095 815.00000 817.87682 0.00123
58.17095 830.00000 818.26177 0.00120
58.18095 834.00000 818.67874 0.00120
58.19095 884.00000 819.12924 0.00113
58.20095 861.00000 819.61493 0.00116
58.21095 776.00000 820.13758 0.00129
58.22095 836.00000 820.69913 0.00120
58.23095 860.00000 821.30165 0.00116
58.24095 873.00000 821.94737 0.00115
58.25095 823.00000 822.63871 0.00122
58.26095 829.00000 823.37824 0.00121
58.27095 837.00000 824.16872 0.00119
58.28095 815.00000 825.01317 0.00123
58.29095 857.00000 825.91501 0.00117
58.30095 848.00000 826.87806 0.00118
58.31096 808.00000 827.90528 0.00124
58.32095 812.00000 828.99602 0.00123
58.33096 865.00000 830.15910 0.00116
58.34095 803.00000 831.39442 0.00125
58.35096 858.00000 832.71112 0.00117
58.36095 845.00000 834.10831 0.00118
58.37096 836.00000 835.59596 0.00120
58.38095 812.00000 837.17280 0.00123
58.39096 823.00000 838.84979 0.00122
58.40096 855.00000 840.62698 0.00117
58.41096 829.00000 842.51093 0.00121
58.42096 855.00000 844.50672 0.00117
58.43096 821.00000 846.61946 0.00122
58.44096 867.00000 848.85433 0.00115
58.45096 838.00000 851.21656 0.00119
58.46096 808.00000 853.71136 0.00124
58.47096 829.00000 856.34387 0.00121
58.48096 813.00000 859.11923 0.00123
58.49096 840.00000 862.04249 0.00119
58.50096 836.00000 865.11861 0.00120
58.51096 840.00000 868.35237 0.00119
58.52096 862.00000 871.74835 0.00116
58.53096 846.00000 875.31093 0.00118
58.54096 835.00000 879.04421 0.00120
58.55096 833.00000 882.95197 0.00120
58.56096 827.00000 887.03760 0.00121
58.57096 848.00000 891.30407 0.00118
58.58096 866.00000 895.75378 0.00115
58.59096 926.00000 900.38827 0.00108
58.60096 885.00000 905.20798 0.00113
58.61096 833.00000 910.21468 0.00120
58.62096 903.00000 915.41414 0.00111
58.63096 903.00000 920.80350 0.00111
58.64096 919.00000 926.37813 0.00109
58.65096 937.00000 932.13365 0.00107
58.66096 932.00000 938.06700 0.00107
58.67096 980.00000 944.17350 0.00102
58.68096 957.00000 950.44655 0.00104
58.69096 992.00000 956.87781 0.00101
58.70096 988.00000 963.45717 0.00101
58.71096 961.00000 970.17250 0.00104
58.72096 1048.00000 977.00941 0.00095
58.73096 1051.00000 983.95078 0.00095
58.74096 1025.00000 990.97576 0.00098
58.75097 1043.00000 998.06440 0.00096
58.76096 1116.00000 1005.15509 0.00090
58.77097 1056.00000 1012.25334 0.00095
58.78096 1061.00000 1019.41378 0.00094
58.79097 1102.00000 1026.58754 0.00091
58.80096 1077.00000 1033.68780 0.00093
58.81097 1133.00000 1040.71047 0.00088
58.82096 1106.00000 1047.59497 0.00090
58.83097 1095.00000 1054.33689 0.00091
58.84097 1110.00000 1060.88375 0.00090
58.85097 1112.00000 1067.21222 0.00090
58.86097 1131.00000 1073.29438 0.00088
58.87097 1176.00000 1079.10552 0.00085
58.88097 1151.00000 1084.62502 0.00087
58.89097 1195.00000 1089.83716 0.00084
58.90097 1201.00000 1094.73178 0.00083
58.91097 1195.00000 1099.30480 0.00084
58.92097 1119.00000 1103.55851 0.00089
58.93097 1160.00000 1107.50161 0.00086
58.94097 1223.00000 1111.14907 0.00082
58.95097 1209.00000 1114.52165 0.00083
58.96097 1175.00000 1117.64527 0.00085
58.97097 1200.00000 1120.55022 0.00083
58.98097 1197.00000 1123.27011 0.00084
58.99097 1233.00000 1125.84086 0.00081
59.00097 1249.00000 1128.29960 0.00080
59.01097 1159.00000 1130.68357 0.00086
59.02097 1249.00000 1133.02909 0.00080
59.03097 1213.00000 1135.37063 0.00082
59.04097 1218.00000 1137.73993 0.00082
59.05097 1251.00000 1140.16531 0.00080
59.06097 1253.00000 1142.67101 0.00080
59.07097 1258.00000 1145.27672 0.00079
59.08097 1198.00000 1147.99714 0.00083
59.09097 1214.00000 1150.84167 0.00082
59.10097 1272.00000 1153.81418 0.00079
59.11097 1213.00000 1156.91280 0.00082
59.12097 1233.00000 1160.12978 0.00081
59.13097 1246.00000 1163.45146 0.00080
59.14097 1362.00000 1166.85819 0.00073
59.15097 1302.00000 1170.32442 0.00077
59.16097 1322.00000 1173.81877 0.00076
59.17097 1306.00000 1177.30422 0.00077
59.18097 1310.00000 1180.73846 0.00076
59.19098 1297.00000 1184.07748 0.00077
59.20097 1315.00000 1187.26006 0.00076
59.21098 1361.00000 1190.24354 0.00073
59.22097 1343.00000 1192.95843 0.00074
59.23098 1370.00000 1195.35586 0.00073
59.24097 1338.00000 1197.36675 0.00075
59.25098 1350.00000 1198.94003 0.00074
59.26097 1354.00000 1200.01343 0.00074
59.27098 1359.00000 1200.53871 0.00074
59.28098 1364.00000 1200.46697 0.00073
59.29098 1358.00000 1199.75934 0.00074
59.30098 1313.00000 1198.38455 0.00076
59.31098 1335.00000 1196.32067 0.00075
59.32098 1341.00000 1193.55591 0.00075
59.33098 1385.00000 1190.08899 0.00072
59.34098 1319.00000 1185.92916 0.00076
59.35098 1262.00000 1181.09583 0.00079
59.36098 1324.00000 1175.61790 0.00076
59.37098 1343.00000 1169.53269 0.00074
59.38098 1263.00000 1162.88471 0.00079
59.39098 1270.00000 1155.72423 0.00079
59.40098 1269.00000 1148.10581 0.00079
59.41098 1310.00000 1140.08681 0.00076
59.42098 1208.00000 1131.72594 0.00083
59.43098 1243.00000 1123.08199 0.00080
59.44098 1215.00000 1114.21271 0.00082
59.45098 1203.00000 1105.17388 0.00083
59.46098 1141.00000 1096.01855 0.00088
59.47098 1146.00000 1086.79654 0.00087
59.48098 1220.00000 1077.55404 0.00082
59.49098 1090.00000 1068.33349 0.00092
59.50098 1116.00000 1059.17360 0.00090
59.51098 1065.00000 1050.10944 0.00094
59.52098 1055.00000 1041.17099 0.00095
59.53098 1089.00000 1032.38349 0.00092
59.54098 1031.00000 1023.77150 0.00097
59.55098 1048.00000 1015.35636 0.00095
59.56098 1018.00000 1007.15596 0.00098
59.57098 1040.00000 999.18537 0.00096
59.58098 1002.00000 991.45725 0.00100
59.59098 960.00000 983.98203 0.00104
59.60098 924.00000 976.76816 0.00108
59.61098 1015.00000 969.82227 0.00099
59.62098 1011.00000 963.14941 0.00099
59.63099 905.00000 956.74685 0.00110
59.64098 930.00000 950.63566 0.00108
59.65099 900.00000 944.79241 0.00111
59.66098 924.00000 939.24052 0.00108
59.67099 932.00000 933.95683 0.00107
59.68098 880.00000 928.96074 0.00114
59.69099 943.00000 924.22977 0.00106
59.70098 914.00000 919.77974 0.00109
59.71099 914.00000 915.58916 0.00109
59.72099 893.00000 911.66688 0.00112
59.73099 914.00000 908.00406 0.00109
59.74099 900.00000 904.59586 0.00111
59.75099 896.00000 901.43721 0.00112
59.76099 874.00000 898.52283 0.00114
59.77099 875.00000 895.84733 0.00114
59.78099 913.00000 893.40529 0.00110
59.79099 858.00000 891.19129 0.00117
59.80099 885.00000 889.19994 0.00113
59.81099 833.00000 887.42601 0.00120
59.82099 881.00000 885.86438 0.00114
59.83099 951.00000 884.51018 0.00105
59.84099 900.00000 883.35878 0.00111
59.85099 842.00000 882.40587 0.00119
59.86099 873.00000 881.64756 0.00115
59.87099 908.00000 881.08055 0.00110
59.88099 840.00000 880.70308 0.00119
59.89099 853.00000 880.51495 0.00117
59.90099 879.00000 880.50786 0.00114
59.91099 880.00000 880.67007 0.00114
59.92099 913.00000 881.00376 0.00110
59.93099 890.00000 881.51088 0.00112
59.94099 880.00000 882.19093 0.00114
59.95099 916.00000 883.04306 0.00109
59.96099 930.00000 884.06672 0.00108
59.97099 891.00000 885.26174 0.00112
59.98099 867.00000 886.62826 0.00115
59.99099 870.00000 888.16675 0.00115
60.00099 897.00000 889.87795 0.00111
60.01099 882.00000 891.76286 0.00113
60.02099 868.00000 893.82268 0.00115
60.03099 898.00000 896.05881 0.00111
60.04099 897.00000 898.47279 0.00111
60.05099 874.00000 901.06626 0.00114
60.06099 911.00000 903.84092 0.00110
60.07100 868.00000 906.80150 0.00115
60.08099 905.00000 909.94052 0.00110
60.09100 901.00000 913.27210 0.00111
60.10099 896.00000 916.78433 0.00112
60.11100 905.00000 920.49245 0.00110
60.12099 915.00000 924.38253 0.00109
60.13100 881.00000 928.47069 0.00114
60.14100 949.00000 932.74511 0.00105
60.15100 904.00000 937.20943 0.00111
60.16100 937.00000 941.86277 0.00107
60.17100 901.00000 946.70364 0.00111
60.18100 931.00000 951.72992 0.00107
60.19100 940.00000 956.93918 0.00106
60.20100 950.00000 962.32810 0.00105
60.21100 956.00000 967.88788 0.00105
60.22100 973.00000 973.61245 0.00103
60.23100 926.00000 979.49559 0.00108
60.24100 959.00000 985.52874 0.00104
60.25100 994.00000 991.70094 0.00101
60.26100 1038.00000 997.99750 0.00096
60.27100 1039.00000 1004.40203 0.00096
60.28100 981.00000 1010.91670 0.00102
60.29100 1036.00000 1017.52898 0.00097
60.30100 1070.00000 1024.21076 0.00093
60.31100 1022.00000 1030.93920 0.00098
60.32100 1020.00000 1037.69070 0.00098
60.33100 1026.00000 1044.43994 0.00097
60.34100 1063.00000 1051.15929 0.00094
60.35100 1099.00000 1057.81900 0.00091
60.36100 1120.00000 1064.38802 0.00089
60.37100 1127.00000 1070.83477 0.00089
60.38100 1089.00000 1077.11798 0.00092
60.39100 1150.00000 1083.18752 0.00087
60.40100 1071.00000 1089.00629 0.00093
60.41100 1135.00000 1094.53106 0.00088
60.42100 1116.00000 1099.72148 0.00090
60.43100 1057.00000 1104.53595 0.00095
60.44100 1109.00000 1108.93233 0.00090
60.45100 1073.00000 1112.86964 0.00093
60.46100 1088.00000 1116.30926 0.00092
60.47100 1116.00000 1119.21578 0.00090
60.48100 1146.00000 1121.55787 0.00087
60.49100 1119.00000 1123.30929 0.00089
60.50100 1141.00000 1124.45123 0.00088
60.51101 1123.00000 1124.96969 0.00089
60.52100 1121.00000 1124.85665 0.00089
60.53101 1136.00000 1124.11181 0.00088
60.54100 1133.00000 1122.74540 0.00088
60.55101 1112.00000 1120.76618 0.00090
60.56100 1106.00000 1118.20267 0.00090
60.57101 1120.00000 1115.07118 0.00089
60.58101 1105.00000 1111.41187 0.00090
60.59101 1118.00000 1107.25769 0.00089
60.60101 1124.00000 1102.64775 0.00089
60.61101 1123.00000 1097.62350 0.00089
60.62101 1088.00000 1092.22780 0.00092
60.63101 1110.00000 1086.50411 0.00090
60.64101 1052.00000 1080.49572 0.00095
60.65101 1055.00000 1074.24511 0.00095
60.66101 1048.00000 1067.79342 0.00095
60.67101 1041.00000 1061.17999 0.00096
60.68101 1048.00000 1054.44211 0.00095
60.69101 1004.00000 1047.61476 0.00100
60.70101 1055.00000 1040.73049 0.00095
60.71101 1011.00000 1033.81940 0.00099
60.72101 1016.00000 1026.90905 0.00098
60.73101 965.00000 1020.02460 0.00104
60.74101 1004.00000 1013.18882 0.00100
60.75101 978.00000 1006.42221 0.00102
60.76101 979.00000 999.74312 0.00102
60.77101 1007.00000 993.16785 0.00099
60.78101 963.00000 986.71081 0.00104
60.79101 910.00000 980.38460 0.00110
60.80101 902.00000 974.20017 0.00111
60.81101 907.00000 968.16690 0.00110
60.82101 930.00000 962.29276 0.00108
60.83101 914.00000 956.58437 0.00109
60.84101 932.00000 951.04717 0.00107
60.85101 902.00000 945.68546 0.00111
60.86101 885.00000 940.50264 0.00113
60.87101 842.00000 935.50168 0.00119
60.88101 816.00000 930.68467 0.00123
60.89101 885.00000 926.04795 0.00113
60.90101 921.00000 921.59189 0.00109
60.91101 903.00000 917.31674 0.00111
60.92101 875.00000 913.22150 0.00114
60.93102 878.00000 909.30045 0.00114
60.94101 857.00000 905.56279 0.00117
60.95102 902.00000 901.99124 0.00111
60.96101 865.00000 898.59954 0.00116
60.97102 888.00000 895.37321 0.00113
60.98101 861.00000 892.30468 0.00116
60.99102 857.00000 889.37759 0.00117
61.00101 852.00000 886.60414 0.00117
61.01102 894.00000 883.97010 0.00112
61.02102 859.00000 881.47853 0.00116
61.03102 823.00000 879.12123 0.00122
61.04102 870.00000 876.89257 0.00115
61.05102 851.00000 874.78676 0.00118
61.06102 892.00000 872.79791 0.00112
61.07102 857.00000 870.92001 0.00117
61.08102 833.00000 869.14699 0.00120
61.09102 826.00000 867.47267 0.00121
61.10102 859.00000 865.89084 0.00116
61.11102 872.00000 864.39524 0.00115
61.12102 842.00000 862.97958 0.00119
61.13102 869.00000 861.63755 0.00115
61.14102 842.00000 860.36285 0.00119
61.15102 838.00000 859.14918 0.00119
61.16102 852.00000 857.99031 0.00117
61.17102 866.00000 856.88005 0.00115
61.18102 837.00000 855.81231 0.00119
61.19102 801.00000 854.78109 0.00125
61.20102 853.00000 853.78056 0.00117
61.21102 854.00000 852.80506 0.00117
61.22102 903.00000 851.84914 0.00111
61.23102 856.00000 850.90757 0.00117
61.24102 805.00000 849.97544 0.00124
61.25102 808.00000 849.04813 0.00124
61.26102 860.00000 848.12136 0.00116
61.27102 817.00000 847.19125 0.00122
61.28102 854.00000 846.25432 0.00117
61.29102 853.00000 845.30752 0.00117
61.30102 860.00000 844.34823 0.00116
61.31102 850.00000 843.37433 0.00118
61.32102 840.00000 842.38414 0.00119
61.33102 870.00000 841.37645 0.00115
61.34102 823.00000 840.35052 0.00122
61.35102 791.00000 839.30604 0.00126
61.36102 839.00000 838.24313 0.00119
61.37103 827.00000 837.16124 0.00121
61.38102 802.00000 836.06446 0.00125
61.39103 869.00000 834.94965 0.00115
61.40102 852.00000 833.82273 0.00117
61.41103 833.00000 832.68095 0.00120
61.42102 820.00000 831.53078 0.00122
61.43103 763.00000 830.36974 0.00131
61.44102 849.00000 829.20467 0.00118
61.45103 840.00000 828.03323 0.00119
61.46103 864.00000 826.86125 0.00116
61.47103 817.00000 825.68993 0.00122
61.48103 796.00000 824.52161 0.00126
61.49103 825.00000 823.35859 0.00121
61.50103 798.00000 822.20310 0.00125
61.51103 809.00000 821.05730 0.00124
61.52103 871.00000 819.92325 0.00115
61.53103 813.00000 818.80291 0.00123
61.54103 831.00000 817.69812 0.00120
61.55103 779.00000 816.61062 0.00128
61.56103 803.00000 815.54202 0.00125
61.57103 830.00000 814.49384 0.00120
61.58103 752.00000 813.46746 0.00133
61.59103 803.00000 812.46419 0.00125
61.60103 846.00000 811.48522 0.00118
61.61103 787.00000 810.53166 0.00127
61.62103 845.00000 809.60452 0.00118
61.63103 842.00000 808.70477 0.00119
61.64103 845.00000 807.83328 0.00118
61.65103 808.00000 806.99090 0.00124
61.66103 875.00000 806.17840 0.00114
61.67103 806.00000 805.39656 0.00124
61.68103 800.00000 804.64608 0.00125
61.69103 813.00000 803.92768 0.00123
61.70103 824.00000 803.24207 0.00121
61.71103 791.00000 802.58994 0.00126
61.72103 863.00000 801.97201 0.00116
61.73103 770.00000 801.38901 0.00130
61.74103 789.00000 800.84169 0.00127
61.75103 811.00000 800.33084 0.00123
61.76103 773.00000 799.85728 0.00129
61.77103 841.00000 799.42187 0.00119
61.78103 785.00000 799.02555 0.00127
61.79103 806.00000 798.66927 0.00124
61.80103 798.00000 798.35411 0.00125
61.81104 800.00000 798.08096 0.00125
61.82103 814.00000 797.85181 0.00123
61.83104 794.00000 797.66706 0.00126
61.84103 812.00000 797.52887 0.00123
61.85104 816.00000 797.43823 0.00123
61.86103 793.00000 797.39719 0.00126
61.87104 844.00000 797.40746 0.00118
61.88103 848.00000 797.47117 0.00118
61.89104 824.00000 797.59136 0.00121
61.90104 797.00000 797.77317 0.00125
61.91104 816.00000 798.02366 0.00123
61.92104 853.00000 798.32999 0.00117
61.93104 814.00000 798.68385 0.00123
61.94104 787.00000 799.09463 0.00127
61.95104 844.00000 799.56952 0.00118
61.96104 801.00000 800.11175 0.00125
61.97104 781.00000 800.72350 0.00128
61.98104 793.00000 801.40690 0.00126
61.99104 843.00000 802.16410 0.00119
62.00104 807.00000 802.99724 0.00124
62.01104 812.00000 803.90842 0.00123
62.02104 799.00000 804.89971 0.00125
62.03104 772.00000 805.97310 0.00130
62.04104 793.00000 807.13051 0.00126
62.05104 804.00000 808.37376 0.00124
62.06104 806.00000 809.70455 0.00124
62.07104 787.00000 811.12442 0.00127
62.08104 753.00000 812.63477 0.00133
62.09104 813.00000 814.23678 0.00123
62.10104 862.00000 815.93142 0.00116
62.11104 842.00000 817.71943 0.00119
62.12104 814.00000 819.60126 0.00123
62.13104 811.00000 821.57705 0.00123
62.14104 840.00000 823.64662 0.00119
62.15104 853.00000 825.80939 0.00117
62.16104 813.00000 828.06440 0.00123
62.17104 842.00000 830.41021 0.00119
62.18104 876.00000 832.84491 0.00114
62.19104 877.00000 835.36604 0.00114
62.20104 864.00000 837.97054 0.00116
62.21104 821.00000 840.65472 0.00122
62.22104 843.00000 843.41419 0.00119
62.23104 916.00000 846.24378 0.00109
62.24104 908.00000 849.13750 0.00110
62.25105 856.00000 852.09144 0.00117
62.26104 900.00000 855.08879 0.00111
62.27105 845.00000 858.13266 0.00118
62.28104 902.00000 861.20086 0.00111
62.29105 908.00000 864.29449 0.00110
62.30104 808.00000 867.38878 0.00124
62.31105 938.00000 870.48240 0.00107
62.32104 975.00000 873.54802 0.00103
62.33105 951.00000 876.58159 0.00105
62.34105 944.00000 879.55641 0.00106
62.35105 882.00000 882.45677 0.00113
62.36105 881.00000 885.26283 0.00114
62.37105 961.00000 887.95382 0.00104
62.38105 895.00000 890.50830 0.00112
62.39105 876.00000 892.90438 0.00114
62.40105 908.00000 895.12010 0.00110
62.41105 932.00000 897.13383 0.00107
62.42105 919.00000 898.92479 0.00109
62.43105 876.00000 900.47393 0.00114
62.44105 963.00000 901.76431 0.00104
62.45105 955.00000 902.77667 0.00105
62.46105 903.00000 903.49463 0.00111
62.47105 868.00000 903.90943 0.00115
62.48105 933.00000 904.01497 0.00107
62.49105 952.00000 903.80788 0.00105
62.50105 928.00000 903.28814 0.00108
62.51105 925.00000 902.45936 0.00108
62.52105 874.00000 901.32871 0.00114
62.53105 923.00000 899.90671 0.00108
62.54105 911.00000 898.20689 0.00110
62.55105 901.00000 896.24542 0.00111
62.56105 911.00000 894.04064 0.00110
62.57105 894.00000 891.61259 0.00112
62.58105 945.00000 888.98251 0.00106
62.59105 888.00000 886.17237 0.00113
62.60105 875.00000 883.20439 0.00114
62.61105 877.00000 880.10069 0.00114
62.62105 907.00000 876.88292 0.00110
62.63105 869.00000 873.57194 0.00115
62.64105 801.00000 870.18769 0.00125
62.65105 822.00000 866.74892 0.00122
62.66105 834.00000 863.27315 0.00120
62.67105 829.00000 859.77659 0.00121
62.68105 838.00000 856.27409 0.00119
62.69106 840.00000 852.77572 0.00119
62.70105 833.00000 849.30414 0.00120
62.71106 764.00000 845.85648 0.00131
62.72105 872.00000 842.45628 0.00115
62.73106 853.00000 839.09863 0.00117
62.74105 863.00000 835.80458 0.00116
62.75106 798.00000 832.56763 0.00125
62.76105 863.00000 829.40649 0.00116
62.77106 802.00000 826.31349 0.00125
62.78106 811.00000 823.30222 0.00123
62.79106 796.00000 820.37307 0.00126
62.80106 844.00000 817.52896 0.00118
62.81106 827.00000 814.77222 0.00121
62.82106 793.00000 812.10476 0.00126
62.83106 805.00000 809.52830 0.00124
62.84106 776.00000 807.04392 0.00129
62.85106 810.00000 804.64948 0.00123
62.86106 802.00000 802.34555 0.00125
62.87106 732.00000 800.13241 0.00137
62.88106 840.00000 798.00966 0.00119
62.89106 844.00000 795.97638 0.00118
62.90106 818.00000 794.03138 0.00122
62.91106 797.00000 792.17321 0.00125
62.92106 774.00000 790.40023 0.00129
62.93106 773.00000 788.71059 0.00129
62.94106 782.00000 787.10229 0.00128
62.95106 791.00000 785.57316 0.00126
62.96106 789.00000 784.12092 0.00127
62.97106 752.00000 782.74315 0.00133
62.98106 753.00000 781.43736 0.00133
62.99106 731.00000 780.20095 0.00137
63.00106 794.00000 779.03127 0.00126
63.01106 790.00000 777.92561 0.00127
63.02106 799.00000 776.88122 0.00125
63.03106 807.00000 775.89528 0.00124
63.04106 785.00000 774.96499 0.00127
63.05106 782.00000 774.08750 0.00128
63.06106 785.00000 773.25996 0.00127
63.07106 762.00000 772.47949 0.00131
63.08106 789.00000 771.74323 0.00127
63.09106 715.00000 771.04830 0.00140
63.10106 773.00000 770.39185 0.00129
63.11106 813.00000 769.77101 0.00123
63.12106 816.00000 769.18299 0.00123
63.13107 737.00000 768.62443 0.00136
63.14106 740.00000 768.09420 0.00135
63.15107 761.00000 767.58747 0.00131
63.16106 816.00000 767.10364 0.00123
63.17107 785.00000 766.63829 0.00127
63.18106 763.00000 766.19101 0.00131
63.19107 775.00000 765.75827 0.00129
63.20107 807.00000 765.34180 0.00124
63.21107 794.00000 764.94249 0.00126
63.22107 736.00000 764.54398 0.00136
63.23107 771.00000 764.14126 0.00130
63.24107 777.00000 763.73776 0.00129
63.25107 779.00000 763.33477 0.00128
63.26107 802.00000 762.93162 0.00125
63.27107 777.00000 762.52736 0.00129
63.28107 823.00000 762.12126 0.00122
63.29107 815.00000 761.71288 0.00123
63.30107 793.00000 761.30204 0.00126
63.31107 777.00000 760.88878 0.00129
63.32107 808.00000 760.47336 0.00124
63.33107 791.00000 760.05623 0.00126
63.34107 796.00000 759.63798 0.00126
63.35107 772.00000 759.21931 0.00130
63.36107 763.00000 758.80099 0.00131
63.37107 759.00000 758.38384 0.00132
63.38107 773.00000 757.96871 0.00129
63.39107 746.00000 757.55643 0.00134
63.40107 756.00000 757.14782 0.00132
63.41107 795.00000 756.74366 0.00126
63.42107 809.00000 756.34468 0.00124
63.43107 793.00000 755.95155 0.00126
63.44107 779.00000 755.56491 0.00128
63.45107 766.00000 755.18531 0.00131
63.46107 808.00000 754.81328 0.00124
63.47107 781.00000 754.44925 0.00128
63.48107 751.00000 754.09364 0.00133
63.49107 787.00000 753.74680 0.00127
63.50107 719.00000 753.40902 0.00139
63.51107 762.00000 753.08058 0.00131
63.52107 745.00000 752.76170 0.00134
63.53107 760.00000 752.45256 0.00132
63.54107 750.00000 752.15332 0.00133
63.55107 762.00000 751.86410 0.00131
63.56107 745.00000 751.58498 0.00134
63.57108 760.00000 751.31573 0.00132
63.58107 803.00000 751.05719 0.00125
63.59108 766.00000 750.80831 0.00131
63.60107 780.00000 750.57008 0.00128
63.61108 785.00000 750.34147 0.00127
63.62107 746.00000 750.12336 0.00134
63.63108 771.00000 749.91478 0.00130
63.64108 771.00000 749.71623 0.00130
63.65108 770.00000 749.52735 0.00130
63.66108 737.00000 749.34792 0.00136
63.67108 788.00000 749.17761 0.00127
63.68108 791.00000 749.01591 0.00126
63.69108 774.00000 748.86186 0.00129
63.70108 794.00000 748.71326 0.00126
63.71108 812.00000 748.56325 0.00123
63.72108 770.00000 748.40741 0.00130
63.73108 795.00000 748.29062 0.00126
63.74108 763.00000 748.19886 0.00131
63.75108 757.00000 748.11752 0.00132
63.76108 809.00000 748.04830 0.00124
63.77108 803.00000 747.99056 0.00125
63.78108 791.00000 747.94457 0.00126
63.79108 784.00000 747.91063 0.00128
63.80108 769.00000 747.88907 0.00130
63.81108 759.00000 747.88028 0.00132
63.82108 803.00000 747.88467 0.00125
63.83108 732.00000 747.90269 0.00137
63.84108 753.00000 747.93482 0.00133
63.85108 802.00000 747.98158 0.00125
63.86108 748.00000 748.04353 0.00134
63.87108 715.00000 748.12125 0.00140
63.88108 716.00000 748.21537 0.00140
63.89108 768.00000 748.32651 0.00130
63.90108 748.00000 748.45537 0.00134
63.91108 730.00000 748.60261 0.00137
63.92108 719.00000 748.76896 0.00139
63.93108 785.00000 748.95514 0.00127
63.94108 774.00000 749.16188 0.00129
63.95108 779.00000 749.38993 0.00128
63.96108 801.00000 749.64003 0.00125
63.97108 761.00000 749.91293 0.00131
63.98108 788.00000 750.20943 0.00127
63.99109 766.00000 750.53078 0.00131
64.00108 736.00000 750.87682 0.00136
64.01109 744.00000 751.24811 0.00134
64.02108 795.00000 751.64406 0.00126
64.03108 761.00000 752.06662 0.00131
64.04108 770.00000 752.51601 0.00130
64.05109 774.00000 752.99311 0.00129
64.06108 716.00000 753.49678 0.00140
64.07108 733.00000 754.02867 0.00136
64.08109 789.00000 754.58895 0.00127
64.09109 749.00000 755.17654 0.00134
64.10108 751.00000 755.79123 0.00133
64.11108 771.00000 756.43397 0.00130
64.12109 721.00000 757.10445 0.00139
64.13109 743.00000 757.80079 0.00135
64.14108 772.00000 758.52219 0.00130
64.15108 773.00000 759.26918 0.00129
64.16109 707.00000 760.04072 0.00141
64.17109 744.00000 760.83396 0.00134
64.18108 785.00000 761.64729 0.00127
64.19109 795.00000 762.48135 0.00126
64.20109 790.00000 763.33163 0.00127
64.21109 806.00000 764.19658 0.00124
64.22108 778.00000 765.07264 0.00129
64.23109 761.00000 765.95949 0.00131
64.24109 769.00000 766.85113 0.00130
64.25109 767.00000 767.74479 0.00130
64.26109 785.00000 768.63643 0.00127
64.27109 766.00000 769.52166 0.00131
64.28109 739.00000 770.39576 0.00135
64.29109 705.00000 771.25365 0.00142
64.30109 793.00000 772.09002 0.00126
64.31109 778.00000 772.89926 0.00129
64.32109 734.00000 773.67563 0.00136
64.33109 765.00000 774.41329 0.00131
64.34109 775.00000 775.10642 0.00129
64.35109 735.00000 775.74932 0.00136
64.36109 772.00000 776.33656 0.00130
64.37109 751.00000 776.86313 0.00133
64.38109 765.00000 777.32456 0.00131
64.39109 795.00000 777.71706 0.00126
64.40109 780.00000 778.03770 0.00128
64.41109 774.00000 778.28445 0.00129
64.42109 770.00000 778.45632 0.00130
64.43109 777.00000 778.55342 0.00129
64.44109 791.00000 778.57697 0.00126
64.45110 733.00000 778.52926 0.00136
64.46109 815.00000 778.41374 0.00123
64.47109 738.00000 778.23438 0.00136
64.48109 783.00000 777.99641 0.00128
64.49110 789.00000 777.70548 0.00127
64.50109 748.00000 777.36890 0.00134
64.51109 786.00000 776.99270 0.00127
64.52110 733.00000 776.58392 0.00136
64.53110 782.00000 776.15064 0.00128
64.54109 785.00000 775.70028 0.00127
64.55109 780.00000 775.23922 0.00128
64.56110 787.00000 774.77452 0.00127
64.57110 793.00000 774.31393 0.00126
64.58109 843.00000 773.86401 0.00119
64.59109 780.00000 773.43011 0.00128
64.60110 712.00000 773.01818 0.00140
64.61110 793.00000 772.63455 0.00126
64.62109 774.00000 772.28431 0.00129
64.63110 808.00000 771.97130 0.00124
64.64110 804.00000 771.70097 0.00124
64.65110 812.00000 771.47713 0.00123
64.66109 778.00000 771.30374 0.00129
64.67110 796.00000 771.18388 0.00126
64.68110 787.00000 771.12119 0.00127
64.69110 749.00000 771.11847 0.00134
64.70110 782.00000 771.17838 0.00128
64.71110 784.00000 771.30333 0.00128
64.72110 770.00000 771.49548 0.00130
64.73110 767.00000 771.75672 0.00130
64.74110 775.00000 772.08873 0.00129
64.75110 746.00000 772.49293 0.00134
64.76110 768.00000 772.97051 0.00130
64.77110 766.00000 773.52241 0.00131
64.78110 759.00000 774.14937 0.00132
64.79110 796.00000 774.85184 0.00126
64.80110 759.00000 775.63008 0.00132
64.81110 776.00000 776.48412 0.00129
64.82110 757.00000 777.41375 0.00132
64.83110 780.00000 778.41851 0.00128
64.84110 804.00000 779.49771 0.00124
64.85110 828.00000 780.65043 0.00121
64.86110 801.00000 781.87554 0.00125
64.87110 803.00000 783.17182 0.00125
64.88110 794.00000 784.53824 0.00126
64.89111 792.00000 785.97750 0.00126
64.90110 795.00000 787.48697 0.00126
64.91110 803.00000 789.04786 0.00125
64.92110 758.00000 790.65555 0.00132
64.93111 775.00000 792.31325 0.00129
64.94110 785.00000 794.01414 0.00127
64.95110 784.00000 795.75871 0.00128
64.96111 766.00000 797.54145 0.00131
64.97111 814.00000 799.35255 0.00123
64.98110 797.00000 801.18507 0.00125
64.99110 770.00000 803.03517 0.00130
65.00111 818.00000 804.89471 0.00122
65.01111 823.00000 806.75109 0.00122
65.02110 826.00000 808.59477 0.00121
65.03111 729.00000 810.42104 0.00137
65.04111 800.00000 812.21357 0.00125
65.05111 796.00000 813.96276 0.00126
65.06110 836.00000 815.65502 0.00120
65.07111 824.00000 817.28294 0.00121
65.08111 811.00000 818.82895 0.00123
65.09111 767.00000 820.28196 0.00130
65.10110 785.00000 821.62798 0.00127
65.11111 863.00000 822.85839 0.00116
65.12111 817.00000 823.95743 0.00122
65.13111 790.00000 824.91514 0.00127
65.14111 804.00000 825.72123 0.00124
65.15111 843.00000 826.36662 0.00119
65.16111 838.00000 826.84365 0.00119
65.17111 808.00000 827.14624 0.00124
65.18111 755.00000 827.27012 0.00132
65.19111 790.00000 827.21285 0.00127
65.20111 831.00000 826.97399 0.00120
65.21111 804.00000 826.55501 0.00124
65.22111 811.00000 825.95934 0.00123
65.23111 820.00000 825.19219 0.00122
65.24111 764.00000 824.26046 0.00131
65.25111 818.00000 823.17254 0.00122
65.26111 792.00000 821.93808 0.00126
65.27111 837.00000 820.56777 0.00119
65.28111 778.00000 819.07311 0.00129
65.29111 812.00000 817.46614 0.00123
65.30111 788.00000 815.75919 0.00127
65.31111 828.00000 813.96473 0.00121
65.32111 775.00000 812.09510 0.00129
65.33112 776.00000 810.16044 0.00129
65.34111 795.00000 808.17839 0.00126
65.35111 753.00000 806.15443 0.00133
65.36111 810.00000 804.10163 0.00123
65.37112 761.00000 802.02728 0.00131
65.38111 792.00000 799.94441 0.00126
65.39111 785.00000 797.85594 0.00127
65.40112 772.00000 795.77014 0.00130
65.41112 798.00000 793.69840 0.00125
65.42111 785.00000 791.64697 0.00127
65.43111 821.00000 789.61742 0.00122
65.44112 772.00000 787.61495 0.00130
65.45112 797.00000 785.64736 0.00125
65.46111 766.00000 783.71807 0.00131
65.47112 752.00000 781.82465 0.00133
65.48112 861.00000 779.97544 0.00116
65.49112 804.00000 778.17039 0.00124
65.50111 771.00000 776.41212 0.00130
65.51112 780.00000 774.69460 0.00128
65.52112 788.00000 773.01717 0.00127
65.53112 764.00000 771.36867 0.00131
65.54111 798.00000 769.77777 0.00125
65.55112 766.00000 768.27716 0.00131
65.56112 803.00000 766.84545 0.00125
65.57112 751.00000 765.46923 0.00133
65.58112 785.00000 764.14607 0.00127
65.59112 725.00000 762.87434 0.00138
65.60112 765.00000 761.65023 0.00131
65.61112 763.00000 760.46204 0.00131
65.62112 844.00000 759.29941 0.00118
65.63112 790.00000 758.22681 0.00127
65.64112 821.00000 757.23609 0.00122
65.65112 784.00000 756.30407 0.00128
65.66112 757.00000 755.42416 0.00132
65.67112 722.00000 754.59502 0.00139
65.68112 746.00000 753.81566 0.00134
65.69112 794.00000 753.08505 0.00126
65.70112 725.00000 752.40212 0.00138
65.71112 749.00000 751.76578 0.00134
65.72112 745.00000 751.17491 0.00134
65.73112 763.00000 750.62835 0.00131
65.74112 725.00000 750.12497 0.00138
65.75112 712.00000 749.66361 0.00140
65.76112 780.00000 749.24312 0.00128
65.77113 727.00000 748.86200 0.00138
65.78112 773.00000 748.52017 0.00129
65.79112 771.00000 748.21542 0.00130
65.80112 783.00000 747.94693 0.00128
65.81113 816.00000 747.71332 0.00123
65.82112 802.00000 747.51395 0.00125
65.83112 786.00000 747.34670 0.00127
65.84113 782.00000 747.20949 0.00128
65.85113 734.00000 747.09764 0.00136
65.86112 756.00000 747.00703 0.00132
65.87112 730.00000 746.96140 0.00137
65.88113 699.00000 746.95416 0.00143
65.89113 754.00000 746.97673 0.00133
65.90112 770.00000 747.02697 0.00130
65.91113 738.00000 747.10415 0.00136
65.92113 703.00000 747.20710 0.00142
65.93113 735.00000 747.33479 0.00136
65.94112 774.00000 747.48578 0.00129
65.95113 753.00000 747.65891 0.00133
65.96113 791.00000 747.85125 0.00126
65.97113 791.00000 748.05823 0.00126
65.98112 746.00000 748.26645 0.00134
65.99113 755.00000 748.45902 0.00132
66.00113 759.00000 748.68767 0.00132
66.01113 749.00000 748.99611 0.00134
66.02113 742.00000 749.34903 0.00135
66.03113 780.00000 749.72648 0.00128
66.04113 786.00000 750.12595 0.00127
66.05113 724.00000 750.54701 0.00138
66.06113 765.00000 750.98922 0.00131
66.07113 734.00000 751.45214 0.00136
66.08113 736.00000 751.93530 0.00136
66.09113 787.00000 752.43818 0.00127
66.10113 780.00000 752.96025 0.00128
66.11113 764.00000 753.50090 0.00131
66.12113 785.00000 754.05950 0.00127
66.13113 799.00000 754.63538 0.00125
66.14113 815.00000 755.22778 0.00123
66.15113 801.00000 755.83593 0.00125
66.16113 757.00000 756.45898 0.00132
66.17113 765.00000 757.09603 0.00131
66.18113 749.00000 757.74616 0.00134
66.19113 756.00000 758.40837 0.00132
66.20113 743.00000 759.08166 0.00135
66.21114 745.00000 759.76569 0.00134
66.22113 702.00000 760.45737 0.00142
66.23113 775.00000 761.15773 0.00129
66.24113 773.00000 761.86510 0.00129
66.25114 758.00000 762.57926 0.00132
66.26113 797.00000 763.29722 0.00125
66.27113 804.00000 764.02033 0.00124
66.28114 797.00000 764.74799 0.00125
66.29114 777.00000 765.47825 0.00129
66.30113 796.00000 766.21076 0.00126
66.31113 732.00000 766.94685 0.00137
66.32114 730.00000 767.68655 0.00137
66.33114 774.00000 768.42865 0.00129
66.34113 757.00000 769.17359 0.00132
66.35114 772.00000 769.92423 0.00130
66.36114 751.00000 770.67919 0.00133
66.37114 773.00000 771.44021 0.00129
66.38113 778.00000 772.20768 0.00129
66.39114 760.00000 772.98520 0.00132
66.40114 783.00000 773.77183 0.00128
66.41114 774.00000 774.56979 0.00129
66.42113 756.00000 775.37972 0.00132
66.43114 777.00000 776.20554 0.00129
66.44114 783.00000 777.04622 0.00128
66.45114 814.00000 777.90392 0.00123
66.46114 799.00000 778.77988 0.00125
66.47114 754.00000 779.67519 0.00133
66.48114 772.00000 780.59079 0.00130
66.49114 743.00000 781.52741 0.00135
66.50114 790.00000 782.48557 0.00127
66.51114 808.00000 783.46557 0.00124
66.52114 806.00000 784.46745 0.00124
66.53114 776.00000 785.49100 0.00129
66.54114 775.00000 786.53573 0.00129
66.55114 728.00000 787.60091 0.00137
66.56114 786.00000 788.68551 0.00127
66.57114 778.00000 789.78828 0.00129
66.58114 804.00000 790.90770 0.00124
66.59114 828.00000 792.04204 0.00121
66.60114 823.00000 793.18938 0.00122
66.61115 771.00000 794.34883 0.00130
66.62114 801.00000 795.51467 0.00125
66.63114 806.00000 796.68823 0.00124
66.64114 771.00000 797.86611 0.00130
66.65115 778.00000 799.04735 0.00129
66.66114 764.00000 800.22634 0.00131
66.67114 786.00000 801.40485 0.00127
66.68114 779.00000 802.58023 0.00128
66.69115 788.00000 803.75281 0.00127
66.70114 793.00000 804.92030 0.00126
66.71114 804.00000 806.08917 0.00124
66.72115 811.00000 807.24298 0.00123
66.73115 773.00000 808.38009 0.00129
66.74114 759.00000 809.50392 0.00132
66.75114 797.00000 810.61869 0.00125
66.76115 770.00000 811.72495 0.00130
66.77115 830.00000 812.82064 0.00120
66.78114 790.00000 813.90578 0.00127
66.79115 785.00000 814.98356 0.00127
66.80115 780.00000 816.05237 0.00128
66.81115 789.00000 817.11383 0.00127
66.82114 804.00000 818.16592 0.00124
66.83115 787.00000 819.21098 0.00127
66.84115 796.00000 820.24497 0.00126
66.85115 766.00000 821.26774 0.00131
66.86115 792.00000 822.27765 0.00126
66.87115 832.00000 823.27267 0.00120
66.88115 814.00000 824.25029 0.00123
66.89115 739.00000 825.20757 0.00135
66.90115 798.00000 826.14110 0.00125
66.91115 786.00000 827.04706 0.00127
66.92115 823.00000 827.92122 0.00122
66.93115 807.00000 828.75897 0.00124
66.94115 825.00000 829.55540 0.00121
66.95115 854.00000 830.30538 0.00117
66.96115 854.00000 831.00352 0.00117
66.97115 781.00000 831.64437 0.00128
66.98115 731.00000 832.22244 0.00137
66.99115 759.00000 832.73240 0.00132
67.00115 781.00000 833.16929 0.00128
67.01115 821.00000 833.52929 0.00122
67.02115 790.00000 833.81176 0.00127
67.03115 798.00000 834.01339 0.00125
67.04115 843.00000 834.10748 0.00119
67.05116 822.00000 834.09551 0.00122
67.06115 790.00000 833.97994 0.00127
67.07115 806.00000 833.76047 0.00124
67.08115 819.00000 833.43595 0.00122
67.09116 807.00000 833.00506 0.00124
67.10115 788.00000 832.46933 0.00127
67.11115 783.00000 831.82801 0.00128
67.12115 787.00000 831.08314 0.00127
67.13116 820.00000 830.23603 0.00122
67.14115 826.00000 829.29225 0.00121
67.15115 818.00000 828.25224 0.00122
67.16116 781.00000 827.11906 0.00128
67.17116 798.00000 825.89754 0.00125
67.18115 823.00000 824.58608 0.00122
67.19115 788.00000 823.17714 0.00127
67.20116 793.00000 821.70293 0.00126
67.21116 782.00000 820.20478 0.00128
67.22115 782.00000 818.66824 0.00128
67.23116 786.00000 817.08141 0.00127
67.24116 822.00000 815.45339 0.00122
67.25116 773.00000 813.79047 0.00129
67.26115 786.00000 812.09985 0.00127
67.27116 785.00000 810.38139 0.00127
67.28116 793.00000 808.64583 0.00126
67.29116 796.00000 806.89669 0.00126
67.30116 780.00000 805.13902 0.00128
67.31116 749.00000 803.37763 0.00134
67.32116 750.00000 801.61706 0.00133
67.33116 780.00000 799.86158 0.00128
67.34116 803.00000 798.11521 0.00125
67.35116 794.00000 796.38171 0.00126
67.36116 783.00000 794.66456 0.00128
67.37116 768.00000 792.96701 0.00130
67.38116 714.00000 791.29208 0.00140
67.39116 740.00000 789.64253 0.00135
67.40116 759.00000 788.02092 0.00132
67.41116 769.00000 786.42959 0.00130
67.42116 729.00000 784.87068 0.00137
67.43116 745.00000 783.34616 0.00134
67.44116 764.00000 781.85781 0.00131
67.45116 762.00000 780.40727 0.00131
67.46116 759.00000 778.99601 0.00132
67.47116 772.00000 777.62538 0.00130
67.48116 738.00000 776.29660 0.00136
67.49117 772.00000 775.00953 0.00130
67.50116 750.00000 773.76895 0.00133
67.51116 712.00000 772.57202 0.00140
67.52116 703.00000 771.42083 0.00142
67.53117 765.00000 770.31508 0.00131
67.54116 742.00000 769.25873 0.00135
67.55116 753.00000 768.24920 0.00133
67.56116 749.00000 767.28820 0.00134
67.57117 730.00000 766.37542 0.00137
67.58116 703.00000 765.51408 0.00142
67.59116 705.00000 764.70205 0.00142
67.60117 720.00000 763.93999 0.00139
67.61117 749.00000 763.22992 0.00134
67.62116 742.00000 762.57217 0.00135
67.63116 777.00000 761.96589 0.00129
67.64117 750.00000 761.41170 0.00133
67.65117 734.00000 760.91117 0.00136
67.66116 734.00000 760.46460 0.00136
67.67117 765.00000 760.07115 0.00131
67.68117 759.00000 759.73255 0.00132
67.69117 737.00000 759.44878 0.00136
67.70116 734.00000 759.22049 0.00136
67.71117 775.00000 759.04745 0.00129
67.72117 755.00000 758.93066 0.00132
67.73117 720.00000 758.87029 0.00139
67.74117 741.00000 758.86667 0.00135
67.75117 719.00000 758.92011 0.00139
67.76117 723.00000 759.03088 0.00138
67.77117 765.00000 759.19921 0.00131
67.78117 742.00000 759.42528 0.00135
67.79117 710.00000 759.70920 0.00141
67.80117 746.00000 760.05104 0.00134
67.81117 710.00000 760.45077 0.00141
67.82117 731.00000 760.90831 0.00137
67.83117 727.00000 761.42346 0.00138
67.84117 720.00000 761.99593 0.00139
67.85117 738.00000 762.62534 0.00136
67.86117 758.00000 763.31115 0.00132
67.87117 812.00000 764.05272 0.00123
67.88117 754.00000 764.84924 0.00133
67.89117 725.00000 765.69975 0.00138
67.90117 750.00000 766.60310 0.00133
67.91117 750.00000 767.55796 0.00133
67.92117 774.00000 768.56279 0.00129
67.93118 777.00000 769.61689 0.00129
67.94117 763.00000 770.71502 0.00131
67.95117 782.00000 771.85810 0.00128
67.96117 776.00000 773.04248 0.00129
67.97118 782.00000 774.26651 0.00128
67.98117 748.00000 775.52325 0.00134
67.99117 798.00000 776.81285 0.00125
68.00117 771.00000 778.13012 0.00130
68.01118 775.00000 779.47208 0.00129
68.02117 791.00000 780.82995 0.00126
68.03117 779.00000 782.20265 0.00128
68.04118 780.00000 783.58469 0.00128
68.05118 777.00000 784.96738 0.00129
68.06117 815.00000 786.34442 0.00123
68.07117 770.00000 787.71197 0.00130
68.08118 767.00000 789.06309 0.00130
68.09118 723.00000 790.38791 0.00138
68.10117 783.00000 791.67924 0.00128
68.11118 735.00000 792.93364 0.00136
68.12118 750.00000 794.13995 0.00133
68.13118 779.00000 795.29241 0.00128
68.14117 795.00000 796.38313 0.00126
68.15118 794.00000 797.40910 0.00126
68.16118 838.00000 798.36128 0.00119
68.17118 812.00000 799.23577 0.00123
68.18118 797.00000 800.02838 0.00125
68.19118 799.00000 800.73586 0.00125
68.20118 807.00000 801.35597 0.00124
68.21118 761.00000 801.88754 0.00131
68.22118 791.00000 802.33048 0.00126
68.23118 788.00000 802.68574 0.00127
68.24118 807.00000 802.95530 0.00124
68.25118 816.00000 803.14208 0.00123
68.26118 753.00000 803.24981 0.00133
68.27118 824.00000 803.28293 0.00121
68.28118 790.00000 803.24643 0.00127
68.29118 815.00000 803.14569 0.00123
68.30118 789.00000 802.98638 0.00127
68.31118 780.00000 802.77420 0.00128
68.32118 827.00000 802.51484 0.00121
68.33118 752.00000 802.21379 0.00133
68.34118 757.00000 801.87623 0.00132
68.35118 787.00000 801.50693 0.00127
68.36118 762.00000 801.11017 0.00131
68.37119 786.00000 800.68931 0.00127
68.38118 777.00000 800.24896 0.00129
68.39118 793.00000 799.79064 0.00126
68.40118 777.00000 799.31492 0.00129
68.41119 779.00000 798.82257 0.00128
68.42118 790.00000 798.31592 0.00127
68.43118 822.00000 797.79353 0.00122
68.44118 758.00000 797.25524 0.00132
68.45119 801.00000 796.69923 0.00125
68.46118 749.00000 796.12552 0.00134
68.47118 849.00000 795.53030 0.00118
68.48119 783.00000 794.91113 0.00128
68.49119 773.00000 794.26665 0.00129
68.50118 800.00000 793.59422 0.00125
68.51118 743.00000 792.88972 0.00135
68.52119 767.00000 792.15037 0.00130
68.53119 748.00000 791.37514 0.00134
68.54118 727.00000 790.56188 0.00138
68.55119 801.00000 789.70611 0.00125
68.56119 718.00000 788.80886 0.00139
68.57119 733.00000 787.86822 0.00136
68.58118 768.00000 786.88468 0.00130
68.59119 758.00000 785.85517 0.00132
68.60119 768.00000 784.78332 0.00130
68.61119 787.00000 783.66922 0.00127
68.62119 752.00000 782.51450 0.00133
68.63119 766.00000 781.32130 0.00131
68.64119 774.00000 780.09218 0.00129
68.65119 796.00000 778.83005 0.00126
68.66119 773.00000 777.53795 0.00129
68.67119 728.00000 776.21917 0.00137
68.68119 777.00000 774.87875 0.00129
68.69119 716.00000 773.52078 0.00140
68.70119 701.00000 772.14860 0.00143
68.71119 735.00000 770.76584 0.00136
68.72119 760.00000 769.37645 0.00132
68.73119 755.00000 767.98439 0.00132
68.74119 745.00000 766.59190 0.00134
68.75119 755.00000 765.20152 0.00132
68.76119 752.00000 763.81654 0.00133
68.77119 747.00000 762.43985 0.00134
68.78119 748.00000 761.07389 0.00134
68.79119 754.00000 759.72069 0.00133
68.80119 728.00000 758.38201 0.00137
68.81120 753.00000 757.05798 0.00133
68.82119 768.00000 755.75376 0.00130
68.83119 764.00000 754.46637 0.00131
68.84119 750.00000 753.19785 0.00133
68.85120 737.00000 751.94750 0.00136
68.86119 753.00000 750.71941 0.00133
68.87119 748.00000 749.51007 0.00134
68.88120 767.00000 748.31961 0.00130
68.89120 755.00000 747.15042 0.00132
68.90119 769.00000 746.00235 0.00130
68.91119 761.00000 744.87296 0.00131
68.92120 754.00000 743.76215 0.00133
68.93120 752.00000 742.67197 0.00133
68.94119 731.00000 741.60221 0.00137
68.95119 686.00000 740.55058 0.00146
68.96120 709.00000 739.51704 0.00141
68.97120 786.00000 738.50359 0.00127
68.98119 727.00000 737.51018 0.00138
68.99120 661.00000 736.53389 0.00151
69.00120 712.00000 735.57777 0.00140
69.01120 797.00000 734.64099 0.00125
69.02119 744.00000 733.72465 0.00134
69.03120 760.00000 732.82626 0.00132
69.04120 802.00000 731.94883 0.00125
69.05120 767.00000 731.09175 0.00130
69.06120 752.00000 730.25535 0.00133
69.07120 680.00000 729.43995 0.00147
69.08120 756.00000 728.64589 0.00132
69.09120 739.00000 727.87354 0.00135
69.10120 789.00000 727.12320 0.00127
69.11120 712.00000 726.39523 0.00140
69.12120 731.00000 725.68991 0.00137
69.13120 749.00000 725.00755 0.00134
69.14120 771.00000 724.34842 0.00130
69.15120 784.00000 723.71277 0.00128
69.16120 786.00000 723.10085 0.00127
69.17120 736.00000 722.51286 0.00136
69.18120 724.00000 721.94902 0.00138
69.19120 711.00000 721.40951 0.00141
69.20120 738.00000 720.89453 0.00136
69.21120 717.00000 720.40425 0.00139
69.22120 767.00000 719.93887 0.00130
69.23120 739.00000 719.49858 0.00135
69.24120 731.00000 719.08360 0.00137
69.25121 719.00000 718.69379 0.00139
69.26120 695.00000 718.33065 0.00144
69.27120 733.00000 717.99381 0.00136
69.28120 725.00000 717.68460 0.00138
69.29121 733.00000 717.39955 0.00136
69.30120 710.00000 717.13993 0.00141
69.31120 761.00000 716.90591 0.00131
69.32121 753.00000 716.69821 0.00133
69.33121 753.00000 716.51753 0.00133
69.34120 703.00000 716.36394 0.00142
69.35120 727.00000 716.23723 0.00138
69.36121 734.00000 716.13744 0.00136
69.37121 694.00000 716.06445 0.00144
69.38120 710.00000 716.01710 0.00141
69.39120 732.00000 715.99106 0.00137
69.40121 750.00000 715.97955 0.00133
69.41121 693.00000 715.99954 0.00144
69.42120 734.00000 716.07479 0.00136
69.43121 765.00000 716.19310 0.00131
69.44121 745.00000 716.34557 0.00134
69.45121 728.00000 716.53170 0.00137
69.46120 726.00000 716.75187 0.00138
69.47121 705.00000 717.00750 0.00142
69.48121 705.00000 717.29859 0.00142
69.49121 733.00000 717.62607 0.00136
69.50121 705.00000 717.99066 0.00142
69.51121 747.00000 718.39307 0.00134
69.52121 720.00000 718.83398 0.00139
69.53121 749.00000 719.31410 0.00134
69.54121 703.00000 719.83409 0.00142
69.55121 688.00000 720.39458 0.00145
69.56121 736.00000 720.99620 0.00136
69.57121 723.00000 721.63951 0.00138
69.58121 744.00000 722.32505 0.00134
69.59121 701.00000 723.05336 0.00143
69.60121 667.00000 723.82494 0.00150
69.61121 756.00000 724.64029 0.00132
69.62121 737.00000 725.49987 0.00136
69.63121 694.00000 726.40416 0.00144
69.64121 711.00000 727.35375 0.00141
69.65121 696.00000 728.34958 0.00144
69.66121 733.00000 729.39435 0.00136
69.67121 756.00000 730.49308 0.00132
69.68121 718.00000 731.63368 0.00139
69.69122 767.00000 732.80748 0.00130
69.70121 707.00000 734.01565 0.00141
69.71121 738.00000 735.26433 0.00136
69.72121 760.00000 736.55297 0.00132
69.73122 751.00000 737.88204 0.00133
69.74121 758.00000 739.24607 0.00132
69.75121 710.00000 740.64739 0.00141
69.76122 697.00000 742.08415 0.00143
69.77122 727.00000 743.55125 0.00138
69.78121 718.00000 745.04603 0.00139
69.79121 796.00000 746.56861 0.00126
69.80122 722.00000 748.11584 0.00139
69.81122 750.00000 749.68102 0.00133
69.82121 743.00000 751.26009 0.00135
69.83121 747.00000 752.85178 0.00134
69.84122 767.00000 754.45125 0.00130
69.85122 737.00000 756.04998 0.00136
69.86121 759.00000 757.64216 0.00132
69.87122 732.00000 759.22631 0.00137
69.88122 749.00000 760.79090 0.00134
69.89122 786.00000 762.33033 0.00127
69.90121 770.00000 763.83545 0.00130
69.91122 767.00000 765.30271 0.00130
69.92122 733.00000 766.71921 0.00136
69.93122 717.00000 768.07777 0.00139
69.94122 750.00000 769.36948 0.00133
69.95122 783.00000 770.58533 0.00128
69.96122 809.00000 771.71631 0.00124
69.97122 771.00000 772.75355 0.00130
69.98122 747.00000 773.68843 0.00134
69.99122 737.00000 774.51273 0.00136
70.00122 791.00000 775.21882 0.00126
70.01122 792.00000 775.79973 0.00126
70.02122 793.00000 776.24932 0.00126
70.03122 763.00000 776.56234 0.00131
70.04122 786.00000 776.73434 0.00127
70.05122 790.00000 776.76097 0.00127
70.06122 817.00000 776.63890 0.00122
70.07122 722.00000 776.37633 0.00139
70.08122 789.00000 775.97760 0.00127
70.09122 782.00000 775.44053 0.00128
70.10122 841.00000 774.76700 0.00119
70.11122 745.00000 773.96177 0.00134
70.12122 752.00000 773.03076 0.00133
70.13123 796.00000 771.97966 0.00126
70.14122 721.00000 770.81925 0.00139
70.15122 761.00000 769.55435 0.00131
70.16122 783.00000 768.19459 0.00128
70.17123 772.00000 766.74731 0.00130
70.18122 728.00000 765.22593 0.00137
70.19122 780.00000 763.63498 0.00128
70.20123 790.00000 761.98317 0.00127
70.21123 784.00000 760.28246 0.00128
70.22122 758.00000 758.54140 0.00132
70.23122 766.00000 756.76452 0.00131
70.24123 752.00000 754.95935 0.00133
70.25123 761.00000 753.13670 0.00131
70.26122 745.00000 751.30331 0.00134
70.27122 738.00000 749.46174 0.00136
70.28123 748.00000 747.61772 0.00134
70.29123 781.00000 745.78021 0.00128
70.30122 714.00000 743.95399 0.00140
70.31123 740.00000 742.13795 0.00135
70.32123 709.00000 740.34146 0.00141
70.33123 689.00000 738.56622 0.00145
70.34122 706.00000 736.81710 0.00142
70.35123 733.00000 735.09166 0.00136
70.36123 701.00000 733.39756 0.00143
70.37123 704.00000 731.73518 0.00142
70.38123 737.00000 730.10636 0.00136
70.39123 716.00000 728.51269 0.00140
70.40123 736.00000 726.95548 0.00136
70.41123 713.00000 725.43584 0.00140
70.42123 740.00000 723.95467 0.00135
70.43123 709.00000 722.51266 0.00141
70.44123 742.00000 721.11033 0.00135
70.45123 709.00000 719.74806 0.00141
70.46123 770.00000 718.42604 0.00130
70.47123 729.00000 717.14436 0.00137
70.48123 722.00000 715.90295 0.00139
70.49123 707.00000 714.70165 0.00141
70.50123 726.00000 713.54018 0.00138
70.51123 699.00000 712.41817 0.00143
70.52123 695.00000 711.33515 0.00144
70.53123 734.00000 710.29060 0.00136
70.54123 689.00000 709.28389 0.00145
70.55123 717.00000 708.31434 0.00139
70.56123 692.00000 707.38122 0.00145
70.57124 749.00000 706.48286 0.00134
70.58123 705.00000 705.62109 0.00142
70.59123 714.00000 704.79238 0.00140
70.60123 758.00000 703.99673 0.00132
70.61124 706.00000 703.23247 0.00142
70.62123 715.00000 702.50093 0.00140
70.63123 726.00000 701.79890 0.00138
70.64124 725.00000 701.12553 0.00138
70.65124 755.00000 700.48123 0.00132
70.66123 688.00000 699.86510 0.00145
70.67123 733.00000 699.27546 0.00136
70.68124 669.00000 698.71202 0.00149
70.69124 714.00000 698.17138 0.00140
70.70123 696.00000 697.65308 0.00144
70.71124 723.00000 697.15525 0.00138
70.72124 690.00000 696.67858 0.00145
70.73124 651.00000 696.22111 0.00154
70.74123 701.00000 695.78024 0.00143
70.75124 741.00000 695.35203 0.00135
70.76124 730.00000 694.94944 0.00137
70.77124 719.00000 694.56837 0.00139
70.78123 682.00000 694.20484 0.00147
70.79124 719.00000 693.85618 0.00139
70.80124 721.00000 693.52274 0.00139
70.81124 745.00000 693.20343 0.00134
70.82124 710.00000 692.89758 0.00141
70.83124 716.00000 692.60455 0.00140
70.84124 717.00000 692.32370 0.00139
70.85124 685.00000 692.05447 0.00146
70.86124 769.00000 691.79627 0.00130
70.87124 761.00000 691.54859 0.00131
70.88124 693.00000 691.31091 0.00144
70.89124 707.00000 691.08276 0.00141
70.90124 728.00000 690.86370 0.00137
70.91124 706.00000 690.65329 0.00142
70.92124 727.00000 690.45114 0.00138
70.93124 731.00000 690.25688 0.00137
70.94124 711.00000 690.07015 0.00141
70.95124 722.00000 689.89064 0.00139
70.96124 741.00000 689.71804 0.00135
70.97124 721.00000 689.55208 0.00139
70.98124 738.00000 689.39255 0.00136
70.99124 715.00000 689.23929 0.00140
71.00124 733.00000 689.09173 0.00136
71.01125 691.00000 688.94955 0.00145
71.02124 665.00000 688.81302 0.00150
71.03124 718.00000 688.68160 0.00139
71.04124 718.00000 688.55527 0.00139
71.05125 722.00000 688.43376 0.00139
71.06124 686.00000 688.31729 0.00146
71.07124 727.00000 688.20537 0.00138
71.08125 737.00000 688.09789 0.00136
71.09125 705.00000 687.99498 0.00142
71.10124 719.00000 687.89651 0.00139
71.11124 704.00000 687.80221 0.00142
71.12125 758.00000 687.71200 0.00132
71.13125 713.00000 687.62601 0.00140
71.14124 726.00000 687.54417 0.00138
71.15125 755.00000 687.46617 0.00132
71.16125 704.00000 687.39223 0.00142
71.17125 719.00000 687.32221 0.00139
71.18124 703.00000 687.25616 0.00142
71.19125 722.00000 687.19386 0.00139
71.20125 685.00000 687.13548 0.00146
71.21125 709.00000 687.08096 0.00141
71.22124 682.00000 687.03033 0.00147
71.23125 721.00000 686.98344 0.00139
71.24125 720.00000 686.94047 0.00139
71.25125 737.00000 686.90135 0.00136
71.26125 705.00000 686.86612 0.00142
71.27125 682.00000 686.83478 0.00147
71.28125 709.00000 686.80738 0.00141
71.29125 686.00000 686.78394 0.00146
71.30125 677.00000 686.76450 0.00148
71.31125 698.00000 686.74910 0.00143
71.32125 689.00000 686.73778 0.00145
71.33125 732.00000 686.73059 0.00137
71.34125 751.00000 686.72760 0.00133
71.35125 662.00000 686.72886 0.00151
71.36125 729.00000 686.73443 0.00137
71.37125 732.00000 686.74439 0.00137
71.38125 709.00000 686.75881 0.00141
71.39125 710.00000 686.77777 0.00141
71.40125 671.00000 686.80135 0.00149
71.41125 664.00000 686.82964 0.00151
71.42125 713.00000 686.86274 0.00140
71.43125 694.00000 686.90075 0.00144
71.44125 658.00000 686.94377 0.00152
71.45126 701.00000 686.99195 0.00143
71.46125 677.00000 687.04527 0.00148
71.47125 691.00000 687.10400 0.00145
71.48125 725.00000 687.16821 0.00138
71.49126 665.00000 687.23810 0.00150
71.50125 731.00000 687.31361 0.00137
71.51125 734.00000 687.39508 0.00136
71.52126 705.00000 687.48269 0.00142
71.53126 717.00000 687.57641 0.00139
71.54125 699.00000 687.67640 0.00143
71.55125 685.00000 687.78302 0.00146
71.56126 696.00000 687.89646 0.00144
71.57126 675.00000 688.01669 0.00148
71.58125 721.00000 688.14387 0.00139
71.59126 672.00000 688.27860 0.00149
71.60126 707.00000 688.42068 0.00141
71.61126 696.00000 688.57047 0.00144
71.62125 726.00000 688.72802 0.00138
71.63126 732.00000 688.89406 0.00137
71.64126 741.00000 689.06834 0.00135
71.65126 706.00000 689.25130 0.00142
71.66125 710.00000 689.44302 0.00141
71.67126 706.00000 689.64438 0.00142
71.68126 684.00000 689.85517 0.00146
71.69126 685.00000 690.07614 0.00146
71.70126 704.00000 690.30817 0.00142
71.71126 702.00000 690.54949 0.00142
71.72126 683.00000 690.80083 0.00146
71.73126 712.00000 691.06285 0.00140
71.74126 755.00000 691.33608 0.00132
71.75126 736.00000 691.62091 0.00136
71.76126 725.00000 691.91771 0.00138
71.77126 702.00000 692.22684 0.00142
71.78126 737.00000 692.54866 0.00136
71.79126 710.00000 692.88357 0.00141
71.80126 724.00000 693.23195 0.00138
71.81126 722.00000 693.59419 0.00139
71.82126 687.00000 693.97071 0.00146
71.83126 690.00000 694.36191 0.00145
71.84126 693.00000 694.76821 0.00144
71.85126 705.00000 695.19003 0.00142
71.86126 696.00000 695.62781 0.00144
71.87126 703.00000 696.08196 0.00142
71.88126 697.00000 696.55291 0.00143
71.89127 739.00000 697.04158 0.00135
71.90126 653.00000 697.54692 0.00153
71.91126 747.00000 698.07082 0.00134
71.92126 689.00000 698.61318 0.00145
71.93127 719.00000 699.17498 0.00139
71.94126 680.00000 699.75489 0.00147
71.95126 726.00000 700.35497 0.00138
71.96127 680.00000 700.97564 0.00147
71.97127 698.00000 701.61597 0.00143
71.98126 739.00000 702.27619 0.00135
71.99126 750.00000 702.95788 0.00133
72.00127 724.00000 703.66130 0.00138
72.01127 702.00000 704.38524 0.00142
72.02126 689.00000 705.12977 0.00145
72.03127 733.00000 705.89723 0.00136
72.04127 733.00000 706.68540 0.00136
72.05127 720.00000 707.49500 0.00139
72.06126 713.00000 708.32511 0.00140
72.07127 701.00000 709.17806 0.00143
72.08127 696.00000 710.05105 0.00144
72.09127 715.00000 710.94447 0.00140
72.10126 700.00000 711.85651 0.00143
72.11127 709.00000 712.78746 0.00141
72.12127 723.00000 713.73234 0.00138
72.13127 698.00000 714.70429 0.00143
72.14127 721.00000 715.70137 0.00139
72.15127 737.00000 716.71892 0.00136
72.16127 699.00000 717.75540 0.00143
72.17127 769.00000 718.81024 0.00130
72.18127 738.00000 719.88293 0.00136
72.19127 707.00000 720.97288 0.00141
72.20127 706.00000 722.07953 0.00142
72.21127 688.00000 723.20226 0.00145
72.22127 727.00000 724.34042 0.00138
72.23127 720.00000 725.49334 0.00139
72.24127 689.00000 726.66031 0.00145
72.25127 753.00000 727.84056 0.00133
72.26127 802.00000 729.03331 0.00125
72.27127 731.00000 730.23768 0.00137
72.28127 767.00000 731.45274 0.00130
72.29128 747.00000 732.67871 0.00134
72.30127 744.00000 733.91077 0.00134
72.31127 767.00000 735.15139 0.00130
72.32127 750.00000 736.39794 0.00133
72.33128 729.00000 737.65018 0.00137
72.34127 753.00000 738.90261 0.00133
72.35127 721.00000 740.15712 0.00139
72.36127 787.00000 741.41032 0.00127
72.37128 748.00000 742.66110 0.00134
72.38127 780.00000 743.90312 0.00128
72.39127 755.00000 745.13721 0.00132
72.40128 745.00000 746.36017 0.00134
72.41128 775.00000 747.56605 0.00129
72.42127 763.00000 748.75111 0.00131
72.43127 714.00000 749.91364 0.00140
72.44128 780.00000 751.04920 0.00128
72.45128 752.00000 752.15088 0.00133
72.46127 793.00000 753.21404 0.00126
72.47128 783.00000 754.23720 0.00128
72.48128 705.00000 755.21104 0.00142
72.49128 713.00000 756.12827 0.00140
72.50127 747.00000 756.98241 0.00134
72.51128 732.00000 757.76887 0.00137
72.52128 817.00000 758.47297 0.00122
72.53128 732.00000 759.08379 0.00137
72.54128 777.00000 759.63514 0.00129
72.55128 712.00000 760.12129 0.00140
72.56128 713.00000 760.52351 0.00140
72.57128 761.00000 760.83349 0.00131
72.58128 758.00000 761.04755 0.00132
72.59128 793.00000 761.16299 0.00126
72.60128 736.00000 761.17782 0.00136
72.61128 743.00000 761.09096 0.00135
72.62128 775.00000 760.90235 0.00129
72.63128 754.00000 760.61042 0.00133
72.64128 823.00000 760.21654 0.00122
72.65128 753.00000 759.72263 0.00133
72.66128 783.00000 759.13123 0.00128
72.67128 738.00000 758.44548 0.00136
72.68128 699.00000 757.66907 0.00143
72.69128 787.00000 756.80624 0.00127
72.70128 777.00000 755.86168 0.00129
72.71128 751.00000 754.84045 0.00133
72.72128 706.00000 753.74788 0.00142
72.73129 769.00000 752.58826 0.00130
72.74128 795.00000 751.37058 0.00126
72.75128 738.00000 750.09629 0.00136
72.76128 734.00000 748.76962 0.00136
72.77129 717.00000 747.38972 0.00139
72.78128 710.00000 745.97505 0.00141
72.79128 728.00000 744.54742 0.00137
72.80128 736.00000 743.10474 0.00136
72.81129 733.00000 741.64428 0.00136
72.82128 730.00000 740.17471 0.00137
72.83128 716.00000 738.69779 0.00140
72.84129 730.00000 737.22207 0.00137
72.85129 734.00000 735.75302 0.00136
72.86128 739.00000 734.27966 0.00135
72.87128 719.00000 732.80796 0.00139
72.88129 705.00000 731.34382 0.00142
72.89129 715.00000 729.89457 0.00140
72.90128 668.00000 728.46350 0.00150
72.91129 696.00000 727.04885 0.00144
72.92129 709.00000 725.65717 0.00141
72.93129 755.00000 724.28908 0.00132
72.94128 732.00000 722.94771 0.00137
72.95129 712.00000 721.63068 0.00140
72.96129 681.00000 720.34342 0.00147
72.97129 734.00000 719.08585 0.00136
72.98129 684.00000 717.85907 0.00146
72.99129 707.00000 716.66402 0.00141
73.00129 679.00000 715.50150 0.00147
73.01129 663.00000 714.37221 0.00151
73.02129 687.00000 713.27669 0.00146
73.03129 742.00000 712.21543 0.00135
73.04129 697.00000 711.18877 0.00143
73.05129 670.00000 710.19699 0.00149
73.06129 698.00000 709.24027 0.00143
73.07129 711.00000 708.31874 0.00141
73.08129 722.00000 707.43245 0.00139
73.09129 711.00000 706.58137 0.00141
73.10129 755.00000 705.76543 0.00132
73.11129 687.00000 704.98451 0.00146
73.12129 704.00000 704.23843 0.00142
73.13129 680.00000 703.52697 0.00147
73.14129 751.00000 702.84986 0.00133
73.15129 723.00000 702.20683 0.00138
73.16129 726.00000 701.59752 0.00138
73.17130 708.00000 701.02101 0.00141
73.18129 674.00000 700.47860 0.00148
73.19129 632.00000 699.96815 0.00158
73.20129 694.00000 699.48977 0.00144
73.21130 724.00000 699.04245 0.00138
73.22129 732.00000 698.62642 0.00137
73.23129 698.00000 698.23936 0.00143
73.24129 711.00000 697.88532 0.00141
73.25130 704.00000 697.56358 0.00142
73.26129 741.00000 697.27448 0.00135
73.27129 700.00000 697.01868 0.00143
73.28130 697.00000 696.79083 0.00143
73.29130 717.00000 696.58705 0.00139
73.30129 708.00000 696.40921 0.00141
73.31129 731.00000 696.25770 0.00137
73.32130 701.00000 696.13277 0.00143
73.33130 710.00000 696.03443 0.00141
73.34129 679.00000 695.96219 0.00147
73.35130 687.00000 695.91544 0.00146
73.36130 719.00000 695.89395 0.00139
73.37130 719.00000 695.89725 0.00139
73.38129 684.00000 695.92491 0.00146
73.39130 737.00000 695.97667 0.00136
73.40130 698.00000 696.05202 0.00143
73.41130 711.00000 696.15064 0.00141
73.42130 686.00000 696.27218 0.00146
73.43130 674.00000 696.41629 0.00148
73.44130 678.00000 696.58263 0.00147
73.45130 692.00000 696.77088 0.00145
73.46130 713.00000 696.98071 0.00140
73.47130 742.00000 697.21181 0.00135
73.48130 719.00000 697.46387 0.00139
73.49130 675.00000 697.73658 0.00148
73.50130 676.00000 698.02965 0.00148
73.51130 714.00000 698.34277 0.00140
73.52130 692.00000 698.67565 0.00145
73.53130 706.00000 699.02799 0.00142
73.54130 675.00000 699.39948 0.00148
73.55130 749.00000 699.78982 0.00134
73.56130 711.00000 700.19870 0.00141
73.57130 704.00000 700.62578 0.00142
73.58130 722.00000 701.07074 0.00139
73.59130 707.00000 701.53322 0.00141
73.60130 723.00000 702.01286 0.00138
73.61131 667.00000 702.50978 0.00150
73.62130 689.00000 703.02205 0.00145
73.63130 726.00000 703.55075 0.00138
73.64130 713.00000 704.09492 0.00140
73.65131 737.00000 704.65463 0.00136
73.66130 686.00000 705.22764 0.00146
73.67130 667.00000 705.81507 0.00150
73.68130 647.00000 706.41575 0.00155
73.69131 657.00000 707.02961 0.00152
73.70130 725.00000 707.65407 0.00138
73.71130 703.00000 708.29021 0.00142
73.72131 695.00000 708.93722 0.00144
73.73131 738.00000 709.59288 0.00136
73.74130 729.00000 710.25617 0.00137
73.75130 702.00000 710.92731 0.00142
73.76131 720.00000 711.60509 0.00139
73.77131 703.00000 712.28656 0.00142
73.78130 704.00000 712.96947 0.00142
73.79131 715.00000 713.65512 0.00140
73.80131 724.00000 714.34457 0.00138
73.81131 662.00000 715.03555 0.00151
73.82130 665.00000 715.72442 0.00150
73.83131 693.00000 716.41136 0.00144
73.84131 713.00000 717.09260 0.00140
73.85131 706.00000 717.76708 0.00142
73.86131 759.00000 718.43299 0.00132
73.87131 689.00000 719.08845 0.00145
73.88131 717.00000 719.73154 0.00139
73.89131 666.00000 720.36029 0.00150
73.90131 714.00000 720.97272 0.00140
73.91131 719.00000 721.56680 0.00139
73.92131 695.00000 722.14049 0.00144
73.93131 694.00000 722.69179 0.00144
73.94131 732.00000 723.21868 0.00137
73.95131 698.00000 723.71918 0.00143
73.96131 700.00000 724.19138 0.00143
73.97131 727.00000 724.63339 0.00138
73.98131 714.00000 725.04345 0.00140
73.99131 677.00000 725.41984 0.00148
74.00131 698.00000 725.76099 0.00143
74.01131 695.00000 726.06541 0.00144
74.02131 689.00000 726.33169 0.00145
74.03131 739.00000 726.55832 0.00135
74.04131 678.00000 726.74381 0.00147
74.05132 671.00000 726.88902 0.00149
74.06131 688.00000 726.99427 0.00145
74.07131 761.00000 727.05861 0.00131
74.08131 720.00000 727.08112 0.00139
74.09132 701.00000 727.06165 0.00143
74.10131 675.00000 727.00049 0.00148
74.11131 697.00000 726.89789 0.00143
74.12132 689.00000 726.75426 0.00145
74.13132 675.00000 726.57062 0.00148
74.14131 688.00000 726.34797 0.00145
74.15131 681.00000 726.08688 0.00147
74.16132 707.00000 725.78842 0.00141
74.17132 747.00000 725.45447 0.00134
74.18131 686.00000 725.08656 0.00146
74.19131 657.00000 724.68542 0.00152
74.20132 752.00000 724.25251 0.00133
74.21132 670.00000 723.79034 0.00149
74.22131 716.00000 723.30065 0.00140
74.23132 685.00000 722.78362 0.00146
74.24132 643.00000 722.24247 0.00156
74.25132 688.00000 721.67841 0.00145
74.26131 724.00000 721.09371 0.00138
74.27132 738.00000 720.48826 0.00136
74.28132 676.00000 719.86549 0.00148
74.29132 683.00000 719.22639 0.00146
74.30132 728.00000 718.57251 0.00137
74.31132 700.00000 717.90535 0.00143
74.32132 686.00000 717.22634 0.00146
74.33132 697.00000 716.53685 0.00143
74.34132 646.00000 715.83821 0.00155
74.35132 719.00000 715.13166 0.00139
74.36132 681.00000 714.41840 0.00147
74.37132 722.00000 713.69955 0.00139
74.38132 678.00000 712.97619 0.00147
74.39132 684.00000 712.24933 0.00146
74.40132 674.00000 711.51993 0.00148
74.41132 678.00000 710.78890 0.00147
74.42132 682.00000 710.05709 0.00147
74.43132 717.00000 709.32533 0.00139
74.44132 736.00000 708.59438 0.00136
74.45132 743.00000 707.86499 0.00135
74.46132 701.00000 707.13784 0.00143
74.47132 722.00000 706.41362 0.00139
74.48132 712.00000 705.69295 0.00140
74.49133 702.00000 704.97572 0.00142
74.50132 675.00000 704.26467 0.00148
74.51132 702.00000 703.55820 0.00142
74.52132 640.00000 702.85757 0.00156
74.53133 711.00000 702.16261 0.00141
74.54132 683.00000 701.47589 0.00146
74.55132 701.00000 700.79585 0.00143
74.56133 734.00000 700.12299 0.00136
74.57133 684.00000 699.45915 0.00146
74.58132 695.00000 698.80483 0.00144
74.59132 711.00000 698.15947 0.00141
74.60133 701.00000 697.52433 0.00143
74.61133 694.00000 696.90000 0.00144
74.62132 654.00000 696.28449 0.00153
74.63132 702.00000 695.67783 0.00142
74.64133 663.00000 695.08092 0.00151
74.65133 671.00000 694.49549 0.00149
74.66132 704.00000 693.92188 0.00142
74.67133 725.00000 693.35863 0.00138
74.68133 716.00000 692.80769 0.00140
74.69133 687.00000 692.26871 0.00146
74.70132 659.00000 691.74243 0.00152
74.71133 775.00000 691.22748 0.00129
74.72133 744.00000 690.72561 0.00134
74.73133 685.00000 690.23648 0.00146
74.74133 701.00000 689.76024 0.00143
74.75133 704.00000 689.29704 0.00142
74.76133 687.00000 688.84704 0.00146
74.77133 654.00000 688.41035 0.00153
74.78133 707.00000 687.98712 0.00141
74.79133 667.00000 687.57744 0.00150
74.80133 691.00000 687.18145 0.00145
74.81133 699.00000 686.79924 0.00143
74.82133 732.00000 686.43092 0.00137
74.83133 693.00000 686.07659 0.00144
74.84133 654.00000 685.73635 0.00153
74.85133 689.00000 685.41030 0.00145
74.86133 719.00000 685.09852 0.00139
74.87133 685.00000 684.80112 0.00146
74.88133 671.00000 684.51819 0.00149
74.89133 671.00000 684.24983 0.00149
74.90133 698.00000 683.99614 0.00143
74.91133 661.00000 683.75723 0.00151
74.92133 682.00000 683.53320 0.00147
74.93134 670.00000 683.32396 0.00149
74.94133 684.00000 683.13024 0.00146
74.95133 708.00000 682.95154 0.00141
74.96133 702.00000 682.78819 0.00142
74.97134 674.00000 682.64020 0.00148
74.98133 692.00000 682.50812 0.00145
74.99133 693.00000 682.39166 0.00144
75.00134 728.00000 682.29104 0.00137
75.01134 696.00000 682.20662 0.00144
75.02133 683.00000 682.13850 0.00146
75.03133 680.00000 682.08674 0.00147
75.04134 694.00000 682.05155 0.00144
75.05134 672.00000 682.03320 0.00149
75.06133 721.00000 682.03183 0.00139
75.07133 681.00000 682.04763 0.00147
75.08134 701.00000 682.08087 0.00143
75.09134 738.00000 682.13170 0.00136
75.10133 720.00000 682.20028 0.00139
75.11134 705.00000 682.28706 0.00142
75.12134 715.00000 682.39205 0.00140
75.13134 729.00000 682.51556 0.00137
75.14133 697.00000 682.65767 0.00143
75.15134 699.00000 682.81907 0.00143
75.16134 735.00000 682.99956 0.00136
75.17134 692.00000 683.19953 0.00145
75.18134 717.00000 683.41923 0.00139
75.19134 658.00000 683.65889 0.00152
75.20134 677.00000 683.91877 0.00148
75.21134 736.00000 684.19910 0.00136
75.22134 679.00000 684.50013 0.00147
75.23134 670.00000 684.82207 0.00149
75.24134 700.00000 685.16516 0.00143
75.25134 660.00000 685.52960 0.00152
75.26134 668.00000 685.91562 0.00150
75.27134 693.00000 686.32339 0.00144
75.28134 718.00000 686.75310 0.00139
75.29134 722.00000 687.20490 0.00139
75.30134 741.00000 687.67894 0.00135
75.31134 713.00000 688.17534 0.00140
75.32134 694.00000 688.69418 0.00144
75.33134 672.00000 689.23549 0.00149
75.34134 714.00000 689.79919 0.00140
75.35134 688.00000 690.38479 0.00145
75.36134 722.00000 690.99176 0.00139
75.37135 754.00000 691.62349 0.00133
75.38134 684.00000 692.27784 0.00146
75.39134 706.00000 692.95563 0.00142
75.40134 733.00000 693.65566 0.00136
75.41135 692.00000 694.37830 0.00145
75.42134 687.00000 695.12091 0.00146
75.43134 729.00000 695.88499 0.00137
75.44135 671.00000 696.66940 0.00149
75.45135 711.00000 697.46909 0.00141
75.46134 733.00000 698.28051 0.00136
75.47134 714.00000 699.12169 0.00140
75.48135 692.00000 699.99068 0.00145
75.49135 713.00000 700.87968 0.00140
75.50134 669.00000 701.78584 0.00149
75.51134 723.00000 702.70997 0.00138
75.52135 696.00000 703.65106 0.00144
75.53135 653.00000 704.60609 0.00153
75.54134 702.00000 705.57377 0.00142
75.55135 749.00000 706.55562 0.00134
75.56135 712.00000 707.54717 0.00140
75.57135 723.00000 708.54774 0.00138
75.58134 684.00000 709.55449 0.00146
75.59135 698.00000 710.56845 0.00143
75.60135 719.00000 711.58444 0.00139
75.61135 656.00000 712.60118 0.00152
75.62135 696.00000 713.61616 0.00144
75.63135 689.00000 714.62676 0.00145
75.64135 716.00000 715.63014 0.00140
75.65135 691.00000 716.62333 0.00145
75.66135 717.00000 717.60320 0.00139
75.67135 736.00000 718.56648 0.00136
75.68135 720.00000 719.50976 0.00139
75.69135 707.00000 720.42951 0.00141
75.70135 743.00000 721.32212 0.00135
75.71135 767.00000 722.18390 0.00130
75.72135 712.00000 723.01113 0.00140
75.73135 716.00000 723.80006 0.00140
75.74135 705.00000 724.54697 0.00142
75.75135 716.00000 725.24822 0.00140
75.76135 755.00000 725.90023 0.00132
75.77135 723.00000 726.49961 0.00138
75.78135 725.00000 727.04310 0.00138
75.79135 684.00000 727.52770 0.00146
75.80135 695.00000 727.95067 0.00144
75.81136 744.00000 728.30990 0.00134
75.82135 712.00000 728.60224 0.00140
75.83135 690.00000 728.82699 0.00145
75.84135 726.00000 728.98247 0.00138
75.85136 683.00000 729.06780 0.00146
75.86135 682.00000 729.08224 0.00147
75.87135 672.00000 729.02596 0.00149
75.88136 730.00000 728.89908 0.00137
75.89136 713.00000 728.70258 0.00140
75.90135 726.00000 728.43786 0.00138
75.91135 693.00000 728.10600 0.00144
75.92136 682.00000 727.70873 0.00147
75.93136 781.00000 727.24906 0.00128
75.94135 690.00000 726.72971 0.00145
75.95135 734.00000 726.15248 0.00136
75.96136 706.00000 725.52022 0.00142
75.97136 702.00000 724.83733 0.00142
75.98135 694.00000 724.10727 0.00144
75.99136 736.00000 723.33121 0.00136
76.00136 708.00000 722.51481 0.00141
76.01136 696.00000 721.66078 0.00144
76.02135 678.00000 720.77344 0.00147
76.03136 752.00000 719.85348 0.00133
76.04136 736.00000 718.90689 0.00136
76.05136 708.00000 717.93597 0.00141
76.06136 689.00000 716.94378 0.00145
76.07136 679.00000 715.93329 0.00147
76.08136 665.00000 714.90729 0.00150
76.09136 716.00000 713.86843 0.00140
76.10136 702.00000 712.81920 0.00142
76.11136 715.00000 711.76194 0.00140
76.12136 687.00000 710.69883 0.00146
76.13136 649.00000 709.63190 0.00154
76.14136 723.00000 708.56303 0.00138
76.15136 742.00000 707.49394 0.00135
76.16136 681.00000 706.42625 0.00147
76.17136 731.00000 705.36143 0.00137
76.18136 701.00000 704.30083 0.00143
76.19136 671.00000 703.24570 0.00149
76.20136 703.00000 702.19718 0.00142
76.21136 684.00000 701.15631 0.00146
76.22136 707.00000 700.12406 0.00141
76.23136 709.00000 699.10131 0.00141
76.24136 695.00000 698.08888 0.00144
76.25137 708.00000 697.08651 0.00141
76.26136 706.00000 696.09790 0.00142
76.27136 688.00000 695.12067 0.00145
76.28136 694.00000 694.15641 0.00144
76.29137 700.00000 693.20472 0.00143
76.30136 693.00000 692.26893 0.00144
76.31136 662.00000 691.34667 0.00151
76.32137 681.00000 690.43838 0.00147
76.33137 707.00000 689.54629 0.00141
76.34136 690.00000 688.67070 0.00145
76.35136 749.00000 687.81016 0.00134
76.36137 710.00000 686.96501 0.00141
76.37137 724.00000 686.13720 0.00138
76.38136 660.00000 685.32692 0.00152
76.39137 672.00000 684.53194 0.00149
76.40137 725.00000 683.75486 0.00138
76.41137 725.00000 682.99503 0.00138
76.42136 712.00000 682.25332 0.00140
76.43137 717.00000 681.52765 0.00139
76.44137 695.00000 680.82045 0.00144
76.45137 749.00000 680.13130 0.00134
76.46136 718.00000 679.45981 0.00139
76.47137 728.00000 678.80415 0.00137
76.48137 696.00000 678.16644 0.00144
76.49137 727.00000 677.54601 0.00138
76.50137 700.00000 676.94282 0.00143
76.51137 688.00000 676.35679 0.00145
76.52137 702.00000 675.78787 0.00142
76.53137 679.00000 675.23598 0.00147
76.54137 632.00000 674.70109 0.00158
76.55137 693.00000 674.18326 0.00144
76.56137 673.00000 673.68266 0.00149
76.57137 696.00000 673.20037 0.00144
76.58137 672.00000 672.73939 0.00149
76.59137 659.00000 672.29042 0.00152
76.60137 688.00000 671.85459 0.00145
76.61137 700.00000 671.43243 0.00143
76.62137 701.00000 671.02442 0.00143
76.63137 670.00000 670.63107 0.00149
76.64137 699.00000 670.25226 0.00143
76.65137 685.00000 669.88775 0.00146
76.66137 709.00000 669.53726 0.00141
76.67137 719.00000 669.20054 0.00139
76.68137 647.00000 668.87731 0.00155
76.69138 705.00000 668.56700 0.00142
76.70137 713.00000 668.27025 0.00140
76.71137 710.00000 667.98588 0.00141
76.72137 693.00000 667.71393 0.00144
76.73138 718.00000 667.45387 0.00139
76.74137 655.00000 667.20619 0.00153
76.75137 660.00000 666.96987 0.00152
76.76138 679.00000 666.74468 0.00147
76.77138 680.00000 666.53079 0.00147
76.78137 681.00000 666.32793 0.00147
76.79137 694.00000 666.13540 0.00144
76.80138 721.00000 665.95300 0.00139
76.81138 666.00000 665.78081 0.00150
76.82137 731.00000 665.61856 0.00137
76.83138 721.00000 665.46551 0.00139
76.84138 665.00000 665.32188 0.00150
76.85138 677.00000 665.18724 0.00148
76.86137 642.00000 665.06147 0.00156
76.87138 679.00000 664.94393 0.00147
76.88138 666.00000 664.83472 0.00150
76.89138 650.00000 664.73346 0.00154
76.90137 645.00000 664.63996 0.00155
76.91138 644.00000 664.55369 0.00155
76.92138 651.00000 664.47462 0.00154
76.93138 658.00000 664.40239 0.00152
76.94138 711.00000 664.33670 0.00141
76.95138 675.00000 664.27726 0.00148
76.96138 696.00000 664.22376 0.00144
76.97138 661.00000 664.17590 0.00151
76.98138 721.00000 664.13338 0.00139
76.99138 700.00000 664.09590 0.00143
77.00138 701.00000 664.06324 0.00143
77.01138 683.00000 664.03528 0.00146
77.02138 674.00000 664.01131 0.00148
77.03138 670.00000 663.99086 0.00149
77.04138 677.00000 663.97431 0.00148
77.05138 682.00000 663.96087 0.00147
77.06138 659.00000 663.94821 0.00152
77.07138 658.00000 663.93669 0.00152
77.08138 655.00000 663.92621 0.00153
77.09138 654.00000 663.91649 0.00153
77.10138 671.00000 663.90714 0.00149
77.11138 646.00000 663.89769 0.00155
77.12138 703.00000 663.88765 0.00142
77.13139 662.00000 663.87652 0.00151
77.14138 662.00000 663.86387 0.00151
77.15138 654.00000 663.84915 0.00153
77.16138 685.00000 663.83192 0.00146
77.17139 638.00000 663.81167 0.00157
77.18138 662.00000 663.78800 0.00151
77.19138 714.00000 663.76038 0.00140
77.20139 685.00000 663.72834 0.00146
77.21139 663.00000 663.69153 0.00151
77.22138 666.00000 663.64954 0.00150
77.23138 672.00000 663.60184 0.00149
77.24139 705.00000 663.54799 0.00142
77.25139 644.00000 663.48757 0.00155
77.26138 669.00000 663.41983 0.00149
77.27139 647.00000 663.34259 0.00155
77.28139 704.00000 663.25300 0.00142
77.29139 648.00000 663.15734 0.00154
77.30138 651.00000 663.06414 0.00154
77.31139 648.00000 662.96888 0.00154
77.32139 673.00000 662.86847 0.00149
77.33139 680.00000 662.76229 0.00147
77.34138 679.00000 662.65063 0.00147
77.35139 703.00000 662.53339 0.00142
77.36139 685.00000 662.41121 0.00146
77.37139 647.00000 662.28429 0.00155
77.38139 664.00000 662.15301 0.00151
77.39139 699.00000 662.01772 0.00143
77.40139 651.00000 661.87883 0.00154
77.41139 688.00000 661.73676 0.00145
77.42139 662.00000 661.59194 0.00151
77.43139 658.00000 661.44480 0.00152
77.44139 706.00000 661.29578 0.00142
77.45139 681.00000 661.14531 0.00147
77.46139 716.00000 660.99384 0.00140
77.47139 661.00000 660.84178 0.00151
77.48139 702.00000 660.68955 0.00142
77.49139 682.00000 660.53754 0.00147
77.50139 654.00000 660.38616 0.00153
77.51139 670.00000 660.23575 0.00149
77.52139 647.00000 660.08668 0.00155
77.53139 675.00000 659.93926 0.00148
77.54139 705.00000 659.79381 0.00142
77.55139 652.00000 659.65060 0.00153
77.56139 699.00000 659.50990 0.00143
77.57140 705.00000 659.37180 0.00142
77.58139 705.00000 659.23694 0.00142
77.59139 660.00000 659.10508 0.00152
77.60139 669.00000 658.97654 0.00149
77.61140 725.00000 658.85133 0.00138
77.62139 652.00000 658.72993 0.00153
77.63139 652.00000 658.61208 0.00153
77.64140 649.00000 658.49786 0.00154
77.65140 625.00000 658.38754 0.00160
77.66139 612.00000 658.28114 0.00163
77.67139 718.00000 658.17846 0.00139
77.68140 710.00000 658.07951 0.00141
77.69140 641.00000 657.98444 0.00156
77.70139 629.00000 657.89322 0.00159
77.71140 663.00000 657.80555 0.00151
77.72140 637.00000 657.72184 0.00157
77.73140 698.00000 657.64181 0.00143
77.74139 638.00000 657.56448 0.00157
77.75140 654.00000 657.48975 0.00153
77.76140 668.00000 657.41780 0.00150
77.77140 683.00000 657.34839 0.00146
77.78139 663.00000 657.28140 0.00151
77.79140 679.00000 657.21636 0.00147
77.80140 681.00000 657.15318 0.00147
77.81140 713.00000 657.09150 0.00140
77.82140 667.00000 657.03101 0.00150
77.83140 675.00000 656.97136 0.00148
77.84140 670.00000 656.91222 0.00149
77.85140 654.00000 656.85324 0.00153
77.86140 668.00000 656.79405 0.00150
77.87140 698.00000 656.73430 0.00143
77.88140 692.00000 656.67363 0.00145
77.89140 641.00000 656.61169 0.00156
77.90140 664.00000 656.54814 0.00151
77.91140 664.00000 656.48266 0.00151
77.92140 716.00000 656.41493 0.00140
77.93140 679.00000 656.34469 0.00147
77.94140 685.00000 656.27168 0.00146
77.95140 670.00000 656.19568 0.00149
77.96140 661.00000 656.11651 0.00151
77.97141 683.00000 656.03396 0.00146
77.98140 684.00000 655.94817 0.00146
77.99140 652.00000 655.85883 0.00153
78.00140 636.00000 655.76604 0.00157
78.01141 645.00000 655.66972 0.00155
78.02140 683.00000 655.57025 0.00146
78.03140 689.00000 655.46747 0.00145
78.04140 668.00000 655.36165 0.00150
78.05141 593.00000 655.25288 0.00169
78.06140 722.00000 655.14172 0.00139
78.07140 645.00000 655.02813 0.00155
78.08141 645.00000 654.91239 0.00155
78.09141 668.00000 654.79507 0.00150
78.10140 632.00000 654.67649 0.00158
78.11140 597.00000 654.55676 0.00168
78.12141 636.00000 654.43619 0.00157
78.13141 698.00000 654.31533 0.00143
78.14140 705.00000 654.19448 0.00142
78.15141 665.00000 654.07354 0.00150
78.16141 665.00000 653.95309 0.00150
78.17141 672.00000 653.83319 0.00149
78.18140 713.00000 653.71403 0.00140
78.19141 719.00000 653.59509 0.00139
78.20141 650.00000 653.47603 0.00154
78.21141 670.00000 653.35343 0.00149
78.22141 643.00000 653.22277 0.00156
78.23141 631.00000 653.10113 0.00158
78.24141 690.00000 652.99964 0.00145
78.25141 694.00000 652.90913 0.00144
78.26141 652.00000 652.81951 0.00153
78.27141 656.00000 652.73233 0.00152
78.28141 688.00000 652.64886 0.00145
78.29141 688.00000 652.56990 0.00145
78.30141 651.00000 652.49590 0.00154
78.31141 681.00000 652.42716 0.00147
78.32141 696.00000 652.36401 0.00144
78.33141 679.00000 652.30682 0.00147
78.34141 636.00000 652.25611 0.00157
78.35141 673.00000 652.21268 0.00149
78.36141 638.00000 652.17911 0.00157
78.37141 677.00000 652.16124 0.00148
78.38141 635.00000 652.14388 0.00157
78.39141 670.00000 652.12548 0.00149
78.40141 650.00000 652.10944 0.00154
78.41142 658.00000 652.09887 0.00152
78.42141 663.00000 652.09658 0.00151
78.43141 649.00000 652.10214 0.00154
78.44141 694.00000 652.11501 0.00144
78.45142 673.00000 652.13519 0.00149
78.46141 694.00000 652.16272 0.00144
78.47141 659.00000 652.19781 0.00152
78.48141 664.00000 652.24053 0.00151
78.49142 649.00000 652.29106 0.00154
78.50141 673.00000 652.34937 0.00149
78.51141 676.00000 652.41572 0.00148
78.52142 635.00000 652.49028 0.00157
78.53142 634.00000 652.57304 0.00158
78.54141 630.00000 652.66425 0.00159
78.55141 635.00000 652.76453 0.00157
78.56142 667.00000 652.87316 0.00150
78.57142 689.00000 652.98966 0.00145
78.58141 656.00000 653.11436 0.00152
78.59142 703.00000 653.24784 0.00142
78.60142 631.00000 653.38989 0.00158
78.61142 660.00000 653.54072 0.00152
78.62141 653.00000 653.70024 0.00153
78.63142 657.00000 653.86898 0.00152
78.64142 671.00000 654.04650 0.00149
78.65142 667.00000 654.23299 0.00150
78.66142 715.00000 654.42848 0.00140
78.67142 616.00000 654.63300 0.00162
78.68142 613.00000 654.84660 0.00163
78.69142 719.00000 655.06933 0.00139
78.70142 708.00000 655.30128 0.00141
78.71142 629.00000 655.54256 0.00159
78.72142 675.00000 655.79336 0.00148
78.73142 658.00000 656.05413 0.00152
78.74142 690.00000 656.32654 0.00145
78.75142 664.00000 656.61473 0.00151
78.76142 700.00000 656.90584 0.00143
78.77142 667.00000 657.20117 0.00150
78.78142 714.00000 657.50283 0.00140
78.79142 687.00000 657.81180 0.00146
78.80142 683.00000 658.12839 0.00146
78.81142 669.00000 658.45241 0.00149
78.82142 697.00000 658.78339 0.00143
78.83142 717.00000 659.12049 0.00139
78.84142 661.00000 659.46331 0.00151
78.85143 683.00000 659.81482 0.00146
78.86142 685.00000 660.17272 0.00146
78.87142 661.00000 660.53685 0.00151
78.88142 609.00000 660.90629 0.00164
78.89143 704.00000 661.28099 0.00142
78.90142 690.00000 661.65938 0.00145
78.91142 662.00000 662.04215 0.00151
78.92142 674.00000 662.42848 0.00148
78.93143 660.00000 662.81833 0.00152
78.94142 659.00000 663.21007 0.00152
78.95142 655.00000 663.60449 0.00153
78.96143 661.00000 664.00120 0.00151
78.97143 668.00000 664.39903 0.00150
78.98142 696.00000 664.79767 0.00144
78.99142 679.00000 665.19766 0.00147
79.00143 645.00000 665.59879 0.00155
79.01143 691.00000 666.00010 0.00145
79.02142 675.00000 666.40150 0.00148
79.03143 651.00000 666.80421 0.00154
79.04143 680.00000 667.20708 0.00147
79.05143 695.00000 667.61067 0.00144
79.06142 664.00000 668.01479 0.00151
79.07143 676.00000 668.42100 0.00148
79.08143 658.00000 668.82843 0.00152
79.09143 681.00000 669.23797 0.00147
79.10143 676.00000 669.65015 0.00148
79.11143 650.00000 670.06554 0.00154
79.12143 651.00000 670.48481 0.00154
79.13143 680.00000 670.90864 0.00147
79.14143 622.00000 671.33775 0.00161
79.15143 659.00000 671.77290 0.00152
79.16143 670.00000 672.21486 0.00149
79.17143 657.00000 672.66440 0.00152
79.18143 677.00000 673.12230 0.00148
79.19143 664.00000 673.58932 0.00151
79.20143 666.00000 674.06620 0.00150
79.21143 685.00000 674.55367 0.00146
79.22143 651.00000 675.05240 0.00154
79.23143 691.00000 675.56304 0.00145
79.24143 718.00000 676.08620 0.00139
79.25143 675.00000 676.62243 0.00148
79.26143 663.00000 677.17232 0.00151
79.27143 638.00000 677.73648 0.00157
79.28143 625.00000 678.31511 0.00160
79.29144 665.00000 678.90833 0.00150
79.30143 665.00000 679.51474 0.00150
79.31143 688.00000 680.13639 0.00145
79.32143 667.00000 680.77277 0.00150
79.33144 631.00000 681.42454 0.00158
79.34143 669.00000 682.08958 0.00149
79.35143 687.00000 682.76966 0.00146
79.36143 678.00000 683.46382 0.00147
79.37144 676.00000 684.17241 0.00148
79.38143 670.00000 684.89282 0.00149
79.39143 700.00000 685.62671 0.00143
79.40144 681.00000 686.37367 0.00147
79.41144 707.00000 687.13234 0.00141
79.42143 673.00000 687.90405 0.00149
79.43143 660.00000 688.68296 0.00152
79.44144 624.00000 689.46752 0.00160
79.45144 688.00000 690.25633 0.00145
79.46143 663.00000 691.04868 0.00151
79.47144 682.00000 691.84575 0.00147
79.48144 659.00000 692.64360 0.00152
79.49144 683.00000 693.44119 0.00146
79.50143 728.00000 694.23580 0.00137
79.51144 678.00000 695.02774 0.00147
79.52144 628.00000 695.81246 0.00159
79.53144 684.00000 696.58846 0.00146
79.54144 697.00000 697.35332 0.00143
79.55144 722.00000 698.10456 0.00139
79.56144 655.00000 698.83959 0.00153
79.57144 698.00000 699.55574 0.00143
79.58144 699.00000 700.25029 0.00143
79.59144 654.00000 700.92045 0.00153
79.60144 654.00000 701.56343 0.00153
79.61144 640.00000 702.17641 0.00156
79.62144 709.00000 702.75658 0.00141
79.63144 691.00000 703.30118 0.00145
79.64144 681.00000 703.80749 0.00147
79.65144 666.00000 704.27287 0.00150
79.66144 670.00000 704.69481 0.00149
79.67144 715.00000 705.07091 0.00140
79.68144 637.00000 705.39894 0.00157
79.69144 689.00000 705.67684 0.00145
79.70144 707.00000 705.90278 0.00141
79.71144 673.00000 706.07514 0.00149
79.72144 752.00000 706.19254 0.00133
79.73145 690.00000 706.25389 0.00145
79.74144 694.00000 706.25834 0.00144
79.75144 703.00000 706.20538 0.00142
79.76144 656.00000 706.09477 0.00152
79.77145 701.00000 705.92636 0.00143
79.78144 691.00000 705.70117 0.00145
79.79144 688.00000 705.41930 0.00145
79.80145 719.00000 705.08172 0.00139
79.81145 682.00000 704.68951 0.00147
79.82144 674.00000 704.24415 0.00148
79.83144 712.00000 703.74647 0.00140
79.84145 623.00000 703.19818 0.00161
79.85145 693.00000 702.60237 0.00144
79.86144 690.00000 701.96117 0.00145
79.87144 674.00000 701.27516 0.00148
79.88145 725.00000 700.54574 0.00138
79.89145 699.00000 699.77386 0.00143
79.90144 742.00000 698.95704 0.00135
79.91145 696.00000 698.10593 0.00144
79.92145 688.00000 697.24262 0.00145
79.93145 684.00000 696.36061 0.00146
79.94144 702.00000 695.45728 0.00142
79.95145 703.00000 694.53147 0.00142
79.96145 625.00000 693.58863 0.00160
79.97145 641.00000 692.63049 0.00156
79.98145 696.00000 691.65969 0.00144
79.99145 736.00000 690.67877 0.00136
80.00145 639.00000 689.69019 0.00156
80.01145 689.00000 688.69641 0.00145
80.02145 667.00000 687.69995 0.00150
80.03145 675.00000 686.70366 0.00148
80.04145 695.00000 685.70905 0.00144
80.05145 679.00000 684.71544 0.00147
80.06145 693.00000 683.72538 0.00144
80.07145 678.00000 682.74099 0.00147
80.08145 649.00000 681.76406 0.00154
80.09145 624.00000 680.79620 0.00160
80.10145 651.00000 679.83880 0.00154
80.11145 645.00000 678.89310 0.00155
80.12145 658.00000 677.96025 0.00152
80.13145 647.00000 677.04132 0.00155
80.14145 677.00000 676.13726 0.00148
80.15145 675.00000 675.24898 0.00148
80.16145 641.00000 674.37728 0.00156
80.17146 646.00000 673.52208 0.00155
80.18145 675.00000 672.68654 0.00148
80.19145 689.00000 671.86877 0.00145
80.20145 715.00000 671.07014 0.00140
80.21146 673.00000 670.29038 0.00149
80.22145 652.00000 669.53221 0.00153
80.23145 673.00000 668.79372 0.00149
80.24146 679.00000 668.07530 0.00147
80.25146 690.00000 667.37866 0.00145
80.26145 666.00000 666.70400 0.00150
80.27145 639.00000 666.05016 0.00156
80.28146 655.00000 665.41740 0.00153
80.29146 647.00000 664.80709 0.00155
80.30145 686.00000 664.21926 0.00146
80.31145 649.00000 663.65283 0.00154
80.32146 695.00000 663.10790 0.00144
80.33146 628.00000 662.58555 0.00159
80.34145 648.00000 662.08573 0.00154
80.35146 608.00000 661.60699 0.00164
80.36146 598.00000 661.15076 0.00167
80.37146 625.00000 660.71656 0.00160
80.38145 701.00000 660.30483 0.00143
80.39146 683.00000 659.91470 0.00146
80.40146 640.00000 659.54850 0.00156
80.41146 654.00000 659.20590 0.00153
80.42146 668.00000 658.88085 0.00150
80.43146 659.00000 658.57491 0.00152
80.44146 680.00000 658.28871 0.00147
80.45146 687.00000 658.02242 0.00146
80.46146 654.00000 657.77602 0.00153
80.47146 654.00000 657.54922 0.00153
80.48146 663.00000 657.34168 0.00151
80.49146 624.00000 657.15301 0.00160
80.50146 623.00000 656.98283 0.00161
80.51146 627.00000 656.83071 0.00159
80.52146 648.00000 656.69621 0.00154
80.53146 654.00000 656.57886 0.00153
80.54146 659.00000 656.47816 0.00152
80.55146 650.00000 656.39360 0.00154
80.56146 697.00000 656.32466 0.00143
80.57146 666.00000 656.27086 0.00150
80.58146 659.00000 656.23139 0.00152
80.59146 682.00000 656.20550 0.00147
80.60146 647.00000 656.19261 0.00155
80.61147 624.00000 656.19209 0.00160
80.62146 666.00000 656.20322 0.00150
80.63146 656.00000 656.22532 0.00152
80.64146 716.00000 656.25764 0.00140
80.65147 629.00000 656.29945 0.00159
80.66146 650.00000 656.34988 0.00154
80.67146 654.00000 656.40828 0.00153
80.68147 664.00000 656.47390 0.00151
80.69147 701.00000 656.54586 0.00143
80.70146 684.00000 656.62338 0.00146
80.71146 643.00000 656.70590 0.00156
80.72147 661.00000 656.79271 0.00151
80.73147 666.00000 656.88298 0.00150
80.74146 625.00000 656.97606 0.00160
80.75146 650.00000 657.07154 0.00154
80.76147 681.00000 657.16889 0.00147
80.77147 649.00000 657.26746 0.00154
80.78146 662.00000 657.36682 0.00151
80.79147 663.00000 657.46690 0.00151
80.80147 684.00000 657.56714 0.00146
80.81147 646.00000 657.66743 0.00155
80.82146 630.00000 657.76755 0.00159
80.83147 696.00000 657.86770 0.00144
80.84147 644.00000 657.96762 0.00155
80.85147 652.00000 658.06747 0.00153
80.86147 610.00000 658.16740 0.00164
80.87147 670.00000 658.26758 0.00149
80.88147 662.00000 658.36828 0.00151
80.89147 622.00000 658.46978 0.00161
80.90147 665.00000 658.57241 0.00150
80.91147 633.00000 658.67654 0.00158
80.92147 684.00000 658.78254 0.00146
80.93147 645.00000 658.89083 0.00155
80.94147 649.00000 659.00180 0.00154
80.95147 656.00000 659.11586 0.00152
80.96147 645.00000 659.23342 0.00155
80.97147 630.00000 659.35486 0.00159
80.98147 650.00000 659.48055 0.00154
80.99147 704.00000 659.61084 0.00142
81.00147 638.00000 659.74605 0.00157
81.01147 613.00000 659.88648 0.00163
81.02147 625.00000 660.03238 0.00160
81.03147 695.00000 660.18400 0.00144
81.04147 678.00000 660.34152 0.00147
81.05148 640.00000 660.50531 0.00156
81.06147 678.00000 660.67522 0.00147
81.07147 682.00000 660.85237 0.00147
81.08147 622.00000 661.03520 0.00161
81.09148 619.00000 661.22330 0.00162
81.10147 674.00000 661.41645 0.00148
81.11147 695.00000 661.61527 0.00144
81.12148 632.00000 661.81965 0.00158
81.13148 658.00000 662.02895 0.00152
81.14147 684.00000 662.24283 0.00146
81.15147 644.00000 662.46133 0.00155
81.16148 653.00000 662.68400 0.00153
81.17148 675.00000 662.90990 0.00148
81.18147 647.00000 663.13848 0.00155
81.19147 638.00000 663.36956 0.00157
81.20148 619.00000 663.60250 0.00162
81.21148 652.00000 663.83612 0.00153
81.22147 632.00000 664.06962 0.00158
81.23148 670.00000 664.30289 0.00149
81.24148 686.00000 664.53436 0.00146
81.25148 625.00000 664.76335 0.00160
81.26147 671.00000 664.98869 0.00149
81.27148 643.00000 665.20996 0.00156
81.28148 674.00000 665.42529 0.00148
81.29148 634.00000 665.63385 0.00158
81.30148 673.00000 665.83449 0.00149
81.31148 656.00000 666.02606 0.00152
81.32148 651.00000 666.20735 0.00154
81.33148 627.00000 666.37712 0.00159
81.34148 659.00000 666.53411 0.00152
81.35148 629.00000 666.67707 0.00159
81.36148 642.00000 666.80474 0.00156
81.37148 610.00000 666.91586 0.00164
81.38148 639.00000 667.00919 0.00156
81.39148 643.00000 667.08352 0.00156
81.40148 638.00000 667.13767 0.00157
81.41148 615.00000 667.17049 0.00163
81.42148 618.00000 667.18091 0.00162
81.43148 608.00000 667.16790 0.00164
81.44148 662.00000 667.13051 0.00151
81.45148 650.00000 667.06785 0.00154
81.46148 639.00000 666.97916 0.00156
81.47148 634.00000 666.86374 0.00158
81.48148 594.00000 666.72101 0.00168
81.49149 624.00000 666.55031 0.00160
81.50148 663.00000 666.35180 0.00151
81.51148 655.00000 666.12472 0.00153
81.52148 634.00000 665.86913 0.00158
81.53149 620.00000 665.58475 0.00161
81.54148 687.00000 665.27257 0.00146
81.55148 683.00000 664.93203 0.00146
81.56149 630.00000 664.56354 0.00159
81.57149 602.00000 664.16854 0.00166
81.58148 592.00000 663.74694 0.00169
81.59148 661.00000 663.29849 0.00151
81.60149 656.00000 662.82409 0.00152
81.61149 658.00000 662.32563 0.00152
81.62148 648.00000 661.80420 0.00154
81.63148 618.00000 661.25985 0.00162
81.64149 663.00000 660.69361 0.00151
81.65149 673.00000 660.10773 0.00149
81.66148 675.00000 659.50349 0.00148
81.67149 601.00000 658.88031 0.00166
81.68149 594.00000 658.24128 0.00168
81.69149 649.00000 657.58710 0.00154
81.70148 617.00000 656.91978 0.00162
81.71149 612.00000 656.23868 0.00163
81.72149 606.00000 655.54719 0.00165
81.73149 620.00000 654.84622 0.00161
81.74149 682.00000 654.13770 0.00147
81.75149 651.00000 653.42248 0.00154
81.76149 636.00000 652.69943 0.00157
81.77149 611.00000 651.97041 0.00164
81.78149 627.00000 651.23699 0.00159
81.79149 596.00000 650.50050 0.00168
81.80149 618.00000 649.76214 0.00162
81.81149 680.00000 649.02297 0.00147
81.82149 626.00000 648.28394 0.00160
81.83149 674.00000 647.54598 0.00148
81.84149 650.00000 646.80995 0.00154
81.85149 647.00000 646.07668 0.00155
81.86149 640.00000 645.34694 0.00156
81.87149 625.00000 644.62148 0.00160
81.88149 612.00000 643.90099 0.00163
81.89149 667.00000 643.18615 0.00150
81.90149 620.00000 642.47763 0.00161
81.91149 595.00000 641.77628 0.00168
81.92149 613.00000 641.08270 0.00163
81.93150 664.00000 640.39531 0.00151
81.94149 662.00000 639.71690 0.00151
81.95149 615.00000 639.04599 0.00163
81.96149 636.00000 638.38364 0.00157
81.97150 626.00000 637.72953 0.00160
81.98149 583.00000 637.08580 0.00172
81.99149 595.00000 636.45057 0.00168
82.00150 622.00000 635.82386 0.00161
82.01150 613.00000 635.20671 0.00163
82.02149 647.00000 634.59840 0.00155
82.03149 620.00000 633.99487 0.00161
82.04150 621.00000 633.39261 0.00161
82.05150 651.00000 632.80820 0.00154
82.06149 623.00000 632.24352 0.00161
82.07150 660.00000 631.69180 0.00152
82.08150 636.00000 631.15181 0.00157
82.09150 616.00000 630.62275 0.00162
82.10149 678.00000 630.10503 0.00147
82.11150 632.00000 629.59708 0.00158
82.12150 635.00000 629.10043 0.00157
82.13150 617.00000 628.61451 0.00162
82.14149 625.00000 628.13975 0.00160
82.15150 658.00000 627.67466 0.00152
82.16150 651.00000 627.22058 0.00154
82.17150 608.00000 626.77692 0.00164
82.18150 627.00000 626.34360 0.00159
82.19150 645.00000 625.92048 0.00155
82.20150 652.00000 625.50743 0.00153
82.21150 630.00000 625.10432 0.00159
82.22150 622.00000 624.71097 0.00161
82.23150 625.00000 624.32723 0.00160
82.24150 639.00000 623.95291 0.00156
82.25150 619.00000 623.58783 0.00162
82.26150 599.00000 623.23178 0.00167
82.27150 600.00000 622.88456 0.00167
82.28150 588.00000 622.54594 0.00170
82.29150 619.00000 622.21568 0.00162
82.30150 608.00000 621.89355 0.00164
82.31150 631.00000 621.57930 0.00158
82.32150 586.00000 621.27267 0.00171
82.33150 657.00000 620.97339 0.00152
82.34150 631.00000 620.68118 0.00158
82.35150 620.00000 620.39577 0.00161
82.36150 645.00000 620.11686 0.00155
82.37151 622.00000 619.84390 0.00161
82.38150 656.00000 619.57741 0.00152
82.39150 622.00000 619.31628 0.00161
82.40150 595.00000 619.06052 0.00168
82.41151 629.00000 618.80960 0.00159
82.42150 582.00000 618.56402 0.00172
82.43150 633.00000 618.32287 0.00158
82.44151 637.00000 618.08626 0.00157
82.45151 650.00000 617.85411 0.00154
82.46150 626.00000 617.62510 0.00160
82.47150 616.00000 617.39882 0.00162
82.48151 580.00000 617.17524 0.00172
82.49151 653.00000 616.95469 0.00153
82.50150 620.00000 616.73704 0.00161
82.51151 631.00000 616.52144 0.00158
82.52151 624.00000 616.30839 0.00160
82.53151 601.00000 616.09753 0.00166
82.54150 629.00000 615.88892 0.00159
82.55151 615.00000 615.68186 0.00163
82.56151 670.00000 615.47688 0.00149
82.57151 650.00000 615.27374 0.00154
82.58150 614.00000 615.07259 0.00163
82.59151 661.00000 614.87284 0.00151
82.60151 631.00000 614.67512 0.00158
82.61151 618.00000 614.47926 0.00162
82.62151 622.00000 614.28533 0.00161
82.63151 631.00000 614.09343 0.00158
82.64151 593.00000 613.90365 0.00169
82.65151 635.00000 613.71613 0.00157
82.66151 658.00000 613.53101 0.00152
82.67151 599.00000 613.34844 0.00167
82.68151 615.00000 613.16859 0.00163
82.69151 621.00000 612.99163 0.00161
82.70151 663.00000 612.81775 0.00151
82.71151 656.00000 612.64713 0.00152
82.72151 598.00000 612.47995 0.00167
82.73151 628.00000 612.31639 0.00159
82.74151 613.00000 612.15660 0.00163
82.75151 597.00000 612.00076 0.00168
82.76151 668.00000 611.84900 0.00150
82.77151 662.00000 611.70141 0.00151
82.78151 608.00000 611.55805 0.00164
82.79151 677.00000 611.41882 0.00148
82.80151 630.00000 611.28302 0.00159
82.81152 624.00000 611.14939 0.00160
82.82151 608.00000 611.02204 0.00164
82.83151 617.00000 610.90313 0.00162
82.84151 610.00000 610.79113 0.00164
82.85152 621.00000 610.68479 0.00161
82.86151 607.00000 610.58428 0.00165
82.87151 611.00000 610.48928 0.00164
82.88152 614.00000 610.39986 0.00163
82.89152 628.00000 610.31623 0.00159
82.90151 590.00000 610.23841 0.00169
82.91151 610.00000 610.16623 0.00164
82.92152 629.00000 610.09952 0.00159
82.93152 647.00000 610.03838 0.00155
82.94151 633.00000 609.98273 0.00158
82.95152 644.00000 609.93232 0.00155
82.96152 608.00000 609.88720 0.00164
82.97152 615.00000 609.84716 0.00163
82.98151 640.00000 609.81206 0.00156
82.99152 647.00000 609.78161 0.00155
83.00152 629.00000 609.75568 0.00159
83.01152 624.00000 609.73401 0.00160
83.02151 629.00000 609.71634 0.00159
83.03152 623.00000 609.70234 0.00161
83.04152 591.00000 609.69177 0.00169
83.05152 605.00000 609.68430 0.00165
83.06152 666.00000 609.67961 0.00150
83.07152 559.00000 609.67741 0.00179
83.08152 623.00000 609.67751 0.00161
83.09152 626.00000 609.67986 0.00160
83.10152 635.00000 609.68340 0.00157
83.11152 621.00000 609.68704 0.00161
83.12152 641.00000 609.69071 0.00156
83.13152 612.00000 609.69416 0.00163
83.14152 670.00000 609.69713 0.00149
83.15152 657.00000 609.69929 0.00152
83.16152 619.00000 609.70029 0.00162
83.17152 605.00000 609.69979 0.00165
83.18152 571.00000 609.69750 0.00175
83.19152 614.00000 609.69313 0.00163
83.20152 657.00000 609.68646 0.00152
83.21152 611.00000 609.67730 0.00164
83.22152 580.00000 609.66551 0.00172
83.23152 633.00000 609.65100 0.00158
83.24152 659.00000 609.63375 0.00152
83.25153 634.00000 609.61376 0.00158
83.26152 570.00000 609.59118 0.00175
83.27152 575.00000 609.56608 0.00174
83.28152 616.00000 609.53868 0.00162
83.29153 587.00000 609.50920 0.00170
83.30152 622.00000 609.47805 0.00161
83.31152 621.00000 609.44548 0.00161
83.32153 620.00000 609.41187 0.00161
83.33153 645.00000 609.37771 0.00155
83.34152 585.00000 609.34340 0.00171
83.35152 636.00000 609.30907 0.00157
83.36153 618.00000 609.27463 0.00162
83.37153 655.00000 609.24151 0.00153
83.38152 636.00000 609.21291 0.00157
83.39153 657.00000 609.18844 0.00152
83.40153 612.00000 609.16796 0.00163
83.41153 579.00000 609.15189 0.00173
83.42152 618.00000 609.14088 0.00162
83.43153 574.00000 609.13556 0.00174
83.44153 624.00000 609.13659 0.00160
83.45153 569.00000 609.14459 0.00176
83.46152 607.00000 609.16015 0.00165
83.47153 652.00000 609.18393 0.00153
83.48153 627.00000 609.21645 0.00159
83.49153 595.00000 609.25829 0.00168
83.50153 587.00000 609.30997 0.00170
83.51153 593.00000 609.37202 0.00169
83.52153 599.00000 609.44491 0.00167
83.53153 576.00000 609.52911 0.00174
83.54153 626.00000 609.62506 0.00160
83.55153 660.00000 609.73316 0.00152
83.56153 608.00000 609.85379 0.00164
83.57153 622.00000 609.98731 0.00161
83.58153 627.00000 610.13404 0.00159
83.59153 602.00000 610.29427 0.00166
83.60153 601.00000 610.46825 0.00166
83.61153 641.00000 610.65621 0.00156
83.62153 608.00000 610.85828 0.00164
83.63153 625.00000 611.07448 0.00160
83.64153 591.00000 611.30424 0.00169
83.65154 625.00000 611.54722 0.00160
83.66153 630.00000 611.80730 0.00159
83.67153 631.00000 612.08449 0.00158
83.68153 616.00000 612.37751 0.00162
83.69154 635.00000 612.68629 0.00157
83.70153 616.00000 613.00999 0.00162
83.71153 645.00000 613.34956 0.00155
83.72153 597.00000 613.70470 0.00168
83.73154 591.00000 614.07577 0.00169
83.74153 607.00000 614.46159 0.00165
83.75153 629.00000 614.86322 0.00159
83.76154 611.00000 615.28061 0.00164
83.77154 629.00000 615.71280 0.00159
83.78153 608.00000 616.15960 0.00164
83.79153 685.00000 616.62171 0.00146
83.80154 595.00000 617.09898 0.00168
83.81154 598.00000 617.59024 0.00167
83.82153 594.00000 618.09522 0.00168
83.83154 603.00000 618.61544 0.00166
83.84154 584.00000 619.14940 0.00171
83.85154 585.00000 619.69562 0.00171
83.86153 589.00000 620.25306 0.00170
83.87154 607.00000 620.82321 0.00165
83.88154 623.00000 621.40394 0.00161
83.89154 627.00000 621.99532 0.00159
83.90154 606.00000 622.59669 0.00165
83.91154 581.00000 623.20734 0.00172
83.92154 611.00000 623.82644 0.00164
83.93154 616.00000 624.45314 0.00162
83.94154 617.00000 625.08652 0.00162
83.95154 612.00000 625.72557 0.00163
83.96154 642.00000 626.36923 0.00156
83.97154 593.00000 627.01638 0.00169
83.98154 594.00000 627.66580 0.00168
83.99154 573.00000 628.31623 0.00175
84.00154 631.00000 628.96632 0.00158
84.01154 645.00000 629.61464 0.00155
84.02154 629.00000 630.25972 0.00159
84.03154 586.00000 630.89999 0.00171
84.04154 589.00000 631.53383 0.00170
84.05154 615.00000 632.15954 0.00163
84.06154 598.00000 632.77537 0.00167
84.07154 616.00000 633.37952 0.00162
84.08154 573.00000 633.97013 0.00175
84.09155 605.00000 634.54585 0.00165
84.10154 551.00000 635.10303 0.00181
84.11154 607.00000 635.64142 0.00165
84.12154 594.00000 636.15844 0.00168
84.13155 602.00000 636.65258 0.00166
84.14154 627.00000 637.12038 0.00159
84.15154 624.00000 637.56130 0.00160
84.16154 587.00000 637.97288 0.00170
84.17155 607.00000 638.35357 0.00165
84.18154 628.00000 638.70039 0.00159
84.19154 624.00000 639.01261 0.00160
84.20155 622.00000 639.28841 0.00161
84.21155 634.00000 639.52557 0.00158
84.22154 628.00000 639.72269 0.00159
84.23154 632.00000 639.87874 0.00158
84.24155 640.00000 639.99232 0.00156
84.25155 600.00000 640.06206 0.00167
84.26154 656.00000 640.08709 0.00152
84.27155 604.00000 640.06662 0.00166
84.28155 566.00000 639.99998 0.00177
84.29155 598.00000 639.88669 0.00167
84.30154 605.00000 639.72665 0.00165
84.31155 612.00000 639.51921 0.00163
84.32155 591.00000 639.26499 0.00169
84.33155 599.00000 638.96407 0.00167
84.34155 569.00000 638.61689 0.00176
84.35155 615.00000 638.22407 0.00163
84.36155 603.00000 637.78640 0.00166
84.37155 613.00000 637.30484 0.00163
84.38155 602.00000 636.78048 0.00166
84.39155 608.00000 636.21457 0.00164
84.40155 621.00000 635.60849 0.00161
84.41155 598.00000 634.96370 0.00167
84.42155 574.00000 634.28176 0.00174
84.43155 621.00000 633.56438 0.00161
84.44155 618.00000 632.81354 0.00162
84.45155 631.00000 632.03099 0.00158
84.46155 619.00000 631.21858 0.00162
84.47155 575.00000 630.37819 0.00174
84.48155 628.00000 629.51175 0.00159
84.49155 616.00000 628.62123 0.00162
84.50155 601.00000 627.70855 0.00166
84.51155 577.00000 626.77567 0.00173
84.52155 589.00000 625.82449 0.00170
84.53156 623.00000 624.85591 0.00161
84.54155 599.00000 623.87471 0.00167
84.55155 605.00000 622.87975 0.00165
84.56155 614.00000 621.87375 0.00163
84.57156 618.00000 620.85740 0.00162
84.58155 611.00000 619.83539 0.00164
84.59155 599.00000 618.80626 0.00167
84.60155 613.00000 617.77259 0.00163
84.61156 628.00000 616.73493 0.00159
84.62155 596.00000 615.69816 0.00168
84.63155 556.00000 614.66018 0.00180
84.64156 630.00000 613.62085 0.00159
84.65156 606.00000 612.58377 0.00165
84.66155 580.00000 611.55026 0.00172
84.67155 571.00000 610.51937 0.00175
84.68156 604.00000 609.49211 0.00166
84.69156 601.00000 608.47146 0.00166
84.70155 611.00000 607.45819 0.00164
84.71156 597.00000 606.45002 0.00168
84.72156 617.00000 605.45067 0.00162
84.73156 562.00000 604.45975 0.00178
84.74155 569.00000 603.47883 0.00176
84.75156 553.00000 602.50549 0.00181
84.76156 568.00000 601.54315 0.00176
84.77156 586.00000 600.59126 0.00171
84.78156 613.00000 599.65022 0.00163
84.79156 614.00000 598.72038 0.00163
84.80156 558.00000 597.80205 0.00179
84.81156 592.00000 596.89551 0.00169
84.82156 620.00000 596.00100 0.00161
84.83156 586.00000 595.11874 0.00171
84.84156 600.00000 594.24891 0.00167
84.85156 605.00000 593.39166 0.00165
84.86156 587.00000 592.54714 0.00170
84.87156 592.00000 591.71543 0.00169
84.88156 561.00000 590.89663 0.00178
84.89156 604.00000 590.09080 0.00166
84.90156 548.00000 589.29799 0.00182
84.91156 583.00000 588.51822 0.00172
84.92156 586.00000 587.75150 0.00171
84.93156 567.00000 586.99783 0.00176
84.94156 595.00000 586.25719 0.00168
84.95156 613.00000 585.52954 0.00163
84.96156 599.00000 584.81484 0.00167
84.97157 561.00000 584.11233 0.00178
84.98156 572.00000 583.42405 0.00175
84.99156 597.00000 582.74782 0.00168
85.00156 545.00000 582.08426 0.00183
85.01157 565.00000 581.43263 0.00177
85.02156 603.00000 580.79476 0.00166
85.03156 591.00000 580.16861 0.00169
85.04156 586.00000 579.55472 0.00171
85.05157 578.00000 578.95238 0.00173
85.06156 599.00000 578.36324 0.00167
85.07156 573.00000 577.78540 0.00175
85.08157 566.00000 577.21875 0.00177
85.09157 557.00000 576.66430 0.00180
85.10156 585.00000 576.12187 0.00171
85.11156 549.00000 575.59024 0.00182
85.12157 556.00000 575.06931 0.00180
85.13157 581.00000 574.55996 0.00172
85.14156 576.00000 574.06202 0.00174
85.15157 589.00000 573.57386 0.00170
85.16157 581.00000 573.09683 0.00172
85.17157 602.00000 572.63027 0.00166
85.18156 617.00000 572.17449 0.00162
85.19157 585.00000 571.72799 0.00171
85.20157 561.00000 571.29197 0.00178
85.21157 608.00000 570.86585 0.00164
85.22157 644.00000 570.44946 0.00155
85.23157 618.00000 570.04268 0.00162
85.24157 631.00000 569.64535 0.00158
85.25157 584.00000 569.25733 0.00171
85.26157 563.00000 568.87848 0.00178
85.27157 619.00000 568.50867 0.00162
85.28157 581.00000 568.14775 0.00172
85.29157 563.00000 567.79560 0.00178
85.30157 607.00000 567.45207 0.00165
85.31157 585.00000 567.11704 0.00171
85.32157 555.00000 566.79039 0.00180
85.33157 547.00000 566.47198 0.00183
85.34157 569.00000 566.16169 0.00176
85.35157 583.00000 565.85940 0.00172
85.36157 591.00000 565.56500 0.00169
85.37157 549.00000 565.27837 0.00182
85.38157 627.00000 564.99939 0.00159
85.39157 565.00000 564.72797 0.00177
85.40157 553.00000 564.46398 0.00181
85.41158 619.00000 564.20708 0.00162
85.42157 542.00000 563.95792 0.00185
85.43157 556.00000 563.71564 0.00180
85.44157 549.00000 563.48040 0.00182
85.45158 584.00000 563.25189 0.00171
85.46157 570.00000 563.03068 0.00175
85.47157 573.00000 562.81601 0.00175
85.48158 564.00000 562.60782 0.00177
85.49158 552.00000 562.40643 0.00181
85.50157 576.00000 562.21174 0.00174
85.51157 637.00000 562.02328 0.00157
85.52158 570.00000 561.84100 0.00175
85.53158 573.00000 561.66517 0.00175
85.54157 572.00000 561.49571 0.00175
85.55157 570.00000 561.33219 0.00175
85.56158 601.00000 561.17455 0.00166
85.57158 600.00000 561.02305 0.00167
85.58157 572.00000 560.87758 0.00175
85.59158 605.00000 560.73764 0.00165
85.60158 558.00000 560.60358 0.00179
85.61158 554.00000 560.47519 0.00181
85.62157 574.00000 560.35250 0.00174
85.63158 571.00000 560.23508 0.00175
85.64158 556.00000 560.12321 0.00180
85.65158 573.00000 560.01668 0.00175
85.66158 588.00000 559.91542 0.00170
85.67158 617.00000 559.81932 0.00162
85.68158 581.00000 559.72831 0.00172
85.69158 563.00000 559.64228 0.00178
85.70158 609.00000 559.56114 0.00164
85.71158 586.00000 559.48478 0.00171
85.72158 551.00000 559.41310 0.00181
85.73158 549.00000 559.34600 0.00182
85.74158 562.00000 559.28334 0.00178
85.75158 546.00000 559.22501 0.00183
85.76158 531.00000 559.17088 0.00188
85.77158 536.00000 559.12083 0.00187
85.78158 556.00000 559.07470 0.00180
85.79158 596.00000 559.03236 0.00168
85.80158 614.00000 558.99366 0.00163
85.81158 554.00000 558.95844 0.00181
85.82158 590.00000 558.92654 0.00169
85.83158 591.00000 558.89778 0.00169
85.84158 614.00000 558.87201 0.00163
85.85159 556.00000 558.84902 0.00180
85.86158 568.00000 558.82868 0.00176
85.87158 580.00000 558.81074 0.00172
85.88158 586.00000 558.79504 0.00171
85.89159 579.00000 558.78137 0.00173
85.90158 565.00000 558.76955 0.00177
85.91158 606.00000 558.75935 0.00165
85.92159 601.00000 558.75056 0.00166
85.93159 560.00000 558.74300 0.00179
85.94158 602.00000 558.73643 0.00166
85.95158 605.00000 558.73063 0.00165
85.96159 541.00000 558.72531 0.00185
85.97159 627.00000 558.72023 0.00159
85.98158 551.00000 558.71554 0.00181
85.99158 569.00000 558.71094 0.00176
86.00159 585.00000 558.70615 0.00171
86.01159 541.00000 558.70093 0.00185
86.02158 594.00000 558.69507 0.00168
86.03159 563.00000 558.68836 0.00178
86.04159 574.00000 558.68061 0.00174
86.05159 559.00000 558.67161 0.00179
86.06158 549.00000 558.66117 0.00182
86.07159 578.00000 558.64907 0.00173
86.08159 602.00000 558.63512 0.00166
86.09159 581.00000 558.61911 0.00172
86.10159 550.00000 558.60084 0.00182
86.11159 589.00000 558.58009 0.00170
86.12159 576.00000 558.55665 0.00174
86.13159 571.00000 558.53029 0.00175
86.14159 563.00000 558.50079 0.00178
86.15159 613.00000 558.46791 0.00163
86.16159 569.00000 558.43143 0.00176
86.17159 573.00000 558.39107 0.00175
86.18159 584.00000 558.34661 0.00171
86.19159 575.00000 558.29776 0.00174
86.20159 561.00000 558.24427 0.00178
86.21159 565.00000 558.18587 0.00177
86.22159 601.00000 558.12227 0.00166
86.23159 555.00000 558.05320 0.00180
86.24159 575.00000 557.97838 0.00174
86.25159 594.00000 557.89753 0.00168
86.26159 601.00000 557.81039 0.00166
86.27159 616.00000 557.71667 0.00162
86.28159 538.00000 557.61613 0.00186
86.29160 580.00000 557.50842 0.00172
86.30159 548.00000 557.39364 0.00182
86.31159 558.00000 557.27125 0.00179
86.32159 596.00000 557.14118 0.00168
86.33160 551.00000 557.00314 0.00181
86.34159 542.00000 556.85742 0.00185
86.35159 604.00000 556.70352 0.00166
86.36160 555.00000 556.54133 0.00180
86.37160 582.00000 556.37117 0.00172
86.38159 607.00000 556.19309 0.00165
86.39159 573.00000 556.00678 0.00175
86.40160 596.00000 555.81231 0.00168
86.41160 547.00000 555.61021 0.00183
86.42159 569.00000 555.40069 0.00176
86.43159 563.00000 555.18353 0.00178
86.44160 563.00000 554.95897 0.00178
86.45160 578.00000 554.72774 0.00173
86.46159 570.00000 554.49018 0.00175
86.47160 553.00000 554.24590 0.00181
86.48160 581.00000 553.99601 0.00172
86.49160 556.00000 553.74066 0.00180
86.50159 582.00000 553.48051 0.00172
86.51160 557.00000 553.21521 0.00180
86.52160 593.00000 552.94598 0.00169
86.53160 560.00000 552.67299 0.00179
86.54160 572.00000 552.39671 0.00175
86.55160 555.00000 552.11757 0.00180
86.56160 574.00000 551.83602 0.00174
86.57160 580.00000 551.55250 0.00172
86.58160 580.00000 551.26745 0.00172
86.59160 576.00000 550.98128 0.00174
86.60160 598.00000 550.69441 0.00167
86.61160 594.00000 550.40724 0.00168
86.62160 605.00000 550.12015 0.00165
86.63160 592.00000 549.83350 0.00169
86.64160 603.00000 549.54765 0.00166
86.65160 561.00000 549.26294 0.00178
86.66160 541.00000 548.97968 0.00185
86.67160 573.00000 548.69816 0.00175
86.68160 565.00000 548.41868 0.00177
86.69160 572.00000 548.14150 0.00175
86.70160 583.00000 547.86686 0.00172
86.71160 587.00000 547.59501 0.00170
86.72160 546.00000 547.32615 0.00183
86.73161 554.00000 547.06020 0.00181
86.74160 585.00000 546.79808 0.00171
86.75160 555.00000 546.53910 0.00180
86.76160 537.00000 546.28361 0.00186
86.77161 575.00000 546.03137 0.00174
86.78160 554.00000 545.78308 0.00181
86.79160 542.00000 545.53784 0.00185
86.80161 554.00000 545.29525 0.00181
86.81161 557.00000 545.05487 0.00180
86.82160 586.00000 544.81300 0.00171
86.83160 557.00000 544.56470 0.00180
86.84161 564.00000 544.33152 0.00177
86.85161 550.00000 544.11204 0.00182
86.86160 556.00000 543.90086 0.00180
86.87160 585.00000 543.69431 0.00171
86.88161 536.00000 543.49269 0.00187
86.89161 567.00000 543.29623 0.00176
86.90160 581.00000 543.10496 0.00172
86.91161 565.00000 542.91835 0.00177
86.92161 599.00000 542.73703 0.00167
86.93161 567.00000 542.56083 0.00176
86.94160 568.00000 542.38997 0.00176
86.95161 548.00000 542.22399 0.00182
86.96161 551.00000 542.06342 0.00181
86.97161 579.00000 541.90812 0.00173
86.98161 579.00000 541.75814 0.00173
86.99161 553.00000 541.61351 0.00181
87.00161 559.00000 541.47426 0.00179
87.01161 588.00000 541.34042 0.00170
87.02161 544.00000 541.21204 0.00184
87.03161 531.00000 541.08915 0.00188
87.04161 607.00000 540.97179 0.00165
87.05161 606.00000 540.86000 0.00165
87.06161 589.00000 540.75383 0.00170
87.07161 553.00000 540.65331 0.00181
87.08161 561.00000 540.55850 0.00178
87.09161 583.00000 540.46944 0.00172
87.10161 613.00000 540.38620 0.00163
87.11161 599.00000 540.30883 0.00167
87.12161 568.00000 540.23740 0.00176
87.13161 577.00000 540.17196 0.00173
87.14161 549.00000 540.11259 0.00182
87.15161 577.00000 540.05937 0.00173
87.16161 542.00000 540.01238 0.00185
87.17162 568.00000 539.97166 0.00176
87.18161 541.00000 539.93742 0.00185
87.19161 569.00000 539.90965 0.00176
87.20161 553.00000 539.88848 0.00181
87.21162 550.00000 539.87402 0.00182
87.22161 586.00000 539.86641 0.00171
87.23161 559.00000 539.86573 0.00179
87.24162 526.00000 539.87215 0.00190
87.25162 505.00000 539.88578 0.00198
87.26161 563.00000 539.90674 0.00178
87.27161 592.00000 539.93522 0.00169
87.28162 552.00000 539.97140 0.00181
87.29162 563.00000 540.01538 0.00178
87.30161 560.00000 540.06729 0.00179
87.31161 587.00000 540.12741 0.00170
87.32162 570.00000 540.19597 0.00175
87.33162 526.00000 540.27300 0.00190
87.34161 584.00000 540.35868 0.00171
87.35162 525.00000 540.45350 0.00190
87.36162 525.00000 540.55738 0.00190
87.37162 521.00000 540.67063 0.00192
87.38161 555.00000 540.79336 0.00180
87.39162 550.00000 540.92618 0.00182
87.40162 549.00000 541.06894 0.00182
87.41162 559.00000 541.22202 0.00179
87.42162 559.00000 541.38565 0.00179
87.43162 559.00000 541.56010 0.00179
87.44162 534.00000 541.74563 0.00187
87.45162 573.00000 541.94250 0.00175
87.46162 528.00000 542.15097 0.00189
87.47162 581.00000 542.37133 0.00172
87.48162 552.00000 542.60384 0.00181
87.49162 577.00000 542.84878 0.00173
87.50162 543.00000 543.10644 0.00184
87.51162 547.00000 543.37708 0.00183
87.52162 569.00000 543.66100 0.00176
87.53162 562.00000 543.95847 0.00178
87.54162 585.00000 544.26975 0.00171
87.55162 563.00000 544.59513 0.00178
87.56162 611.00000 544.93485 0.00164
87.57162 560.00000 545.28916 0.00179
87.58162 566.00000 545.65825 0.00177
87.59162 588.00000 546.04210 0.00170
87.60162 561.00000 546.44061 0.00178
87.61163 566.00000 546.85620 0.00177
87.62162 594.00000 547.28758 0.00168
87.63162 554.00000 547.73588 0.00181
87.64162 550.00000 548.20072 0.00182
87.65163 541.00000 548.68276 0.00185
87.66162 562.00000 549.18074 0.00178
87.67162 608.00000 549.69632 0.00164
87.68163 592.00000 550.22972 0.00169
87.69163 553.00000 550.77999 0.00181
87.70162 607.00000 551.34717 0.00165
87.71162 545.00000 551.93246 0.00183
87.72163 588.00000 552.53591 0.00170
87.73163 531.00000 553.15625 0.00188
87.74162 534.00000 553.79329 0.00187
87.75163 575.00000 554.44866 0.00174
87.76163 613.00000 555.11978 0.00163
87.77163 594.00000 555.80537 0.00168
87.78162 602.00000 556.50120 0.00166
87.79163 590.00000 557.21497 0.00169
87.80163 582.00000 557.95464 0.00172
87.81163 573.00000 558.71639 0.00175
87.82162 583.00000 559.49533 0.00172
87.83163 581.00000 560.29257 0.00172
87.84163 579.00000 561.10523 0.00173
87.85163 599.00000 561.93365 0.00167
87.86163 587.00000 562.77734 0.00170
87.87163 564.00000 563.63573 0.00177
87.88163 575.00000 564.50819 0.00174
87.89163 576.00000 565.39405 0.00174
87.90163 615.00000 566.29255 0.00163
87.91163 552.00000 567.20289 0.00181
87.92163 570.00000 568.12418 0.00175
87.93163 570.00000 569.05550 0.00175
87.94163 590.00000 569.99584 0.00169
87.95163 560.00000 570.94417 0.00179
87.96163 643.00000 571.89938 0.00156
87.97163 541.00000 572.86033 0.00185
87.98163 581.00000 573.82583 0.00172
87.99163 588.00000 574.79468 0.00170
88.00163 598.00000 575.76564 0.00167
88.01163 562.00000 576.73745 0.00178
88.02163 631.00000 577.70886 0.00158
88.03163 580.00000 578.67861 0.00172
88.04163 601.00000 579.64546 0.00166
88.05164 566.00000 580.60914 0.00177
88.06163 610.00000 581.56560 0.00164
88.07163 647.00000 582.51654 0.00155
88.08163 605.00000 583.45989 0.00165
88.09164 603.00000 584.39553 0.00166
88.10163 577.00000 585.31967 0.00173
88.11163 633.00000 586.23412 0.00158
88.12164 643.00000 587.13796 0.00156
88.13164 595.00000 588.02855 0.00168
88.14163 578.00000 588.90512 0.00173
88.15163 624.00000 589.76867 0.00160
88.16164 618.00000 590.61842 0.00162
88.17164 627.00000 591.45201 0.00159
88.18163 605.00000 592.26879 0.00165
88.19164 585.00000 593.07050 0.00171
88.20164 605.00000 593.85404 0.00165
88.21164 621.00000 594.61952 0.00161
88.22163 638.00000 595.36545 0.00157
88.23164 608.00000 596.09327 0.00164
88.24164 611.00000 596.79992 0.00164
88.25164 644.00000 597.48525 0.00155
88.26163 598.00000 598.14765 0.00167
88.27164 597.00000 598.78803 0.00168
88.28164 622.00000 599.40333 0.00161
88.29164 613.00000 599.99303 0.00163
88.30164 644.00000 600.55589 0.00155
88.31164 620.00000 601.09062 0.00161
88.32164 599.00000 601.59586 0.00167
88.33164 660.00000 602.07026 0.00152
88.34164 638.00000 602.51243 0.00157
88.35164 613.00000 602.92100 0.00163
88.36164 612.00000 603.29463 0.00163
88.37164 586.00000 603.63201 0.00171
88.38164 622.00000 603.93195 0.00161
88.39164 633.00000 604.19334 0.00158
88.40164 600.00000 604.41520 0.00167
88.41164 589.00000 604.59671 0.00170
88.42164 585.00000 604.73723 0.00171
88.43164 588.00000 604.83632 0.00170
88.44164 575.00000 604.89376 0.00174
88.45164 595.00000 604.90955 0.00168
88.46164 654.00000 604.88397 0.00153
88.47164 615.00000 604.81751 0.00163
88.48164 591.00000 604.71096 0.00169
88.49165 577.00000 604.56518 0.00173
88.50164 584.00000 604.38192 0.00171
88.51164 645.00000 604.16223 0.00155
88.52164 599.00000 603.90802 0.00167
88.53165 597.00000 603.62096 0.00168
88.54164 583.00000 603.30407 0.00172
88.55164 623.00000 602.95882 0.00161
88.56165 611.00000 602.58758 0.00164
88.57165 584.00000 602.19370 0.00171
88.58164 571.00000 601.77992 0.00175
88.59164 630.00000 601.34822 0.00159
88.60165 597.00000 600.90135 0.00168
88.61165 611.00000 600.44305 0.00164
88.62164 603.00000 599.97621 0.00166
88.63165 592.00000 599.50225 0.00169
88.64165 593.00000 599.02539 0.00169
88.65165 632.00000 598.54789 0.00158
88.66164 602.00000 598.07292 0.00166
88.67165 574.00000 597.60166 0.00174
88.68165 565.00000 597.13805 0.00177
88.69165 562.00000 596.68404 0.00178
88.70164 603.00000 596.24239 0.00166
88.71165 628.00000 595.81399 0.00159
88.72165 604.00000 595.40225 0.00166
88.73165 587.00000 595.00873 0.00170
88.74165 603.00000 594.63529 0.00166
88.75165 594.00000 594.28367 0.00168
88.76165 550.00000 593.95552 0.00182
88.77165 575.00000 593.65235 0.00174
88.78165 572.00000 593.37555 0.00175
88.79165 539.00000 593.12640 0.00186
88.80165 554.00000 592.90604 0.00181
88.81165 587.00000 592.71541 0.00170
88.82165 552.00000 592.55492 0.00181
88.83165 552.00000 592.42470 0.00181
88.84165 575.00000 592.32920 0.00174
88.85165 519.00000 592.26865 0.00193
88.86165 548.00000 592.24291 0.00182
88.87165 589.00000 592.25212 0.00170
88.88165 580.00000 592.29668 0.00172
88.89165 578.00000 592.37700 0.00173
88.90165 550.00000 592.49339 0.00182
88.91165 573.00000 592.64612 0.00175
88.92165 560.00000 592.83535 0.00179
88.93166 534.00000 593.06142 0.00187
88.94165 552.00000 593.32364 0.00181
88.95165 534.00000 593.62268 0.00187
88.96165 547.00000 593.95818 0.00183
88.97166 561.00000 594.33033 0.00178
88.98165 524.00000 594.73769 0.00191
88.99165 579.00000 595.18109 0.00173
89.00166 562.00000 595.66021 0.00178
89.01166 575.00000 596.17362 0.00174
89.02165 573.00000 596.72063 0.00175
89.03165 584.00000 597.30169 0.00171
89.04166 585.00000 597.91618 0.00171
89.05166 587.00000 598.56207 0.00170
89.06165 559.00000 599.23839 0.00179
89.07166 543.00000 599.94623 0.00184
89.08166 534.00000 600.68248 0.00187
89.09166 594.00000 601.44668 0.00168
89.10165 630.00000 602.23682 0.00159
89.11166 565.00000 603.05396 0.00177
89.12166 600.00000 603.89431 0.00167
89.13166 610.00000 604.75716 0.00164
89.14165 592.00000 605.63999 0.00169
89.15166 574.00000 606.54378 0.00174
89.16166 549.00000 607.46403 0.00182
89.17166 547.00000 608.39970 0.00183
89.18166 561.00000 609.34875 0.00178
89.19166 582.00000 610.30897 0.00172
89.20166 589.00000 611.27786 0.00170
89.21166 591.00000 612.25252 0.00169
89.22166 586.00000 613.23123 0.00171
89.23166 576.00000 614.21359 0.00174
89.24166 601.00000 615.19621 0.00166
89.25166 617.00000 616.17576 0.00162
89.26166 558.00000 617.14925 0.00179
89.27166 584.00000 618.11376 0.00171
89.28166 586.00000 619.06633 0.00171
89.29166 588.00000 620.00393 0.00170
89.30166 595.00000 620.92348 0.00168
89.31166 573.00000 621.82185 0.00175
89.32166 599.00000 622.69584 0.00167
89.33167 593.00000 623.54311 0.00169
89.34166 571.00000 624.35794 0.00175
89.35166 603.00000 625.13964 0.00166
89.36166 573.00000 625.88420 0.00175
89.37167 563.00000 626.58919 0.00178
89.38166 571.00000 627.24949 0.00175
89.39166 545.00000 627.86419 0.00183
89.40166 581.00000 628.42976 0.00172
89.41167 599.00000 628.94397 0.00167
89.42166 601.00000 629.40277 0.00166
89.43166 592.00000 629.80527 0.00169
89.44167 582.00000 630.14911 0.00172
89.45167 596.00000 630.43163 0.00168
89.46166 540.00000 630.65127 0.00185
89.47166 612.00000 630.80704 0.00163
89.48167 582.00000 630.89752 0.00172
89.49167 544.00000 630.92162 0.00184
89.50166 577.00000 630.87888 0.00173
89.51167 563.00000 630.76876 0.00178
89.52167 571.00000 630.59140 0.00175
89.53167 603.00000 630.34699 0.00166
89.54166 601.00000 630.03636 0.00166
89.55167 612.00000 629.65932 0.00163
89.56167 611.00000 629.21792 0.00164
89.57167 580.00000 628.71313 0.00172
89.58167 595.00000 628.14644 0.00168
89.59167 571.00000 627.51948 0.00175
89.60167 558.00000 626.83377 0.00179
89.61167 586.00000 626.09141 0.00171
89.62167 544.00000 625.29704 0.00184
89.63167 552.00000 624.45258 0.00181
89.64167 582.00000 623.55999 0.00172
89.65167 564.00000 622.62171 0.00177
89.66167 610.00000 621.64047 0.00164
89.67167 610.00000 620.61903 0.00164
89.68167 530.00000 619.56023 0.00189
89.69167 557.00000 618.46687 0.00180
89.70167 584.00000 617.34178 0.00171
89.71167 550.00000 616.18775 0.00182
89.72167 564.00000 615.00753 0.00177
89.73167 595.00000 613.80383 0.00168
89.74167 579.00000 612.57930 0.00173
89.75167 564.00000 611.33651 0.00177
89.76167 528.00000 610.07796 0.00189
89.77168 553.00000 608.80477 0.00181
89.78167 556.00000 607.52310 0.00180
89.79167 548.00000 606.23133 0.00182
89.80167 579.00000 604.93287 0.00173
89.81168 587.00000 603.62844 0.00170
89.82167 588.00000 602.32385 0.00170
89.83167 583.00000 601.01702 0.00172
89.84167 575.00000 599.71095 0.00174
89.85168 557.00000 598.40595 0.00180
89.86167 605.00000 597.10743 0.00165
89.87167 596.00000 595.81287 0.00168
89.88168 571.00000 594.52359 0.00175
89.89168 568.00000 593.24338 0.00176
89.90167 543.00000 591.97332 0.00184
89.91167 554.00000 590.71188 0.00181
89.92168 554.00000 589.46002 0.00181
89.93168 547.00000 588.22107 0.00183
89.94167 538.00000 586.99576 0.00186
89.95168 547.00000 585.78111 0.00183
89.96168 629.00000 584.58137 0.00159
89.97168 572.00000 583.39585 0.00175
89.98167 567.00000 582.22619 0.00176
89.99168 546.00000 581.06926 0.00183
90.00168 571.00000 579.92891 0.00175
90.01168 615.00000 578.80424 0.00163
90.02168 561.00000 577.69546 0.00178
90.03168 529.00000 576.60276 0.00189
90.04168 555.00000 575.52626 0.00180
90.05168 614.00000 574.46603 0.00163
90.06168 544.00000 573.42212 0.00184
90.07168 540.00000 572.39455 0.00185
90.08168 501.00000 571.38329 0.00200
90.09168 544.00000 570.38829 0.00184
90.10168 538.00000 569.40950 0.00186
90.11168 544.00000 568.44682 0.00184
90.12168 520.00000 567.50015 0.00192
90.13168 579.00000 566.56938 0.00173
90.14168 578.00000 565.65438 0.00173
90.15168 529.00000 564.75505 0.00189
90.16168 528.00000 563.87124 0.00189
90.17168 542.00000 563.00282 0.00185
90.18168 567.00000 562.14969 0.00176
90.19168 516.00000 561.31171 0.00194
90.20168 495.00000 560.48877 0.00202
90.21169 569.00000 559.67998 0.00176
90.22168 572.00000 558.88764 0.00175
90.23168 562.00000 558.10925 0.00178
90.24168 543.00000 557.34556 0.00184
90.25169 544.00000 556.59576 0.00184
90.26168 522.00000 555.86202 0.00192
90.27168 561.00000 555.14208 0.00178
90.28168 555.00000 554.43666 0.00180
90.29169 560.00000 553.74504 0.00179
90.30168 578.00000 553.06928 0.00173
90.31168 577.00000 552.40732 0.00173
90.32169 527.00000 551.75921 0.00190
90.33169 557.00000 551.12627 0.00180
90.34168 564.00000 550.50846 0.00177
90.35168 568.00000 549.90457 0.00176
90.36169 532.00000 549.31466 0.00188
90.37169 547.00000 548.73995 0.00183
90.38168 524.00000 548.18042 0.00191
90.39169 571.00000 547.63443 0.00175
90.40169 551.00000 547.10367 0.00181
90.41169 502.00000 546.58760 0.00199
90.42168 518.00000 546.08674 0.00193
90.43169 516.00000 545.59963 0.00194
90.44169 517.00000 545.12775 0.00193
90.45169 533.00000 544.67061 0.00188
90.46169 536.00000 544.22822 0.00187
90.47169 499.00000 543.80057 0.00200
90.48169 552.00000 543.38763 0.00181
90.49169 549.00000 542.98938 0.00182
90.50169 567.00000 542.60578 0.00176
90.51169 576.00000 542.23679 0.00174
90.52169 519.00000 541.88234 0.00193
90.53169 534.00000 541.54235 0.00187
90.54169 537.00000 541.21670 0.00186
90.55169 553.00000 540.90523 0.00181
90.56169 550.00000 540.60746 0.00182
90.57169 530.00000 540.32274 0.00189
90.58169 543.00000 540.05279 0.00184
90.59169 550.00000 539.79834 0.00182
90.60169 523.00000 539.55856 0.00191
90.61169 555.00000 539.33283 0.00180
90.62169 524.00000 539.12094 0.00191
90.63169 544.00000 538.92277 0.00184
90.64169 522.00000 538.73819 0.00192
90.65170 486.00000 538.56690 0.00206
90.66169 536.00000 538.40925 0.00187
90.67169 515.00000 538.26460 0.00194
90.68169 527.00000 538.13297 0.00190
90.69170 563.00000 538.01408 0.00178
90.70169 607.00000 537.90809 0.00165
90.71169 526.00000 537.81448 0.00190
90.72169 551.00000 537.73318 0.00181
90.73170 532.00000 537.66392 0.00188
90.74169 548.00000 537.60668 0.00182
90.75169 565.00000 537.56105 0.00177
90.76170 555.00000 537.52682 0.00180
90.77170 583.00000 537.50383 0.00172
90.78169 591.00000 537.49178 0.00169
90.79169 533.00000 537.49036 0.00188
90.80170 467.00000 537.49934 0.00214
90.81170 524.00000 537.51837 0.00191
90.82169 535.00000 537.54713 0.00187
90.83170 522.00000 537.58536 0.00192
90.84170 551.00000 537.63262 0.00181
90.85170 550.00000 537.68856 0.00182
90.86169 564.00000 537.75270 0.00177
90.87170 535.00000 537.82484 0.00187
90.88170 515.00000 537.90431 0.00194
90.89170 548.00000 537.99069 0.00182
90.90170 594.00000 538.08347 0.00168
90.91170 527.00000 538.18209 0.00190
90.92170 542.00000 538.28593 0.00185
90.93170 548.00000 538.39421 0.00182
90.94170 528.00000 538.50575 0.00189
90.95170 532.00000 538.61949 0.00188
90.96170 554.00000 538.73805 0.00181
90.97170 582.00000 538.86010 0.00172
90.98170 538.00000 538.98416 0.00186
90.99170 561.00000 539.10918 0.00178
91.00170 545.00000 539.23431 0.00183
91.01170 537.00000 539.35878 0.00186
91.02170 573.00000 539.48180 0.00175
91.03170 542.00000 539.60256 0.00185
91.04170 534.00000 539.72019 0.00187
91.05170 586.00000 539.83383 0.00171
91.06170 576.00000 539.94263 0.00174
91.07170 544.00000 540.04570 0.00184
91.08170 533.00000 540.14216 0.00188
91.09171 561.00000 540.23124 0.00178
91.10170 542.00000 540.31180 0.00185
91.11170 555.00000 540.38326 0.00180
91.12170 542.00000 540.44472 0.00185
91.13171 502.00000 540.49541 0.00199
91.14170 528.00000 540.53444 0.00189
91.15170 556.00000 540.56124 0.00180
91.16171 530.00000 540.57508 0.00189
91.17171 540.00000 540.57533 0.00185
91.18170 522.00000 540.56146 0.00192
91.19170 534.00000 540.53297 0.00187
91.20171 553.00000 540.48940 0.00181
91.21171 537.00000 540.43048 0.00186
91.22170 571.00000 540.35601 0.00175
91.23170 567.00000 540.26564 0.00176
91.24171 535.00000 540.15925 0.00187
91.25171 525.00000 540.03702 0.00190
91.26170 530.00000 539.89905 0.00189
91.27171 561.00000 539.74509 0.00178
91.28171 590.00000 539.57577 0.00169
91.29171 537.00000 539.39126 0.00186
91.30170 557.00000 539.19215 0.00180
91.31171 575.00000 538.97825 0.00174
91.32171 576.00000 538.75068 0.00174
91.33171 507.00000 538.50981 0.00197
91.34171 517.00000 538.25622 0.00193
91.35171 517.00000 537.99058 0.00193
91.36171 544.00000 537.71355 0.00184
91.37171 496.00000 537.42587 0.00202
91.38171 571.00000 537.12825 0.00175
91.39171 546.00000 536.82145 0.00183
91.40171 519.00000 536.50623 0.00193
91.41171 525.00000 536.18334 0.00190
91.42171 539.00000 535.85355 0.00186
91.43171 554.00000 535.51761 0.00181
91.44171 532.00000 535.17625 0.00188
91.45171 519.00000 534.83021 0.00193
91.46171 562.00000 534.48019 0.00178
91.47171 501.00000 534.12687 0.00200
91.48171 560.00000 533.77091 0.00179
91.49171 589.00000 533.41296 0.00170
91.50171 520.00000 533.05360 0.00192
91.51171 501.00000 532.69343 0.00200
91.52171 536.00000 532.33298 0.00187
91.53172 529.00000 531.97242 0.00189
91.54171 546.00000 531.61330 0.00183
91.55171 515.00000 531.25501 0.00194
91.56171 531.00000 530.89833 0.00188
91.57172 559.00000 530.54331 0.00179
91.58171 505.00000 530.19136 0.00198
91.59171 561.00000 529.84177 0.00178
91.60172 521.00000 529.49486 0.00192
91.61172 531.00000 529.15161 0.00188
91.62171 544.00000 528.81226 0.00184
91.63171 533.00000 528.47637 0.00188
91.64172 528.00000 528.14416 0.00189
91.65172 478.00000 527.81648 0.00209
91.66171 526.00000 527.49350 0.00190
91.67171 520.00000 527.17470 0.00192
91.68172 529.00000 526.86024 0.00189
91.69172 541.00000 526.55084 0.00185
91.70171 576.00000 526.24660 0.00174
91.71172 529.00000 525.94666 0.00189
91.72172 477.00000 525.65202 0.00210
91.73172 527.00000 525.36240 0.00190
91.74171 540.00000 525.07814 0.00185
91.75172 549.00000 524.79839 0.00182
91.76172 534.00000 524.52403 0.00187
91.77172 494.00000 524.25476 0.00202
91.78172 548.00000 523.99059 0.00182
91.79172 552.00000 523.73148 0.00181
91.80172 542.00000 523.47743 0.00185
91.81172 530.00000 523.22840 0.00189
91.82172 559.00000 522.98435 0.00179
91.83172 587.00000 522.74524 0.00170
91.84172 533.00000 522.51103 0.00188
91.85172 548.00000 522.28167 0.00182
91.86172 506.00000 522.05710 0.00198
91.87172 522.00000 521.83728 0.00192
91.88172 560.00000 521.62216 0.00179
91.89172 520.00000 521.41168 0.00192
91.90172 544.00000 521.20578 0.00184
91.91172 479.00000 521.00443 0.00209
91.92172 525.00000 520.80756 0.00190
91.93172 568.00000 520.61513 0.00176
91.94172 546.00000 520.42709 0.00183
91.95172 560.00000 520.24340 0.00179
91.96172 548.00000 520.06402 0.00182
91.97173 556.00000 519.88873 0.00180
91.98172 526.00000 519.71803 0.00190
91.99172 535.00000 519.55136 0.00187
92.00172 530.00000 519.38885 0.00189
92.01173 531.00000 519.23034 0.00188
92.02172 499.00000 519.07626 0.00200
92.03172 520.00000 518.92612 0.00192
92.04173 538.00000 518.77992 0.00186
92.05173 561.00000 518.63793 0.00178
92.06172 553.00000 518.50013 0.00181
92.07172 540.00000 518.36622 0.00185
92.08173 509.00000 518.23620 0.00196
92.09173 536.00000 518.11032 0.00187
92.10172 512.00000 517.98857 0.00195
92.11172 464.00000 517.87068 0.00216
92.12173 537.00000 517.75667 0.00186
92.13173 550.00000 517.64675 0.00182
92.14172 526.00000 517.54091 0.00190
92.15173 517.00000 517.43882 0.00193
92.16173 557.00000 517.34079 0.00180
92.17173 535.00000 517.24671 0.00187
92.18172 543.00000 517.15666 0.00184
92.19173 509.00000 517.07037 0.00196
92.20173 522.00000 516.98810 0.00192
92.21173 562.00000 516.90976 0.00178
92.22173 554.00000 516.83533 0.00181
92.23173 528.00000 516.76482 0.00189
92.24173 544.00000 516.69820 0.00184
92.25173 537.00000 516.63548 0.00186
92.26173 531.00000 516.57665 0.00188
92.27173 535.00000 516.52170 0.00187
92.28173 540.00000 516.47062 0.00185
92.29173 520.00000 516.42340 0.00192
92.30173 575.00000 516.38004 0.00174
92.31173 530.00000 516.34052 0.00189
92.32173 508.00000 516.30484 0.00197
92.33173 504.00000 516.27299 0.00198
92.34173 551.00000 516.24495 0.00181
92.35173 548.00000 516.22073 0.00182
92.36173 486.00000 516.20030 0.00206
92.37173 547.00000 516.18366 0.00183
92.38173 563.00000 516.17080 0.00178
92.39173 554.00000 516.16171 0.00181
92.40173 544.00000 516.15634 0.00184
92.41174 556.00000 516.15465 0.00180
92.42173 542.00000 516.15652 0.00185
92.43173 522.00000 516.16185 0.00192
92.44173 518.00000 516.17045 0.00193
92.45174 540.00000 516.18209 0.00185
92.46173 555.00000 516.19634 0.00180
92.47173 530.00000 516.21253 0.00189
92.48174 529.00000 516.22886 0.00189
92.49174 500.00000 516.24073 0.00200
92.50173 499.00000 516.24861 0.00200
92.51173 506.00000 516.27304 0.00198
92.52174 524.00000 516.30872 0.00191
92.53174 543.00000 516.35042 0.00184
92.54173 518.00000 516.39589 0.00193
92.55173 520.00000 516.44484 0.00192
92.56174 514.00000 516.49723 0.00195
92.57174 498.00000 516.55292 0.00201
92.58173 580.00000 516.61186 0.00172
92.59174 511.00000 516.67417 0.00196
92.60174 533.00000 516.73961 0.00188
92.61174 532.00000 516.80820 0.00188
92.62173 511.00000 516.87979 0.00196
92.63174 567.00000 516.95453 0.00176
92.64174 540.00000 517.03213 0.00185
92.65174 505.00000 517.11259 0.00198
92.66174 496.00000 517.19581 0.00202
92.67174 508.00000 517.28171 0.00197
92.68174 530.00000 517.37018 0.00189
92.69174 538.00000 517.46113 0.00186
92.70174 507.00000 517.55445 0.00197
92.71174 558.00000 517.65001 0.00179
92.72174 517.00000 517.74769 0.00193
92.73174 512.00000 517.84737 0.00195
92.74174 572.00000 517.94891 0.00175
92.75174 527.00000 518.05218 0.00190
92.76174 517.00000 518.15702 0.00193
92.77174 534.00000 518.26330 0.00187
92.78174 520.00000 518.37085 0.00192
92.79174 552.00000 518.47953 0.00181
92.80174 571.00000 518.58918 0.00175
92.81174 569.00000 518.69964 0.00176
92.82174 566.00000 518.81075 0.00177
92.83174 514.00000 518.92237 0.00195
92.84174 547.00000 519.03434 0.00183
92.85175 510.00000 519.14663 0.00196
92.86174 554.00000 519.25876 0.00181
92.87174 537.00000 519.37093 0.00186
92.88174 574.00000 519.48292 0.00174
92.89175 520.00000 519.59472 0.00192
92.90174 508.00000 519.70589 0.00197
92.91174 489.00000 519.81668 0.00204
92.92175 520.00000 519.92702 0.00192
92.93175 516.00000 520.03664 0.00194
92.94174 525.00000 520.14548 0.00190
92.95174 558.00000 520.25375 0.00179
92.96175 562.00000 520.36144 0.00178
92.97175 502.00000 520.46834 0.00199
92.98174 571.00000 520.57448 0.00175
92.99174 521.00000 520.68013 0.00192
93.00175 493.00000 520.78535 0.00203
93.01175 585.00000 520.89000 0.00171
93.02174 543.00000 520.99418 0.00184
93.03175 528.00000 521.09831 0.00189
93.04175 540.00000 521.20221 0.00185
93.05175 524.00000 521.30611 0.00191
93.06174 538.00000 521.41003 0.00186
93.07175 530.00000 521.51446 0.00189
93.08175 533.00000 521.61923 0.00188
93.09175 490.00000 521.72461 0.00204
93.10175 511.00000 521.83074 0.00196
93.11175 509.00000 521.93780 0.00196
93.12175 515.00000 522.04595 0.00194
93.13175 528.00000 522.15533 0.00189
93.14175 465.00000 522.26610 0.00215
93.15175 509.00000 522.37841 0.00196
93.16175 557.00000 522.49237 0.00180
93.17175 520.00000 522.60812 0.00192
93.18175 502.00000 522.72577 0.00199
93.19175 513.00000 522.84542 0.00195
93.20175 549.00000 522.96714 0.00182
93.21175 507.00000 523.09101 0.00197
93.22175 509.00000 523.21708 0.00196
93.23175 542.00000 523.34538 0.00185
93.24175 521.00000 523.47592 0.00192
93.25175 571.00000 523.60871 0.00175
93.26175 583.00000 523.74372 0.00172
93.27175 545.00000 523.88090 0.00183
93.28175 557.00000 524.02020 0.00180
93.29176 539.00000 524.16166 0.00186
93.30175 517.00000 524.30476 0.00193
93.31175 572.00000 524.44978 0.00175
93.32175 557.00000 524.59643 0.00180
93.33176 521.00000 524.74469 0.00192
93.34175 531.00000 524.89392 0.00188
93.35175 521.00000 525.04432 0.00192
93.36176 507.00000 525.19568 0.00197
93.37176 549.00000 525.34741 0.00182
93.38175 548.00000 525.49922 0.00182
93.39175 588.00000 525.65113 0.00170
93.40176 500.00000 525.80278 0.00200
93.41176 521.00000 525.95353 0.00192
93.42175 534.00000 526.10302 0.00187
93.43176 517.00000 526.25130 0.00193
93.44176 543.00000 526.39752 0.00184
93.45176 537.00000 526.54143 0.00186
93.46175 510.00000 526.68245 0.00196
93.47176 567.00000 526.82056 0.00176
93.48176 553.00000 526.95491 0.00181
93.49176 524.00000 527.08518 0.00191
93.50175 563.00000 527.21079 0.00178
93.51176 538.00000 527.33167 0.00186
93.52176 572.00000 527.44700 0.00175
93.53176 536.00000 527.55645 0.00187
93.54176 562.00000 527.65960 0.00178
93.55176 532.00000 527.75611 0.00188
93.56176 539.00000 527.84556 0.00186
93.57176 520.00000 527.92758 0.00192
93.58176 513.00000 528.00183 0.00195
93.59176 521.00000 528.06800 0.00192
93.60176 528.00000 528.12581 0.00189
93.61176 546.00000 528.17503 0.00183
93.62176 556.00000 528.21545 0.00180
93.63176 524.00000 528.24694 0.00191
93.64176 534.00000 528.26936 0.00187
93.65176 531.00000 528.28266 0.00188
93.66176 534.00000 528.28681 0.00187
93.67176 537.00000 528.28184 0.00186
93.68176 536.00000 528.26782 0.00187
93.69176 517.00000 528.24487 0.00193
93.70176 540.00000 528.21317 0.00185
93.71176 521.00000 528.17291 0.00192
93.72176 555.00000 528.12435 0.00180
93.73177 544.00000 528.06773 0.00184
93.74176 541.00000 528.00355 0.00185
93.75176 482.00000 527.93200 0.00207
93.76176 538.00000 527.85354 0.00186
93.77177 536.00000 527.76850 0.00187
93.78176 561.00000 527.67760 0.00178
93.79176 505.00000 527.58105 0.00198
93.80177 527.00000 527.47932 0.00190
93.81177 556.00000 527.37312 0.00180
93.82176 529.00000 527.26298 0.00189
93.83176 515.00000 527.14920 0.00194
93.84177 517.00000 527.03229 0.00193
93.85177 554.00000 526.91302 0.00181
93.86176 519.00000 526.79193 0.00193
93.87177 558.00000 526.66915 0.00179
93.88177 527.00000 526.54559 0.00190
93.89177 536.00000 526.42161 0.00187
93.90176 508.00000 526.29785 0.00197
93.91177 527.00000 526.17441 0.00190
93.92177 530.00000 526.05214 0.00189
93.93177 560.00000 525.93136 0.00179
93.94176 529.00000 525.81263 0.00189
93.95177 556.00000 525.69603 0.00180
93.96177 523.00000 525.58230 0.00191
93.97177 472.00000 525.47170 0.00212
93.98177 535.00000 525.36458 0.00187
93.99177 506.00000 525.26128 0.00198
94.00177 565.00000 525.16209 0.00177
94.01177 531.00000 525.06727 0.00188
94.02177 518.00000 524.97701 0.00193
94.03177 516.00000 524.89127 0.00194
94.04177 526.00000 524.80963 0.00190
94.05177 553.00000 524.73315 0.00181
94.06177 529.00000 524.66423 0.00189
94.07177 527.00000 524.60231 0.00190
94.08177 497.00000 524.54704 0.00201
94.09177 529.00000 524.49830 0.00189
94.10177 539.00000 524.45622 0.00186
94.11177 513.00000 524.42095 0.00195
94.12177 537.00000 524.39263 0.00186
94.13177 515.00000 524.37139 0.00194
94.14177 527.00000 524.35734 0.00190
94.15177 519.00000 524.35052 0.00193
94.16177 477.00000 524.35096 0.00210
94.17178 544.00000 524.35910 0.00184
94.18177 513.00000 524.37495 0.00195
94.19177 499.00000 524.39853 0.00200
94.20177 506.00000 524.42985 0.00198
94.21178 533.00000 524.46896 0.00188
94.22177 537.00000 524.51578 0.00186
94.23177 542.00000 524.57046 0.00185
94.24178 530.00000 524.63303 0.00189
94.25178 523.00000 524.70336 0.00191
94.26177 513.00000 524.78142 0.00195
94.27177 530.00000 524.86735 0.00189
94.28178 499.00000 524.96113 0.00200
94.29178 529.00000 525.06254 0.00189
94.30177 522.00000 525.17149 0.00192
94.31178 537.00000 525.28827 0.00186
94.32178 502.00000 525.41246 0.00199
94.33178 558.00000 525.54408 0.00179
94.34177 523.00000 525.68289 0.00191
94.35178 565.00000 525.82921 0.00177
94.36178 543.00000 525.98249 0.00184
94.37178 515.00000 526.14275 0.00194
94.38177 509.00000 526.30966 0.00196
94.39178 518.00000 526.48359 0.00193
94.40178 508.00000 526.66386 0.00197
94.41178 508.00000 526.85045 0.00197
94.42178 530.00000 527.04319 0.00189
94.43178 576.00000 527.24186 0.00174
94.44178 588.00000 527.44626 0.00170
94.45178 532.00000 527.65618 0.00188
94.46178 498.00000 527.87137 0.00201
94.47178 544.00000 528.09160 0.00184
94.48178 539.00000 528.31663 0.00186
94.49178 512.00000 528.54619 0.00195
94.50178 526.00000 528.78003 0.00190
94.51178 573.00000 529.01788 0.00175
94.52178 528.00000 529.25947 0.00189
94.53178 545.00000 529.50451 0.00183
94.54178 518.00000 529.75274 0.00193
94.55178 485.00000 530.00387 0.00206
94.56178 534.00000 530.25763 0.00187
94.57178 526.00000 530.51373 0.00190
94.58178 569.00000 530.77192 0.00176
94.59178 586.00000 531.03191 0.00171
94.60178 516.00000 531.29344 0.00194
94.61179 516.00000 531.55654 0.00194
94.62178 571.00000 531.82015 0.00175
94.63178 560.00000 532.08485 0.00179
94.64178 540.00000 532.35015 0.00185
94.65179 514.00000 532.61611 0.00195
94.66178 549.00000 532.88174 0.00182
94.67178 517.00000 533.14766 0.00193
94.68179 537.00000 533.41371 0.00186
94.69179 500.00000 533.67922 0.00200
94.70178 500.00000 533.94406 0.00200
94.71178 542.00000 534.20865 0.00185
94.72179 507.00000 534.47292 0.00197
94.73179 535.00000 534.73624 0.00187
94.74178 507.00000 534.99858 0.00197
94.75179 535.00000 535.26066 0.00187
94.76179 553.00000 535.52168 0.00181
94.77179 504.00000 535.78189 0.00198
94.78178 505.00000 536.04102 0.00198
94.79179 534.00000 536.29987 0.00187
94.80179 555.00000 536.55766 0.00180
94.81179 532.00000 536.81469 0.00188
94.82178 521.00000 537.07072 0.00192
94.83179 561.00000 537.32656 0.00178
94.84179 510.00000 537.58147 0.00196
94.85179 558.00000 537.83575 0.00179
94.86179 516.00000 538.08942 0.00194
94.87179 488.00000 538.34250 0.00205
94.88179 519.00000 538.59503 0.00193
94.89179 566.00000 538.84700 0.00177
94.90179 537.00000 539.09843 0.00186
94.91179 558.00000 539.34931 0.00179
94.92179 536.00000 539.59961 0.00187
94.93179 587.00000 539.84931 0.00170
94.94179 526.00000 540.09834 0.00190
94.95179 534.00000 540.34666 0.00187
94.96179 536.00000 540.59416 0.00187
94.97179 515.00000 540.84077 0.00194
94.98179 523.00000 541.08634 0.00191
94.99179 533.00000 541.33076 0.00188
95.00179 504.00000 541.57386 0.00198
95.01180 570.00000 541.81570 0.00175
95.02179 535.00000 542.05537 0.00187
95.03179 530.00000 542.29337 0.00189
95.04179 565.00000 542.52923 0.00177
95.05180 531.00000 542.76291 0.00188
95.06179 532.00000 542.99346 0.00188
95.07179 553.00000 543.22126 0.00181
95.08179 544.00000 543.44578 0.00184
95.09180 537.00000 543.66690 0.00186
95.10179 531.00000 543.88362 0.00188
95.11179 544.00000 544.09622 0.00184
95.12180 553.00000 544.30432 0.00181
95.13180 523.00000 544.50710 0.00191
95.14179 545.00000 544.70417 0.00183
95.15179 553.00000 544.89551 0.00181
95.16180 570.00000 545.08066 0.00175
95.17180 504.00000 545.25883 0.00198
95.18179 546.00000 545.42960 0.00183
95.19180 554.00000 545.59300 0.00181
95.20180 518.00000 545.74809 0.00193
95.21180 540.00000 545.89460 0.00185
95.22179 513.00000 546.03193 0.00195
95.23180 529.00000 546.16004 0.00189
95.24180 559.00000 546.27810 0.00179
95.25180 544.00000 546.38582 0.00184
95.26180 534.00000 546.48278 0.00187
95.27180 522.00000 546.56857 0.00192
95.28180 530.00000 546.64282 0.00189
95.29180 535.00000 546.70518 0.00187
95.30180 558.00000 546.75529 0.00179
95.31180 534.00000 546.79284 0.00187
95.32180 542.00000 546.81756 0.00185
95.33180 526.00000 546.82918 0.00190
95.34180 490.00000 546.82749 0.00204
95.35180 498.00000 546.81229 0.00201
95.36180 540.00000 546.78344 0.00185
95.37180 535.00000 546.74081 0.00187
95.38180 534.00000 546.68434 0.00187
95.39180 529.00000 546.61398 0.00189
95.40180 527.00000 546.52973 0.00190
95.41180 535.00000 546.43165 0.00187
95.42180 537.00000 546.31982 0.00186
95.43180 547.00000 546.19436 0.00183
95.44180 563.00000 546.05544 0.00178
95.45181 551.00000 545.90310 0.00181
95.46180 524.00000 545.73808 0.00191
95.47180 505.00000 545.56016 0.00198
95.48180 506.00000 545.36983 0.00198
95.49181 563.00000 545.16723 0.00178
95.50180 550.00000 544.95337 0.00182
95.51180 528.00000 544.72803 0.00189
95.52180 509.00000 544.49185 0.00196
95.53181 526.00000 544.24506 0.00190
95.54180 543.00000 543.98890 0.00184
95.55180 526.00000 543.72312 0.00190
95.56181 524.00000 543.44820 0.00191
95.57181 543.00000 543.16525 0.00184
95.58180 530.00000 542.87485 0.00189
95.59180 525.00000 542.57696 0.00190
95.60181 542.00000 542.27212 0.00185
95.61181 557.00000 541.96154 0.00180
95.62180 533.00000 541.64580 0.00188
95.63181 541.00000 541.32451 0.00185
95.64181 533.00000 540.99921 0.00188
95.65181 520.00000 540.67015 0.00192
95.66180 524.00000 540.33823 0.00191
95.67181 540.00000 540.00299 0.00185
95.68181 490.00000 539.66599 0.00204
95.69181 531.00000 539.32743 0.00188
95.70181 535.00000 538.98784 0.00187
95.71181 578.00000 538.64772 0.00173
95.72181 541.00000 538.30757 0.00185
95.73181 551.00000 537.96788 0.00181
95.74181 532.00000 537.62911 0.00188
95.75181 538.00000 537.29171 0.00186
95.76181 542.00000 536.95612 0.00185
95.77181 577.00000 536.62276 0.00173
95.78181 556.00000 536.29202 0.00180
95.79181 510.00000 535.96429 0.00196
95.80181 537.00000 535.63993 0.00186
95.81181 505.00000 535.31928 0.00198
95.82181 503.00000 535.00269 0.00199
95.83181 505.00000 534.69045 0.00198
95.84181 528.00000 534.38287 0.00189
95.85181 522.00000 534.08022 0.00192
95.86181 482.00000 533.78275 0.00207
95.87181 508.00000 533.49072 0.00197
95.88181 508.00000 533.20434 0.00197
95.89182 522.00000 532.92356 0.00192
95.90181 526.00000 532.64938 0.00190
95.91181 533.00000 532.38117 0.00188
95.92181 541.00000 532.11936 0.00185
95.93182 525.00000 531.86384 0.00190
95.94181 514.00000 531.61551 0.00195
95.95181 521.00000 531.37372 0.00192
95.96181 549.00000 531.13884 0.00182
95.97182 547.00000 530.91072 0.00183
95.98181 523.00000 530.69012 0.00191
95.99181 536.00000 530.47643 0.00187
96.00182 541.00000 530.26972 0.00185
96.01182 565.00000 530.07043 0.00177
96.02181 554.00000 529.87858 0.00181
96.03181 535.00000 529.69379 0.00187
96.04182 524.00000 529.51608 0.00191
96.05182 525.00000 529.34579 0.00190
96.06181 537.00000 529.18289 0.00186
96.07182 513.00000 529.02685 0.00195
96.08182 514.00000 528.87812 0.00195
96.09182 528.00000 528.73647 0.00189
96.10181 485.00000 528.60196 0.00206
96.11182 494.00000 528.47412 0.00202
96.12182 554.00000 528.35326 0.00181
96.13182 537.00000 528.23913 0.00186
96.14182 528.00000 528.13162 0.00189
96.15182 535.00000 528.03060 0.00187
96.16182 542.00000 527.93593 0.00185
96.17182 573.00000 527.84742 0.00175
96.18182 518.00000 527.76484 0.00193
96.19182 481.00000 527.68782 0.00208
96.20182 517.00000 527.61679 0.00193
96.21182 502.00000 527.55171 0.00199
96.22182 551.00000 527.49221 0.00181
96.23182 538.00000 527.43800 0.00186
96.24182 542.00000 527.38883 0.00185
96.25182 465.00000 527.34448 0.00215
96.26182 519.00000 527.30470 0.00193
96.27182 510.00000 527.26921 0.00196
96.28182 505.00000 527.23771 0.00198
96.29182 545.00000 527.20983 0.00183
96.30182 496.00000 527.18514 0.00202
96.31182 526.00000 527.16305 0.00190
96.32182 515.00000 527.14256 0.00194
96.33183 524.00000 527.12069 0.00191
96.34182 508.00000 527.09320 0.00197
96.35182 546.00000 527.07694 0.00183
96.36182 535.00000 527.06903 0.00187
96.37183 527.00000 527.06553 0.00190
96.38182 565.00000 527.06429 0.00177
96.39182 544.00000 527.06445 0.00184
96.40182 543.00000 527.06535 0.00184
96.41183 542.00000 527.06807 0.00185
96.42182 557.00000 527.07285 0.00180
96.43182 501.00000 527.07907 0.00200
96.44183 528.00000 527.08628 0.00189
96.45183 549.00000 527.09418 0.00182
96.46182 570.00000 527.10257 0.00175
96.47182 483.00000 527.11129 0.00207
96.48183 518.00000 527.12019 0.00193
96.49183 553.00000 527.12909 0.00181
96.50182 512.00000 527.13783 0.00195
96.51183 526.00000 527.14629 0.00190
96.52183 521.00000 527.15430 0.00192
96.53183 511.00000 527.16172 0.00196
96.54182 519.00000 527.16841 0.00193
96.55183 535.00000 527.17425 0.00187
96.56183 522.00000 527.17909 0.00192
96.57183 553.00000 527.18280 0.00181
96.58183 516.00000 527.18525 0.00194
96.59183 550.00000 527.18632 0.00182
96.60183 525.00000 527.18589 0.00190
96.61183 556.00000 527.18383 0.00180
96.62183 549.00000 527.18002 0.00182
96.63183 525.00000 527.17434 0.00190
96.64183 546.00000 527.16669 0.00183
96.65183 503.00000 527.15695 0.00199
96.66183 481.00000 527.14501 0.00208
96.67183 509.00000 527.13077 0.00196
96.68183 509.00000 527.11413 0.00196
96.69183 501.00000 527.09501 0.00200
96.70183 537.00000 527.07330 0.00186
96.71183 575.00000 527.04894 0.00174
96.72183 569.00000 527.02185 0.00176
96.73183 512.00000 526.99197 0.00195
96.74183 493.00000 526.95923 0.00203
96.75183 521.00000 526.92360 0.00192
96.76183 528.00000 526.88503 0.00189
96.77184 505.00000 526.84345 0.00198
96.78183 537.00000 526.79898 0.00186
96.79183 528.00000 526.75148 0.00189
96.80183 516.00000 526.70099 0.00194
96.81184 530.00000 526.64748 0.00189
96.82183 548.00000 526.59113 0.00182
96.83183 504.00000 526.53182 0.00198
96.84184 524.00000 526.46957 0.00191
96.85184 565.00000 526.40457 0.00177
96.86183 539.00000 526.33688 0.00186
96.87183 548.00000 526.26645 0.00182
96.88184 479.00000 526.19333 0.00209
96.89184 499.00000 526.11776 0.00200
96.90183 557.00000 526.03984 0.00180
96.91183 516.00000 525.95951 0.00194
96.92184 500.00000 525.87686 0.00200
96.93184 513.00000 525.79216 0.00195
96.94183 506.00000 525.70553 0.00198
96.95184 523.00000 525.61681 0.00191
96.96184 539.00000 525.52638 0.00186
96.97184 545.00000 525.43426 0.00183
96.98183 512.00000 525.34066 0.00195
96.99184 542.00000 525.24542 0.00185
97.00184 497.00000 525.14894 0.00201
97.01184 486.00000 525.05124 0.00206
97.02184 548.00000 524.95244 0.00182
97.03184 531.00000 524.85265 0.00188
97.04184 558.00000 524.75199 0.00179
97.05184 487.00000 524.65059 0.00205
97.06184 528.00000 524.54856 0.00189
97.07184 514.00000 524.44603 0.00195
97.08184 502.00000 524.34311 0.00199
97.09184 556.00000 524.23993 0.00180
97.10184 521.00000 524.13662 0.00192
97.11184 523.00000 524.03331 0.00191
97.12184 512.00000 523.93012 0.00195
97.13184 493.00000 523.82718 0.00203
97.14184 576.00000 523.72464 0.00174
97.15184 517.00000 523.62263 0.00193
97.16184 499.00000 523.52129 0.00200
97.17184 508.00000 523.42077 0.00197
97.18184 546.00000 523.32120 0.00183
97.19184 572.00000 523.22274 0.00175
97.20184 523.00000 523.12555 0.00191
97.21185 547.00000 523.02967 0.00183
97.22184 564.00000 522.93555 0.00177
97.23184 536.00000 522.84306 0.00187
97.24184 541.00000 522.75245 0.00185
97.25185 543.00000 522.66379 0.00184
97.26184 528.00000 522.57749 0.00189
97.27184 536.00000 522.49346 0.00187
97.28185 534.00000 522.41186 0.00187
97.29185 488.00000 522.33300 0.00205
97.30184 533.00000 522.25703 0.00188
97.31184 554.00000 522.18394 0.00181
97.32185 526.00000 522.11389 0.00190
97.33185 528.00000 522.04715 0.00189
97.34184 519.00000 521.98386 0.00193
97.35184 527.00000 521.92403 0.00190
97.36185 509.00000 521.86778 0.00196
97.37185 542.00000 521.81537 0.00185
97.38184 523.00000 521.76688 0.00191
97.39185 533.00000 521.72231 0.00188
97.40185 584.00000 521.68188 0.00171
97.41185 513.00000 521.64565 0.00195
97.42184 541.00000 521.61374 0.00185
97.43185 572.00000 521.58616 0.00175
97.44185 526.00000 521.56306 0.00190
97.45185 553.00000 521.54450 0.00181
97.46185 540.00000 521.53053 0.00185
97.47185 544.00000 521.52121 0.00184
97.48185 553.00000 521.51660 0.00181
97.49185 524.00000 521.51674 0.00191
97.50185 526.00000 521.52167 0.00190
97.51185 495.00000 521.53142 0.00202
97.52185 526.00000 521.54601 0.00190
97.53185 551.00000 521.56546 0.00181
97.54185 569.00000 521.58978 0.00176
97.55185 539.00000 521.61897 0.00186
97.56185 522.00000 521.65303 0.00192
97.57185 509.00000 521.69195 0.00196
97.58185 551.00000 521.73572 0.00181
97.59185 543.00000 521.78430 0.00184
97.60185 530.00000 521.83767 0.00189
97.61185 527.00000 521.89579 0.00190
97.62185 525.00000 521.95862 0.00190
97.63185 463.00000 522.02610 0.00216
97.64185 509.00000 522.09818 0.00196
97.65186 533.00000 522.17488 0.00188
97.66185 558.00000 522.25588 0.00179
97.67185 503.00000 522.34134 0.00199
97.68185 575.00000 522.43110 0.00174
97.69186 529.00000 522.52516 0.00189
97.70185 531.00000 522.62313 0.00188
97.71185 518.00000 522.72519 0.00193
97.72186 562.00000 522.83125 0.00178
97.73186 509.00000 522.94095 0.00196
97.74185 522.00000 523.05416 0.00192
97.75185 537.00000 523.17097 0.00186
97.76186 530.00000 523.29124 0.00189
97.77186 507.00000 523.41457 0.00197
97.78185 510.00000 523.54079 0.00196
97.79185 532.00000 523.66997 0.00188
97.80186 553.00000 523.80196 0.00181
97.81186 535.00000 523.93628 0.00187
97.82185 535.00000 524.07274 0.00187
97.83186 505.00000 524.21153 0.00198
97.84186 514.00000 524.35204 0.00195
97.85186 579.00000 524.49417 0.00173
97.86185 550.00000 524.63755 0.00182
97.87186 490.00000 524.78236 0.00204
97.88186 514.00000 524.92793 0.00195
97.89186 548.00000 525.07413 0.00182
97.90186 553.00000 525.22071 0.00181
97.91186 494.00000 525.36738 0.00202
97.92186 552.00000 525.51384 0.00181
97.93186 510.00000 525.65977 0.00196
97.94186 523.00000 525.80484 0.00191
97.95186 529.00000 525.94866 0.00189
97.96186 524.00000 526.09081 0.00191
97.97186 494.00000 526.23075 0.00202
97.98186 502.00000 526.36742 0.00199
97.99186 522.00000 526.49851 0.00192
98.00186 526.00000 526.62628 0.00190
98.01186 551.00000 526.75514 0.00181
98.02186 497.00000 526.88262 0.00201
98.03186 513.00000 527.00736 0.00195
98.04186 515.00000 527.12851 0.00194
98.05186 515.00000 527.24562 0.00194
98.06186 487.00000 527.35839 0.00205
98.07186 501.00000 527.46655 0.00200
98.08186 517.00000 527.56986 0.00193
98.09187 553.00000 527.66815 0.00181
98.10186 497.00000 527.76090 0.00201
98.11186 526.00000 527.84817 0.00190
98.12186 548.00000 527.92962 0.00182
98.13187 575.00000 528.00512 0.00174
98.14186 531.00000 528.07423 0.00188
98.15186 552.00000 528.13689 0.00181
98.16187 510.00000 528.19259 0.00196
98.17187 552.00000 528.24022 0.00181
98.18186 543.00000 528.28109 0.00184
98.19186 548.00000 528.31721 0.00182
98.20187 505.00000 528.34762 0.00198
98.21187 529.00000 528.37169 0.00189
98.22186 526.00000 528.38920 0.00190
98.23186 523.00000 528.40015 0.00191
98.24187 549.00000 528.40457 0.00182
98.25187 544.00000 528.40254 0.00184
98.26186 521.00000 528.39415 0.00192
98.27187 531.00000 528.37949 0.00188
98.28187 513.00000 528.35873 0.00195
98.29187 487.00000 528.33199 0.00205
98.30186 525.00000 528.29946 0.00190
98.31187 545.00000 528.26121 0.00183
98.32187 518.00000 528.21748 0.00193
98.33187 496.00000 528.16835 0.00202
98.34187 511.00000 528.11376 0.00196
98.35187 544.00000 528.05395 0.00184
98.36187 505.00000 527.99038 0.00198
98.37187 499.00000 527.92301 0.00200
98.38187 496.00000 527.85177 0.00202
98.39187 535.00000 527.77678 0.00187
98.40187 513.00000 527.69826 0.00195
98.41187 529.00000 527.61648 0.00189
98.42187 518.00000 527.53168 0.00193
98.43187 501.00000 527.44411 0.00200
98.44187 535.00000 527.35403 0.00187
98.45187 520.00000 527.26169 0.00192
98.46187 528.00000 527.16733 0.00189
98.47187 514.00000 527.07118 0.00195
98.48187 527.00000 526.97346 0.00190
98.49187 510.00000 526.87433 0.00196
98.50187 548.00000 526.77394 0.00182
98.51187 561.00000 526.67235 0.00178
98.52187 532.00000 526.56958 0.00188
98.53188 509.00000 526.46538 0.00196
98.54187 530.00000 526.35957 0.00189
98.55187 528.00000 526.24951 0.00189
98.56187 536.00000 526.12961 0.00187
98.57188 562.00000 526.01653 0.00178
98.58187 568.00000 525.91079 0.00176
98.59187 549.00000 525.80853 0.00182
98.60188 528.00000 525.70800 0.00189
98.61188 531.00000 525.60860 0.00188
98.62187 541.00000 525.51033 0.00185
98.63187 544.00000 525.41311 0.00184
98.64188 505.00000 525.31706 0.00198
98.65188 546.00000 525.22247 0.00183
98.66187 519.00000 525.12947 0.00193
98.67188 518.00000 525.03786 0.00193
98.68188 549.00000 524.94803 0.00182
98.69188 520.00000 524.85996 0.00192
98.70187 525.00000 524.77382 0.00190
98.71188 532.00000 524.68945 0.00188
98.72188 550.00000 524.60715 0.00182
98.73188 522.00000 524.52693 0.00192
98.74187 540.00000 524.44890 0.00185
98.75188 537.00000 524.37291 0.00186
98.76188 544.00000 524.29923 0.00184
98.77188 542.00000 524.22784 0.00185
98.78188 529.00000 524.15878 0.00189
98.79188 520.00000 524.09210 0.00192
98.80188 506.00000 524.02782 0.00198
98.81188 519.00000 523.96599 0.00193
98.82188 553.00000 523.90664 0.00181
98.83188 517.00000 523.84978 0.00193
98.84188 495.00000 523.79546 0.00202
98.85188 509.00000 523.74367 0.00196
98.86188 537.00000 523.69438 0.00186
98.87188 501.00000 523.64752 0.00200
98.88188 508.00000 523.60297 0.00197
98.89188 509.00000 523.56055 0.00196
98.90188 507.00000 523.51998 0.00197
98.91188 498.00000 523.48077 0.00201
98.92188 539.00000 523.44196 0.00186
98.93188 522.00000 523.40057 0.00192
98.94188 498.00000 523.35122 0.00201
98.95188 520.00000 523.30794 0.00192
98.96188 543.00000 523.27774 0.00184
98.97189 528.00000 523.25535 0.00189
98.98188 525.00000 523.23754 0.00190
98.99188 553.00000 523.22266 0.00181
99.00188 544.00000 523.21044 0.00184
99.01189 556.00000 523.20085 0.00180
99.02188 528.00000 523.19391 0.00189
99.03188 517.00000 523.18958 0.00193
99.04189 563.00000 523.18787 0.00178
99.05189 508.00000 523.18878 0.00197
99.06188 521.00000 523.19228 0.00192
99.07188 503.00000 523.19837 0.00199
99.08189 517.00000 523.20705 0.00193
99.09189 571.00000 523.21829 0.00175
99.10188 486.00000 523.23207 0.00206
99.11189 534.00000 523.24843 0.00187
99.12189 510.00000 523.26731 0.00196
99.13189 501.00000 523.28871 0.00200
99.14188 504.00000 523.31259 0.00198
99.15189 527.00000 523.33901 0.00190
99.16189 548.00000 523.36789 0.00182
99.17189 555.00000 523.39923 0.00180
99.18188 559.00000 523.43299 0.00179
99.19189 537.00000 523.46925 0.00186
99.20189 518.00000 523.50790 0.00193
99.21189 522.00000 523.54895 0.00192
99.22189 488.00000 523.59240 0.00205
99.23189 525.00000 523.63821 0.00190
99.24189 531.00000 523.68638 0.00188
99.25189 520.00000 523.73690 0.00192
99.26189 539.00000 523.78973 0.00186
99.27189 537.00000 523.84488 0.00186
99.28189 522.00000 523.90231 0.00192
99.29189 486.00000 523.96201 0.00206
99.30189 573.00000 524.02396 0.00175
99.31189 529.00000 524.08815 0.00189
99.32189 495.00000 524.15456 0.00202
99.33189 506.00000 524.22316 0.00198
99.34189 541.00000 524.29394 0.00185
99.35189 525.00000 524.36687 0.00190
99.36189 505.00000 524.44194 0.00198
99.37189 530.00000 524.51913 0.00189
99.38189 580.00000 524.59841 0.00172
99.39189 534.00000 524.67976 0.00187
99.40189 556.00000 524.76317 0.00180
99.41190 547.00000 524.84868 0.00183
99.42189 493.00000 524.93602 0.00203
99.43189 527.00000 525.02543 0.00190
99.44189 515.00000 525.11679 0.00194
99.45190 543.00000 525.21017 0.00184
99.46189 542.00000 525.30527 0.00185
99.47189 478.00000 525.40233 0.00209
99.48190 491.00000 525.50133 0.00204
99.49190 516.00000 525.60205 0.00194
99.50189 497.00000 525.70444 0.00201
99.51189 532.00000 525.80870 0.00188
99.52190 488.00000 525.91478 0.00205
99.53190 516.00000 526.02244 0.00194
99.54189 529.00000 526.13164 0.00189
99.55190 524.00000 526.24268 0.00191
99.56190 538.00000 526.35518 0.00186
99.57190 535.00000 526.46923 0.00187
99.58189 509.00000 526.58467 0.00196
99.59190 532.00000 526.70179 0.00188
99.60190 536.00000 526.82023 0.00187
99.61190 531.00000 526.94004 0.00188
99.62189 513.00000 527.06106 0.00195
99.63190 527.00000 527.18361 0.00190
99.64190 514.00000 527.30728 0.00195
99.65190 545.00000 527.43215 0.00183
99.66190 520.00000 527.55816 0.00192
99.67190 533.00000 527.68527 0.00188
99.68190 500.00000 527.81342 0.00200
99.69190 526.00000 527.94257 0.00190
99.70190 497.00000 528.07265 0.00201
99.71190 546.00000 528.20362 0.00183
99.72190 502.00000 528.33542 0.00199
99.73190 546.00000 528.46799 0.00183
99.74190 524.00000 528.60128 0.00191
99.75190 521.00000 528.73523 0.00192
99.76190 522.00000 528.86978 0.00192
99.77190 546.00000 529.00487 0.00183
99.78190 503.00000 529.14045 0.00199
99.79190 521.00000 529.27645 0.00192
99.80190 503.00000 529.41280 0.00199
99.81190 510.00000 529.54946 0.00196
99.82190 539.00000 529.68636 0.00186
99.83190 562.00000 529.82344 0.00178
99.84190 529.00000 529.96063 0.00189
99.85191 566.00000 530.09802 0.00177
99.86190 564.00000 530.23512 0.00177
99.87190 549.00000 530.37230 0.00182
99.88190 494.00000 530.50934 0.00202
99.89191 548.00000 530.64632 0.00182
99.90190 518.00000 530.78277 0.00193
99.91190 549.00000 530.91905 0.00182
99.92191 494.00000 531.05508 0.00202
99.93191 522.00000 531.19053 0.00192
99.94190 544.00000 531.32535 0.00184
99.95000 558.00000 531.43432 0.00179
99.96000 547.00000 531.56821 0.00183
99.97000 522.00000 531.70143 0.00192
99.98000 544.00000 531.83391 0.00184
99.99191 550.00000 531.99058 0.00182

_cod_database_fobs_code 2108752
