#------------------------------------------------------------------------------
#$Date: 2020-08-14 07:36:26 +0300 (Fri, 14 Aug 2020) $
#$Revision: 255312 $
#$URL: file:///home/coder/svn-repositories/cod/cif/2/10/86/2108650.cif $
#------------------------------------------------------------------------------
#
# This file is available in the Crystallography Open Database (COD),
# http://www.crystallography.net/. The original data for this entry
# were provided by IUCr Journals, http://journals.iucr.org/.
#
# The file may be used within the scientific community so long as
# proper attribution is given to the journal article from which the
# data were obtained.
#
data_2108650
loop_
_publ_author_name
'Fortes, A. D.'
'Ponsonby, J.'
'Kirichek, O.'
'Garc\'ia-Sakai, V.'
_publ_section_title
;
 On the crystal structures and phase transitions of hydrates in the binary
 dimethyl sulfoxide--water system
;
_journal_issue                   5
_journal_name_full               'Acta Crystallographica Section B'
_journal_page_first
;
;
_journal_paper_doi               10.1107/S2052520620008999
_journal_volume                  76
_journal_year                    2020
_chemical_formula_moiety         'C2 D6 O S, 2(D2 O)'
_chemical_formula_sum            'C2 D10 O3 S'
_chemical_formula_weight         124.22
_chemical_melting_point          198
_chemical_name_common            'dimethyl sulfoxide dihydrate'
_chemical_name_systematic        'hexadeutero-dimethyl sulfoxide dideuterate'
_space_group_crystal_system      monoclinic
_space_group_IT_number           14
_space_group_name_Hall           '-P 2ybc'
_space_group_name_H-M_alt        'P 1 21/c 1'
_audit_creation_date             2020-04-28T17:49
_audit_creation_method           'from EXP file using GSAS2CIF'
_audit_update_record
' 2020-04-28T17:49  Initial CIF as created by GSAS2CIF'
_cell_angle_alpha                90.0
_cell_angle_beta                 105.9688(5)
_cell_angle_gamma                90.0
_cell_formula_units_Z            4
_cell_length_a                   6.30238(4)
_cell_length_b                   9.05654(5)
_cell_length_c                   11.22025(10)
_cell_measurement_temperature    175
_cell_volume                     615.714(8)
_computing_data_collection       'HRPD DAE3, IBEX'
_computing_data_reduction
'Mantid (Arnold <i>et al</i>., 2014: Mantid, 2013)'
_computing_molecular_graphics    'Diamond (Putz & Brandenburg, 2006)'
_computing_publication_material  'publCIF (Westrip, 2010)'
_computing_structure_refinement  GSAS
_computing_structure_solution    'FOX Free Objects for Crystallography'
_diffrn_ambient_pressure         10
_diffrn_ambient_temperature      175
_diffrn_measurement_device_type
'HRPD, High Resolution Neutron Powder Diffractometer'
_diffrn_radiation_probe          neutron
_diffrn_radiation_type           'white beam'
_diffrn_radiation_wavelength     0.5-8.2
_diffrn_source                   'spallation source'
_diffrn_source_type              'ISIS TS1 beamline HRPD'
_exptl_absorpt_correction_T_max  0.72384
_exptl_absorpt_correction_T_min  0.33809
_exptl_absorpt_process_details
;   GSAS Absorption/surface roughness correction: function number 1
 Linear absorption correction
Term =     0.20543    
Correction is refined.
;
_exptl_crystal_colour            Colourless
_exptl_crystal_density_diffrn    1.3401
_exptl_crystal_density_method    'not measured'
_exptl_crystal_recrystallization_method
'Devitrification of LN2-quenched amorphous solid'
_pd_block_id                     2020-04-28T17:49|DMSO_DIHYDRATE|Fortes|HRPD
_pd_calc_method                  'Rietveld Refinement'
_pd_char_colour                  colourless
_pd_char_particle_morphology     'fine powder'
_pd_instr_dist_spec/detc         965
_pd_instr_dist_src/spec          95000
_pd_instr_location
;
High Resolution Powder Diffractometer, ISIS neutron spallation source,
 Rutherford Appleton Laboratory, Oxfordshire, U.K.
;
_pd_meas_2theta_fixed            168.33
_pd_meas_number_of_points        4610
_pd_meas_scan_method             tof
_pd_phase_name                   'DMSO-d6 dideuterate'
_pd_prep_pressure                100
_pd_prep_temperature             80
_pd_proc_info_data_reduction
'Incident-beam normalisation and instrumental efficiency correction'
_pd_proc_info_datetime           2020-04-28T17:49:31
_pd_proc_info_excluded_regions
;
Between 45.952-46.243 ms and 59.333-59.708 ms to remove two small prompt-pulse
 artefacts.
;
_pd_proc_ls_background_function
;   GSAS Background function number 1 with 10 terms.
 Shifted Chebyshev function of 1st kind
      1:    2.56714     2:  -0.253090     3:   4.264570E-02 4:  -0.164410    
      5:  -6.132960E-02 6:  -3.737720E-02 7:  -1.417520E-02 8:  -2.580260E-02
      9:  -2.162040E-0210:   9.417600E-03
;
_pd_proc_ls_peak_cutoff          0.00050
_pd_proc_ls_profile_function
;
 TOF Profile function number 3 with  21 terms
 Profile coefficients for exponential pseudovoigt
  convolution Von Dreele, 1990 (unpublished)
 (\a) = 0.2466, (\b~0~) = 0.026586, (\b~1~) = 0.007428,
 (\s~0~) = 0, (\s~1~) = 799.1, (\s~2~) = -34.3,
 (\g~0~) = 0, (\g~1~) = 29.09, (\g~2~) = 0,
 (\g~2s~) = 0, (\g~1e~) = 0, (\g~2e~) = 0,
 (\e~i~) = 0, (\e~a~) = 0, (\e~A~) = 0,
 (\g~11~) = 0.976, (\g~22~) = 0.192, (\g~33~) = 0.251,
 (\g~12~) = -0.322, (\g~13~) = 0.345, (\g~23~) = 0.012.
 Peak tails are ignored  where the intensity is below 0.0005 times the peak
   Aniso. broadening axis   0.0   0.0   1.0
;
_pd_proc_ls_prof_R_factor        0.0140
_pd_proc_ls_prof_wR_expected     0.0077
_pd_proc_ls_prof_wR_factor       0.0129
_pd_proc_number_of_points        4610
_pd_spec_mounting
;
Aluminium-framed slab can with vanadium windows, shielded with Gd foil
;
_pd_spec_mount_mode              reflection
_pd_spec_size_axial              18
_pd_spec_size_equat              23
_pd_spec_size_thick              15
_refine_ls_goodness_of_fit_all   1.70
_refine_ls_matrix_type           full
_refine_ls_number_parameters     163
_refine_ls_number_restraints     0
_refine_ls_R_Fsqd_factor         0.07350
_refine_ls_shift/su_max          0.02
_refine_ls_shift/su_mean         0.00
_reflns_d_resolution_high        0.812
_reflns_d_resolution_low         2.548
_reflns_limit_h_max              7
_reflns_limit_h_min              0
_reflns_limit_k_max              11
_reflns_limit_k_min              0
_reflns_limit_l_max              13
_reflns_limit_l_min              -14
_reflns_number_total             1143
_cod_data_source_file            bm5129sup1.cif
_cod_data_source_block           DMSO_DIHYDRATE
_cod_depositor_comments
;
The following automatic conversions were performed:

data item '_geom_angle_publ_flag' value 'N' was changed to 'n' in
accordance with the
/home/data/users/saulius/crontab/automatic-downloads/rss-feeds/IUCr/lib/dictionaries/cif_core.dic
dictionary named 'cif_core.dic' version 2.4.2 last updated on
2011-04-26 (17 times).

data item '_geom_bond_publ_flag' value 'N' was changed to 'n' in
accordance with the
/home/data/users/saulius/crontab/automatic-downloads/rss-feeds/IUCr/lib/dictionaries/cif_core.dic
dictionary named 'cif_core.dic' version 2.4.2 last updated on
2011-04-26 (62 times).

Automatic conversion script
Id: cif_fix_values 7556 2019-12-06 15:28:31Z antanas 
;
_cod_original_cell_volume        615.713(5)
_cod_original_sg_symbol_H-M      'P 21/c'
_cod_database_code               2108650
loop_
_symmetry_equiv_pos_site_id
_symmetry_equiv_pos_as_xyz
1 +x,+y,+z
2 -x,+y+1/2,-z+1/2
-1 -x,-y,-z
-2 +x,-y+1/2,+z+1/2
loop_
_atom_site_aniso_label
_atom_site_aniso_U_11
_atom_site_aniso_U_12
_atom_site_aniso_U_13
_atom_site_aniso_U_22
_atom_site_aniso_U_23
_atom_site_aniso_U_33
O1 0.0420(24) 0.0090(17) 0.0218(17) 0.0452(24) 0.0226(19) 0.0583(31)
S 0.049(5) 0.018(4) 0.0050(34) 0.039(4) -0.0056(33) 0.031(5)
C1 0.0508(33) 0.0445(30) 0.0267(32) 0.099(4) 0.0060(32) 0.069(5)
C2 0.088(4) 0.0213(25) 0.0283(25) 0.0459(25) 0.0187(23) 0.0317(27)
D1 0.152(5) 0.1012(33) 0.029(4) 0.113(4) 0.0272(29) 0.072(5)
D2 0.094(5) 0.043(4) 0.063(4) 0.148(5) -0.005(4) 0.122(6)
D3 0.119(5) 0.0216(29) 0.0243(32) 0.080(4) -0.0112(24) 0.072(4)
D4 0.145(5) 0.0134(31) 0.0292(25) 0.0876(35) 0.0199(29) 0.0451(31)
D5 0.144(5) 0.0298(30) 0.090(4) 0.0793(33) 0.0118(29) 0.114(5)
D6 0.077(4) -0.0139(22) 0.0262(27) 0.0780(30) -0.0005(25) 0.079(5)
Ow1 0.0390(31) 0.0205(24) 0.0044(24) 0.0500(33) 0.0032(25) 0.0486(34)
Dw1a 0.0404(25) 0.0088(20) 0.0096(22) 0.0481(22) 0.0027(17) 0.0634(33)
Dw1b 0.0606(30) 0.0111(18) 0.0290(19) 0.0386(23) 0.0064(18) 0.0671(32)
Ow2 0.0572(30) -0.0041(19) 0.0146(22) 0.0391(25) -0.0031(20) 0.0337(30)
Dw2a 0.0675(27) 0.0014(15) 0.0291(20) 0.0482(23) -0.0040(16) 0.0464(28)
Dw2b 0.0562(26) -0.0047(16) 0.0133(16) 0.0414(25) -0.0074(21) 0.0433(28)
loop_
_atom_site_type_symbol
_atom_site_label
_atom_site_fract_x
_atom_site_fract_y
_atom_site_fract_z
_atom_site_occupancy
_atom_site_thermal_displace_type
_atom_site_U_iso_or_equiv
_atom_site_symmetry_multiplicity
O O1 0.4258(5) 0.5863(4) 0.1208(4) 1.0 Uani 0.04692 4
S S 0.3045(12) 0.6746(7) 0.0096(6) 1.0 Uani 0.04049 4
C C1 0.1969(10) 0.8324(7) 0.0687(6) 1.0 Uani 0.07075 4
C C2 0.5138(8) 0.7667(5) -0.0424(5) 1.0 Uani 0.0528 4
D D1 0.1179(10) 0.8986(6) -0.0146(5) 1.0 Uani 0.11269 4
D D2 0.0711(12) 0.7914(7) 0.1074(6) 1.0 Uani 0.11479 4
D D3 0.3354(13) 0.8852(6) 0.1337(5) 1.0 Uani 0.09068 4
D D4 0.4264(9) 0.8357(5) -0.1202(5) 1.0 Uani 0.09182 4
D D5 0.6072(9) 0.6835(5) -0.0746(6) 1.0 Uani 0.10181 4
D D6 0.6143(7) 0.8318(5) 0.0360(6) 1.0 Uani 0.07711 4
O Ow1 0.8525(10) 0.6553(5) 0.2641(5) 1.0 Uani 0.04738 4
D Dw1a 0.7070(8) 0.6284(4) 0.2129(4) 1.0 Uani 0.05154 4
D Dw1b 0.9542(6) 0.5827(4) 0.25838(35) 1.0 Uani 0.05317 4
O Ow2 0.1825(7) 0.4601(6) 0.2634(4) 1.0 Uani 0.0429 4
D Dw2a 0.2700(6) 0.4962(4) 0.2107(4) 1.0 Uani 0.05134 4
D Dw2b 0.1583(6) 0.3560(4) 0.24886(34) 1.0 Uani 0.04706 4
loop_
_atom_type_symbol
_atom_type_number_in_cell
_atom_type_scat_length_neutron
_atom_type_scat_source
O 12.0 0.5803 International_Tables_Vol_C
S 4.0 0.2847 International_Tables_Vol_C
C 8.0 0.6646 International_Tables_Vol_C
D 40.0 0.6671 International_Tables_Vol_C
loop_
_geom_angle_atom_site_label_1
_geom_angle_atom_site_label_2
_geom_angle_atom_site_label_3
_geom_angle
_geom_angle_site_symmetry_1
_geom_angle_site_symmetry_2
_geom_angle_site_symmetry_3
_geom_angle_publ_flag
O1 S C1 106.0(5) 1_555 . 1_555 n
O1 S C2 105.5(5) 1_555 . 1_555 n
C1 S C2 97.9(4) 1_555 . 1_555 n
S C1 D1 104.4(5) 1_555 . 1_555 n
S C1 D2 105.8(6) 1_555 . 1_555 n
S C1 D3 106.6(5) 1_555 . 1_555 n
D1 C1 D2 108.6(7) 1_555 . 1_555 n
D1 C1 D3 115.0(8) 1_555 . 1_555 n
D2 C1 D3 115.5(9) 1_555 . 1_555 n
S C2 D4 105.9(5) 1_555 . 1_555 n
S C2 D5 107.6(5) 1_555 . 1_555 n
S C2 D6 107.7(4) 1_555 . 1_555 n
D4 C2 D5 109.5(6) 1_555 . 1_555 n
D4 C2 D6 112.6(5) 1_555 . 1_555 n
D5 C2 D6 113.2(6) 1_555 . 1_555 n
Dw1a Ow1 Dw1b 109.7(6) 1_555 . 1_555 n
Dw2a Ow2 Dw2b 108.4(5) 1_555 . 1_555 n
loop_
_geom_bond_atom_site_label_1
_geom_bond_atom_site_label_2
_geom_bond_distance
_geom_bond_site_symmetry_1
_geom_bond_site_symmetry_2
_geom_bond_publ_flag
O1 S 1.501(8) . 1_555 n
O1 Dw1a 1.830(7) . 1_555 n
O1 Dw2a 1.787(6) . 1_555 n
S O1 1.501(8) . 1_555 n
S C1 1.787(8) . 1_555 n
S C2 1.788(9) . 1_555 n
S D1 2.323(8) . 1_555 n
S D2 2.318(9) . 1_555 n
S D3 2.338(8) . 1_555 n
S D4 2.336(8) . 1_555 n
S D5 2.352(9) . 1_555 n
S D6 2.369(9) . 1_555 n
C1 S 1.787(8) . 1_555 n
C1 D1 1.107(6) . 1_555 n
C1 D2 1.070(7) . 1_555 n
C1 D3 1.082(6) . 1_555 n
C2 S 1.788(9) . 1_555 n
C2 D4 1.092(5) . 1_555 n
C2 D5 1.079(5) . 1_555 n
C2 D6 1.102(5) . 1_555 n
D1 S 2.323(8) . 1_555 n
D1 C1 1.107(6) . 1_555 n
D1 D2 1.768(9) . 1_555 n
D1 D3 1.846(8) . 1_555 n
D2 S 2.318(9) . 1_555 n
D2 C1 1.070(7) . 1_555 n
D2 D1 1.768(9) . 1_555 n
D2 D3 1.820(10) . 1_555 n
D3 S 2.338(8) . 1_555 n
D3 C1 1.082(6) . 1_555 n
D3 D1 1.846(8) . 1_555 n
D3 D2 1.820(10) . 1_555 n
D4 S 2.336(8) . 1_555 n
D4 C2 1.092(5) . 1_555 n
D4 D5 1.772(7) . 1_555 n
D4 D6 1.826(8) . 1_555 n
D5 S 2.352(9) . 1_555 n
D5 C2 1.079(5) . 1_555 n
D5 D4 1.772(7) . 1_555 n
D5 D6 1.821(8) . 1_555 n
D6 S 2.369(9) . 1_555 n
D6 C2 1.102(5) . 1_555 n
D6 D4 1.826(8) . 1_555 n
D6 D5 1.821(8) . 1_555 n
Ow1 Dw1a 0.970(5) . 1_555 n
Ow1 Dw1b 0.932(4) . 1_555 n
Ow1 Dw2b 1.823(6) . 2_655 n
Dw1a O1 1.830(7) . 1_555 n
Dw1a Ow1 0.970(5) . 1_555 n
Dw1a Dw1b 1.556(5) . 1_555 n
Dw1b Ow1 0.932(4) . 1_555 n
Dw1b Dw1a 1.556(5) . 1_555 n
Dw1b Ow2 1.806(6) . 1_655 n
Ow2 Dw1b 1.806(6) . 1_455 n
Ow2 Dw2a 0.970(4) . 1_555 n
Ow2 Dw2b 0.961(4) . 1_555 n
Dw2a O1 1.787(6) . 1_555 n
Dw2a Ow2 0.970(4) . 1_555 n
Dw2a Dw2b 1.567(5) . 1_555 n
Dw2b Ow1 1.823(6) . 2_645 n
Dw2b Ow2 0.961(4) . 1_555 n
Dw2b Dw2a 1.567(5) . 1_555 n
loop_
_geom_hbond_atom_site_label_D
_geom_hbond_atom_site_label_H
_geom_hbond_atom_site_label_A
_geom_hbond_distance_DH
_geom_hbond_distance_HA
_geom_hbond_distance_DA
_geom_hbond_angle_DHA
_geom_hbond_site_symmetry_H
_geom_hbond_site_symmetry_A
_geom_hbond_publ_flag
Ow1 Dw1a O1 0.970(7) 1.829(5) 2.798(6) 176.6(6) . . y
Ow1 Dw1b Ow2 0.933(7) 1.806(7) 2.731(8) 171.5(5) . 1_655 y
Ow2 Dw2a O1 0.970(7) 1.787(6) 2.751(7) 172.5(5) . . y
Ow2 Dw2b Ow1 0.962(6) 1.823(6) 2.780(8) 172.5(5) . 2_645 y
C2 D4 Ow2 1.092(7) 2.527(7) 3.567(7) 159.0(5) . -2_564 y
C2 D6 Ow2 1.103(7) 2.544(8) 3.638(7) 171.5(5) . 2_655 y
loop_
_pd_meas_time_of_flight
_pd_proc_d_spacing
_pd_meas_intensity_total
_pd_proc_ls_weight
_pd_proc_intensity_bkg_calc
_pd_calc_intensity_total
31371.8 . 2.07(7) . . .
31381.2 . 2.18(7) . . .
31390.6 . 2.04(7) . . .
31400.1 . 2.19(7) . . .
31409.5 . 2.18(7) . . .
31418.9 . 2.24(7) . . .
31428.3 . 2.21(7) . . .
31437.8 . 2.13(7) . . .
31447.2 . 2.13(7) . . .
31456.6 . 2.15(7) . . .
31466.1 . 2.14(7) . . .
31475.5 . 2.05(7) . . .
31484.9 . 2.16(7) . . .
31494.4 . 2.19(7) . . .
31503.8 . 2.10(6) . . .
31513.3 . 2.17(6) . . .
31522.7 . 2.20(7) . . .
31532.2 . 2.18(6) . . .
31541.7 . 2.18(6) . . .
31551.1 . 2.20(6) . . .
31560.6 . 2.11(6) . . .
31570.0 . 2.22(6) . . .
31579.5 . 2.19(6) . . .
31589.0 . 2.07(6) . . .
31598.5 . 2.06(6) . . .
31607.9 . 2.16(6) . . .
31617.4 . 2.21(6) . . .
31626.9 . 2.20(6) . . .
31636.4 . 2.17(6) . . .
31645.9 . 2.23(6) . . .
31655.4 . 2.17(6) . . .
31664.9 . 2.26(6) . . .
31674.4 . 2.16(6) . . .
31683.9 . 2.28(6) . . .
31693.4 . 2.22(6) . . .
31702.9 . 2.13(5) . . .
31712.4 . 2.22(6) . . .
31721.9 . 2.29(6) . . .
31731.4 . 2.15(5) . . .
31741.0 . 2.35(6) . . .
31750.5 . 2.20(5) . . .
31760.0 . 2.22(6) . . .
31769.5 . 2.17(5) . . .
31779.1 . 2.18(5) . . .
31788.6 . 2.21(5) . . .
31798.1 . 2.21(5) . . .
31807.7 . 2.21(5) . . .
31817.2 . 2.17(5) . . .
31826.8 . 2.24(5) . . .
31836.3 . 2.23(5) . . .
31845.9 . 2.28(5) . . .
31855.4 . 2.21(5) . . .
31865.0 . 2.16(5) . . .
31874.5 . 2.24(5) . . .
31884.1 . 2.25(5) . . .
31893.7 . 2.20(5) . . .
31903.2 . 2.16(5) . . .
31912.8 . 2.24(5) . . .
31922.4 . 2.26(5) . . .
31932.0 . 2.18(5) . . .
31941.5 . 2.22(5) . . .
31951.1 . 2.26(5) . . .
31960.7 . 2.27(5) . . .
31970.3 . 2.31(5) . . .
31979.9 . 2.26(5) . . .
31989.5 . 2.27(5) . . .
31999.1 . 2.28(5) . . .
32008.7 . 2.27(5) . . .
32018.3 . 2.29(5) . . .
32027.9 . 2.26(5) . . .
32037.5 . 2.33(5) . . .
32047.1 . 2.36(5) . . .
32056.7 . 2.34(5) . . .
32066.3 . 2.38(5) . . .
32075.9 . 2.31(5) . . .
32085.6 . 2.25(5) . . .
32095.2 . 2.29(5) . . .
32104.8 . 2.33(5) . . .
32114.5 . 2.27(5) . . .
32124.1 . 2.29(5) . . .
32133.7 . 2.23(5) . . .
32143.4 . 2.24(5) . . .
32153.0 . 2.26(5) . . .
32162.7 . 2.21(4) . . .
32172.3 . 2.30(5) . . .
32182.0 . 2.27(5) . . .
32191.6 . 2.27(5) . . .
32201.3 . 2.28(4) . . .
32210.9 . 2.29(4) . . .
32220.6 . 2.24(4) . . .
32230.3 . 2.28(4) . . .
32239.9 . 2.28(4) . . .
32249.6 . 2.29(4) . . .
32259.3 . 2.23(4) . . .
32269.0 . 2.32(4) . . .
32278.6 . 2.29(4) . . .
32288.3 . 2.35(4) . . .
32298.0 . 2.31(4) . . .
32307.7 . 2.36(4) . . .
32317.4 . 2.30(4) . . .
32327.1 . 2.32(4) . . .
32336.8 . 2.29(4) . . .
32346.5 . 2.32(4) . . .
32356.2 . 2.38(4) . . .
32365.9 . 2.32(4) . . .
32375.6 . 2.26(4) . . .
32385.3 . 2.31(4) . . .
32395.0 . 2.30(4) . . .
32404.7 . 2.33(4) . . .
32414.5 . 2.39(4) . . .
32424.2 . 2.28(4) . . .
32433.9 . 2.39(4) . . .
32443.7 . 2.36(4) . . .
32453.4 . 2.41(4) . . .
32463.1 . 2.37(4) . . .
32472.9 . 2.30(4) . . .
32482.6 . 2.35(4) . . .
32492.3 . 2.37(4) . . .
32502.1 . 2.40(4) . . .
32511.8 . 2.35(4) . . .
32521.6 . 2.37(4) . . .
32531.4 . 2.34(4) . . .
32541.1 . 2.40(4) . . .
32550.9 . 2.34(4) . . .
32560.6 . 2.35(4) . . .
32570.4 . 2.40(4) . . .
32580.2 . 2.36(4) . . .
32590.0 . 2.38(4) . . .
32599.7 . 2.38(4) . . .
32609.5 . 2.38(4) . . .
32619.3 . 2.35(4) . . .
32629.1 . 2.36(4) . . .
32638.9 . 2.33(4) . . .
32648.7 . 2.38(4) . . .
32658.5 . 2.37(4) . . .
32668.3 . 2.40(4) . . .
32678.1 . 2.33(4) . . .
32687.9 . 2.32(4) . . .
32697.7 . 2.40(4) . . .
32707.5 . 2.35(4) . . .
32717.3 . 2.40(4) . . .
32727.1 . 2.40(4) . . .
32736.9 . 2.33(4) . . .
32746.7 . 2.34(4) . . .
32756.6 . 2.38(4) . . .
32766.4 . 2.41(4) . . .
32776.2 . 2.37(4) . . .
32786.1 . 2.40(4) . . .
32795.9 . 2.36(4) . . .
32805.7 . 2.41(4) . . .
32815.6 . 2.39(4) . . .
32825.4 . 2.37(4) . . .
32835.3 . 2.39(4) . . .
32845.1 . 2.48(4) . . .
32855.0 . 2.39(4) . . .
32864.8 . 2.38(4) . . .
32874.7 . 2.39(4) . . .
32884.5 . 2.42(4) . . .
32894.4 . 2.40(4) . . .
32904.3 . 2.37(4) . . .
32914.1 . 2.36(4) . . .
32924.0 . 2.39(4) . . .
32933.9 . 2.44(4) . . .
32943.8 . 2.41(4) . . .
32953.7 . 2.45(4) . . .
32963.5 . 2.38(4) . . .
32973.4 . 2.48(4) . . .
32983.3 . 2.42(4) . . .
32993.2 . 2.39(4) . . .
33003.1 . 2.40(4) . . .
33013.0 . 2.44(4) . . .
33022.9 . 2.40(4) . . .
33032.8 . 2.368(35) . . .
33042.7 . 2.38(4) . . .
33052.7 . 2.43(4) . . .
33062.6 . 2.38(4) . . .
33072.5 . 2.44(4) . . .
33082.4 . 2.392(35) . . .
33092.3 . 2.42(4) . . .
33102.3 . 2.45(4) . . .
33112.2 . 2.48(4) . . .
33122.1 . 2.49(4) . . .
33132.1 . 2.395(35) . . .
33142.0 . 2.398(35) . . .
33151.9 . 2.369(34) . . .
33161.9 . 2.418(35) . . .
33171.8 . 2.48(4) . . .
33181.8 . 2.47(4) . . .
33191.7 . 2.385(34) . . .
33201.7 . 2.442(35) . . .
33211.7 . 2.452(35) . . .
33221.6 . 2.368(34) . . .
33231.6 . 2.384(34) . . .
33241.6 . 2.443(35) . . .
33251.5 . 2.452(34) . . .
33261.5 . 2.448(35) . . .
33271.5 . 2.452(34) . . .
33281.5 . 2.439(34) . . .
33291.5 . 2.419(34) . . .
33301.4 . 2.446(34) . . .
33311.4 . 2.417(34) . . .
33321.4 . 2.426(34) . . .
33331.4 . 2.456(34) . . .
33341.4 . 2.446(34) . . .
33351.4 . 2.428(33) . . .
33361.4 . 2.496(34) . . .
33371.4 . 2.466(34) . . .
33381.5 . 2.524(34) . . .
33391.5 . 2.429(33) . . .
33401.5 . 2.435(33) . . .
33411.5 . 2.509(34) . . .
33421.5 . 2.448(33) . . .
33431.6 . 2.481(33) . . .
33441.6 . 2.453(33) . . .
33451.6 . 2.462(33) . . .
33461.6 . 2.487(34) . . .
33471.7 . 2.495(33) . . .
33481.7 . 2.461(33) . . .
33491.8 . 2.484(33) . . .
33501.8 . 2.484(33) . . .
33511.9 . 2.446(33) . . .
33521.9 . 2.436(32) . . .
33532.0 . 2.431(32) . . .
33542.0 . 2.467(33) . . .
33552.1 . 2.441(32) . . .
33562.2 . 2.520(33) . . .
33572.2 . 2.568(33) . . .
33582.3 . 2.516(33) . . .
33592.4 . 2.496(32) . . .
33602.5 . 2.495(32) . . .
33612.5 . 2.486(32) . . .
33622.6 . 2.495(33) . . .
33632.7 . 2.536(33) . . .
33642.8 . 2.488(32) . . .
33652.9 . 2.543(33) . . .
33663.0 . 2.438(32) . . .
33673.1 . 2.494(32) . . .
33683.2 . 2.434(32) . . .
33693.3 . 2.536(32) . . .
33703.4 . 2.539(33) . . .
33713.5 . 2.490(32) . . .
33723.6 . 2.546(32) . . .
33733.8 . 2.474(32) . . .
33743.9 . 2.544(32) . . .
33754.0 . 2.473(32) . . .
33764.1 . 2.515(32) . . .
33774.3 . 2.528(32) . . .
33784.4 . 2.507(32) . . .
33794.5 . 2.541(32) . . .
33804.7 . 2.539(32) . . .
33814.8 . 2.532(32) . . .
33824.9 . 2.511(31) . . .
33835.1 . 2.501(31) . . .
33845.2 . 2.549(31) . . .
33855.4 . 2.570(32) . . .
33865.6 . 2.538(32) . . .
33875.7 . 2.542(32) . . .
33885.9 . 2.541(31) . . .
33896.0 . 2.585(32) . . .
33906.2 . 2.537(31) . . .
33916.4 . 2.508(31) . . .
33926.6 . 2.555(31) . . .
33936.7 . 2.520(31) . . .
33946.9 . 2.506(31) . . .
33957.1 . 2.488(31) . . .
33967.3 . 2.606(32) . . .
33977.5 . 2.552(31) . . .
33987.7 . 2.572(31) . . .
33997.9 . 2.544(31) . . .
34008.1 . 2.574(31) . . .
34018.3 . 2.596(31) . . .
34028.5 . 2.498(30) . . .
34038.7 . 2.520(31) . . .
34048.9 . 2.552(31) . . .
34059.1 . 2.552(31) . . .
34069.3 . 2.607(31) . . .
34079.5 . 2.591(31) . . .
34089.8 . 2.550(31) . . .
34100.0 . 2.503(30) . . .
34110.2 . 2.499(30) . . .
34120.5 . 2.524(30) . . .
34130.7 . 2.531(30) . . .
34140.9 . 2.466(30) . . .
34151.2 . 2.498(30) . . .
34161.4 . 2.472(30) . . .
34171.7 . 2.522(30) . . .
34181.9 . 2.550(30) . . .
34192.2 . 2.537(30) . . .
34202.4 . 2.526(30) . . .
34212.7 . 2.527(30) . . .
34223.0 . 2.554(30) . . .
34233.2 . 2.497(29) . . .
34243.5 . 2.573(30) . . .
34253.8 . 2.570(30) . . .
34264.0 . 2.551(30) . . .
34274.3 . 2.561(30) . . .
34284.6 . 2.578(30) . . .
34294.9 . 2.514(29) . . .
34305.2 . 2.577(30) . . .
34315.5 . 2.570(30) . . .
34325.8 . 2.588(30) . . .
34336.1 . 2.594(30) . . .
34346.4 . 2.601(30) . . .
34356.7 . 2.641(30) . . .
34367.0 . 2.636(30) . . .
34377.3 . 2.659(30) . . .
34387.6 . 2.619(30) . . .
34397.9 . 2.584(29) . . .
34408.2 . 2.622(30) . . .
34418.6 . 2.626(30) . . .
34428.9 . 2.578(29) . . .
34439.2 . 2.607(30) . . .
34449.5 . 2.570(29) . . .
34459.9 . 2.594(29) . . .
34470.2 . 2.589(29) . . .
34480.6 . 2.583(29) . . .
34490.9 . 2.578(29) . . .
34501.2 . 2.562(29) . . .
34511.6 . 2.627(29) . . .
34521.9 . 2.596(29) . . .
34532.3 . 2.608(29) . . .
34542.7 . 2.592(29) . . .
34553.0 . 2.612(29) . . .
34563.4 . 2.622(29) . . .
34573.8 . 2.617(29) . . .
34584.1 . 2.616(29) . . .
34594.5 . 2.620(29) . . .
34604.9 . 2.607(29) . . .
34615.3 . 2.590(29) . . .
34625.7 . 2.621(29) . . .
34636.0 . 2.604(28) . . .
34646.4 . 2.573(28) . . .
34656.8 . 2.593(28) . . .
34667.2 . 2.621(28) . . .
34677.6 . 2.586(28) . . .
34688.0 . 2.619(28) . . .
34698.4 . 2.620(28) . . .
34708.8 . 2.592(28) . . .
34719.3 . 2.558(28) . . .
34729.7 . 2.554(28) . . .
34740.1 . 2.599(28) . . .
34750.5 . 2.567(28) . . .
34760.9 . 2.589(28) . . .
34771.4 . 2.623(28) . . .
34781.8 . 2.578(28) . . .
34792.2 . 2.626(28) . . .
34802.7 . 2.604(28) . . .
34813.1 . 2.617(28) . . .
34823.6 . 2.631(28) . . .
34834.0 . 2.624(28) . . .
34844.5 . 2.579(28) . . .
34854.9 . 2.590(28) . . .
34865.4 . 2.586(27) . . .
34875.8 . 2.611(28) . . .
34886.3 . 2.610(28) . . .
34896.8 . 2.640(28) . . .
34907.2 . 2.613(28) . . .
34917.7 . 2.615(28) . . .
34928.2 . 2.617(28) . . .
34938.6 . 2.594(27) . . .
34949.1 . 2.621(28) . . .
34959.6 . 2.596(27) . . .
34970.1 . 2.626(27) . . .
34980.6 . 2.645(28) . . .
34991.1 . 2.638(27) . . .
35001.6 . 2.618(27) . . .
35012.1 . 2.617(27) . . .
35022.6 . 2.594(27) . . .
35033.1 . 2.629(27) . . .
35043.6 . 2.664(27) . . .
35054.1 . 2.636(27) . . .
35064.6 . 2.629(27) . . .
35075.2 . 2.616(27) . . .
35086. . 2.632(27) . . .
35096. . 2.659(27) . . .
35107. . 2.655(27) . . .
35117. . 2.621(27) . . .
35128. . 2.623(27) . . .
35138. . 2.632(27) . . .
35149. . 2.689(27) . . .
35159. . 2.624(27) . . .
35170. . 2.627(27) . . .
35181. . 2.657(27) . . .
35191. . 2.669(27) . . .
35202. . 2.665(27) . . .
35212. . 2.671(27) . . .
35223. . 2.674(27) . . .
35233. . 2.675(27) . . .
35244. . 2.610(26) . . .
35254. . 2.657(27) . . .
35265. . 2.643(27) . . .
35276. . 2.678(27) . . .
35286. . 2.702(27) . . .
35297. . 2.706(27) . . .
35307. . 2.693(27) . . .
35318. . 2.648(26) . . .
35329. . 2.660(26) . . .
35339. . 2.714(27) . . .
35350. . 2.732(27) . . .
35360. . 2.661(26) . . .
35371. . 2.677(26) . . .
35382. . 2.670(26) . . .
35392. . 2.636(26) . . .
35403. . 2.674(26) . . .
35413. . 2.688(26) . . .
35424. . 2.650(26) . . .
35435. . 2.631(26) . . .
35445. . 2.622(26) . . .
35456. . 2.703(27) . . .
35467. . 2.693(26) . . .
35477. . 2.702(26) . . .
35488. . 2.672(26) . . .
35499. . 2.725(26) . . .
35509. . 2.665(26) . . .
35520. . 2.670(26) . . .
35530. . 2.640(26) . . .
35541. . 2.727(26) . . .
35552. . 2.661(26) . . .
35562. . 2.669(26) . . .
35573. . 2.638(26) . . .
35584. . 2.638(26) . . .
35594. . 2.658(26) . . .
35605. . 2.687(26) . . .
35616. . 2.647(26) . . .
35627. . 2.672(26) . . .
35637. . 2.692(26) . . .
35648. . 2.676(25) . . .
35659. . 2.671(25) . . .
35669. . 2.692(26) . . .
35680. . 2.716(26) . . .
35691. . 2.701(26) . . .
35701. . 2.675(26) . . .
35712. . 2.683(26) . . .
35723. . 2.644(25) . . .
35734. . 2.636(25) . . .
35744. . 2.643(25) . . .
35755. . 2.663(25) . . .
35766. . 2.675(25) . . .
35776. . 2.641(25) . . .
35787. . 2.688(25) . . .
35798. . 2.702(25) . . .
35809. . 2.646(25) . . .
35819. . 2.697(25) . . .
35830. . 2.714(25) . . .
35841. . 2.678(25) . . .
35852. . 2.649(25) . . .
35862. . 2.668(25) . . .
35873. . 2.704(25) . . .
35884. . 2.732(25) . . .
35895. . 2.703(25) . . .
35905. . 2.730(25) . . .
35916. . 2.715(25) . . .
35927. . 2.649(25) . . .
35938. . 2.678(25) . . .
35949. . 2.689(25) . . .
35959. . 2.661(25) . . .
35970. . 2.654(25) . . .
35981. . 2.664(25) . . .
35992. . 2.691(25) . . .
36003. . 2.680(25) . . .
36013. . 2.700(25) . . .
36024. . 2.714(25) . . .
36035. . 2.729(25) . . .
36046. . 2.702(25) . . .
36057. . 2.745(25) . . .
36067. . 2.750(25) . . .
36078. . 2.741(25) . . .
36089. . 2.756(25) . . .
36100. . 2.766(25) . . .
36111. . 2.768(25) . . .
36122. . 2.749(25) . . .
36132. . 2.771(25) . . .
36143. . 2.770(25) . . .
36154. . 2.755(25) . . .
36165. . 2.762(25) . . .
36176. . 2.739(25) . . .
36187. . 2.757(25) . . .
36197. . 2.698(24) . . .
36208. . 2.753(25) . . .
36219. . 2.731(24) . . .
36230. . 2.728(25) . . .
36241. . 2.765(25) . . .
36252. . 2.740(24) . . .
36263. . 2.740(24) . . .
36274. . 2.732(24) . . .
36284. . 2.780(25) . . .
36295. . 2.742(24) . . .
36306. . 2.758(24) . . .
36317. . 2.707(24) . . .
36328. . 2.779(25) . . .
36339. . 2.764(24) . . .
36350. . 2.803(25) . . .
36361. . 2.777(24) . . .
36372. . 2.761(24) . . .
36382. . 2.729(24) . . .
36393. . 2.753(24) . . .
36404. . 2.799(24) . . .
36415. . 2.776(24) . . .
36426. . 2.813(24) . . .
36437. . 2.853(25) . . .
36448. . 2.856(24) . . .
36459. . 2.848(24) . . .
36470. . 2.825(24) . . .
36481. . 2.805(24) . . .
36492. . 2.833(24) . . .
36503. . 2.786(24) . . .
36514. . 2.819(24) . . .
36525. . 2.779(24) . . .
36536. . 2.799(24) . . .
36547. . 2.787(24) . . .
36558. . 2.818(24) . . .
36568. . 2.776(24) . . .
36579. . 2.770(24) . . .
36590. . 2.754(24) . . .
36601. . 2.759(24) . . .
36612. . 2.815(24) . . .
36623. . 2.820(24) . . .
36634. . 2.768(24) . . .
36645. . 2.806(24) . . .
36656. . 2.812(24) . . .
36667. . 2.777(24) . . .
36678. . 2.768(23) . . .
36689. . 2.778(23) . . .
36700. . 2.779(23) . . .
36711. . 2.825(24) . . .
36722. . 2.828(24) . . .
36733. . 2.861(24) . . .
36744. . 2.817(24) . . .
36755. . 2.845(24) . . .
36766. . 2.878(24) . . .
36777. . 2.856(24) . . .
36789. . 2.892(24) . . .
36800. . 2.901(24) . . .
36811. . 2.869(24) . . .
36822. . 2.873(24) . . .
36833. . 2.877(24) . . .
36844. . 2.916(24) . . .
36855. . 2.911(24) . . .
36866. . 2.902(24) . . .
36877. . 2.880(24) . . .
36888. . 2.864(24) . . .
36899. . 2.859(24) . . .
36910. . 2.846(23) . . .
36921. . 2.876(24) . . .
36932. . 2.834(23) . . .
36943. . 2.853(23) . . .
36954. . 2.883(24) . . .
36966. . 2.872(24) . . .
36977. . 2.856(24) . . .
36988. . 2.887(24) . . .
36999. . 2.942(24) . . .
37010. . 2.944(24) . . .
37021. . 2.945(24) . . .
37032. . 2.916(23) . . .
37043. . 2.888(23) . . .
37054. . 2.905(23) . . .
37065. . 2.894(23) . . .
37077. . 2.942(24) . . .
37088. . 2.871(23) . . .
37099. . 2.901(23) . . .
37110. . 2.864(23) . . .
37121. . 2.870(23) . . .
37132. . 2.891(23) . . .
37143. . 2.878(23) . . .
37154. . 2.866(23) . . .
37166. . 2.856(23) . . .
37177. . 2.846(23) . . .
37188. . 2.886(23) . . .
37199. . 2.861(23) . . .
37210. . 2.844(23) . . .
37221. . 2.855(23) . . .
37233. . 2.881(23) . . .
37244. . 2.836(23) . . .
37255. . 2.903(23) . . .
37266. . 2.867(23) . . .
37277. . 2.839(23) . . .
37288. . 2.890(23) . . .
37300. . 2.908(23) . . .
37311. . 2.902(23) . . .
37322. . 2.931(23) . . .
37333. . 2.889(23) . . .
37344. . 2.875(23) . . .
37356. . 2.911(23) . . .
37367. . 2.873(23) . . .
37378. . 2.856(23) . . .
37389. . 2.909(23) . . .
37400. . 2.872(23) . . .
37412. . 2.884(23) . . .
37423. . 2.912(23) . . .
37434. . 2.895(23) . . .
37445. . 2.902(23) . . .
37457. . 2.905(23) . . .
37468. . 2.928(23) . . .
37479. . 2.899(22) . . .
37490. . 2.942(23) . . .
37502. . 2.923(23) . . .
37513. . 2.930(23) . . .
37524. . 2.909(22) . . .
37535. . 2.947(23) . . .
37547. . 2.965(23) . . .
37558. . 2.910(22) . . .
37569. . 2.959(23) . . .
37580. . 2.881(22) . . .
37592. . 2.874(22) . . .
37603. . 2.903(22) . . .
37614. . 2.914(22) . . .
37626. . 2.929(23) . . .
37637. . 2.900(22) . . .
37648. . 2.949(23) . . .
37659. . 2.929(22) . . .
37671. . 2.934(22) . . .
37682. . 2.945(22) . . .
37693. . 2.950(22) . . .
37705. . 2.965(22) . . .
37716. . 3.029(23) . . .
37727. . 3.008(23) . . .
37739. . 2.995(22) . . .
37750. . 3.028(23) . . .
37761. . 3.021(23) . . .
37773. . 2.980(22) . . .
37784. . 2.979(22) . . .
37795. . 3.017(23) . . .
37807. . 2.990(22) . . .
37818. . 3.012(22) . . .
37829. . 2.992(22) . . .
37841. . 3.006(22) . . .
37852. . 2.980(22) . . .
37863. . 2.936(22) . . .
37875. . 3.015(22) . . .
37886. . 3.034(22) . . .
37897. . 3.027(22) . . .
37909. . 3.078(23) . . .
37920. . 3.107(23) . . .
37931. . 3.108(23) . . .
37943. . 3.112(23) . . .
37954. . 3.115(23) . . .
37966. . 3.081(23) . . .
37977. . 3.048(22) . . .
37988. . 3.011(22) . . .
38000. . 2.968(22) . . .
38011. . 2.998(22) . . .
38023. . 3.019(22) . . .
38034. . 3.055(22) . . .
38045. . 3.033(22) . . .
38057. . 3.049(22) . . .
38068. . 3.095(22) . . .
38080. . 3.077(22) . . .
38091. . 3.031(22) . . .
38103. . 3.010(22) . . .
38114. . 3.020(22) . . .
38125. . 3.004(22) . . .
38137. . 3.008(22) . . .
38148. . 3.009(22) . . .
38160. . 3.031(22) . . .
38171. . 3.029(22) . . .
38183. . 3.000(22) . . .
38194. . 3.057(22) . . .
38206. . 3.034(22) . . .
38217. . 3.005(22) . . .
38228. . 3.006(22) . . .
38240. . 3.002(22) . . .
38251. . 2.971(22) . . .
38263. . 2.966(22) . . .
38274. . 2.950(22) . . .
38286. . 2.952(22) . . .
38297. . 2.952(21) . . .
38309. . 2.956(21) . . .
38320. . 2.973(22) . . .
38332. . 2.971(22) . . .
38343. . 3.018(22) . . .
38355. . 3.025(22) . . .
38366. . 3.011(22) . . .
38378. . 2.990(21) . . .
38389. . 2.972(21) . . .
38401. . 3.002(21) . . .
38412. . 3.003(21) . . .
38424. . 2.990(22) . . .
38435. . 3.004(21) . . .
38447. . 3.009(22) . . .
38458. . 3.000(21) . . .
38470. . 2.993(21) . . .
38482. . 3.020(22) . . .
38493. . 3.013(22) . . .
38505. . 3.005(21) . . .
38516. . 3.009(21) . . .
38528. . 2.991(21) . . .
38539. . 3.002(21) . . .
38551. . 3.005(21) . . .
38562. . 3.000(21) . . .
38574. . 3.044(22) . . .
38586. . 3.005(21) . . .
38597. . 3.021(21) . . .
38609. . 3.008(21) . . .
38620. . 3.010(21) . . .
38632. . 3.030(21) . . .
38643. . 3.034(21) . . .
38655. . 3.057(21) . . .
38667. . 3.017(21) . . .
38678. . 3.014(21) . . .
38690. . 3.052(21) . . .
38701. . 3.051(21) . . .
38713. . 3.021(21) . . .
38725. . 3.062(21) . . .
38736. . 3.056(21) . . .
38748. . 3.052(21) . . .
38760. . 3.059(21) . . .
38771. . 3.068(21) . . .
38783. . 3.055(21) . . .
38794. . 3.110(22) . . .
38806. . 3.080(21) . . .
38818. . 3.082(21) . . .
38829. . 3.054(21) . . .
38841. . 3.053(21) . . .
38853. . 3.013(21) . . .
38864. . 3.029(21) . . .
38876. . 2.988(21) . . .
38888. . 3.041(21) . . .
38899. . 3.000(21) . . .
38911. . 2.995(21) . . .
38923. . 3.034(21) . . .
38934. . 3.045(21) . . .
38946. . 3.060(21) . . .
38958. . 3.063(21) . . .
38969. . 3.114(21) . . .
38981. . 3.105(21) . . .
38993. . 3.060(21) . . .
39005. . 3.050(21) . . .
39016. . 3.013(21) . . .
39028. . 3.051(21) . . .
39040. . 3.058(21) . . .
39051. . 3.086(21) . . .
39063. . 3.040(21) . . .
39075. . 3.090(21) . . .
39086. . 3.071(21) . . .
39098. . 3.011(21) . . .
39110. . 3.048(21) . . .
39122. . 3.008(21) . . .
39133. . 3.039(21) . . .
39145. . 3.007(21) . . .
39157. . 3.005(21) . . .
39169. . 3.021(21) . . .
39180. . 3.070(21) . . .
39192. 0.81162 3.049(21) 0.0 2.9841 .
39204. 0.81186 3.039(21) 2334. 2.9839 3.0670
39216. 0.81211 3.032(21) 2343. 2.9838 3.0757
39227. 0.81235 3.048(21) 2307. 2.9837 3.0899
39239. 0.81259 3.062(21) 2337. 2.9835 3.1092
39251. 0.81284 3.059(21) 2325. 2.9834 3.1307
39263. 0.81308 3.064(21) 2322. 2.9833 3.1489
39275. 0.81333 3.074(21) 2329. 2.9831 3.1568
39286. 0.81357 3.095(21) 2286. 2.9830 3.1516
39298. 0.81381 3.074(21) 2285. 2.9828 3.1371
39310. 0.81406 3.048(21) 2329. 2.9827 3.1204
39322. 0.81430 3.051(21) 2312. 2.9825 3.1077
39333. 0.81455 3.073(21) 2311. 2.9824 3.1032
39345. 0.81479 3.069(21) 2328. 2.9822 3.1089
39357. 0.81504 3.118(21) 2276. 2.9821 3.1246
39369. 0.81528 3.145(21) 2256. 2.9819 3.1483
39381. 0.81552 3.179(21) 2236. 2.9818 3.1750
39393. 0.81577 3.227(21) 2186. 2.9816 3.1978
39404. 0.81601 3.198(21) 2223. 2.9814 3.2126
39416. 0.81626 3.178(21) 2253. 2.9813 3.2167
39428. 0.81650 3.190(21) 2240. 2.9811 3.2094
39440. 0.81675 3.154(21) 2299. 2.9809 3.1943
39452. 0.81699 3.143(21) 2287. 2.9808 3.1770
39463. 0.81724 3.096(21) 2330. 2.9806 3.1609
39475. 0.81748 3.128(21) 2313. 2.9804 3.1473
39487. 0.81773 3.091(21) 2314. 2.9802 3.1363
39499. 0.81798 3.087(21) 2307. 2.9800 3.1278
39511. 0.81822 3.067(21) 2344. 2.9799 3.1205
39523. 0.81847 3.105(21) 2321. 2.9797 3.1135
39535. 0.81871 3.060(21) 2349. 2.9795 3.1058
39546. 0.81896 3.088(21) 2332. 2.9793 3.0963
39558. 0.81920 3.050(21) 2367. 2.9791 3.0854
39570. 0.81945 3.017(20) 2430. 2.9789 3.0751
39582. 0.81969 3.022(20) 2399. 2.9787 3.0673
39594. 0.81994 3.011(20) 2414. 2.9785 3.0622
39606. 0.82019 3.039(20) 2394. 2.9783 3.0591
39618. 0.82043 3.019(20) 2409. 2.9781 3.0572
39630. 0.82068 3.040(20) 2405. 2.9779 3.0562
39641. 0.82093 3.016(20) 2435. 2.9777 3.0558
39653. 0.82117 2.987(20) 2442. 2.9775 3.0560
39665. 0.82142 3.023(20) 2408. 2.9773 3.0570
39677. 0.82166 3.015(20) 2427. 2.9771 3.0594
39689. 0.82191 3.008(20) 2442. 2.9769 3.0641
39701. 0.82216 3.041(20) 2386. 2.9767 3.0705
39713. 0.82240 3.044(20) 2414. 2.9765 3.0771
39725. 0.82265 3.052(20) 2400. 2.9763 3.0820
39737. 0.82290 3.039(20) 2416. 2.9760 3.0835
39749. 0.82315 3.017(20) 2463. 2.9758 3.0808
39761. 0.82339 3.023(20) 2437. 2.9756 3.0754
39772. 0.82364 3.032(20) 2444. 2.9754 3.0697
39784. 0.82389 3.007(20) 2483. 2.9751 3.0663
39796. 0.82413 3.037(20) 2483. 2.9749 3.0662
39808. 0.82438 3.041(20) 2602. 2.9747 3.0685
39820. 0.82463 3.058(20) 2604. 2.9744 3.0718
39832. 0.82488 3.100(20) 2575. 2.9742 3.0761
39844. 0.82512 3.058(19) 2643. 2.9740 3.0838
39856. 0.82537 3.086(19) 2631. 2.9737 3.0979
39868. 0.82562 3.150(20) 2560. 2.9735 3.1207
39880. 0.82587 3.118(20) 2587. 2.9733 3.1514
39892. 0.82611 3.146(20) 2555. 2.9730 3.1845
39904. 0.82636 3.174(20) 2514. 2.9728 3.2102
39916. 0.82661 3.150(20) 2501. 2.9725 3.2202
39928. 0.82686 3.176(20) 2452. 2.9723 3.2138
39940. 0.82711 3.144(20) 2463. 2.9720 3.1949
39952. 0.82735 3.133(20) 2432. 2.9718 3.1676
39964. 0.82760 3.105(21) 2361. 2.9715 3.1363
39976. 0.82785 3.105(23) 1913. 2.9713 3.1059
39988. 0.82810 3.044(23) 1855. 2.9710 3.0801
40000. 0.82835 3.011(23) 1837. 2.9708 3.0606
40012. 0.82860 2.998(24) 1801. 2.9705 3.0477
40024. 0.82884 2.997(24) 1749. 2.9702 3.0407
40036. 0.82909 3.013(24) 1724. 2.9700 3.0391
40048. 0.82934 3.011(24) 1728. 2.9697 3.0428
40060. 0.82959 3.034(24) 1687. 2.9695 3.0518
40072. 0.82984 3.036(24) 1711. 2.9692 3.0656
40084. 0.83009 3.010(24) 1742. 2.9689 3.0826
40096. 0.83034 3.034(24) 1747. 2.9686 3.0997
40108. 0.83059 3.033(24) 1745. 2.9684 3.1140
40120. 0.83084 3.103(24) 1724. 2.9681 3.1234
40132. 0.83109 3.079(24) 1699. 2.9678 3.1276
40144. 0.83134 3.113(24) 1702. 2.9676 3.1265
40156. 0.83158 3.114(24) 1733. 2.9673 3.1206
40168. 0.83183 3.086(24) 1743. 2.9670 3.1110
40180. 0.83208 3.078(24) 1765. 2.9667 3.0988
40192. 0.83233 3.048(24) 1778. 2.9664 3.0856
40204. 0.83258 3.058(24) 1788. 2.9661 3.0729
40216. 0.83283 3.045(23) 1843. 2.9659 3.0621
40228. 0.83308 3.063(24) 1797. 2.9656 3.0534
40240. 0.83333 3.083(24) 1806. 2.9653 3.0463
40253. 0.83358 3.039(23) 1865. 2.9650 3.0409
40265. 0.83383 3.095(24) 1810. 2.9647 3.0380
40277. 0.83408 3.054(23) 1852. 2.9644 3.0387
40289. 0.83433 3.075(23) 1863. 2.9641 3.0436
40301. 0.83458 3.072(23) 1869. 2.9638 3.0519
40313. 0.83483 3.089(23) 1856. 2.9635 3.0618
40325. 0.83508 3.120(23) 1813. 2.9632 3.0702
40337. 0.83534 3.075(23) 1886. 2.9629 3.0739
40349. 0.83559 3.161(24) 1803. 2.9626 3.0726
40361. 0.83584 3.138(23) 1828. 2.9623 3.0688
40373. 0.83609 3.106(23) 1888. 2.9620 3.0662
40386. 0.83634 3.137(23) 1869. 2.9617 3.0689
40398. 0.83659 3.114(23) 1884. 2.9614 3.0801
40410. 0.83684 3.118(23) 1889. 2.9611 3.1012
40422. 0.83709 3.115(23) 1899. 2.9608 3.1298
40434. 0.83734 3.148(23) 1886. 2.9604 3.1595
40446. 0.83759 3.179(23) 1872. 2.9601 3.1818
40458. 0.83785 3.189(23) 1862. 2.9598 3.1919
40470. 0.83810 3.202(23) 1861. 2.9595 3.1900
40483. 0.83835 3.193(23) 1903. 2.9592 3.1778
40495. 0.83860 3.204(23) 1924. 2.9589 3.1595
40507. 0.83885 3.162(22) 2030. 2.9585 3.1405
40519. 0.83910 3.159(22) 2058. 2.9582 3.1244
40531. 0.83935 3.159(22) 2095. 2.9579 3.1125
40543. 0.83961 3.151(22) 2147. 2.9576 3.1047
40555. 0.83986 3.142(21) 2186. 2.9572 3.1008
40568. 0.84011 3.166(21) 2192. 2.9569 3.1005
40580. 0.84036 3.142(21) 2255. 2.9566 3.1039
40592. 0.84062 3.139(21) 2314. 2.9563 3.1105
40604. 0.84087 3.151(21) 2359. 2.9559 3.1184
40616. 0.84112 3.178(21) 2351. 2.9556 3.1238
40629. 0.84137 3.154(20) 2463. 2.9553 3.1234
40641. 0.84162 3.160(20) 2480. 2.9549 3.1180
40653. 0.84188 3.119(20) 2571. 2.9546 3.1102
40665. 0.84213 3.131(20) 2550. 2.9542 3.1028
40677. 0.84238 3.113(20) 2572. 2.9539 3.0963
40690. 0.84264 3.160(20) 2516. 2.9536 3.0902
40702. 0.84289 3.157(20) 2524. 2.9532 3.0843
40714. 0.84314 3.147(20) 2493. 2.9529 3.0798
40726. 0.84339 3.131(20) 2529. 2.9525 3.0783
40738. 0.84365 3.131(20) 2541. 2.9522 3.0806
40751. 0.84390 3.132(20) 2555. 2.9518 3.0879
40763. 0.84415 3.140(20) 2550. 2.9515 3.1030
40775. 0.84441 3.154(20) 2574. 2.9511 3.1296
40787. 0.84466 3.157(20) 2576. 2.9508 3.1693
40800. 0.84491 3.273(20) 2455. 2.9504 3.2197
40812. 0.84517 3.309(20) 2419. 2.9501 3.2725
40824. 0.84542 3.362(21) 2368. 2.9497 3.3183
40836. 0.84567 3.309(20) 2414. 2.9494 3.3507
40849. 0.84593 3.328(20) 2402. 2.9490 3.3633
40861. 0.84618 3.322(20) 2408. 2.9487 3.3504
40873. 0.84644 3.288(20) 2437. 2.9483 3.3149
40885. 0.84669 3.223(20) 2500. 2.9479 3.2670
40898. 0.84694 3.195(20) 2528. 2.9476 3.2179
40910. 0.84720 3.171(20) 2570. 2.9472 3.1769
40922. 0.84745 3.184(20) 2557. 2.9469 3.1483
40934. 0.84771 3.183(20) 2542. 2.9465 3.1317
40947. 0.84796 3.156(20) 2557. 2.9461 3.1228
40959. 0.84822 3.171(20) 2532. 2.9458 3.1165
40971. 0.84847 3.123(20) 2611. 2.9454 3.1111
40984. 0.84872 3.101(20) 2615. 2.9450 3.1086
40996. 0.84898 3.132(20) 2581. 2.9446 3.1104
41008. 0.84923 3.151(20) 2549. 2.9443 3.1149
41020. 0.84949 3.131(20) 2616. 2.9439 3.1172
41033. 0.84974 3.133(20) 2595. 2.9435 3.1140
41045. 0.85000 3.142(20) 2572. 2.9432 3.1056
41057. 0.85025 3.110(20) 2609. 2.9428 3.0943
41070. 0.85051 3.094(20) 2619. 2.9424 3.0812
41082. 0.85076 3.048(19) 2677. 2.9420 3.0673
41094. 0.85102 3.048(19) 2669. 2.9417 3.0537
41107. 0.85127 3.091(20) 2614. 2.9413 3.0420
41119. 0.85153 3.081(20) 2629. 2.9409 3.0336
41131. 0.85179 3.084(19) 2647. 2.9405 3.0299
41144. 0.85204 3.071(19) 2668. 2.9401 3.0319
41156. 0.85230 3.090(19) 2635. 2.9397 3.0395
41168. 0.85255 3.058(19) 2662. 2.9394 3.0514
41181. 0.85281 3.059(19) 2672. 2.9390 3.0635
41193. 0.85306 3.077(19) 2661. 2.9386 3.0708
41205. 0.85332 3.109(19) 2630. 2.9382 3.0715
41218. 0.85358 3.086(19) 2673. 2.9378 3.0678
41230. 0.85383 3.089(19) 2648. 2.9374 3.0640
41242. 0.85409 3.079(19) 2673. 2.9370 3.0639
41255. 0.85434 3.115(19) 2638. 2.9366 3.0693
41267. 0.85460 3.077(19) 2693. 2.9362 3.0794
41280. 0.85486 3.095(19) 2667. 2.9358 3.0925
41292. 0.85511 3.126(19) 2633. 2.9355 3.1065
41304. 0.85537 3.144(20) 2611. 2.9351 3.1188
41317. 0.85563 3.126(19) 2630. 2.9347 3.1260
41329. 0.85588 3.112(19) 2661. 2.9343 3.1257
41342. 0.85614 3.104(19) 2652. 2.9339 3.1167
41354. 0.85640 3.095(19) 2660. 2.9335 3.1007
41366. 0.85665 3.084(19) 2664. 2.9331 3.0810
41379. 0.85691 3.043(19) 2709. 2.9327 3.0615
41391. 0.85717 3.078(19) 2693. 2.9323 3.0458
41404. 0.85743 3.067(19) 2701. 2.9319 3.0362
41416. 0.85768 3.057(19) 2731. 2.9315 3.0338
41428. 0.85794 3.079(19) 2683. 2.9311 3.0387
41441. 0.85820 3.099(19) 2666. 2.9307 3.0499
41453. 0.85846 3.096(19) 2689. 2.9302 3.0648
41466. 0.85871 3.149(20) 2623. 2.9298 3.0800
41478. 0.85897 3.108(19) 2658. 2.9294 3.0927
41491. 0.85923 3.129(19) 2658. 2.9290 3.1012
41503. 0.85949 3.125(19) 2671. 2.9286 3.1049
41516. 0.85974 3.165(20) 2601. 2.9282 3.1037
41528. 0.86000 3.150(20) 2624. 2.9278 3.0978
41540. 0.86026 3.096(19) 2729. 2.9274 3.0895
41553. 0.86052 3.138(19) 2650. 2.9270 3.0817
41565. 0.86078 3.077(19) 2723. 2.9266 3.0754
41578. 0.86104 3.096(19) 2685. 2.9261 3.0693
41590. 0.86129 3.103(19) 2667. 2.9257 3.0622
41603. 0.86155 3.045(19) 2761. 2.9253 3.0537
41615. 0.86181 3.060(19) 2724. 2.9249 3.0439
41628. 0.86207 3.059(19) 2731. 2.9245 3.0334
41640. 0.86233 3.086(19) 2667. 2.9241 3.0226
41653. 0.86259 3.055(19) 2704. 2.9236 3.0121
41665. 0.86285 3.029(19) 2753. 2.9232 3.0025
41678. 0.86310 3.051(19) 2734. 2.9228 2.9952
41690. 0.86336 3.016(19) 2788. 2.9224 2.9911
41703. 0.86362 3.045(19) 2751. 2.9220 2.9912
41715. 0.86388 3.041(19) 2743. 2.9215 2.9962
41728. 0.86414 3.065(19) 2685. 2.9211 3.0076
41740. 0.86440 3.041(19) 2757. 2.9207 3.0272
41753. 0.86466 3.109(19) 2698. 2.9203 3.0575
41765. 0.86492 3.106(19) 2692. 2.9198 3.0990
41778. 0.86518 3.156(19) 2643. 2.9194 3.1484
41790. 0.86544 3.216(20) 2581. 2.9190 3.1959
41803. 0.86570 3.207(20) 2610. 2.9186 3.2298
41815. 0.86596 3.252(20) 2583. 2.9181 3.2445
41828. 0.86622 3.235(20) 2590. 2.9177 3.2419
41841. 0.86648 3.228(20) 2591. 2.9173 3.2280
41853. 0.86674 3.221(20) 2580. 2.9168 3.2103
41866. 0.86700 3.225(20) 2595. 2.9164 3.1940
41878. 0.86726 3.231(20) 2572. 2.9160 3.1792
41891. 0.86752 3.222(20) 2578. 2.9155 3.1612
41903. 0.86778 3.187(20) 2621. 2.9151 3.1370
41916. 0.86804 3.115(19) 2679. 2.9147 3.1090
41929. 0.86830 3.126(19) 2678. 2.9142 3.0828
41941. 0.86856 3.102(19) 2702. 2.9138 3.0633
41954. 0.86882 3.087(19) 2724. 2.9134 3.0525
41966. 0.86908 3.116(19) 2667. 2.9129 3.0491
41979. 0.86934 3.069(19) 2744. 2.9125 3.0498
41991. 0.86960 3.080(19) 2728. 2.9121 3.0520
42004. 0.86986 3.105(19) 2696. 2.9116 3.0556
42017. 0.87012 3.096(19) 2707. 2.9112 3.0607
42029. 0.87039 3.110(19) 2680. 2.9107 3.0659
42042. 0.87065 3.120(19) 2698. 2.9103 3.0691
42054. 0.87091 3.163(20) 2626. 2.9099 3.0708
42067. 0.87117 3.125(19) 2686. 2.9094 3.0738
42080. 0.87143 3.152(19) 2679. 2.9090 3.0828
42092. 0.87169 3.217(20) 2586. 2.9085 3.1024
42105. 0.87195 3.230(20) 2597. 2.9081 3.1339
42118. 0.87222 3.223(20) 2589. 2.9077 3.1740
42130. 0.87248 3.243(20) 2581. 2.9072 3.2160
42143. 0.87274 3.249(20) 2577. 2.9068 3.2539
42156. 0.87300 3.269(20) 2562. 2.9063 3.2799
42168. 0.87326 3.304(20) 2480. 2.9059 3.2837
42181. 0.87352 3.275(20) 2522. 2.9054 3.2620
42193. 0.87379 3.252(20) 2564. 2.9050 3.2227
42206. 0.87405 3.211(20) 2600. 2.9045 3.1791
42219. 0.87431 3.190(19) 2650. 2.9041 3.1430
42231. 0.87457 3.172(19) 2645. 2.9037 3.1213
42244. 0.87484 3.208(20) 2585. 2.9032 3.1156
42257. 0.87510 3.193(20) 2604. 2.9028 3.1232
42269. 0.87536 3.187(20) 2622. 2.9023 3.1387
42282. 0.87562 3.176(19) 2665. 2.9019 3.1556
42295. 0.87589 3.228(20) 2573. 2.9014 3.1686
42308. 0.87615 3.211(20) 2593. 2.9010 3.1748
42320. 0.87641 3.190(20) 2597. 2.9005 3.1723
42333. 0.87668 3.172(19) 2630. 2.9001 3.1607
42346. 0.87694 3.153(19) 2658. 2.8996 3.1414
42358. 0.87720 3.127(19) 2687. 2.8991 3.1190
42371. 0.87746 3.126(19) 2684. 2.8987 3.0977
42384. 0.87773 3.110(19) 2679. 2.8982 3.0802
42396. 0.87799 3.115(19) 2720. 2.8978 3.0668
42409. 0.87825 3.084(19) 2726. 2.8973 3.0567
42422. 0.87852 3.068(19) 2752. 2.8969 3.0497
42435. 0.87878 3.124(19) 2695. 2.8964 3.0479
42447. 0.87905 3.094(19) 2716. 2.8960 3.0538
42460. 0.87931 3.107(19) 2711. 2.8955 3.0685
42473. 0.87957 3.113(19) 2686. 2.8951 3.0898
42486. 0.87984 3.122(19) 2689. 2.8946 3.1111
42498. 0.88010 3.115(19) 2712. 2.8941 3.1250
42511. 0.88037 3.130(19) 2694. 2.8937 3.1285
42524. 0.88063 3.151(19) 2701. 2.8932 3.1240
42537. 0.88089 3.122(19) 2734. 2.8928 3.1154
42549. 0.88116 3.149(19) 2657. 2.8923 3.1056
42562. 0.88142 3.147(19) 2654. 2.8919 3.0961
42575. 0.88169 3.113(19) 2711. 2.8914 3.0872
42588. 0.88195 3.119(19) 2685. 2.8909 3.0779
42600. 0.88222 3.079(19) 2771. 2.8905 3.0666
42613. 0.88248 3.053(19) 2767. 2.8900 3.0529
42626. 0.88275 3.063(19) 2748. 2.8896 3.0382
42639. 0.88301 3.044(19) 2784. 2.8891 3.0240
42652. 0.88328 3.031(19) 2795. 2.8886 3.0106
42664. 0.88354 3.021(19) 2792. 2.8882 2.9977
42677. 0.88381 3.009(19) 2813. 2.8877 2.9854
42690. 0.88407 2.983(19) 2838. 2.8873 2.9747
42703. 0.88434 3.012(19) 2831. 2.8868 2.9662
42716. 0.88460 2.986(19) 2878. 2.8863 2.9601
42728. 0.88487 3.000(19) 2856. 2.8859 2.9569
42741. 0.88513 2.997(19) 2832. 2.8854 2.9574
42754. 0.88540 3.000(19) 2849. 2.8849 2.9627
42767. 0.88566 3.016(19) 2787. 2.8845 2.9741
42780. 0.88593 3.034(19) 2773. 2.8840 2.9932
42793. 0.88620 3.076(19) 2753. 2.8835 3.0214
42805. 0.88646 3.111(19) 2734. 2.8831 3.0597
42818. 0.88673 3.096(19) 2741. 2.8826 3.1070
42831. 0.88699 3.116(19) 2740. 2.8822 3.1566
42844. 0.88726 3.163(19) 2689. 2.8817 3.1957
42857. 0.88753 3.179(19) 2662. 2.8812 3.2118
42870. 0.88779 3.170(19) 2663. 2.8808 3.2011
42882. 0.88806 3.143(19) 2722. 2.8803 3.1722
42895. 0.88832 3.122(19) 2750. 2.8798 3.1391
42908. 0.88859 3.106(19) 2749. 2.8794 3.1142
42921. 0.88886 3.120(19) 2735. 2.8789 3.1043
42934. 0.88912 3.095(19) 2769. 2.8784 3.1092
42947. 0.88939 3.125(19) 2757. 2.8780 3.1214
42960. 0.88966 3.148(19) 2724. 2.8775 3.1290
42973. 0.88993 3.119(19) 2762. 2.8770 3.1231
42985. 0.89019 3.127(19) 2739. 2.8766 3.1036
42998. 0.89046 3.101(19) 2768. 2.8761 3.0771
43011. 0.89073 3.056(19) 2816. 2.8756 3.0511
43024. 0.89099 3.058(19) 2818. 2.8751 3.0307
43037. 0.89126 3.021(19) 2852. 2.8747 3.0174
43050. 0.89153 3.045(19) 2801. 2.8742 3.0097
43063. 0.89180 2.980(19) 2914. 2.8737 3.0051
43076. 0.89206 2.955(18) 2978. 2.8733 3.0025
43089. 0.89233 2.981(18) 2928. 2.8728 3.0017
43102. 0.89260 3.019(19) 2858. 2.8723 3.0026
43115. 0.89287 3.000(19) 2865. 2.8719 3.0048
43128. 0.89313 2.994(19) 2891. 2.8714 3.0084
43140. 0.89340 3.039(19) 2850. 2.8709 3.0138
43153. 0.89367 3.042(19) 2828. 2.8705 3.0207
43166. 0.89394 3.028(19) 2861. 2.8700 3.0288
43179. 0.89421 3.047(19) 2876. 2.8695 3.0388
43192. 0.89448 3.070(19) 2829. 2.8690 3.0533
43205. 0.89474 3.066(19) 2834. 2.8686 3.0758
43218. 0.89501 3.132(19) 2745. 2.8681 3.1066
43231. 0.89528 3.120(19) 2795. 2.8676 3.1409
43244. 0.89555 3.174(19) 2706. 2.8672 3.1711
43257. 0.89582 3.184(19) 2732. 2.8667 3.1931
43270. 0.89609 3.148(19) 2760. 2.8662 3.2077
43283. 0.89636 3.196(19) 2731. 2.8657 3.2177
43296. 0.89663 3.223(19) 2701. 2.8653 3.2246
43309. 0.89689 3.244(19) 2671. 2.8648 3.2261
43322. 0.89716 3.218(19) 2678. 2.8643 3.2190
43335. 0.89743 3.194(19) 2722. 2.8639 3.2044
43348. 0.89770 3.236(19) 2655. 2.8634 3.1879
43361. 0.89797 3.197(19) 2721. 2.8629 3.1761
43374. 0.89824 3.175(19) 2735. 2.8624 3.1715
43387. 0.89851 3.216(19) 2685. 2.8620 3.1710
43400. 0.89878 3.191(19) 2683. 2.8615 3.1692
43413. 0.89905 3.146(19) 2787. 2.8610 3.1633
43426. 0.89932 3.153(19) 2773. 2.8606 3.1517
43439. 0.89959 3.154(19) 2750. 2.8601 3.1326
43452. 0.89986 3.135(19) 2787. 2.8596 3.1066
43465. 0.90013 3.089(19) 2842. 2.8591 3.0764
43478. 0.90040 3.070(19) 2825. 2.8587 3.0449
43491. 0.90067 3.044(19) 2850. 2.8582 3.0159
43504. 0.90094 3.046(19) 2816. 2.8577 2.9926
43517. 0.90121 2.979(18) 2944. 2.8573 2.9775
43530. 0.90148 3.002(19) 2911. 2.8568 2.9713
43544. 0.90175 2.974(18) 2942. 2.8563 2.9732
43557. 0.90202 2.980(18) 2951. 2.8558 2.9798
43570. 0.90229 2.954(18) 2953. 2.8554 2.9860
43583. 0.90256 2.983(18) 2949. 2.8549 2.9872
43596. 0.90283 2.946(18) 3020. 2.8544 2.9824
43609. 0.90310 2.969(18) 3003. 2.8539 2.9739
43622. 0.90338 2.928(18) 2994. 2.8535 2.9651
43635. 0.90365 2.935(18) 2998. 2.8530 2.9584
43648. 0.90392 2.965(18) 2978. 2.8525 2.9553
43661. 0.90419 2.979(18) 2958. 2.8521 2.9579
43674. 0.90446 2.965(18) 2972. 2.8516 2.9687
43687. 0.90473 2.983(18) 2954. 2.8511 2.9905
43701. 0.90500 3.030(19) 2897. 2.8506 3.0254
43714. 0.90527 3.093(19) 2839. 2.8502 3.0734
43727. 0.90555 3.169(19) 2738. 2.8497 3.1295
43740. 0.90582 3.187(19) 2737. 2.8492 3.1818
43753. 0.90609 3.211(19) 2708. 2.8487 3.2176
43766. 0.90636 3.175(19) 2764. 2.8483 3.2327
43779. 0.90663 3.199(19) 2717. 2.8478 3.2277
43792. 0.90691 3.165(19) 2777. 2.8473 3.2023
43806. 0.90718 3.141(19) 2784. 2.8469 3.1600
43819. 0.90745 3.096(19) 2832. 2.8464 3.1085
43832. 0.90772 3.065(19) 2848. 2.8459 3.0564
43845. 0.90799 2.998(18) 2929. 2.8454 3.0103
43858. 0.90827 2.972(18) 2953. 2.8450 2.9732
43871. 0.90854 2.942(18) 2993. 2.8445 2.9452
43884. 0.90881 2.954(18) 2968. 2.8440 2.9247
43898. 0.90909 2.913(18) 3036. 2.8436 2.9100
43911. 0.90936 2.897(18) 3036. 2.8431 2.8995
43924. 0.90963 2.877(18) 3088. 2.8426 2.8919
43937. 0.90990 2.898(18) 3014. 2.8421 2.8859
43950. 0.91018 2.869(18) 3059. 2.8417 2.8811
43963. 0.91045 2.856(18) 3068. 2.8412 2.8777
43977. 0.91072 2.869(18) 3053. 2.8407 2.8758
43990. 0.91100 2.885(18) 3031. 2.8403 2.8758
44003. 0.91127 2.873(18) 3064. 2.8398 2.8776
44016. 0.91154 2.895(18) 3040. 2.8393 2.8806
44029. 0.91182 2.894(18) 3032. 2.8388 2.8837
44043. 0.91209 2.875(18) 3061. 2.8384 2.8854
44056. 0.91236 2.874(18) 3063. 2.8379 2.8847
44069. 0.91264 2.879(18) 3081. 2.8374 2.8821
44082. 0.91291 2.893(18) 3037. 2.8370 2.8790
44096. 0.91319 2.888(18) 3046. 2.8365 2.8765
44109. 0.91346 2.886(18) 3077. 2.8360 2.8761
44122. 0.91373 2.882(18) 3071. 2.8356 2.8791
44135. 0.91401 2.916(18) 3029. 2.8351 2.8877
44148. 0.91428 2.922(18) 3018. 2.8346 2.9045
44162. 0.91456 2.933(18) 3042. 2.8341 2.9316
44175. 0.91483 2.970(18) 2961. 2.8337 2.9700
44188. 0.91511 2.996(18) 2968. 2.8332 3.0167
44201. 0.91538 3.019(18) 2943. 2.8327 3.0634
44215. 0.91565 3.070(19) 2869. 2.8323 3.0990
44228. 0.91593 3.105(19) 2801. 2.8318 3.1168
44241. 0.91620 3.124(19) 2814. 2.8313 3.1151
44255. 0.91648 3.092(19) 2868. 2.8309 3.0959
44268. 0.91675 3.084(19) 2889. 2.8304 3.0656
44281. 0.91703 3.080(19) 2877. 2.8299 3.0330
44294. 0.91730 3.061(19) 2903. 2.8295 3.0053
44308. 0.91758 3.049(19) 2897. 2.8290 2.9870
44321. 0.91785 3.018(18) 2960. 2.8285 2.9792
44334. 0.91813 2.992(18) 2972. 2.8281 2.9800
44348. 0.91841 2.988(18) 2972. 2.8276 2.9856
44361. 0.91868 2.990(18) 3005. 2.8271 2.9936
44374. 0.91896 2.992(18) 2964. 2.8267 3.0028
44387. 0.91923 2.981(18) 3024. 2.8262 3.0123
44401. 0.91951 2.998(18) 2987. 2.8257 3.0200
44414. 0.91978 2.987(18) 2987. 2.8253 3.0235
44427. 0.92006 3.009(18) 2939. 2.8248 3.0208
44441. 0.92034 3.005(18) 2959. 2.8243 3.0129
44454. 0.92061 3.009(18) 2992. 2.8239 3.0027
44467. 0.92089 2.997(18) 2982. 2.8234 2.9926
44481. 0.92117 2.966(18) 3026. 2.8229 2.9843
44494. 0.92144 3.000(18) 2969. 2.8225 2.9793
44507. 0.92172 2.983(18) 3002. 2.8220 2.9789
44521. 0.92199 2.973(18) 3018. 2.8216 2.9826
44534. 0.92227 2.964(18) 3013. 2.8211 2.9862
44548. 0.92255 2.964(18) 3035. 2.8206 2.9836
44561. 0.92282 2.967(18) 3053. 2.8202 2.9722
44574. 0.92310 2.937(18) 3055. 2.8197 2.9550
44588. 0.92338 2.939(18) 3062. 2.8192 2.9374
44601. 0.92366 2.937(18) 3055. 2.8188 2.9236
44614. 0.92393 2.890(18) 3133. 2.8183 2.9157
44628. 0.92421 2.901(18) 3133. 2.8179 2.9137
44641. 0.92449 2.908(18) 3138. 2.8174 2.9151
44655. 0.92476 2.921(18) 3112. 2.8169 2.9169
44668. 0.92504 2.930(18) 3034. 2.8165 2.9177
44681. 0.92532 2.938(18) 3059. 2.8160 2.9186
44695. 0.92560 2.912(18) 3119. 2.8155 2.9208
44708. 0.92588 2.901(18) 3121. 2.8151 2.9248
44722. 0.92615 2.934(18) 3064. 2.8146 2.9300
44735. 0.92643 2.942(18) 3060. 2.8142 2.9352
44748. 0.92671 2.908(18) 3099. 2.8137 2.9386
44762. 0.92699 2.900(18) 3142. 2.8133 2.9378
44775. 0.92727 2.892(18) 3144. 2.8128 2.9313
44789. 0.92754 2.904(18) 3154. 2.8123 2.9207
44802. 0.92782 2.887(18) 3157. 2.8119 2.9091
44816. 0.92810 2.863(18) 3186. 2.8114 2.8998
44829. 0.92838 2.862(18) 3167. 2.8110 2.8958
44842. 0.92866 2.903(18) 3112. 2.8105 2.8991
44856. 0.92894 2.919(18) 3093. 2.8100 2.9108
44869. 0.92921 2.928(18) 3093. 2.8096 2.9307
44883. 0.92949 2.949(18) 3064. 2.8091 2.9568
44896. 0.92977 2.947(18) 3093. 2.8087 2.9853
44910. 0.93005 2.979(18) 3038. 2.8082 3.0118
44923. 0.93033 3.000(18) 3038. 2.8078 3.0320
44937. 0.93061 3.021(18) 2983. 2.8073 3.0418
44950. 0.93089 3.018(18) 2982. 2.8069 3.0385
44964. 0.93117 3.030(18) 2979. 2.8064 3.0230
44977. 0.93145 2.972(18) 3047. 2.8060 3.0001
44991. 0.93173 2.968(18) 3035. 2.8055 2.9759
45004. 0.93201 2.920(18) 3115. 2.8050 2.9547
45018. 0.93229 2.946(18) 3087. 2.8046 2.9392
45031. 0.93257 2.907(18) 3152. 2.8041 2.9297
45045. 0.93285 2.893(18) 3135. 2.8037 2.9252
45058. 0.93313 2.890(18) 3183. 2.8032 2.9252
45072. 0.93341 2.920(18) 3136. 2.8028 2.9302
45085. 0.93369 2.933(18) 3116. 2.8023 2.9402
45099. 0.93397 2.952(18) 3038. 2.8019 2.9544
45112. 0.93425 2.959(18) 3077. 2.8014 2.9702
45126. 0.93453 2.984(18) 3047. 2.8010 2.9823
45139. 0.93481 2.954(18) 3087. 2.8005 2.9858
45153. 0.93509 2.968(18) 3062. 2.8001 2.9798
45166. 0.93537 2.977(18) 3059. 2.7996 2.9672
45180. 0.93565 2.927(18) 3114. 2.7992 2.9512
45194. 0.93593 2.927(18) 3106. 2.7987 2.9338
45207. 0.93621 2.907(18) 3118. 2.7983 2.9167
45221. 0.93649 2.899(18) 3140. 2.7978 2.9014
45234. 0.93677 2.877(18) 3169. 2.7974 2.8890
45248. 0.93705 2.870(18) 3183. 2.7970 2.8806
45261. 0.93733 2.857(18) 3182. 2.7965 2.8771
45275. 0.93762 2.904(18) 3120. 2.7961 2.8794
45289. 0.93790 2.903(18) 3123. 2.7956 2.8893
45302. 0.93818 2.931(18) 3104. 2.7952 2.9071
45316. 0.93846 2.922(18) 3136. 2.7947 2.9311
45329. 0.93874 2.953(18) 3075. 2.7943 2.9562
45343. 0.93902 2.936(18) 3089. 2.7938 2.9748
45357. 0.93931 2.947(18) 3105. 2.7934 2.9800
45370. 0.93959 2.953(18) 3088. 2.7930 2.9696
45384. 0.93987 2.914(18) 3151. 2.7925 2.9488
45397. 0.94015 2.877(18) 3192. 2.7921 2.9250
45411. 0.94043 2.881(18) 3161. 2.7916 2.9037
45425. 0.94072 2.881(18) 3174. 2.7912 2.8882
45438. 0.94100 2.884(18) 3193. 2.7907 2.8794
45452. 0.94128 2.877(18) 3157. 2.7903 2.8763
45466. 0.94156 2.855(18) 3198. 2.7899 2.8774
45479. 0.94184 2.832(18) 3265. 2.7894 2.8814
45493. 0.94213 2.864(18) 3171. 2.7890 2.8884
45506. 0.94241 2.873(18) 3220. 2.7885 2.8987
45520. 0.94269 2.928(18) 3097. 2.7881 2.9128
45534. 0.94298 2.889(18) 3191. 2.7877 2.9302
45547. 0.94326 2.930(18) 3118. 2.7872 2.9500
45561. 0.94354 2.927(18) 3123. 2.7868 2.9701
45575. 0.94383 2.939(18) 3115. 2.7864 2.9875
45588. 0.94411 2.941(18) 3137. 2.7859 2.9988
45602. 0.94439 2.984(18) 3058. 2.7855 3.0026
45616. 0.94467 2.995(18) 3043. 2.7851 3.0020
45629. 0.94496 2.986(18) 3059. 2.7846 3.0025
45643. 0.94524 2.976(18) 3118. 2.7842 3.0062
45657. 0.94553 2.991(18) 3071. 2.7838 3.0100
45671. 0.94581 2.983(18) 3059. 2.7833 3.0090
45684. 0.94609 2.943(18) 3116. 2.7829 3.0005
45698. 0.94638 2.940(18) 3097. 2.7825 2.9839
45712. 0.94666 2.919(18) 3097. 2.7820 2.9611
45725. 0.94694 2.911(18) 3122. 2.7816 2.9366
45739. 0.94723 2.875(18) 3206. 2.7812 2.9148
45753. 0.94751 2.860(18) 3221. 2.7807 2.8984
45767. 0.94780 2.845(18) 3256. 2.7803 2.8886
45780. 0.94808 2.869(18) 3176. 2.7799 2.8844
45794. 0.94837 2.869(18) 3190. 2.7794 2.8840
45808. 0.94865 2.854(18) 3222. 2.7790 2.8872
45821. 0.94894 2.887(18) 3201. 2.7786 2.8949
45835. 0.94922 2.863(18) 3182. 2.7782 2.9074
45849. 0.94951 2.853(18) 3203. 2.7777 2.9229
45863. 0.94979 2.878(18) 3195. 2.7773 2.9374
45876. 0.95008 2.906(18) 3134. 2.7769 2.9479
45890. 0.95036 2.912(18) 3161. 2.7765 2.9541
45904. 0.95065 2.891(18) 3170. 2.7760 2.9586
45918. 0.95093 2.904(18) 3168. 2.7756 2.9636
45932. 0.95122 2.921(18) 3177. 2.7752 2.9686
45945. 0.95150 2.963(18) 0.0 2.7748 .
45959. 0.95179 2.944(18) 0.0 2.7743 .
45973. 0.95207 2.946(18) 0.0 2.7739 .
45987. 0.95236 2.903(18) 0.0 2.7735 .
46001. 0.95264 2.878(18) 0.0 2.7731 .
46014. 0.95293 2.878(18) 0.0 2.7726 .
46028. 0.95322 2.880(18) 0.0 2.7722 .
46042. 0.95350 2.887(18) 0.0 2.7718 .
46056. 0.95379 2.909(18) 0.0 2.7714 .
46070. 0.95407 2.944(18) 0.0 2.7710 .
46083. 0.95436 2.975(18) 0.0 2.7705 .
46097. 0.95465 2.995(18) 0.0 2.7701 .
46111. 0.95493 3.040(18) 0.0 2.7697 .
46125. 0.95522 2.998(18) 0.0 2.7693 .
46139. 0.95551 2.934(18) 0.0 2.7689 .
46153. 0.95579 2.896(18) 0.0 2.7685 .
46166. 0.95608 2.869(18) 0.0 2.7680 .
46180. 0.95637 2.869(18) 0.0 2.7676 .
46194. 0.95665 2.828(18) 0.0 2.7672 .
46208. 0.95694 2.855(18) 0.0 2.7668 .
46222. 0.95723 2.843(18) 0.0 2.7664 .
46236. 0.95752 2.876(18) 0.0 2.7660 .
46250. 0.95780 2.894(18) 3161. 2.7656 2.9099
46263. 0.95809 2.870(18) 3213. 2.7652 2.9422
46277. 0.95838 2.942(18) 3134. 2.7647 2.9755
46291. 0.95866 2.949(18) 3117. 2.7643 3.0035
46305. 0.95895 2.987(18) 3060. 2.7639 3.0213
46319. 0.95924 2.994(18) 3036. 2.7635 3.0254
46333. 0.95953 3.001(18) 3029. 2.7631 3.0137
46347. 0.95982 2.970(18) 3102. 2.7627 2.9888
46361. 0.96010 2.942(18) 3090. 2.7623 2.9576
46375. 0.96039 2.911(18) 3170. 2.7619 2.9271
46388. 0.96068 2.888(18) 3150. 2.7615 2.9021
46402. 0.96097 2.877(18) 3163. 2.7611 2.8854
46416. 0.96126 2.849(18) 3199. 2.7607 2.8786
46430. 0.96155 2.873(18) 3189. 2.7603 2.8808
46444. 0.96183 2.869(18) 3202. 2.7598 2.8886
46458. 0.96212 2.861(18) 3203. 2.7594 2.8965
46472. 0.96241 2.870(18) 3184. 2.7590 2.8982
46486. 0.96270 2.843(18) 3200. 2.7586 2.8900
46500. 0.96299 2.857(18) 3205. 2.7582 2.8736
46514. 0.96328 2.843(18) 3208. 2.7578 2.8538
46528. 0.96357 2.835(18) 3207. 2.7574 2.8348
46542. 0.96386 2.804(18) 3255. 2.7570 2.8189
46556. 0.96415 2.769(17) 3335. 2.7566 2.8068
46570. 0.96443 2.780(17) 3273. 2.7562 2.7985
46584. 0.96472 2.783(17) 3291. 2.7558 2.7933
46598. 0.96501 2.777(17) 3275. 2.7554 2.7907
46612. 0.96530 2.780(17) 3276. 2.7550 2.7909
46626. 0.96559 2.794(18) 3244. 2.7546 2.7937
46640. 0.96588 2.792(17) 3294. 2.7542 2.7994
46654. 0.96617 2.794(17) 3275. 2.7538 2.8081
46668. 0.96646 2.846(18) 3179. 2.7534 2.8197
46682. 0.96675 2.824(18) 3239. 2.7531 2.8346
46696. 0.96704 2.862(18) 3187. 2.7527 2.8538
46710. 0.96733 2.845(18) 3238. 2.7523 2.8800
46724. 0.96762 2.852(18) 3231. 2.7519 2.9145
46738. 0.96791 2.910(18) 3142. 2.7515 2.9571
46752. 0.96820 2.942(18) 3105. 2.7511 3.0036
46766. 0.96849 3.016(18) 3036. 2.7507 3.0437
46780. 0.96878 3.023(18) 3007. 2.7503 3.0653
46794. 0.96908 3.026(18) 3007. 2.7499 3.0630
46808. 0.96937 3.003(18) 3044. 2.7495 3.0408
46822. 0.96966 2.967(18) 3102. 2.7491 3.0081
46836. 0.96995 2.951(18) 3097. 2.7487 2.9743
46850. 0.97024 2.933(18) 3108. 2.7484 2.9453
46864. 0.97053 2.948(18) 3081. 2.7480 2.9220
46878. 0.97082 2.880(18) 3216. 2.7476 2.9033
46892. 0.97111 2.890(18) 3172. 2.7472 2.8873
46906. 0.97140 2.838(18) 3250. 2.7468 2.8725
46920. 0.97170 2.850(18) 3229. 2.7464 2.8586
46934. 0.97199 2.851(18) 3215. 2.7460 2.8463
46948. 0.97228 2.849(18) 3206. 2.7457 2.8365
46962. 0.97257 2.839(18) 3207. 2.7453 2.8292
46977. 0.97286 2.837(18) 3253. 2.7449 2.8240
46991. 0.97315 2.820(17) 3288. 2.7445 2.8211
47005. 0.97345 2.858(18) 3209. 2.7441 2.8212
47019. 0.97374 2.805(17) 3303. 2.7437 2.8251
47033. 0.97403 2.804(17) 3315. 2.7434 2.8326
47047. 0.97432 2.816(17) 3309. 2.7430 2.8416
47061. 0.97461 2.826(18) 3259. 2.7426 2.8487
47075. 0.97491 2.856(18) 3196. 2.7422 2.8507
47089. 0.97520 2.825(17) 3275. 2.7418 2.8475
47104. 0.97549 2.832(18) 3226. 2.7415 2.8418
47118. 0.97578 2.815(17) 3310. 2.7411 2.8366
47132. 0.97608 2.797(17) 3272. 2.7407 2.8345
47146. 0.97637 2.823(17) 3267. 2.7403 2.8358
47160. 0.97666 2.791(17) 3308. 2.7400 2.8389
47174. 0.97696 2.822(18) 3261. 2.7396 2.8419
47188. 0.97725 2.833(17) 3270. 2.7392 2.8433
47203. 0.97754 2.810(17) 3302. 2.7388 2.8423
47217. 0.97784 2.821(18) 3265. 2.7385 2.8384
47231. 0.97813 2.805(17) 3305. 2.7381 2.8318
47245. 0.97842 2.826(17) 3270. 2.7377 2.8239
47259. 0.97872 2.794(17) 3279. 2.7374 2.8164
47273. 0.97901 2.782(17) 3341. 2.7370 2.8102
47288. 0.97930 2.778(17) 3394. 2.7366 2.8047
47302. 0.97960 2.785(17) 3360. 2.7362 2.7990
47316. 0.97989 2.747(17) 3384. 2.7359 2.7932
47330. 0.98019 2.778(17) 3347. 2.7355 2.7884
47344. 0.98048 2.768(17) 3351. 2.7351 2.7862
47359. 0.98077 2.744(17) 3392. 2.7348 2.7885
47373. 0.98107 2.775(17) 3364. 2.7344 2.7968
47387. 0.98136 2.783(17) 3343. 2.7340 2.8122
47401. 0.98166 2.829(17) 3287. 2.7337 2.8348
47415. 0.98195 2.824(17) 3295. 2.7333 2.8619
47430. 0.98225 2.858(17) 3278. 2.7330 2.8881
47444. 0.98254 2.898(18) 3209. 2.7326 2.9070
47458. 0.98284 2.895(18) 3194. 2.7322 2.9171
47472. 0.98313 2.895(18) 3236. 2.7319 2.9225
47487. 0.98343 2.919(18) 3181. 2.7315 2.9279
47501. 0.98372 2.900(18) 3199. 2.7311 2.9345
47515. 0.98402 2.943(18) 3150. 2.7308 2.9383
47529. 0.98431 2.921(18) 3209. 2.7304 2.9345
47544. 0.98461 2.885(18) 3255. 2.7301 2.9206
47558. 0.98490 2.884(18) 3240. 2.7297 2.8993
47572. 0.98520 2.866(18) 3240. 2.7294 2.8756
47586. 0.98549 2.827(17) 3293. 2.7290 2.8535
47601. 0.98579 2.820(17) 3299. 2.7286 2.8345
47615. 0.98609 2.800(17) 3332. 2.7283 2.8189
47629. 0.98638 2.793(17) 3327. 2.7279 2.8069
47644. 0.98668 2.792(17) 3356. 2.7276 2.7986
47658. 0.98697 2.792(17) 3381. 2.7272 2.7938
47672. 0.98727 2.766(17) 3375. 2.7269 2.7929
47686. 0.98757 2.755(17) 3423. 2.7265 2.7966
47701. 0.98786 2.780(17) 3366. 2.7262 2.8056
47715. 0.98816 2.816(17) 3304. 2.7258 2.8211
47729. 0.98845 2.829(17) 3280. 2.7255 2.8442
47744. 0.98875 2.833(17) 3283. 2.7251 2.8752
47758. 0.98905 2.906(18) 3183. 2.7248 2.9124
47772. 0.98934 2.938(18) 3124. 2.7244 2.9493
47787. 0.98964 3.012(18) 3047. 2.7241 2.9755
47801. 0.98994 2.967(18) 3134. 2.7237 2.9852
47815. 0.99024 2.954(18) 3160. 2.7234 2.9813
47830. 0.99053 2.956(18) 3148. 2.7230 2.9709
47844. 0.99083 2.967(18) 3123. 2.7227 2.9603
47858. 0.99113 2.939(18) 3183. 2.7223 2.9546
47873. 0.99142 2.944(18) 3166. 2.7220 2.9574
47887. 0.99172 2.938(18) 3173. 2.7217 2.9701
47901. 0.99202 2.963(18) 3127. 2.7213 2.9903
47916. 0.99232 3.029(18) 3039. 2.7210 3.0124
47930. 0.99262 3.050(18) 3049. 2.7206 3.0280
47945. 0.99291 3.040(18) 3048. 2.7203 3.0301
47959. 0.99321 3.066(18) 2998. 2.7200 3.0196
47973. 0.99351 3.038(18) 3033. 2.7196 3.0052
47988. 0.99381 3.005(18) 3076. 2.7193 2.9962
48002. 0.99411 2.942(18) 3148. 2.7189 2.9998
48017. 0.99440 2.995(18) 3107. 2.7186 3.0195
48031. 0.99470 3.013(18) 3110. 2.7183 3.0517
48045. 0.99500 3.054(18) 3041. 2.7179 3.0867
48060. 0.99530 3.064(18) 3005. 2.7176 3.1129
48074. 0.99560 3.087(18) 2988. 2.7173 3.1212
48089. 0.99590 3.079(18) 3010. 2.7169 3.1111
48103. 0.99620 3.059(18) 3013. 2.7166 3.0885
48117. 0.99649 3.030(18) 3050. 2.7163 3.0617
48132. 0.99679 2.994(18) 3129. 2.7159 3.0377
48146. 0.99709 2.944(18) 3156. 2.7156 3.0178
48161. 0.99739 2.949(18) 3157. 2.7153 2.9985
48175. 0.99769 2.946(18) 3179. 2.7149 2.9761
48190. 0.99799 2.934(18) 3176. 2.7146 2.9519
48204. 0.99829 2.904(18) 3190. 2.7143 2.9313
48219. 0.99859 2.898(18) 3214. 2.7139 2.9201
48233. 0.99889 2.921(18) 3172. 2.7136 2.9230
48248. 0.99919 2.937(18) 3165. 2.7133 2.9421
48262. 0.99949 2.981(18) 3115. 2.7130 2.9748
48277. 0.99979 3.015(18) 3092. 2.7126 3.0137
48291. 1.00009 3.044(18) 3045. 2.7123 3.0497
48305. 1.00039 3.090(18) 2968. 2.7120 3.0782
48320. 1.00069 3.070(18) 3011. 2.7117 3.1013
48334. 1.00099 3.072(18) 3039. 2.7113 3.1254
48349. 1.00129 3.129(18) 2957. 2.7110 3.1567
48363. 1.00159 3.147(18) 2980. 2.7107 3.1975
48378. 1.00189 3.271(19) 2805. 2.7104 3.2436
48392. 1.00219 3.288(19) 2817. 2.7100 3.2814
48407. 1.00249 3.305(19) 2805. 2.7097 3.2932
48422. 1.00279 3.294(19) 2798. 2.7094 3.2700
48436. 1.00309 3.253(19) 2854. 2.7091 3.2189
48451. 1.00339 3.176(18) 2926. 2.7088 3.1559
48465. 1.00370 3.060(18) 3066. 2.7085 3.0958
48480. 1.00400 3.064(18) 3005. 2.7081 3.0480
48494. 1.00430 3.028(18) 3049. 2.7078 3.0158
48509. 1.00460 2.976(18) 3116. 2.7075 2.9983
48523. 1.00490 2.973(18) 3124. 2.7072 2.9925
48538. 1.00520 2.975(18) 3125. 2.7069 2.9935
48552. 1.00550 3.019(18) 3044. 2.7066 2.9968
48567. 1.00581 2.983(18) 3089. 2.7062 2.9984
48582. 1.00611 2.941(18) 3159. 2.7059 2.9967
48596. 1.00641 2.942(18) 3182. 2.7056 2.9933
48611. 1.00671 2.949(18) 3183. 2.7053 2.9889
48625. 1.00701 2.928(18) 3181. 2.7050 2.9810
48640. 1.00732 2.935(18) 3150. 2.7047 2.9659
48654. 1.00762 2.902(18) 3182. 2.7044 2.9424
48669. 1.00792 2.905(18) 3207. 2.7041 2.9147
48684. 1.00822 2.864(18) 3256. 2.7038 2.8883
48698. 1.00852 2.806(17) 3358. 2.7035 2.8673
48713. 1.00883 2.819(17) 3322. 2.7032 2.8538
48728. 1.00913 2.807(17) 3306. 2.7028 2.8468
48742. 1.00943 2.837(17) 3267. 2.7025 2.8441
48757. 1.00974 2.818(17) 3315. 2.7022 2.8427
48771. 1.01004 2.808(17) 3327. 2.7019 2.8387
48786. 1.01034 2.801(17) 3341. 2.7016 2.8292
48801. 1.01064 2.823(17) 3302. 2.7013 2.8150
48815. 1.01095 2.782(17) 3364. 2.7010 2.7988
48830. 1.01125 2.758(17) 3388. 2.7007 2.7830
48845. 1.01155 2.769(17) 3364. 2.7004 2.7696
48859. 1.01186 2.760(17) 3363. 2.7001 2.7590
48874. 1.01216 2.747(17) 3420. 2.6998 2.7512
48889. 1.01247 2.718(17) 3413. 2.6995 2.7452
48903. 1.01277 2.742(17) 3381. 2.6992 2.7405
48918. 1.01307 2.710(17) 3415. 2.6989 2.7370
48933. 1.01338 2.713(17) 3430. 2.6986 2.7347
48947. 1.01368 2.736(17) 3346. 2.6983 2.7344
48962. 1.01399 2.732(17) 3392. 2.6980 2.7358
48977. 1.01429 2.744(17) 3366. 2.6977 2.7397
48991. 1.01459 2.743(17) 3330. 2.6974 2.7460
49006. 1.01490 2.734(17) 3405. 2.6972 2.7541
49021. 1.01520 2.746(17) 3367. 2.6969 2.7630
49035. 1.01551 2.734(17) 3426. 2.6966 2.7715
49050. 1.01581 2.784(17) 3315. 2.6963 2.7775
49065. 1.01612 2.736(17) 3391. 2.6960 2.7792
49080. 1.01642 2.756(17) 3361. 2.6957 2.7764
49094. 1.01673 2.784(17) 3310. 2.6954 2.7705
49109. 1.01703 2.777(17) 3353. 2.6951 2.7637
49124. 1.01734 2.781(17) 3323. 2.6948 2.7577
49138. 1.01764 2.765(17) 3328. 2.6945 2.7540
49153. 1.01795 2.750(17) 3370. 2.6942 2.7536
49168. 1.01825 2.730(17) 3425. 2.6940 2.7569
49183. 1.01856 2.756(17) 3411. 2.6937 2.7645
49197. 1.01886 2.746(17) 3393. 2.6934 2.7761
49212. 1.01917 2.781(17) 3331. 2.6931 2.7909
49227. 1.01948 2.787(17) 3352. 2.6928 2.8077
49242. 1.01978 2.841(18) 3258. 2.6925 2.8266
49257. 1.02009 2.813(17) 3296. 2.6922 2.8501
49271. 1.02039 2.841(17) 3288. 2.6920 2.8843
49286. 1.02070 2.907(18) 3189. 2.6917 2.9354
49301. 1.02101 2.939(18) 3144. 2.6914 3.0050
49316. 1.02131 3.073(18) 2953. 2.6911 3.0860
49330. 1.02162 3.134(18) 2945. 2.6908 3.1616
49345. 1.02193 3.228(19) 2829. 2.6906 3.2115
49360. 1.02223 3.201(19) 2880. 2.6903 3.2216
49375. 1.02254 3.135(18) 2956. 2.6900 3.1933
49390. 1.02285 3.121(18) 2938. 2.6897 3.1419
49405. 1.02315 3.104(18) 2946. 2.6894 3.0827
49419. 1.02346 3.059(18) 2997. 2.6892 3.0237
49434. 1.02377 2.996(18) 3061. 2.6889 2.9691
49449. 1.02407 2.962(18) 3103. 2.6886 2.9225
49464. 1.02438 2.921(18) 3154. 2.6883 2.8862
49479. 1.02469 2.893(18) 3203. 2.6881 2.8604
49494. 1.02500 2.851(17) 3267. 2.6878 2.8447
49508. 1.02530 2.854(18) 3241. 2.6875 2.8387
49523. 1.02561 2.874(18) 3184. 2.6873 2.8412
49538. 1.02592 2.879(18) 3186. 2.6870 2.8499
49553. 1.02623 2.893(18) 3165. 2.6867 2.8608
49568. 1.02654 2.913(18) 3143. 2.6864 2.8687
49583. 1.02684 2.892(18) 3187. 2.6862 2.8699
49598. 1.02715 2.868(18) 3231. 2.6859 2.8644
49612. 1.02746 2.869(18) 3200. 2.6856 2.8548
49627. 1.02777 2.838(17) 3279. 2.6854 2.8430
49642. 1.02808 2.841(18) 3256. 2.6851 2.8289
49657. 1.02838 2.839(18) 3261. 2.6848 2.8126
49672. 1.02869 2.803(17) 3336. 2.6846 2.7949
49687. 1.02900 2.816(17) 3288. 2.6843 2.7777
49702. 1.02931 2.746(17) 3353. 2.6840 2.7624
49717. 1.02962 2.761(17) 3335. 2.6838 2.7500
49732. 1.02993 2.763(17) 3356. 2.6835 2.7406
49747. 1.03024 2.765(17) 3354. 2.6832 2.7344
49761. 1.03055 2.743(17) 3400. 2.6830 2.7315
49776. 1.03086 2.742(17) 3410. 2.6827 2.7326
49791. 1.03117 2.771(17) 3325. 2.6825 2.7387
49806. 1.03147 2.798(17) 3296. 2.6822 2.7518
49821. 1.03178 2.818(17) 3267. 2.6819 2.7742
49836. 1.03209 2.832(18) 3251. 2.6817 2.8072
49851. 1.03240 2.829(17) 3297. 2.6814 2.8492
49866. 1.03271 2.936(18) 3093. 2.6812 2.8948
49881. 1.03302 2.930(18) 3152. 2.6809 2.9331
49896. 1.03333 2.962(18) 3105. 2.6806 2.9504
49911. 1.03364 2.974(18) 3102. 2.6804 2.9429
49926. 1.03395 2.922(18) 3182. 2.6801 2.9203
49941. 1.03426 2.899(18) 3215. 2.6799 2.8962
49956. 1.03457 2.879(18) 3234. 2.6796 2.8810
49971. 1.03488 2.862(18) 3247. 2.6794 2.8793
49986. 1.03519 2.904(18) 3190. 2.6791 2.8888
50001. 1.03551 2.926(18) 3144. 2.6789 2.9029
50016. 1.03582 2.942(18) 3131. 2.6786 2.9165
50031. 1.03613 2.931(18) 3145. 2.6784 2.9278
50046. 1.03644 2.936(18) 3150. 2.6781 2.9366
50061. 1.03675 2.929(18) 3222. 2.6779 2.9464
50076. 1.03706 2.979(18) 3123. 2.6776 2.9657
50091. 1.03737 3.028(18) 3088. 2.6774 3.0005
50106. 1.03768 3.059(18) 3060. 2.6771 3.0482
50121. 1.03799 3.112(18) 2992. 2.6769 3.0965
50136. 1.03831 3.160(18) 2939. 2.6766 3.1287
50151. 1.03862 3.162(19) 2907. 2.6764 3.1315
50166. 1.03893 3.107(18) 3015. 2.6761 3.1031
50181. 1.03924 3.030(18) 3091. 2.6759 3.0518
50196. 1.03955 2.987(18) 3123. 2.6756 2.9891
50211. 1.03986 2.932(18) 3183. 2.6754 2.9264
50226. 1.04018 2.880(18) 3215. 2.6751 2.8717
50241. 1.04049 2.855(18) 3227. 2.6749 2.8284
50256. 1.04080 2.774(17) 3389. 2.6747 2.7971
50272. 1.04111 2.803(17) 3300. 2.6744 2.7766
50287. 1.04142 2.774(17) 3358. 2.6742 2.7650
50302. 1.04174 2.778(17) 3346. 2.6739 2.7606
50317. 1.04205 2.748(17) 3408. 2.6737 2.7622
50332. 1.04236 2.796(17) 3302. 2.6735 2.7692
50347. 1.04268 2.777(17) 3344. 2.6732 2.7817
50362. 1.04299 2.815(17) 3284. 2.6730 2.7993
50377. 1.04330 2.839(17) 3287. 2.6727 2.8212
50392. 1.04361 2.857(18) 3257. 2.6725 2.8469
50407. 1.04393 2.884(18) 3209. 2.6723 2.8767
50423. 1.04424 2.947(18) 3153. 2.6720 2.9103
50438. 1.04455 2.966(18) 3156. 2.6718 2.9450
50453. 1.04487 2.996(18) 3116. 2.6716 2.9755
50468. 1.04518 3.022(18) 3077. 2.6713 2.9974
50483. 1.04549 3.013(18) 3088. 2.6711 3.0115
50498. 1.04581 3.036(18) 3078. 2.6708 3.0234
50513. 1.04612 3.085(18) 2988. 2.6706 3.0434
50529. 1.04644 3.096(18) 3002. 2.6704 3.0836
50544. 1.04675 3.164(19) 2921. 2.6701 3.1495
50559. 1.04706 3.248(19) 2844. 2.6699 3.2354
50574. 1.04738 3.317(19) 2793. 2.6697 3.3233
50589. 1.04769 3.437(19) 2669. 2.6695 3.3904
50604. 1.04801 3.431(19) 2680. 2.6692 3.4225
50620. 1.04832 3.455(19) 2663. 2.6690 3.4175
50635. 1.04864 3.389(19) 2700. 2.6688 3.3828
50650. 1.04895 3.330(19) 2771. 2.6685 3.3339
50665. 1.04927 3.307(19) 2776. 2.6683 3.2864
50680. 1.04958 3.245(19) 2846. 2.6681 3.2483
50696. 1.04989 3.214(19) 2840. 2.6679 3.2178
50711. 1.05021 3.233(19) 2832. 2.6676 3.1842
50726. 1.05052 3.176(19) 2899. 2.6674 3.1396
50741. 1.05084 3.089(18) 2996. 2.6672 3.0872
50756. 1.05116 3.017(18) 3055. 2.6670 3.0360
50772. 1.05147 3.009(18) 3065. 2.6667 2.9940
50787. 1.05179 2.981(18) 3085. 2.6665 2.9644
50802. 1.05210 2.941(18) 3124. 2.6663 2.9441
50817. 1.05242 2.935(18) 3124. 2.6661 2.9260
50833. 1.05273 2.939(18) 3124. 2.6658 2.9055
50848. 1.05305 2.903(18) 3137. 2.6656 2.8825
50863. 1.05337 2.874(18) 3177. 2.6654 2.8600
50878. 1.05368 2.831(18) 3249. 2.6652 2.8411
50894. 1.05400 2.797(17) 3312. 2.6650 2.8288
50909. 1.05431 2.814(18) 3265. 2.6647 2.8255
50924. 1.05463 2.824(17) 3269. 2.6645 2.8319
50939. 1.05495 2.867(18) 3175. 2.6643 2.8445
50955. 1.05526 2.871(18) 3165. 2.6641 2.8554
50970. 1.05558 2.859(18) 3202. 2.6639 2.8564
50985. 1.05590 2.861(18) 3194. 2.6637 2.8456
51001. 1.05621 2.842(18) 3220. 2.6634 2.8276
51016. 1.05653 2.839(18) 3208. 2.6632 2.8087
51031. 1.05685 2.800(17) 3273. 2.6630 2.7938
51046. 1.05716 2.819(18) 3258. 2.6628 2.7866
51062. 1.05748 2.789(17) 3287. 2.6626 2.7887
51077. 1.05780 2.814(18) 3240. 2.6624 2.8011
51092. 1.05812 2.832(18) 3213. 2.6621 2.8254
51108. 1.05843 2.861(18) 3202. 2.6619 2.8627
51123. 1.05875 2.910(18) 3114. 2.6617 2.9121
51138. 1.05907 2.961(18) 3117. 2.6615 2.9701
51154. 1.05939 3.063(18) 2976. 2.6613 3.0309
51169. 1.05970 3.091(18) 2978. 2.6611 3.0848
51184. 1.06002 3.105(18) 2940. 2.6609 3.1161
51200. 1.06034 3.130(18) 2925. 2.6607 3.1108
51215. 1.06066 3.074(18) 2971. 2.6605 3.0697
51231. 1.06098 3.016(18) 3018. 2.6603 3.0075
51246. 1.06130 2.952(18) 3065. 2.6600 2.9409
51261. 1.06161 2.904(18) 3125. 2.6598 2.8827
51277. 1.06193 2.845(18) 3252. 2.6596 2.8398
51292. 1.06225 2.812(17) 3276. 2.6594 2.8150
51307. 1.06257 2.817(17) 3284. 2.6592 2.8088
51323. 1.06289 2.802(17) 3266. 2.6590 2.8207
51338. 1.06321 2.844(18) 3227. 2.6588 2.8487
51354. 1.06353 2.905(18) 3121. 2.6586 2.8879
51369. 1.06385 2.936(18) 3128. 2.6584 2.9293
51384. 1.06416 2.987(18) 3055. 2.6582 2.9646
51400. 1.06448 2.982(18) 3056. 2.6580 2.9924
51415. 1.06480 3.003(18) 2991. 2.6578 3.0143
51431. 1.06512 3.000(18) 3045. 2.6576 3.0280
51446. 1.06544 3.027(18) 3001. 2.6574 3.0300
51462. 1.06576 3.030(18) 3021. 2.6572 3.0206
51477. 1.06608 3.033(18) 2995. 2.6570 3.0066
51492. 1.06640 3.035(18) 3012. 2.6568 2.9994
51508. 1.06672 3.019(18) 3033. 2.6566 3.0088
51523. 1.06704 3.056(18) 2988. 2.6564 3.0356
51539. 1.06736 3.073(18) 2925. 2.6562 3.0676
51554. 1.06768 3.137(19) 2885. 2.6560 3.0854
51570. 1.06800 3.055(18) 2989. 2.6558 3.0778
51585. 1.06832 3.048(18) 2985. 2.6556 3.0456
51601. 1.06864 2.982(18) 3049. 2.6554 2.9968
51616. 1.06896 2.948(18) 3086. 2.6552 2.9418
51632. 1.06929 2.883(18) 3176. 2.6550 2.8886
51647. 1.06961 2.847(18) 3220. 2.6548 2.8411
51663. 1.06993 2.828(18) 3221. 2.6546 2.8014
51678. 1.07025 2.795(18) 3264. 2.6544 2.7701
51694. 1.07057 2.757(17) 3337. 2.6542 2.7466
51709. 1.07089 2.732(17) 3341. 2.6540 2.7298
51725. 1.07121 2.715(17) 3342. 2.6538 2.7174
51740. 1.07153 2.738(17) 3314. 2.6536 2.7082
51756. 1.07185 2.734(17) 3321. 2.6535 2.7012
51771. 1.07218 2.711(17) 3349. 2.6533 2.6956
51787. 1.07250 2.677(17) 3409. 2.6531 2.6914
51802. 1.07282 2.686(17) 3417. 2.6529 2.6882
51818. 1.07314 2.682(17) 3420. 2.6527 2.6861
51833. 1.07346 2.705(17) 3340. 2.6525 2.6847
51849. 1.07379 2.748(18) 3254. 2.6523 2.6840
51864. 1.07411 2.702(17) 3374. 2.6521 2.6841
51880. 1.07443 2.678(17) 3400. 2.6519 2.6848
51896. 1.07475 2.698(17) 3395. 2.6517 2.6866
51911. 1.07508 2.749(17) 3286. 2.6516 2.6892
51927. 1.07540 2.717(17) 3328. 2.6514 2.6923
51942. 1.07572 2.734(17) 3308. 2.6512 2.6957
51958. 1.07604 2.725(17) 3337. 2.6510 2.6990
51974. 1.07637 2.737(17) 3331. 2.6508 2.7029
51989. 1.07669 2.739(17) 3283. 2.6506 2.7091
52005. 1.07701 2.733(17) 3309. 2.6504 2.7194
52020. 1.07734 2.723(17) 3342. 2.6503 2.7357
52036. 1.07766 2.773(18) 3212. 2.6501 2.7594
52052. 1.07798 2.800(18) 3200. 2.6499 2.7897
52067. 1.07831 2.819(18) 3198. 2.6497 2.8236
52083. 1.07863 2.855(18) 3185. 2.6495 2.8556
52098. 1.07895 2.875(18) 3130. 2.6493 2.8826
52114. 1.07928 2.889(18) 3118. 2.6492 2.9080
52130. 1.07960 2.921(18) 3122. 2.6490 2.9388
52145. 1.07992 2.954(18) 3042. 2.6488 2.9813
52161. 1.08025 3.010(18) 2979. 2.6486 3.0355
52177. 1.08057 3.050(18) 2954. 2.6484 3.0919
52192. 1.08090 3.122(19) 2866. 2.6483 3.1337
52208. 1.08122 3.133(19) 2857. 2.6481 3.1493
52224. 1.08155 3.124(19) 2875. 2.6479 3.1386
52239. 1.08187 3.134(19) 2832. 2.6477 3.1086
52255. 1.08219 3.081(19) 2914. 2.6475 3.0728
52271. 1.08252 3.047(18) 2957. 2.6474 3.0463
52286. 1.08284 3.080(19) 2919. 2.6472 3.0395
52302. 1.08317 3.068(18) 2923. 2.6470 3.0538
52318. 1.08349 3.113(19) 2871. 2.6468 3.0815
52333. 1.08382 3.120(19) 2873. 2.6466 3.1090
52349. 1.08414 3.164(19) 2839. 2.6465 3.1245
52365. 1.08447 3.132(19) 2879. 2.6463 3.1268
52380. 1.08479 3.130(19) 2882. 2.6461 3.1239
52396. 1.08512 3.105(19) 2901. 2.6459 3.1240
52412. 1.08545 3.084(19) 2906. 2.6458 3.1305
52428. 1.08577 3.146(19) 2843. 2.6456 3.1404
52443. 1.08610 3.163(19) 2803. 2.6454 3.1458
52459. 1.08642 3.151(19) 2847. 2.6452 3.1385
52475. 1.08675 3.136(19) 2854. 2.6451 3.1165
52491. 1.08708 3.064(18) 2939. 2.6449 3.0870
52506. 1.08740 3.088(19) 2892. 2.6447 3.0636
52522. 1.08773 3.071(19) 2908. 2.6446 3.0595
52538. 1.08805 3.083(18) 2939. 2.6444 3.0831
52554. 1.08838 3.147(19) 2880. 2.6442 3.1371
52569. 1.08871 3.268(19) 2726. 2.6440 3.2182
52585. 1.08903 3.276(19) 2732. 2.6439 3.3154
52601. 1.08936 3.409(20) 2616. 2.6437 3.4056
52617. 1.08969 3.428(20) 2607. 2.6435 3.4573
52632. 1.09001 3.446(20) 2568. 2.6434 3.4478
52648. 1.09034 3.395(20) 2618. 2.6432 3.3795
52664. 1.09067 3.270(19) 2742. 2.6430 3.2762
52680. 1.09100 3.166(19) 2823. 2.6429 3.1664
52696. 1.09132 3.107(19) 2885. 2.6427 3.0703
52711. 1.09165 3.019(18) 2985. 2.6425 2.9981
52727. 1.09198 2.988(18) 3000. 2.6424 2.9521
52743. 1.09231 2.951(18) 3041. 2.6422 2.9292
52759. 1.09263 2.930(18) 3080. 2.6420 2.9218
52775. 1.09296 2.929(18) 3087. 2.6419 2.9182
52791. 1.09329 2.922(18) 3086. 2.6417 2.9094
52806. 1.09362 2.892(18) 3107. 2.6415 2.8948
52822. 1.09395 2.904(18) 3109. 2.6414 2.8797
52838. 1.09427 2.877(18) 3130. 2.6412 2.8690
52854. 1.09460 2.838(18) 3200. 2.6410 2.8635
52870. 1.09493 2.870(18) 3141. 2.6409 2.8602
52886. 1.09526 2.891(18) 3113. 2.6407 2.8561
52901. 1.09559 2.881(18) 3091. 2.6405 2.8526
52917. 1.09592 2.891(18) 3128. 2.6404 2.8534
52933. 1.09625 2.871(18) 3165. 2.6402 2.8621
52949. 1.09657 2.961(18) 3041. 2.6401 2.8800
52965. 1.09690 2.957(18) 3062. 2.6399 2.9068
52981. 1.09723 2.996(18) 3013. 2.6397 2.9426
52997. 1.09756 3.017(18) 2999. 2.6396 2.9880
53013. 1.09789 3.053(18) 2959. 2.6394 3.0414
53029. 1.09822 3.063(18) 2944. 2.6392 3.0949
53044. 1.09855 3.122(19) 2900. 2.6391 3.1410
53060. 1.09888 3.123(19) 2912. 2.6389 3.1831
53076. 1.09921 3.158(19) 2883. 2.6388 3.2292
53092. 1.09954 3.230(19) 2790. 2.6386 3.2781
53108. 1.09987 3.248(19) 2778. 2.6384 3.3175
53124. 1.10020 3.298(19) 2696. 2.6383 3.3307
53140. 1.10053 3.292(19) 2742. 2.6381 3.3060
53156. 1.10086 3.200(19) 2819. 2.6380 3.2469
53172. 1.10119 3.192(19) 2819. 2.6378 3.1686
53188. 1.10152 3.092(18) 2928. 2.6377 3.0854
53204. 1.10185 3.059(18) 2944. 2.6375 3.0074
53220. 1.10218 2.985(18) 3008. 2.6373 2.9410
53236. 1.10251 2.937(18) 3063. 2.6372 2.8902
53252. 1.10284 2.896(18) 3122. 2.6370 2.8579
53268. 1.10317 2.914(18) 3091. 2.6369 2.8462
53284. 1.10351 2.890(18) 3117. 2.6367 2.8557
53300. 1.10384 2.904(18) 3098. 2.6366 2.8836
53316. 1.10417 2.945(18) 3057. 2.6364 2.9231
53332. 1.10450 3.022(18) 2976. 2.6362 2.9601
53348. 1.10483 3.016(18) 2988. 2.6361 2.9805
53364. 1.10516 3.008(18) 3023. 2.6359 2.9819
53380. 1.10549 2.994(18) 2996. 2.6358 2.9735
53396. 1.10582 3.005(18) 2945. 2.6356 2.9668
53412. 1.10616 2.955(18) 3045. 2.6355 2.9689
53428. 1.10649 3.000(18) 2981. 2.6353 2.9847
53444. 1.10682 3.057(19) 2890. 2.6352 3.0138
53460. 1.10715 3.091(19) 2919. 2.6350 3.0529
53476. 1.10748 3.140(19) 2851. 2.6349 3.0989
53492. 1.10782 3.222(19) 2767. 2.6347 3.1463
53508. 1.10815 3.198(19) 2809. 2.6346 3.1884
53524. 1.10848 3.254(19) 2730. 2.6344 3.2270
53540. 1.10881 3.287(19) 2713. 2.6343 3.2705
53556. 1.10915 3.310(19) 2700. 2.6341 3.3204
53572. 1.10948 3.348(19) 2661. 2.6340 3.3625
53588. 1.10981 3.382(20) 2618. 2.6338 3.3736
53604. 1.11015 3.343(19) 2641. 2.6337 3.3431
53620. 1.11048 3.279(19) 2679. 2.6335 3.2785
53636. 1.11081 3.191(19) 2755. 2.6334 3.1973
53653. 1.11115 3.135(19) 2812. 2.6332 3.1172
53669. 1.11148 3.064(19) 2910. 2.6331 3.0506
53685. 1.11181 3.018(18) 2959. 2.6329 3.0037
53701. 1.11215 3.004(18) 2938. 2.6328 2.9787
53717. 1.11248 2.988(18) 2978. 2.6326 2.9750
53733. 1.11281 3.002(18) 2936. 2.6325 2.9896
53749. 1.11315 3.021(18) 2933. 2.6323 3.0179
53765. 1.11348 3.034(19) 2921. 2.6322 3.0527
53781. 1.11382 3.065(19) 2888. 2.6320 3.0811
53798. 1.11415 3.079(19) 2860. 2.6319 3.0879
53814. 1.11448 3.068(19) 2885. 2.6317 3.0661
53830. 1.11482 2.990(18) 2981. 2.6316 3.0218
53846. 1.11515 2.985(18) 2949. 2.6314 2.9668
53862. 1.11549 2.902(18) 3042. 2.6313 2.9112
53878. 1.11582 2.883(18) 3061. 2.6311 2.8616
53895. 1.11616 2.851(18) 3095. 2.6310 2.8205
53911. 1.11649 2.832(18) 3120. 2.6308 2.7885
53927. 1.11683 2.833(18) 3096. 2.6307 2.7646
53943. 1.11716 2.790(18) 3187. 2.6306 2.7476
53959. 1.11750 2.761(18) 3237. 2.6304 2.7362
53975. 1.11783 2.767(18) 3198. 2.6303 2.7290
53992. 1.11817 2.773(18) 3173. 2.6301 2.7242
54008. 1.11850 2.745(18) 3204. 2.6300 2.7213
54024. 1.11884 2.754(18) 3204. 2.6298 2.7208
54040. 1.11918 2.760(18) 3227. 2.6297 2.7243
54056. 1.11951 2.773(18) 3222. 2.6295 2.7329
54073. 1.11985 2.755(18) 3263. 2.6294 2.7472
54089. 1.12018 2.780(18) 3210. 2.6293 2.7673
54105. 1.12052 2.823(18) 3134. 2.6291 2.7914
54121. 1.12086 2.836(18) 3109. 2.6290 2.8159
54138. 1.12119 2.863(18) 3100. 2.6288 2.8344
54154. 1.12153 2.844(18) 3130. 2.6287 2.8419
54170. 1.12186 2.857(18) 3090. 2.6285 2.8372
54186. 1.12220 2.867(18) 3076. 2.6284 2.8230
54203. 1.12254 2.802(18) 3174. 2.6283 2.8040
54219. 1.12287 2.809(18) 3131. 2.6281 2.7845
54235. 1.12321 2.829(18) 3110. 2.6280 2.7690
54251. 1.12355 2.820(18) 3111. 2.6278 2.7612
54268. 1.12389 2.833(18) 3099. 2.6277 2.7652
54284. 1.12422 2.812(18) 3183. 2.6276 2.7860
54300. 1.12456 2.853(18) 3117. 2.6274 2.8301
54316. 1.12490 2.935(18) 3010. 2.6273 2.9041
54333. 1.12524 3.046(18) 2933. 2.6271 3.0103
54349. 1.12557 3.169(19) 2805. 2.6270 3.1413
54365. 1.12591 3.301(19) 2672. 2.6268 3.2735
54382. 1.12625 3.404(20) 2597. 2.6267 3.3715
54398. 1.12659 3.418(20) 2559. 2.6266 3.4086
54414. 1.12692 3.363(20) 2612. 2.6264 3.3830
54431. 1.12726 3.322(19) 2645. 2.6263 3.3118
54447. 1.12760 3.241(19) 2705. 2.6262 3.2150
54463. 1.12794 3.150(19) 2784. 2.6260 3.1123
54480. 1.12828 3.034(18) 2923. 2.6259 3.0203
54496. 1.12862 2.988(18) 2938. 2.6257 2.9516
54512. 1.12895 2.966(18) 2975. 2.6256 2.9112
54529. 1.12929 2.947(18) 2992. 2.6255 2.8986
54545. 1.12963 2.958(18) 3017. 2.6253 2.9074
54561. 1.12997 2.959(18) 2966. 2.6252 2.9245
54578. 1.13031 2.990(18) 2935. 2.6250 2.9334
54594. 1.13065 2.979(18) 2973. 2.6249 2.9243
54611. 1.13099 2.934(18) 3013. 2.6248 2.9002
54627. 1.13133 2.872(18) 3061. 2.6246 2.8696
54643. 1.13167 2.867(18) 3064. 2.6245 2.8392
54660. 1.13201 2.836(18) 3087. 2.6244 2.8120
54676. 1.13235 2.821(18) 3144. 2.6242 2.7892
54692. 1.13269 2.798(18) 3156. 2.6241 2.7718
54709. 1.13303 2.795(18) 3149. 2.6239 2.7627
54725. 1.13337 2.772(18) 3189. 2.6238 2.7655
54742. 1.13371 2.819(18) 3115. 2.6237 2.7830
54758. 1.13405 2.823(18) 3093. 2.6235 2.8149
54775. 1.13439 2.852(18) 3078. 2.6234 2.8553
54791. 1.13473 2.917(18) 2940. 2.6233 2.8920
54807. 1.13507 2.860(18) 3080. 2.6231 2.9116
54824. 1.13541 2.933(18) 2949. 2.6230 2.9127
54840. 1.13575 2.926(18) 3008. 2.6229 2.9043
54857. 1.13609 2.923(18) 2981. 2.6227 2.8961
54873. 1.13643 2.910(18) 2993. 2.6226 2.8934
54890. 1.13677 2.920(18) 2985. 2.6224 2.8979
54906. 1.13711 2.910(18) 3042. 2.6223 2.9093
54923. 1.13745 2.952(18) 2946. 2.6222 2.9246
54939. 1.13780 2.993(19) 2907. 2.6220 2.9385
54956. 1.13814 3.020(19) 2877. 2.6219 2.9539
54972. 1.13848 2.997(18) 2931. 2.6218 2.9872
54989. 1.13882 3.067(19) 2847. 2.6216 3.0618
55005. 1.13916 3.164(19) 2766. 2.6215 3.1963
55022. 1.13950 3.353(20) 2610. 2.6214 3.3956
55038. 1.13985 3.634(21) 2373. 2.6212 3.6364
55055. 1.14019 3.837(21) 2246. 2.6211 3.8558
55071. 1.14053 3.980(22) 2158. 2.6210 3.9683
55088. 1.14087 3.943(21) 2176. 2.6208 3.9311
55104. 1.14121 3.796(21) 2253. 2.6207 3.7769
55121. 1.14156 3.566(20) 2429. 2.6206 3.5681
55137. 1.14190 3.359(20) 2569. 2.6204 3.3578
55154. 1.14224 3.230(19) 2646. 2.6203 3.1784
55170. 1.14258 3.045(19) 2852. 2.6202 3.0412
55187. 1.14293 2.980(18) 2930. 2.6200 2.9442
55203. 1.14327 2.907(18) 2972. 2.6199 2.8782
55220. 1.14361 2.869(18) 3053. 2.6198 2.8332
55237. 1.14396 2.829(18) 3094. 2.6196 2.8033
55253. 1.14430 2.811(18) 3078. 2.6195 2.7830
55270. 1.14464 2.768(18) 3142. 2.6194 2.7677
55286. 1.14499 2.757(18) 3140. 2.6192 2.7540
55303. 1.14533 2.768(18) 3152. 2.6191 2.7409
55319. 1.14567 2.761(18) 3134. 2.6190 2.7295
55336. 1.14602 2.728(18) 3199. 2.6188 2.7215
55353. 1.14636 2.755(18) 3176. 2.6187 2.7183
55369. 1.14671 2.759(18) 3155. 2.6186 2.7211
55386. 1.14705 2.752(18) 3204. 2.6184 2.7306
55402. 1.14739 2.772(18) 3106. 2.6183 2.7478
55419. 1.14774 2.816(18) 3072. 2.6182 2.7739
55436. 1.14808 2.854(18) 3029. 2.6180 2.8100
55452. 1.14843 2.870(18) 3023. 2.6179 2.8542
55469. 1.14877 2.899(18) 2985. 2.6178 2.8996
55486. 1.14912 2.956(19) 2916. 2.6176 2.9343
55502. 1.14946 2.971(19) 2892. 2.6175 2.9490
55519. 1.14981 2.937(18) 2965. 2.6174 2.9433
55536. 1.15015 2.942(18) 2955. 2.6172 2.9250
55552. 1.15050 2.923(18) 2947. 2.6171 2.9058
55569. 1.15084 2.902(18) 2968. 2.6170 2.8972
55586. 1.15119 2.873(18) 3025. 2.6168 2.9078
55602. 1.15153 2.915(18) 2977. 2.6167 2.9415
55619. 1.15188 2.968(19) 2905. 2.6166 2.9959
55636. 1.15222 3.033(19) 2826. 2.6164 3.0601
55652. 1.15257 3.064(19) 2811. 2.6163 3.1139
55669. 1.15291 3.096(19) 2785. 2.6162 3.1391
55686. 1.15326 3.098(19) 2806. 2.6160 3.1375
55702. 1.15361 3.075(19) 2851. 2.6159 3.1260
55719. 1.15395 3.094(19) 2790. 2.6158 3.1207
55736. 1.15430 3.128(19) 2762. 2.6157 3.1256
55753. 1.15464 3.138(19) 2770. 2.6155 3.1292
55769. 1.15499 3.124(19) 2762. 2.6154 3.1148
55786. 1.15534 3.089(19) 2807. 2.6153 3.0779
55803. 1.15568 3.048(19) 2806. 2.6151 3.0282
55820. 1.15603 2.986(19) 2919. 2.6150 2.9776
55836. 1.15638 2.932(18) 2962. 2.6149 2.9364
55853. 1.15673 2.921(18) 2998. 2.6147 2.9125
55870. 1.15707 2.912(18) 3002. 2.6146 2.9117
55887. 1.15742 2.936(18) 2981. 2.6145 2.9357
55903. 1.15777 2.985(19) 2879. 2.6143 2.9814
55920. 1.15811 3.051(19) 2832. 2.6142 3.0379
55937. 1.15846 3.082(19) 2822. 2.6141 3.0859
55954. 1.15881 3.136(19) 2728. 2.6139 3.1071
55970. 1.15916 3.102(19) 2758. 2.6138 3.0969
55987. 1.15950 3.077(19) 2802. 2.6137 3.0640
56004. 1.15985 3.048(19) 2803. 2.6135 3.0178
56021. 1.16020 2.971(19) 2896. 2.6134 2.9664
56038. 1.16055 2.929(18) 2941. 2.6133 2.9176
56054. 1.16090 2.900(18) 2951. 2.6132 2.8766
56071. 1.16125 2.837(18) 3058. 2.6130 2.8452
56088. 1.16159 2.811(18) 3079. 2.6129 2.8222
56105. 1.16194 2.767(18) 3134. 2.6128 2.8061
56122. 1.16229 2.789(18) 3105. 2.6126 2.7962
56139. 1.16264 2.788(18) 3087. 2.6125 2.7937
56155. 1.16299 2.768(18) 3113. 2.6124 2.8009
56172. 1.16334 2.820(18) 3052. 2.6122 2.8177
56189. 1.16369 2.834(18) 3008. 2.6121 2.8394
56206. 1.16404 2.858(18) 2990. 2.6120 2.8577
56223. 1.16438 2.885(18) 2934. 2.6118 2.8667
56240. 1.16473 2.865(18) 2992. 2.6117 2.8698
56257. 1.16508 2.904(18) 2965. 2.6116 2.8773
56273. 1.16543 2.934(18) 2926. 2.6114 2.9014
56290. 1.16578 2.957(19) 2911. 2.6113 2.9500
56307. 1.16613 3.029(19) 2844. 2.6112 3.0233
56324. 1.16648 3.092(19) 2778. 2.6110 3.1098
56341. 1.16683 3.187(19) 2679. 2.6109 3.1893
56358. 1.16718 3.240(20) 2590. 2.6108 3.2402
56375. 1.16753 3.267(20) 2590. 2.6107 3.2533
56392. 1.16788 3.207(19) 2632. 2.6105 3.2425
56409. 1.16823 3.183(19) 2688. 2.6104 3.2293
56426. 1.16858 3.176(19) 2665. 2.6103 3.2300
56442. 1.16893 3.190(19) 2703. 2.6101 3.2487
56459. 1.16929 3.252(20) 2618. 2.6100 3.2771
56476. 1.16964 3.271(20) 2591. 2.6099 3.2994
56493. 1.16999 3.276(20) 2602. 2.6097 3.3048
56510. 1.17034 3.248(20) 2616. 2.6096 3.3013
56527. 1.17069 3.261(20) 2623. 2.6095 3.3057
56544. 1.17104 3.306(20) 2543. 2.6093 3.3235
56561. 1.17139 3.327(20) 2520. 2.6092 3.3380
56578. 1.17174 3.295(20) 2553. 2.6091 3.3211
56595. 1.17210 3.238(20) 2615. 2.6089 3.2633
56612. 1.17245 3.194(19) 2659. 2.6088 3.1815
56629. 1.17280 3.116(19) 2723. 2.6087 3.0992
56646. 1.17315 3.006(19) 2832. 2.6085 3.0329
56663. 1.17350 3.000(19) 2863. 2.6084 2.9875
56680. 1.17385 2.977(19) 2853. 2.6083 2.9585
56697. 1.17421 2.959(19) 2847. 2.6081 2.9372
56714. 1.17456 2.956(19) 2867. 2.6080 2.9138
56731. 1.17491 2.950(19) 2881. 2.6079 2.8835
56748. 1.17526 2.881(18) 2952. 2.6077 2.8486
56765. 1.17562 2.835(18) 3030. 2.6076 2.8140
56782. 1.17597 2.815(18) 3028. 2.6075 2.7830
56799. 1.17632 2.768(18) 3090. 2.6073 2.7574
56816. 1.17668 2.767(18) 3039. 2.6072 2.7379
56833. 1.17703 2.774(18) 3045. 2.6071 2.7252
56850. 1.17738 2.719(18) 3142. 2.6069 2.7197
56867. 1.17774 2.733(18) 3093. 2.6068 2.7219
56884. 1.17809 2.745(18) 3040. 2.6067 2.7323
56901. 1.17844 2.756(18) 3069. 2.6065 2.7514
56919. 1.17880 2.743(18) 3109. 2.6064 2.7799
56936. 1.17915 2.802(18) 3021. 2.6063 2.8190
56953. 1.17950 2.854(18) 3003. 2.6061 2.8705
56970. 1.17986 2.912(18) 2929. 2.6060 2.9361
56987. 1.18021 2.980(19) 2859. 2.6059 3.0149
57004. 1.18057 3.096(19) 2739. 2.6057 3.1022
57021. 1.18092 3.138(19) 2695. 2.6056 3.1855
57038. 1.18127 3.238(20) 2582. 2.6055 3.2461
57055. 1.18163 3.245(20) 2583. 2.6053 3.2729
57072. 1.18198 3.219(19) 2640. 2.6052 3.2660
57089. 1.18234 3.184(19) 2682. 2.6051 3.2302
57107. 1.18269 3.146(19) 2675. 2.6049 3.1729
57124. 1.18305 3.112(19) 2722. 2.6048 3.1042
57141. 1.18340 3.046(19) 2760. 2.6047 3.0320
57158. 1.18376 3.001(19) 2790. 2.6045 2.9627
57175. 1.18411 2.955(19) 2827. 2.6044 2.9016
57192. 1.18447 2.872(19) 2918. 2.6043 2.8501
57209. 1.18482 2.813(18) 2998. 2.6041 2.8076
57227. 1.18518 2.784(18) 3031. 2.6040 2.7733
57244. 1.18553 2.762(18) 3061. 2.6039 2.7468
57261. 1.18589 2.719(18) 3091. 2.6037 2.7276
57278. 1.18625 2.699(18) 3128. 2.6036 2.7154
57295. 1.18660 2.678(18) 3186. 2.6035 2.7107
57313. 1.18696 2.705(18) 3128. 2.6033 2.7148
57330. 1.18731 2.726(18) 3121. 2.6032 2.7305
57347. 1.18767 2.727(18) 3091. 2.6030 2.7613
57364. 1.18803 2.765(18) 3046. 2.6029 2.8101
57381. 1.18838 2.875(18) 2932. 2.6028 2.8755
57399. 1.18874 2.934(19) 2867. 2.6026 2.9498
57416. 1.18910 3.020(19) 2763. 2.6025 3.0194
57433. 1.18945 3.083(19) 2723. 2.6024 3.0693
57450. 1.18981 3.096(19) 2715. 2.6022 3.0914
57467. 1.19017 3.093(19) 2701. 2.6021 3.0842
57485. 1.19052 3.077(19) 2676. 2.6020 3.0525
57502. 1.19088 3.005(19) 2791. 2.6018 3.0068
57519. 1.19124 2.927(19) 2868. 2.6017 2.9599
57536. 1.19160 2.862(19) 2922. 2.6015 2.9216
57554. 1.19195 2.871(19) 2917. 2.6014 2.8975
57571. 1.19231 2.860(18) 2956. 2.6013 2.8888
57588. 1.19267 2.883(19) 2898. 2.6011 2.8918
57606. 1.19303 2.876(18) 2955. 2.6010 2.8984
57623. 1.19338 2.919(19) 2880. 2.6009 2.8993
57640. 1.19374 2.942(19) 2817. 2.6007 2.8906
57657. 1.19410 2.932(19) 2829. 2.6006 2.8764
57675. 1.19446 2.893(19) 2895. 2.6004 2.8656
57692. 1.19482 2.900(19) 2853. 2.6003 2.8689
57709. 1.19518 2.939(19) 2844. 2.6002 2.8987
57727. 1.19553 2.976(19) 2823. 2.6000 2.9683
57744. 1.19589 3.094(19) 2715. 2.5999 3.0897
57761. 1.19625 3.231(20) 2603. 2.5997 3.2676
57779. 1.19661 3.423(20) 2428. 2.5996 3.4913
57796. 1.19697 3.682(21) 2235. 2.5995 3.7271
57813. 1.19733 3.891(22) 2105. 2.5993 3.9159
57831. 1.19769 4.024(22) 2032. 2.5992 4.0054
57848. 1.19805 3.995(22) 2040. 2.5990 3.9839
57865. 1.19841 3.899(22) 2096. 2.5989 3.8742
57883. 1.19877 3.747(21) 2173. 2.5988 3.7116
57900. 1.19913 3.578(21) 2290. 2.5986 3.5348
57917. 1.19949 3.420(20) 2419. 2.5985 3.3744
57935. 1.19985 3.255(20) 2553. 2.5983 3.2472
57952. 1.20021 3.144(19) 2632. 2.5982 3.1569
57970. 1.20057 3.096(19) 2666. 2.5981 3.0997
57987. 1.20093 3.097(19) 2662. 2.5979 3.0685
58004. 1.20129 3.074(19) 2670. 2.5978 3.0543
58022. 1.20165 3.054(19) 2686. 2.5976 3.0477
58039. 1.20201 3.041(19) 2701. 2.5975 3.0381
58057. 1.20237 3.030(19) 2700. 2.5974 3.0145
58074. 1.20273 2.994(19) 2714. 2.5972 2.9731
58091. 1.20309 2.947(19) 2787. 2.5971 2.9200
58109. 1.20345 2.868(19) 2860. 2.5969 2.8642
58126. 1.20381 2.800(18) 2969. 2.5968 2.8127
58144. 1.20417 2.798(18) 2944. 2.5966 2.7694
58161. 1.20454 2.753(18) 3004. 2.5965 2.7357
58179. 1.20490 2.710(18) 3062. 2.5964 2.7111
58196. 1.20526 2.693(18) 3045. 2.5962 2.6945
58213. 1.20562 2.688(18) 3070. 2.5961 2.6854
58231. 1.20598 2.696(18) 3058. 2.5959 2.6843
58248. 1.20634 2.703(18) 3045. 2.5958 2.6919
58266. 1.20671 2.688(18) 3052. 2.5956 2.7099
58283. 1.20707 2.712(18) 3023. 2.5955 2.7363
58301. 1.20743 2.751(18) 2994. 2.5954 2.7657
58318. 1.20779 2.769(18) 2986. 2.5952 2.7888
58336. 1.20815 2.767(18) 2962. 2.5951 2.7993
58353. 1.20852 2.747(18) 3014. 2.5949 2.7971
58371. 1.20888 2.746(18) 3000. 2.5948 2.7842
58388. 1.20924 2.725(18) 3045. 2.5946 2.7643
58406. 1.20960 2.726(18) 3017. 2.5945 2.7422
58423. 1.20997 2.731(18) 2994. 2.5943 2.7224
58441. 1.21033 2.722(18) 2998. 2.5942 2.7084
58458. 1.21069 2.700(18) 3072. 2.5940 2.7019
58476. 1.21106 2.726(18) 3023. 2.5939 2.7042
58494. 1.21142 2.718(18) 3026. 2.5938 2.7158
58511. 1.21178 2.702(18) 3043. 2.5936 2.7382
58529. 1.21215 2.768(19) 2920. 2.5935 2.7729
58546. 1.21251 2.835(19) 2853. 2.5933 2.8235
58564. 1.21288 2.898(19) 2789. 2.5932 2.8938
58581. 1.21324 2.962(19) 2752. 2.5930 2.9846
58599. 1.21360 3.118(20) 2588. 2.5929 3.0891
58616. 1.21397 3.230(20) 2507. 2.5927 3.1931
58634. 1.21433 3.276(20) 2476. 2.5926 3.2861
58652. 1.21470 3.332(20) 2431. 2.5924 3.3665
58669. 1.21506 3.398(21) 2379. 2.5923 3.4298
58687. 1.21543 3.466(21) 2323. 2.5921 3.4662
58704. 1.21579 3.432(21) 2320. 2.5920 3.4701
58722. 1.21615 3.412(21) 2332. 2.5918 3.4402
58740. 1.21652 3.368(21) 2345. 2.5917 3.3736
58757. 1.21688 3.283(20) 2397. 2.5915 3.2740
58775. 1.21725 3.148(20) 2561. 2.5914 3.1586
58793. 1.21761 3.039(19) 2642. 2.5912 3.0471
58810. 1.21798 2.934(19) 2738. 2.5911 2.9527
58828. 1.21835 2.874(19) 2775. 2.5909 2.8800
58846. 1.21871 2.810(19) 2870. 2.5908 2.8261
58863. 1.21908 2.781(19) 2883. 2.5906 2.7848
58881. 1.21944 2.737(18) 2926. 2.5905 2.7513
58898. 1.21981 2.728(18) 2926. 2.5903 2.7234
58916. 1.22017 2.707(18) 2958. 2.5902 2.7009
58934. 1.22054 2.682(18) 2961. 2.5900 2.6843
58952. 1.22091 2.658(18) 3006. 2.5899 2.6732
58969. 1.22127 2.658(18) 2984. 2.5897 2.6674
58987. 1.22164 2.640(18) 2985. 2.5896 2.6663
59005. 1.22201 2.702(19) 2893. 2.5894 2.6697
59022. 1.22237 2.674(18) 2936. 2.5893 2.6784
59040. 1.22274 2.683(18) 2949. 2.5891 2.6926
59058. 1.22311 2.684(19) 2919. 2.5890 2.7100
59075. 1.22347 2.720(19) 2869. 2.5888 2.7243
59093. 1.22384 2.730(19) 2835. 2.5887 2.7284
59111. 1.22421 2.730(19) 2863. 2.5885 2.7205
59129. 1.22458 2.726(19) 2846. 2.5884 2.7052
59146. 1.22494 2.702(19) 2860. 2.5882 2.6883
59164. 1.22531 2.689(19) 2888. 2.5880 2.6745
59182. 1.22568 2.685(19) 2893. 2.5879 2.6661
59200. 1.22605 2.697(19) 2852. 2.5877 2.6645
59217. 1.22641 2.715(19) 2850. 2.5876 2.6708
59235. 1.22678 2.698(19) 2862. 2.5874 2.6866
59253. 1.22715 2.722(19) 2812. 2.5873 2.7134
59271. 1.22752 2.742(19) 2836. 2.5871 2.7513
59288. 1.22789 2.763(19) 2790. 2.5870 2.7972
59306. 1.22825 2.789(19) 2750. 2.5868 2.8431
59324. 1.22862 2.821(19) 2706. 2.5866 2.8770
59342. 1.22899 2.819(19) 0.0 2.5865 .
59360. 1.22936 2.820(19) 0.0 2.5863 .
59377. 1.22973 2.828(19) 0.0 2.5862 .
59395. 1.23010 2.813(19) 0.0 2.5860 .
59413. 1.23047 2.855(19) 0.0 2.5859 .
59431. 1.23084 2.890(19) 0.0 2.5857 .
59449. 1.23121 2.904(19) 0.0 2.5855 .
59467. 1.23158 2.936(19) 0.0 2.5854 .
59484. 1.23194 3.015(20) 0.0 2.5852 .
59502. 1.23231 3.048(20) 0.0 2.5851 .
59520. 1.23268 3.121(20) 0.0 2.5849 .
59538. 1.23305 3.183(21) 0.0 2.5848 .
59556. 1.23342 3.059(20) 0.0 2.5846 .
59574. 1.23379 2.919(20) 0.0 2.5844 .
59592. 1.23416 2.827(19) 0.0 2.5843 .
59609. 1.23453 2.766(19) 0.0 2.5841 .
59627. 1.23491 2.747(19) 0.0 2.5840 .
59645. 1.23528 2.695(19) 0.0 2.5838 .
59663. 1.23565 2.735(19) 0.0 2.5836 .
59681. 1.23602 2.785(19) 0.0 2.5835 .
59699. 1.23639 2.805(19) 0.0 2.5833 .
59717. 1.23676 2.828(19) 2840. 2.5831 2.7626
59735. 1.23713 2.848(19) 2902. 2.5830 2.7953
59753. 1.23750 2.847(19) 2903. 2.5828 2.8142
59771. 1.23787 2.866(19) 2897. 2.5827 2.8121
59788. 1.23824 2.813(18) 2978. 2.5825 2.7904
59806. 1.23862 2.762(18) 3050. 2.5823 2.7582
59824. 1.23899 2.739(18) 3057. 2.5822 2.7250
59842. 1.23936 2.714(18) 3092. 2.5820 2.6970
59860. 1.23973 2.689(18) 3086. 2.5818 2.6764
59878. 1.24010 2.659(18) 3101. 2.5817 2.6623
59896. 1.24047 2.650(19) 2655. 2.5815 2.6523
59914. 1.24085 2.657(20) 2508. 2.5814 2.6445
59932. 1.24122 2.650(20) 2447. 2.5812 2.6382
59950. 1.24159 2.649(20) 2437. 2.5810 2.6333
59968. 1.24196 2.687(21) 2307. 2.5809 2.6301
59986. 1.24234 2.640(21) 2364. 2.5807 2.6288
60004. 1.24271 2.653(21) 2325. 2.5805 2.6300
60022. 1.24308 2.629(21) 2365. 2.5804 2.6344
60040. 1.24346 2.651(21) 2315. 2.5802 2.6429
60058. 1.24383 2.684(21) 2297. 2.5800 2.6569
60076. 1.24420 2.682(21) 2289. 2.5799 2.6787
60094. 1.24458 2.725(21) 2254. 2.5797 2.7088
60112. 1.24495 2.749(21) 2240. 2.5795 2.7468
60130. 1.24532 2.783(21) 2231. 2.5794 2.7881
60148. 1.24570 2.823(21) 2203. 2.5792 2.8247
60166. 1.24607 2.835(21) 2169. 2.5790 2.8481
60184. 1.24644 2.831(21) 2185. 2.5789 2.8551
60202. 1.24682 2.820(21) 2219. 2.5787 2.8479
60220. 1.24719 2.812(21) 2222. 2.5785 2.8307
60239. 1.24757 2.816(21) 2238. 2.5783 2.8087
60257. 1.24794 2.764(21) 2296. 2.5782 2.7842
60275. 1.24831 2.778(21) 2290. 2.5780 2.7602
60293. 1.24869 2.732(21) 2324. 2.5778 2.7391
60311. 1.24906 2.696(21) 2367. 2.5777 2.7247
60329. 1.24944 2.724(21) 2359. 2.5775 2.7205
60347. 1.24981 2.752(21) 2330. 2.5773 2.7287
60365. 1.25019 2.696(20) 2407. 2.5772 2.7491
60383. 1.25056 2.750(21) 2348. 2.5770 2.7776
60401. 1.25094 2.753(21) 2364. 2.5768 2.8046
60419. 1.25131 2.782(21) 2331. 2.5766 2.8200
60438. 1.25169 2.787(21) 2323. 2.5765 2.8217
60456. 1.25207 2.794(21) 2319. 2.5763 2.8163
60474. 1.25244 2.782(21) 2366. 2.5761 2.8134
60492. 1.25282 2.859(21) 2295. 2.5759 2.8217
60510. 1.25319 2.870(21) 2285. 2.5758 2.8496
60528. 1.25357 2.918(21) 2254. 2.5756 2.9060
60546. 1.25394 3.074(22) 2146. 2.5754 2.9994
60565. 1.25432 3.193(22) 2078. 2.5753 3.1369
60583. 1.25470 3.408(23) 1938. 2.5751 3.3170
60601. 1.25507 3.558(23) 1853. 2.5749 3.5258
60619. 1.25545 3.785(24) 1740. 2.5747 3.7379
60637. 1.25583 3.928(24) 1669. 2.5746 3.9118
60656. 1.25620 4.024(25) 1616. 2.5744 3.9995
60674. 1.25658 3.986(25) 1653. 2.5742 3.9778
60692. 1.25696 3.853(24) 1716. 2.5740 3.8670
60710. 1.25734 3.759(24) 1755. 2.5739 3.7177
60728. 1.25771 3.620(23) 1830. 2.5737 3.5803
60747. 1.25809 3.569(23) 1888. 2.5735 3.4828
60765. 1.25847 3.485(23) 1968. 2.5733 3.4276
60783. 1.25884 3.447(22) 2051. 2.5731 3.3954
60801. 1.25922 3.431(22) 2105. 2.5730 3.3619
60820. 1.25960 3.355(21) 2185. 2.5728 3.3176
60838. 1.25998 3.257(21) 2289. 2.5726 3.2692
60856. 1.26036 3.221(21) 2360. 2.5724 3.2240
60874. 1.26073 3.177(20) 2416. 2.5723 3.1791
60893. 1.26111 3.124(20) 2517. 2.5721 3.1264
60911. 1.26149 3.047(20) 2629. 2.5719 3.0656
60929. 1.26187 2.949(19) 2718. 2.5717 3.0036
60947. 1.26225 2.923(19) 2758. 2.5715 2.9492
60966. 1.26263 2.856(19) 2813. 2.5714 2.9078
60984. 1.26301 2.823(19) 2880. 2.5712 2.8817
61002. 1.26338 2.852(19) 2830. 2.5710 2.8687
61021. 1.26376 2.842(19) 2847. 2.5708 2.8651
61039. 1.26414 2.851(19) 2805. 2.5706 2.8679
61057. 1.26452 2.855(19) 2783. 2.5705 2.8758
61075. 1.26490 2.889(19) 2801. 2.5703 2.8837
61094. 1.26528 2.884(19) 2735. 2.5701 2.8821
61112. 1.26566 2.894(19) 2742. 2.5699 2.8656
61130. 1.26604 2.835(19) 2820. 2.5697 2.8391
61149. 1.26642 2.830(19) 2842. 2.5695 2.8133
61167. 1.26680 2.792(19) 2882. 2.5694 2.7973
61185. 1.26718 2.761(18) 2938. 2.5692 2.7932
61204. 1.26756 2.767(18) 2925. 2.5690 2.7960
61222. 1.26794 2.760(19) 2918. 2.5688 2.7941
61241. 1.26832 2.768(19) 2914. 2.5686 2.7797
61259. 1.26870 2.732(18) 2972. 2.5684 2.7548
61277. 1.26908 2.713(18) 2942. 2.5683 2.7265
61296. 1.26946 2.710(19) 2915. 2.5681 2.7015
61314. 1.26984 2.679(18) 2954. 2.5679 2.6847
61332. 1.27023 2.692(18) 2960. 2.5677 2.6785
61351. 1.27061 2.664(18) 3062. 2.5675 2.6833
61369. 1.27099 2.671(18) 3022. 2.5673 2.6990
61388. 1.27137 2.684(18) 3007. 2.5671 2.7225
61406. 1.27175 2.741(18) 2944. 2.5670 2.7471
61425. 1.27213 2.772(19) 2870. 2.5668 2.7626
61443. 1.27251 2.757(19) 2896. 2.5666 2.7634
61461. 1.27290 2.763(19) 2910. 2.5664 2.7539
61480. 1.27328 2.752(18) 2935. 2.5662 2.7428
61498. 1.27366 2.726(18) 2946. 2.5660 2.7387
61517. 1.27404 2.740(19) 2902. 2.5658 2.7475
61535. 1.27442 2.738(18) 2951. 2.5656 2.7724
61554. 1.27481 2.777(19) 2883. 2.5655 2.8141
61572. 1.27519 2.879(19) 2760. 2.5653 2.8695
61591. 1.27557 2.925(19) 2702. 2.5651 2.9282
61609. 1.27595 3.002(20) 2609. 2.5649 2.9707
61628. 1.27634 2.973(19) 2655. 2.5647 2.9788
61646. 1.27672 2.918(19) 2716. 2.5645 2.9506
61665. 1.27710 2.883(19) 2762. 2.5643 2.8991
61683. 1.27749 2.818(19) 2845. 2.5641 2.8395
61702. 1.27787 2.757(19) 2870. 2.5639 2.7830
61720. 1.27825 2.725(19) 2897. 2.5637 2.7359
61739. 1.27864 2.696(19) 2921. 2.5636 2.7000
61757. 1.27902 2.668(18) 2983. 2.5634 2.6746
61776. 1.27940 2.686(18) 2933. 2.5632 2.6579
61794. 1.27979 2.638(18) 2994. 2.5630 2.6482
61813. 1.28017 2.622(18) 3028. 2.5628 2.6447
61831. 1.28056 2.666(18) 2937. 2.5626 2.6482
61850. 1.28094 2.657(18) 2969. 2.5624 2.6621
61868. 1.28132 2.717(19) 2878. 2.5622 2.6930
61887. 1.28171 2.734(19) 2907. 2.5620 2.7498
61905. 1.28209 2.800(19) 2832. 2.5618 2.8393
61924. 1.28248 2.946(19) 2645. 2.5616 2.9596
61943. 1.28286 3.034(20) 2595. 2.5614 3.0912
61961. 1.28325 3.179(20) 2459. 2.5612 3.1948
61980. 1.28363 3.221(20) 2398. 2.5610 3.2322
61998. 1.28402 3.170(20) 2446. 2.5608 3.2023
62017. 1.28440 3.098(20) 2521. 2.5606 3.1315
62036. 1.28479 2.999(20) 2599. 2.5605 3.0458
62054. 1.28517 2.913(19) 2681. 2.5603 2.9617
62073. 1.28556 2.866(19) 2726. 2.5601 2.8879
62091. 1.28595 2.835(19) 2775. 2.5599 2.8295
62110. 1.28633 2.774(19) 2830. 2.5597 2.7884
62129. 1.28672 2.747(19) 2853. 2.5595 2.7637
62147. 1.28710 2.742(19) 2838. 2.5593 2.7524
62166. 1.28749 2.740(19) 2844. 2.5591 2.7486
62185. 1.28788 2.748(19) 2793. 2.5589 2.7451
62203. 1.28826 2.717(19) 2871. 2.5587 2.7378
62222. 1.28865 2.728(19) 2842. 2.5585 2.7276
62241. 1.28904 2.701(19) 2869. 2.5583 2.7181
62259. 1.28942 2.678(18) 2924. 2.5581 2.7136
62278. 1.28981 2.677(19) 2898. 2.5579 2.7182
62297. 1.29020 2.711(19) 2853. 2.5577 2.7366
62315. 1.29058 2.731(19) 2841. 2.5575 2.7739
62334. 1.29097 2.804(19) 2798. 2.5573 2.8362
62353. 1.29136 2.886(19) 2687. 2.5571 2.9283
62371. 1.29175 3.009(20) 2584. 2.5569 3.0503
62390. 1.29213 3.200(20) 2399. 2.5567 3.1911
62409. 1.29252 3.363(21) 2259. 2.5565 3.3243
62428. 1.29291 3.449(21) 2222. 2.5563 3.4128
62446. 1.29330 3.444(21) 2210. 2.5561 3.4258
62465. 1.29369 3.361(21) 2281. 2.5559 3.3624
62484. 1.29407 3.256(21) 2357. 2.5557 3.2515
62502. 1.29446 3.112(20) 2485. 2.5555 3.1279
62521. 1.29485 2.973(19) 2641. 2.5553 3.0182
62540. 1.29524 2.922(19) 2634. 2.5551 2.9373
62559. 1.29563 2.887(19) 2655. 2.5549 2.8919
62578. 1.29602 2.856(19) 2724. 2.5547 2.8855
62596. 1.29640 2.866(19) 2703. 2.5545 2.9217
62615. 1.29679 2.989(20) 2567. 2.5542 3.0044
62634. 1.29718 3.128(20) 2469. 2.5540 3.1346
62653. 1.29757 3.305(21) 2344. 2.5538 3.3050
62671. 1.29796 3.516(21) 2181. 2.5536 3.4922
62690. 1.29835 3.678(22) 2074. 2.5534 3.6581
62709. 1.29874 3.773(22) 2031. 2.5532 3.7781
62728. 1.29913 3.844(22) 1986. 2.5530 3.8592
62747. 1.29952 3.898(23) 1943. 2.5528 3.9153
62766. 1.29991 3.915(23) 1941. 2.5526 3.9436
62784. 1.30030 3.899(23) 1965. 2.5524 3.9390
62803. 1.30069 3.827(22) 2014. 2.5522 3.8942
62822. 1.30108 3.776(22) 2014. 2.5520 3.7937
62841. 1.30147 3.631(22) 2080. 2.5518 3.6390
62860. 1.30186 3.490(22) 2157. 2.5516 3.4591
62879. 1.30225 3.306(21) 2309. 2.5514 3.2887
62897. 1.30264 3.214(20) 2393. 2.5512 3.1514
62916. 1.30303 3.075(20) 2511. 2.5509 3.0582
62935. 1.30342 2.994(20) 2566. 2.5507 3.0110
62954. 1.30382 2.970(20) 2602. 2.5505 3.0071
62973. 1.30421 3.007(20) 2552. 2.5503 3.0415
62992. 1.30460 3.026(20) 2535. 2.5501 3.1082
63011. 1.30499 3.122(20) 2461. 2.5499 3.2008
63030. 1.30538 3.234(21) 2366. 2.5497 3.3031
63049. 1.30577 3.378(21) 2233. 2.5495 3.3802
63067. 1.30616 3.432(21) 2191. 2.5493 3.3952
63086. 1.30656 3.404(21) 2210. 2.5491 3.3513
63105. 1.30695 3.265(21) 2331. 2.5489 3.2863
63124. 1.30734 3.222(21) 2356. 2.5486 3.2417
63143. 1.30773 3.227(21) 2359. 2.5484 3.2412
63162. 1.30813 3.270(21) 2321. 2.5482 3.2823
63181. 1.30852 3.327(21) 2261. 2.5480 3.3357
63200. 1.30891 3.368(21) 2224. 2.5478 3.3584
63219. 1.30930 3.352(21) 2258. 2.5476 3.3259
63238. 1.30970 3.242(21) 2325. 2.5474 3.2493
63257. 1.31009 3.153(20) 2386. 2.5472 3.1536
63276. 1.31048 3.053(20) 2466. 2.5470 3.0570
63295. 1.31087 2.951(20) 2551. 2.5467 2.9670
63314. 1.31127 2.896(19) 2635. 2.5465 2.8864
63333. 1.31166 2.834(19) 2657. 2.5463 2.8176
63352. 1.31206 2.786(19) 2679. 2.5461 2.7612
63371. 1.31245 2.707(19) 2800. 2.5459 2.7170
63390. 1.31284 2.669(19) 2831. 2.5457 2.6836
63409. 1.31324 2.631(19) 2865. 2.5455 2.6594
63428. 1.31363 2.638(19) 2858. 2.5452 2.6428
63447. 1.31402 2.600(19) 2909. 2.5450 2.6326
63466. 1.31442 2.596(18) 2940. 2.5448 2.6288
63485. 1.31481 2.634(19) 2878. 2.5446 2.6301
63504. 1.31521 2.643(19) 2855. 2.5444 2.6387
63523. 1.31560 2.617(19) 2864. 2.5442 2.6549
63542. 1.31600 2.631(19) 2884. 2.5440 2.6800
63561. 1.31639 2.732(19) 2742. 2.5437 2.7136
63580. 1.31679 2.794(19) 2680. 2.5435 2.7540
63599. 1.31718 2.843(19) 2636. 2.5433 2.7974
63618. 1.31758 2.851(20) 2605. 2.5431 2.8454
63638. 1.31797 2.914(20) 2578. 2.5429 2.9038
63657. 1.31837 2.978(20) 2481. 2.5427 2.9749
63676. 1.31876 3.088(20) 2416. 2.5424 3.0470
63695. 1.31916 3.105(20) 2408. 2.5422 3.0919
63714. 1.31956 3.119(21) 2365. 2.5420 3.0904
63733. 1.31995 3.060(20) 2441. 2.5418 3.0511
63752. 1.32035 2.966(20) 2553. 2.5416 2.9957
63771. 1.32074 2.893(20) 2597. 2.5413 2.9392
63790. 1.32114 2.834(19) 2639. 2.5411 2.8845
63810. 1.32154 2.768(19) 2723. 2.5409 2.8306
63829. 1.32193 2.731(19) 2702. 2.5407 2.7798
63848. 1.32233 2.692(19) 2786. 2.5405 2.7364
63867. 1.32273 2.660(19) 2803. 2.5402 2.7055
63886. 1.32312 2.681(19) 2785. 2.5400 2.6891
63905. 1.32352 2.678(19) 2786. 2.5398 2.6891
63925. 1.32392 2.703(19) 2768. 2.5396 2.7052
63944. 1.32431 2.729(19) 2761. 2.5394 2.7345
63963. 1.32471 2.787(19) 2672. 2.5391 2.7715
63982. 1.32511 2.823(20) 2623. 2.5389 2.8109
64001. 1.32551 2.819(20) 2628. 2.5387 2.8469
64020. 1.32590 2.869(20) 2567. 2.5385 2.8682
64040. 1.32630 2.833(20) 2626. 2.5383 2.8631
64059. 1.32670 2.789(19) 2638. 2.5380 2.8319
64078. 1.32710 2.715(19) 2755. 2.5378 2.7849
64097. 1.32750 2.677(19) 2763. 2.5376 2.7345
64117. 1.32790 2.627(19) 2801. 2.5374 2.6888
64136. 1.32829 2.594(19) 2876. 2.5372 2.6519
64155. 1.32869 2.571(19) 2895. 2.5369 2.6244
64174. 1.32909 2.560(19) 2900. 2.5367 2.6049
64194. 1.32949 2.560(19) 2880. 2.5365 2.5914
64213. 1.32989 2.566(19) 2869. 2.5363 2.5823
64232. 1.33029 2.562(19) 2897. 2.5360 2.5760
64251. 1.33069 2.544(18) 2925. 2.5358 2.5718
64271. 1.33109 2.551(19) 2891. 2.5356 2.5691
64290. 1.33149 2.547(19) 2904. 2.5354 2.5675
64309. 1.33188 2.541(19) 2914. 2.5352 2.5669
64328. 1.33228 2.537(19) 2887. 2.5349 2.5671
64348. 1.33268 2.500(18) 2986. 2.5347 2.5682
64367. 1.33308 2.534(19) 2903. 2.5345 2.5697
64386. 1.33348 2.546(19) 2897. 2.5343 2.5713
64406. 1.33388 2.524(18) 2929. 2.5340 2.5722
64425. 1.33428 2.534(19) 2900. 2.5338 2.5720
64444. 1.33468 2.519(18) 2946. 2.5336 2.5713
64464. 1.33509 2.524(19) 2913. 2.5334 2.5704
64483. 1.33549 2.541(19) 2890. 2.5331 2.5699
64502. 1.33589 2.549(19) 2863. 2.5329 2.5703
64522. 1.33629 2.540(19) 2863. 2.5327 2.5718
64541. 1.33669 2.559(19) 2838. 2.5325 2.5747
64560. 1.33709 2.551(19) 2852. 2.5322 2.5790
64580. 1.33749 2.559(19) 2867. 2.5320 2.5844
64599. 1.33789 2.567(19) 2819. 2.5318 2.5908
64619. 1.33829 2.598(19) 2774. 2.5315 2.5981
64638. 1.33869 2.567(19) 2825. 2.5313 2.6077
64657. 1.33910 2.578(19) 2856. 2.5311 2.6216
64677. 1.33950 2.615(19) 2781. 2.5309 2.6418
64696. 1.33990 2.657(19) 2697. 2.5306 2.6688
64716. 1.34030 2.670(19) 2730. 2.5304 2.7012
64735. 1.34070 2.703(19) 2690. 2.5302 2.7333
64754. 1.34111 2.742(20) 2615. 2.5300 2.7560
64774. 1.34151 2.733(19) 2675. 2.5297 2.7620
64793. 1.34191 2.712(19) 2679. 2.5295 2.7517
64813. 1.34231 2.699(19) 2669. 2.5293 2.7314
64832. 1.34272 2.692(19) 2685. 2.5290 2.7067
64852. 1.34312 2.678(19) 2674. 2.5288 2.6836
64871. 1.34352 2.656(19) 2732. 2.5286 2.6655
64890. 1.34393 2.649(19) 2711. 2.5284 2.6538
64910. 1.34433 2.664(19) 2699. 2.5281 2.6492
64929. 1.34473 2.666(19) 2696. 2.5279 2.6519
64949. 1.34514 2.671(19) 2704. 2.5277 2.6629
64968. 1.34554 2.691(19) 2688. 2.5274 2.6847
64988. 1.34594 2.759(20) 2630. 2.5272 2.7205
65007. 1.34635 2.805(20) 2557. 2.5270 2.7754
65027. 1.34675 2.844(20) 2523. 2.5268 2.8548
65046. 1.34716 2.943(20) 2472. 2.5265 2.9641
65066. 1.34756 3.114(21) 2311. 2.5263 3.1068
65085. 1.34796 3.280(21) 2202. 2.5261 3.2811
65105. 1.34837 3.523(22) 2008. 2.5258 3.4793
65124. 1.34877 3.690(23) 1957. 2.5256 3.7020
65144. 1.34918 3.910(23) 1844. 2.5254 3.9740
65164. 1.34958 4.285(24) 1670. 2.5251 4.3131
65183. 1.34999 4.647(26) 1538. 2.5249 4.6855
65203. 1.35039 4.990(27) 1407. 2.5247 5.0015
65222. 1.35080 5.208(27) 1327. 2.5245 5.1599
65242. 1.35120 5.108(27) 1369. 2.5242 5.0911
65261. 1.35161 4.866(26) 1436. 2.5240 4.8072
65281. 1.35201 4.452(25) 1585. 2.5238 4.4069
65301. 1.35242 4.004(24) 1776. 2.5235 4.0001
65320. 1.35283 3.683(23) 1936. 2.5233 3.6591
65340. 1.35323 3.462(22) 2064. 2.5231 3.4106
65359. 1.35364 3.255(21) 2219. 2.5228 3.2442
65379. 1.35404 3.134(21) 2279. 2.5226 3.1309
65399. 1.35445 3.038(21) 2358. 2.5224 3.0443
65418. 1.35486 2.970(20) 2393. 2.5221 2.9716
65438. 1.35526 2.896(20) 2462. 2.5219 2.9074
65457. 1.35567 2.836(20) 2497. 2.5217 2.8501
65477. 1.35608 2.784(20) 2560. 2.5214 2.8020
65497. 1.35648 2.764(20) 2598. 2.5212 2.7679
65516. 1.35689 2.725(20) 2628. 2.5210 2.7523
65536. 1.35730 2.730(20) 2616. 2.5207 2.7574
65556. 1.35770 2.730(19) 2655. 2.5205 2.7834
65575. 1.35811 2.788(20) 2554. 2.5203 2.8243
65595. 1.35852 2.845(20) 2489. 2.5200 2.8675
65615. 1.35893 2.876(20) 2443. 2.5198 2.8959
65634. 1.35933 2.916(21) 2377. 2.5196 2.9021
65654. 1.35974 2.913(20) 2414. 2.5194 2.8949
65674. 1.36015 2.881(20) 2484. 2.5191 2.8904
65693. 1.36056 2.912(20) 2419. 2.5189 2.8964
65713. 1.36097 2.930(20) 2429. 2.5187 2.9083
65733. 1.36137 2.998(21) 2315. 2.5184 2.9104
65753. 1.36178 2.993(21) 2327. 2.5182 2.8905
65772. 1.36219 2.894(20) 2450. 2.5180 2.8542
65792. 1.36260 2.862(20) 2452. 2.5177 2.8178
65812. 1.36301 2.869(20) 2431. 2.5175 2.7984
65832. 1.36342 2.857(20) 2482. 2.5173 2.8105
65851. 1.36383 2.895(20) 2432. 2.5170 2.8626
65871. 1.36424 2.966(21) 2367. 2.5168 2.9545
65891. 1.36465 3.057(21) 2296. 2.5165 3.0727
65911. 1.36506 3.130(21) 2246. 2.5163 3.1838
65930. 1.36547 3.154(21) 2206. 2.5161 3.2421
65950. 1.36588 3.161(21) 2186. 2.5158 3.2242
65970. 1.36628 3.089(21) 2258. 2.5156 3.1473
65990. 1.36669 3.001(21) 2334. 2.5154 3.0465
66009. 1.36710 2.952(21) 2378. 2.5151 2.9528
66029. 1.36752 2.915(20) 2384. 2.5149 2.8852
66049. 1.36793 2.925(20) 2381. 2.5147 2.8485
66069. 1.36834 2.863(20) 2433. 2.5144 2.8356
66089. 1.36875 2.842(20) 2472. 2.5142 2.8307
66109. 1.36916 2.835(20) 2446. 2.5140 2.8220
66128. 1.36957 2.805(20) 2478. 2.5137 2.8097
66148. 1.36998 2.828(20) 2449. 2.5135 2.8028
66168. 1.37039 2.817(20) 2463. 2.5133 2.8112
66188. 1.37080 2.891(20) 2383. 2.5130 2.8414
66208. 1.37121 2.901(20) 2391. 2.5128 2.8942
66228. 1.37162 2.970(21) 2316. 2.5126 2.9606
66247. 1.37204 3.104(21) 2206. 2.5123 3.0223
66267. 1.37245 3.172(22) 2152. 2.5121 3.0590
66287. 1.37286 3.192(22) 2146. 2.5119 3.0769
66307. 1.37327 3.143(21) 2190. 2.5116 3.1119
66327. 1.37368 3.185(21) 2180. 2.5114 3.2095
66347. 1.37409 3.289(22) 2108. 2.5112 3.3967
66367. 1.37451 3.613(23) 1892. 2.5109 3.6558
66387. 1.37492 3.888(24) 1745. 2.5107 3.9070
66407. 1.37533 4.145(25) 1606. 2.5105 4.0277
66427. 1.37574 4.062(25) 1653. 2.5102 3.9573
66447. 1.37616 3.765(24) 1799. 2.5100 3.7427
66466. 1.37657 3.455(22) 1981. 2.5098 3.4725
66486. 1.37698 3.173(22) 2156. 2.5095 3.2188
66506. 1.37740 2.977(21) 2316. 2.5093 3.0182
66526. 1.37781 2.866(20) 2403. 2.5090 2.8755
66546. 1.37822 2.747(20) 2501. 2.5088 2.7802
66566. 1.37864 2.673(20) 2582. 2.5086 2.7190
66586. 1.37905 2.641(20) 2611. 2.5083 2.6809
66606. 1.37946 2.642(20) 2625. 2.5081 2.6577
66626. 1.37988 2.605(19) 2634. 2.5079 2.6425
66646. 1.38029 2.605(20) 2628. 2.5076 2.6301
66666. 1.38071 2.584(19) 2650. 2.5074 2.6184
66686. 1.38112 2.568(19) 2707. 2.5072 2.6078
66706. 1.38154 2.592(19) 2673. 2.5069 2.6001
66726. 1.38195 2.613(19) 2648. 2.5067 2.5976
66746. 1.38236 2.580(19) 2654. 2.5065 2.6026
66766. 1.38278 2.581(19) 2684. 2.5062 2.6168
66786. 1.38319 2.619(20) 2622. 2.5060 2.6405
66806. 1.38361 2.679(20) 2579. 2.5058 2.6709
66826. 1.38402 2.706(20) 2522. 2.5055 2.7008
66846. 1.38444 2.680(20) 2551. 2.5053 2.7222
66866. 1.38486 2.707(20) 2531. 2.5051 2.7339
66886. 1.38527 2.745(20) 2476. 2.5048 2.7432
66907. 1.38569 2.750(20) 2516. 2.5046 2.7590
66927. 1.38610 2.756(20) 2503. 2.5044 2.7853
66947. 1.38652 2.781(20) 2437. 2.5041 2.8198
66967. 1.38693 2.871(21) 2345. 2.5039 2.8533
66987. 1.38735 2.872(21) 2362. 2.5036 2.8717
67007. 1.38777 2.900(21) 2312. 2.5034 2.8644
67027. 1.38818 2.827(20) 2414. 2.5032 2.8341
67047. 1.38860 2.771(20) 2465. 2.5029 2.7917
67067. 1.38902 2.752(20) 2463. 2.5027 2.7485
67087. 1.38943 2.734(20) 2470. 2.5025 2.7127
67107. 1.38985 2.675(20) 2567. 2.5022 2.6877
67128. 1.39027 2.669(20) 2555. 2.5020 2.6741
67148. 1.39068 2.684(20) 2535. 2.5018 2.6704
67168. 1.39110 2.683(20) 2511. 2.5015 2.6737
67188. 1.39152 2.688(20) 2495. 2.5013 2.6786
67208. 1.39194 2.688(20) 2496. 2.5011 2.6785
67228. 1.39235 2.670(20) 2512. 2.5008 2.6700
67249. 1.39277 2.653(20) 2569. 2.5006 2.6560
67269. 1.39319 2.593(19) 2646. 2.5004 2.6413
67289. 1.39361 2.661(20) 2532. 2.5001 2.6318
67309. 1.39403 2.653(20) 2537. 2.4999 2.6342
67329. 1.39444 2.672(20) 2537. 2.4997 2.6577
67349. 1.39486 2.752(20) 2463. 2.4994 2.7153
67370. 1.39528 2.870(21) 2342. 2.4992 2.8208
67390. 1.39570 2.975(21) 2260. 2.4990 2.9795
67410. 1.39612 3.147(22) 2136. 2.4987 3.1761
67430. 1.39654 3.298(22) 2033. 2.4985 3.3635
67451. 1.39696 3.442(23) 1935. 2.4983 3.4737
67471. 1.39737 3.411(23) 1940. 2.4980 3.4630
67491. 1.39779 3.328(22) 1988. 2.4978 3.3478
67511. 1.39821 3.196(22) 2083. 2.4976 3.1806
67532. 1.39863 3.078(22) 2131. 2.4973 3.0115
67552. 1.39905 2.871(21) 2344. 2.4971 2.8695
67572. 1.39947 2.784(20) 2395. 2.4969 2.7650
67592. 1.39989 2.707(20) 2477. 2.4966 2.6946
67613. 1.40031 2.664(20) 2496. 2.4964 2.6502
67633. 1.40073 2.604(20) 2583. 2.4962 2.6234
67653. 1.40115 2.623(20) 2562. 2.4959 2.6074
67673. 1.40157 2.582(20) 2572. 2.4957 2.5977
67694. 1.40199 2.553(20) 2627. 2.4955 2.5907
67714. 1.40241 2.566(20) 2611. 2.4953 2.5845
67734. 1.40284 2.576(20) 2579. 2.4950 2.5786
67755. 1.40326 2.577(20) 2569. 2.4948 2.5737
67775. 1.40368 2.559(20) 2589. 2.4946 2.5703
67795. 1.40410 2.529(19) 2660. 2.4943 2.5695
67816. 1.40452 2.516(19) 2682. 2.4941 2.5727
67836. 1.40494 2.542(20) 2609. 2.4939 2.5822
67856. 1.40536 2.630(20) 2481. 2.4936 2.6021
67877. 1.40578 2.589(20) 2559. 2.4934 2.6366
67897. 1.40621 2.647(20) 2496. 2.4932 2.6891
67918. 1.40663 2.719(20) 2429. 2.4929 2.7591
67938. 1.40705 2.836(21) 2308. 2.4927 2.8389
67958. 1.40747 2.907(21) 2249. 2.4925 2.9125
67979. 1.40789 2.970(21) 2211. 2.4923 2.9646
67999. 1.40832 2.991(21) 2189. 2.4920 2.9966
68019. 1.40874 2.972(21) 2218. 2.4918 3.0203
68040. 1.40916 3.038(22) 2148. 2.4916 3.0430
68060. 1.40959 3.079(22) 2137. 2.4913 3.0583
68081. 1.41001 3.045(22) 2157. 2.4911 3.0536
68101. 1.41043 3.042(22) 2144. 2.4909 3.0295
68122. 1.41085 2.974(21) 2207. 2.4906 2.9987
68142. 1.41128 2.961(21) 2216. 2.4904 2.9716
68162. 1.41170 2.930(21) 2249. 2.4902 2.9463
68183. 1.41212 2.920(21) 2227. 2.4900 2.9126
68203. 1.41255 2.908(21) 2237. 2.4897 2.8670
68224. 1.41297 2.845(21) 2314. 2.4895 2.8179
68244. 1.41340 2.814(21) 2328. 2.4893 2.7782
68265. 1.41382 2.772(21) 2378. 2.4890 2.7563
68285. 1.41424 2.753(21) 2369. 2.4888 2.7567
68306. 1.41467 2.801(21) 2296. 2.4886 2.7765
68326. 1.41509 2.819(21) 2289. 2.4884 2.8048
68347. 1.41552 2.816(21) 2335. 2.4881 2.8249
68367. 1.41594 2.765(21) 2373. 2.4879 2.8265
68388. 1.41637 2.797(21) 2313. 2.4877 2.8138
68408. 1.41679 2.774(21) 2342. 2.4875 2.7997
68429. 1.41722 2.780(21) 2325. 2.4872 2.7969
68449. 1.41764 2.793(21) 2313. 2.4870 2.8137
68470. 1.41807 2.812(21) 2333. 2.4868 2.8523
68490. 1.41849 2.874(21) 2283. 2.4866 2.9080
68511. 1.41892 2.951(21) 2200. 2.4863 2.9714
68531. 1.41935 3.032(22) 2151. 2.4861 3.0338
68552. 1.41977 3.052(22) 2149. 2.4859 3.0861
68573. 1.42020 3.166(22) 2018. 2.4857 3.1166
68593. 1.42062 3.161(22) 2047. 2.4854 3.1196
68614. 1.42105 3.085(22) 2110. 2.4852 3.1018
68634. 1.42148 3.056(22) 2121. 2.4850 3.0738
68655. 1.42190 2.992(22) 2162. 2.4848 3.0379
68675. 1.42233 2.939(21) 2188. 2.4845 2.9885
68696. 1.42276 2.904(21) 2228. 2.4843 2.9264
68717. 1.42318 2.842(21) 2272. 2.4841 2.8602
68737. 1.42361 2.812(21) 2266. 2.4839 2.8006
68758. 1.42404 2.749(21) 2363. 2.4836 2.7554
68779. 1.42446 2.741(21) 2376. 2.4834 2.7290
68799. 1.42489 2.778(21) 2308. 2.4832 2.7247
68820. 1.42532 2.821(21) 2257. 2.4830 2.7463
68840. 1.42575 2.841(21) 2262. 2.4827 2.7991
68861. 1.42617 2.942(21) 2187. 2.4825 2.8895
68882. 1.42660 3.042(22) 2110. 2.4823 3.0220
68902. 1.42703 3.189(22) 1994. 2.4821 3.1936
68923. 1.42746 3.376(23) 1887. 2.4819 3.3864
68944. 1.42789 3.546(24) 1772. 2.4816 3.5577
68964. 1.42832 3.625(24) 1735. 2.4814 3.6492
68985. 1.42874 3.625(24) 1728. 2.4812 3.6295
69006. 1.42917 3.510(24) 1793. 2.4810 3.5169
69027. 1.42960 3.370(23) 1868. 2.4808 3.3547
69047. 1.43003 3.230(23) 1960. 2.4805 3.1826
69068. 1.43046 3.058(22) 2068. 2.4803 3.0267
69089. 1.43089 2.963(22) 2136. 2.4801 2.8993
69109. 1.43132 2.848(21) 2206. 2.4799 2.8029
69130. 1.43175 2.743(21) 2305. 2.4797 2.7337
69151. 1.43218 2.701(21) 2344. 2.4794 2.6856
69172. 1.43261 2.655(20) 2421. 2.4792 2.6520
69192. 1.43304 2.618(20) 2402. 2.4790 2.6283
69213. 1.43347 2.607(20) 2413. 2.4788 2.6122
69234. 1.43390 2.586(20) 2446. 2.4786 2.6029
69255. 1.43433 2.600(20) 2402. 2.4784 2.6006
69275. 1.43476 2.614(20) 2394. 2.4781 2.6059
69296. 1.43519 2.604(20) 2413. 2.4779 2.6193
69317. 1.43562 2.655(21) 2364. 2.4777 2.6400
69338. 1.43605 2.648(20) 2394. 2.4775 2.6654
69359. 1.43648 2.711(21) 2317. 2.4773 2.6897
69379. 1.43691 2.693(21) 2340. 2.4771 2.7079
69400. 1.43734 2.715(21) 2317. 2.4768 2.7176
69421. 1.43777 2.706(21) 2313. 2.4766 2.7208
69442. 1.43820 2.753(21) 2250. 2.4764 2.7201
69463. 1.43864 2.712(21) 2328. 2.4762 2.7202
69484. 1.43907 2.740(21) 2296. 2.4760 2.7293
69504. 1.43950 2.796(21) 2244. 2.4758 2.7589
69525. 1.43993 2.844(21) 2225. 2.4756 2.8205
69546. 1.44036 2.954(22) 2106. 2.4754 2.9202
69567. 1.44080 3.060(22) 2062. 2.4751 3.0516
69588. 1.44123 3.165(22) 1977. 2.4749 3.1871
69609. 1.44166 3.277(23) 1904. 2.4747 3.2810
69630. 1.44209 3.342(23) 1858. 2.4745 3.3024
69651. 1.44253 3.278(23) 1894. 2.4743 3.2655
69671. 1.44296 3.200(23) 1933. 2.4741 3.2094
69692. 1.44339 3.153(22) 1992. 2.4739 3.1671
69713. 1.44382 3.141(22) 2007. 2.4737 3.1512
69734. 1.44426 3.160(22) 1976. 2.4735 3.1496
69755. 1.44469 3.183(23) 1955. 2.4732 3.1347
69776. 1.44512 3.071(22) 2033. 2.4730 3.0917
69797. 1.44556 3.020(22) 2086. 2.4728 3.0322
69818. 1.44599 2.976(22) 2098. 2.4726 2.9834
69839. 1.44643 2.955(22) 2114. 2.4724 2.9780
69860. 1.44686 2.951(22) 2144. 2.4722 3.0426
69881. 1.44729 3.112(22) 2038. 2.4720 3.1856
69902. 1.44773 3.371(23) 1840. 2.4718 3.3818
69923. 1.44816 3.606(24) 1716. 2.4716 3.5583
69944. 1.44860 3.714(25) 1660. 2.4714 3.6243
69965. 1.44903 3.636(24) 1701. 2.4712 3.5495
69986. 1.44947 3.434(24) 1795. 2.4710 3.3814
70007. 1.44990 3.186(23) 1960. 2.4708 3.1917
70028. 1.45034 3.048(22) 2065. 2.4706 3.0355
70049. 1.45077 2.932(22) 2134. 2.4703 2.9398
70070. 1.45121 2.932(22) 2136. 2.4701 2.9076
70091. 1.45164 2.949(22) 2141. 2.4699 2.9241
70112. 1.45208 2.985(22) 2098. 2.4697 2.9611
70133. 1.45251 3.018(22) 2088. 2.4695 2.9833
70154. 1.45295 3.045(22) 2039. 2.4693 2.9691
70175. 1.45339 2.992(22) 2077. 2.4691 2.9206
70196. 1.45382 2.953(22) 2093. 2.4689 2.8514
70217. 1.45426 2.847(21) 2177. 2.4687 2.7762
70238. 1.45469 2.743(21) 2251. 2.4685 2.7066
70259. 1.45513 2.663(21) 2357. 2.4683 2.6492
70280. 1.45557 2.673(21) 2307. 2.4681 2.6053
70301. 1.45600 2.608(21) 2358. 2.4679 2.5737
70322. 1.45644 2.581(20) 2412. 2.4677 2.5519
70343. 1.45688 2.558(20) 2422. 2.4675 2.5372
70364. 1.45731 2.562(20) 2425. 2.4673 2.5276
70386. 1.45775 2.547(20) 2450. 2.4671 2.5216
70407. 1.45819 2.523(20) 2458. 2.4669 2.5179
70428. 1.45863 2.560(20) 2395. 2.4667 2.5155
70449. 1.45906 2.518(20) 2472. 2.4665 2.5132
70470. 1.45950 2.509(20) 2468. 2.4663 2.5105
70491. 1.45994 2.536(20) 2453. 2.4661 2.5078
70512. 1.46038 2.521(20) 2446. 2.4659 2.5053
70534. 1.46082 2.525(20) 2458. 2.4658 2.5036
70555. 1.46125 2.524(20) 2461. 2.4656 2.5032
70576. 1.46169 2.511(20) 2492. 2.4654 2.5050
70597. 1.46213 2.485(20) 2519. 2.4652 2.5107
70618. 1.46257 2.480(20) 2513. 2.4650 2.5218
70639. 1.46301 2.528(20) 2455. 2.4648 2.5397
70661. 1.46345 2.542(20) 2418. 2.4646 2.5638
70682. 1.46389 2.552(20) 2402. 2.4644 2.5899
70703. 1.46433 2.627(21) 2301. 2.4642 2.6094
70724. 1.46477 2.595(21) 2375. 2.4640 2.6142
70745. 1.46521 2.577(20) 2385. 2.4638 2.6033
70767. 1.46565 2.560(20) 2417. 2.4636 2.5831
70788. 1.46608 2.589(21) 2336. 2.4634 2.5607
70809. 1.46652 2.501(20) 2473. 2.4633 2.5410
70830. 1.46696 2.527(20) 2437. 2.4631 2.5261
70852. 1.46740 2.495(20) 2511. 2.4629 2.5164
70873. 1.46785 2.535(20) 2436. 2.4627 2.5106
70894. 1.46829 2.500(20) 2481. 2.4625 2.5080
70915. 1.46873 2.499(20) 2426. 2.4623 2.5080
70937. 1.46917 2.534(20) 2431. 2.4621 2.5105
70958. 1.46961 2.515(20) 2457. 2.4619 2.5165
70979. 1.47005 2.574(21) 2360. 2.4618 2.5278
71001. 1.47049 2.582(20) 2409. 2.4616 2.5486
71022. 1.47093 2.627(21) 2343. 2.4614 2.5846
71043. 1.47137 2.682(21) 2300. 2.4612 2.6413
71064. 1.47181 2.737(21) 2237. 2.4610 2.7207
71086. 1.47226 2.831(22) 2160. 2.4608 2.8161
71107. 1.47270 2.916(22) 2111. 2.4606 2.9078
71128. 1.47314 2.981(22) 2027. 2.4605 2.9672
71150. 1.47358 2.972(22) 2041. 2.4603 2.9817
71171. 1.47402 2.945(22) 2053. 2.4601 2.9647
71192. 1.47447 2.908(22) 2066. 2.4599 2.9363
71214. 1.47491 2.856(22) 2148. 2.4597 2.9055
71235. 1.47535 2.841(22) 2145. 2.4596 2.8677
71257. 1.47579 2.822(22) 2128. 2.4594 2.8175
71278. 1.47624 2.767(21) 2200. 2.4592 2.7584
71299. 1.47668 2.684(21) 2251. 2.4590 2.6990
71321. 1.47712 2.657(21) 2282. 2.4588 2.6461
71342. 1.47757 2.588(20) 2389. 2.4587 2.6035
71363. 1.47801 2.576(21) 2341. 2.4585 2.5720
71385. 1.47845 2.544(20) 2395. 2.4583 2.5502
71406. 1.47890 2.521(20) 2428. 2.4581 2.5361
71428. 1.47934 2.537(21) 2365. 2.4580 2.5270
71449. 1.47978 2.495(20) 2412. 2.4578 2.5211
71471. 1.48023 2.506(20) 2386. 2.4576 2.5174
71492. 1.48067 2.480(20) 2448. 2.4574 2.5145
71514. 1.48112 2.482(20) 2459. 2.4573 2.5122
71535. 1.48156 2.524(21) 2367. 2.4571 2.5114
71556. 1.48200 2.487(20) 2435. 2.4569 2.5117
71578. 1.48245 2.498(20) 2403. 2.4568 2.5132
71599. 1.48289 2.477(20) 2436. 2.4566 2.5159
71621. 1.48334 2.484(20) 2449. 2.4564 2.5203
71642. 1.48378 2.500(20) 2418. 2.4562 2.5270
71664. 1.48423 2.574(21) 2303. 2.4561 2.5361
71685. 1.48467 2.577(21) 2323. 2.4559 2.5519
71707. 1.48512 2.613(21) 2291. 2.4557 2.5794
71728. 1.48557 2.653(21) 2266. 2.4556 2.6278
71750. 1.48601 2.736(21) 2203. 2.4554 2.7097
71771. 1.48646 2.838(22) 2106. 2.4552 2.8357
71793. 1.48690 2.992(22) 1986. 2.4551 3.0072
71814. 1.48735 3.151(23) 1902. 2.4549 3.2054
71836. 1.48780 3.345(24) 1756. 2.4547 3.3844
71858. 1.48824 3.477(24) 1671. 2.4546 3.4930
71879. 1.48869 3.500(25) 1656. 2.4544 3.5166
71901. 1.48914 3.455(24) 1686. 2.4542 3.4696
71922. 1.48958 3.352(24) 1748. 2.4541 3.3681
71944. 1.49003 3.221(23) 1833. 2.4539 3.2312
71965. 1.49048 3.109(23) 1878. 2.4538 3.0868
71987. 1.49092 2.996(23) 1946. 2.4536 2.9588
72009. 1.49137 2.893(22) 2026. 2.4534 2.8615
72030. 1.49182 2.801(22) 2113. 2.4533 2.8015
72052. 1.49227 2.780(22) 2150. 2.4531 2.7825
72073. 1.49271 2.865(22) 2047. 2.4530 2.8080
72095. 1.49316 2.900(22) 2035. 2.4528 2.8826
72117. 1.49361 3.044(23) 1929. 2.4526 3.0092
72138. 1.49406 3.170(23) 1836. 2.4525 3.1832
72160. 1.49451 3.362(24) 1735. 2.4523 3.3847
72182. 1.49495 3.591(25) 1618. 2.4522 3.5734
72203. 1.49540 3.746(25) 1542. 2.4520 3.6984
72225. 1.49585 3.772(26) 1522. 2.4519 3.7197
72247. 1.49630 3.643(25) 1575. 2.4517 3.6327
72268. 1.49675 3.427(24) 1672. 2.4516 3.4721
72290. 1.49720 3.235(24) 1767. 2.4514 3.2847
72312. 1.49765 3.041(23) 1904. 2.4512 3.1053
72333. 1.49810 2.921(23) 1961. 2.4511 2.9540
72355. 1.49855 2.806(22) 2053. 2.4509 2.8382
72377. 1.49900 2.705(22) 2129. 2.4508 2.7582
72398. 1.49945 2.682(22) 2153. 2.4506 2.7126
72420. 1.49990 2.659(22) 2149. 2.4505 2.7005
72442. 1.50035 2.702(22) 2107. 2.4503 2.7205
72464. 1.50080 2.746(22) 2070. 2.4502 2.7672
72485. 1.50125 2.848(23) 1974. 2.4501 2.8254
72507. 1.50170 2.912(23) 1915. 2.4499 2.8715
72529. 1.50215 2.924(23) 1912. 2.4498 2.8850
72551. 1.50260 2.881(23) 1931. 2.4496 2.8683
72572. 1.50305 2.835(23) 1967. 2.4495 2.8368
72594. 1.50350 2.772(22) 2028. 2.4493 2.8024
72616. 1.50395 2.804(23) 1969. 2.4492 2.7709
72638. 1.50440 2.740(22) 2015. 2.4490 2.7483
72659. 1.50485 2.718(22) 2011. 2.4489 2.7432
72681. 1.50531 2.788(23) 1920. 2.4488 2.7626
72703. 1.50576 2.776(22) 1983. 2.4486 2.8062
72725. 1.50621 2.849(23) 1933. 2.4485 2.8626
72747. 1.50666 2.909(23) 1841. 2.4483 2.9110
72769. 1.50711 2.974(24) 1781. 2.4482 2.9392
72790. 1.50756 2.982(24) 1784. 2.4481 2.9544
72812. 1.50802 3.002(24) 1763. 2.4479 2.9716
72834. 1.50847 3.056(24) 1718. 2.4478 2.9999
72856. 1.50892 3.103(24) 1683. 2.4476 3.0361
72878. 1.50937 3.170(25) 1613. 2.4475 3.0602
72900. 1.50983 3.146(25) 1601. 2.4474 3.0493
72921. 1.51028 3.076(25) 1642. 2.4472 3.0003
72943. 1.51073 2.969(24) 1707. 2.4471 2.9272
72965. 1.51119 2.825(24) 1806. 2.4470 2.8477
72987. 1.51164 2.771(23) 1830. 2.4468 2.7773
73009. 1.51209 2.710(23) 1888. 2.4467 2.7268
73031. 1.51255 2.655(23) 1946. 2.4466 2.7022
73053. 1.51300 2.642(23) 1931. 2.4464 2.7068
73075. 1.51346 2.748(23) 1827. 2.4463 2.7405
73097. 1.51391 2.810(24) 1786. 2.4462 2.7996
73119. 1.51436 2.862(24) 1743. 2.4461 2.8751
73141. 1.51482 2.960(24) 1688. 2.4459 2.9510
73162. 1.51527 3.009(25) 1638. 2.4458 3.0206
73184. 1.51573 3.070(25) 1580. 2.4457 3.0884
73206. 1.51618 3.138(25) 1546. 2.4456 3.1557
73228. 1.51664 3.229(26) 1464. 2.4454 3.2047
73250. 1.51709 3.219(26) 1476. 2.4453 3.2066
73272. 1.51755 3.125(26) 1533. 2.4452 3.1548
73294. 1.51800 3.038(25) 1596. 2.4451 3.0702
73316. 1.51846 2.919(24) 1671. 2.4449 2.9787
73338. 1.51891 2.862(24) 1727. 2.4448 2.8958
73360. 1.51937 2.804(24) 1752. 2.4447 2.8245
73382. 1.51983 2.750(24) 1778. 2.4446 2.7638
73404. 1.52028 2.716(24) 1808. 2.4445 2.7134
73426. 1.52074 2.681(23) 1848. 2.4443 2.6736
73448. 1.52119 2.683(23) 1857. 2.4442 2.6430
73470. 1.52165 2.638(23) 1879. 2.4441 2.6184
73492. 1.52211 2.625(23) 1896. 2.4440 2.5967
73514. 1.52256 2.597(23) 1936. 2.4439 2.5765
73537. 1.52302 2.594(23) 1921. 2.4438 2.5587
73559. 1.52348 2.549(22) 1999. 2.4436 2.5439
73581. 1.52393 2.548(22) 1995. 2.4435 2.5326
73603. 1.52439 2.533(22) 1991. 2.4434 2.5248
73625. 1.52485 2.513(22) 2024. 2.4433 2.5202
73647. 1.52531 2.505(22) 2040. 2.4432 2.5183
73669. 1.52576 2.512(22) 2076. 2.4431 2.5189
73691. 1.52622 2.538(22) 2041. 2.4430 2.5223
73713. 1.52668 2.534(22) 2043. 2.4429 2.5294
73735. 1.52714 2.548(22) 2055. 2.4428 2.5433
73757. 1.52760 2.601(22) 1983. 2.4427 2.5701
73780. 1.52805 2.674(23) 1923. 2.4425 2.6196
73802. 1.52851 2.748(23) 1870. 2.4424 2.7033
73824. 1.52897 2.817(23) 1844. 2.4423 2.8271
73846. 1.52943 2.965(24) 1748. 2.4422 2.9822
73868. 1.52989 3.047(24) 1702. 2.4421 3.1344
73890. 1.53035 3.135(25) 1641. 2.4420 3.2267
73912. 1.53081 3.153(25) 1635. 2.4419 3.2225
73935. 1.53127 3.105(24) 1667. 2.4418 3.1396
73957. 1.53173 3.030(24) 1728. 2.4417 3.0240
73979. 1.53219 2.939(23) 1820. 2.4416 2.9160
74001. 1.53265 2.910(23) 1833. 2.4415 2.8433
74023. 1.53311 2.895(23) 1861. 2.4414 2.8199
74046. 1.53357 2.921(23) 1830. 2.4413 2.8518
74068. 1.53403 2.998(24) 1777. 2.4412 2.9409
74090. 1.53449 3.048(24) 1774. 2.4411 3.0833
74112. 1.53495 3.246(25) 1653. 2.4410 3.2633
74134. 1.53541 3.448(26) 1535. 2.4409 3.4566
74157. 1.53587 3.630(26) 1472. 2.4408 3.6398
74179. 1.53633 3.822(27) 1393. 2.4408 3.7905
74201. 1.53679 3.881(27) 1375. 2.4407 3.8805
74223. 1.53725 3.923(27) 1358. 2.4406 3.8900
74246. 1.53771 3.829(27) 1385. 2.4405 3.8154
74268. 1.53817 3.654(26) 1458. 2.4404 3.6679
74290. 1.53863 3.442(25) 1579. 2.4403 3.4793
74313. 1.53910 3.248(25) 1666. 2.4402 3.2882
74335. 1.53956 3.143(24) 1713. 2.4401 3.1246
74357. 1.54002 2.998(23) 1821. 2.4400 3.0058
74379. 1.54048 2.943(23) 1850. 2.4400 2.9368
74402. 1.54094 2.894(23) 1897. 2.4399 2.9162
74424. 1.54141 2.919(23) 1867. 2.4398 2.9368
74446. 1.54187 3.001(23) 1812. 2.4397 2.9850
74469. 1.54233 3.104(24) 1736. 2.4396 3.0381
74491. 1.54279 3.152(24) 1687. 2.4395 3.0662
74513. 1.54326 3.100(24) 1745. 2.4395 3.0505
74536. 1.54372 3.024(24) 1795. 2.4394 2.9944
74558. 1.54418 2.922(23) 1841. 2.4393 2.9156
74581. 1.54465 2.822(23) 1911. 2.4392 2.8318
74603. 1.54511 2.715(22) 1983. 2.4391 2.7551
74625. 1.54557 2.647(22) 2066. 2.4391 2.6915
74648. 1.54604 2.608(22) 2082. 2.4390 2.6428
74670. 1.54650 2.595(22) 2100. 2.4389 2.6071
74692. 1.54697 2.568(22) 2112. 2.4388 2.5823
74715. 1.54743 2.536(22) 2131. 2.4388 2.5660
74737. 1.54789 2.537(22) 2127. 2.4387 2.5561
74760. 1.54836 2.491(21) 2185. 2.4386 2.5513
74782. 1.54882 2.522(22) 2144. 2.4385 2.5512
74805. 1.54929 2.551(22) 2138. 2.4385 2.5564
74827. 1.54975 2.564(22) 2117. 2.4384 2.5694
74849. 1.55022 2.609(22) 2052. 2.4383 2.5968
74872. 1.55068 2.656(22) 2013. 2.4383 2.6518
74894. 1.55115 2.746(23) 1971. 2.4382 2.7549
74917. 1.55161 2.853(23) 1900. 2.4381 2.9287
74939. 1.55208 3.117(24) 1712. 2.4381 3.1815
74962. 1.55254 3.401(25) 1567. 2.4380 3.4857
74984. 1.55301 3.681(26) 1429. 2.4379 3.7620
75007. 1.55348 3.933(28) 1315. 2.4379 3.8953
75029. 1.55394 3.822(27) 1350. 2.4378 3.8305
75052. 1.55441 3.626(26) 1450. 2.4377 3.6213
75074. 1.55488 3.324(25) 1612. 2.4377 3.3582
75097. 1.55534 3.063(24) 1746. 2.4376 3.1138
75119. 1.55581 2.908(23) 1818. 2.4376 2.9242
75142. 1.55628 2.790(23) 1892. 2.4375 2.7958
75164. 1.55674 2.712(23) 1962. 2.4374 2.7191
75187. 1.55721 2.717(23) 1953. 2.4374 2.6823
75210. 1.55768 2.697(23) 1947. 2.4373 2.6774
75232. 1.55814 2.677(22) 1984. 2.4373 2.7014
75255. 1.55861 2.703(22) 1991. 2.4372 2.7555
75277. 1.55908 2.831(23) 1891. 2.4372 2.8422
75300. 1.55955 2.969(24) 1790. 2.4371 2.9616
75322. 1.56002 3.158(25) 1660. 2.4371 3.1059
75345. 1.56048 3.267(25) 1622. 2.4370 3.2516
75368. 1.56095 3.403(26) 1527. 2.4370 3.3608
75390. 1.56142 3.440(26) 1529. 2.4369 3.4014
75413. 1.56189 3.419(26) 1529. 2.4369 3.3659
75436. 1.56236 3.271(25) 1598. 2.4368 3.2692
75458. 1.56283 3.155(24) 1676. 2.4368 3.1385
75481. 1.56329 2.986(24) 1747. 2.4367 3.0020
75503. 1.56376 2.836(23) 1865. 2.4367 2.8791
75526. 1.56423 2.766(23) 1901. 2.4366 2.7794
75549. 1.56470 2.686(22) 1986. 2.4366 2.7046
75571. 1.56517 2.636(22) 1983. 2.4365 2.6522
75594. 1.56564 2.632(22) 1988. 2.4365 2.6179
75617. 1.56611 2.583(22) 2059. 2.4365 2.5980
75639. 1.56658 2.622(22) 1981. 2.4364 2.5904
75662. 1.56705 2.652(23) 1965. 2.4364 2.5974
75685. 1.56752 2.654(22) 1977. 2.4364 2.6273
75708. 1.56799 2.719(23) 1955. 2.4363 2.6968
75730. 1.56846 2.851(23) 1846. 2.4363 2.8282
75753. 1.56893 3.009(24) 1742. 2.4362 3.0374
75776. 1.56940 3.240(25) 1618. 2.4362 3.3151
75798. 1.56987 3.569(26) 1429. 2.4362 3.6046
75821. 1.57035 3.857(28) 1319. 2.4361 3.7984
75844. 1.57082 3.885(28) 1296. 2.4361 3.8080
75867. 1.57129 3.708(27) 1377. 2.4361 3.6485
75889. 1.57176 3.456(26) 1471. 2.4360 3.4035
75912. 1.57223 3.190(25) 1603. 2.4360 3.1539
75935. 1.57270 2.983(24) 1724. 2.4360 2.9489
75958. 1.57317 2.858(24) 1788. 2.4360 2.8042
75981. 1.57365 2.722(23) 1901. 2.4359 2.7151
76003. 1.57412 2.703(23) 1913. 2.4359 2.6681
76026. 1.57459 2.706(23) 1895. 2.4359 2.6491
76049. 1.57506 2.669(23) 1930. 2.4359 2.6443
76072. 1.57554 2.699(23) 1885. 2.4358 2.6411
76095. 1.57601 2.688(23) 1893. 2.4358 2.6338
76117. 1.57648 2.650(23) 1899. 2.4358 2.6220
76140. 1.57695 2.624(23) 1943. 2.4358 2.6095
76163. 1.57743 2.652(23) 1945. 2.4358 2.5988
76186. 1.57790 2.589(23) 1969. 2.4357 2.5897
76209. 1.57837 2.566(22) 2003. 2.4357 2.5808
76232. 1.57885 2.586(23) 1971. 2.4357 2.5723
76255. 1.57932 2.592(22) 1985. 2.4357 2.5669
76277. 1.57980 2.569(22) 1978. 2.4357 2.5679
76300. 1.58027 2.570(22) 2010. 2.4357 2.5779
76323. 1.58074 2.590(22) 1980. 2.4356 2.5986
76346. 1.58122 2.648(23) 1934. 2.4356 2.6293
76369. 1.58169 2.678(23) 1892. 2.4356 2.6661
76392. 1.58217 2.676(23) 1916. 2.4356 2.6997
76415. 1.58264 2.748(23) 1857. 2.4356 2.7181
76438. 1.58312 2.713(23) 1853. 2.4356 2.7146
76461. 1.58359 2.692(23) 1873. 2.4356 2.6932
76484. 1.58407 2.653(23) 1910. 2.4356 2.6632
76507. 1.58454 2.644(23) 1920. 2.4356 2.6329
76529. 1.58502 2.597(23) 1960. 2.4356 2.6081
76552. 1.58549 2.565(22) 1981. 2.4355 2.5922
76575. 1.58597 2.608(23) 1959. 2.4355 2.5876
76598. 1.58644 2.643(23) 1908. 2.4355 2.5977
76621. 1.58692 2.693(23) 1888. 2.4355 2.6281
76644. 1.58740 2.716(23) 1866. 2.4355 2.6865
76667. 1.58787 2.793(24) 1803. 2.4355 2.7812
76690. 1.58835 2.903(24) 1737. 2.4355 2.9168
76713. 1.58883 3.091(25) 1620. 2.4355 3.0866
76736. 1.58930 3.193(25) 1588. 2.4355 3.2655
76759. 1.58978 3.365(26) 1501. 2.4355 3.4193
76782. 1.59026 3.521(27) 1410. 2.4356 3.5305
76805. 1.59073 3.614(27) 1369. 2.4356 3.5902
76828. 1.59121 3.601(27) 1393. 2.4356 3.5857
76852. 1.59169 3.571(27) 1392. 2.4356 3.5287
76875. 1.59217 3.520(27) 1408. 2.4356 3.4640
76898. 1.59264 3.501(27) 1424. 2.4356 3.4365
76921. 1.59312 3.499(27) 1423. 2.4356 3.4648
76944. 1.59360 3.573(27) 1399. 2.4356 3.5303
76967. 1.59408 3.623(27) 1360. 2.4356 3.5775
76990. 1.59456 3.542(27) 1387. 2.4356 3.5488
77013. 1.59503 3.394(26) 1449. 2.4356 3.4346
77036. 1.59551 3.237(25) 1541. 2.4357 3.2685
77059. 1.59599 3.029(25) 1661. 2.4357 3.0918
77082. 1.59647 2.881(24) 1761. 2.4357 2.9340
77106. 1.59695 2.809(24) 1793. 2.4357 2.8087
77129. 1.59743 2.765(24) 1772. 2.4357 2.7178
77152. 1.59791 2.656(23) 1880. 2.4357 2.6560
77175. 1.59839 2.660(23) 1891. 2.4358 2.6149
77198. 1.59887 2.569(23) 1950. 2.4358 2.5866
77221. 1.59935 2.569(23) 1939. 2.4358 2.5664
77244. 1.59983 2.577(23) 1928. 2.4358 2.5525
77268. 1.60031 2.553(23) 1944. 2.4359 2.5452
77291. 1.60079 2.566(23) 1919. 2.4359 2.5459
77314. 1.60127 2.530(23) 1966. 2.4359 2.5575
77337. 1.60175 2.633(23) 1853. 2.4359 2.5834
77360. 1.60223 2.602(23) 1902. 2.4360 2.6263
77384. 1.60271 2.670(23) 1841. 2.4360 2.6857
77407. 1.60319 2.743(24) 1784. 2.4360 2.7539
77430. 1.60367 2.792(24) 1755. 2.4360 2.8128
77453. 1.60415 2.860(24) 1691. 2.4361 2.8397
77476. 1.60463 2.833(24) 1704. 2.4361 2.8268
77500. 1.60511 2.800(24) 1718. 2.4361 2.7868
77523. 1.60560 2.724(24) 1789. 2.4362 2.7384
77546. 1.60608 2.707(24) 1797. 2.4362 2.6944
77569. 1.60656 2.640(23) 1876. 2.4362 2.6622
77593. 1.60704 2.627(23) 1876. 2.4363 2.6387
77616. 1.60752 2.643(23) 1842. 2.4363 2.6183
77639. 1.60801 2.588(23) 1898. 2.4363 2.5970
77663. 1.60849 2.543(23) 1923. 2.4364 2.5752
77686. 1.60897 2.570(23) 1857. 2.4364 2.5547
77709. 1.60945 2.501(23) 1945. 2.4365 2.5374
77733. 1.60994 2.529(23) 1948. 2.4365 2.5246
77756. 1.61042 2.540(23) 1912. 2.4365 2.5173
77779. 1.61090 2.542(23) 1881. 2.4366 2.5168
77803. 1.61139 2.556(23) 1897. 2.4366 2.5249
77826. 1.61187 2.553(23) 1897. 2.4367 2.5439
77849. 1.61235 2.569(23) 1930. 2.4367 2.5757
77873. 1.61284 2.623(23) 1873. 2.4368 2.6207
77896. 1.61332 2.710(24) 1777. 2.4368 2.6758
77919. 1.61381 2.789(24) 1727. 2.4369 2.7363
77943. 1.61429 2.850(24) 1706. 2.4369 2.8012
77966. 1.61477 2.890(24) 1686. 2.4370 2.8685
77989. 1.61526 2.950(25) 1639. 2.4370 2.9265
78013. 1.61574 2.930(25) 1646. 2.4371 2.9604
78036. 1.61623 2.973(25) 1612. 2.4371 2.9680
78060. 1.61671 2.964(25) 1606. 2.4372 2.9511
78083. 1.61720 2.925(25) 1648. 2.4372 2.9067
78106. 1.61768 2.895(24) 1669. 2.4373 2.8374
78130. 1.61817 2.764(24) 1745. 2.4374 2.7562
78153. 1.61865 2.726(24) 1743. 2.4374 2.6780
78177. 1.61914 2.581(23) 1902. 2.4375 2.6124
78200. 1.61963 2.574(23) 1875. 2.4375 2.5628
78224. 1.62011 2.538(23) 1880. 2.4376 2.5279
78247. 1.62060 2.547(23) 1872. 2.4376 2.5044
78271. 1.62108 2.474(23) 1941. 2.4377 2.4889
78294. 1.62157 2.467(23) 1952. 2.4378 2.4787
78318. 1.62206 2.434(22) 1998. 2.4378 2.4720
78341. 1.62254 2.461(23) 1937. 2.4379 2.4675
78365. 1.62303 2.476(23) 1941. 2.4380 2.4646
78388. 1.62352 2.466(23) 1947. 2.4380 2.4627
78412. 1.62401 2.463(23) 1946. 2.4381 2.4616
78435. 1.62449 2.461(23) 1931. 2.4382 2.4601
78459. 1.62498 2.446(22) 1984. 2.4382 2.4592
78482. 1.62547 2.460(23) 1969. 2.4383 2.4579
78506. 1.62595 2.480(23) 1931. 2.4384 2.4564
78529. 1.62644 2.473(23) 1931. 2.4385 2.4549
78553. 1.62693 2.452(23) 1935. 2.4385 2.4535
78576. 1.62742 2.482(23) 1886. 2.4386 2.4524
78600. 1.62791 2.453(23) 1939. 2.4387 2.4515
78624. 1.62840 2.484(23) 1880. 2.4388 2.4508
78647. 1.62888 2.475(23) 1909. 2.4388 2.4503
78671. 1.62937 2.457(23) 1913. 2.4389 2.4502
78694. 1.62986 2.469(23) 1913. 2.4390 2.4501
78718. 1.63035 2.448(23) 1929. 2.4391 2.4502
78742. 1.63084 2.441(23) 1926. 2.4391 2.4506
78765. 1.63133 2.486(23) 1871. 2.4392 2.4515
78789. 1.63182 2.424(23) 1931. 2.4393 2.4533
78812. 1.63231 2.466(23) 1886. 2.4394 2.4571
78836. 1.63280 2.449(23) 1914. 2.4395 2.4641
78860. 1.63329 2.454(23) 1912. 2.4396 2.4754
78883. 1.63378 2.495(23) 1853. 2.4397 2.4905
78907. 1.63427 2.487(23) 1890. 2.4397 2.5068
78931. 1.63476 2.480(23) 1900. 2.4398 2.5181
78954. 1.63525 2.498(23) 1860. 2.4399 2.5197
78978. 1.63574 2.526(23) 1839. 2.4400 2.5126
79002. 1.63623 2.526(23) 1853. 2.4401 2.5022
79026. 1.63672 2.512(23) 1855. 2.4402 2.4937
79049. 1.63721 2.543(23) 1815. 2.4403 2.4909
79073. 1.63770 2.529(23) 1859. 2.4404 2.4955
79097. 1.63820 2.562(23) 1814. 2.4405 2.5068
79120. 1.63869 2.587(23) 1818. 2.4406 2.5220
79144. 1.63918 2.614(24) 1785. 2.4407 2.5351
79168. 1.63967 2.617(24) 1788. 2.4408 2.5398
79192. 1.64016 2.607(24) 1788. 2.4408 2.5334
79215. 1.64065 2.589(24) 1789. 2.4409 2.5196
79239. 1.64115 2.557(23) 1812. 2.4410 2.5032
79263. 1.64164 2.531(23) 1826. 2.4411 2.4879
79287. 1.64213 2.517(23) 1841. 2.4412 2.4756
79311. 1.64262 2.522(23) 1833. 2.4413 2.4666
79334. 1.64312 2.523(24) 1807. 2.4415 2.4607
79358. 1.64361 2.470(23) 1875. 2.4416 2.4567
79382. 1.64410 2.474(23) 1892. 2.4417 2.4541
79406. 1.64460 2.487(23) 1850. 2.4418 2.4525
79430. 1.64509 2.473(23) 1855. 2.4419 2.4514
79453. 1.64558 2.474(23) 1849. 2.4420 2.4506
79477. 1.64608 2.481(23) 1842. 2.4421 2.4500
79501. 1.64657 2.462(23) 1888. 2.4422 2.4497
79525. 1.64707 2.435(23) 1936. 2.4423 2.4496
79549. 1.64756 2.484(23) 1823. 2.4424 2.4496
79573. 1.64805 2.500(23) 1863. 2.4425 2.4497
79597. 1.64855 2.500(23) 1842. 2.4426 2.4500
79620. 1.64904 2.470(23) 1881. 2.4428 2.4508
79644. 1.64954 2.570(23) 1873. 2.4429 2.4518
79668. 1.65003 2.473(22) 2002. 2.4430 2.4536
79692. 1.65053 2.520(23) 1948. 2.4431 2.4567
79716. 1.65102 2.493(23) 1964. 2.4432 2.4617
79740. 1.65152 2.524(23) 1953. 2.4433 2.4688
79764. 1.65201 2.510(23) 1967. 2.4435 2.4766
79788. 1.65251 2.545(23) 1920. 2.4436 2.4838
79812. 1.65301 2.521(24) 1762. 2.4437 2.4872
79836. 1.65350 2.528(25) 1622. 2.4438 2.4853
79860. 1.65400 2.515(25) 1614. 2.4439 2.4798
79884. 1.65449 2.516(25) 1608. 2.4441 2.4732
79907. 1.65499 2.495(25) 1557. 2.4442 2.4672
79931. 1.65549 2.501(25) 1540. 2.4443 2.4628
79955. 1.65598 2.502(26) 1532. 2.4444 2.4601
79979. 1.65648 2.462(25) 1541. 2.4446 2.4590
80003. 1.65698 2.463(25) 1569. 2.4447 2.4593
80027. 1.65747 2.448(25) 1581. 2.4448 2.4611
80051. 1.65797 2.478(25) 1548. 2.4449 2.4646
80075. 1.65847 2.426(25) 1586. 2.4451 2.4702
80099. 1.65897 2.455(25) 1547. 2.4452 2.4781
80123. 1.65946 2.480(26) 1515. 2.4453 2.4882
80148. 1.65996 2.531(26) 1484. 2.4455 2.4993
80172. 1.66046 2.526(26) 1483. 2.4456 2.5087
80196. 1.66096 2.526(26) 1501. 2.4457 2.5132
80220. 1.66146 2.522(26) 1475. 2.4459 2.5112
80244. 1.66196 2.480(26) 1527. 2.4460 2.5043
80268. 1.66245 2.499(26) 1510. 2.4461 2.4950
80292. 1.66295 2.467(25) 1548. 2.4463 2.4857
80316. 1.66345 2.517(26) 1480. 2.4464 2.4776
80340. 1.66395 2.487(26) 1520. 2.4466 2.4713
80364. 1.66445 2.464(26) 1505. 2.4467 2.4667
80388. 1.66495 2.471(26) 1529. 2.4468 2.4636
80412. 1.66545 2.487(26) 1520. 2.4470 2.4617
80437. 1.66595 2.473(26) 1520. 2.4471 2.4606
80461. 1.66645 2.467(25) 1556. 2.4473 2.4605
80485. 1.66695 2.464(26) 1537. 2.4474 2.4603
80509. 1.66745 2.470(25) 1547. 2.4475 2.4605
80533. 1.66795 2.451(26) 1527. 2.4477 2.4610
80557. 1.66845 2.506(26) 1505. 2.4478 2.4618
80581. 1.66895 2.492(26) 1521. 2.4480 2.4629
80606. 1.66945 2.421(25) 1575. 2.4481 2.4644
80630. 1.66995 2.440(25) 1556. 2.4483 2.4663
80654. 1.67045 2.502(26) 1513. 2.4484 2.4687
80678. 1.67095 2.475(25) 1548. 2.4486 2.4717
80702. 1.67146 2.475(26) 1522. 2.4487 2.4763
80727. 1.67196 2.490(25) 1548. 2.4489 2.4843
80751. 1.67246 2.501(26) 1535. 2.4490 2.5004
80775. 1.67296 2.540(26) 1505. 2.4492 2.5269
80799. 1.67346 2.583(26) 1488. 2.4493 2.5679
80824. 1.67396 2.603(26) 1473. 2.4495 2.6219
80848. 1.67447 2.708(27) 1403. 2.4497 2.6777
80872. 1.67497 2.739(27) 1406. 2.4498 2.7152
80896. 1.67547 2.731(27) 1388. 2.4500 2.7199
80921. 1.67598 2.683(26) 1431. 2.4501 2.6989
80945. 1.67648 2.668(26) 1427. 2.4503 2.6713
80969. 1.67698 2.678(27) 1410. 2.4505 2.6540
80993. 1.67748 2.652(26) 1465. 2.4506 2.6547
81018. 1.67799 2.701(26) 1450. 2.4508 2.6701
81042. 1.67849 2.708(26) 1445. 2.4509 2.6860
81066. 1.67899 2.666(26) 1525. 2.4511 2.6859
81091. 1.67950 2.666(26) 1530. 2.4513 2.6650
81115. 1.68000 2.652(25) 1562. 2.4514 2.6305
81139. 1.68051 2.628(25) 1616. 2.4516 2.5930
81164. 1.68101 2.549(25) 1662. 2.4518 2.5598
81188. 1.68151 2.567(24) 1682. 2.4519 2.5343
81212. 1.68202 2.508(24) 1721. 2.4521 2.5167
81237. 1.68252 2.511(24) 1722. 2.4523 2.5055
81261. 1.68303 2.490(24) 1741. 2.4524 2.4991
81285. 1.68353 2.479(24) 1728. 2.4526 2.4960
81310. 1.68404 2.503(24) 1694. 2.4528 2.4950
81334. 1.68454 2.505(24) 1690. 2.4529 2.4957
81359. 1.68505 2.482(24) 1690. 2.4531 2.4978
81383. 1.68556 2.516(24) 1674. 2.4533 2.5012
81407. 1.68606 2.489(24) 1723. 2.4535 2.5059
81432. 1.68657 2.497(24) 1719. 2.4536 2.5123
81456. 1.68707 2.511(24) 1729. 2.4538 2.5212
81481. 1.68758 2.492(24) 1748. 2.4540 2.5351
81505. 1.68809 2.551(24) 1671. 2.4542 2.5565
81530. 1.68859 2.645(25) 1590. 2.4543 2.5945
81554. 1.68910 2.721(25) 1560. 2.4545 2.6647
81579. 1.68961 2.845(26) 1482. 2.4547 2.7890
81603. 1.69011 2.999(27) 1404. 2.4549 2.9884
81628. 1.69062 3.272(28) 1288. 2.4551 3.2674
81652. 1.69113 3.576(29) 1165. 2.4552 3.5920
81676. 1.69163 3.814(30) 1084. 2.4554 3.8793
81701. 1.69214 3.985(31) 1017. 2.4556 4.0287
81726. 1.69265 3.964(31) 1029. 2.4558 3.9905
81750. 1.69316 3.775(30) 1091. 2.4560 3.7934
81775. 1.69367 3.500(29) 1198. 2.4562 3.5194
81799. 1.69417 3.216(28) 1308. 2.4564 3.2470
81824. 1.69468 3.047(27) 1369. 2.4565 3.0234
81848. 1.69519 2.965(27) 1390. 2.4567 2.8636
81873. 1.69570 2.795(26) 1487. 2.4569 2.7643
81897. 1.69621 2.745(26) 1530. 2.4571 2.7151
81922. 1.69672 2.686(25) 1575. 2.4573 2.7064
81946. 1.69723 2.694(25) 1566. 2.4575 2.7302
81971. 1.69774 2.809(26) 1476. 2.4577 2.7799
81996. 1.69824 2.864(26) 1461. 2.4579 2.8405
82020. 1.69875 2.932(27) 1423. 2.4581 2.8933
82045. 1.69926 2.965(27) 1387. 2.4583 2.9214
82069. 1.69977 2.929(27) 1407. 2.4584 2.9203
82094. 1.70028 2.930(27) 1419. 2.4586 2.8910
82119. 1.70079 2.823(26) 1493. 2.4588 2.8369
82143. 1.70130 2.803(26) 1511. 2.4590 2.7689
82168. 1.70181 2.713(26) 1493. 2.4592 2.7008
82193. 1.70232 2.622(25) 1583. 2.4594 2.6425
82217. 1.70284 2.573(25) 1632. 2.4596 2.5976
82242. 1.70335 2.521(25) 1660. 2.4598 2.5659
82267. 1.70386 2.503(25) 1662. 2.4600 2.5468
82291. 1.70437 2.540(25) 1644. 2.4602 2.5331
82316. 1.70488 2.486(25) 1636. 2.4604 2.5244
82341. 1.70539 2.516(25) 1612. 2.4606 2.5189
82365. 1.70590 2.500(25) 1654. 2.4608 2.5155
82390. 1.70642 2.512(25) 1634. 2.4610 2.5135
82415. 1.70693 2.491(25) 1660. 2.4612 2.5126
82440. 1.70744 2.483(24) 1679. 2.4614 2.5125
82464. 1.70795 2.481(25) 1649. 2.4616 2.5135
82489. 1.70846 2.477(24) 1676. 2.4618 2.5148
82514. 1.70898 2.502(24) 1674. 2.4620 2.5166
82538. 1.70949 2.478(25) 1656. 2.4623 2.5187
82563. 1.71000 2.493(25) 1604. 2.4625 2.5210
82588. 1.71052 2.478(25) 1662. 2.4627 2.5236
82613. 1.71103 2.500(25) 1627. 2.4629 2.5267
82638. 1.71154 2.490(25) 1625. 2.4631 2.5307
82662. 1.71206 2.548(25) 1581. 2.4633 2.5356
82687. 1.71257 2.533(25) 1611. 2.4635 2.5418
82712. 1.71308 2.518(25) 1605. 2.4637 2.5497
82737. 1.71360 2.556(25) 1586. 2.4639 2.5597
82762. 1.71411 2.582(25) 1577. 2.4641 2.5727
82786. 1.71463 2.665(26) 1515. 2.4644 2.5902
82811. 1.71514 2.693(26) 1520. 2.4646 2.6157
82836. 1.71565 2.771(26) 1456. 2.4648 2.6567
82861. 1.71617 2.874(27) 1393. 2.4650 2.7282
82886. 1.71668 3.045(27) 1329. 2.4652 2.8563
82911. 1.71720 3.252(29) 1228. 2.4654 3.0757
82936. 1.71771 3.539(30) 1128. 2.4656 3.4175
82960. 1.71823 3.898(31) 1034. 2.4659 3.8832
82985. 1.71875 4.317(33) 929. 2.4661 4.4122
83010. 1.71926 4.752(35) 821. 2.4663 4.8536
83035. 1.71978 4.95(4) 771. 2.467 5.015
83060. 1.72029 4.76(4) 808. 2.467 4.839
83085. 1.72081 4.374(34) 885. 2.4670 4.4383
83110. 1.72133 3.946(32) 985. 2.4672 3.9697
83135. 1.72184 3.605(30) 1089. 2.4674 3.5460
83160. 1.72236 3.331(29) 1170. 2.4676 3.2187
83185. 1.72288 3.067(28) 1284. 2.4678 2.9918
83210. 1.72339 2.852(27) 1378. 2.4681 2.8454
83235. 1.72391 2.791(27) 1414. 2.4683 2.7549
83260. 1.72443 2.681(26) 1508. 2.4685 2.7001
83285. 1.72494 2.631(26) 1523. 2.4687 2.6675
83310. 1.72546 2.638(26) 1501. 2.4690 2.6487
83335. 1.72598 2.557(25) 1577. 2.4692 2.6390
83360. 1.72650 2.561(25) 1540. 2.4694 2.6359
83385. 1.72702 2.580(26) 1527. 2.4696 2.6382
83410. 1.72753 2.515(25) 1615. 2.4699 2.6454
83435. 1.72805 2.594(26) 1507. 2.4701 2.6583
83460. 1.72857 2.605(25) 1551. 2.4703 2.6788
83485. 1.72909 2.591(25) 1578. 2.4706 2.7105
83510. 1.72961 2.680(26) 1478. 2.4708 2.7598
83535. 1.73013 2.775(27) 1417. 2.4710 2.8356
83560. 1.73065 2.875(27) 1382. 2.4712 2.9493
83585. 1.73117 3.082(28) 1285. 2.4715 3.1140
83610. 1.73168 3.261(29) 1223. 2.4717 3.3404
83635. 1.73220 3.608(30) 1093. 2.4719 3.6359
83660. 1.73272 4.005(32) 989. 2.4722 3.9895
83685. 1.73324 4.435(34) 885. 2.4724 4.3719
83710. 1.73376 4.764(35) 821. 2.4726 4.7534
83735. 1.73428 5.09(4) 752. 2.473 5.097
83761. 1.73480 5.32(4) 711. 2.473 5.310
83786. 1.73533 5.34(4) 699. 2.473 5.284
83811. 1.73585 5.02(4) 754. 2.474 5.040
83836. 1.73637 4.658(35) 828. 2.4738 4.7285
83861. 1.73689 4.371(33) 899. 2.4740 4.5062
83886. 1.73741 4.341(33) 895. 2.4743 4.4561
83911. 1.73793 4.542(34) 856. 2.4745 4.5462
83937. 1.73845 4.77(4) 801. 2.475 4.645
83962. 1.73897 4.76(4) 795. 2.475 4.623
83987. 1.73949 4.525(34) 846. 2.4752 4.4863
84012. 1.74002 4.395(34) 879. 2.4755 4.3429
84037. 1.74054 4.268(33) 906. 2.4757 4.3015
84063. 1.74106 4.318(34) 883. 2.4760 4.4058
84088. 1.74158 4.553(35) 821. 2.4762 4.6011
84113. 1.74211 4.652(35) 813. 2.4764 4.7405
84138. 1.74263 4.579(35) 816. 2.4767 4.6884
84164. 1.74315 4.386(34) 851. 2.4769 4.4460
84189. 1.74367 4.037(33) 934. 2.4772 4.1139
84214. 1.74420 3.839(32) 971. 2.4774 3.7966
84239. 1.74472 3.560(30) 1078. 2.4777 3.5602
84265. 1.74524 3.435(30) 1116. 2.4779 3.4265
84290. 1.74577 3.353(29) 1151. 2.4781 3.3839
84315. 1.74629 3.430(30) 1103. 2.4784 3.3982
84340. 1.74682 3.432(30) 1111. 2.4786 3.4288
84366. 1.74734 3.503(30) 1076. 2.4789 3.4608
84391. 1.74786 3.598(31) 1046. 2.4791 3.5288
84416. 1.74839 3.734(31) 1020. 2.4794 3.7074
84442. 1.74891 4.106(33) 916. 2.4796 4.0840
84467. 1.74944 4.64(4) 805. 2.480 4.719
84492. 1.74996 5.43(4) 680. 2.480 5.591
84518. 1.75049 6.42(4) 561. 2.480 6.529
84543. 1.75101 7.25(5) 480. 2.481 7.192
84568. 1.75154 7.35(5) 470. 2.481 7.286
84594. 1.75206 6.94(4) 504. 2.481 6.855
84619. 1.75259 6.15(4) 587. 2.481 6.177
84645. 1.75312 5.54(4) 653. 2.482 5.516
84670. 1.75364 5.17(4) 708. 2.482 5.008
84695. 1.75417 4.77(4) 764. 2.482 4.647
84721. 1.75469 4.471(35) 816. 2.4824 4.3474
84746. 1.75522 4.125(33) 902. 2.4826 4.0494
84772. 1.75575 3.789(32) 967. 2.4829 3.7494
84797. 1.75627 3.442(31) 1063. 2.4831 3.4700
84822. 1.75680 3.201(29) 1156. 2.4834 3.2326
84848. 1.75733 2.996(28) 1255. 2.4836 3.0464
84873. 1.75786 2.840(28) 1314. 2.4839 2.9099
84899. 1.75838 2.784(27) 1324. 2.4841 2.8141
84924. 1.75891 2.704(27) 1366. 2.4844 2.7485
84950. 1.75944 2.645(27) 1406. 2.4846 2.7041
84975. 1.75997 2.623(26) 1432. 2.4849 2.6744
85001. 1.76049 2.583(26) 1438. 2.4852 2.6554
85026. 1.76102 2.560(26) 1460. 2.4854 2.6448
85052. 1.76155 2.553(26) 1486. 2.4857 2.6414
85077. 1.76208 2.565(26) 1478. 2.4859 2.6438
85103. 1.76261 2.542(26) 1472. 2.4862 2.6497
85128. 1.76314 2.556(26) 1446. 2.4864 2.6550
85154. 1.76367 2.574(26) 1443. 2.4867 2.6544
85179. 1.76420 2.596(27) 1411. 2.4869 2.6456
85205. 1.76472 2.617(27) 1403. 2.4872 2.6307
85231. 1.76525 2.563(26) 1474. 2.4875 2.6139
85256. 1.76578 2.512(26) 1475. 2.4877 2.5974
85282. 1.76631 2.521(26) 1460. 2.4880 2.5835
85307. 1.76684 2.525(26) 1442. 2.4882 2.5724
85333. 1.76737 2.535(26) 1431. 2.4885 2.5641
85358. 1.76790 2.541(26) 1466. 2.4888 2.5582
85384. 1.76843 2.518(26) 1469. 2.4890 2.5542
85410. 1.76897 2.507(26) 1471. 2.4893 2.5513
85435. 1.76950 2.570(27) 1415. 2.4895 2.5492
85461. 1.77003 2.518(26) 1460. 2.4898 2.5480
85487. 1.77056 2.495(26) 1485. 2.4901 2.5474
85512. 1.77109 2.530(26) 1445. 2.4903 2.5475
85538. 1.77162 2.504(26) 1477. 2.4906 2.5487
85564. 1.77215 2.529(26) 1447. 2.4908 2.5519
85589. 1.77268 2.503(26) 1446. 2.4911 2.5572
85615. 1.77322 2.562(27) 1413. 2.4914 2.5658
85641. 1.77375 2.548(27) 1416. 2.4916 2.5781
85666. 1.77428 2.581(27) 1405. 2.4919 2.5931
85692. 1.77481 2.587(27) 1404. 2.4922 2.6076
85718. 1.77534 2.584(27) 1414. 2.4924 2.6165
85743. 1.77588 2.605(27) 1376. 2.4927 2.6166
85769. 1.77641 2.575(27) 1410. 2.4929 2.6096
85795. 1.77694 2.545(27) 1417. 2.4932 2.5998
85821. 1.77748 2.582(27) 1396. 2.4935 2.5908
85846. 1.77801 2.577(27) 1396. 2.4937 2.5844
85872. 1.77854 2.586(27) 1397. 2.4940 2.5819
85898. 1.77908 2.534(27) 1406. 2.4943 2.5831
85924. 1.77961 2.526(26) 1426. 2.4945 2.5880
85949. 1.78014 2.558(27) 1399. 2.4948 2.5970
85975. 1.78068 2.574(27) 1369. 2.4951 2.6115
86001. 1.78121 2.555(27) 1397. 2.4953 2.6339
86027. 1.78175 2.654(27) 1331. 2.4956 2.6673
86053. 1.78228 2.637(27) 1353. 2.4959 2.7160
86078. 1.78282 2.760(28) 1276. 2.4961 2.7837
86104. 1.78335 2.840(28) 1242. 2.4964 2.8720
86130. 1.78389 2.975(29) 1186. 2.4967 2.9774
86156. 1.78442 3.089(30) 1138. 2.4969 3.0858
86182. 1.78496 3.259(31) 1065. 2.4972 3.1700
86208. 1.78549 3.347(31) 1041. 2.4975 3.2015
86233. 1.78603 3.287(31) 1050. 2.4977 3.1728
86259. 1.78656 3.198(30) 1096. 2.4980 3.1003
86285. 1.78710 3.010(29) 1188. 2.4983 3.0081
86311. 1.78764 2.863(28) 1234. 2.4985 2.9163
86337. 1.78817 2.760(28) 1287. 2.4988 2.8369
86363. 1.78871 2.687(27) 1328. 2.4991 2.7749
86389. 1.78925 2.666(27) 1329. 2.4993 2.7305
86415. 1.78978 2.646(27) 1352. 2.4996 2.7015
86441. 1.79032 2.672(28) 1311. 2.4999 2.6847
86467. 1.79086 2.635(27) 1346. 2.5001 2.6773
86492. 1.79139 2.660(28) 1302. 2.5004 2.6776
86518. 1.79193 2.701(28) 1280. 2.5007 2.6844
86544. 1.79247 2.696(28) 1295. 2.5009 2.6984
86570. 1.79301 2.763(28) 1264. 2.5012 2.7211
86596. 1.79355 2.806(29) 1230. 2.5015 2.7563
86622. 1.79408 2.898(29) 1207. 2.5017 2.8113
86648. 1.79462 3.018(29) 1160. 2.5020 2.8979
86674. 1.79516 3.117(30) 1132. 2.5023 3.0298
86700. 1.79570 3.349(31) 1038. 2.5025 3.2201
86726. 1.79624 3.572(32) 971. 2.5028 3.4743
86752. 1.79678 3.891(34) 887. 2.5031 3.7805
86778. 1.79732 4.101(35) 836. 2.5033 4.0962
86804. 1.79786 4.26(4) 803. 2.504 4.351
86830. 1.79839 4.45(4) 764. 2.504 4.503
86856. 1.79893 4.53(4) 751. 2.504 4.590
86883. 1.79947 4.64(4) 743. 2.504 4.700
86909. 1.80001 4.84(4) 707. 2.505 4.900
86935. 1.80055 5.17(4) 647. 2.505 5.186
86961. 1.80109 5.49(4) 607. 2.505 5.456
86987. 1.80163 5.67(4) 587. 2.505 5.543
87013. 1.80218 5.42(4) 609. 2.506 5.355
87039. 1.80272 5.00(4) 664. 2.506 4.955
87065. 1.80326 4.44(4) 753. 2.506 4.468
87091. 1.80380 3.994(34) 850. 2.5066 3.9991
87117. 1.80434 3.649(33) 930. 2.5068 3.6067
87144. 1.80488 3.416(32) 979. 2.5071 3.3083
87170. 1.80542 3.143(31) 1068. 2.5074 3.0966
87196. 1.80596 3.006(30) 1119. 2.5076 2.9533
87222. 1.80651 2.915(29) 1159. 2.5079 2.8581
87248. 1.80705 2.822(29) 1214. 2.5082 2.7956
87274. 1.80759 2.756(28) 1233. 2.5085 2.7561
87301. 1.80813 2.742(29) 1228. 2.5087 2.7356
87327. 1.80867 2.730(28) 1239. 2.5090 2.7356
87353. 1.80922 2.724(28) 1237. 2.5093 2.7635
87379. 1.80976 2.798(29) 1205. 2.5095 2.8273
87405. 1.81030 2.908(30) 1145. 2.5098 2.9281
87432. 1.81085 3.041(30) 1112. 2.5101 3.0496
87458. 1.81139 3.243(31) 1024. 2.5103 3.1524
87484. 1.81193 3.269(31) 1010. 2.5106 3.1951
87510. 1.81248 3.195(31) 1045. 2.5109 3.1750
87537. 1.81302 3.097(30) 1089. 2.5111 3.1178
87563. 1.81356 3.009(30) 1124. 2.5114 3.0427
87589. 1.81411 2.938(30) 1140. 2.5117 2.9565
87615. 1.81465 2.828(29) 1196. 2.5119 2.8671
87642. 1.81520 2.804(29) 1188. 2.5122 2.7862
87668. 1.81574 2.729(29) 1225. 2.5125 2.7201
87694. 1.81629 2.677(28) 1258. 2.5128 2.6709
87720. 1.81683 2.626(28) 1284. 2.5130 2.6369
87747. 1.81738 2.598(28) 1291. 2.5133 2.6147
87773. 1.81792 2.515(27) 1352. 2.5136 2.6006
87799. 1.81847 2.528(27) 1367. 2.5138 2.5916
87826. 1.81901 2.556(28) 1311. 2.5141 2.5860
87852. 1.81956 2.567(28) 1301. 2.5144 2.5824
87879. 1.82011 2.527(28) 1308. 2.5146 2.5802
87905. 1.82065 2.571(28) 1283. 2.5149 2.5790
87931. 1.82120 2.532(27) 1341. 2.5152 2.5787
87958. 1.82174 2.551(28) 1301. 2.5154 2.5790
87984. 1.82229 2.612(28) 1279. 2.5157 2.5801
88010. 1.82284 2.569(28) 1297. 2.5160 2.5803
88037. 1.82338 2.546(27) 1327. 2.5162 2.5828
88063. 1.82393 2.559(28) 1304. 2.5165 2.5862
88090. 1.82448 2.573(28) 1286. 2.5168 2.5905
88116. 1.82503 2.622(28) 1257. 2.5170 2.5962
88143. 1.82557 2.665(28) 1233. 2.5173 2.6041
88169. 1.82612 2.671(28) 1245. 2.5176 2.6146
88195. 1.82667 2.690(28) 1244. 2.5178 2.6302
88222. 1.82722 2.733(29) 1215. 2.5181 2.6553
88248. 1.82777 2.812(29) 1171. 2.5184 2.6972
88275. 1.82831 2.849(29) 1165. 2.5186 2.7654
88301. 1.82886 2.994(30) 1083. 2.5189 2.8694
88328. 1.82941 3.124(31) 1057. 2.5192 3.0119
88354. 1.82996 3.271(32) 986. 2.5194 3.1827
88381. 1.83051 3.383(32) 954. 2.5197 3.3441
88407. 1.83106 3.455(33) 914. 2.5199 3.4370
88434. 1.83161 3.407(33) 947. 2.5202 3.4269
88460. 1.83216 3.358(32) 955. 2.5205 3.3367
88487. 1.83271 3.280(32) 974. 2.5207 3.2167
88513. 1.83326 3.176(31) 1015. 2.5210 3.1117
88540. 1.83381 3.126(31) 1039. 2.5213 3.0500
88567. 1.83436 3.161(31) 1012. 2.5215 3.0455
88593. 1.83491 3.188(32) 996. 2.5218 3.1016
88620. 1.83546 3.282(32) 972. 2.5221 3.2153
88646. 1.83601 3.417(33) 927. 2.5223 3.3761
88673. 1.83656 3.567(33) 893. 2.5226 3.5623
88699. 1.83711 3.735(34) 851. 2.5228 3.7464
88726. 1.83766 3.836(35) 818. 2.5231 3.9180
88753. 1.83821 4.01(4) 794. 2.523 4.079
88779. 1.83877 4.12(4) 755. 2.524 4.208
88806. 1.83932 4.23(4) 729. 2.524 4.250
88833. 1.83987 4.08(4) 765. 2.524 4.157
88859. 1.84042 3.87(4) 806. 2.524 3.941
88886. 1.84097 3.632(34) 863. 2.5247 3.6736
88913. 1.84153 3.418(33) 928. 2.5249 3.4375
88939. 1.84208 3.265(32) 971. 2.5252 3.2892
88966. 1.84263 3.280(32) 966. 2.5254 3.2581
88993. 1.84318 3.399(32) 950. 2.5257 3.3470
89019. 1.84374 3.595(34) 866. 2.5260 3.5301
89046. 1.84429 3.88(4) 794. 2.526 3.741
89073. 1.84484 3.99(4) 776. 2.526 3.874
89099. 1.84540 3.93(4) 796. 2.527 3.846
89126. 1.84595 3.698(34) 846. 2.5270 3.6766
89153. 1.84650 3.472(33) 907. 2.5272 3.4399
89180. 1.84706 3.159(32) 1001. 2.5275 3.2065
89206. 1.84761 3.006(30) 1077. 2.5278 3.0159
89233. 1.84817 2.851(30) 1111. 2.5280 2.8798
89260. 1.84872 2.790(30) 1136. 2.5283 2.7923
89287. 1.84928 2.756(30) 1136. 2.5285 2.7420
89314. 1.84983 2.712(29) 1160. 2.5288 2.7190
89340. 1.85039 2.734(29) 1161. 2.5290 2.7171
89367. 1.85094 2.741(29) 1152. 2.5293 2.7330
89394. 1.85150 2.745(30) 1143. 2.5295 2.7642
89421. 1.85205 2.826(30) 1114. 2.5298 2.8067
89448. 1.85261 2.888(30) 1088. 2.5300 2.8487
89474. 1.85316 2.943(31) 1041. 2.5303 2.8746
89501. 1.85372 2.877(30) 1083. 2.5306 2.8721
89528. 1.85428 2.846(30) 1095. 2.5308 2.8431
89555. 1.85483 2.836(30) 1096. 2.5311 2.7997
89582. 1.85539 2.786(30) 1122. 2.5313 2.7540
89609. 1.85595 2.732(30) 1126. 2.5316 2.7136
89636. 1.85650 2.645(29) 1173. 2.5318 2.6821
89662. 1.85706 2.684(29) 1154. 2.5321 2.6601
89689. 1.85762 2.616(29) 1192. 2.5323 2.6470
89716. 1.85817 2.619(29) 1190. 2.5326 2.6421
89743. 1.85873 2.646(29) 1179. 2.5328 2.6460
89770. 1.85929 2.705(30) 1127. 2.5331 2.6608
89797. 1.85985 2.736(30) 1142. 2.5333 2.6886
89824. 1.86040 2.710(29) 1155. 2.5335 2.7309
89851. 1.86096 2.804(30) 1092. 2.5338 2.7844
89878. 1.86152 2.817(30) 1100. 2.5340 2.8395
89905. 1.86208 2.925(31) 1041. 2.5343 2.8787
89932. 1.86264 2.930(31) 1046. 2.5345 2.8880
89959. 1.86320 2.880(31) 1063. 2.5348 2.8723
89986. 1.86376 2.841(30) 1097. 2.5350 2.8510
90013. 1.86432 2.848(30) 1088. 2.5353 2.8470
90040. 1.86487 2.868(31) 1065. 2.5355 2.8756
90067. 1.86543 2.954(31) 1047. 2.5358 2.9507
90094. 1.86599 3.083(32) 980. 2.5360 3.0749
90121. 1.86655 3.258(33) 932. 2.5362 3.2408
90148. 1.86711 3.363(33) 900. 2.5365 3.4230
90175. 1.86767 3.563(35) 840. 2.5367 3.5831
90202. 1.86823 3.628(35) 831. 2.5370 3.7033
90229. 1.86880 3.658(35) 830. 2.5372 3.8002
90256. 1.86936 3.83(4) 777. 2.537 3.890
90283. 1.86992 3.87(4) 780. 2.538 3.970
90310. 1.87048 3.97(4) 744. 2.538 4.028
90337. 1.87104 4.04(4) 728. 2.538 4.036
90364. 1.87160 4.04(4) 721. 2.538 3.959
90392. 1.87216 3.82(4) 772. 2.539 3.792
90419. 1.87272 3.583(34) 844. 2.5389 3.5740
90446. 1.87329 3.335(34) 888. 2.5391 3.3506
90473. 1.87385 3.090(32) 974. 2.5394 3.1536
90500. 1.87441 2.962(31) 1028. 2.5396 2.9963
90527. 1.87497 2.835(30) 1078. 2.5398 2.8797
90554. 1.87554 2.782(30) 1100. 2.5401 2.7978
90582. 1.87610 2.751(30) 1111. 2.5403 2.7422
90609. 1.87666 2.709(30) 1116. 2.5405 2.7050
90636. 1.87722 2.635(29) 1153. 2.5408 2.6804
90663. 1.87779 2.664(30) 1126. 2.5410 2.6640
90690. 1.87835 2.696(30) 1102. 2.5412 2.6537
90718. 1.87891 2.616(29) 1170. 2.5415 2.6479
90745. 1.87948 2.596(30) 1141. 2.5417 2.6465
90772. 1.88004 2.639(30) 1135. 2.5419 2.6508
90799. 1.88061 2.648(30) 1122. 2.5421 2.6638
90826. 1.88117 2.631(29) 1163. 2.5424 2.6913
90854. 1.88173 2.688(30) 1123. 2.5426 2.7412
90881. 1.88230 2.761(30) 1086. 2.5428 2.8206
90908. 1.88286 2.851(31) 1067. 2.5431 2.9311
90935. 1.88343 2.985(31) 1013. 2.5433 3.0610
90963. 1.88399 3.171(33) 935. 2.5435 3.1762
90990. 1.88456 3.233(33) 911. 2.5437 3.2281
91017. 1.88512 3.184(33) 940. 2.5440 3.1946
91045. 1.88569 3.058(32) 968. 2.5442 3.0989
91072. 1.88626 2.887(31) 1010. 2.5444 2.9801
91099. 1.88682 2.817(31) 1050. 2.5446 2.8684
91127. 1.88739 2.711(30) 1097. 2.5449 2.7788
91154. 1.88795 2.697(30) 1100. 2.5451 2.7146
91181. 1.88852 2.620(29) 1149. 2.5453 2.6720
91209. 1.88909 2.587(30) 1137. 2.5455 2.6449
91236. 1.88965 2.557(29) 1182. 2.5457 2.6283
91263. 1.89022 2.620(30) 1114. 2.5460 2.6181
91291. 1.89079 2.614(30) 1115. 2.5462 2.6121
91318. 1.89136 2.626(30) 1138. 2.5464 2.6089
91346. 1.89192 2.618(30) 1113. 2.5466 2.6080
91373. 1.89249 2.626(30) 1104. 2.5468 2.6091
91400. 1.89306 2.581(29) 1155. 2.5471 2.6128
91428. 1.89363 2.624(30) 1106. 2.5473 2.6206
91455. 1.89419 2.653(30) 1077. 2.5475 2.6356
91483. 1.89476 2.623(30) 1105. 2.5477 2.6627
91510. 1.89533 2.692(30) 1087. 2.5479 2.7080
91538. 1.89590 2.737(31) 1067. 2.5481 2.7765
91565. 1.89647 2.833(31) 1018. 2.5483 2.8683
91592. 1.89704 2.917(32) 993. 2.5485 2.9724
91620. 1.89761 3.026(32) 955. 2.5488 3.0683
91647. 1.89818 3.121(33) 921. 2.5490 3.1405
91675. 1.89875 3.122(33) 912. 2.5492 3.1793
91702. 1.89932 3.092(33) 939. 2.5494 3.1689
91730. 1.89989 3.062(32) 956. 2.5496 3.1044
91757. 1.90046 2.930(32) 1004. 2.5498 3.0062
91785. 1.90103 2.828(31) 1035. 2.5500 2.9020
91813. 1.90160 2.794(31) 1016. 2.5502 2.8112
91840. 1.90217 2.729(31) 1041. 2.5504 2.7421
91868. 1.90274 2.655(30) 1077. 2.5506 2.6946
91895. 1.90331 2.630(30) 1113. 2.5508 2.6649
91923. 1.90388 2.594(30) 1129. 2.5510 2.6479
91950. 1.90445 2.593(30) 1098. 2.5512 2.6402
91978. 1.90502 2.619(30) 1100. 2.5514 2.6403
92006. 1.90559 2.597(30) 1112. 2.5516 2.6497
92033. 1.90617 2.641(30) 1090. 2.5518 2.6727
92061. 1.90674 2.667(30) 1089. 2.5520 2.7159
92088. 1.90731 2.712(30) 1077. 2.5522 2.7839
92116. 1.90788 2.783(31) 1039. 2.5524 2.8731
92144. 1.90845 2.926(32) 976. 2.5526 2.9659
92171. 1.90903 3.042(33) 920. 2.5528 3.0256
92199. 1.90960 3.017(33) 922. 2.5530 3.0279
92227. 1.91017 2.963(33) 929. 2.5532 2.9832
92254. 1.91075 2.897(32) 976. 2.5534 2.9221
92282. 1.91132 2.886(32) 992. 2.5536 2.8729
92310. 1.91189 2.835(32) 1005. 2.5538 2.8549
92337. 1.91247 2.913(32) 952. 2.5540 2.8825
92365. 1.91304 3.013(33) 933. 2.5542 2.9691
92393. 1.91361 3.159(34) 888. 2.5544 3.1282
92420. 1.91419 3.309(34) 862. 2.5546 3.3651
92448. 1.91476 3.66(4) 761. 2.555 3.663
92476. 1.91534 4.01(4) 685. 2.555 3.963
92504. 1.91591 4.17(4) 663. 2.555 4.155
92531. 1.91649 4.15(4) 666. 2.555 4.153
92559. 1.91706 3.96(4) 691. 2.556 3.972
92587. 1.91764 3.72(4) 740. 2.556 3.700
92615. 1.91821 3.36(4) 812. 2.556 3.418
92642. 1.91879 3.220(34) 844. 2.5561 3.1748
92670. 1.91936 3.011(33) 914. 2.5563 2.9902
92698. 1.91994 2.853(32) 973. 2.5565 2.8610
92726. 1.92052 2.805(32) 987. 2.5566 2.7753
92754. 1.92109 2.762(32) 982. 2.5568 2.7196
92781. 1.92167 2.646(31) 1031. 2.5570 2.6834
92809. 1.92224 2.589(31) 1063. 2.5572 2.6590
92837. 1.92282 2.592(31) 1053. 2.5574 2.6420
92865. 1.92340 2.571(31) 1070. 2.5575 2.6303
92893. 1.92398 2.599(31) 1054. 2.5577 2.6210
92921. 1.92455 2.578(31) 1066. 2.5579 2.6131
92949. 1.92513 2.625(31) 1016. 2.5581 2.6074
92977. 1.92571 2.572(31) 1069. 2.5582 2.6028
93004. 1.92629 2.596(31) 1053. 2.5584 2.5990
93032. 1.92686 2.561(31) 1069. 2.5586 2.5958
93060. 1.92744 2.573(31) 1065. 2.5588 2.5932
93088. 1.92802 2.551(31) 1053. 2.5589 2.5910
93116. 1.92860 2.538(31) 1073. 2.5591 2.5891
93144. 1.92918 2.599(31) 1044. 2.5593 2.5875
93172. 1.92976 2.593(31) 1058. 2.5594 2.5862
93200. 1.93034 2.508(30) 1099. 2.5596 2.5850
93228. 1.93091 2.570(31) 1060. 2.5598 2.5841
93256. 1.93149 2.566(30) 1078. 2.5600 2.5833
93284. 1.93207 2.590(31) 1043. 2.5601 2.5826
93312. 1.93265 2.568(31) 1074. 2.5603 2.5821
93340. 1.93323 2.623(31) 1019. 2.5604 2.5816
93368. 1.93381 2.565(31) 1057. 2.5606 2.5813
93396. 1.93439 2.578(31) 1032. 2.5608 2.5811
93424. 1.93497 2.617(31) 1017. 2.5609 2.5809
93452. 1.93555 2.623(31) 1031. 2.5611 2.5808
93480. 1.93613 2.593(31) 1042. 2.5613 2.5808
93508. 1.93672 2.627(32) 995. 2.5614 2.5823
93536. 1.93730 2.575(31) 1028. 2.5616 2.5825
93564. 1.93788 2.602(32) 1006. 2.5617 2.5828
93592. 1.93846 2.544(31) 1057. 2.5619 2.5839
93620. 1.93904 2.599(31) 1041. 2.5620 2.5844
93648. 1.93962 2.586(31) 1064. 2.5622 2.5851
93676. 1.94020 2.610(31) 1037. 2.5624 2.5849
93704. 1.94079 2.544(31) 1049. 2.5625 2.5858
93733. 1.94137 2.581(31) 1031. 2.5627 2.5870
93761. 1.94195 2.603(31) 1028. 2.5628 2.5884
93789. 1.94253 2.583(31) 1033. 2.5630 2.5900
93817. 1.94312 2.619(31) 1009. 2.5631 2.5927
93845. 1.94370 2.625(32) 1006. 2.5633 2.5967
93873. 1.94428 2.654(32) 1005. 2.5634 2.6029
93901. 1.94487 2.646(32) 978. 2.5636 2.6122
93930. 1.94545 2.632(32) 999. 2.5637 2.6254
93958. 1.94603 2.683(32) 984. 2.5639 2.6428
93986. 1.94662 2.660(32) 976. 2.5640 2.6627
94014. 1.94720 2.744(33) 934. 2.5641 2.6811
94042. 1.94779 2.676(32) 960. 2.5643 2.6915
94071. 1.94837 2.645(32) 973. 2.5644 2.6900
94099. 1.94896 2.680(32) 968. 2.5646 2.6790
94127. 1.94954 2.674(32) 972. 2.5647 2.6637
94155. 1.95012 2.660(32) 976. 2.5649 2.6485
94183. 1.95071 2.654(32) 959. 2.5650 2.6360
94212. 1.95130 2.607(32) 1000. 2.5651 2.6272
94240. 1.95188 2.635(32) 981. 2.5653 2.6218
94268. 1.95247 2.630(32) 959. 2.5654 2.6193
94297. 1.95305 2.593(32) 989. 2.5655 2.6189
94325. 1.95364 2.617(32) 961. 2.5657 2.6202
94353. 1.95422 2.575(32) 992. 2.5658 2.6227
94381. 1.95481 2.613(32) 952. 2.5659 2.6260
94410. 1.95540 2.590(32) 1003. 2.5661 2.6307
94438. 1.95598 2.607(32) 979. 2.5662 2.6367
94466. 1.95657 2.619(32) 989. 2.5663 2.6440
94495. 1.95716 2.597(31) 1011. 2.5665 2.6530
94523. 1.95775 2.592(32) 998. 2.5666 2.6641
94551. 1.95833 2.648(32) 948. 2.5667 2.6780
94580. 1.95892 2.700(33) 939. 2.5668 2.6956
94608. 1.95951 2.729(33) 939. 2.5670 2.7188
94637. 1.96010 2.783(33) 927. 2.5671 2.7512
94665. 1.96068 2.849(34) 890. 2.5672 2.8010
94693. 1.96127 2.994(35) 829. 2.5673 2.8859
94722. 1.96186 3.19(4) 808. 2.567 3.038
94750. 1.96245 3.42(4) 769. 2.568 3.307
94779. 1.96304 3.84(4) 678. 2.568 3.742
94807. 1.96363 4.40(4) 577. 2.568 4.368
94836. 1.96422 5.10(5) 493. 2.568 5.131
94864. 1.96481 5.88(5) 418. 2.568 5.844
94892. 1.96540 6.25(5) 387. 2.568 6.209
94921. 1.96598 6.08(5) 399. 2.568 6.058
94949. 1.96657 5.45(5) 451. 2.568 5.516
94978. 1.96716 4.77(4) 516. 2.569 4.823
95006. 1.96776 4.08(4) 610. 2.569 4.173
95035. 1.96835 3.65(4) 690. 2.569 3.660
95063. 1.96894 3.27(4) 776. 2.569 3.299
95092. 1.96953 3.018(34) 857. 2.5690 3.0656
95120. 1.97012 2.970(35) 821. 2.5691 2.9199
95149. 1.97071 2.796(34) 883. 2.5692 2.8295
95177. 1.97130 2.751(33) 920. 2.5693 2.7721
95206. 1.97189 2.696(33) 937. 2.5694 2.7341
95235. 1.97248 2.632(32) 959. 2.5695 2.7077
95263. 1.97308 2.627(32) 956. 2.5696 2.6914
95292. 1.97367 2.615(32) 950. 2.5697 2.6778
95320. 1.97426 2.617(33) 940. 2.5698 2.6669
95349. 1.97485 2.610(32) 947. 2.5699 2.6590
95378. 1.97544 2.619(33) 937. 2.5700 2.6523
95406. 1.97604 2.576(32) 972. 2.5701 2.6470
95435. 1.97663 2.608(33) 941. 2.5702 2.6427
95463. 1.97722 2.540(32) 988. 2.5703 2.6394
95492. 1.97782 2.530(32) 987. 2.5704 2.6369
95521. 1.97841 2.550(32) 981. 2.5705 2.6350
95549. 1.97900 2.553(32) 958. 2.5706 2.6337
95578. 1.97960 2.599(33) 943. 2.5707 2.6320
95607. 1.98019 2.640(33) 926. 2.5708 2.6317
95635. 1.98078 2.612(33) 936. 2.5709 2.6319
95664. 1.98138 2.609(33) 922. 2.5710 2.6325
95693. 1.98197 2.608(33) 924. 2.5711 2.6337
95721. 1.98257 2.539(32) 983. 2.5712 2.6353
95750. 1.98316 2.581(32) 951. 2.5712 2.6376
95779. 1.98376 2.672(33) 901. 2.5713 2.6406
95808. 1.98435 2.626(33) 917. 2.5714 2.6442
95836. 1.98495 2.575(32) 951. 2.5715 2.6488
95865. 1.98554 2.604(33) 933. 2.5716 2.6545
95894. 1.98614 2.644(33) 916. 2.5717 2.6616
95923. 1.98674 2.645(33) 920. 2.5718 2.6708
95951. 1.98733 2.690(34) 876. 2.5718 2.6832
95980. 1.98793 2.738(34) 881. 2.5719 2.7007
96009. 1.98853 2.753(34) 864. 2.5720 2.7289
96038. 1.98912 2.860(35) 823. 2.5721 2.7789
96067. 1.98972 3.00(4) 796. 2.572 2.870
96095. 1.99032 3.15(4) 744. 2.572 3.028
96124. 1.99091 3.39(4) 696. 2.572 3.274
96153. 1.99151 3.64(4) 650. 2.572 3.602
96182. 1.99211 3.89(4) 602. 2.572 3.954
96211. 1.99271 4.14(4) 554. 2.573 4.205
96240. 1.99330 4.16(4) 553. 2.573 4.233
96269. 1.99390 4.13(4) 547. 2.573 4.047
96297. 1.99450 3.81(4) 607. 2.573 3.751
96326. 1.99510 3.49(4) 666. 2.573 3.450
96355. 1.99570 3.32(4) 693. 2.573 3.205
96384. 1.99630 3.11(4) 760. 2.573 3.035
96413. 1.99689 3.03(4) 754. 2.573 2.930
96442. 1.99749 2.99(4) 767. 2.573 2.874
96471. 1.99809 2.93(4) 794. 2.573 2.851
96500. 1.99869 2.838(35) 826. 2.5732 2.8516
96529. 1.99929 2.91(4) 802. 2.573 2.874
96558. 1.99989 2.90(4) 792. 2.573 2.922
96587. 2.00049 3.00(4) 752. 2.573 3.002
96616. 2.00109 3.06(4) 759. 2.573 3.124
96645. 2.00169 3.28(4) 703. 2.574 3.298
96674. 2.00229 3.40(4) 678. 2.574 3.524
96703. 2.00289 3.75(4) 609. 2.574 3.787
96732. 2.00349 4.06(4) 553. 2.574 4.037
96761. 2.00410 4.26(4) 519. 2.574 4.197
96790. 2.00470 4.23(4) 520. 2.574 4.214
96819. 2.00530 4.14(4) 533. 2.574 4.104
96848. 2.00590 3.81(4) 581. 2.574 3.928
96877. 2.00650 3.66(4) 599. 2.574 3.756
96906. 2.00710 3.49(4) 637. 2.574 3.641
96935. 2.00771 3.48(4) 643. 2.574 3.624
96964. 2.00831 3.55(4) 634. 2.574 3.734
96993. 2.00891 3.87(4) 572. 2.574 3.990
97022. 2.00951 4.37(4) 495. 2.574 4.394
97051. 2.01012 4.85(5) 444. 2.574 4.910
97080. 2.01072 5.52(5) 385. 2.574 5.430
97110. 2.01132 5.93(5) 349.3 2.574 5.772
97139. 2.01193 5.92(5) 346.0 2.574 5.786
97168. 2.01253 5.50(5) 379. 2.574 5.496
97197. 2.01313 5.03(5) 416. 2.575 5.048
97226. 2.01374 4.61(5) 464. 2.575 4.596
97255. 2.01434 4.23(4) 516. 2.575 4.258
97285. 2.01495 4.14(4) 518. 2.575 4.138
97314. 2.01555 4.20(4) 526. 2.575 4.345
97343. 2.01616 4.80(5) 462. 2.575 4.982
97372. 2.01676 5.78(5) 374. 2.575 6.058
97401. 2.01737 7.25(6) 286.6 2.575 7.373
97431. 2.01797 8.62(7) 230.6 2.575 8.428
97460. 2.01858 9.03(7) 217.2 2.575 8.658
97489. 2.01918 8.15(6) 242.3 2.575 7.992
97518. 2.01979 6.77(6) 300.9 2.575 6.832
97548. 2.02039 5.41(5) 390. 2.575 5.626
97577. 2.02100 4.40(5) 485. 2.575 4.641
97606. 2.02161 3.83(4) 555. 2.575 3.955
97635. 2.02221 3.43(4) 626. 2.575 3.527
97665. 2.02282 3.26(4) 657. 2.575 3.275
97694. 2.02343 3.13(4) 681. 2.575 3.130
97723. 2.02403 2.98(4) 723. 2.575 3.039
97753. 2.02464 2.92(4) 735. 2.575 2.969
97782. 2.02525 2.81(4) 767. 2.575 2.911
97811. 2.02586 2.73(4) 801. 2.575 2.861
97841. 2.02646 2.74(4) 781. 2.575 2.821
97870. 2.02707 2.78(4) 764. 2.575 2.791
97899. 2.02768 2.70(4) 791. 2.575 2.769
97929. 2.02829 2.65(4) 809. 2.575 2.755
97958. 2.02890 2.71(4) 780. 2.575 2.748
97987. 2.02951 2.66(4) 804. 2.575 2.745
98017. 2.03012 2.71(4) 771. 2.575 2.747
98046. 2.03073 2.72(4) 779. 2.575 2.754
98076. 2.03133 2.75(4) 765. 2.575 2.770
98105. 2.03194 2.88(4) 720. 2.575 2.799
98134. 2.03255 2.87(4) 740. 2.575 2.852
98164. 2.03316 2.99(4) 688. 2.575 2.946
98193. 2.03377 3.17(4) 646. 2.575 3.096
98223. 2.03438 3.28(4) 631. 2.575 3.315
98252. 2.03499 3.56(4) 569. 2.576 3.593
98282. 2.03560 3.82(4) 525. 2.576 3.881
98311. 2.03622 4.03(5) 492. 2.576 4.088
98341. 2.03683 4.09(5) 480. 2.576 4.146
98370. 2.03744 3.96(4) 503. 2.576 4.068
98400. 2.03805 3.89(4) 514. 2.576 3.903
98429. 2.03866 3.70(4) 544. 2.576 3.704
98459. 2.03927 3.58(4) 571. 2.576 3.530
98488. 2.03988 3.52(4) 579. 2.576 3.435
98518. 2.04050 3.49(4) 578. 2.576 3.450
98547. 2.04111 3.64(4) 567. 2.576 3.589
98577. 2.04172 3.74(4) 552. 2.576 3.840
98607. 2.04233 4.04(4) 506. 2.576 4.149
98636. 2.04295 4.30(5) 471. 2.576 4.407
98666. 2.04356 4.45(5) 452. 2.576 4.496
98695. 2.04417 4.38(5) 466. 2.576 4.380
98725. 2.04479 4.11(4) 495. 2.576 4.110
98755. 2.04540 3.73(4) 556. 2.576 3.779
98784. 2.04601 3.49(4) 600. 2.576 3.464
98814. 2.04663 3.13(4) 685. 2.576 3.208
98843. 2.04724 3.03(4) 702. 2.576 3.021
98873. 2.04785 2.93(4) 749. 2.576 2.894
98903. 2.04847 2.93(4) 727. 2.576 2.812
98932. 2.04908 2.83(4) 777. 2.576 2.759
98962. 2.04970 2.75(4) 775. 2.576 2.724
98992. 2.05031 2.70(4) 799. 2.576 2.699
99022. 2.05093 2.73(4) 786. 2.576 2.682
99051. 2.05154 2.75(4) 787. 2.576 2.668
99081. 2.05216 2.68(4) 800. 2.576 2.658
99111. 2.05278 2.70(4) 808. 2.576 2.650
99140. 2.05339 2.647(34) 841. 2.5755 2.6427
99170. 2.05401 2.71(4) 808. 2.576 2.637
99200. 2.05462 2.656(35) 836. 2.5755 2.6319
99230. 2.05524 2.68(4) 811. 2.576 2.628
99259. 2.05586 2.698(35) 819. 2.5755 2.6241
99289. 2.05647 2.664(35) 825. 2.5755 2.6209
99319. 2.05709 2.630(34) 862. 2.5755 2.6181
99349. 2.05771 2.725(35) 816. 2.5754 2.6157
99379. 2.05833 2.655(34) 850. 2.5754 2.6135
99408. 2.05894 2.641(34) 863. 2.5754 2.6116
99438. 2.05956 2.703(35) 824. 2.5754 2.6098
99468. 2.06018 2.668(35) 837. 2.5754 2.6083
99498. 2.06080 2.650(34) 847. 2.5754 2.6069
99528. 2.06141 2.642(34) 869. 2.5753 2.6057
99558. 2.06203 2.632(33) 912. 2.5753 2.6046
99587. 2.06265 2.599(32) 947. 2.5753 2.6036
99617. 2.06327 2.664(33) 918. 2.5753 2.6027
99647. 2.06389 2.617(33) 933. 2.5753 2.6019
99677. 2.06451 2.631(33) 942. 2.5752 2.6012
99707. 2.06513 2.669(33) 902. 2.5752 2.6006
99737. 2.06575 2.63(4) 812. 2.575 2.600
99767. 2.06637 2.60(4) 809. 2.575 2.600
99797. 2.06699 2.65(4) 759. 2.575 2.599
99827. 2.06761 2.563(35) 813. 2.5751 2.5988
99857. 2.06823 2.66(4) 747. 2.575 2.598
99887. 2.06885 2.60(4) 757. 2.575 2.598
99917. 2.06947 2.60(4) 770. 2.575 2.598
99947. 2.07009 2.57(4) 769. 2.575 2.598
99977. 2.07071 2.61(4) 761. 2.575 2.598
100007. 2.07133 2.60(4) 758. 2.575 2.598
100037. 2.07195 2.66(4) 743. 2.575 2.598
100067. 2.07258 2.66(4) 732. 2.575 2.599
100097. 2.07320 2.57(4) 767. 2.575 2.599
100127. 2.07382 2.66(4) 727. 2.575 2.599
100157. 2.07444 2.60(4) 770. 2.575 2.600
100187. 2.07506 2.56(4) 794. 2.575 2.601
100217. 2.07569 2.61(4) 770. 2.575 2.601
100247. 2.07631 2.66(4) 741. 2.575 2.602
100277. 2.07693 2.58(4) 793. 2.575 2.604
100307. 2.07756 2.69(4) 735. 2.575 2.605
100337. 2.07818 2.59(4) 768. 2.575 2.607
100367. 2.07880 2.66(4) 734. 2.575 2.609
100397. 2.07943 2.59(4) 774. 2.575 2.612
100427. 2.08005 2.62(4) 774. 2.574 2.615
100458. 2.08068 2.67(4) 738. 2.574 2.619
100488. 2.08130 2.62(4) 756. 2.574 2.625
100518. 2.08192 2.563(35) 813. 2.5744 2.6337
100548. 2.08255 2.68(4) 721. 2.574 2.644
100578. 2.08317 2.71(4) 742. 2.574 2.659
100608. 2.08380 2.69(4) 732. 2.574 2.684
100639. 2.08442 2.76(4) 735. 2.574 2.726
100669. 2.08505 2.87(4) 677. 2.574 2.793
100699. 2.08567 2.88(4) 683. 2.574 2.889
100729. 2.08630 3.03(4) 660. 2.574 3.018
100759. 2.08693 3.11(4) 628. 2.574 3.163
100790. 2.08755 3.33(4) 575. 2.574 3.289
100820. 2.08818 3.34(4) 580. 2.574 3.359
100850. 2.08881 3.32(4) 587. 2.574 3.368
100880. 2.08943 3.29(4) 587. 2.574 3.327
100911. 2.09006 3.20(4) 591. 2.574 3.242
100941. 2.09069 3.11(4) 622. 2.574 3.129
100971. 2.09131 3.06(4) 631. 2.574 3.012
101001. 2.09194 2.89(4) 661. 2.574 2.911
101032. 2.09257 2.83(4) 682. 2.574 2.836
101062. 2.09320 2.88(4) 676. 2.574 2.787
101092. 2.09382 2.79(4) 686. 2.574 2.760
101123. 2.09445 2.79(4) 673. 2.573 2.748
101153. 2.09508 2.76(4) 701. 2.573 2.741
101183. 2.09571 2.78(4) 691. 2.573 2.734
101214. 2.09634 2.70(4) 706. 2.573 2.729
101244. 2.09697 2.73(4) 707. 2.573 2.730
101274. 2.09760 2.82(4) 686. 2.573 2.737
101305. 2.09823 2.76(4) 732. 2.573 2.749
101335. 2.09886 2.75(4) 730. 2.573 2.761
101366. 2.09949 2.81(4) 731. 2.573 2.773
101396. 2.10012 2.87(4) 728. 2.573 2.791
101426. 2.10075 2.87(4) 738. 2.573 2.826
101457. 2.10138 2.98(4) 704. 2.573 2.893
101487. 2.10201 3.09(4) 678. 2.573 3.004
101518. 2.10264 3.14(4) 668. 2.573 3.164
101548. 2.10327 3.36(4) 630. 2.573 3.364
101579. 2.10390 3.53(4) 590. 2.573 3.563
101609. 2.10453 3.65(4) 581. 2.573 3.691
101640. 2.10516 3.72(4) 550. 2.573 3.688
101670. 2.10579 3.59(4) 567. 2.573 3.564
101701. 2.10643 3.40(4) 611. 2.572 3.378
101731. 2.10706 3.19(4) 653. 2.572 3.186
101762. 2.10769 3.08(4) 685. 2.572 3.020
101792. 2.10832 2.98(4) 709. 2.572 2.893
101823. 2.10895 2.82(4) 755. 2.572 2.803
101853. 2.10959 2.78(4) 750. 2.572 2.743
101884. 2.11022 2.76(4) 758. 2.572 2.705
101914. 2.11085 2.66(4) 803. 2.572 2.679
101945. 2.11149 2.66(4) 785. 2.572 2.661
101976. 2.11212 2.70(4) 767. 2.572 2.649
102006. 2.11275 2.66(4) 775. 2.572 2.641
102037. 2.11339 2.61(4) 785. 2.572 2.635
102067. 2.11402 2.60(4) 789. 2.572 2.630
102098. 2.11466 2.67(4) 766. 2.572 2.627
102129. 2.11529 2.66(4) 772. 2.572 2.626
102159. 2.11593 2.65(4) 756. 2.572 2.626
102190. 2.11656 2.57(4) 799. 2.572 2.628
102221. 2.11720 2.63(4) 769. 2.572 2.635
102251. 2.11783 2.66(4) 751. 2.571 2.647
102282. 2.11847 2.65(4) 759. 2.571 2.668
102313. 2.11910 2.67(4) 742. 2.571 2.697
102343. 2.11974 2.63(4) 762. 2.571 2.729
102374. 2.12037 2.69(4) 729. 2.571 2.752
102405. 2.12101 2.69(4) 719. 2.571 2.758
102435. 2.12165 2.66(4) 725. 2.571 2.745
102466. 2.12228 2.74(4) 694. 2.571 2.720
102497. 2.12292 2.63(4) 737. 2.571 2.693
102528. 2.12356 2.59(4) 741. 2.571 2.672
102558. 2.12419 2.71(4) 695. 2.571 2.658
102589. 2.12483 2.67(4) 694. 2.571 2.651
102620. 2.12547 2.64(4) 715. 2.571 2.650
102651. 2.12611 2.60(4) 722. 2.571 2.652
102681. 2.12674 2.62(4) 711. 2.571 2.656
102712. 2.12738 2.66(4) 694. 2.571 2.663
102743. 2.12802 2.68(4) 684. 2.570 2.673
102774. 2.12866 2.72(4) 666. 2.570 2.685
102805. 2.12930 2.78(4) 642. 2.570 2.702
102836. 2.12994 2.79(4) 643. 2.570 2.725
102866. 2.13058 2.83(4) 637. 2.570 2.760
102897. 2.13121 2.92(4) 618. 2.570 2.822
102928. 2.13185 3.11(4) 564. 2.570 2.937
102959. 2.13249 3.31(4) 531. 2.570 3.145
102990. 2.13313 3.66(5) 469. 2.570 3.480
103021. 2.13377 4.10(5) 404. 2.570 3.940
103052. 2.13441 4.66(5) 336.9 2.570 4.456
103083. 2.13505 5.21(6) 284.4 2.570 4.894
103114. 2.13569 5.44(6) 264.6 2.570 5.202
103145. 2.13634 5.52(6) 260.1 2.570 5.502
103175. 2.13698 5.75(6) 245.7 2.570 5.943
103206. 2.13762 6.24(7) 215.8 2.569 6.504
103237. 2.13826 6.72(7) 189.9 2.569 6.910
103268. 2.13890 6.78(7) 185.0 2.569 6.829
103299. 2.13954 6.16(7) 210.0 2.569 6.242
103330. 2.14018 5.42(6) 246.4 2.569 5.405
103361. 2.14083 4.64(6) 300.8 2.569 4.580
103392. 2.14147 3.95(5) 376. 2.569 3.915
103423. 2.14211 3.54(5) 423. 2.569 3.450
103454. 2.14275 3.29(5) 464. 2.569 3.152
103485. 2.14340 3.11(5) 494. 2.569 2.971
103516. 2.14404 2.93(4) 519. 2.569 2.862
103548. 2.14468 2.84(4) 539. 2.569 2.794
103579. 2.14533 2.80(4) 550. 2.569 2.749
103610. 2.14597 2.80(4) 545. 2.569 2.718
103641. 2.14661 2.79(4) 536. 2.569 2.696
103672. 2.14726 2.69(4) 562. 2.568 2.678
103703. 2.14790 2.66(4) 566. 2.568 2.665
103734. 2.14855 2.76(4) 538. 2.568 2.654
103765. 2.14919 2.68(4) 546. 2.568 2.645
103796. 2.14984 2.70(4) 541. 2.568 2.638
103827. 2.15048 2.72(4) 532. 2.568 2.631
103859. 2.15113 2.66(4) 553. 2.568 2.626
103890. 2.15177 2.68(4) 548. 2.568 2.622
103921. 2.15242 2.65(4) 546. 2.568 2.618
103952. 2.15306 2.63(4) 561. 2.568 2.615
103983. 2.15371 2.66(4) 548. 2.568 2.612
104014. 2.15436 2.71(4) 540. 2.568 2.609
104046. 2.15500 2.68(4) 547. 2.568 2.607
104077. 2.15565 2.69(4) 551. 2.568 2.606
104108. 2.15630 2.77(4) 519. 2.568 2.605
104139. 2.15694 2.68(4) 559. 2.568 2.603
104171. 2.15759 2.65(4) 559. 2.567 2.602
104202. 2.15824 2.67(4) 549. 2.567 2.602
104233. 2.15889 2.66(4) 566. 2.567 2.601
104264. 2.15953 2.65(4) 569. 2.567 2.601
104296. 2.16018 2.72(4) 551. 2.567 2.600
104327. 2.16083 2.67(4) 579. 2.567 2.600
104358. 2.16148 2.69(4) 576. 2.567 2.600
104390. 2.16213 2.68(4) 587. 2.567 2.601
104421. 2.16277 2.73(4) 558. 2.567 2.601
104452. 2.16342 2.71(4) 591. 2.567 2.602
104484. 2.16407 2.74(4) 586. 2.567 2.604
104515. 2.16472 2.70(4) 593. 2.567 2.606
104546. 2.16537 2.65(4) 618. 2.567 2.608
104578. 2.16602 2.74(4) 586. 2.567 2.612
104609. 2.16667 2.75(4) 606. 2.567 2.617
104640. 2.16732 2.72(4) 623. 2.566 2.625
104672. 2.16797 2.77(4) 623. 2.566 2.639
104703. 2.16862 2.72(4) 642. 2.566 2.658
104735. 2.16927 2.72(4) 637. 2.566 2.685
104766. 2.16992 2.77(4) 640. 2.566 2.716
104797. 2.17057 2.73(4) 653. 2.566 2.744
104829. 2.17123 2.76(4) 659. 2.566 2.759
104860. 2.17188 2.78(4) 663. 2.566 2.758
104892. 2.17253 2.79(4) 658. 2.566 2.749
104923. 2.17318 2.77(4) 665. 2.566 2.742
104955. 2.17383 2.80(4) 649. 2.566 2.744
104986. 2.17448 2.86(4) 653. 2.566 2.764
105018. 2.17514 2.96(4) 616. 2.566 2.810
105049. 2.17579 3.06(4) 606. 2.566 2.896
105081. 2.17644 3.14(4) 594. 2.566 3.042
105112. 2.17710 3.38(4) 562. 2.566 3.278
105144. 2.17775 3.70(4) 499. 2.566 3.623
105175. 2.17840 3.95(5) 476. 2.565 4.055
105207. 2.17906 4.53(5) 405. 2.565 4.481
105238. 2.17971 4.81(5) 373. 2.565 4.739
105270. 2.18036 4.71(5) 383. 2.565 4.696
105302. 2.18102 4.50(5) 397. 2.565 4.386
105333. 2.18167 3.98(5) 458. 2.565 3.956
105365. 2.18233 3.48(4) 529. 2.565 3.543
105396. 2.18298 3.30(4) 555. 2.565 3.218
105428. 2.18364 3.10(4) 584. 2.565 2.995
105460. 2.18429 2.96(4) 616. 2.565 2.854
105491. 2.18495 2.91(4) 637. 2.565 2.768
105523. 2.18560 2.71(4) 679. 2.565 2.716
105555. 2.18626 2.79(4) 668. 2.565 2.683
105586. 2.18691 2.66(4) 692. 2.565 2.661
105618. 2.18757 2.70(4) 669. 2.565 2.646
105650. 2.18823 2.68(4) 684. 2.565 2.634
105681. 2.18888 2.67(4) 699. 2.565 2.625
105713. 2.18954 2.65(4) 710. 2.564 2.618
105745. 2.19020 2.61(4) 710. 2.564 2.612
105776. 2.19085 2.62(4) 697. 2.564 2.607
105808. 2.19151 2.66(4) 693. 2.564 2.603
105840. 2.19217 2.59(4) 716. 2.564 2.600
105872. 2.19283 2.59(4) 709. 2.564 2.597
105903. 2.19349 2.60(4) 722. 2.564 2.595
105935. 2.19414 2.64(4) 691. 2.564 2.593
105967. 2.19480 2.57(4) 722. 2.564 2.593
105999. 2.19546 2.61(4) 721. 2.564 2.591
106031. 2.19612 2.59(4) 719. 2.564 2.590
106062. 2.19678 2.56(4) 730. 2.564 2.587
106094. 2.19744 2.59(4) 725. 2.564 2.586
106126. 2.19810 2.66(4) 687. 2.564 2.585
106158. 2.19876 2.60(4) 729. 2.564 2.584
106190. 2.19942 2.63(4) 709. 2.564 2.584
106222. 2.20008 2.62(4) 719. 2.564 2.583
106253. 2.20074 2.64(4) 697. 2.564 2.583
106285. 2.20140 2.57(4) 723. 2.564 2.583
106317. 2.20206 2.56(4) 733. 2.564 2.583
106349. 2.20272 2.62(4) 715. 2.563 2.583
106381. 2.20338 2.59(4) 718. 2.563 2.583
106413. 2.20404 2.60(4) 717. 2.563 2.583
106445. 2.20470 2.58(4) 729. 2.563 2.583
106477. 2.20536 2.65(4) 676. 2.563 2.584
106509. 2.20602 2.62(4) 706. 2.563 2.585
106541. 2.20669 2.63(4) 701. 2.563 2.585
106573. 2.20735 2.58(4) 732. 2.563 2.587
106605. 2.20801 2.60(4) 702. 2.563 2.588
106637. 2.20867 2.64(4) 692. 2.563 2.590
106669. 2.20933 2.60(4) 698. 2.563 2.594
106701. 2.21000 2.65(4) 679. 2.563 2.598
106733. 2.21066 2.58(4) 716. 2.563 2.604
106765. 2.21132 2.62(4) 688. 2.563 2.614
106797. 2.21199 2.69(4) 664. 2.563 2.632
106829. 2.21265 2.67(4) 670. 2.563 2.661
106861. 2.21332 2.70(4) 664. 2.563 2.708
106893. 2.21398 2.81(4) 641. 2.563 2.775
106925. 2.21464 2.91(4) 626. 2.563 2.854
106957. 2.21531 2.93(4) 624. 2.563 2.928
106989. 2.21597 3.02(4) 588. 2.563 2.964
107021. 2.21664 2.97(4) 602. 2.563 2.946
107053. 2.21730 2.94(4) 616. 2.563 2.887
107085. 2.21797 2.87(4) 621. 2.562 2.813
107117. 2.21863 2.80(4) 637. 2.562 2.746
107150. 2.21930 2.65(4) 676. 2.562 2.693
107182. 2.21996 2.65(4) 677. 2.562 2.656
107214. 2.22063 2.66(4) 659. 2.562 2.632
107246. 2.22130 2.59(4) 702. 2.562 2.618
107278. 2.22196 2.67(4) 649. 2.562 2.609
107310. 2.22263 2.64(4) 674. 2.562 2.604
107343. 2.22330 2.63(4) 676. 2.562 2.601
107375. 2.22396 2.58(4) 691. 2.562 2.599
107407. 2.22463 2.64(4) 681. 2.562 2.597
107439. 2.22530 2.58(4) 696. 2.562 2.597
107471. 2.22597 2.58(4) 708. 2.562 2.596
107504. 2.22663 2.57(4) 704. 2.562 2.597
107536. 2.22730 2.59(4) 701. 2.562 2.597
107568. 2.22797 2.58(4) 690. 2.562 2.598
107600. 2.22864 2.52(4) 727. 2.562 2.599
107633. 2.22931 2.61(4) 682. 2.562 2.600
107665. 2.22998 2.64(4) 667. 2.562 2.602
107697. 2.23065 2.64(4) 684. 2.562 2.604
107730. 2.23132 2.58(4) 698. 2.562 2.607
107762. 2.23199 2.56(4) 690. 2.562 2.609
107794. 2.23265 2.62(4) 678. 2.562 2.613
107827. 2.23332 2.59(4) 678. 2.562 2.617
107859. 2.23399 2.68(4) 654. 2.562 2.621
107891. 2.23466 2.57(4) 700. 2.562 2.627
107924. 2.23534 2.55(4) 696. 2.562 2.634
107956. 2.23601 2.63(4) 673. 2.562 2.642
107988. 2.23668 2.64(4) 674. 2.562 2.652
108021. 2.23735 2.63(4) 681. 2.562 2.664
108053. 2.23802 2.64(4) 650. 2.561 2.680
108086. 2.23869 2.70(4) 645. 2.561 2.701
108118. 2.23936 2.65(4) 679. 2.561 2.732
108151. 2.24003 2.71(4) 651. 2.561 2.778
108183. 2.24071 2.79(4) 628. 2.561 2.848
108215. 2.24138 2.85(4) 614. 2.561 2.953
108248. 2.24205 3.02(4) 567. 2.561 3.102
108280. 2.24272 3.25(4) 521. 2.561 3.302
108313. 2.24340 3.53(5) 485. 2.561 3.545
108345. 2.24407 3.92(5) 432. 2.561 3.794
108378. 2.24474 3.97(5) 433. 2.561 3.979
108410. 2.24542 4.09(5) 409. 2.561 4.023
108443. 2.24609 3.95(5) 432. 2.561 3.915
108475. 2.24676 3.75(5) 452. 2.561 3.711
108508. 2.24744 3.44(4) 501. 2.561 3.479
108541. 2.24811 3.26(4) 522. 2.561 3.266
108573. 2.24879 3.03(4) 567. 2.561 3.093
108606. 2.24946 2.92(4) 605. 2.561 2.964
108638. 2.25014 2.95(4) 583. 2.561 2.875
108671. 2.25081 2.77(4) 639. 2.561 2.815
108703. 2.25149 2.78(4) 625. 2.561 2.777
108736. 2.25216 2.69(4) 650. 2.561 2.754
108769. 2.25284 2.68(4) 656. 2.561 2.740
108801. 2.25351 2.70(4) 636. 2.561 2.734
108834. 2.25419 2.71(4) 623. 2.561 2.733
108867. 2.25487 2.62(4) 670. 2.561 2.737
108899. 2.25554 2.68(4) 650. 2.561 2.746
108932. 2.25622 2.64(4) 655. 2.561 2.761
108965. 2.25690 2.73(4) 635. 2.561 2.781
108997. 2.25757 2.81(4) 621. 2.561 2.811
109030. 2.25825 2.84(4) 610. 2.561 2.856
109063. 2.25893 2.95(4) 582. 2.561 2.927
109095. 2.25961 3.07(4) 566. 2.561 3.050
109128. 2.26029 3.37(4) 511. 2.561 3.268
109161. 2.26096 3.71(5) 464. 2.561 3.643
109194. 2.26164 4.19(5) 417. 2.561 4.236
109226. 2.26232 4.97(5) 344.2 2.561 5.064
109259. 2.26300 6.10(6) 265.5 2.561 6.038
109292. 2.26368 6.95(7) 233.4 2.561 6.888
109325. 2.26436 7.35(7) 210.7 2.561 7.222
109358. 2.26504 6.90(7) 227.4 2.561 6.889
109390. 2.26572 5.99(6) 267.7 2.561 6.111
109423. 2.26640 5.02(6) 329.8 2.561 5.213
109456. 2.26708 4.36(5) 386. 2.561 4.415
109489. 2.26776 3.82(5) 445. 2.561 3.811
109522. 2.26844 3.48(5) 477. 2.561 3.400
109555. 2.26912 3.19(4) 540. 2.561 3.141
109587. 2.26980 2.99(4) 567. 2.561 2.981
109620. 2.27048 2.83(4) 612. 2.560 2.882
109653. 2.27116 2.76(4) 604. 2.560 2.818
109686. 2.27184 2.74(4) 612. 2.560 2.775
109719. 2.27252 2.70(4) 619. 2.560 2.744
109752. 2.27321 2.61(4) 646. 2.560 2.724
109785. 2.27389 2.66(4) 628. 2.560 2.706
109818. 2.27457 2.61(4) 667. 2.560 2.693
109851. 2.27525 2.62(4) 640. 2.560 2.682
109884. 2.27593 2.64(4) 634. 2.560 2.673
109917. 2.27662 2.60(4) 648. 2.560 2.666
109950. 2.27730 2.61(4) 647. 2.560 2.661
109983. 2.27798 2.58(4) 641. 2.560 2.657
110016. 2.27867 2.52(4) 658. 2.560 2.655
110049. 2.27935 2.59(4) 644. 2.560 2.653
110082. 2.28004 2.58(4) 654. 2.560 2.652
110115. 2.28072 2.60(4) 653. 2.560 2.653
110148. 2.28140 2.58(4) 672. 2.560 2.656
110181. 2.28209 2.62(4) 642. 2.560 2.661
110214. 2.28277 2.62(4) 641. 2.560 2.673
110247. 2.28346 2.71(4) 617. 2.560 2.695
110280. 2.28414 2.70(4) 606. 2.560 2.730
110313. 2.28483 2.77(4) 597. 2.560 2.779
110346. 2.28551 2.84(4) 573. 2.560 2.834
110379. 2.28620 2.99(4) 547. 2.560 2.874
110412. 2.28689 2.90(4) 581. 2.560 2.882
110445. 2.28757 2.93(4) 568. 2.560 2.858
110479. 2.28826 2.92(4) 559. 2.560 2.821
110512. 2.28894 2.80(4) 570. 2.560 2.787
110545. 2.28963 2.78(4) 596. 2.560 2.765
110578. 2.29032 2.86(4) 568. 2.560 2.758
110611. 2.29101 2.70(4) 610. 2.560 2.763
110644. 2.29169 2.74(4) 596. 2.560 2.780
110678. 2.29238 2.86(4) 569. 2.560 2.809
110711. 2.29307 2.94(4) 548. 2.560 2.855
110744. 2.29376 2.92(4) 560. 2.560 2.924
110777. 2.29444 3.13(4) 503. 2.560 3.032
110810. 2.29513 3.25(5) 487. 2.560 3.202
110844. 2.29582 3.48(5) 462. 2.560 3.467
110877. 2.29651 3.78(5) 423. 2.560 3.866
110910. 2.29720 4.45(5) 358. 2.560 4.424
110943. 2.29789 5.10(6) 308.9 2.560 5.121
110977. 2.29858 5.77(6) 263.8 2.560 5.833
111010. 2.29927 6.35(7) 234.6 2.560 6.326
111043. 2.29996 6.55(7) 223.0 2.560 6.382
111077. 2.30065 5.95(6) 252.1 2.560 5.978
111110. 2.30134 5.26(6) 285.2 2.560 5.309
111143. 2.30203 4.50(5) 347.4 2.560 4.602
111177. 2.30272 4.04(5) 386. 2.560 4.003
111210. 2.30341 3.60(5) 434. 2.560 3.563
111243. 2.30410 3.35(5) 478. 2.560 3.271
111277. 2.30479 3.17(4) 496. 2.560 3.087
111310. 2.30548 2.95(4) 546. 2.559 2.973
111343. 2.30618 2.94(4) 531. 2.559 2.900
111377. 2.30687 2.85(4) 554. 2.559 2.853
111410. 2.30756 2.76(4) 567. 2.559 2.823
111444. 2.30825 2.70(4) 595. 2.559 2.807
111477. 2.30894 2.77(4) 579. 2.559 2.806
111511. 2.30964 2.82(4) 555. 2.559 2.818
111544. 2.31033 2.84(4) 555. 2.559 2.844
111578. 2.31102 2.78(4) 569. 2.559 2.878
111611. 2.31172 2.95(4) 535. 2.559 2.913
111644. 2.31241 2.89(4) 546. 2.559 2.937
111678. 2.31310 2.94(4) 526. 2.559 2.956
111711. 2.31380 2.95(4) 544. 2.559 2.983
111745. 2.31449 3.10(4) 498. 2.559 3.036
111779. 2.31519 3.16(4) 497. 2.559 3.121
111812. 2.31588 3.21(4) 496. 2.559 3.228
111846. 2.31658 3.24(4) 495. 2.559 3.325
111879. 2.31727 3.38(5) 462. 2.559 3.364
111913. 2.31797 3.27(5) 479. 2.559 3.327
111946. 2.31866 3.16(4) 502. 2.559 3.240
111980. 2.31936 3.06(4) 518. 2.559 3.140
112013. 2.32005 2.96(4) 538. 2.559 3.056
112047. 2.32075 2.96(4) 525. 2.559 3.003
112081. 2.32145 2.85(4) 560. 2.559 2.985
112114. 2.32214 2.92(4) 541. 2.559 3.007
112148. 2.32284 3.00(4) 523. 2.558 3.086
112182. 2.32354 3.27(5) 483. 2.558 3.275
112215. 2.32423 3.74(5) 421. 2.558 3.686
112249. 2.32493 4.31(5) 370. 2.558 4.499
112283. 2.32563 5.71(6) 266.7 2.558 5.875
112316. 2.32633 7.50(7) 198.1 2.558 7.792
112350. 2.32702 10.07(9) 137.8 2.558 9.823
112384. 2.32772 11.73(9) 112.4 2.558 11.074
112417. 2.32842 11.40(9) 115.9 2.558 10.831
112451. 2.32912 9.43(8) 145.7 2.558 9.364
112485. 2.32982 7.40(7) 193.6 2.558 7.468
112519. 2.33052 5.65(6) 261.7 2.558 5.774
112552. 2.33122 4.39(5) 351. 2.558 4.548
112586. 2.33192 3.73(5) 418. 2.558 3.779
112620. 2.33262 3.15(4) 498. 2.558 3.337
112654. 2.33332 2.96(4) 532. 2.557 3.089
112687. 2.33402 2.83(4) 553. 2.557 2.947
112721. 2.33472 2.65(4) 604. 2.557 2.861
112755. 2.33542 2.68(4) 570. 2.557 2.805
112789. 2.33612 2.63(4) 599. 2.557 2.765
112823. 2.33682 2.58(4) 629. 2.557 2.733
112857. 2.33752 2.64(4) 591. 2.557 2.711
112890. 2.33822 2.56(4) 619. 2.557 2.693
112924. 2.33892 2.63(4) 602. 2.557 2.679
112958. 2.33962 2.49(4) 644. 2.557 2.667
112992. 2.34033 2.47(4) 641. 2.557 2.657
113026. 2.34103 2.56(4) 616. 2.556 2.649
113060. 2.34173 2.49(4) 637. 2.556 2.643
113094. 2.34243 2.51(4) 640. 2.556 2.637
113128. 2.34314 2.51(4) 632. 2.556 2.632
113162. 2.34384 2.59(4) 589. 2.556 2.628
113196. 2.34454 2.53(4) 625. 2.556 2.625
113230. 2.34525 2.55(4) 619. 2.556 2.622
113264. 2.34595 2.50(4) 629. 2.556 2.620
113298. 2.34665 2.51(4) 613. 2.556 2.618
113332. 2.34736 2.52(4) 612. 2.556 2.617
113366. 2.34806 2.53(4) 619. 2.555 2.616
113400. 2.34877 2.55(4) 611. 2.555 2.616
113434. 2.34947 2.53(4) 597. 2.555 2.616
113468. 2.35018 2.47(4) 632. 2.555 2.617
113502. 2.35088 2.55(4) 600. 2.555 2.618
113536. 2.35159 2.58(4) 606. 2.555 2.620
113570. 2.35229 2.52(4) 615. 2.555 2.623
113604. 2.35300 2.58(4) 588. 2.554 2.628
113638. 2.35370 2.53(4) 608. 2.554 2.634
113672. 2.35441 2.64(4) 590. 2.554 2.644
113706. 2.35512 2.61(4) 595. 2.554 2.660
113740. 2.35582 2.60(4) 585. 2.554 2.683
113774. 2.35653 2.68(4) 558. 2.554 2.715
113808. 2.35724 2.70(4) 567. 2.554 2.754
113843. 2.35794 2.81(4) 546. 2.553 2.799
113877. 2.35865 2.84(4) 540. 2.553 2.852
113911. 2.35936 2.98(4) 505. 2.553 2.932
113945. 2.36007 3.11(5) 492. 2.553 3.068
113979. 2.36078 3.31(5) 465. 2.553 3.280
114013. 2.36148 3.62(5) 405. 2.553 3.562
114048. 2.36219 3.91(5) 376. 2.552 3.849
114082. 2.36290 4.09(5) 362. 2.552 4.019
114116. 2.36361 4.10(5) 356. 2.552 3.982
114150. 2.36432 3.79(5) 392. 2.552 3.776
114185. 2.36503 3.52(5) 421. 2.552 3.508
114219. 2.36574 3.31(5) 451. 2.551 3.259
114253. 2.36645 2.99(4) 511. 2.551 3.067
114287. 2.36716 2.89(4) 528. 2.551 2.934
114322. 2.36787 2.85(4) 538. 2.551 2.851
114356. 2.36858 2.84(4) 532. 2.551 2.804
114390. 2.36929 2.85(4) 520. 2.550 2.781
114425. 2.37000 2.72(4) 554. 2.550 2.778
114459. 2.37071 2.73(4) 542. 2.550 2.791
114493. 2.37142 2.78(4) 557. 2.550 2.826
114528. 2.37213 2.83(4) 535. 2.550 2.887
114562. 2.37285 2.93(4) 517. 2.549 2.984
114596. 2.37356 3.08(5) 487. 2.549 3.128
114631. 2.37427 3.24(5) 464. 2.549 3.326
114665. 2.37498 3.42(5) 439. 2.549 3.574
114699. 2.37570 3.83(5) 393. 2.548 3.844
114734. 2.37641 4.16(5) 343.9 2.548 4.069
114768. 2.37712 4.26(5) 341.8 2.548 4.160
114803. 2.37783 4.16(5) 347.1 2.548 4.081
114837. 2.37855 3.88(5) 378. 2.547 3.876
114872. 2.37926 3.63(5) 398. 2.547 3.620
114906. 2.37998 3.38(5) 431. 2.547 3.373
114941. 2.38069 3.14(5) 467. 2.546 3.164
114975. 2.38140 2.99(5) 482. 2.546 3.002
115010. 2.38212 2.93(5) 491. 2.546 2.885
115044. 2.38283 2.85(4) 507. 2.546 2.803
115079. 2.38355 2.71(4) 546. 2.545 2.746
115113. 2.38426 2.65(4) 532. 2.545 2.707
115148. 2.38498 2.66(4) 543. 2.545 2.679
115182. 2.38569 2.68(4) 538. 2.544 2.658
115217. 2.38641 2.62(4) 545. 2.544 2.642
115251. 2.38713 2.58(4) 562. 2.544 2.628
115286. 2.38784 2.66(4) 529. 2.543 2.618
115320. 2.38856 2.54(4) 576. 2.543 2.610
115355. 2.38928 2.61(4) 548. 2.543 2.602
115390. 2.38999 2.56(4) 567. 2.542 2.596
115424. 2.39071 2.57(4) 563. 2.542 2.591
115459. 2.39143 2.55(4) 558. 2.542 2.586
115494. 2.39214 2.62(4) 534. 2.541 2.582
115528. 2.39286 2.55(4) 555. 2.541 2.579
115563. 2.39358 2.58(4) 556. 2.540 2.575
115597. 2.39430 2.57(4) 560. 2.540 2.573
115632. 2.39502 2.54(4) 573. 2.540 2.570
115667. 2.39574 2.47(4) 568. 2.539 2.568
115702. 2.39645 2.54(4) 573. 2.539 2.565
115736. 2.39717 2.60(4) 548. 2.538 2.563
115771. 2.39789 2.68(4) 517. 2.538 2.561
115806. 2.39861 2.63(4) 530. 2.538 2.559
115840. 2.39933 2.60(4) 530. 2.537 2.558
115875. 2.40005 2.59(4) 548. 2.537 2.556
115910. 2.40077 2.56(4) 549. 2.536 2.555
115945. 2.40149 2.50(4) 572. 2.536 2.553
115980. 2.40221 2.53(4) 573. 2.535 2.552
116014. 2.40293 2.58(4) 542. 2.535 2.551
116049. 2.40365 2.58(4) 546. 2.535 2.549
116084. 2.40437 2.52(4) 557. 2.534 2.548
116119. 2.40510 2.60(4) 539. 2.534 2.547
116154. 2.40582 2.64(4) 536. 2.533 2.546
116188. 2.40654 2.56(4) 545. 2.533 2.545
116223. 2.40726 2.52(4) 567. 2.532 2.544
116258. 2.40798 2.49(4) 569. 2.532 2.543
116293. 2.40871 2.53(4) 559. 2.531 2.542
116328. 2.40943 2.56(4) 540. 2.531 2.541
116363. 2.41015 2.48(4) 563. 2.530 2.540
116398. 2.41088 2.48(4) 577. 2.529 2.538
116433. 2.41160 2.50(4) 567. 2.529 2.537
116468. 2.41232 2.52(4) 563. 2.528 2.536
116503. 2.41305 2.48(4) 571. 2.528 2.535
116537. 2.41377 2.49(4) 555. 2.527 2.534
116572. 2.41449 2.55(4) 545. 2.527 2.533
116607. 2.41522 2.50(4) 563. 2.526 2.533
116642. 2.41594 2.49(4) 561. 2.526 2.532
116677. 2.41667 2.57(4) 542. 2.525 2.531
116712. 2.41739 2.54(4) 556. 2.524 2.530
116747. 2.41812 2.55(4) 531. 2.524 2.529
116782. 2.41884 2.55(4) 524. 2.523 2.529
116817. 2.41957 2.51(4) 547. 2.522 2.528
116853. 2.42030 2.47(4) 554. 2.522 2.527
116888. 2.42102 2.52(4) 557. 2.521 2.526
116923. 2.42175 2.56(4) 548. 2.520 2.525
116958. 2.42248 2.55(4) 543. 2.520 2.525
116993. 2.42320 2.51(4) 544. 2.519 2.524
117028. 2.42393 2.54(4) 543. 2.518 2.523
117063. 2.42466 2.56(4) 543. 2.518 2.522
117098. 2.42538 2.53(4) 546. 2.517 2.521
117133. 2.42611 2.53(4) 550. 2.516 2.520
117168. 2.42684 2.49(4) 545. 2.516 2.520
117204. 2.42757 2.46(4) 567. 2.515 2.519
117239. 2.42830 2.48(4) 569. 2.514 2.518
117274. 2.42902 2.47(4) 555. 2.513 2.517
117309. 2.42975 2.55(4) 539. 2.513 2.516
117344. 2.43048 2.56(4) 534. 2.512 2.515
117379. 2.43121 2.48(4) 552. 2.511 2.514
117415. 2.43194 2.55(4) 523. 2.510 2.514
117450. 2.43267 2.54(4) 518. 2.509 2.513
117485. 2.43340 2.48(4) 553. 2.509 2.512
117520. 2.43413 2.56(4) 541. 2.508 2.511
117556. 2.43486 2.50(4) 557. 2.507 2.510
117591. 2.43559 2.54(4) 538. 2.506 2.509
117626. 2.43632 2.53(4) 542. 2.505 2.508
117661. 2.43705 2.51(4) 539. 2.504 2.507
117697. 2.43778 2.52(4) 534. 2.504 2.506
117732. 2.43852 2.47(4) 538. 2.503 2.505
117767. 2.43925 2.52(4) 534. 2.502 2.504
117803. 2.43998 2.52(4) 532. 2.501 2.503
117838. 2.44071 2.55(4) 528. 2.500 2.502
117873. 2.44144 2.53(4) 519. 2.499 2.501
117909. 2.44218 2.59(4) 509. 2.498 2.500
117944. 2.44291 2.57(4) 519. 2.497 2.499
117980. 2.44364 2.54(4) 519. 2.496 2.498
118015. 2.44438 2.48(4) 534. 2.495 2.497
118050. 2.44511 2.51(4) 513. 2.494 2.496
118086. 2.44584 2.48(4) 518. 2.493 2.497
118121. 2.44658 2.55(4) 508. 2.492 2.496
118157. 2.44731 2.59(4) 497. 2.491 2.495
118192. 2.44804 2.49(4) 509. 2.490 2.494
118228. 2.44878 2.52(4) 538. 2.489 2.493
118263. 2.44951 2.47(4) 543. 2.488 2.492
118298. 2.45025 2.54(4) 512. 2.487 2.491
118334. 2.45098 2.51(4) 517. 2.486 2.490
118369. 2.45172 2.51(4) 507. 2.485 2.489
118405. 2.45246 2.57(4) 501. 2.484 2.487
118440. 2.45319 2.49(4) 520. 2.483 2.487
118476. 2.45393 2.42(4) 547. 2.481 2.486
118512. 2.45466 2.52(4) 513. 2.480 2.485
118547. 2.45540 2.52(4) 512. 2.479 2.484
118583. 2.45614 2.53(4) 499. 2.478 2.483
118618. 2.45687 2.47(4) 520. 2.477 2.482
118654. 2.45761 2.43(4) 541. 2.476 2.481
118689. 2.45835 2.50(4) 507. 2.474 2.480
118725. 2.45909 2.50(4) 504. 2.473 2.478
118761. 2.45982 2.53(4) 498. 2.472 2.477
118796. 2.46056 2.49(4) 520. 2.471 2.476
118832. 2.46130 2.48(4) 528. 2.469 2.475
118868. 2.46204 2.56(5) 493. 2.468 2.474
118903. 2.46278 2.53(4) 501. 2.467 2.473
118939. 2.46352 2.61(5) 470. 2.465 2.471
118975. 2.46426 2.46(4) 505. 2.464 2.470
119010. 2.46499 2.51(4) 514. 2.463 2.469
119046. 2.46573 2.54(4) 501. 2.461 2.468
119082. 2.46647 2.50(4) 498. 2.460 2.466
119117. 2.46721 2.57(5) 487. 2.459 2.465
119153. 2.46795 2.59(5) 480. 2.457 2.464
119189. 2.46869 2.55(5) 472. 2.456 2.463
119225. 2.46944 2.54(5) 477. 2.454 2.461
119260. 2.47018 2.50(5) 476. 2.453 2.460
119296. 2.47092 2.61(5) 460. 2.451 2.459
119332. 2.47166 2.61(5) 463. 2.450 2.457
119368. 2.47240 2.57(5) 460. 2.448 2.456
119404. 2.47314 2.53(5) 461. 2.447 2.455
119439. 2.47388 2.57(5) 466. 2.445 2.453
119475. 2.47463 2.55(4) 503. 2.444 2.451
119511. 2.47537 2.51(4) 518. 2.442 2.450
119547. 2.47611 2.51(4) 515. 2.441 2.451
119583. 2.47685 2.56(4) 498. 2.439 2.450
119619. 2.47760 2.60(5) 490. 2.437 2.449
119655. 2.47834 2.56(5) 449. 2.436 2.447
119690. 2.47908 2.56(5) 421. 2.434 2.446
119726. 2.47983 2.59(5) 396. 2.432 2.445
119762. 2.48057 2.45(5) 454. 2.431 2.444
119798. 2.48132 2.61(5) 416. 2.429 2.442
119834. 2.48206 2.68(5) 387. 2.427 2.441
119870. 2.48281 2.47(5) 419. 2.426 2.440
119906. 2.48355 2.49(5) 435. 2.424 2.439
119942. 2.48430 2.57(5) 412. 2.422 2.450
119978. 2.48504 2.53(5) 412. 2.420 2.449
120014. 2.48579 2.51(5) 418. 2.418 2.448
120050. 2.48653 2.46(5) 444. 2.417 2.448
120086. 2.48728 2.53(5) 416. 2.415 2.447
120122. 2.48803 2.46(5) 425. 2.413 2.446
120158. 2.48877 2.56(5) 397. 2.411 2.446
120194. 2.48952 2.51(5) 423. 2.409 2.445
120230. 2.49027 2.46(5) 429. 2.407 2.445
120266. 2.49101 2.49(5) 418. 2.405 2.445
120302. 2.49176 2.48(5) 412. 2.403 2.445
120338. 2.49251 2.47(5) 407. 2.401 2.444
120375. 2.49326 2.47(5) 406. 2.399 2.445
120411. 2.49400 2.47(5) 419. 2.397 2.445
120447. 2.49475 2.47(5) 419. 2.395 2.445
120483. 2.49550 2.51(5) 400. 2.393 2.446
120519. 2.49625 2.48(5) 422. 2.391 2.447
120555. 2.49700 2.56(5) 381. 2.389 2.448
120591. 2.49775 2.47(5) 419. 2.387 2.450
120628. 2.49850 2.50(5) 402. 2.384 2.452
120664. 2.49925 2.52(5) 396. 2.382 2.455
120700. 2.50000 2.53(5) 387. 2.380 2.458
120736. 2.50075 2.43(5) 412. 2.378 2.462
120772. 2.50150 2.55(5) 389. 2.376 2.467
120809. 2.50225 2.48(5) 412. 2.373 2.473
120845. 2.50300 2.48(5) 405. 2.371 2.481
120881. 2.50375 2.45(5) 407. 2.369 2.490
120917. 2.50450 2.52(5) 403. 2.366 2.502
120954. 2.50525 2.52(5) 401. 2.364 2.518
120990. 2.50600 2.61(5) 373. 2.362 2.539
121026. 2.50676 2.70(5) 363. 2.359 2.570
121063. 2.50751 2.67(5) 373. 2.357 2.621
121099. 2.50826 2.84(5) 355. 2.354 2.717
121135. 2.50901 3.05(6) 317.6 2.352 2.904
121172. 2.50976 3.43(6) 283.6 2.349 3.237
121208. 2.51052 3.84(6) 261.4 2.347 3.747
121244. 2.51127 4.39(7) 223.1 2.344 4.376
121281. 2.51202 4.91(7) 194.0 2.342 4.925
121317. 2.51278 5.21(7) 182.1 2.339 5.126
121353. 2.51353 5.06(7) 187.7 2.337 4.951
121390. 2.51429 4.83(7) 198.2 2.334 4.656
121426. 2.51504 4.66(7) 203.4 2.331 4.524
121463. 2.51580 4.73(7) 201.5 2.329 4.713
121499. 2.51655 5.10(7) 187.3 2.326 5.205
121536. 2.51731 5.66(8) 168.3 2.323 5.789
121572. 2.51806 5.93(8) 161.7 2.320 6.090
121608. 2.51882 5.82(8) 162.6 2.318 5.866
121645. 2.51957 5.28(7) 181.9 2.315 5.249
121681. 2.52033 4.56(7) 220.1 2.312 4.509
121718. 2.52108 4.03(6) 251.7 2.309 3.854
121754. 2.52184 3.51(6) 286.8 2.306 3.366
121791. 2.52260 3.20(6) 321.9 2.303 3.046
121828. 2.52335 3.03(5) 336.9 2.300 2.851
121864. 2.52411 2.80(5) 360. 2.297 2.737
121901. 2.52487 2.67(5) 387. 2.294 2.671
121937. 2.52563 2.61(5) 375. 2.291 2.631
121974. 2.52638 2.55(5) 387. 2.288 2.607
122010. 2.52714 2.50(5) 408. 2.285 2.594
122047. 2.52790 2.53(5) 392. 2.282 2.588
122084. 2.52866 2.41(5) 409. 2.279 2.589
122120. 2.52942 2.49(5) 385. 2.276 2.595
122157. 2.53018 2.43(5) 409. 2.272 2.606
122194. 2.53094 2.41(5) 408. 2.269 2.623
122230. 2.53169 2.44(5) 411. 2.266 2.646
122267. 2.53245 2.46(5) 385. 2.263 2.676
122304. 2.53321 2.46(5) 379. 2.259 2.714
122340. 2.53397 2.48(5) 383. 2.256 2.764
122377. 2.53473 2.54(5) 374. 2.253 2.827
122414. 2.53550 2.69(5) 341.9 2.249 2.908
122450. 2.53626 2.78(6) 327.8 2.246 3.013
122487. 2.53702 3.00(6) 309.4 2.242 3.153
122524. 2.53778 3.35(6) 264.5 2.239 3.350
122561. 2.53854 3.92(6) 237.8 2.235 3.662
122597. 2.53930 4.68(7) 201.7 2.232 4.233
122634. 2.54006 5.99(8) 154.7 2.228 5.383
122671. 2.54083 8.32(10) 107.3 2.225 7.649
122708. 2.54159 12.05(12) 70.5 2.221 11.613
122745. 2.54235 17.40(15) 45.0 2.217 17.417
122781. 2.54311 23.67(18) 29.73 2.213 24.045
122818. 2.54388 28.83(21) 22.52 2.210 28.852
122855. 2.54464 28.99(21) 22.11 2.206 29.171
122892. 2.54540 25.11(19) 26.38 2.202 25.481
122929. 2.54617 19.93(17) 35.3 2.198 20.440
122966. 2.54693 16.16(15) 46.1 2.194 16.198
123003. 2.54769 13.68(14) 54.1 2.190 13.438
123039. 2.54846 12.03(13) 62.4 2.187 11.606
123076. 2.54922 9.97(11) 76.4 2.183 9.916
123113. 2.54999 8.04(10) 97.8 2.179 8.168
123150. 2.55075 6.44(9) 123.4 2.175 6.549
123187. 2.55152 4.99(8) 168.2 2.170 5.238
123224. 2.55228 4.16(7) 203.6 2.166 4.292
123261. 2.55305 3.59(7) 229.3 2.162 3.665
123298. 2.55382 3.18(6) 260.4 2.158 3.269
123335. 2.55458 2.78(6) 298.9 2.154 3.018
123372. 2.55535 2.66(6) 319.0 2.149 2.853
123409. 2.55612 2.49(5) 338.0 2.145 2.736
123446. 2.55688 2.47(5) 335.9 2.141 2.649
123483. 2.55765 2.43(6) 326.0 2.137 2.581
123520. 2.55842 2.43(6) 316.5 2.132 2.526
123557. 2.55918 2.43(6) 329.4 2.128 2.481
123594. 2.55995 2.36(6) 326.3 2.123 2.443
123631. 2.56072 2.34(5) 334.3 2.119 2.410
123668. 2.56149 2.31(5) 335.0 2.114 2.382
123706. 2.56226 2.27(5) 353. 2.110 2.357
123743. 2.56303 2.25(5) 354. 2.105 2.336
123780. 2.56380 2.23(5) 364. 2.100 2.317
123817. 2.56456 2.23(5) 361. 2.096 2.300
123854. 2.56533 2.23(5) 371. 2.091 2.285
123891. 2.56610 2.25(5) 339.5 2.086 2.272
123928. 2.56687 2.37(6) 312.5 2.081 2.260
123966. 2.56764 2.25(5) 354. 2.076 2.250
124003. 2.56841 2.31(5) 336.5 2.072 2.241
124040. 2.56919 2.36(6) 317.3 2.067 2.233
124077. 2.56996 2.33(6) 307.7 2.062 2.234
124114. 2.57073 2.37(6) 307.7 2.057 2.229
124152. 2.57150 2.39(6) 304.3 2.052 2.225
124189. 2.57227 2.25(6) 317.7 2.047 2.223
124226. 2.57304 2.25(6) 327.4 2.041 2.222
124263. . 2.29(6) . . .
124301. . 2.27(6) . . .
124338. . 2.29(6) . . .
124375. . 2.36(6) . . .
124413. . 2.44(6) . . .
124450. . 2.62(6) . . .
124487. . 2.66(6) . . .
124525. . 2.67(6) . . .
124562. . 2.87(7) . . .
124599. . 3.04(7) . . .
124637. . 3.32(7) . . .
124674. . 3.75(8) . . .
124711. . 4.44(8) . . .
124749. . 5.25(9) . . .
124786. . 6.57(11) . . .
124824. . 7.72(12) . . .
124861. . 8.73(14) . . .
124899. . 8.95(15) . . .
124936. . 7.95(14) . . .
124974. . 8.23(17) . . .
125004. . -0.001067(30) . . .
loop_
_refln_index_h
_refln_index_k
_refln_index_l
_refln_observed_status
_refln_F_squared_meas
_refln_F_squared_calc
_refln_phase_calc
_refln_d_spacing
_gsas_i100_meas
1 3 -2 o 147.350 148.220 0.00 2.54408 100.00
1 3 1 o 26.864 27.206 0.00 2.54842 23.71
2 2 -2 o 14.000 12.569 180.00 2.51243 10.26
2 2 0 o 21.933 20.387 180.00 2.51801 16.25
1 2 -4 o 0.819 0.940 0.00 2.35813 0.32
2 0 -4 o 25.221 25.224 180.00 2.36291 5.72
1 2 3 o 0.310 0.318 180.00 2.36622 0.20
2 0 2 o 26.585 26.731 0.00 2.37692 8.53
2 2 -3 o 53.126 55.129 0.00 2.32777 28.94
2 2 1 o 0.000 0.000 0.00 2.33667 0.00
1 3 -3 o 12.076 12.119 0.00 2.29989 5.56
0 2 4 o 6.547 7.126 0.00 2.31704 2.69
0 3 3 o 1.357 1.455 0.00 2.31205 0.70
1 3 2 o 0.114 0.117 0.00 2.30524 0.08
2 1 -4 o 2.041 1.897 0.00 2.28637 0.89
2 1 2 o 20.110 20.271 0.00 2.29906 11.51
0 4 0 o 69.428 71.232 180.00 2.26413 18.27
1 0 4 o 29.199 30.376 0.00 2.24502 6.84
0 4 1 o 3.619 3.124 180.00 2.21585 1.80
2 3 -1 o 12.062 10.840 180.00 2.17991 5.86
1 1 -5 o 2.851 2.015 180.00 2.17094 0.69
1 1 4 o 9.029 7.591 180.00 2.17907 3.90
2 3 -2 o 14.311 12.922 0.00 2.13501 6.30
2 3 0 o 32.927 31.217 180.00 2.13843 15.32
1 4 -1 o 0.323 0.438 0.00 2.12006 0.14
1 4 0 o 0.554 0.743 180.00 2.12090 0.25
2 2 -4 o 0.577 0.505 180.00 2.09486 0.21
2 2 2 o 11.320 10.631 0.00 2.10460 4.99
0 1 5 o 1.398 1.218 180.00 2.09873 0.38
0 4 2 o 5.329 5.108 0.00 2.08766 2.21
3 0 -2 o 7.938 7.618 0.00 2.08967 1.58
1 4 -2 o 0.001 0.001 0.00 2.04189 0.00
1 4 1 o 3.271 3.169 180.00 2.04413 1.44
1 3 -4 o 4.008 3.977 180.00 2.03788 1.14
3 1 -2 o 12.205 12.272 180.00 2.03617 4.57
1 3 3 o 14.041 13.663 180.00 2.04310 6.11
2 3 -3 o 49.675 50.553 180.00 2.01819 17.47
3 1 -1 o 0.482 0.473 180.00 2.03839 0.18
2 3 1 o 0.803 0.945 0.00 2.02399 0.32
1 2 -5 o 1.874 1.946 0.00 2.00500 0.40
0 3 4 o 0.091 0.092 0.00 2.01119 0.03
3 0 0 o 5.579 5.840 180.00 2.01973 1.00
2 1 -5 o 22.270 21.444 0.00 1.99283 5.66
1 2 4 o 35.697 36.031 0.00 2.01139 12.58
2 1 3 o 15.348 15.795 180.00 2.00403 5.87
3 1 -3 o 38.279 38.971 180.00 1.96528 12.46
3 1 0 o 0.000 0.000 180.00 1.97130 0.00
0 2 5 o 1.971 1.804 0.00 1.94769 0.45
1 4 -3 o 4.310 4.758 0.00 1.90901 1.16
1 4 2 o 0.088 0.089 0.00 1.91207 0.03
0 4 3 o 19.105 19.553 180.00 1.91595 5.83
3 2 -2 o 2.561 2.884 180.00 1.89738 0.79
3 2 -1 o 4.294 4.922 0.00 1.89918 1.32
3 0 -4 o 15.204 17.319 180.00 1.88438 2.01
2 3 -4 o 0.299 0.284 180.00 1.86070 0.08
2 2 -5 o 3.346 3.234 0.00 1.86217 0.75
1 0 -6 o 22.710 23.564 180.00 1.86957 1.58
2 3 2 o 7.374 7.632 0.00 1.86752 2.33
2 2 3 o 12.778 13.143 0.00 1.87130 3.97
2 4 -1 o 4.332 4.421 0.00 1.83872 1.21
3 1 -4 o 15.335 14.771 180.00 1.84487 3.88
3 2 -3 o 9.988 10.177 180.00 1.83963 2.74
3 2 0 o 1.122 1.081 0.00 1.84457 0.31
3 1 1 o 4.329 4.117 180.00 1.85319 1.18
1 1 -6 o 23.576 21.424 0.00 1.83096 3.19
2 4 -2 o 5.830 5.809 0.00 1.81153 1.49
2 4 0 o 2.320 2.417 0.00 1.81362 0.65
1 1 5 o 13.907 13.668 0.00 1.83692 3.28
1 3 -5 o 0.451 0.432 180.00 1.79688 0.08
1 3 4 o 37.999 37.548 180.00 1.80148 10.07
0 0 6 o 70.145 69.104 180.00 1.79788 5.73
0 5 1 o 0.302 0.308 0.00 1.78630 0.08
2 0 -6 o 2.277 3.027 0.00 1.77526 0.18
2 0 4 o 20.201 20.792 180.00 1.78516 2.61
1 4 -4 o 68.959 69.570 180.00 1.75106 13.10
0 1 6 o 1.156 2.013 180.00 1.76347 0.18
1 4 3 o 12.343 12.529 0.00 1.75437 3.39
2 4 -3 o 19.847 19.838 180.00 1.73852 4.27
3 2 -4 o 1.019 1.025 0.00 1.73975 0.22
0 3 5 o 1.540 1.611 0.00 1.75528 0.28
2 4 1 o 9.760 10.021 180.00 1.74222 2.48
2 1 -6 o 21.830 22.416 0.00 1.74211 3.30
1 5 0 o 1.237 1.261 0.00 1.73543 0.29
1 5 -1 o 25.969 26.426 180.00 1.73497 5.73
3 2 1 o 7.587 7.593 180.00 1.74672 1.72
2 1 4 o 3.721 3.780 180.00 1.75146 0.91
0 4 4 o 0.526 0.540 180.00 1.73404 0.11
1 2 -6 o 0.008 0.012 0.00 1.72808 0.00
3 3 -2 o 0.708 0.658 0.00 1.71819 0.16
3 3 -1 o 33.482 33.166 0.00 1.71952 7.60
1 2 5 o 18.311 19.088 180.00 1.73308 3.69
3 0 2 o 0.193 0.198 180.00 1.74071 0.02
0 5 2 o 0.089 0.076 180.00 1.71707 0.02
3 1 -5 o 2.738 2.768 180.00 1.70030 0.50
2 3 -5 o 13.665 13.665 180.00 1.69191 2.36
1 5 -2 o 4.213 4.178 180.00 1.69133 0.82
1 5 1 o 7.005 6.959 0.00 1.69261 1.63
3 1 2 o 0.035 0.055 0.00 1.70942 0.01
2 3 3 o 4.674 4.585 0.00 1.69875 1.10
3 3 -3 o 3.530 3.320 0.00 1.67495 0.72
3 3 0 o 3.233 3.031 0.00 1.67867 0.67
0 2 6 o 0.078 0.068 0.00 1.67099 0.01
2 2 -6 o 1.971 0.797 0.00 1.65279 0.27
2 2 4 o 1.335 1.101 180.00 1.66077 0.28
2 4 -4 o 1.221 1.122 0.00 1.63479 0.21
2 4 2 o 2.601 1.331 0.00 1.63941 0.56
3 2 -5 o 4.108 3.860 0.00 1.61695 0.67
1 5 -3 o 2.176 1.990 0.00 1.61348 0.35
1 5 2 o 5.243 4.912 180.00 1.61532 1.10
0 5 3 o 0.630 0.586 180.00 1.61766 0.11
3 2 2 o 0.135 0.099 180.00 1.62480 0.02
3 3 -4 o 0.297 0.280 0.00 1.59852 0.05
3 3 1 o 6.449 6.381 180.00 1.60392 1.13
1 4 -5 o 15.377 15.031 0.00 1.59099 1.96
1 0 6 o 4.967 4.902 180.00 1.60723 0.36
1 3 -6 o 15.766 15.585 0.00 1.58945 1.66
1 4 4 o 16.528 16.314 180.00 1.59418 3.09
1 3 5 o 0.885 0.864 0.00 1.59334 0.14
2 5 -1 o 22.734 21.900 0.00 1.57036 3.74
3 0 -6 o 2.398 2.081 0.00 1.57527 0.16
1 1 -7 o 2.061 1.909 180.00 1.57801 0.17
1 1 6 o 6.159 6.011 0.00 1.58251 0.85
4 0 -2 o 3.155 2.766 180.00 1.57557 0.25
2 5 -2 o 22.409 23.167 180.00 1.55332 3.41
2 5 0 o 0.177 0.181 180.00 1.55464 0.03
3 1 -6 o 0.020 0.021 180.00 1.55197 0.00
0 4 5 o 5.763 5.710 180.00 1.56190 0.78
4 1 -2 o 1.067 1.119 0.00 1.55225 0.16
3 1 3 o 16.176 15.975 0.00 1.56090 2.68
3 4 -2 o 2.229 2.209 180.00 1.53560 0.35
3 4 -1 o 0.173 0.172 0.00 1.53655 0.03
2 1 -7 o 6.948 6.824 180.00 1.53506 0.65
2 3 -6 o 16.654 16.823 0.00 1.53028 1.91
0 3 6 o 0.007 0.008 0.00 1.54469 0.00
4 1 -3 o 0.886 0.872 180.00 1.53516 0.13
4 1 -1 o 12.503 12.513 0.00 1.53770 1.85
2 3 4 o 14.536 14.463 0.00 1.53660 2.41
2 4 -5 o 0.590 0.600 180.00 1.51675 0.07
2 1 5 o 12.429 12.376 0.00 1.54273 1.91
1 5 -4 o 4.054 4.121 0.00 1.51469 0.50
2 4 3 o 0.887 0.808 0.00 1.52167 0.15
2 5 -3 o 5.170 5.033 0.00 1.50655 0.69
3 4 -3 o 0.058 0.058 180.00 1.50450 0.01
1 5 3 o 9.424 9.583 180.00 1.51683 1.60
2 5 1 o 0.000 0.000 0.00 1.50896 0.00
3 3 -5 o 5.796 5.731 0.00 1.50170 0.76
3 4 0 o 0.508 0.486 180.00 1.50719 0.07
0 1 7 o 4.511 4.483 0.00 1.51920 0.42
0 6 0 o 17.526 16.456 0.00 1.50942 1.24
1 2 -7 o 1.900 1.867 0.00 1.51071 0.14
4 0 -4 o 1.680 1.601 180.00 1.50994 0.11
3 3 2 o 1.873 1.769 0.00 1.50798 0.27
1 2 6 o 0.097 0.099 0.00 1.51466 0.01
4 0 0 o 5.203 5.283 180.00 1.51479 0.36
0 5 4 o 2.840 2.833 180.00 1.50363 0.38
3 2 -6 o 9.706 9.816 180.00 1.48782 1.13
0 6 1 o 7.441 7.428 0.00 1.49486 1.02
4 1 -4 o 8.811 8.777 0.00 1.48938 1.14
4 2 -2 o 7.203 7.270 180.00 1.48807 0.98
4 1 0 o 0.575 0.568 0.00 1.49404 0.08
3 2 3 o 21.174 21.457 0.00 1.49568 3.02
4 2 -3 o 9.144 8.969 180.00 1.47298 1.20
2 2 -7 o 0.196 0.192 180.00 1.47290 0.02
4 2 -1 o 5.326 5.497 0.00 1.47523 0.70
1 6 0 o 0.293 0.323 180.00 1.46466 0.04
1 6 -1 o 2.118 2.359 180.00 1.46438 0.27
2 2 5 o 0.148 0.181 180.00 1.47967 0.02
3 4 -4 o 21.416 20.871 0.00 1.44837 2.61
3 4 1 o 9.366 8.329 180.00 1.45239 1.22
0 6 2 o 1.862 1.574 180.00 1.45358 0.24
0 2 7 o 0.510 0.396 0.00 1.45887 0.04
2 5 -4 o 0.059 0.058 0.00 1.43754 0.01
1 6 -2 o 0.103 0.101 0.00 1.43786 0.01
1 4 -6 o 22.887 22.558 0.00 1.44162 1.94
2 5 2 o 0.042 0.041 0.00 1.44068 0.01
1 6 1 o 0.482 0.466 180.00 1.43864 0.06
1 4 5 o 11.631 11.647 0.00 1.44452 1.44
4 2 -4 o 0.288 0.284 0.00 1.43241 0.03
4 2 0 o 2.745 2.725 0.00 1.43655 0.32
4 1 -5 o 5.143 5.221 180.00 1.42209 0.56
3 0 4 o 3.476 3.401 180.00 1.43791 0.22
4 1 1 o 33.211 32.421 180.00 1.42819 3.79
3 1 -7 o 6.846 6.713 0.00 1.41190 0.60
1 3 -7 o 9.221 9.501 0.00 1.41545 0.62
1 5 -5 o 7.244 7.648 180.00 1.40749 0.66
1 3 6 o 4.553 4.696 0.00 1.41870 0.46
1 5 4 o 8.379 8.501 0.00 1.40970 1.06
3 3 -6 o 7.838 7.884 0.00 1.39657 0.77
3 1 4 o 11.612 11.778 180.00 1.42012 1.42
2 4 -6 o 18.209 18.326 180.00 1.39703 1.61
0 4 6 o 2.102 2.196 0.00 1.40797 0.19
4 3 -2 o 0.033 0.033 0.00 1.39678 0.00
2 4 4 o 0.476 0.547 180.00 1.40184 0.06
3 3 3 o 0.078 0.095 0.00 1.40307 0.01
1 0 -8 o 0.984 1.039 0.00 1.40044 0.03
1 6 -3 o 0.028 0.028 180.00 1.38911 0.00
1 6 2 o 0.267 0.264 180.00 1.39028 0.03
0 6 3 o 2.692 2.661 180.00 1.39177 0.29
4 3 -3 o 0.872 0.939 0.00 1.38428 0.09
2 3 -7 o 2.764 2.983 180.00 1.38421 0.21
4 3 -1 o 0.881 0.914 180.00 1.38615 0.09
3 4 -5 o 33.431 33.665 0.00 1.37519 3.30
2 3 5 o 0.302 0.300 0.00 1.38983 0.03
0 5 5 o 5.219 5.296 180.00 1.38723 0.51
1 1 -8 o 0.453 0.491 0.00 1.38399 0.02
2 0 -8 o 0.033 0.039 180.00 1.38111 0.00
3 4 2 o 0.819 0.988 180.00 1.38000 0.09
3 5 -2 o 3.577 3.391 0.00 1.36870 0.37
4 2 -5 o 9.247 8.668 0.00 1.37225 0.91
3 5 -1 o 0.208 0.198 0.00 1.36937 0.02
1 1 7 o 3.720 3.770 180.00 1.38749 0.32
2 0 6 o 1.220 1.236 180.00 1.38763 0.06
2 6 -1 o 6.618 5.965 0.00 1.36131 0.67
3 2 -7 o 0.005 0.005 180.00 1.36308 0.00
4 2 1 o 0.765 0.851 180.00 1.37772 0.08
2 1 -8 o 29.459 30.003 180.00 1.36533 1.75
0 3 7 o 0.130 0.124 0.00 1.37255 0.01
2 5 -5 o 1.614 1.682 0.00 1.35530 0.14
3 2 4 o 1.223 1.160 180.00 1.37047 0.13
2 5 3 o 6.340 6.431 180.00 1.35881 0.75
4 3 -4 o 0.066 0.066 180.00 1.35044 0.01
2 1 6 o 1.973 1.869 180.00 1.37162 0.19
2 6 -2 o 25.122 25.233 0.00 1.35016 2.37
2 6 0 o 37.504 37.417 180.00 1.35103 3.85
4 0 -6 o 0.177 0.190 180.00 1.35689 0.01
3 5 -3 o 0.317 0.310 0.00 1.34654 0.03
3 5 0 o 2.706 2.728 0.00 1.34847 0.28
4 3 0 o 6.010 6.083 180.00 1.35391 0.59
4 0 2 o 0.108 0.105 0.00 1.36396 0.01
4 1 -6 o 0.317 0.357 0.00 1.34191 0.03
0 0 8 o 48.319 48.833 0.00 1.34841 1.50
1 2 -8 o 0.502 0.805 180.00 1.33792 0.02
4 1 2 o 0.004 0.004 0.00 1.34875 0.00
1 2 7 o 6.173 7.302 180.00 1.34108 0.47
1 6 -4 o 2.218 2.437 180.00 1.32456 0.18
2 6 -3 o 11.482 11.741 180.00 1.31911 0.97
1 6 3 o 5.238 6.482 0.00 1.32599 0.55
0 1 8 o 0.060 0.582 180.00 1.33371 0.00
2 6 1 o 0.425 0.479 180.00 1.32072 0.04
2 2 -8 o 5.121 5.867 0.00 1.32104 0.29
3 5 -4 o 13.638 13.973 180.00 1.30586 1.15
2 2 6 o 0.011 0.016 0.00 1.32674 0.00
0 6 4 o 4.714 4.726 0.00 1.31715 0.42
3 5 1 o 15.454 15.631 180.00 1.30880 1.45
1 4 -7 o 2.785 2.824 0.00 1.30803 0.16
4 3 -5 o 7.048 7.163 0.00 1.29968 0.59
4 2 -6 o 6.738 6.850 0.00 1.29979 0.54
1 4 6 o 4.547 4.658 180.00 1.31059 0.37
1 5 -6 o 25.784 26.073 180.00 1.30090 1.67
3 4 -6 o 7.894 8.011 180.00 1.29309 0.61
4 3 1 o 5.233 5.496 0.00 1.30432 0.44
3 3 -7 o 0.979 1.021 180.00 1.29188 0.07
4 4 -2 o 2.899 2.952 0.00 1.29325 0.25
1 5 5 o 0.619 0.636 180.00 1.30303 0.06
3 0 -8 o 14.261 14.466 180.00 1.29849 0.44
4 2 2 o 3.311 3.401 180.00 1.30600 0.28
3 4 3 o 16.614 16.885 0.00 1.29824 1.53
4 4 -3 o 11.943 12.647 180.00 1.28332 1.00
3 3 4 o 2.895 2.947 180.00 1.29817 0.26
2 4 -7 o 4.671 4.945 180.00 1.28326 0.29
4 4 -1 o 2.439 2.602 0.00 1.28480 0.21
3 1 -8 o 0.951 1.013 0.00 1.28534 0.06
0 7 1 o 0.018 0.019 0.00 1.28458 0.00
0 2 8 o 3.686 3.818 0.00 1.29233 0.20
2 4 5 o 2.656 2.876 180.00 1.28773 0.24
2 6 -4 o 3.860 4.044 180.00 1.27204 0.28
3 1 5 o 12.463 12.875 180.00 1.29267 1.10
2 6 2 o 0.507 0.532 180.00 1.27421 0.05
2 5 -6 o 4.626 4.986 0.00 1.26785 0.30
0 5 6 o 14.370 14.910 180.00 1.27601 0.99
1 3 -8 o 0.497 0.531 0.00 1.27040 0.02
2 5 4 o 0.125 0.132 0.00 1.27144 0.01
1 7 0 o 3.932 4.010 180.00 1.26527 0.31
1 7 -1 o 1.410 1.439 180.00 1.26509 0.11
0 4 7 o 0.099 0.103 0.00 1.27395 0.01
4 4 -4 o 0.209 0.204 0.00 1.25621 0.02
1 3 7 o 0.250 0.261 0.00 1.27310 0.02
3 5 -5 o 0.003 0.004 0.00 1.25146 0.00
4 4 0 o 10.476 10.228 0.00 1.25901 0.81
4 1 -7 o 16.552 16.103 180.00 1.25652 1.10
2 3 -8 o 33.379 32.408 180.00 1.25592 1.71
0 7 2 o 2.470 2.388 180.00 1.25810 0.19
3 5 2 o 1.608 1.544 0.00 1.25509 0.13
1 6 -5 o 5.282 5.749 180.00 1.25108 0.34
3 2 -8 o 0.013 0.013 0.00 1.24818 0.00
1 7 -2 o 1.330 1.379 180.00 1.24787 0.09
1 6 4 o 0.433 0.430 180.00 1.25262 0.04
5 0 -2 o 6.960 6.794 0.00 1.25874 0.26
1 7 1 o 0.183 0.191 180.00 1.24838 0.01
2 3 6 o 11.075 11.427 0.00 1.26081 0.85
4 1 3 o 4.229 4.462 0.00 1.26354 0.33
4 3 -6 o 5.288 4.577 180.00 1.23762 0.37
3 2 5 o 11.406 10.968 180.00 1.25489 0.91
5 1 -3 o 3.825 3.862 180.00 1.24591 0.27
5 1 -2 o 2.370 2.433 180.00 1.24676 0.17
4 3 2 o 0.018 0.015 0.00 1.24298 0.00
5 0 -4 o 1.699 1.444 180.00 1.24027 0.06
1 0 8 o 8.805 8.719 0.00 1.24556 0.25
0 6 5 o 3.700 3.140 0.00 1.23678 0.25
3 6 -2 o 3.277 3.134 0.00 1.22360 0.23
3 6 -1 o 0.020 0.019 0.00 1.22408 0.00
4 2 -7 o 0.539 0.556 0.00 1.22174 0.03
2 1 -9 o 0.231 0.199 0.00 1.22563 0.01
4 4 -5 o 8.657 8.808 180.00 1.21504 0.58
2 6 -5 o 4.241 4.269 0.00 1.21400 0.25
1 7 -3 o 6.539 6.665 0.00 1.21560 0.41
1 7 2 o 9.418 9.605 0.00 1.21639 0.71
4 2 3 o 3.266 3.349 180.00 1.22819 0.23
3 6 -3 o 3.381 3.803 180.00 1.20769 0.22
4 4 1 o 2.016 2.079 0.00 1.21884 0.14
2 6 3 o 2.227 2.272 0.00 1.21652 0.18
3 4 -7 o 1.532 1.706 180.00 1.20867 0.09
0 7 3 o 0.022 0.022 0.00 1.21739 0.00
3 6 0 o 0.653 0.709 180.00 1.20908 0.05
5 2 -3 o 0.864 0.874 0.00 1.21198 0.06
5 2 -2 o 0.246 0.248 0.00 1.21276 0.02
3 4 4 o 9.342 9.412 180.00 1.21381 0.69
2 7 -1 o 2.778 2.790 180.00 1.19684 0.18
1 5 -7 o 2.903 2.844 180.00 1.20021 0.13
5 0 0 o 0.293 0.296 0.00 1.21184 0.01
3 3 -8 o 0.534 0.526 0.00 1.19282 0.03
5 2 -4 o 0.942 0.939 180.00 1.19621 0.06
1 5 6 o 9.563 9.291 0.00 1.20219 0.61
3 5 -6 o 0.727 0.757 180.00 1.18864 0.04
5 1 -5 o 35.456 35.354 0.00 1.19735 2.17
2 7 -2 o 5.828 5.951 0.00 1.18924 0.35
1 2 -9 o 0.023 0.023 0.00 1.19838 0.00
4 5 -2 o 1.200 1.243 0.00 1.18876 0.08
2 7 0 o 0.005 0.005 0.00 1.18984 0.00
2 2 -9 o 1.886 1.814 0.00 1.19329 0.07
5 2 -1 o 4.862 4.784 180.00 1.19847 0.31
5 1 0 o 4.661 4.552 0.00 1.20113 0.29
1 2 8 o 0.003 0.003 0.00 1.20095 0.00
1 4 -8 o 0.032 0.033 180.00 1.19102 0.00
3 5 3 o 0.358 0.356 0.00 1.19264 0.03
4 5 -3 o 4.400 4.560 0.00 1.18103 0.28
3 3 5 o 1.111 1.092 180.00 1.19867 0.08
4 5 -1 o 6.695 6.770 180.00 1.18219 0.43
2 2 7 o 16.366 16.167 0.00 1.19809 0.97
3 6 -4 o 0.052 0.051 0.00 1.17808 0.00
1 4 7 o 5.896 5.710 0.00 1.19325 0.33
2 5 -7 o 5.242 5.430 0.00 1.18099 0.25
3 6 1 o 0.005 0.006 180.00 1.18023 0.00
4 0 -8 o 12.533 12.872 180.00 1.18146 0.32
2 4 -8 o 1.325 1.372 0.00 1.17906 0.06
0 1 9 o 0.000 0.000 0.00 1.18823 0.00
2 5 5 o 1.135 1.118 180.00 1.18447 0.08
1 6 -6 o 6.902 6.283 0.00 1.17443 0.33
3 1 -9 o 3.945 3.725 180.00 1.17353 0.17
3 0 6 o 24.288 24.850 0.00 1.19011 0.78
4 3 -7 o 12.490 13.017 0.00 1.16968 0.69
2 4 6 o 5.229 5.150 0.00 1.18311 0.33
1 7 -4 o 0.267 0.269 0.00 1.17164 0.01
4 1 -8 o 22.428 22.617 0.00 1.17153 1.13
2 7 -3 o 0.571 0.593 180.00 1.16786 0.03
2 7 1 o 3.678 3.846 0.00 1.16898 0.24
1 7 3 o 0.001 0.001 180.00 1.17263 0.00
1 6 5 o 0.799 0.717 180.00 1.17600 0.05
4 0 4 o 0.173 0.181 0.00 1.18846 0.01
4 4 -6 o 2.791 2.778 0.00 1.16388 0.16
5 2 -5 o 13.879 14.164 180.00 1.16714 0.79
0 5 7 o 0.015 0.014 0.00 1.17372 0.00
4 3 3 o 0.262 0.236 180.00 1.17534 0.02
4 5 -4 o 2.608 2.567 180.00 1.15980 0.15
4 1 4 o 0.155 0.154 0.00 1.17836 0.01
3 1 6 o 5.602 5.780 0.00 1.17996 0.35
5 2 0 o 0.632 0.646 0.00 1.17064 0.04
0 7 4 o 6.521 6.557 0.00 1.16650 0.38
4 4 2 o 2.682 2.788 180.00 1.16833 0.16
4 5 0 o 1.483 1.544 180.00 1.16200 0.09
5 3 -3 o 1.333 1.362 180.00 1.16111 0.08
5 0 -6 o 7.095 7.017 180.00 1.16423 0.19
5 3 -2 o 0.001 0.001 0.00 1.16180 0.00
5 1 -6 o 13.988 13.951 180.00 1.15473 0.74
2 6 -6 o 1.216 1.197 0.00 1.14994 0.06
0 4 8 o 24.235 23.811 180.00 1.15852 1.00
0 6 6 o 2.249 2.221 180.00 1.15602 0.12
5 3 -4 o 0.644 0.552 180.00 1.14722 0.04
2 6 4 o 13.567 14.180 180.00 1.15262 0.91
0 2 9 o 1.043 1.025 180.00 1.15868 0.04
5 1 1 o 0.267 0.263 0.00 1.15949 0.01
3 2 -9 o 0.049 0.042 180.00 1.14505 0.00
4 2 -8 o 1.458 1.322 180.00 1.14319 0.07
5 3 -1 o 2.964 2.827 180.00 1.14922 0.16
1 3 -9 o 6.400 6.081 0.00 1.14913 0.19
3 6 -5 o 5.960 5.580 180.00 1.13767 0.30
2 3 -9 o 2.972 2.612 180.00 1.14464 0.10
1 3 8 o 1.208 1.243 180.00 1.15140 0.05
3 6 2 o 50.030 48.946 0.00 1.14039 3.03
2 7 -4 o 8.988 8.574 180.00 1.13482 0.44
2 3 7 o 4.626 4.341 180.00 1.14888 0.24
3 2 6 o 0.070 0.071 0.00 1.15102 0.00
4 2 4 o 1.344 1.295 0.00 1.14953 0.08
2 7 2 o 3.072 2.880 0.00 1.13636 0.19
4 5 -5 o 3.422 3.218 180.00 1.12717 0.18
3 4 -8 o 15.183 14.348 0.00 1.12639 0.67
4 5 1 o 10.462 9.233 0.00 1.13020 0.56
0 8 0 o 0.957 0.850 0.00 1.13207 0.02
5 2 -6 o 3.916 3.629 0.00 1.12756 0.20
3 5 -7 o 0.798 0.681 0.00 1.12208 0.04
5 3 -5 o 2.832 2.461 180.00 1.12150 0.14
5 2 1 o 2.029 1.808 0.00 1.13199 0.10
0 8 1 o 10.070 9.373 0.00 1.12588 0.52
3 4 5 o 0.249 0.222 0.00 1.13132 0.01
3 5 4 o 7.113 6.645 0.00 1.12619 0.42
1 7 -5 o 1.106 0.929 0.00 1.11986 0.05
5 3 0 o 0.074 0.064 0.00 1.12461 0.00
1 7 4 o 3.972 3.450 180.00 1.12097 0.23
1 8 0 o 0.293 0.286 180.00 1.11281 0.01
1 8 -1 o 1.668 1.624 180.00 1.11269 0.08
2 0 -10 o 4.415 3.434 180.00 1.11807 0.06
4 4 -7 o 3.978 3.724 180.00 1.10684 0.18
1 0 -10 o 3.007 2.457 180.00 1.11635 0.04
2 0 8 o 3.297 2.783 0.00 1.12251 0.07
1 5 -8 o 3.617 3.436 180.00 1.10791 0.12
2 1 -10 o 7.382 7.216 0.00 1.10964 0.20
3 7 -2 o 0.000 0.000 0.00 1.10002 0.00
5 1 -7 o 12.468 11.361 180.00 1.10459 0.56
0 3 9 o 0.182 0.174 180.00 1.11399 0.01
0 8 2 o 7.351 6.985 180.00 1.10793 0.36
3 7 -1 o 0.019 0.018 180.00 1.10037 0.00
4 4 3 o 1.773 1.713 0.00 1.11163 0.09
0 7 5 o 16.697 16.301 180.00 1.10957 0.80
4 3 -8 o 5.842 5.862 180.00 1.10020 0.25
3 3 -9 o 1.327 1.200 180.00 1.10186 0.05
1 1 -10 o 8.725 8.295 0.00 1.10796 0.21
5 0 2 o 0.038 0.030 180.00 1.11838 0.00
1 5 7 o 2.142 2.089 180.00 1.10971 0.10
5 4 -3 o 7.793 7.996 0.00 1.09957 0.38
1 8 1 o 0.364 0.341 0.00 1.10127 0.02
1 8 -2 o 1.896 1.818 0.00 1.10092 0.09
5 4 -2 o 0.270 0.271 180.00 1.10016 0.01
2 5 -8 o 14.635 14.730 0.00 1.09827 0.52
2 1 8 o 23.736 22.610 180.00 1.11399 1.04
1 1 9 o 9.100 8.847 0.00 1.11024 0.34
1 6 -7 o 0.157 0.161 180.00 1.09876 0.01
2 7 -5 o 2.285 2.182 0.00 1.09303 0.09
4 3 4 o 3.061 2.851 0.00 1.10585 0.15
5 1 2 o 0.689 0.670 180.00 1.10995 0.03
3 3 6 o 0.003 0.003 0.00 1.10718 0.00
3 6 -6 o 13.501 13.295 0.00 1.08986 0.57
1 6 6 o 11.444 11.335 180.00 1.10028 0.56
2 5 6 o 1.470 1.358 180.00 1.10154 0.08
3 7 -3 o 3.916 3.856 0.00 1.08842 0.18
4 6 -2 o 0.653 0.641 0.00 1.08996 0.03
2 7 3 o 3.812 3.531 180.00 1.09487 0.21
3 7 0 o 6.238 6.158 180.00 1.08944 0.30
4 5 -6 o 2.442 2.417 0.00 1.08597 0.11
5 4 -4 o 1.013 0.994 180.00 1.08776 0.05
3 6 3 o 4.545 4.334 180.00 1.09294 0.24
4 1 -9 o 1.004 0.977 0.00 1.09042 0.04
5 3 -6 o 4.236 4.177 0.00 1.08625 0.19
4 6 -3 o 6.874 6.696 0.00 1.08399 0.32
4 6 -1 o 3.065 3.035 180.00 1.08488 0.14
5 4 -1 o 0.232 0.229 180.00 1.08946 0.01
2 6 -7 o 1.188 1.156 0.00 1.08395 0.04
4 5 2 o 2.555 2.513 180.00 1.08958 0.12
1 4 -9 o 3.127 3.079 0.00 1.08939 0.08
2 4 -9 o 1.928 1.910 0.00 1.08556 0.06
5 3 1 o 1.595 1.555 180.00 1.09021 0.07
2 2 -10 o 4.524 4.479 180.00 1.08547 0.12
1 4 8 o 2.716 2.599 0.00 1.09132 0.10
2 6 5 o 5.676 5.575 180.00 1.08664 0.30
4 1 5 o 6.714 6.221 180.00 1.09685 0.33
5 2 -7 o 12.061 12.159 180.00 1.08074 0.51
3 0 -10 o 15.411 14.886 0.00 1.08341 0.24
1 8 -3 o 3.433 3.365 0.00 1.07857 0.14
2 4 7 o 7.546 7.416 0.00 1.08917 0.34
1 8 2 o 1.240 1.242 0.00 1.07912 0.06
1 2 -10 o 2.369 2.303 180.00 1.08390 0.05
2 2 8 o 0.101 0.099 180.00 1.08953 0.00
1 2 9 o 0.330 0.325 180.00 1.08602 0.01
0 8 3 o 1.083 1.095 180.00 1.07982 0.05
5 2 2 o 0.696 0.686 180.00 1.08576 0.03
3 1 -10 o 1.059 0.716 180.00 1.07574 0.03
4 6 -4 o 5.577 5.363 180.00 1.06751 0.24
0 5 8 o 9.389 9.209 180.00 1.08161 0.33
3 7 -4 o 0.141 0.135 0.00 1.06659 0.01
0 6 7 o 0.846 0.806 180.00 1.07833 0.03
5 4 -5 o 3.908 3.778 0.00 1.06576 0.17
4 6 0 o 1.748 1.608 180.00 1.06922 0.08
0 0 10 o 6.883 6.687 180.00 1.07873 0.10
3 7 1 o 5.031 4.810 0.00 1.06819 0.24
4 2 -9 o 7.767 7.448 0.00 1.06746 0.29
2 8 -1 o 1.670 1.628 180.00 1.06540 0.07
3 1 7 o 4.428 4.351 0.00 1.08135 0.20
5 4 0 o 0.353 0.334 180.00 1.06842 0.02
2 8 0 o 2.602 2.532 180.00 1.06045 0.11
1 7 -6 o 9.998 9.846 0.00 1.06389 0.36
2 8 -2 o 13.630 13.287 0.00 1.06003 0.55
0 1 10 o 0.879 0.718 180.00 1.07116 0.02
4 2 5 o 0.078 0.054 0.00 1.07348 0.00
1 7 5 o 7.211 7.051 0.00 1.06505 0.34
3 5 -8 o 6.721 6.339 180.00 1.05533 0.24
5 0 -8 o 0.577 0.544 180.00 1.05750 0.01
3 2 -10 o 1.017 1.006 180.00 1.05367 0.03
3 5 5 o 0.061 0.060 0.00 1.05937 0.00
4 4 -8 o 3.944 3.828 180.00 1.04743 0.15
3 4 -9 o 0.405 0.395 180.00 1.04886 0.01
5 1 -8 o 0.108 0.105 180.00 1.05036 0.00
0 4 9 o 2.220 2.159 0.00 1.05931 0.06
2 7 -6 o 4.482 4.266 180.00 1.04558 0.15
2 8 -3 o 0.336 0.316 0.00 1.04480 0.01
5 3 -7 o 0.905 0.845 180.00 1.04420 0.03
1 8 -4 o 4.138 4.016 180.00 1.04751 0.15
4 6 -5 o 0.296 0.274 180.00 1.04190 0.01
2 3 -10 o 4.977 4.847 0.00 1.04847 0.12
1 8 3 o 10.627 10.342 180.00 1.04821 0.48
2 8 1 o 0.272 0.259 180.00 1.04561 0.01
3 2 7 o 7.990 7.743 0.00 1.05894 0.33
4 4 4 o 7.398 7.166 0.00 1.05230 0.32
0 7 6 o 16.316 15.839 0.00 1.05014 0.62
4 5 -7 o 1.956 1.896 0.00 1.03920 0.07
4 6 1 o 0.006 0.006 180.00 1.04429 0.00
2 7 4 o 8.497 8.246 180.00 1.04759 0.41
3 4 6 o 0.582 0.572 180.00 1.05344 0.03
3 6 -7 o 5.916 5.699 180.00 1.03787 0.21
5 1 3 o 1.091 1.020 0.00 1.05600 0.04
1 3 -10 o 10.822 10.462 0.00 1.04705 0.23
3 7 -5 o 5.493 5.312 180.00 1.03633 0.20
5 3 2 o 0.169 0.165 0.00 1.04873 0.01
2 3 8 o 0.003 0.003 0.00 1.05213 0.00
0 8 4 o 0.775 0.723 0.00 1.04383 0.03
0 2 10 o 3.933 3.826 0.00 1.04936 0.10
1 3 9 o 3.123 3.040 180.00 1.04897 0.10
5 4 -6 o 4.762 4.585 0.00 1.03537 0.18
3 7 2 o 10.744 10.372 180.00 1.03839 0.47
6 1 -3 o 0.911 0.848 180.00 1.04338 0.03
4 5 3 o 1.778 1.653 0.00 1.04316 0.07
3 6 4 o 0.006 0.005 0.00 1.04112 0.00
6 0 -4 o 18.847 17.765 0.00 1.04483 0.36
5 5 -3 o 11.751 10.963 0.00 1.03317 0.46
6 0 -2 o 0.536 0.513 180.00 1.04604 0.01
4 3 -9 o 1.601 1.376 0.00 1.03221 0.05
5 5 -2 o 0.024 0.023 0.00 1.03366 0.00
5 4 1 o 3.266 3.154 180.00 1.03879 0.12
6 1 -4 o 0.002 0.002 0.00 1.03795 0.00
6 1 -2 o 0.463 0.447 180.00 1.03913 0.02
5 2 -8 o 0.040 0.032 0.00 1.02979 0.00
4 3 5 o 1.556 1.497 180.00 1.03766 0.06
5 5 -4 o 3.710 3.460 180.00 1.02335 0.14
1 6 -8 o 5.076 4.524 180.00 1.02663 0.14
5 5 -1 o 0.170 0.151 0.00 1.02477 0.01
2 8 -4 o 0.078 0.085 180.00 1.02094 0.00
5 2 3 o 0.451 0.433 180.00 1.03510 0.02
1 5 -9 o 0.066 0.059 180.00 1.02471 0.00
1 6 7 o 3.403 2.994 0.00 1.02806 0.12
2 8 2 o 14.468 14.660 0.00 1.02207 0.60
2 5 -9 o 0.240 0.251 0.00 1.02152 0.01
3 3 -10 o 2.698 3.053 0.00 1.01973 0.08
2 6 -8 o 0.178 0.204 0.00 1.01894 0.01
4 0 -10 o 12.445 13.055 0.00 1.02145 0.18
6 1 -5 o 0.206 0.194 0.00 1.02326 0.01
6 2 -3 o 0.623 0.588 0.00 1.02321 0.02
1 5 8 o 4.155 3.693 0.00 1.02632 0.14
6 1 -1 o 1.170 1.038 0.00 1.02553 0.04
2 5 7 o 0.060 0.054 0.00 1.02453 0.00
6 2 -4 o 0.110 0.121 180.00 1.01808 0.00
2 6 6 o 5.277 5.494 0.00 1.02155 0.21
4 6 -6 o 0.942 1.143 0.00 1.00910 0.03
4 1 -10 o 0.586 0.707 0.00 1.01502 0.02
3 3 7 o 1.618 1.457 180.00 1.02450 0.06
6 2 -2 o 0.912 1.036 180.00 1.01920 0.03
4 0 6 o 2.936 2.615 0.00 1.02749 0.06
4 6 2 o 0.019 0.024 0.00 1.01199 0.00
5 5 -5 o 2.233 2.382 180.00 1.00497 0.08
1 8 -5 o 3.335 3.947 180.00 1.01001 0.11
1 8 4 o 0.257 0.303 0.00 1.01082 0.01
2 1 -11 o 0.627 0.796 0.00 1.01234 0.01
0 3 10 o 1.854 2.116 0.00 1.01582 0.04
5 5 0 o 5.154 6.050 180.00 1.00720 0.18
4 1 6 o 0.114 0.123 0.00 1.02094 0.00
1 7 -7 o 0.150 0.173 180.00 1.00666 0.00
3 7 -6 o 0.282 0.292 0.00 0.99980 0.01
1 0 10 o 0.071 0.084 180.00 1.01494 0.00
4 7 -2 o 5.814 6.009 180.00 0.99988 0.20
2 1 9 o 2.454 2.755 0.00 1.01600 0.07
6 2 -5 o 2.023 2.102 180.00 1.00421 0.07
1 7 6 o 0.456 0.543 180.00 1.00783 0.02
5 4 -7 o 0.046 0.049 0.00 0.99877 0.00
6 0 -6 o 1.544 1.781 180.00 1.00663 0.03
2 4 -10 o 6.933 6.979 180.00 1.00250 0.16
3 7 3 o 3.207 3.244 0.00 1.00218 0.13
4 7 -3 o 0.962 1.066 0.00 0.99526 0.03
5 3 -8 o 0.022 0.024 0.00 0.99804 0.00
1 1 -11 o 1.255 1.452 180.00 1.00674 0.02
6 2 -1 o 0.100 0.114 180.00 1.00635 0.00
3 8 -1 o 0.916 1.018 0.00 0.99564 0.03
3 8 -2 o 4.812 5.334 180.00 0.99538 0.16
0 9 1 o 0.215 0.219 0.00 1.00193 0.01
0 6 8 o 0.015 0.016 180.00 1.00559 0.00
4 7 -1 o 2.714 3.032 180.00 0.99596 0.09
1 1 10 o 0.615 0.738 0.00 1.00862 0.02
0 8 5 o 11.415 11.533 0.00 1.00244 0.39
2 7 -7 o 1.166 1.289 0.00 0.99524 0.03
6 1 -6 o 1.991 2.070 180.00 1.00047 0.06
6 0 0 o 1.100 1.304 0.00 1.00986 0.02
4 2 -10 o 1.219 1.371 0.00 0.99641 0.03
2 4 8 o 8.536 9.446 180.00 1.00570 0.28
1 4 -10 o 6.677 6.907 0.00 1.00126 0.13
5 4 2 o 1.728 1.746 180.00 1.00272 0.06
5 1 -9 o 4.779 5.241 0.00 0.99484 0.14
4 5 -8 o 8.502 9.026 180.00 0.98956 0.26
2 7 5 o 1.792 2.001 0.00 0.99732 0.07
1 4 9 o 0.510 0.517 180.00 1.00293 0.01
5 3 3 o 0.612 0.621 180.00 1.00287 0.02
1 9 0 o 9.937 9.991 180.00 0.99269 0.33
1 9 -1 o 0.000 0.000 180.00 0.99260 0.00
3 5 -9 o 0.384 0.403 180.00 0.99076 0.01
6 1 0 o 1.180 1.213 0.00 1.00364 0.04
0 5 9 o 0.488 0.508 180.00 0.99956 0.01
2 8 -5 o 0.176 0.185 180.00 0.99020 0.01
4 4 -9 o 0.537 0.634 0.00 0.98826 0.02
5 0 4 o 2.149 2.469 180.00 1.00666 0.04
2 2 -11 o 0.371 0.391 0.00 0.99388 0.01
6 3 -3 o 2.892 2.955 180.00 0.99204 0.10
3 8 -3 o 0.166 0.208 0.00 0.98676 0.01
2 8 3 o 0.893 0.926 0.00 0.99156 0.03
3 8 0 o 0.003 0.003 0.00 0.98752 0.00
3 1 -11 o 0.012 0.012 180.00 0.99046 0.00
4 2 6 o 6.251 6.388 180.00 1.00202 0.22
4 5 4 o 1.753 1.826 180.00 0.99366 0.06
3 6 -8 o 2.445 2.788 180.00 0.98437 0.07
4 7 -4 o 2.201 2.598 0.00 0.98246 0.07
3 5 6 o 1.546 1.681 180.00 0.99462 0.06
5 1 4 o 6.041 6.294 0.00 1.00050 0.21
2 2 9 o 8.014 8.897 180.00 0.99735 0.23
3 0 8 o 0.050 0.051 0.00 1.00142 0.00
0 9 2 o 0.427 0.465 180.00 0.98921 0.01
6 3 -4 o 0.001 0.001 180.00 0.98737 0.00
4 7 0 o 2.851 3.232 0.00 0.98380 0.10
0 7 7 o 2.475 2.602 0.00 0.99088 0.07
6 3 -2 o 0.491 0.571 0.00 0.98838 0.02
1 9 1 o 0.415 0.476 180.00 0.98447 0.01
5 5 -6 o 0.714 1.102 0.00 0.97937 0.02
1 9 -2 o 2.151 2.452 0.00 0.98422 0.07
4 4 5 o 0.334 0.341 180.00 0.99303 0.01
1 2 -11 o 1.044 1.192 180.00 0.98858 0.02
6 2 -6 o 0.099 0.116 0.00 0.98264 0.00
3 6 5 o 0.184 0.227 0.00 0.98765 0.01
3 1 8 o 1.767 1.947 0.00 0.99535 0.06
1 2 10 o 3.854 4.085 180.00 0.99037 0.09
5 2 -9 o 0.554 0.725 0.00 0.97731 0.02
3 4 -10 o 0.024 0.031 0.00 0.97728 0.00
5 5 1 o 3.347 4.055 0.00 0.98227 0.11
6 2 0 o 1.462 1.744 180.00 0.98565 0.05
4 6 -7 o 0.108 0.112 0.00 0.97124 0.00
3 8 -4 o 1.997 2.128 180.00 0.97041 0.06
6 3 -5 o 1.394 1.671 0.00 0.97470 0.04
3 8 1 o 0.323 0.331 180.00 0.97162 0.01
3 2 -11 o 0.001 0.001 180.00 0.97315 0.00
3 4 7 o 0.056 0.074 180.00 0.98149 0.00
5 2 4 o 1.519 1.803 0.00 0.98267 0.05
6 3 -1 o 2.010 2.618 0.00 0.97666 0.06
4 6 3 o 1.590 1.879 180.00 0.97447 0.05
5 6 -3 o 0.303 0.340 180.00 0.96632 0.01
6 1 -7 o 2.308 2.417 180.00 0.97116 0.07
4 3 -10 o 1.558 1.855 180.00 0.96756 0.04
4 7 -5 o 3.121 3.943 180.00 0.96239 0.09
1 9 2 o 9.593 11.155 0.00 0.96855 0.31
5 6 -2 o 1.045 1.185 0.00 0.96671 0.03
1 8 -6 o 0.206 0.241 0.00 0.96837 0.01
1 9 -3 o 0.002 0.003 180.00 0.96815 0.00
0 4 10 o 0.070 0.079 0.00 0.97385 0.00
3 2 8 o 2.603 3.449 180.00 0.97779 0.08
1 8 5 o 0.903 1.015 180.00 0.96925 0.03
0 1 11 o 1.643 1.990 180.00 0.97496 0.03
0 9 3 o 4.997 5.668 0.00 0.96905 0.15
4 7 1 o 0.047 0.065 0.00 0.96427 0.00
3 7 -7 o 2.613 3.006 0.00 0.95921 0.07
6 1 1 o 0.263 0.319 0.00 0.97504 0.01
2 3 -11 o 0.042 0.051 0.00 0.96525 0.00
4 3 6 o 1.872 1.926 0.00 0.97269 0.06
5 6 -4 o 0.012 0.014 0.00 0.95827 0.00
5 4 -8 o 0.019 0.023 180.00 0.95814 0.00
5 6 -1 o 0.260 0.298 180.00 0.95943 0.01
2 9 -1 o 0.003 0.004 180.00 0.95859 0.00
3 7 4 o 1.105 1.355 180.00 0.96178 0.04
2 3 9 o 0.403 0.469 180.00 0.96842 0.01
1 6 -9 o 6.537 7.517 180.00 0.95938 0.13
5 4 3 o 0.688 0.866 180.00 0.96241 0.02
1 3 -11 o 1.644 1.901 180.00 0.96039 0.03
1 6 8 o 0.058 0.068 0.00 0.96070 0.00
0 8 6 o 0.050 0.061 0.00 0.95798 0.00
2 6 7 o 0.201 0.233 180.00 0.95923 0.01
5 3 -9 o 2.007 2.855 0.00 0.95004 0.05
5 5 -7 o 1.406 1.885 0.00 0.94822 0.04
1 3 10 o 0.805 0.997 180.00 0.96202 0.02
3 8 -5 o 0.063 0.084 0.00 0.94745 0.00
6 3 0 o 0.523 0.639 180.00 0.95770 0.01
6 2 1 o 1.717 2.044 0.00 0.95852 0.05
0 2 11 o 10.732 12.814 180.00 0.95844 0.20
3 8 2 o 0.011 0.015 180.00 0.94902 0.00
6 4 -4 o 0.058 0.078 180.00 0.94869 0.00
1 7 -8 o 0.010 0.014 0.00 0.95032 0.00
6 4 -2 o 2.781 3.921 0.00 0.94959 0.08
1 5 -10 o 0.825 1.161 180.00 0.95035 0.01
5 6 -5 o 0.224 0.272 180.00 0.94313 0.01
3 3 -11 o 1.829 2.311 0.00 0.94622 0.04
1 9 -4 o 5.645 6.803 180.00 0.94550 0.15
2 9 -3 o 2.202 2.656 180.00 0.94351 0.06
1 9 3 o 1.026 1.279 180.00 0.94601 0.03
4 1 -11 o 0.088 0.110 0.00 0.94600 0.00
2 7 -8 o 2.685 3.179 180.00 0.94421 0.06
2 9 1 o 3.675 4.368 0.00 0.94410 0.11
5 0 -10 o 0.094 0.111 180.00 0.94516 0.00
5 6 0 o 0.131 0.154 0.00 0.94497 0.00
4 5 -9 o 4.080 4.702 180.00 0.93921 0.10
4 7 -6 o 0.253 0.270 180.00 0.93636 0.01
2 7 6 o 1.402 1.775 0.00 0.94629 0.04
5 1 -10 o 0.055 0.065 180.00 0.94006 0.00
3 3 8 o 0.001 0.001 0.00 0.95049 0.00
0 9 4 o 1.820 2.210 180.00 0.94279 0.05
6 4 -5 o 0.090 0.092 180.00 0.93744 0.00
6 0 -8 o 1.285 1.577 180.00 0.94219 0.02
4 7 2 o 1.958 2.139 180.00 0.93867 0.06
4 5 5 o 0.412 0.497 0.00 0.94331 0.01
6 4 -1 o 3.223 3.684 180.00 0.93918 0.09
6 1 -8 o 0.493 0.512 180.00 0.93713 0.01
4 6 -8 o 0.121 0.135 0.00 0.93035 0.00
3 6 -9 o 0.309 0.344 0.00 0.93135 0.01
6 0 2 o 2.101 2.694 180.00 0.94662 0.03
4 4 -10 o 0.003 0.003 180.00 0.93108 0.00
5 1 5 o 0.045 0.055 0.00 0.94557 0.00
0 6 9 o 1.211 1.323 180.00 0.93865 0.03
3 5 -10 o 3.083 3.445 0.00 0.92978 0.07
6 3 -7 o 0.744 0.829 0.00 0.92935 0.02
4 2 -11 o 4.121 4.582 180.00 0.93089 0.09
6 1 2 o 2.066 2.504 180.00 0.94149 0.05
2 0 -12 o 3.195 3.441 180.00 0.93478 0.02
3 6 6 o 7.110 7.675 0.00 0.93456 0.21
4 6 4 o 0.461 0.506 180.00 0.93376 0.01
0 7 8 o 0.954 1.055 0.00 0.93356 0.02
2 9 -4 o 0.791 0.865 180.00 0.92582 0.02
2 4 -11 o 0.002 0.002 0.00 0.92902 0.00
5 2 -10 o 0.025 0.026 180.00 0.92523 0.00
5 6 -6 o 0.139 0.145 180.00 0.92187 0.00
2 9 2 o 0.554 0.657 180.00 0.92666 0.02
4 4 6 o 2.442 2.623 180.00 0.93565 0.07
2 1 -12 o 1.544 1.726 180.00 0.92984 0.02
3 5 7 o 0.008 0.009 0.00 0.93339 0.00
6 3 1 o 0.529 0.599 180.00 0.93275 0.01
2 0 10 o 0.558 0.586 180.00 0.93795 0.01
3 8 -6 o 0.007 0.008 180.00 0.91930 0.00
0 3 11 o 2.949 3.336 0.00 0.93268 0.05
4 2 7 o 0.480 0.514 180.00 0.93602 0.01
1 8 -7 o 3.253 3.376 0.00 0.92462 0.07
2 4 9 o 0.340 0.382 0.00 0.93184 0.01
4 8 -2 o 0.616 0.652 0.00 0.91936 0.02
5 6 1 o 0.164 0.171 180.00 0.92429 0.00
6 2 -8 o 7.349 7.775 0.00 0.92243 0.18
1 8 6 o 0.390 0.418 0.00 0.92553 0.01
2 1 10 o 0.004 0.004 0.00 0.93296 0.00
6 4 -6 o 2.980 3.141 180.00 0.91981 0.08
1 4 -11 o 1.058 1.101 0.00 0.92468 0.01
4 8 -3 o 0.027 0.027 0.00 0.91577 0.00
1 0 -12 o 14.757 17.691 0.00 0.92700 0.09
3 7 -8 o 0.156 0.143 180.00 0.91650 0.00
0 5 10 o 0.924 1.095 0.00 0.92682 0.02
4 8 -1 o 5.543 5.196 180.00 0.91631 0.14
5 2 5 o 8.558 9.547 0.00 0.93048 0.23
3 8 3 o 2.000 2.056 180.00 0.92115 0.06
6 4 0 o 0.046 0.048 180.00 0.92228 0.00
5 4 -9 o 5.708 5.697 180.00 0.91544 0.14
5 5 -8 o 0.010 0.009 180.00 0.91325 0.00
1 9 -5 o 0.000 0.000 0.00 0.91765 0.00
6 2 2 o 0.001 0.001 0.00 0.92659 0.00
2 8 -7 o 0.788 0.774 180.00 0.91575 0.02
3 0 -12 o 4.297 4.422 180.00 0.92074 0.04
1 4 10 o 1.906 2.143 0.00 0.92614 0.04
1 1 -12 o 0.433 0.455 180.00 0.92218 0.01
1 9 4 o 3.132 3.025 180.00 0.91826 0.09
3 7 5 o 2.303 2.394 0.00 0.91915 0.07
1 1 11 o 0.111 0.117 0.00 0.92377 0.00
3 1 -12 o 5.613 5.390 180.00 0.91602 0.10
2 8 5 o 0.000 0.000 180.00 0.91737 0.00
5 4 4 o 2.610 2.724 0.00 0.91984 0.07
2 2 -12 o 10.098 9.956 0.00 0.91548 0.14
3 4 -11 o 0.923 0.877 180.00 0.91202 0.02
5 5 3 o 0.928 0.841 180.00 0.91694 0.02
4 7 -7 o 7.068 7.187 0.00 0.90588 0.16
4 8 -4 o 1.309 1.323 0.00 0.90577 0.03
6 5 -3 o 0.169 0.169 0.00 0.90865 0.00
3 9 -1 o 0.079 0.082 0.00 0.90683 0.00
3 9 -2 o 5.932 6.169 180.00 0.90664 0.14
3 1 9 o 1.689 1.749 180.00 0.92030 0.04
4 3 -11 o 3.051 3.137 180.00 0.90723 0.06
0 9 5 o 1.230 1.172 180.00 0.91196 0.03
4 8 0 o 5.279 5.478 0.00 0.90681 0.13
2 2 10 o 2.635 2.596 0.00 0.91846 0.05
0 8 7 o 0.159 0.149 180.00 0.91235 0.00
3 4 8 o 0.282 0.273 180.00 0.91584 0.01
4 7 3 o 0.450 0.451 0.00 0.90850 0.01
6 5 -4 o 0.188 0.186 180.00 0.90505 0.00
2 9 -5 o 0.236 0.257 0.00 0.90271 0.01
6 5 -2 o 7.564 7.671 0.00 0.90583 0.18
5 7 -2 o 0.826 0.873 180.00 0.90220 0.02
5 3 -10 o 0.308 0.318 180.00 0.90199 0.01
5 7 -3 o 0.096 0.098 0.00 0.90188 0.00
3 9 -3 o 0.743 0.676 0.00 0.90011 0.02
0 10 0 o 0.843 0.850 180.00 0.90565 0.01
3 9 0 o 0.359 0.328 0.00 0.90068 0.01
2 9 3 o 0.956 0.991 0.00 0.90375 0.03
4 3 7 o 0.084 0.081 180.00 0.91199 0.00
1 2 -12 o 0.036 0.037 180.00 0.90816 0.00
3 2 -12 o 2.917 3.080 180.00 0.90228 0.05
6 3 -8 o 4.975 4.645 180.00 0.89940 0.11
0 10 1 o 2.936 3.133 0.00 0.90248 0.07
1 2 11 o 1.130 1.188 0.00 0.90968 0.02
5 6 -7 o 2.635 2.682 0.00 0.89575 0.06
6 4 -7 o 8.974 8.834 0.00 0.89689 0.21
5 7 -4 o 6.697 6.762 0.00 0.89533 0.16
6 1 -9 o 2.291 2.097 0.00 0.90011 0.05
6 5 -5 o 0.023 0.023 0.00 0.89527 0.00
2 6 -10 o 7.658 7.263 0.00 0.89844 0.13
5 7 -1 o 0.246 0.248 0.00 0.89627 0.01
5 3 5 o 0.007 0.007 0.00 0.90686 0.00
5 6 2 o 5.102 4.835 0.00 0.89860 0.12
6 5 -1 o 0.410 0.405 180.00 0.89678 0.01
6 4 1 o 0.005 0.005 180.00 0.89994 0.00
4 8 -5 o 2.079 1.985 0.00 0.88996 0.04
6 3 2 o 0.325 0.344 180.00 0.90326 0.01
1 6 -10 o 2.915 2.804 180.00 0.89754 0.04
2 7 -9 o 2.125 2.066 0.00 0.89410 0.04
1 10 0 o 0.277 0.281 180.00 0.89570 0.01
1 10 -1 o 0.635 0.643 180.00 0.89564 0.01
2 6 8 o 0.062 0.057 180.00 0.90074 0.00
3 2 9 o 0.108 0.111 0.00 0.90637 0.00
1 7 -9 o 2.863 2.879 180.00 0.89623 0.05
7 0 -4 o 8.225 7.713 0.00 0.89932 0.09
6 1 3 o 2.755 2.754 180.00 0.90476 0.06
1 6 9 o 0.022 0.021 180.00 0.89875 0.00
4 8 1 o 0.724 0.725 180.00 0.89145 0.02
4 5 -10 o 0.898 0.863 0.00 0.88973 0.02
4 6 -9 o 0.026 0.027 180.00 0.88814 0.00
0 4 11 o 1.640 1.518 0.00 0.89988 0.03
2 7 7 o 3.090 3.107 180.00 0.89611 0.08
3 9 -4 o 3.815 3.914 0.00 0.88765 0.08
3 8 -7 o 0.974 0.993 0.00 0.88745 0.02
1 7 8 o 4.708 4.561 180.00 0.89731 0.10
0 0 12 o 2.471 2.334 180.00 0.89894 0.02
7 1 -4 o 0.049 0.048 180.00 0.89492 0.00
0 10 2 o 0.792 0.778 0.00 0.89315 0.02
2 3 -12 o 0.191 0.189 180.00 0.89295 0.00
1 10 -2 o 5.477 5.298 0.00 0.88947 0.12
3 9 1 o 0.014 0.014 0.00 0.88857 0.00
7 1 -3 o 1.209 1.212 0.00 0.89536 0.03
1 10 1 o 4.523 4.353 0.00 0.88965 0.10
5 7 -5 o 0.816 0.684 180.00 0.88294 0.02
6 2 -9 o 6.843 6.707 180.00 0.88707 0.14
4 5 6 o 2.085 2.029 180.00 0.89371 0.05
4 6 5 o 1.942 1.950 180.00 0.89161 0.05
2 5 -11 o 0.038 0.038 180.00 0.88792 0.00
3 8 4 o 0.053 0.052 180.00 0.88948 0.00
0 1 12 o 0.008 0.008 0.00 0.89454 0.00
5 1 -11 o 11.320 11.362 180.00 0.88737 0.22
7 0 -2 o 5.318 5.183 180.00 0.89401 0.06
2 3 10 o 2.222 2.231 0.00 0.89572 0.04
5 7 0 o 0.841 0.626 0.00 0.88445 0.02
1 9 -6 o 2.227 1.854 0.00 0.88608 0.04
4 0 -12 o 4.749 4.797 180.00 0.88763 0.04
1 9 5 o 0.055 0.051 180.00 0.88676 0.00
7 1 -5 o 0.207 0.206 0.00 0.88839 0.00
6 5 -6 o 2.130 1.909 0.00 0.87988 0.05
7 1 -2 o 3.386 3.259 0.00 0.88968 0.07
5 0 6 o 2.704 2.643 180.00 0.89699 0.03
3 6 -10 o 1.762 1.586 180.00 0.88015 0.03
4 1 -12 o 3.442 2.783 0.00 0.88340 0.06
2 5 9 o 0.190 0.182 0.00 0.89039 0.00
1 3 -12 o 1.699 1.438 180.00 0.88616 0.02
6 2 3 o 0.930 0.926 0.00 0.89151 0.02
1 5 -11 o 0.194 0.148 0.00 0.88414 0.00
5 1 6 o 0.725 0.723 180.00 0.89262 0.02
5 5 -9 o 2.098 1.843 0.00 0.87604 0.04
3 3 -12 o 3.721 3.312 180.00 0.88069 0.06
1 3 11 o 0.624 0.618 180.00 0.88757 0.01
1 8 -8 o 0.743 0.665 0.00 0.88039 0.01
7 2 -4 o 2.086 1.802 180.00 0.88209 0.04
6 5 0 o 4.320 3.737 180.00 0.88204 0.09
4 4 -11 o 0.581 0.513 180.00 0.87695 0.01
1 5 10 o 0.721 0.558 0.00 0.88541 0.01
4 0 8 o 6.410 6.396 180.00 0.89258 0.07
1 10 -3 o 0.977 0.839 0.00 0.87756 0.02
7 2 -3 o 0.906 0.773 0.00 0.88251 0.02
2 8 -8 o 3.755 3.209 180.00 0.87553 0.07
4 7 -8 o 2.624 2.255 0.00 0.87243 0.05
2 9 -6 o 2.675 2.273 0.00 0.87542 0.05
3 7 -9 o 7.095 6.311 180.00 0.87326 0.13
3 6 7 o 0.030 0.025 0.00 0.88322 0.00
1 10 2 o 0.184 0.156 0.00 0.87785 0.00
1 8 7 o 3.701 3.235 180.00 0.88129 0.08
4 1 8 o 0.002 0.002 180.00 0.88828 0.00
5 4 -10 o 8.543 7.144 0.00 0.87222 0.17
7 0 -6 o 0.101 0.090 0.00 0.88029 0.00
2 9 4 o 5.249 4.641 180.00 0.87660 0.13
0 10 3 o 3.715 3.127 180.00 0.87823 0.08
5 2 -11 o 2.089 1.740 0.00 0.87486 0.04
4 8 -6 o 4.151 3.258 180.00 0.86926 0.08
2 8 6 o 0.449 0.391 0.00 0.87718 0.01
3 3 9 o 0.277 0.211 0.00 0.88449 0.01
3 9 -5 o 0.129 0.099 180.00 0.86997 0.00
3 5 -11 o 14.954 13.274 0.00 0.87305 0.25
6 4 -8 o 0.186 0.144 0.00 0.86988 0.00
5 5 4 o 10.051 8.926 180.00 0.87990 0.22
0 9 6 o 0.995 0.840 0.00 0.87810 0.02
0 2 12 o 0.781 0.677 0.00 0.88173 0.01
7 1 -6 o 0.000 0.000 180.00 0.87616 0.00
7 2 -5 o 0.004 0.003 180.00 0.87584 0.00
4 4 7 o 1.248 1.091 0.00 0.88125 0.03
0 7 9 o 0.234 0.203 180.00 0.87926 0.00
2 10 -1 o 3.174 2.412 180.00 0.87042 0.06
7 2 -2 o 0.006 0.005 180.00 0.87708 0.00
4 7 4 o 1.943 1.641 0.00 0.87524 0.05
3 9 2 o 0.161 0.122 180.00 0.87119 0.00
4 8 2 o 0.021 0.016 0.00 0.87111 0.00
4 2 -12 o 2.487 1.886 180.00 0.87105 0.04
3 7 6 o 3.805 3.305 180.00 0.87590 0.09
5 6 -8 o 3.659 3.382 180.00 0.86609 0.07
0 6 10 o 0.756 0.648 0.00 0.87764 0.01
5 7 -6 o 3.456 3.160 180.00 0.86543 0.07
3 5 8 o 3.366 2.955 0.00 0.87639 0.07
7 1 -1 o 0.502 0.424 180.00 0.87824 0.01
2 10 0 o 0.962 0.802 0.00 0.86771 0.02
5 2 6 o 0.610 0.539 180.00 0.87990 0.01
2 10 -2 o 5.893 4.971 180.00 0.86748 0.12
6 3 -9 o 2.369 2.130 0.00 0.86653 0.05
5 4 5 o 1.404 1.234 180.00 0.87662 0.03
5 7 1 o 4.818 4.075 0.00 0.86742 0.10
6 4 2 o 8.198 7.172 0.00 0.87336 0.17
5 6 3 o 0.916 0.722 180.00 0.86925 0.02
4 2 8 o 0.639 0.551 0.00 0.87573 0.01
6 0 -10 o 28.428 25.716 180.00 0.86554 0.26
6 6 -3 o 0.182 0.134 0.00 0.86217 0.00
6 5 -7 o 3.482 2.870 180.00 0.85974 0.07
7 2 -6 o 1.511 1.143 180.00 0.86412 0.03
2 4 -12 o 0.498 0.373 0.00 0.86404 0.01
6 6 -4 o 1.122 0.915 0.00 0.85909 0.02
0 8 8 o 2.138 1.849 180.00 0.86702 0.04
6 3 3 o 3.032 2.324 0.00 0.87067 0.06
6 1 -10 o 2.179 1.704 0.00 0.86161 0.04
6 6 -2 o 0.711 0.586 180.00 0.85976 0.01
2 10 -3 o 1.136 0.926 0.00 0.85908 0.02
1 10 -4 o 0.936 0.773 180.00 0.86058 0.02
7 3 -4 o 0.315 0.240 180.00 0.86189 0.01
2 10 1 o 0.004 0.003 0.00 0.85952 0.00
1 10 3 o 4.750 3.880 180.00 0.86097 0.10
7 2 -1 o 5.141 4.628 0.00 0.86611 0.10
6 5 1 o 0.241 0.175 0.00 0.86243 0.00
7 3 -3 o 0.161 0.118 180.00 0.86228 0.00
2 4 10 o 0.324 0.287 180.00 0.86654 0.01
6 0 4 o 7.692 5.947 0.00 0.87036 0.08
7 1 -7 o 2.157 1.752 0.00 0.85893 0.04
5 3 -11 o 1.337 1.244 180.00 0.85514 0.02
3 8 -8 o 1.432 1.238 0.00 0.85330 0.02
2 1 -13 o 2.401 1.962 180.00 0.85920 0.03
6 1 4 o 0.221 0.196 0.00 0.86637 0.00
0 5 11 o 3.404 2.485 180.00 0.86238 0.05
0 10 4 o 3.989 3.210 180.00 0.85854 0.08
7 0 0 o 5.073 4.506 0.00 0.86560 0.05
0 3 12 o 0.983 0.771 180.00 0.86155 0.01
1 4 -12 o 0.702 0.567 0.00 0.85788 0.01
7 3 -5 o 3.057 2.858 180.00 0.85605 0.06
6 6 -5 o 0.367 0.308 180.00 0.85071 0.01
7 3 -2 o 0.184 0.155 0.00 0.85721 0.00
3 8 5 o 2.556 2.387 180.00 0.85544 0.06
4 3 -12 o 1.031 0.806 0.00 0.85158 0.02
3 4 -12 o 8.626 7.334 0.00 0.85291 0.13
7 1 0 o 0.002 0.002 180.00 0.86167 0.00
3 9 -6 o 2.056 1.807 180.00 0.84802 0.04
1 4 11 o 0.304 0.248 0.00 0.85916 0.00
1 9 -7 o 0.147 0.118 0.00 0.85220 0.00
6 6 -1 o 0.041 0.032 180.00 0.85201 0.00
6 2 -10 o 0.557 0.484 0.00 0.85015 0.01
4 9 -2 o 4.062 3.569 180.00 0.84807 0.08
2 1 11 o 0.413 0.315 180.00 0.86189 0.01
5 3 6 o 3.247 2.669 180.00 0.85984 0.07
4 9 -3 o 1.699 1.614 0.00 0.84525 0.03
1 9 6 o 1.264 1.073 0.00 0.85290 0.03
3 9 3 o 3.381 2.978 180.00 0.84947 0.07
4 8 -7 o 0.686 0.619 180.00 0.84471 0.01
3 1 -13 o 1.629 1.350 180.00 0.85084 0.02
4 6 -10 o 17.763 17.643 0.00 0.84595 0.30
4 9 -1 o 0.030 0.029 180.00 0.84567 0.00
2 10 -4 o 0.353 0.345 0.00 0.84567 0.01
5 7 -7 o 2.869 2.275 180.00 0.84371 0.05
3 0 10 o 5.559 4.504 0.00 0.85843 0.05
3 4 9 o 2.780 2.521 180.00 0.85636 0.05
7 2 -7 o 0.254 0.227 180.00 0.84757 0.00
4 3 8 o 0.216 0.199 0.00 0.85595 0.00
1 0 12 o 17.229 15.959 0.00 0.85569 0.12
4 8 3 o 0.143 0.136 180.00 0.84683 0.00
2 9 -7 o 7.854 7.428 180.00 0.84523 0.13
2 10 2 o 0.190 0.187 180.00 0.84630 0.00
5 8 -3 o 0.092 0.074 180.00 0.84146 0.00
2 7 -10 o 0.060 0.059 180.00 0.84595 0.00
6 2 4 o 0.118 0.107 180.00 0.85471 0.00
1 1 -13 o 0.428 0.363 0.00 0.85054 0.00
4 5 -11 o 0.000 0.000 0.00 0.84214 0.00
7 3 -6 o 8.193 7.638 0.00 0.84510 0.15
5 8 -2 o 0.005 0.004 180.00 0.84173 0.00
2 9 5 o 4.818 4.680 0.00 0.84651 0.10
2 2 -13 o 0.352 0.312 180.00 0.84783 0.00
5 7 2 o 0.502 0.494 180.00 0.84609 0.01
2 6 -11 o 1.081 0.940 0.00 0.84440 0.01
4 6 6 o 6.528 5.746 0.00 0.84937 0.14
3 1 10 o 7.043 6.334 0.00 0.85459 0.12
1 7 -10 o 0.076 0.071 0.00 0.84521 0.00
7 2 0 o 0.247 0.214 0.00 0.85020 0.00
6 4 -9 o 1.411 1.121 180.00 0.84003 0.02
1 1 12 o 0.066 0.053 180.00 0.85190 0.00
2 7 8 o 1.097 0.973 180.00 0.84787 0.02
5 5 -10 o 0.000 0.000 180.00 0.83794 0.00
6 6 -6 o 3.117 2.850 180.00 0.83748 0.06
4 9 -4 o 3.688 3.368 0.00 0.83737 0.06
4 7 -9 o 1.442 1.314 180.00 0.83734 0.02
7 3 -1 o 0.615 0.577 0.00 0.84696 0.01
2 2 11 o 4.713 4.026 0.00 0.85041 0.07
2 6 9 o 0.037 0.036 180.00 0.84652 0.00
4 9 0 o 7.618 6.718 0.00 0.83819 0.14
5 0 -12 o 7.832 6.341 0.00 0.84116 0.06
1 7 9 o 0.289 0.281 180.00 0.84621 0.00
5 8 -4 o 0.043 0.033 180.00 0.83613 0.00
6 5 -8 o 1.088 0.813 0.00 0.83587 0.02
5 8 -1 o 0.028 0.024 0.00 0.83690 0.00
7 0 -8 o 11.551 9.352 0.00 0.84119 0.10
1 6 -11 o 0.001 0.000 0.00 0.84114 0.00
1 10 -5 o 2.480 1.999 180.00 0.83942 0.04
6 6 0 o 0.588 0.476 0.00 0.83934 0.01
0 9 7 o 4.900 3.780 0.00 0.84256 0.09
4 5 7 o 1.076 1.041 0.00 0.84594 0.02
5 6 -9 o 0.006 0.005 0.00 0.83417 0.00
6 4 3 o 0.241 0.196 180.00 0.84380 0.00
1 10 4 o 0.542 0.433 0.00 0.83989 0.01
3 2 -13 o 1.110 0.888 0.00 0.83980 0.01
5 1 -12 o 0.912 0.827 0.00 0.83755 0.01
1 6 10 o 1.383 1.086 180.00 0.84224 0.02
4 7 5 o 0.841 0.674 180.00 0.84024 0.02
1 8 -9 o 0.309 0.267 180.00 0.83687 0.00
2 8 -9 o 8.315 6.224 180.00 0.83513 0.12
5 5 5 o 0.771 0.616 0.00 0.84184 0.01
7 4 -3 o 0.264 0.206 0.00 0.83616 0.00
7 1 -8 o 3.904 3.525 180.00 0.83758 0.07
7 4 -4 o 0.082 0.062 180.00 0.83580 0.00
6 5 2 o 2.750 2.283 0.00 0.83896 0.05
6 3 -10 o 0.158 0.172 0.00 0.83202 0.00
3 2 10 o 1.096 0.869 180.00 0.84340 0.02
1 2 -13 o 0.021 0.017 180.00 0.83951 0.00
1 8 8 o 0.967 0.865 0.00 0.83775 0.02
3 10 -1 o 0.201 0.250 0.00 0.83112 0.00
5 6 4 o 0.042 0.038 0.00 0.83750 0.00
3 10 -2 o 1.654 2.113 180.00 0.83097 0.03
1 2 12 o 2.049 1.659 180.00 0.84081 0.03
3 7 -10 o 0.003 0.004 180.00 0.83064 0.00
2 8 7 o 0.588 0.500 0.00 0.83677 0.01
0 10 5 o 0.089 0.068 180.00 0.83506 0.00
3 6 -11 o 1.024 1.184 180.00 0.83158 0.01
5 4 -11 o 0.000 0.000 180.00 0.82964 0.00
5 8 -5 o 0.186 0.221 180.00 0.82602 0.00
7 4 -5 o 1.224 1.717 180.00 0.83047 0.02
7 1 1 o 2.929 2.372 180.00 0.84085 0.05
5 1 7 o 1.815 1.421 180.00 0.84249 0.03
7 3 -7 o 0.139 0.217 180.00 0.82960 0.00
2 10 -5 o 0.024 0.035 0.00 0.82794 0.00
4 9 -5 o 0.867 1.018 180.00 0.82483 0.01
2 5 -12 o 0.422 0.565 180.00 0.83068 0.00
3 10 -3 o 1.373 1.626 180.00 0.82593 0.02
0 4 12 o 2.325 1.767 180.00 0.83550 0.03
7 4 -2 o 1.109 1.285 0.00 0.83153 0.02
3 7 7 o 2.432 2.124 0.00 0.83321 0.05
4 4 -12 o 4.768 5.880 180.00 0.82639 0.07
3 10 0 o 6.098 7.509 0.00 0.82638 0.11
6 3 4 o 0.190 0.152 180.00 0.83629 0.00
3 6 8 o 1.674 1.304 180.00 0.83447 0.03
5 8 0 o 3.445 4.558 180.00 0.82726 0.06
2 10 3 o 0.431 0.699 180.00 0.82874 0.01
5 2 -12 o 1.315 1.701 180.00 0.82701 0.02
2 3 -13 o 0.323 0.488 0.00 0.82985 0.00
4 9 1 o 0.057 0.068 0.00 0.82602 0.00
3 9 -7 o 0.308 0.517 0.00 0.82283 0.00
7 2 -8 o 0.054 0.070 180.00 0.82704 0.00
5 4 6 o 0.090 0.073 180.00 0.83393 0.00
7 3 0 o 3.088 3.312 180.00 0.83207 0.05
4 1 -13 o 0.669 0.856 0.00 0.82688 0.01
2 5 10 o 0.319 0.295 180.00 0.83291 0.00
2 3 11 o 0.001 0.001 180.00 0.83226 0.00
5 7 -8 o 2.659 3.960 0.00 0.81879 0.04
6 6 -7 o 0.031 0.054 180.00 0.82006 0.00
3 9 4 o 2.264 2.878 0.00 0.82445 0.05
6 1 -11 o 0.731 1.217 180.00 0.82283 0.01
1 5 -12 o 1.271 1.492 0.00 0.82521 0.01
4 8 -8 o 1.398 1.846 180.00 0.81739 0.02
4 4 8 o 2.769 3.829 0.00 0.83038 0.05
0 7 10 o 0.007 0.011 180.00 0.82852 0.00
7 2 1 o 1.542 2.199 180.00 0.83019 0.03
5 2 7 o 0.069 0.077 180.00 0.83176 0.00
3 8 -9 o 2.448 3.385 0.00 0.81807 0.04
3 5 -12 o 0.000 0.000 180.00 0.82078 0.00
3 3 -13 o 1.332 2.268 180.00 0.82231 0.02
7 4 -6 o 0.050 0.090 180.00 0.82046 0.00
1 5 11 o 1.891 2.338 0.00 0.82634 0.02
3 10 -4 o 8.079 9.497 0.00 0.81627 0.12
6 6 1 o 0.514 0.869 0.00 0.82239 0.01
4 1 9 o 2.915 3.471 180.00 0.83128 0.05
7 4 -1 o 0.386 0.661 180.00 0.82216 0.01
3 10 1 o 0.135 0.172 180.00 0.81699 0.00
5 7 3 o 0.635 1.160 180.00 0.82145 0.01
4 8 4 o 0.339 0.575 180.00 0.81970 0.01
0 8 9 o 2.700 4.399 0.00 0.82300 0.04
0 1 13 o 0.742 0.917 0.00 0.82633 0.01
0 11 1 o 0.898 1.646 180.00 0.82093 0.01
1 3 -13 o 0.012 0.021 0.00 0.82204 0.00
6 7 -3 o 0.146 0.166 0.00 0.81547 0.00
3 8 6 o 0.213 0.373 0.00 0.82024 0.00
4 2 -13 o 0.079 0.098 180.00 0.81673 0.00
5 8 -6 o 0.512 0.848 0.00 0.81163 0.01
6 7 -4 o 0.278 0.469 180.00 0.81287 0.00
1 11 0 o 0.005 0.006 180.00 0.81582 0.00
1 11 -1 o 0.773 0.882 0.00 0.81578 0.01
0 6 11 o 0.013 0.022 0.00 0.82234 0.00
1 9 -8 o 1.642 2.135 180.00 0.81719 0.02
3 5 9 o 0.088 0.127 180.00 0.82386 0.00
3 3 10 o 0.142 0.170 0.00 0.82569 0.00
6 1 5 o 0.037 0.050 0.00 0.82757 0.00
1 10 -6 o 0.312 0.371 0.00 0.81506 0.00
6 7 -2 o 0.533 0.859 180.00 0.81343 0.01
2 9 -8 o 0.000 0.000 0.00 0.81330 0.00
1 3 12 o 0.144 0.228 180.00 0.82326 0.00
1 9 7 o 0.604 0.829 0.00 0.81791 0.01
5 8 1 o 4.809 7.857 0.00 0.81327 0.08
6 2 -11 o 0.535 0.899 0.00 0.81283 0.01
1 10 5 o 8.347 9.581 0.00 0.81558 0.15
7 1 -9 o 1.469 2.423 180.00 0.81309 0.02
2 9 6 o 0.378 0.487 0.00 0.81463 0.01
0 11 2 o 0.133 0.199 0.00 0.81389 0.00
4 2 9 o 0.220 0.393 0.00 0.82097 0.00
7 0 2 o 3.126 5.337 180.00 0.82009 0.02
0 2 13 o 0.005 0.006 0.00 0.81620 0.00
6 5 3 o 0.056 0.093 0.00 0.81265 0.00
6 2 5 o 1.031 1.366 180.00 0.81739 0.02
7 3 1 o 0.755 1.209 0.00 0.81328 0.01
7 1 2 o 1.580 1.986 0.00 0.81675 0.02
5 3 7 o 0.570 0.723 0.00 0.81476 0.01
6 4 4 o 1.075 1.783 180.00 0.81240 0.02
