#------------------------------------------------------------------------------
#$Date: 2021-09-22 04:47:00 +0300 (Wed, 22 Sep 2021) $
#$Revision: 269240 $
#$URL: file:///home/coder/svn-repositories/cod/cif/2/10/88/2108886.cif $
#------------------------------------------------------------------------------
#
# This file is available in the Crystallography Open Database (COD),
# http://www.crystallography.net/. The original data for this entry
# were provided by IUCr Journals, http://journals.iucr.org/.
#
# The file may be used within the scientific community so long as
# proper attribution is given to the journal article from which the
# data were obtained.
#
data_2108886
loop_
_publ_author_name
'Novelli, Giulia'
'McMonagle, Charles J.'
'Kleemiss, Florian'
'Probert, Michael'
'Puschmann, Horst'
'Grabowsky, Simon'
'Maynard-Casely, Helen E.'
'McIntyre, Garry J.'
'Parsons, Simon'
_publ_section_title
;
 Accurate H-atom parameters for the two polymorphs of
 <small>L</small>-histidine at 5, 105 and 295K
;
_journal_issue                   5
_journal_name_full               'Acta Crystallographica Section B'
_journal_page_first
;
;
_journal_paper_doi               10.1107/S205252062100740X
_journal_volume                  77
_journal_year                    2021
_chemical_absolute_configuration syn
_chemical_formula_moiety         'C6 H9 N3 O2'
_chemical_formula_sum            'C6 H9 N3 O2'
_chemical_formula_weight         155.157
_space_group_crystal_system      orthorhombic
_space_group_IT_number           19
_space_group_name_Hall           'P 2ac 2ab'
_space_group_name_H-M_alt        'P 21 21 21'
_symmetry_Int_Tables_number      19
_audit_creation_date             2021-01-31
_audit_creation_method
;
Olex2 1.3
(compiled 2020.11.12 svn.r5f609507 for OlexSys, GUI svn.r6226)
;
_cell_angle_alpha                90
_cell_angle_beta                 90
_cell_angle_gamma                90
_cell_formula_units_Z            4
_cell_length_a                   5.1521(1)
_cell_length_b                   7.2228(2)
_cell_length_c                   18.8440(6)
_cell_measurement_reflns_used    6123
_cell_measurement_temperature    105
_cell_measurement_theta_max      36.01
_cell_measurement_theta_min      3.02
_cell_volume                     701.23(3)
_computing_cell_refinement       'SAINT V8.38A (?, 2016)'
_computing_data_reduction        'SAINT V8.38A (?, 2016)'
_computing_molecular_graphics    'Olex2 (Dolomanov et al., 2009)'
_computing_publication_material  'Olex2 (Dolomanov et al., 2009)'
_computing_structure_refinement  'ShelXL (Sheldrick, 2015)'
_computing_structure_solution    'ShelXT (Sheldrick, 2015)'
_diffrn_ambient_temperature      105
_diffrn_measured_fraction_theta_full 0.9578
_diffrn_measured_fraction_theta_max 0.8496
_diffrn_measurement_device       'XIPHOS four-circle diffractometer'
_diffrn_measurement_device_type  'Bruker APEX-II CCD'
_diffrn_measurement_method       '\f scans'
_diffrn_radiation_collimation    focused
_diffrn_radiation_monochromator  'multilayer optics'
_diffrn_radiation_probe          x-ray
_diffrn_radiation_type           'Mo K\a'
_diffrn_radiation_wavelength     0.71073
_diffrn_reflns_av_R_equivalents  0.0303
_diffrn_reflns_av_unetI/netI     0.0280
_diffrn_reflns_Laue_measured_fraction_full 0.9578
_diffrn_reflns_Laue_measured_fraction_max 0.8496
_diffrn_reflns_limit_h_max       8
_diffrn_reflns_limit_h_min       -8
_diffrn_reflns_limit_k_max       10
_diffrn_reflns_limit_k_min       -10
_diffrn_reflns_limit_l_max       28
_diffrn_reflns_limit_l_min       -28
_diffrn_reflns_number            13793
_diffrn_reflns_point_group_measured_fraction_full 0.9686
_diffrn_reflns_point_group_measured_fraction_max 0.8648
_diffrn_reflns_theta_full        25.2417
_diffrn_reflns_theta_max         36.32
_diffrn_reflns_theta_min         3.02
_diffrn_source                   'rotating anode'
_diffrn_source_target            Mo
_diffrn_source_type              'Bruker TXS with Helios Optics'
_exptl_absorpt_coefficient_mu    0.113
_exptl_absorpt_correction_T_max  0.7471
_exptl_absorpt_correction_T_min  0.6866
_exptl_absorpt_correction_type   multi-scan
_exptl_absorpt_process_details
;
 SADABS 2016/2: Krause, L., Herbst-Irmer, R., Sheldrick G.M. & Stalke D.,
 J. Appl. Cryst. 48 (2015) 3-10
;
_exptl_crystal_colour            colourless
_exptl_crystal_density_diffrn    1.470
_exptl_crystal_description       needle
_exptl_crystal_F_000             328.072
_exptl_crystal_size_max          0.2
_exptl_crystal_size_mid          0.1
_exptl_crystal_size_min          0.1
_refine_diff_density_max         0.1671
_refine_diff_density_min         -0.1507
_refine_diff_density_rms         0.0390
_refine_ls_abs_structure_details
'Flack, H. D. (1983). Acta Cryst. A39, 876-881.'
_refine_ls_abs_structure_Flack   0.4(8)
_refine_ls_d_res_high            0.5999
_refine_ls_d_res_low             6.7443
_refine_ls_goodness_of_fit_ref   1.1223
_refine_ls_hydrogen_treatment    refall
_refine_ls_matrix_type           full
_refine_ls_number_constraints    0
_refine_ls_number_parameters     181
_refine_ls_number_reflns         2942
_refine_ls_number_restraints     99
_refine_ls_restrained_S_all      1.1027
_refine_ls_R_factor_all          0.0274
_refine_ls_R_factor_gt           0.0226
_refine_ls_shift/su_max          0.0001
_refine_ls_shift/su_mean         0.0000
_refine_ls_structure_factor_coef Fsqd
_refine_ls_weighting_details
'w=1/[\s^2^(Fo^2^)+(0.0119P)^2^] where P=(Fo^2^+2Fc^2^)/3'
_refine_ls_weighting_scheme      calc
_refine_ls_wR_factor_gt          0.0365
_refine_ls_wR_factor_ref         0.0375
_reflns_Friedel_coverage         0.886
_reflns_limit_h_max              8
_reflns_limit_h_min              -8
_reflns_limit_k_max              10
_reflns_limit_k_min              -10
_reflns_limit_l_max              28
_reflns_limit_l_min              -28
_reflns_number_gt                2706
_reflns_number_total             2942
_reflns_threshold_expression     I>=2u(I)
_iucr_refine_instructions_details
;
TITL ortho_105k_xray_0m_a.res in P2(1)2(1)2(1)
REM Old TITL Ortho_105K_xray_0m in P2(1)2(1)2(1)
REM SHELXT solution in P2(1)2(1)2(1)
REM R1 0.085, Rweak 0.023, Alpha 0.001, Orientation as input
REM Flack x = -0.432 ( 0.398 ) from Parsons' quotients
REM Formula found by SHELXT: C7 N2 O2
CELL 0.71073 5.1521 7.2228 18.844 90 90 90
ZERR 4 0.0001 0.0002 0.0006 0 0 0
LATT -1
SYMM 0.5-X,-Y,0.5+Z
SYMM -X,0.5+Y,0.5-Z
SYMM 0.5+X,0.5-Y,-Z
SFAC C H N O
DISP C 0.0021 0.0016 11.5003
DISP H 0 0 0.624
DISP N 0.0041 0.0033 19.5955
DISP O 0.0079 0.0061 32.4922
UNIT 24 36 12 8
EQIV $1 1+X,+Y,+Z
EQIV $2 1-X,-0.5+Y,0.5-Z
EQIV $3 1.5-X,1-Y,0.5+Z
RIGU H5 H3 H6 C4 N2 C5 N3 C6
RIGU H1A H1B H1C N1
RIGU H3A C3 H3B C2 H2

L.S. 99
PLAN  1
TEMP -168.15
CONF
HTAB N1 O2_$1
HTAB N1 O2_$2
HTAB N1 N2
HTAB N3 O1_$3
BOND $H
MORE -1
fmap 2 53
acta 
LIST -6
OMIT 4 0 2
OMIT 0 0 12
OMIT 0 1 4
WGHT 0.011871 0
FVAR 0.703527
REM <olex2.extras>
REM <HklSrc "%.\\HOTX22.hkl">
REM </olex2.extras>

O2    4     0.32475  0.49818  0.24021  11.00000  0.00938  0.01679  0.01336 =
 0.00446 -0.00125  0.00099 
O1    4     0.73091  0.49455  0.19763  11.00000  0.01111  0.02348  0.00724 =
 0.00319 -0.00005 -0.00111 
N1    3     0.91616  0.31391  0.31181  11.00000  0.01021  0.01092  0.00881 =
 -0.00024  0.00013  0.00160 
H1B   2     1.03429  0.37495  0.27704  11.00000  0.00932  0.02818  0.02173 =
 0.01274  0.00280  0.00731 
H1A   2     1.00733  0.31283  0.35972  11.00000  0.01311  0.01783  0.01624 =
 0.00217 -0.00406  0.00014 
H1C   2     0.87252  0.18428  0.29526  11.00000  0.02971  0.01494  0.02522 =
 -0.00739 -0.00159 -0.00387 
N3    3     0.87041  0.50257  0.55335  11.00000  0.01415  0.01431  0.00722 =
 -0.00025  0.00018 -0.00054 
H3    2     0.84940  0.50624  0.60678  11.00000  0.04462  0.02511  0.00688 =
 0.00436  0.00348  0.01173 
N2    3     1.03224  0.43944  0.44706  11.00000  0.01215  0.01528  0.00827 =
 -0.00037 -0.00046  0.00333 
C4    1     0.80387  0.53942  0.43892  11.00000  0.01187  0.01028  0.00773 =
 -0.00048 -0.00122  0.00147 
C1    1     0.56511  0.47258  0.24558  11.00000  0.00919  0.01070  0.00786 =
 0.00048 -0.00100 -0.00063 
C2    1     0.66615  0.41601  0.31935  11.00000  0.00877  0.01011  0.00708 =
 0.00073 -0.00033 -0.00003 
H2    2     0.52570  0.32322  0.34267  11.00000  0.01611  0.01371  0.03631 =
 0.00777  0.00117  0.00103 
C6    1     0.70210  0.57890  0.50460  11.00000  0.01237  0.01293  0.00869 =
 -0.00168  0.00016  0.00133 
H6    2     0.53338  0.65508  0.51995  11.00000  0.02428  0.03126  0.02733 =
 -0.00339  0.00497  0.00889 
C5    1     1.06326  0.41995  0.51647  11.00000  0.01257  0.01560  0.00880 =
 0.00093 -0.00196  0.00114 
H5    2     1.21752  0.34759  0.54146  11.00000  0.02881  0.03953  0.02587 =
 0.00329 -0.00425  0.01430 
C3    1     0.70372  0.58790  0.36650  11.00000  0.01547  0.01038  0.00925 =
 -0.00081 -0.00243  0.00269 
H3B   2     0.52296  0.65431  0.37110  11.00000  0.02921  0.02280  0.03268 =
 -0.00245 -0.00495  0.01093 
H3A   2     0.83286  0.68493  0.34002  11.00000  0.03417  0.02247  0.02487 =
 0.00054  0.00375 -0.00730 
HKLF 4

END
Q1 1 0.791667 0.53125 0.525 11 0.05 0.17

  REM The information below was added by Olex2.
  REM
  REM R1 = 0.0226 for 2706 Fo > 4sig(Fo) and 0.0274 for all 2942 data
  REM 181 parameters refined using 99 restraints
  REM Highest difference peak 0.1671, deepest hole -0.1507
  REM Mean Shift 0.0000, Max Shift 0.0001.

  REM +++ Tabular Listing of Refinement Information +++
  REM R1_all = 0.0274
  REM R1_gt = 0.0226
  REM wR_ref = 0.0375
  REM GOOF = 1.1223
  REM Shift_max = 0.0001
  REM Shift_mean = 0.0000
  REM Reflections_all = 2942
  REM Reflections_gt = 2706
  REM Parameters = 181
  REM Hole = -0.1507
  REM Peak = 0.1671
  REM Flack = 0.4(8)

  
;
_cod_data_source_file            um5050sup1.cif
_cod_data_source_block           HOTX22
_cod_original_sg_symbol_Hall     ' P 2ac 2ab'
_cod_database_code               2108886
_shelx_shelxl_version_number     2017/1
_olex2_refinement_description
;
1. Rigid body (RIGU) restrains
 H5, H3, H6, C4, N2, C5, N3, C6
 with sigma for 1-2 distances of 0.004 and sigma for 1-3 distances of 0.004
 H1A, H1B, H1C, N1
 with sigma for 1-2 distances of 0.004 and sigma for 1-3 distances of 0.004
 H3A, C3, H3B, C2, H2
 with sigma for 1-2 distances of 0.004 and sigma for 1-3 distances of 0.004
;
_olex2_submission_special_instructions 'No special instructions were received'
loop_
_space_group_symop_id
_space_group_symop_operation_xyz
1 x,y,z
2 x+1/2,-y+1/2,-z
3 -x,y+1/2,-z+1/2
4 -x+1/2,-y,z+1/2
loop_
_atom_site_label
_atom_site_type_symbol
_atom_site_fract_x
_atom_site_fract_y
_atom_site_fract_z
_atom_site_U_iso_or_equiv
_atom_site_adp_type
_atom_site_occupancy
_atom_site_refinement_flags_posn
_atom_site_refinement_flags_adp
O2 O 0.32475(6) 0.49818(6) 0.240209(19) 0.01318(8) Uani 1.000000 . .
O1 O 0.73091(6) 0.49455(7) 0.197629(19) 0.01394(8) Uani 1.000000 . .
N1 N 0.91616(8) 0.31391(7) 0.31181(3) 0.00998(9) Uani 1.000000 . U
H1B H 1.0343(15) 0.3750(13) 0.2770(4) 0.020(2) Uani 1.000000 . U
H1A H 1.0073(14) 0.3128(12) 0.3597(5) 0.0157(19) Uani 1.000000 . U
H1C H 0.8725(17) 0.1843(14) 0.2953(5) 0.023(2) Uani 1.000000 . U
N3 N 0.87041(7) 0.50257(7) 0.55335(3) 0.01189(9) Uani 1.000000 . U
H3 H 0.8494(16) 0.5062(13) 0.6068(5) 0.026(2) Uani 1.000000 . U
N2 N 1.03224(8) 0.43944(7) 0.44706(2) 0.01190(9) Uani 1.000000 . U
C4 C 0.80387(9) 0.53942(7) 0.43892(3) 0.00996(9) Uani 1.000000 . U
C1 C 0.56511(8) 0.47258(8) 0.24558(3) 0.00925(9) Uani 1.000000 . .
C2 C 0.66615(8) 0.41601(8) 0.31935(3) 0.00865(9) Uani 1.000000 . U
H2 H 0.5257(14) 0.3232(11) 0.3427(4) 0.0220(19) Uani 1.000000 . U
C6 C 0.70210(9) 0.57890(9) 0.50460(3) 0.01133(10) Uani 1.000000 . U
H6 H 0.5334(15) 0.6551(11) 0.5199(4) 0.028(2) Uani 1.000000 . U
C5 C 1.06326(10) 0.41995(8) 0.51647(3) 0.01233(10) Uani 1.000000 . U
H5 H 1.2175(15) 0.3476(12) 0.5415(4) 0.031(2) Uani 1.000000 . U
C3 C 0.70372(10) 0.58790(9) 0.36650(3) 0.01170(10) Uani 1.000000 . U
H3B H 0.5230(16) 0.6543(11) 0.3711(4) 0.028(2) Uani 1.000000 . U
H3A H 0.8329(16) 0.6849(12) 0.3400(4) 0.027(2) Uani 1.000000 . U
loop_
_atom_site_aniso_label
_atom_site_aniso_U_11
_atom_site_aniso_U_22
_atom_site_aniso_U_33
_atom_site_aniso_U_12
_atom_site_aniso_U_13
_atom_site_aniso_U_23
O2 0.00938(12) 0.0168(2) 0.01336(19) 0.00099(16) -0.00125(12) 0.00446(16)
O1 0.01111(13) 0.0235(2) 0.00724(18) -0.00111(15) -0.00005(12) 0.00319(16)
N1 0.01021(15) 0.0109(3) 0.0088(2) 0.00160(17) 0.00013(15) -0.00024(16)
H1B 0.009(4) 0.028(5) 0.022(4) 0.007(2) 0.003(2) 0.013(2)
H1A 0.013(4) 0.018(5) 0.016(3) 0.000(3) -0.0041(17) 0.0022(19)
H1C 0.030(5) 0.015(4) 0.025(5) -0.004(2) -0.002(3) -0.007(2)
N3 0.01415(15) 0.0143(2) 0.0072(2) -0.00054(17) 0.00018(14) -0.00025(17)
H3 0.045(5) 0.025(6) 0.007(3) 0.012(4) 0.0035(17) 0.0044(17)
N2 0.01215(15) 0.0153(3) 0.0083(2) 0.00333(16) -0.00046(15) -0.00037(16)
C4 0.01187(15) 0.0103(3) 0.0077(2) 0.00147(17) -0.00122(16) -0.00048(17)
C1 0.00919(16) 0.0107(3) 0.0079(2) -0.00063(18) -0.00100(16) 0.00048(17)
C2 0.00877(16) 0.0101(3) 0.0071(2) -0.00003(18) -0.00033(16) 0.00073(17)
H2 0.016(3) 0.014(4) 0.036(5) 0.001(2) 0.001(3) 0.008(3)
C6 0.01237(17) 0.0129(3) 0.0087(2) 0.00133(19) 0.00016(17) -0.00168(18)
H6 0.024(3) 0.031(5) 0.027(5) 0.009(2) 0.005(2) -0.003(3)
C5 0.01257(18) 0.0156(3) 0.0088(3) 0.0011(2) -0.00196(18) 0.00093(19)
H5 0.029(4) 0.040(6) 0.026(4) 0.014(2) -0.004(2) 0.003(3)
C3 0.01547(19) 0.0104(3) 0.0093(3) 0.0027(2) -0.00243(18) -0.00081(19)
H3B 0.029(3) 0.023(5) 0.033(5) 0.0109(19) -0.005(2) -0.002(3)
H3A 0.034(4) 0.022(4) 0.025(4) -0.007(2) 0.004(3) 0.001(2)
loop_
_atom_type_symbol
_atom_type_scat_dispersion_real
_atom_type_scat_dispersion_imag
_atom_type_scat_source
_atom_type_scat_dispersion_source
H 0.00000 0.00000 'NoSpherA2: Chem.Sci. 2021, DOI:10.1039/D0SC05526C' custom
C 0.00210 0.00160 'NoSpherA2: Chem.Sci. 2021, DOI:10.1039/D0SC05526C' custom
O 0.00790 0.00610 'NoSpherA2: Chem.Sci. 2021, DOI:10.1039/D0SC05526C' custom
N 0.00410 0.00330 'NoSpherA2: Chem.Sci. 2021, DOI:10.1039/D0SC05526C' custom
loop_
_diffrn_refln_index_h
_diffrn_refln_index_k
_diffrn_refln_index_l
_diffrn_refln_intensity_net
_diffrn_refln_intensity_u
-1 0 0 0.2 0.2
-1 0 0 0.1 0.1
1 0 0 -0.1 0.2
1 0 0 -0.2 0.1
2 0 0 413.46 10.2
2 0 0 420.86 9
-2 0 0 414.96 10.1
-2 0 0 419.76 9
3 0 0 0.5 0.3
3 0 0 0.2 0.7
3 0 0 -0.7 0.9
-3 0 0 -0.4 0.4
3 0 0 -1.5 0.5
-3 0 0 -1.4 0.7
-3 0 0 0.6 0.6
-3 0 0 0.4 0.3
-4 0 0 5.7 0.8
4 0 0 3.5 0.6
4 0 0 5 1.1
-4 0 0 3.8 0.8
5 0 0 -0.1 0.9
-5 0 0 1.3 0.6
5 0 0 0 0.4
-5 0 0 -0.3 0.6
-6 0 0 1 0.9
-6 0 0 1.3 1
6 0 0 0.1 1.3
6 0 0 1.4 0.7
-7 0 0 -0.7 1.2
7 0 0 -1.4 0.8
7 0 0 0.1 1.4
-7 0 0 -1.3 1
-8 0 0 115.89 5.5
-8 0 0 123.29 4.5
8 0 0 115.09 6.8
8 0 0 106.49 4.4
0 1 0 0.2 0.1
0 -1 0 0 0.1
0 1 0 0 0.1
0 -1 0 0.4 0.2
1 -1 0 3879.51 70.19
-1 -1 0 3943.71 71.29
1 1 0 4016.8 114.69
-1 -1 0 3934.21 69.79
1 1 0 3776.82 70.59
1 -1 0 3843.82 70.69
-1 1 0 3780.02 69.79
-1 1 0 3723.13 71.49
2 -1 0 8 1.5
-2 -1 0 6.8 1.2
-2 -1 0 5.1 0.8
-2 1 0 6.7 0.9
-2 1 0 4.2 1
2 1 0 7.7 1.2
2 -1 0 4.9 0.7
2 1 0 5 0.7
-3 -1 0 165.68 4
-3 1 0 165.58 5.1
3 -1 0 166.88 4.7
3 1 0 159.58 3.7
3 1 0 167.28 5.2
3 1 0 166.48 6.4
-3 1 0 166.48 3.8
3 -1 0 161.68 3.7
3 -1 0 160.58 6.5
-3 -1 0 164.08 3.8
-3 -1 0 167.18 6.3
-3 -1 0 161.68 5
3 1 0 169.98 4.6
3 -1 0 162.68 5.2
-3 1 0 160.58 4.1
-4 1 0 -1 0.5
4 1 0 0.4 0.4
4 1 0 -1.1 0.5
-4 -1 0 0.7 0.6
-4 1 0 0.3 0.4
4 -1 0 1.2 0.6
-4 -1 0 -0.3 0.6
4 -1 0 -0.7 0.8
5 1 0 -1.3 0.8
5 -1 0 0.3 0.5
-5 -1 0 0.4 0.7
-5 1 0 0.2 0.6
5 -1 0 -0.6 1.1
5 1 0 0.2 0.5
-5 -1 0 0.5 0.8
-5 1 0 1.2 0.7
6 -1 0 0.3 0.6
-6 -1 0 0.3 1.1
6 1 0 0.4 1
6 1 0 -0.7 0.6
6 -1 0 -0.7 1.3
-6 1 0 -0.2 0.7
-6 1 0 0.4 0.9
-6 -1 0 -1.8 0.8
-7 1 0 18.5 2.2
-7 -1 0 15.6 2.3
7 -1 0 20.3 3.5
7 -1 0 23.8 1.9
7 1 0 15.6 2.7
-7 -1 0 19.4 2.1
7 1 0 16.6 1.7
-7 1 0 17.2 1.7
-8 -1 0 30.8 3.3
8 1 0 28.3 4
8 -1 0 24.5 2.4
8 1 0 22.1 2.3
-8 1 0 22.7 2.4
-8 1 0 29.8 3.2
-8 -1 0 28.6 2.3
8 -1 0 24 3.9
0 -2 0 9999 225.78
0 2 0 9602.54 228.38
0 2 0 9573.24 260.17
0 -2 0 9578.64 227.28
1 -2 0 679.13 13.2
-1 2 0 671.73 14.3
1 2 0 695.63 13.6
-1 -2 0 683.53 13.2
1 2 0 692.73 13.9
-1 -2 0 685.03 13.7
1 -2 0 680.33 14.3
2 -2 0 739.03 14.8
-2 2 0 772.12 16.9
2 2 0 738.13 16.2
-2 2 0 759.12 14.3
2 -2 0 759.92 16.9
2 -2 0 777.22 15.3
-2 -2 0 745.73 15
-2 2 0 733.13 13.9
-2 -2 0 773.12 16.3
-2 2 0 766.52 15.2
2 2 0 783.42 15.4
-3 -2 0 68.09 3.1
3 2 0 71.29 4
3 2 0 70.69 2
3 2 0 73.59 3.3
-3 2 0 70.59 2.1
-3 -2 0 69.49 2.4
-3 -2 0 73.49 3.9
-3 2 0 72.49 2.6
3 -2 0 68.49 2.1
-3 -2 0 73.19 2.2
3 -2 0 68.59 3
-4 2 0 15.9 1
-4 -2 0 15.7 1.2
-4 2 0 16.2 1.4
4 2 0 14.6 1.7
4 -2 0 16.4 2
4 2 0 15.4 1
-4 -2 0 16.2 1.3
4 -2 0 18 1.3
5 -2 0 2.6 1.7
-5 2 0 2.5 1
-5 -2 0 2.3 0.9
5 2 0 0.8 0.6
5 -2 0 2.1 0.8
5 2 0 0.4 1.2
-5 -2 0 1.9 1
-5 2 0 1.5 0.6
-6 -2 0 21.7 2.2
6 -2 0 21.7 1.7
-6 2 0 23.1 1.6
-6 2 0 23.5 2
6 2 0 22.4 2.5
6 2 0 20.8 1.6
6 -2 0 21.7 3.1
-6 -2 0 22 2.4
-7 2 0 40 2.4
7 -2 0 46.9 2.6
7 -2 0 36.4 4.3
7 2 0 37.2 3.6
-7 -2 0 47.3 3.5
7 2 0 39.7 2.6
-7 2 0 41.3 3.1
-7 -2 0 44.6 2.9
-8 -2 0 24.1 2.5
8 -2 0 28.8 2.6
8 2 0 32.3 2.5
-8 -2 0 26.2 3.2
8 -2 0 27.5 4.5
8 2 0 28.6 3.7
-8 2 0 29.7 2.4
-8 2 0 28 3.1
0 -3 0 0.7 0.4
0 3 0 0.6 0.7
0 -3 0 0.3 0.6
0 3 0 0.1 0.2
-1 -3 0 165.58 4.5
-1 3 0 159.18 4.3
1 3 0 171.28 5
1 -3 0 172.88 5.6
-1 -3 0 165.18 4.4
-1 3 0 166.38 5.4
1 -3 0 162.88 4.3
1 3 0 170.18 5
-2 -3 0 267.87 6.7
2 -3 0 285.97 7.1
2 -3 0 284.77 6.7
2 -3 0 259.77 8.3
-2 3 0 273.17 5.6
-2 3 0 281.07 8.5
2 3 0 280.17 7.4
-2 3 0 283.57 6.1
2 3 0 281.37 7.9
-2 -3 0 284.67 7.9
3 -3 0 108.99 4
-3 -3 0 102.29 2.8
3 -3 0 85.99 2.6
3 3 0 95.69 5
3 3 0 99.89 3.2
-3 3 0 90.29 2.6
3 3 0 84.89 3.9
-3 -3 0 89.89 3.7
-3 -3 0 94.69 4.8
-3 3 0 97.59 3.1
3 3 0 90.89 2.6
-3 -3 0 96.99 2.8
4 -3 0 148.99 5.6
4 -3 0 156.98 4
4 3 0 152.98 3.9
-4 3 0 146.19 4.5
-4 3 0 151.08 3.9
-4 -3 0 149.99 4.2
4 3 0 149.09 4.8
-4 -3 0 152.88 4
-5 3 0 5.8 1.2
-5 -3 0 5.2 1.4
-5 -3 0 5.4 1.3
5 3 0 4.5 0.9
-5 3 0 4.7 0.8
5 3 0 5.9 1.6
5 -3 0 7.8 2.3
5 -3 0 8.2 1.3
6 3 0 4.5 1.5
-6 3 0 2.5 1.3
6 -3 0 2.4 2.3
-6 3 0 2.6 0.8
6 3 0 4.4 1
6 -3 0 2.1 1.2
-6 -3 0 2 1.7
-6 -3 0 3.6 1.3
-7 3 0 22.1 2.6
7 -3 0 17.9 2.1
7 3 0 21.7 2.2
-7 -3 0 18.4 2
-7 -3 0 23.9 2.8
7 -3 0 14.6 3.4
-7 3 0 17.2 1.6
7 3 0 16.3 2.7
8 -3 0 28.3 4.5
8 3 0 23.2 3.3
8 -3 0 28.6 2.7
-8 3 0 23.2 2.8
-8 -3 0 23.9 2.9
8 3 0 28.2 2.6
-8 3 0 22.9 2.4
-8 -3 0 27.6 2.7
0 4 0 626.84 14.3
0 -4 0 636.84 12.8
0 4 0 641.84 13.1
0 -4 0 636.34 14.1
1 -4 0 -2.8 1
-1 4 0 -0.5 0.8
-1 -4 0 -1.8 0.6
1 4 0 -0.7 0.7
1 4 0 -0.1 0.8
-1 4 0 -0.2 0.6
1 -4 0 -3.5 1.2
-1 4 0 0.3 0.5
1 -4 0 -0.5 0.5
-1 -4 0 -0.6 1.1
2 4 0 121.09 4.8
-2 -4 0 109.79 2.8
2 -4 0 109.49 4.1
-2 4 0 122.49 5.6
2 4 0 110.49 3.3
-2 -4 0 112.69 3
2 -4 0 105.79 4.1
-2 4 0 115.49 3.3
-2 4 0 108.59 2.7
2 -4 0 110.89 5.6
2 4 0 102.79 4.5
2 4 0 113.39 2.9
-2 -4 0 110.09 4.3
-2 -4 0 109.59 4
-3 -4 0 50.59 2.2
-3 4 0 46.9 1.7
3 -4 0 38.8 1.9
3 4 0 48.7 2.3
-3 4 0 47.9 2.1
3 -4 0 47.1 3.4
-3 -4 0 48.4 1.9
3 4 0 47.5 1.8
-4 -4 0 7.1 1.3
4 -4 0 8.2 1.3
4 4 0 5.1 0.8
-4 4 0 4.7 0.8
-4 4 0 6.5 1.2
-4 -4 0 7.6 1.2
4 4 0 6 1.2
4 -4 0 2.5 2
-5 -4 0 33.4 2.3
5 -4 0 33.1 3.9
5 4 0 32.3 2.6
5 -4 0 38.2 2.5
-5 -4 0 32.8 2.6
-5 4 0 37.7 2.4
-5 4 0 32.3 1.8
5 4 0 33.8 1.8
6 4 0 0.8 1.1
-6 4 0 -0.1 0.6
-6 -4 0 1.4 1.5
-6 -4 0 0.6 1.2
6 -4 0 0.6 1.4
6 4 0 1.6 0.7
-6 4 0 1 1
6 -4 0 0.4 2.5
7 -4 0 -0.1 3.4
7 -4 0 -0.5 1.3
-7 4 0 0.8 0.9
-7 4 0 1.5 1.1
0 -5 0 3.1 1.3
0 -5 0 1.8 0.6
0 5 0 2.3 0.8
0 5 0 4 1.2
0 -5 0 0.8 1.8
-1 5 0 0.9 0.7
1 -5 0 3.8 1.9
1 5 0 0.4 0.4
1 5 0 2.5 0.8
1 -5 0 1.2 0.6
-1 -5 0 0.5 0.4
-1 -5 0 1.4 0.9
1 -5 0 -0.6 2.3
1 5 0 5.4 1.9
1 5 0 1.4 0.8
-1 -5 0 1.3 1.3
-1 -5 0 1 1
-1 5 0 1 0.7
-1 5 0 1.4 1.3
2 -5 0 129.99 5.5
2 5 0 139.29 3.6
-2 -5 0 136.59 3.2
2 5 0 136.29 3.9
-2 5 0 125.79 3.8
-2 -5 0 138.99 3.7
3 5 0 188.88 5.3
3 5 0 197.08 5
-3 5 0 192.88 4.5
-3 5 0 193.28 5.2
3 -5 0 190.28 6.7
-3 -5 0 184.28 4.9
-3 -5 0 195.28 4.8
4 -5 0 60.39 5.1
-4 5 0 56.89 2.8
4 -5 0 61.99 2.9
-4 5 0 61.99 2.4
5 -5 0 139.39 4.5
-5 5 0 134.49 4.1
5 -5 0 142.79 7.3
-5 5 0 140.89 5
-6 5 0 22 2.3
6 -5 0 23.3 2.4
-6 5 0 23.1 1.7
6 -5 0 18.5 4.1
7 -5 0 68.09 3.5
-7 5 0 65.19 3.8
7 -5 0 66.29 6.7
-7 5 0 64.99 3.2
0 -6 0 57.19 5.2
-1 6 0 1.2 0.6
1 -6 0 1.7 2.1
-1 6 0 0.1 0.4
1 -6 0 0.6 0.7
-2 6 0 3.3 0.9
2 -6 0 2.5 2.5
3 -6 0 30.5 3.8
-3 6 0 30.7 2
-4 6 0 22.4 2
4 -6 0 22.3 3.7
-4 6 0 22.3 1.5
4 -6 0 23.6 2.3
5 -6 0 10.6 1.8
-5 6 0 14.4 1.3
-5 6 0 8.9 1.7
5 -6 0 9.9 3.3
-6 6 0 22.2 1.8
6 -6 0 21.2 2.3
-6 6 0 21.2 2.5
6 -6 0 23.5 4.6
7 -6 0 4 3.7
-7 6 0 4.6 1.1
7 -6 0 5.7 1.7
-7 6 0 6.2 1.8
-3 7 0 66.19 3
3 -7 0 63.59 5.4
-4 7 0 12 1.8
4 -7 0 15.9 1.9
4 -7 0 18.8 4
5 -7 0 83.39 3.7
5 -7 0 73.69 6.8
-5 7 0 76.59 3.9
6 -7 0 38.3 3.1
6 -7 0 28.4 5.5
-6 7 0 36.8 2.9
-6 7 0 27.7 2.4
0 0 -1 0 0.1
0 0 1 0 0.1
0 0 1 0 0.1
0 0 -1 0 0.1
1 0 1 268.87 6.2
-1 0 1 272.77 5.6
1 0 1 278.37 5.6
1 0 -1 267.27 5.6
-1 0 -1 271.97 5.6
1 0 -1 269.37 6.2
-1 0 -1 274.57 6.2
-2 0 1 9 1.5
-2 0 -1 11 1.7
2 0 1 14.4 1.2
-2 0 -1 11.9 1
-2 0 1 12.7 1
2 0 -1 11.2 1
2 0 1 9.9 1.5
2 0 -1 5.5 1.3
3 0 -1 637.24 13.6
-3 0 -1 615.24 11.7
-3 0 -1 604.94 13.2
3 0 -1 617.04 12.6
3 0 1 625.14 11.6
-3 0 1 636.34 15.3
3 0 -1 624.34 11.6
3 0 1 617.04 12.6
-3 0 1 618.24 13.4
-3 0 1 611.34 11.7
-3 0 -1 618.44 12.1
3 0 1 638.54 13.5
3 0 -1 592.54 15.1
3 0 1 577.34 14.9
-3 0 -1 639.44 15.2
-3 0 1 623.94 12.1
4 0 1 19.3 1.7
4 0 -1 18.2 1.1
-4 0 1 16.6 1.3
4 0 1 17.6 1.1
-4 0 -1 22.3 1.3
-4 0 1 19.1 1.2
4 0 -1 17.7 1.7
5 0 -1 90.39 2.9
5 0 -1 90.59 4.1
5 0 1 93.09 2.9
-5 0 1 90.79 3.4
5 0 1 89.09 4.1
-5 0 1 88.39 3
-5 0 -1 90.79 3.4
-5 0 -1 91.69 3
-6 0 -1 98.59 3.5
6 0 1 101.49 4.9
6 0 -1 91.89 4.7
-6 0 -1 100.49 4
-6 0 1 104.09 4
6 0 -1 98.89 3.4
-6 0 1 103.39 3.5
6 0 1 98.99 3.4
-7 0 1 0.8 1.4
-7 0 -1 1.7 1.5
7 0 -1 4 2
7 0 1 1.3 1.6
-7 0 -1 0.7 0.9
-7 0 1 0.6 1
7 0 -1 1.4 1
7 0 1 2.5 0.9
-8 0 -1 9.1 1.6
8 0 -1 6.5 1.6
-8 0 1 8.8 1.8
8 0 -1 3.3 2.6
-8 0 -1 9.3 2.3
8 0 1 9.2 2.6
-8 0 1 13 2.5
8 0 1 7.5 1.4
0 1 -1 46.9 1.7
0 -1 1 57.19 1.5
0 1 -1 50.69 1.5
0 -1 -1 59.19 1.5
0 -1 1 56.99 1.8
-1 1 1 1322.17 24.7
-1 -1 -1 1314.07 24.2
1 1 -1 1313.07 24.6
1 1 -1 1305.97 24.4
-1 -1 -1 1316.77 24
1 -1 1 1312.77 23.8
1 -1 1 1335.37 24.9
-1 1 1 1288.07 23.8
1 -1 -1 1318.07 24.7
-1 1 -1 1317.97 24.9
1 -1 -1 1322.57 23.8
-1 -1 1 1316.57 24.6
1 1 1 1297.87 23.8
1 1 1 1330.67 24.3
-1 -1 1 1258.47 24.2
-2 1 1 358.16 9.1
-2 -1 -1 339.47 7.6
2 -1 1 354.66 9.2
-2 1 1 350.16 7.9
-2 -1 -1 342.97 8.7
2 1 -1 358.66 8
2 -1 1 364.16 8
2 1 -1 345.47 9
-2 -1 1 348.17 7.8
2 1 1 336.97 8.7
-2 1 -1 351.96 9.2
2 -1 -1 353.76 9.1
2 -1 -1 354.16 7.9
2 1 1 360.46 7.8
-2 1 -1 352.76 7.8
-3 1 1 139.39 5.8
-3 1 1 123.69 4.4
-3 -1 -1 125.69 5.3
-3 -1 -1 122.39 3
3 -1 1 131.09 4
-3 -1 -1 123.49 4.1
3 -1 1 123.29 4.5
3 -1 1 121.39 3
3 1 -1 129.49 4.4
3 1 -1 122.59 3
3 -1 1 125.59 5.8
3 1 -1 128.89 3.9
-3 -1 -1 128.09 3.4
-3 1 1 126.09 3.1
3 1 -1 119.99 5.4
-3 1 1 123.89 3.4
3 1 1 131.79 5.5
-3 -1 1 133.49 5.5
3 1 1 121.19 2.9
-3 1 -1 125.89 4.2
3 -1 -1 125.79 5.8
3 1 1 121.49 4.2
-3 1 -1 126.49 5.7
-3 -1 1 118.09 4.2
-3 -1 1 124.39 3.3
3 -1 -1 127.09 3.9
3 1 1 126.09 3.7
-3 1 -1 128.49 3.1
3 -1 -1 119.29 4.5
-3 -1 1 122.09 3.1
-3 1 -1 117.99 3.4
-4 -1 -1 21.1 1.4
-4 1 1 17 1.1
4 -1 1 15.9 1.9
-4 -1 -1 17.2 1.2
4 1 -1 17.3 1.7
-4 1 1 19.4 1.5
4 -1 1 16.3 1.1
4 1 -1 15.9 1.1
4 -1 -1 15.9 1.7
4 1 1 14.6 1.7
-4 1 -1 16.5 1.1
4 -1 -1 16.7 1.1
-4 -1 1 18 1.5
-4 -1 1 17.5 1.3
4 1 1 17.5 1
-4 1 -1 16.5 1.3
5 -1 1 13.3 1.2
-5 -1 -1 14.4 1.6
5 -1 1 11.4 1.8
-5 1 1 13.4 1.2
5 1 -1 11.5 1.1
-5 -1 -1 11.9 1.3
5 1 -1 15.2 2.1
-5 1 1 14 1.4
-5 -1 1 12 1.4
-5 -1 1 14 1.4
5 1 1 12.4 1.9
5 1 1 13 1.1
-5 1 -1 14.6 1.3
5 -1 -1 12.6 2
-5 1 -1 11.6 1.5
5 -1 -1 12.8 1.2
-6 1 1 14.5 1.5
6 1 -1 14.9 2.3
6 1 -1 10.6 1.3
-6 -1 -1 9.1 1.6
-6 -1 -1 16 1.8
-6 1 1 14.4 1.8
6 -1 1 12.7 2.4
6 -1 1 11.3 1.3
-6 1 -1 12 1.8
-6 -1 1 11.3 1.7
-6 1 -1 13.8 1.5
6 1 1 11.9 1.2
6 -1 -1 14.7 1.5
6 1 1 10.9 2.1
-6 -1 1 13.3 1.6
6 -1 -1 13.5 2.4
7 1 -1 0.3 0.8
-7 -1 -1 2 1.6
7 -1 1 2 2
-7 1 1 1.4 1.3
7 -1 1 1.4 0.8
7 1 -1 -0.7 1.5
-7 -1 -1 -1 1.2
-7 1 1 1.1 0.9
-7 -1 1 -0.1 1.3
7 1 1 1.5 0.8
-7 -1 1 -0.9 1.2
7 -1 -1 1.5 1
7 -1 -1 1.6 2.2
-7 1 -1 2.2 0.9
7 1 1 3.7 1.6
-7 1 -1 1 1.2
-8 -1 -1 0.1 1.8
8 -1 1 -3.4 2.2
-8 -1 -1 1.2 1.4
8 1 -1 -0.2 2
-8 1 1 2.2 1.1
-8 1 1 1.3 1.5
8 1 -1 -3.3 1
8 -1 1 -0.3 1
8 -1 -1 0.1 1.2
8 -1 -1 3.5 2.4
-8 1 -1 1.7 1.2
8 1 1 -1.5 1.6
-8 -1 1 2.4 1.8
-8 -1 1 0.2 1.4
8 1 1 0 0.9
-8 1 -1 1.7 1.6
0 -2 -1 355.56 6.9
0 -2 1 335.97 7.1
0 2 -1 373.06 8.2
0 -2 1 368.96 8
0 2 1 349.37 6.9
0 2 -1 360.46 7.3
0 2 1 360.36 7.5
0 -2 -1 351.16 7.5
-1 2 1 1633.64 30.5
-1 -2 -1 1592.24 29.4
1 2 -1 1607.34 30.4
-1 -2 -1 1616.04 29.8
1 -2 1 1625.94 30.9
1 2 -1 1573.54 30.1
1 2 1 1617.34 29.8
-1 -2 1 1609.84 29.6
-1 2 -1 1622.84 30.8
1 -2 -1 1600.84 29.3
-1 -2 1 1598.24 30.2
1 -2 -1 1609.94 30.4
1 2 1 1699.23 30.5
2 2 -1 132.39 4.8
-2 2 1 131.19 3.9
-2 -2 -1 133.49 4.5
2 -2 1 133.79 5.1
-2 -2 -1 136.29 3.8
-2 2 1 143.69 5.1
2 -2 1 128.89 4
2 2 -1 145.59 4.3
-2 2 1 136.69 3.2
-2 2 1 142.39 3.6
2 -2 1 127.29 3.7
2 2 1 125.59 4.5
-2 -2 1 136.09 4
2 -2 -1 125.49 3.1
-2 2 -1 120.29 3.3
2 -2 -1 134.19 5.1
2 -2 -1 141.99 4.1
2 2 1 137.19 3.9
-2 2 -1 129.39 3
-2 2 -1 130.49 5
-2 -2 1 130.09 4.7
-3 -2 -1 345.07 6.8
3 2 -1 331.67 9.9
-3 2 1 348.37 7.4
3 -2 1 326.77 6.8
3 2 -1 335.57 7.7
-3 2 1 333.97 6.9
3 2 -1 342.27 8.7
-3 -2 -1 332.57 7.1
3 2 -1 340.97 6.8
3 -2 1 346.87 8.2
-3 -2 -1 328.57 8.1
-3 -2 -1 347.37 9.7
-3 2 -1 324.37 7.4
-3 -2 1 337.07 6.9
-3 -2 1 332.47 8.4
3 2 1 339.47 8.5
-3 -2 1 339.17 9.9
-3 2 -1 332.67 6.8
3 2 1 336.07 7.6
3 2 1 328.07 9.6
-3 -2 1 337.97 7.2
3 -2 -1 337.07 6.8
3 2 1 338.37 6.7
3 -2 -1 338.37 8
4 -2 1 52.19 3.1
4 2 -1 55.49 2.8
-4 -2 -1 55.49 2.3
4 -2 1 55.29 2
-4 -2 -1 52.99 2.2
-4 2 1 56.09 2
-4 2 1 53.59 2.3
4 2 -1 54.39 2
4 -2 -1 55.29 2
-4 2 -1 58.29 2.4
4 -2 -1 55.19 3.1
-4 2 -1 55.89 2
-4 -2 1 59.19 2.4
4 2 1 56.09 1.9
4 2 1 59.69 2.8
-4 -2 1 52.19 2
-5 2 1 43.9 2
5 2 -1 48 3.1
-5 2 1 41.7 2.4
5 -2 1 46.7 3.6
-5 -2 -1 42.1 2.2
5 -2 1 44.2 2
-5 -2 -1 46 2.5
5 2 -1 45.1 2
-5 2 -1 41.1 2.4
5 -2 -1 49.8 3.8
-5 -2 1 41.8 2.3
5 2 1 42.5 1.9
-5 2 -1 44.8 2
5 -2 -1 42.7 2
5 2 1 43.7 2.8
-5 -2 1 41.7 2.2
6 2 -1 30.6 1.9
6 2 -1 29.7 2.8
-6 -2 -1 33.7 2.5
-6 2 1 28.1 1.8
-6 -2 -1 26.9 2.7
-6 2 1 29.6 2.3
6 -2 1 32.3 3.7
6 -2 1 33.8 2
-6 2 -1 32.1 1.9
6 -2 -1 30 3.5
-6 -2 1 33.7 2.4
-6 -2 1 25 2.5
6 -2 -1 33.5 2
-6 2 -1 32.2 2.4
6 2 1 30.8 1.9
6 2 1 28.8 2.8
-7 -2 -1 40 3.4
-7 -2 -1 42 2.9
7 -2 1 44.8 2.5
7 2 -1 41.3 3.6
7 2 -1 41.7 2.7
-7 2 1 45.3 2.4
7 -2 1 43.3 4.8
-7 2 1 44.1 3.1
7 -2 -1 43.5 2.7
7 2 1 42.7 2.5
-7 -2 1 39.5 3.4
-7 -2 1 38.2 2.6
7 -2 -1 43.2 4.7
-7 2 -1 44.3 2.5
-7 2 -1 41.2 3.1
7 2 1 35.6 3.6
8 2 -1 6.5 1.3
8 2 -1 6.6 2.2
-8 2 1 3.9 1.6
-8 2 1 4.5 1.3
8 -2 1 0.2 2.9
-8 -2 -1 4 2.1
-8 -2 -1 4.6 1.5
8 -2 1 4 1.5
-8 2 -1 4.5 1.3
-8 -2 1 2.1 2
8 -2 -1 2.5 1.3
8 2 1 2.4 1.3
8 2 1 4.9 2.1
-8 2 -1 4.1 1.8
8 -2 -1 1.1 3.2
-8 -2 1 4.5 1.6
0 3 1 3.2 0.5
0 3 -1 3.2 0.6
0 -3 1 3.7 0.9
0 3 1 2.5 0.8
0 3 -1 4.2 1.1
0 -3 -1 2.7 0.8
0 -3 -1 3.4 0.5
0 -3 1 2.6 0.5
-1 3 1 182.78 5.6
1 -3 1 171.78 5.8
1 3 -1 170.88 5.4
-1 -3 -1 185.28 4.6
-1 -3 -1 189.58 4.6
1 3 -1 185.88 5.6
1 -3 -1 184.18 4.6
1 3 1 177.28 5
1 3 1 181.98 5.1
-1 -3 1 181.28 5
-1 3 -1 184.78 4.8
-1 3 -1 178.08 5.8
1 -3 -1 185.38 5.7
-1 -3 1 181.18 4.9
2 -3 1 579.84 12.1
2 3 -1 597.34 13.2
-2 3 1 581.64 10.9
-2 3 1 581.54 11.4
2 -3 1 567.44 14.2
-2 3 1 606.44 14.2
2 -3 1 583.34 12.5
2 3 -1 575.94 11
2 3 -1 590.14 13.7
-2 -3 -1 563.44 11.9
2 3 -1 578.24 11.6
-2 -3 -1 575.64 13.1
2 3 1 615.14 12.8
-2 3 -1 568.34 14.2
2 3 1 587.54 13.3
-2 3 -1 584.24 10.9
-2 -3 1 582.14 13.5
2 -3 -1 597.24 14.2
-2 3 -1 538.45 11.4
-2 -3 1 580.44 11
-2 -3 1 574.84 11
2 -3 -1 576.04 12
-2 -3 1 580.14 12.4
2 -3 -1 586.14 12.4
3 -3 1 42.5 2.7
3 3 -1 39.1 2
-3 3 1 37.8 1.8
3 -3 1 35.2 1.6
-3 3 1 41.3 1.5
-3 -3 -1 39.3 1.7
-3 -3 -1 42.2 1.8
3 3 -1 42 1.6
-3 -3 -1 43.2 3.3
-3 -3 -1 42.3 2.5
-3 3 -1 42.1 1.9
-3 -3 1 36.2 1.6
-3 3 -1 40.5 1.5
3 3 1 40.4 1.5
-3 -3 1 39 1.7
3 3 1 39.6 1.9
3 -3 -1 40.5 1.7
3 -3 -1 35.9 2.6
3 3 1 37.1 2.5
3 3 1 45.1 3.3
4 -3 1 133.99 3.7
4 3 -1 133.49 3.6
4 -3 1 142.69 5.4
-4 3 1 131.79 3.6
4 3 -1 136.09 4.6
-4 -3 -1 131.59 3.9
-4 3 1 134.29 4.2
-4 -3 -1 128.79 3.6
-4 -3 1 145.29 3.9
4 -3 -1 131.29 3.7
-4 -3 1 134.99 3.9
4 -3 -1 142.49 5.3
4 3 1 138.29 3.6
-4 3 -1 132.99 4.2
4 3 1 141.79 4.5
-4 3 -1 132.29 3.6
-5 3 1 13.6 1.8
5 -3 1 11.3 2.4
-5 -3 -1 13.9 1.6
-5 -3 -1 12.8 1.7
5 3 -1 10.5 1.9
-5 3 1 14.1 1.2
5 -3 1 13.6 1.6
5 3 -1 16.6 1.5
-5 3 -1 16.2 1.9
5 -3 -1 19.6 2
5 3 1 13.7 1.4
-5 3 -1 13.2 1.2
-5 -3 1 14.6 1.6
-5 -3 1 14.9 1.8
5 3 1 14.3 2.1
5 -3 -1 10.1 2.5
6 3 -1 2.9 0.8
-6 -3 -1 1.6 1.7
-6 3 1 1.4 1.2
6 3 -1 2.9 1.5
-6 -3 -1 2 1.2
-6 3 1 1.4 0.8
6 -3 1 2.8 1.1
6 -3 1 1 2.3
-6 -3 1 1.6 1.5
6 3 1 1.9 0.9
-6 -3 1 0.6 1.2
6 -3 -1 0.8 2.6
6 3 1 1.7 1.3
6 -3 -1 1.2 1.1
-6 3 -1 2.3 0.8
-6 3 -1 0.4 1
7 3 -1 -1.5 1
-7 -3 -1 1.8 1.4
7 3 -1 1.6 1.6
-7 3 1 0.2 1.2
7 -3 1 0.2 2.6
7 -3 1 0.4 1.2
-7 -3 -1 2.4 2
-7 3 1 1.5 0.8
7 3 1 -1.3 1.4
7 -3 -1 -0.2 2.5
7 3 1 3.7 1
-7 -3 1 3 1.8
-7 3 -1 1.4 1
-7 -3 1 0.9 1.4
7 -3 -1 2.6 1.3
-7 3 -1 3.4 1.4
8 3 -1 23.3 2.4
8 -3 1 15.3 4.1
-8 3 1 20.2 2.7
8 3 -1 18.2 3.5
8 -3 1 22.2 2.4
-8 3 1 20.8 2.3
-8 -3 1 23.6 2.6
8 -3 -1 23.7 2.5
-8 3 -1 26.2 3
8 -3 -1 20.5 4.6
-8 -3 1 22.2 2.9
-8 3 -1 20.8 2.2
0 4 1 0.1 0.3
0 -4 -1 1.5 0.9
0 4 -1 1.8 1
0 4 1 0 0.6
0 -4 1 0.1 0.6
0 4 -1 0.4 0.5
0 -4 1 1.2 0.9
1 -4 1 459.55 11.8
1 4 -1 432.66 10.9
-1 4 1 433.96 11.1
1 -4 1 445.26 8.3
1 4 -1 406.06 10.8
-1 -4 -1 448.16 9.8
-1 4 1 425.66 9.5
-1 -4 -1 444.66 9.3
1 -4 1 462.45 9.8
-1 -4 1 437.86 10.4
1 -4 -1 441.76 11.3
1 4 1 437.16 10.4
-1 4 -1 434.96 9.8
-1 4 -1 439.16 8.9
1 -4 -1 445.56 9.6
1 4 1 459.05 10.4
-1 4 -1 427.36 11.4
-1 -4 1 445.66 9.7
2 4 -1 240.78 7.4
2 4 -1 231.78 5.6
2 4 -1 231.88 7.4
-2 4 1 231.98 8
-2 -4 -1 234.78 6.6
-2 -4 -1 227.28 4.8
2 4 -1 241.68 5.1
2 -4 1 226.38 6.3
-2 4 1 235.78 5.4
-2 4 1 222.08 4.8
-2 -4 -1 227.28 5
-2 -4 -1 221.08 6.1
-2 4 -1 225.38 4.9
-2 4 -1 219.48 5.4
2 -4 -1 224.68 8.1
2 -4 -1 234.18 6.3
2 4 1 224.58 7
2 4 1 238.38 5
-2 -4 1 233.68 6.5
2 4 1 234.58 7
-2 -4 1 235.38 6.9
-2 -4 1 223.18 4.9
2 4 1 222.68 5.3
2 -4 -1 239.08 6.5
-2 -4 1 240.28 5.2
3 -4 1 37.2 3.2
3 4 -1 34.8 2
-3 -4 -1 32.4 1.6
3 4 -1 36.2 1.6
-3 -4 -1 38.7 2.1
-3 4 1 31.9 1.8
-3 4 1 33.6 1.4
-3 -4 1 29.4 1.6
-3 4 -1 35.4 1.5
-3 4 -1 34.5 1.9
-3 -4 1 34.9 1.9
3 4 1 35.3 1.4
3 -4 -1 33.3 3
3 -4 -1 32.2 1.8
3 4 1 36.7 1.9
4 4 -1 16.5 1.7
-4 4 1 19.2 1.2
-4 -4 -1 22.9 1.8
-4 4 1 19.1 1.6
-4 -4 -1 19.5 1.8
4 4 -1 19 1.4
4 -4 1 20 1.9
4 -4 1 25.4 3.2
4 -4 -1 18.9 2.7
-4 4 -1 21.2 1.3
4 4 1 20.9 1.8
4 -4 -1 22 1.8
-4 4 -1 22.8 1.8
-4 -4 1 17.9 1.8
-4 -4 1 19 1.8
4 4 1 23.7 1.3
-5 -4 -1 59.69 3
5 4 -1 65.69 2.6
-5 4 1 62.59 3.1
5 4 -1 59.49 3.3
-5 -4 -1 58.19 2.8
5 -4 1 57.89 4.9
5 -4 1 65.09 2.8
-5 4 1 61.09 2.4
5 -4 -1 62.09 2.8
5 4 1 53.09 3.2
-5 -4 1 63.59 3.1
5 4 1 61.49 2.5
5 -4 -1 54.99 4.5
-5 4 -1 59.09 3
-5 4 -1 62.49 2.5
-5 -4 1 58.19 2.8
-6 4 1 16.6 2.1
6 -4 1 14 3.7
6 -4 1 16.5 1.9
6 4 -1 13.8 2.2
6 4 -1 18.8 1.6
-6 4 1 15.5 1.5
-6 -4 1 16.4 1.9
-6 -4 1 13.6 2.1
-6 4 -1 14.2 2
6 -4 -1 15.2 3.6
6 -4 -1 18.2 2.1
-6 4 -1 15.2 1.5
-7 4 1 23.5 2.1
7 4 -1 22.5 3.1
7 -4 1 26.7 4.8
-7 4 1 27 2.9
7 4 -1 26 2.5
7 -4 1 29.6 2.5
7 -4 -1 26.2 2.6
-7 4 -1 28 2.6
-7 4 -1 27.6 2.2
7 -4 -1 29.6 4.7
-7 -4 1 26.7 3
-7 -4 1 24.2 2.8
0 5 1 3.5 1.2
0 5 -1 3.3 1.4
0 -5 -1 1.2 1.6
0 5 -1 3.1 0.7
0 5 -1 3.8 0.6
0 -5 1 3.8 0.6
0 5 1 3.3 0.9
0 5 -1 4.7 1.1
0 -5 1 5.7 1.2
0 -5 1 3.5 1.6
0 -5 1 2.8 1.8
-1 5 1 26.6 2.9
1 -5 1 25.2 3.7
1 5 -1 22 3.1
-1 5 1 26.7 1.8
-1 5 1 26.3 1.5
1 5 -1 23.9 1.3
1 5 -1 26.1 2.3
1 5 -1 22.4 1.5
1 -5 1 32.2 3.4
1 -5 1 26.8 1.4
-1 5 -1 26 1.6
-1 -5 1 24.7 2
-1 -5 1 26.8 2
1 -5 -1 32.4 3.2
-1 5 -1 24.3 3.2
1 -5 -1 27.5 1.2
-1 5 -1 28.5 1.9
1 -5 -1 24.9 2
-1 -5 1 25.5 1.1
-1 -5 1 25 2.6
1 -5 -1 27 3.6
2 5 -1 266.07 10.3
-2 5 1 274.07 6.5
2 5 -1 277.07 6.6
2 5 -1 287.77 6.3
-2 5 1 278.37 5.9
2 5 -1 289.67 9.3
2 -5 1 276.37 8
-2 -5 1 269.37 5.8
-2 -5 1 301.97 9.1
-2 -5 1 294.17 6.5
-2 -5 1 280.07 8.6
2 -5 -1 277.97 8
-2 5 -1 283.97 6.6
3 -5 1 195.18 7
3 5 -1 205.08 4.9
-3 5 1 196.58 5.3
-3 5 1 202.38 4.7
3 5 -1 196.18 5.5
-3 -5 1 206.48 4.9
3 -5 -1 199.98 6.8
-3 5 -1 198.38 4.7
-3 -5 1 191.98 4.8
3 -5 -1 201.58 4.9
-3 5 -1 199.98 5.4
4 -5 1 49.4 4.8
-4 5 1 45.8 2.6
4 -5 1 55.39 2.7
-4 5 1 47.2 2.1
4 5 -1 46.7 2.9
4 5 -1 48.9 2.3
-4 5 -1 47.5 2.1
4 -5 -1 51.79 4.4
-4 -5 1 49.8 2.7
-4 5 -1 49.9 2.7
-4 -5 1 51.89 2.6
4 -5 -1 51.69 2.7
-5 5 1 11.9 1.7
-5 5 1 13.9 1.4
5 -5 1 14.9 1.9
5 -5 1 15 3.8
-5 5 -1 13.9 1.9
-5 5 -1 14.6 1.5
5 -5 -1 12.4 3.3
5 -5 -1 13.8 1.8
-6 5 1 1.9 0.9
-6 5 1 3.2 1.2
6 -5 1 1.7 1.6
6 -5 1 2.5 3.2
-6 5 -1 2.7 1.3
6 -5 -1 0 3.1
6 -5 -1 2.1 1.5
-6 5 -1 1.3 0.9
7 -5 1 0.8 3.6
7 -5 1 3.6 1.5
-7 5 1 3.2 1.3
-7 5 1 2 0.9
-7 5 -1 -1.6 1
7 -5 -1 1.9 1.6
-7 5 -1 -0.3 1.3
7 -5 -1 -1.6 3.1
0 -6 1 88.79 3.9
0 6 -1 78.29 2.8
0 6 -1 84.49 2.7
0 -6 1 78.49 2.4
-1 6 1 30.8 2.4
1 -6 1 34.8 3.7
-1 6 1 26.6 1.9
1 6 -1 31.2 2.1
1 6 -1 31.7 1.9
1 -6 1 35.6 1.7
-1 -6 1 30.4 2.4
-1 6 -1 32.2 1.6
-1 6 -1 28.8 1.7
1 -6 -1 33.2 3.1
-2 6 1 257.17 6.3
2 -6 1 267.17 8.3
2 -6 -1 257.27 7.8
-2 6 -1 260.57 6.4
3 -6 1 0.7 2.6
-3 6 1 0.2 0.6
-3 6 1 2.1 0.8
3 -6 -1 1.6 2.6
-3 6 -1 0.6 0.7
3 -6 -1 2 1.1
-4 6 1 3.5 0.8
-4 6 1 2.2 1
4 -6 1 1.3 1.4
4 -6 1 0.3 2.6
4 -6 -1 2.4 1.4
-4 6 -1 2.3 1
4 -6 -1 1.8 2.9
-4 6 -1 2.3 0.7
5 -6 1 3.4 3.1
-5 6 1 6.3 1.4
-5 6 1 6.1 0.9
5 -6 1 4.5 1.6
5 -6 -1 6.7 1.6
-5 6 -1 5.4 1
-5 6 -1 6 1.4
5 -6 -1 3.1 3.1
6 -6 1 46.1 5.6
6 -6 1 43 3.3
-6 6 1 42.3 3.1
-6 6 1 43.5 2.3
-6 6 -1 44.1 3.2
6 -6 -1 43.6 3.4
6 -6 -1 38.5 5
-6 6 -1 45.2 2.5
7 -6 1 14.9 4.5
7 -6 1 10.8 2.2
-7 6 1 14.1 2.3
-7 6 1 12.6 1.7
-7 6 -1 14 1.8
7 -6 -1 11.2 2.2
-7 6 -1 17.2 2.6
7 -6 -1 14.9 4.5
2 -7 1 19.3 3.5
-2 7 -1 20.2 1.9
3 -7 1 159.08 7.6
-3 7 -1 158.98 5.1
4 -7 1 49.3 5.4
-4 7 1 55.39 3
4 -7 1 49.8 2.9
4 -7 -1 52.39 5.6
4 -7 -1 51.49 3
-4 7 -1 49.7 3
-5 7 1 31.5 2.2
5 -7 1 40 2.9
-5 7 1 39.4 2.8
5 -7 1 36.9 5.2
5 -7 -1 33.3 5.1
-5 7 -1 38.5 2.9
5 -7 -1 41.3 2.9
6 -7 1 2.7 3.9
6 -7 1 2.5 1.9
-6 7 1 3.8 1.1
-6 7 1 4.5 1.5
-6 7 -1 4.6 1.7
6 -7 -1 1.9 3.8
6 -7 -1 0.5 1.9
4 -8 1 0.8 5.9
5 -8 1 5.5 1.9
5 -8 1 9.5 3.9
-5 8 -1 6.5 1.6
6 -8 1 17.4 2.6
6 -8 1 23.6 4.9
-6 8 -1 22.7 2.8
1 0 2 426.56 8.9
1 0 -2 421.86 8.4
-1 0 2 416.06 8.3
-1 0 -2 426.16 8.9
-1 0 -2 404.46 8.1
1 0 -2 427.76 9
1 0 2 417.76 8.2
-1 0 2 425.16 9
-2 0 2 207.58 5.3
-2 0 -2 206.98 5.1
2 0 2 213.58 5.2
2 0 -2 219.08 5.4
2 0 -2 207.28 6.3
-2 0 -2 207.88 6.2
2 0 2 212.48 6.4
-2 0 2 207.68 6.3
3 0 -2 0.8 1.2
-3 0 -2 2.8 1.3
-3 0 2 2.5 1.3
-3 0 -2 0.7 0.6
3 0 2 0.6 0.7
-3 0 2 0.1 0.5
3 0 -2 -0.6 0.7
-3 0 2 0.6 0.5
-3 0 -2 1.7 0.6
3 0 2 0.1 0.3
-3 0 2 -0.5 0.6
3 0 -2 -0.1 0.4
-3 0 -2 0.2 0.4
3 0 2 -0.2 0.7
3 0 2 1 1.3
3 0 -2 -0.1 0.7
4 0 2 7.8 0.9
4 0 -2 8.6 0.9
-4 0 -2 7.9 1.1
-4 0 -2 6.2 0.8
4 0 -2 8.1 1.4
4 0 2 7 1.3
-4 0 2 9.9 1.2
-4 0 2 9.3 1
5 0 -2 10.1 1.7
5 0 -2 13.4 1.2
-5 0 2 13.7 1.4
-5 0 2 13 1.2
-5 0 -2 11.8 1.3
5 0 2 11.9 1.9
-5 0 -2 11.6 1.4
5 0 2 11.7 1.1
-6 0 2 4.2 1.2
-6 0 -2 4.7 1.4
-6 0 2 4.9 1
-6 0 -2 3.9 1.1
6 0 2 3.9 1.5
6 0 -2 3.9 1.5
6 0 2 4.5 0.9
6 0 -2 3.9 0.9
7 0 -2 17.9 1.8
-7 0 2 16 1.8
7 0 -2 14 2.7
-7 0 -2 16.6 1.8
7 0 2 17.7 3.1
-7 0 -2 18.8 2.5
-7 0 2 19.7 2.4
7 0 2 18 1.7
8 0 -2 2.6 2.5
8 0 2 2.7 2.3
8 0 2 4.2 1.3
-8 0 -2 4 1.5
-8 0 2 4 2
-8 0 -2 3.9 1.9
8 0 -2 3.4 1.3
-8 0 2 5.6 1.4
0 1 -2 363.06 7.6
0 -1 2 353.26 7.5
0 -1 -2 355.26 6.4
0 -1 2 342.87 6.9
-1 1 2 230.88 5.1
-1 -1 -2 238.38 5.3
1 -1 2 236.78 6.1
-1 1 2 234.18 5.8
1 -1 2 238.88 5.2
-1 -1 -2 233.28 4.8
1 1 -2 236.98 5.5
1 1 -2 248.18 6
1 1 2 235.88 5.4
-1 -1 2 234.18 5.3
1 -1 -2 244.28 5.8
1 -1 -2 235.98 5.1
1 1 2 237.28 4.9
-1 -1 2 240.58 5.9
2 1 -2 69.19 2.7
-2 -1 -2 67.19 2.4
-2 -1 -2 64.89 3
-2 1 2 68.99 2.5
2 -1 2 72.09 3.5
2 -1 2 65.39 2.5
-2 1 2 65.39 3.2
2 1 -2 67.79 3.2
2 1 2 68.59 2.4
2 -1 -2 71.99 2.7
-2 -1 2 70.29 2.6
-2 1 -2 66.99 3.3
2 -1 -2 68.09 3.3
2 1 2 67.19 3
-2 -1 2 70.89 3.3
-2 1 -2 67.89 2.5
-3 -1 -2 160.48 4.8
3 1 -2 163.28 4.5
3 -1 2 153.38 7.5
3 -1 2 161.78 5.9
-3 -1 -2 157.28 3.7
-3 1 2 153.08 5.6
3 1 -2 156.08 5.1
-3 1 2 154.98 4.1
-3 1 2 163.78 7.7
3 1 -2 156.28 6.2
3 -1 2 171.68 4.9
-3 -1 -2 159.68 6
-3 1 2 160.48 3.8
3 -1 2 159.18 3.7
-3 -1 -2 154.28 3.9
-3 1 -2 157.48 4.1
-3 -1 2 155.98 4
-3 1 -2 172.18 7.8
-3 -1 2 163.38 5.1
3 -1 -2 160.98 3.7
3 1 2 156.58 4.4
3 -1 -2 165.28 4.7
3 -1 -2 162.98 7.5
-3 -1 2 164.78 3.8
3 1 2 160.28 5
-3 1 -2 166.58 5.5
3 1 2 154.68 3.5
-3 -1 2 156.58 6.2
-3 1 -2 162.98 3.7
3 -1 -2 171.98 6.3
3 1 2 160.38 6.1
4 -1 2 61.59 3
4 -1 2 64.99 2.2
-4 -1 -2 60.39 2.4
-4 -1 -2 65.99 2.3
-4 1 2 64.19 2.6
4 1 -2 65.99 3.1
-4 1 2 66.89 2.3
-4 1 -2 66.09 2.2
-4 -1 2 63.39 2.2
-4 1 -2 63.39 2.6
4 -1 -2 64.59 2.2
4 1 2 64.19 2.9
4 1 2 63.59 2.1
4 -1 -2 64.99 3.1
-4 -1 2 62.99 2.5
-5 1 2 293.37 7.3
-5 -1 -2 296.57 7.2
-5 -1 -2 286.17 6.6
5 -1 2 281.27 8.4
5 -1 2 291.77 6.6
-5 1 2 295.77 6.7
5 1 -2 279.97 8.1
5 1 -2 291.67 6.7
-5 1 -2 293.77 6.7
5 1 2 292.17 8.1
-5 -1 2 291.27 7.3
5 1 2 296.27 6.6
-5 1 -2 283.27 7.3
5 -1 -2 299.17 8.4
-5 -1 2 294.57 6.8
5 -1 -2 286.17 6.6
-6 1 2 21.9 2.1
6 -1 2 22.6 3.1
6 1 -2 22.1 1.7
-6 1 2 24.4 1.8
-6 -1 -2 24 2.3
6 1 -2 25.1 2.9
6 -1 2 20.2 1.6
-6 -1 -2 25.3 2.2
6 1 2 21.3 2.7
6 -1 -2 24.5 3.2
-6 -1 2 23.3 1.8
-6 1 -2 21.7 1.7
6 -1 -2 23.1 1.7
-6 -1 2 23.2 2.3
6 1 2 21.5 1.6
-6 1 -2 19.3 1.9
-7 -1 -2 12 1.7
7 -1 2 9.7 1.4
7 1 -2 9.3 1.4
7 -1 2 9.3 2.4
-7 1 2 11.9 2
-7 1 2 11.5 1.5
-7 -1 -2 10.4 2.2
7 1 -2 8.8 2.1
7 -1 -2 12.3 1.7
7 1 2 8.3 1.4
7 -1 -2 9.2 2.7
-7 1 -2 10.6 1.9
-7 -1 2 9.7 1.6
7 1 2 8.6 2.2
-7 -1 2 9.1 1.9
-7 1 -2 8.7 1.5
-8 -1 -2 25.8 2.4
-8 1 2 31.4 2.3
8 -1 2 28 4.3
8 1 -2 31.1 4
-8 -1 -2 26.9 3.2
8 1 -2 24.2 2.7
8 -1 2 28.1 2.3
-8 1 2 26.1 3
8 -1 -2 23.2 4.1
-8 1 -2 26.1 2.4
8 1 2 25.6 3.8
8 1 2 21.8 2.2
-8 -1 2 24.1 3.2
-8 1 -2 26.3 3.1
-8 -1 2 25.3 2.6
8 -1 -2 30.4 2.5
0 2 -2 6.7 1
0 -2 -2 9 0.7
0 2 2 5.1 0.4
0 2 2 4.8 0.6
0 -2 2 6.6 0.9
0 2 -2 4.9 0.7
0 -2 2 4.9 0.6
1 -2 2 423.96 10.1
1 2 -2 416.26 9.7
-1 2 2 426.46 9.4
-1 -2 -2 423.16 8.7
-1 2 2 413.56 8.4
-1 -2 -2 410.96 8.2
1 2 -2 424.76 9.6
-1 2 -2 425.96 10
-1 -2 2 422.46 9.5
1 2 2 422.16 8.4
1 2 2 411.06 8.7
1 -2 -2 437.26 9.5
1 -2 -2 429.16 8.5
-1 -2 2 418.36 9.1
2 2 -2 302.57 8.5
2 2 -2 305.77 7.1
-2 2 2 318.27 8.6
2 2 -2 319.97 7.8
-2 -2 -2 315.07 7.1
2 -2 2 309.57 8.9
-2 -2 -2 320.67 7.9
2 -2 2 315.77 7.1
-2 2 2 309.17 7.2
2 -2 2 315.07 7.5
2 -2 -2 311.97 7.4
-2 2 -2 314.77 8.9
-2 -2 2 308.17 8.4
2 2 2 308.17 7.1
-2 2 -2 310.07 6.6
-2 2 -2 311.37 6.1
-2 -2 2 314.17 7.5
2 -2 -2 317.07 8.7
2 2 2 307.67 7.9
3 2 -2 56.79 1.9
-3 -2 -2 56.39 2
-3 -2 -2 62.69 2
3 -2 2 63.99 3.1
3 -2 2 59.29 1.9
-3 2 2 58.09 1.9
-3 -2 -2 62.09 3.6
-3 2 2 57.09 2.2
-3 -2 -2 57.99 2.7
3 2 -2 55.99 2.4
3 -2 -2 57.79 1.9
-3 2 -2 61.69 1.9
-3 2 -2 52.09 2.3
3 -2 -2 59.59 2.7
-3 -2 2 56.49 2.1
3 2 2 55.89 2.3
3 2 2 60.49 3.5
3 2 2 57.49 1.7
-3 -2 2 56.29 2
3 2 2 59.99 2.8
-4 -2 -2 16.4 1.4
-4 -2 -2 14.7 1.3
4 2 -2 15.3 1.6
4 -2 2 18.1 1.9
4 2 -2 17.5 1.1
4 -2 2 16.7 1.2
-4 2 2 15 1.1
-4 2 2 16.3 1.3
-4 2 -2 17.6 1.5
-4 -2 2 17.7 1.4
4 2 2 15.7 1.5
-4 -2 2 18.2 1.4
4 2 2 15.6 1
4 -2 -2 17.6 2.1
-4 2 -2 16.5 1
4 -2 -2 21.4 1.4
5 -2 2 34.5 3
5 2 -2 36.2 1.8
-5 2 2 36.4 2.3
-5 2 2 33.4 1.8
5 -2 2 39.1 2
-5 -2 -2 34.9 2.2
5 2 -2 33.7 2.9
-5 -2 -2 35.2 2
5 2 2 33.6 1.7
-5 -2 2 34.3 2.1
5 -2 -2 36.5 2
-5 -2 2 37.6 2.1
5 2 2 35.1 2.6
5 -2 -2 33.8 3.4
-5 2 -2 36.3 1.8
-5 2 -2 37.1 2.4
6 2 -2 -0.8 0.7
-6 2 2 0.5 0.8
6 -2 2 0.2 1.9
-6 -2 -2 1.6 1.3
6 -2 2 1.5 0.9
6 2 -2 1.2 1.4
-6 -2 -2 1.7 1.5
-6 2 2 0.8 0.7
6 2 2 1.8 0.7
6 -2 -2 1.2 0.9
-6 -2 2 -0.4 1.2
6 -2 -2 2.5 2.3
6 2 2 0.4 1.2
-6 -2 2 2.5 1.3
-6 2 -2 1.5 0.7
-6 2 -2 1.2 1
7 -2 2 21.5 3.5
-7 2 2 26.9 2.5
7 -2 2 25.5 2.1
-7 -2 -2 28.4 3
7 2 -2 23.5 3.1
7 2 -2 24 2.1
-7 2 2 26.5 1.9
-7 -2 -2 27.8 2.2
-7 -2 2 23.9 2.5
-7 2 -2 24.4 2.5
-7 -2 2 20.9 2.7
7 -2 -2 27.6 2.2
-7 2 -2 26.1 1.9
7 -2 -2 25 4.1
7 2 2 26.2 2
7 2 2 26.1 3.3
8 -2 2 24.3 2.2
-8 2 2 21 2.7
-8 -2 -2 18.8 2.9
-8 -2 -2 23.3 2.5
8 2 -2 22 2.5
8 -2 2 23.8 4.4
-8 2 2 21.5 2.2
8 2 -2 17.9 3.4
8 -2 -2 19.3 4.3
-8 -2 2 25.4 3
-8 2 -2 23.4 2.5
-8 -2 2 22.5 2.5
8 -2 -2 21 2.4
8 2 2 23.5 2.6
8 2 2 18.9 3.3
-8 2 -2 24.5 2.9
0 3 -2 633.64 14
0 3 2 624.94 11.9
0 -3 2 621.44 13.7
0 3 2 616.74 12.7
0 -3 -2 634.64 12.6
0 3 -2 614.84 12.7
0 -3 2 638.74 12.5
-1 3 2 190.28 5.6
-1 -3 -2 188.28 4.5
1 3 -2 190.08 5.9
1 -3 2 183.28 6.2
1 3 -2 195.38 5.9
-1 -3 -2 197.98 4.6
1 -3 -2 195.88 4.7
-1 -3 2 191.08 5.2
1 -3 -2 188.28 5.7
-1 -3 2 190.08 5.5
-1 3 -2 192.38 6.2
-1 3 -2 190.08 5
1 3 2 197.78 5.1
1 3 2 194.28 5
2 -3 2 12.5 2.2
-2 3 2 11 0.9
2 3 -2 10.5 1.1
-2 -3 -2 11.7 1.7
2 3 -2 18 2.2
-2 3 2 14.2 2.1
2 3 -2 10.2 0.9
2 -3 2 15.9 1.7
2 3 -2 10.8 1.8
-2 3 2 11 0.8
2 -3 2 10.1 1.4
-2 -3 -2 9.5 1.3
-2 3 -2 12.7 1.1
2 -3 -2 9.8 1.5
-2 3 -2 12.7 0.8
2 3 2 11.7 1.6
2 3 2 11 1.3
2 -3 -2 13.7 1.6
-2 -3 2 8.6 0.9
2 -3 -2 15.7 1.1
-2 -3 2 13.3 1.9
-2 -3 2 12.9 1
-2 3 -2 15.7 2.3
-2 -3 2 9.8 1.5
2 -3 -2 14 2.2
-3 -3 -2 39.9 1.7
-3 3 2 38.6 1.8
-3 -3 -2 38 3
3 -3 2 37.9 2.6
-3 -3 -2 38.1 2.3
-3 3 2 39 1.5
3 3 -2 39.4 1.6
-3 -3 -2 48 1.8
3 3 -2 39.2 2
3 -3 -2 38.9 2.5
3 -3 -2 36.7 1.7
3 3 2 40.7 1.9
-3 3 -2 40.7 1.9
3 3 2 38.3 1.4
-3 -3 2 38.7 1.7
-3 -3 2 38.5 1.7
3 3 2 38.1 2.4
3 3 2 42.1 3
-3 3 -2 38.3 1.5
-4 -3 -2 54.49 2.2
-4 3 2 50.39 2.4
4 -3 2 49.3 2.1
4 3 -2 47.2 2
4 3 -2 47.2 2.5
-4 -3 -2 48.5 2.2
-4 3 2 48.6 1.9
4 -3 2 52.39 3.5
-4 -3 2 50.29 2.2
4 -3 -2 53.99 2.3
4 3 2 48.4 2.5
-4 -3 2 54.39 2.3
-4 3 -2 52.99 2
-4 3 -2 49.5 2.4
4 -3 -2 52.69 3.4
4 3 2 51.79 1.9
-5 -3 -2 131.79 4.4
-5 3 2 131.69 4.6
-5 3 2 134.59 3.9
5 3 -2 131.19 5.2
5 -3 2 131.49 6.1
5 -3 2 139.39 4.1
5 3 -2 138.89 4.1
-5 -3 -2 133.19 4
-5 3 -2 139.49 4
5 -3 -2 140.89 4.2
5 3 2 141.39 5.1
-5 -3 2 132.89 4.1
5 3 2 137.69 3.9
-5 -3 2 134.09 4.4
-5 3 -2 133.89 4.7
5 -3 -2 142.89 6.1
6 -3 2 20.3 2.1
6 3 -2 21.7 2.7
-6 3 2 21 1.6
-6 -3 -2 20.4 2.1
6 -3 2 17.2 3.4
-6 3 2 22.4 2.2
-6 -3 -2 17.4 2.3
6 3 -2 19 1.9
-6 -3 2 21.5 2.2
-6 -3 2 19.1 2.2
6 3 2 16.2 1.7
-6 3 -2 17.1 1.6
-6 3 -2 20.2 2.3
6 -3 -2 21.9 2.2
6 -3 -2 20.3 3.6
6 3 2 22.6 2.8
7 -3 2 5.5 1.4
-7 3 2 3.8 1.4
7 3 -2 5.8 1.4
-7 3 2 5.9 1.2
-7 -3 -2 6.8 2
7 3 -2 5.9 1.8
7 -3 2 10.4 3.2
-7 -3 -2 6.6 2.3
7 -3 -2 6.1 3
-7 -3 2 7.3 1.8
7 -3 -2 5.3 1.6
7 3 2 2.2 2
-7 3 -2 5.6 1.3
-7 3 -2 6.9 1.7
7 3 2 10.2 2.1
-7 -3 2 7.6 2.1
-8 3 2 9.1 1.4
8 -3 2 9 1.7
8 3 -2 9.3 1.5
8 3 -2 2 2
8 -3 2 2.1 3.1
-8 3 2 6.4 1.9
-8 3 -2 7.1 1.6
-8 -3 2 2.7 1.9
-8 3 -2 10.4 2.3
8 -3 -2 8.1 1.8
-8 -3 2 4.6 2.1
8 -3 -2 2.9 3.4
0 -4 2 327.67 9
0 4 -2 331.57 8.1
0 4 -2 328.47 6.7
0 -4 2 323.57 6.3
0 -4 -2 336.67 8.1
0 4 2 325.27 8.2
0 -4 2 341.47 7.8
0 4 2 330.47 7.3
0 4 -2 326.17 9.3
0 4 -2 322.47 6.9
0 -4 2 329.57 7.6
-1 -4 -2 713.13 13.7
-1 -4 -2 699.43 14.1
-1 4 2 711.63 14.2
1 4 -2 702.13 13.5
1 -4 2 700.93 16.8
1 4 -2 688.43 16
1 4 -2 712.83 13.7
1 -4 2 709.53 14.5
1 -4 2 693.23 13
1 4 -2 714.53 16
-1 4 2 698.03 15.7
-1 -4 2 689.43 13.7
-1 4 -2 712.33 16.6
1 -4 -2 741.63 14.2
-1 4 -2 722.63 14.7
-1 -4 2 723.53 14.7
1 4 2 693.63 14.9
-1 -4 2 698.23 15.4
1 4 2 705.33 14.8
1 -4 -2 715.73 15.9
-1 -4 2 702.23 13.7
-1 4 -2 727.33 13.7
2 4 -2 96.29 4.6
2 4 -2 97.09 2.8
2 4 -2 99.09 3.3
-2 -4 -2 86.89 3.4
2 4 -2 99.29 4.6
2 -4 2 100.39 4.1
-2 -4 -2 97.59 3.8
-2 4 2 98.89 2.9
-2 4 2 94.09 2.5
-2 4 2 99.89 4.7
-2 -4 2 91.89 2.6
-2 -4 2 91.79 4.1
2 -4 -2 97.09 5.2
-2 -4 2 93.59 4
-2 4 -2 98.39 3.1
2 4 2 95.69 4
2 4 2 97.19 3.9
2 -4 -2 106.99 3.9
-2 -4 2 107.49 3.1
-2 4 -2 96.99 2.6
2 -4 -2 92.59 3.9
3 4 -2 11 1
3 4 -2 9.6 1.3
-3 -4 -2 9.5 1.3
-3 -4 -2 11 1.2
3 -4 2 10.1 2.1
-3 4 2 11.4 1.3
-3 4 2 12 0.9
-3 -4 2 9.9 1.2
3 4 2 11.8 0.9
3 4 2 12.9 1.4
-3 -4 2 12.2 1.3
3 -4 -2 10.3 1.9
-3 4 -2 11.3 1
3 -4 -2 11.9 1.2
-3 4 -2 12 1.3
4 -4 2 39.2 3.6
-4 -4 -2 38.8 2
-4 -4 -2 35.6 2.2
4 4 -2 40.5 1.9
4 -4 2 38.8 2.2
-4 4 2 40.4 2.2
4 4 -2 40.4 2.5
-4 4 2 43.2 1.9
-4 4 -2 37.4 2.3
-4 4 -2 37.5 1.7
4 4 2 39.8 2.3
-4 -4 2 44 2.4
4 -4 -2 41.3 2.3
4 -4 -2 38.2 3.9
-4 -4 2 38.1 2.2
4 4 2 40.2 1.7
5 -4 2 2.9 1.2
5 4 -2 1.8 1.1
-5 4 2 1.8 0.7
5 4 -2 1.4 0.8
-5 4 2 2.2 1
5 -4 2 1.1 2.2
5 -4 -2 0.4 2.4
-5 4 -2 0.2 0.8
-5 -4 2 1.1 1.2
5 -4 -2 3.1 1.4
-5 -4 2 1.8 1.2
-5 4 -2 1.7 0.6
6 4 -2 7.2 1.3
-6 4 2 7.6 1.2
-6 4 2 8.4 1.6
6 -4 2 7.1 3.3
6 4 -2 9.7 2.1
6 -4 2 7.3 1.7
-6 4 -2 7.8 1.6
-6 -4 2 8.2 1.8
6 -4 -2 7 1.6
-6 -4 2 8.7 1.6
-6 4 -2 7.6 1.2
6 -4 -2 7.2 3.2
7 -4 2 26.3 4.8
-7 4 2 27.3 2.1
7 4 -2 25 2.5
7 4 -2 23.7 3.1
7 -4 2 33.5 2.7
-7 4 2 29.4 2.7
7 -4 -2 26.6 4.3
-7 4 -2 25.5 2.9
-7 4 -2 30.4 2.3
-7 -4 2 23.4 2.7
7 -4 -2 29.9 2.6
-7 -4 2 25.9 2.7
0 -5 2 181.28 6.9
0 -5 -2 139.39 8.3
0 5 -2 186.58 4.4
0 5 2 172.58 6.9
0 5 -2 191.28 5.9
0 -5 2 177.88 3.9
0 -5 2 182.38 5.4
0 5 -2 189.08 7
0 -5 2 184.88 5.4
0 5 -2 193.38 4.6
1 5 -2 14.1 2.1
1 5 -2 11.8 2.4
-1 5 2 18.6 1.2
1 5 -2 14.6 1.2
-1 5 2 15.2 2.3
1 -5 2 14.8 2.2
-1 5 2 15.9 1.4
1 5 -2 11.1 1.1
1 -5 2 16.1 1.1
-1 -5 2 17 1
-1 -5 2 16.8 1.8
-1 5 -2 15.9 1.3
-1 -5 2 16.5 2.3
-1 -5 2 12.8 1.6
1 -5 -2 14.8 2.1
1 -5 -2 18.1 2.9
1 -5 -2 17.3 1.7
2 5 -2 107.69 3.2
2 -5 2 110.69 4.9
-2 5 2 114.59 3.3
-2 5 2 110.49 2.8
2 5 -2 108.19 3.6
-2 -5 2 104.49 2.9
-2 -5 2 113.59 3.7
-2 5 -2 105.79 3.4
2 -5 -2 116.79 5.1
3 -5 2 34.1 3.5
3 5 -2 36.5 1.7
-3 5 2 34.5 1.9
-3 5 2 35.1 1.5
3 5 -2 35 2
-3 5 -2 36.7 2
-3 5 -2 36.6 1.6
3 -5 -2 38.2 3.9
-3 -5 2 33.8 1.8
-3 -5 2 34.8 2.1
3 -5 -2 31.8 2.1
4 5 -2 0.1 1.2
4 -5 2 1.6 2.3
-4 5 2 2.2 0.7
4 -5 2 2.2 1.2
-4 5 2 0.7 0.9
4 5 -2 1.8 0.9
4 -5 -2 1 2.7
-4 -5 2 2.2 1.1
-4 -5 2 4.9 1.5
-4 5 -2 2.4 0.9
4 -5 -2 1.8 1.4
-4 5 -2 2 0.7
-5 5 2 82.09 3.7
5 -5 2 83.79 3.5
5 5 -2 79.89 3.2
5 5 -2 77.79 4
-5 5 2 78.19 2.9
5 -5 2 86.59 5.8
-5 5 -2 84.39 3.8
5 -5 -2 84.99 3.5
-5 5 -2 81.99 3
-5 -5 2 83.49 3.7
5 -5 -2 76.89 6
-5 -5 2 82.09 3.5
-6 5 2 17 1.6
-6 5 2 13.8 2
6 -5 2 16.5 2.1
6 -5 2 11.6 3.8
6 -5 -2 17.9 4.1
6 -5 -2 17.2 2
-6 5 -2 17.9 2.3
-6 5 -2 16.6 1.7
-7 5 2 34.7 3
7 -5 2 28.3 4.6
7 -5 2 32.5 3.1
-7 5 2 31.7 2.3
-7 5 -2 35 3.1
7 -5 -2 31.7 3
7 -5 -2 28.4 5.1
-7 5 -2 33.9 2.3
0 6 -2 422.06 9
0 6 -2 422.06 9
0 -6 2 420.16 9.9
0 -6 2 413.86 8.2
1 -6 2 118.89 5.4
1 -6 2 117.59 3.1
1 6 -2 121.59 3.7
1 6 -2 120.29 3.7
-1 -6 2 110.09 2.9
-1 6 -2 116.69 3.6
-1 6 -2 117.39 3.4
-1 -6 2 123.99 4.2
2 -6 2 -2.6 2.5
2 6 -2 -0.5 0.6
-2 6 2 0.9 0.5
2 6 -2 1.1 0.7
-2 -6 2 -1.5 1.3
-2 -6 2 1.3 0.8
2 -6 -2 0 2.1
-2 6 -2 1.2 0.6
-3 6 2 51.89 2.5
-3 6 2 51.89 2.1
3 -6 2 58.29 5.1
3 -6 -2 54.29 4.6
-3 6 -2 49.7 2.6
3 -6 -2 53.49 2.5
-4 6 2 55.19 2.2
-4 6 2 52.39 2.8
4 -6 2 55.69 2.9
4 -6 2 57.69 5.6
-4 6 -2 50.99 2.3
-4 6 -2 51.59 2.8
4 -6 -2 47.1 5.1
4 -6 -2 53.19 2.8
5 -6 2 9.7 1.8
-5 6 2 9.7 1.2
5 -6 2 11.5 3.3
-5 6 2 8.9 1.6
-5 6 -2 6.7 1.6
5 -6 -2 12.3 3.7
5 -6 -2 9.3 1.8
-5 6 -2 9.7 1.2
6 -6 2 23.4 4.4
-6 6 2 23.6 2
-6 6 2 23.5 2.5
6 -6 2 24.6 2.5
-6 6 -2 25.9 2.7
-6 6 -2 28.1 2
6 -6 -2 24.6 2.5
6 -6 -2 21.5 4.6
-7 6 2 1.3 0.9
-7 6 2 2.3 1.4
7 -6 2 -1.3 1.6
7 -6 2 2.2 3.5
7 -6 -2 -1 1.7
-7 6 -2 0.6 1.3
7 -6 -2 -0.1 3.6
1 -7 2 26 1.8
1 -7 2 30.9 3.8
-1 7 -2 27.6 1.6
-1 7 -2 24.9 1.9
2 -7 2 32.4 4
-2 7 -2 29.8 2.2
3 -7 2 96.89 6.3
-3 7 -2 99.39 3.9
4 -7 2 26.2 2.5
4 -7 2 19.8 3.8
-4 7 -2 25.2 2.2
4 -7 -2 20.2 6.2
5 -7 2 35.6 2.9
5 -7 2 33.4 4.7
-5 7 2 38.4 2.1
-5 7 2 36.3 2.7
5 -7 -2 34.2 2.9
-5 7 -2 33.6 2.8
5 -7 -2 34.1 4.8
-6 7 2 3.8 1.4
6 -7 2 -0.3 3.9
6 -7 2 5 1.9
-6 7 2 5 1
6 -7 -2 5.5 1.8
6 -7 -2 7.9 3.8
-6 7 -2 4.3 1.5
3 -8 2 23.3 4.2
-3 8 -2 24 2.4
4 -8 2 45.3 3.2
4 -8 2 38.6 5.2
-4 8 -2 50.19 3
5 -8 2 18.2 2.2
5 -8 2 17.9 4.3
-5 8 -2 14.1 2.3
6 -8 2 15.6 2.3
6 -8 2 19 4.4
-6 8 -2 12.7 2.2
0 0 3 0 0.1
0 0 -3 0.2 0.1
0 0 3 0.1 0.1
1 0 -3 288.17 6.8
-1 0 -3 289.07 6.6
1 0 -3 285.97 6.2
-1 0 3 292.77 6.8
-1 0 3 283.77 6.1
1 0 3 292.67 5.9
1 0 3 295.77 6.7
-2 0 -3 43.2 1.8
-2 0 -3 42.7 2.5
2 0 3 43.8 1.9
-2 0 3 46.1 2
-2 0 3 47.1 2.7
2 0 3 40.6 2.5
2 0 -3 45 2.1
3 0 3 15.5 1.6
-3 0 -3 15.6 1.6
-3 0 -3 16.3 1.3
3 0 3 21.7 1.8
-3 0 -3 17.9 2.5
3 0 -3 17.1 2.9
-3 0 3 16.3 1
3 0 -3 15.3 1.5
-3 0 3 14 1.9
3 0 -3 19.9 2.5
-3 0 -3 16.2 1
3 0 3 19.6 2.6
3 0 3 16.1 0.9
-3 0 3 18.9 2.7
4 0 3 216.48 6.2
-4 0 3 226.88 5.6
4 0 -3 212.78 6.1
4 0 3 216.88 4.9
-4 0 -3 212.68 5
-4 0 3 220.28 5.1
4 0 -3 216.48 5
-4 0 -3 220.98 5.5
-5 0 3 142.99 4.5
5 0 3 143.89 5.3
5 0 -3 137.89 3.9
-5 0 3 136.49 3.9
5 0 -3 139.09 5.2
-5 0 -3 130.19 3.9
-5 0 -3 140.29 4.4
5 0 3 142.59 3.8
6 0 3 49.7 2.3
-6 0 3 56.99 3.1
6 0 3 53.89 3.8
6 0 -3 53.69 2.5
6 0 -3 50.69 3.8
-6 0 3 52.79 2.6
-6 0 -3 53.49 2.6
-6 0 -3 50.29 2.9
-7 0 -3 11.7 1.5
-7 0 -3 14.2 2.2
-7 0 3 15.2 2.1
7 0 -3 13.7 1.7
7 0 3 13.5 2.7
-7 0 3 12.7 1.7
7 0 -3 15 2.9
7 0 3 16.9 1.5
-8 0 3 26.6 2.9
8 0 3 22.5 3.7
-8 0 3 25.8 2.5
-8 0 -3 30.8 2.6
-8 0 -3 33.6 3.5
8 0 3 25.8 2.2
8 0 -3 27.6 2.5
8 0 -3 27.1 4.4
0 1 3 258.67 4.7
0 -1 -3 250.47 4.7
0 1 3 241.58 4.5
0 -1 -3 247.98 4.6
0 1 -3 252.07 5.4
0 -1 3 250.37 5.9
0 1 -3 250.97 6
0 -1 3 250.87 5.3
-1 1 3 519.75 10.8
1 -1 3 516.95 11.3
1 1 -3 518.45 10.7
-1 -1 -3 508.65 10.2
-1 1 3 497.55 10
-1 -1 -3 507.95 9.6
1 1 -3 529.35 11.2
1 1 3 504.05 9.7
-1 -1 3 518.75 10.5
-1 1 -3 523.05 11.3
1 -1 -3 508.05 10
1 -1 -3 516.15 10.8
1 1 3 512.85 10.2
-1 -1 3 522.55 11.2
-2 1 3 164.68 5.5
-2 -1 -3 168.28 5.1
2 -1 3 161.88 5.6
-2 1 3 157.88 4.4
2 1 -3 170.48 4.8
2 1 -3 153.18 5.4
-2 -1 -3 166.48 4.2
2 -1 3 167.88 4.5
2 1 3 158.28 5
2 1 3 162.58 4.3
-2 -1 3 164.18 5.5
-2 -1 3 157.28 4.5
-2 1 -3 157.98 5.5
2 -1 -3 161.08 4.5
2 -1 -3 160.68 5.4
-3 -1 -3 7 0.8
-3 -1 -3 10.3 1.8
3 1 -3 10.2 1.3
-3 -1 -3 8.9 0.9
-3 1 3 11.4 1.1
3 1 -3 11 0.9
3 -1 3 9.4 0.8
3 -1 3 9.1 1.3
-3 -1 -3 10.1 1.3
-3 1 3 7.4 0.8
3 1 3 10.5 1.4
3 1 3 8.9 0.7
-3 -1 3 8.4 0.9
-3 -1 3 9.1 0.9
-3 1 -3 8.2 1
-3 1 -3 9.9 0.8
3 -1 -3 7.9 0.8
3 -1 -3 8.3 1.2
3 1 3 11.3 2
3 1 3 9.1 1.2
4 -1 3 35.6 1.6
-4 1 3 36.3 1.7
-4 -1 -3 33.8 1.6
4 1 -3 33.3 1.5
4 -1 3 32 2.3
-4 -1 -3 34.9 1.8
-4 1 3 32.7 1.9
4 1 -3 34.3 2.3
4 1 3 32.4 2.2
-4 -1 3 35.5 1.9
4 1 3 36.3 1.5
-4 -1 3 37.9 1.7
4 -1 -3 37.8 2.5
-4 1 -3 36.3 1.6
4 -1 -3 37.6 1.6
-4 1 -3 42.4 2.1
5 -1 3 4.2 1.6
-5 -1 -3 5.4 1.1
-5 1 3 3.3 0.8
5 -1 3 3 0.9
5 1 -3 4 0.9
5 1 -3 4.5 1.4
-5 -1 -3 4.1 1.1
-5 1 3 4.9 1.1
5 1 3 3.7 0.8
5 1 3 2.5 1.3
-5 -1 3 4.3 1.1
-5 1 -3 5.1 0.9
5 -1 -3 4.5 1.5
-5 -1 3 3 0.9
-5 1 -3 4.1 1
5 -1 -3 2.9 0.9
6 1 -3 15.5 1.5
6 -1 3 18 2.5
6 1 -3 13.7 2.2
-6 1 3 14.3 1.9
-6 -1 -3 14.3 1.9
6 -1 3 18.1 1.5
-6 1 3 14.4 1.5
-6 -1 -3 15.1 1.8
6 -1 -3 12.2 2.5
-6 -1 3 13.8 1.8
-6 1 -3 13.6 1.4
-6 -1 3 17.3 1.8
6 1 3 15.3 2.2
-6 1 -3 15.9 2
6 1 3 14.5 1.3
6 -1 -3 15.6 1.6
-7 1 3 12.7 1.6
-7 -1 -3 14 1.8
7 1 -3 15.3 2.7
-7 -1 -3 12.7 2.2
-7 1 3 12.7 2
7 1 -3 11.9 1.7
7 -1 3 14.7 1.6
7 -1 3 13.6 2.8
-7 1 -3 16.1 2.3
7 -1 -3 12.3 2.8
7 -1 -3 9.9 1.6
-7 -1 3 13.7 1.6
7 1 3 11.4 1.5
-7 -1 3 13.2 2
7 1 3 13 2.6
-7 1 -3 12.8 1.6
8 1 -3 28 4
8 -1 3 18.8 3.5
8 1 -3 29.1 2.6
8 -1 3 24.3 2.3
-8 1 3 21.8 2.3
-8 1 3 23.2 2.9
-8 -1 -3 28.3 3.4
-8 -1 -3 21 2.3
8 1 3 22.4 2.2
-8 1 -3 24.6 2.4
8 1 3 28.3 3.8
8 -1 -3 21.5 4.3
-8 -1 3 29 2.7
8 -1 -3 23.4 2.5
-8 1 -3 23 2.9
-8 -1 3 21.4 3
0 -2 -3 324.77 6.2
0 2 -3 338.37 8.4
0 2 3 335.77 6.2
0 2 -3 334.87 7.3
0 2 3 338.87 6.5
0 -2 3 337.37 8.1
0 -2 -3 331.47 6.6
0 -2 3 336.77 7.2
-1 2 3 838.42 16.4
-1 -2 -3 818.72 15.4
-1 -2 -3 807.42 14.9
1 2 -3 836.82 17
1 -2 3 821.62 17.5
-1 2 3 812.22 15.4
1 2 -3 787.02 17
1 -2 -3 821.52 15.5
-1 2 -3 819.42 17.3
-1 2 -3 819.32 15.9
-1 -2 3 841.62 16.7
1 -2 -3 821.42 16.4
1 2 3 838.72 15.1
-1 -2 3 820.02 16.4
1 2 3 806.12 15.5
2 2 -3 199.58 4.8
-2 2 3 197.48 5.2
2 -2 3 201.58 6.7
-2 -2 -3 200.88 5.7
2 -2 3 200.78 5.4
-2 -2 -3 196.38 4.9
2 2 -3 194.88 4.2
2 2 -3 200.68 5.8
2 2 -3 200.28 6.5
-2 2 3 196.08 6.3
-2 2 -3 198.08 4.6
2 -2 -3 196.88 5.3
-2 -2 3 187.38 6.3
2 2 3 203.78 4.9
-2 2 -3 194.88 4.2
2 -2 -3 205.18 6.5
-2 -2 3 200.18 5.5
2 2 3 190.98 5.7
-2 2 -3 205.08 6.7
-2 -2 3 194.48 4.4
-2 -2 3 197.58 4.4
3 -2 3 138.79 4.5
-3 2 3 131.59 3.7
-3 -2 -3 133.99 3.4
3 2 -3 139.69 4.2
-3 -2 -3 130.39 4.3
-3 -2 -3 141.89 3.3
-3 2 3 135.19 3.3
-3 -2 -3 132.49 5.3
3 2 -3 130.79 3.3
-3 2 -3 139.29 3.8
3 -2 -3 136.19 4.2
3 2 3 134.19 5.4
-3 -2 3 132.59 3.4
3 2 3 138.39 3.9
-3 2 -3 132.99 3.3
-3 -2 3 135.89 3.7
3 -2 -3 130.09 3.3
3 2 3 132.39 3.1
3 2 3 137.79 4.4
4 2 -3 11.3 1.1
4 -2 3 12.4 1
4 -2 3 10.5 1.7
-4 2 3 11.5 0.9
-4 2 3 12.3 1.2
-4 -2 -3 14.4 1.3
-4 -2 -3 13.6 1.2
4 2 -3 11.5 1.5
4 -2 -3 13.2 1.8
-4 2 -3 11.2 0.9
-4 -2 3 13.6 1.2
-4 2 -3 9.1 1.2
-4 -2 3 14.8 1.3
4 2 3 12.9 0.9
4 -2 -3 9.6 1.1
4 2 3 10.2 1.3
-5 -2 -3 68.59 3
5 2 -3 70.39 2.7
5 -2 3 73.09 2.7
5 2 -3 73.19 3.8
5 -2 3 73.79 4.1
-5 2 3 74.19 3.2
-5 -2 -3 71.49 2.8
-5 2 3 71.69 2.7
-5 2 -3 75.89 3.2
5 -2 -3 75.39 4.4
5 2 3 69.19 3.5
5 2 3 68.59 2.4
-5 2 -3 68.99 2.6
-5 -2 3 69.49 3
5 -2 -3 72.59 2.7
-5 -2 3 71.89 2.8
-6 2 3 32.4 2.3
-6 2 3 32.4 2.1
6 -2 3 29.4 3.4
6 2 -3 33.1 2.2
-6 -2 -3 32 2.8
-6 -2 -3 36.9 2.5
6 -2 3 35.2 2.1
6 2 -3 31.1 2.8
6 2 3 27.4 2.9
-6 -2 3 32 2.2
-6 2 -3 33.5 2.5
-6 -2 3 30.8 2.8
6 -2 -3 32 2.1
6 2 3 37.6 2
6 -2 -3 30.8 3.5
-6 2 -3 32 1.9
-7 2 3 53.79 3.4
-7 -2 -3 50.99 3.7
7 -2 3 52.39 2.8
7 2 -3 56.79 2.9
-7 2 3 48.7 2.7
-7 -2 -3 51.99 3
7 -2 3 49 4.8
7 2 -3 52.39 4
7 2 3 51.29 2.7
-7 2 -3 55.39 3.4
7 -2 -3 54.29 5.4
-7 2 -3 51.49 2.7
7 -2 -3 53.79 3.1
-7 -2 3 55.49 3
-7 -2 3 48.9 3.7
7 2 3 46.4 3.8
-8 -2 -3 14.4 2.6
8 -2 3 11.4 1.8
-8 2 3 10 1.8
-8 -2 -3 14.6 1.9
-8 2 3 12.3 2.2
8 -2 3 8.9 3.4
8 2 -3 7.3 2.5
8 2 -3 9.6 2
8 2 3 10.1 2.6
-8 2 -3 14.7 2.5
8 2 3 6.8 1.8
8 -2 -3 13.2 3.5
-8 -2 3 10.8 2.2
8 -2 -3 11.9 2
-8 2 -3 11 1.7
-8 -2 3 13.5 2.6
0 -3 3 51.89 2.1
0 3 3 51.99 2
0 -3 3 48.6 2.7
0 -3 -3 53.69 2.1
0 3 -3 48.7 3
0 3 -3 53.29 2.3
0 3 3 51.39 1.6
-1 -3 -3 303.87 6.3
-1 -3 -3 304.27 6.3
1 -3 3 301.77 7.1
1 -3 3 307.07 8.8
1 3 -3 303.47 8.4
-1 3 3 301.47 7.6
1 3 -3 304.77 8.2
1 -3 3 294.77 5.8
-1 3 -3 298.87 6.4
1 -3 -3 310.27 7.7
1 3 3 299.67 6.8
-1 3 -3 307.77 8.7
-1 -3 3 287.37 7.7
-1 -3 3 303.47 7.5
1 3 3 302.77 6.7
-1 3 -3 309.17 7.2
1 -3 -3 304.07 6.7
2 3 -3 278.27 8.5
2 -3 3 265.47 8.8
-2 3 3 278.07 6.7
-2 3 3 273.67 6
2 3 -3 274.97 6.4
-2 -3 -3 270.67 6.4
-2 -3 -3 270.77 7.2
2 3 -3 292.67 8.2
2 -3 3 274.57 6.9
2 3 -3 285.47 5.9
-2 3 3 272.67 8.2
2 -3 3 277.57 7.1
-2 3 3 273.67 5.5
-2 3 -3 279.47 8.8
2 -3 -3 271.57 5.6
-2 -3 3 273.27 5.8
2 3 3 281.17 6.7
2 -3 -3 273.27 6.6
-2 -3 3 279.77 7.3
2 -3 -3 279.57 8.4
-2 3 -3 273.77 5.6
-2 -3 3 266.57 8.1
2 3 3 277.17 7.3
-2 3 -3 270.47 6.2
-2 -3 3 290.77 6
2 -3 -3 276.37 7
-3 -3 -3 6.3 1.2
3 -3 3 11.7 1.7
3 3 -3 12.5 1.3
-3 3 3 8 0.7
-3 -3 -3 10.5 1
3 3 -3 8.5 0.8
-3 -3 -3 6.4 0.9
-3 -3 -3 7.7 1.6
3 3 3 6.2 1.5
3 -3 -3 11.9 1.8
-3 3 -3 8.9 1.1
3 -3 -3 5.5 0.9
3 3 3 7.9 1.2
3 3 3 6.5 0.7
-3 3 -3 8.1 0.8
3 3 3 10.7 1.1
-3 -3 3 8.3 1
4 -3 3 51.99 3.3
-4 -3 -3 47 2.2
4 3 -3 51.29 2.1
-4 3 3 49.4 2.3
4 -3 3 51.19 2.1
-4 3 3 52.49 2
4 3 -3 50.79 2.7
-4 -3 -3 51.69 2.2
4 3 3 53.59 2.5
-4 -3 3 47.1 2.2
4 3 3 50.29 1.8
4 -3 -3 48.1 3.7
4 -3 -3 50.49 2.3
-4 3 -3 50.69 2
-4 -3 3 50.29 2.2
-4 3 -3 53.69 2.5
-5 -3 -3 37.2 2.3
-5 -3 -3 33.7 2.4
5 3 -3 34.7 2.1
5 -3 3 38.2 2.2
-5 3 3 38 1.9
5 3 -3 40.9 3
5 -3 3 37.2 3.6
-5 3 3 33.6 2.5
5 3 3 34.1 2.6
-5 3 -3 38.2 1.9
5 3 3 38.4 1.8
5 -3 -3 41.1 4.4
5 -3 -3 35.3 2.3
-5 -3 3 36.7 2.3
-5 -3 3 37.1 2.4
-5 3 -3 35.1 2.6
-6 3 3 66.59 3.5
-6 3 3 73.99 2.9
6 3 -3 71.19 3.1
6 3 -3 72.39 4.2
-6 -3 -3 80.09 3.9
6 -3 3 76.09 3.1
6 -3 3 81.39 5.3
-6 -3 -3 69.59 3.1
6 -3 -3 72.39 3.3
-6 -3 3 70.99 3.5
6 3 3 65.29 3.8
-6 3 -3 74.29 3.6
-6 -3 3 73.19 3.3
-6 3 -3 71.19 2.9
6 -3 -3 68.49 5.1
6 3 3 64.89 2.8
7 -3 3 15.7 3.6
7 -3 3 25.2 2.2
-7 3 3 18.9 2
-7 3 3 19.7 2.5
7 3 -3 21.4 3.1
7 3 -3 20.9 2.2
7 -3 -3 18.9 4
-7 3 -3 21.3 1.8
-7 -3 3 17.2 2.2
7 -3 -3 19.6 2.2
-7 3 -3 21.3 2.6
-7 -3 3 19.3 2.6
-8 3 3 32.4 2.4
8 -3 3 33.2 2.7
8 3 -3 24.6 3.5
8 3 -3 33.8 2.5
-8 3 3 32.4 3.1
8 -3 3 22.1 4.5
-8 3 -3 31 2.6
-8 -3 3 29.3 2.9
8 -3 -3 30 5.1
-8 3 -3 28.3 3.2
-8 -3 3 33.2 3.5
8 -3 -3 25.4 2.7
0 4 -3 40.2 2.4
0 -4 3 38.3 1.3
0 4 -3 42.8 1.7
0 -4 3 41.3 3.1
0 4 3 42.8 1.8
0 4 3 41.7 2.3
0 4 -3 41.5 1.7
0 -4 3 43.7 2.3
0 4 -3 44.3 3.1
0 -4 3 39.4 2.4
0 -4 -3 48.1 2.6
-1 4 3 119.49 4.5
1 4 -3 118.29 5
1 4 -3 125.19 5
-1 -4 -3 120.49 3.2
1 4 -3 124.19 3.4
1 -4 3 116.49 2.8
-1 -4 -3 121.59 3.4
1 -4 3 124.89 5.8
1 4 -3 119.49 3.2
1 -4 3 129.79 4.4
-1 4 3 121.49 3.6
-1 -4 3 125.29 3.6
1 4 3 115.99 3.8
1 4 3 124.39 4.1
-1 4 -3 119.79 3.4
-1 4 -3 127.29 5.6
1 -4 -3 125.39 3.7
1 -4 -3 125.89 4.9
-1 -4 3 125.79 4.1
-1 -4 3 117.29 2.8
-1 4 -3 121.49 4.1
-1 -4 3 123.09 4.7
2 -4 3 103.69 4.3
2 4 -3 107.59 3.4
2 4 -3 95.89 5
-2 4 3 104.79 2.6
2 4 -3 104.39 3
2 4 -3 105.09 4.9
-2 4 3 100.49 3
-2 4 3 111.19 4.9
-2 -4 3 102.29 2.8
-2 -4 3 99.79 4.5
-2 -4 3 107.39 3.3
2 -4 -3 112.39 4
-2 -4 3 100.59 4.3
2 -4 -3 108.09 4.1
-2 4 -3 99.29 3.2
2 -4 -3 106.49 2.7
2 -4 -3 104.79 5.4
3 4 -3 23.4 1.4
3 4 -3 24.7 1.7
-3 4 3 21.1 1.1
3 -4 3 22.1 2.6
-3 4 3 19.8 1.4
-3 -4 3 21.9 1.4
3 -4 -3 22.3 2.5
-3 -4 3 19 1.6
-3 4 -3 21.3 1.5
-3 4 -3 23.6 1.2
3 -4 -3 20.1 1.6
-4 4 3 6.9 1.2
4 4 -3 6.4 1.3
4 -4 3 8.6 2.5
4 4 -3 7.9 1
-4 4 3 8.6 1.1
4 -4 3 9 1.3
-4 -4 3 7.1 1.3
4 -4 -3 8.2 1.4
-4 4 -3 8.2 1
4 -4 -3 9.8 2.5
-4 4 -3 7.4 1.2
-4 -4 3 6.9 1.2
-5 4 3 52.49 2.3
5 -4 3 56.19 2.8
-5 4 3 54.09 2.8
5 4 -3 52.19 3.3
5 -4 3 55.49 4.6
5 4 -3 52.89 2.5
-5 -4 3 56.19 3
-5 4 -3 53.69 3
-5 4 -3 49.9 2.3
5 -4 -3 56.59 2.9
5 -4 -3 51.99 4.4
-5 -4 3 49.9 2.9
6 -4 3 2.5 3
6 4 -3 1.3 1
6 -4 3 1.9 1.4
6 4 -3 2.8 1.5
-6 4 3 3.5 0.9
-6 4 3 3.1 1.1
6 -4 -3 3.4 1.5
-6 -4 3 1.8 1.5
-6 -4 3 1.7 1.3
-6 4 -3 2.9 1.2
-6 4 -3 3.3 0.9
6 -4 -3 1 3
7 4 -3 77.79 5
7 -4 3 93.19 4
7 -4 3 87.29 7.1
7 4 -3 89.19 3.9
-7 4 3 89.59 4.4
-7 4 3 82.09 3.4
7 -4 -3 71.09 6.7
7 -4 -3 87.49 4.1
-7 -4 3 84.59 4
-7 -4 3 92.49 4.5
-7 4 -3 85.19 3.5
-7 4 -3 87.09 4.4
8 4 -3 10.7 2.8
8 4 -3 14.5 2.2
-8 -4 3 13.6 2.4
-8 -4 3 14.5 2.5
0 -5 3 18.8 2.1
0 -5 3 24.2 2.1
0 -5 3 18 1
0 5 -3 20.8 1.3
0 -5 3 16.6 2.7
0 5 -3 21.4 1.6
0 5 -3 22.7 2.3
0 5 -3 25 3.2
1 5 -3 179.38 4.7
-1 5 3 182.38 4.3
1 -5 3 174.28 4
1 -5 3 189.48 6
1 5 -3 180.98 4.5
-1 -5 3 179.18 4
-1 -5 3 177.98 5
1 -5 -3 189.38 5.3
-1 5 -3 181.48 4.7
-2 5 3 165.38 4.3
-2 5 3 171.58 3.8
2 -5 3 155.18 5.9
2 5 -3 165.68 4.8
2 5 -3 172.78 4.4
-2 -5 3 172.28 4.7
2 -5 -3 173.28 5.9
-2 5 -3 168.88 4.7
-2 -5 3 163.78 4
3 5 -3 4.1 0.8
3 -5 3 4.9 2.4
-3 5 3 5.2 0.9
-3 5 3 4.1 0.6
3 5 -3 3.1 0.9
3 -5 -3 3.3 1.2
-3 5 -3 3.8 0.9
-3 -5 3 2.6 0.9
-3 -5 3 4.4 1.3
-3 5 -3 4 0.8
3 -5 -3 5.3 2.4
4 5 -3 14.8 2.1
4 -5 3 9.6 1.4
4 5 -3 14.3 1.6
-4 5 3 11.3 1.6
-4 5 3 12.4 1.1
4 -5 3 11.7 2.8
-4 -5 3 11.5 1.5
-4 5 -3 13.4 1.7
-4 -5 3 11.8 1.8
-4 5 -3 14.3 1.2
4 -5 -3 11 1.5
4 -5 -3 14.2 3.1
5 -5 3 14.3 1.9
-5 5 3 12.2 1.3
5 -5 3 12.5 3.5
-5 5 3 13.8 1.8
5 5 -3 10 1.9
5 5 -3 12.7 1.6
5 -5 -3 12.3 1.9
5 -5 -3 13.7 3.6
-5 5 -3 13.7 1.9
-5 -5 3 11.3 1.8
-5 5 -3 14.1 1.4
-5 -5 3 12.3 2
6 -5 3 49.4 5.5
-6 5 3 46.1 3
-6 5 3 47.5 2.5
6 5 -3 42.5 3.5
6 5 -3 44.7 2.7
6 -5 3 45.9 3.1
-6 5 -3 48.5 2.5
6 -5 -3 41.3 5
-6 5 -3 49.5 3.2
-6 -5 3 48 3
-6 -5 3 49.8 3.1
6 -5 -3 47.4 3
7 -5 3 33 4.9
-7 5 3 32.5 2.2
-7 5 3 31.7 3
7 -5 3 29.2 3.1
-7 5 -3 37.9 2.3
-7 5 -3 38.7 3.2
7 -5 -3 37.3 3.1
7 -5 -3 29.1 4.8
0 6 -3 34.8 1.9
0 6 -3 36.2 1.8
0 -6 3 43.4 3.4
0 -6 3 35.7 1.6
1 -6 3 20.9 3.1
1 6 -3 20.9 1.6
1 6 -3 14.5 1.4
1 -6 3 17.7 1.4
-1 6 -3 19.2 1.3
-1 -6 3 15.6 1.2
-1 -6 3 19.8 2.1
-1 6 -3 17.2 1.5
2 6 -3 8.8 1.2
2 -6 3 7.7 2.7
2 6 -3 8.3 1.3
-2 -6 3 11.4 1.8
-2 -6 3 9.9 1.1
-2 6 -3 10.1 1.3
3 -6 3 29.4 4
-3 6 3 28.5 1.5
3 6 -3 29.3 1.9
3 6 -3 32 2.3
-3 6 3 33.6 2
-3 6 -3 30.9 2.2
3 -6 -3 33.3 3.6
-3 -6 3 25.9 1.9
-3 -6 3 27.3 2.4
3 -6 -3 28 2.1
-4 6 3 20.3 1.8
-4 6 3 19.9 1.3
4 -6 3 19.1 4
4 -6 -3 21.4 2.2
4 -6 -3 17.9 3.5
-4 6 -3 18.1 2.1
-5 6 3 22.6 1.8
5 -6 3 27.4 2.4
-5 6 3 24.6 2.1
5 -6 3 20.9 3.9
5 -6 -3 27.5 4.2
-5 6 -3 26.7 2.5
-5 6 -3 22.8 1.7
5 -6 -3 28 2.5
-6 6 3 2.8 1.1
-6 6 3 4.2 1.5
6 -6 3 0.6 3
6 -6 3 5.1 1.6
-6 6 -3 7.7 1.8
6 -6 -3 -0.2 3.4
-6 6 -3 5.8 1.1
6 -6 -3 7.3 1.7
7 -6 3 15.1 2.5
-7 6 3 22.9 2.2
-7 6 3 26 2.7
7 -6 3 24.3 4.9
-7 6 -3 26.2 2.2
7 -6 -3 24 2.7
-7 6 -3 21.5 2.8
7 -6 -3 21.2 4.9
0 -7 3 14.3 2.6
0 7 -3 13 1.5
0 -7 3 12.5 1.3
0 7 -3 13 1.4
1 -7 3 38.9 2.1
1 -7 3 41.7 4.2
-1 7 -3 40.3 2.3
-1 7 -3 42.7 2
2 -7 3 26.7 4.1
-2 7 -3 27.8 2.2
3 -7 3 20.6 4
-3 7 -3 18.7 1.9
4 -7 3 28.1 4.4
-4 7 -3 28.9 2.5
5 -7 3 32.4 2.9
5 -7 3 31 5
-5 7 -3 33.6 2.8
6 -7 3 25 2.6
-6 7 3 24.8 2.9
6 -7 3 20.5 4.8
-6 7 3 27.3 2
6 -7 -3 32.8 2.8
6 -7 -3 28.1 5.2
-6 7 -3 25 2.6
2 -8 3 38.5 4.8
-2 8 -3 32.1 2.1
-2 8 -3 31.3 2.3
3 -8 3 10.7 3.5
-3 8 -3 9.5 1.6
4 -8 3 39.9 2.7
4 -8 3 31.7 5
-4 8 -3 32.6 2.7
5 -8 3 -0.7 3.8
5 -8 3 0.2 1.7
-5 8 -3 -0.1 1.2
6 -8 3 4.4 3.8
6 -8 3 0.8 1.8
-6 8 -3 3.3 1.6
0 0 -4 3055.99 57.49
0 0 4 3269.87 92.19
0 0 4 3118.29 57.69
0 0 -4 3269.87 58.59
1 0 -4 103.79 3
-1 0 -4 98.39 3.2
1 0 4 102.59 3.3
1 0 -4 100.59 3.4
1 0 4 101.39 2.6
-1 0 4 107.59 3.4
-1 0 4 101.39 2.9
-2 0 -4 2.8 0.6
2 0 -4 2 0.8
2 0 4 1.7 0.5
-2 0 4 1.7 0.5
-2 0 4 1.4 0.7
2 0 4 2.3 0.8
2 0 -4 1.7 0.6
-2 0 -4 2.4 0.8
-3 0 -4 802.82 16.4
3 0 -4 812.02 16.1
3 0 4 787.22 14.8
3 0 4 794.52 18.6
3 0 4 807.72 16.6
-3 0 -4 788.02 14.8
-3 0 4 807.42 15.4
-3 0 -4 779.02 18.4
-3 0 -4 806.22 15.3
3 0 4 815.92 16.1
3 0 -4 822.32 14.9
-3 0 4 802.82 15
-4 0 4 0.9 0.6
4 0 -4 1.6 0.9
4 0 4 -0.1 0.8
-4 0 4 0.1 0.6
-4 0 -4 1 0.6
-4 0 -4 1.5 0.6
4 0 4 1.5 0.5
4 0 -4 0.4 0.5
-5 0 4 51.99 2.6
-5 0 -4 55.89 2.7
5 0 -4 53.19 3.3
-5 0 4 54.69 2.2
5 0 4 54.29 3.3
5 0 -4 54.99 2.3
5 0 4 59.49 2.3
-5 0 -4 49.7 2.2
6 0 4 3.9 1.7
6 0 4 1.8 0.7
-6 0 4 2 0.8
-6 0 4 2.6 1.1
6 0 -4 3.4 1
-6 0 -4 2.4 1.2
6 0 -4 3.5 1.6
-6 0 -4 3.1 1.1
-7 0 4 9.6 1.4
7 0 4 11.2 1.4
7 0 -4 10.1 2.6
-7 0 -4 10.7 1.7
-7 0 -4 9.6 2
-7 0 4 10.3 1.9
7 0 4 8.5 2.2
7 0 -4 8.4 1.5
8 0 4 39.6 4.1
-8 0 -4 35.9 2.6
8 0 4 34.7 2.6
8 0 -4 40.5 4.9
-8 0 4 32.5 2.6
-8 0 -4 38 3.7
-8 0 4 39.8 3.5
8 0 -4 32 2.9
0 -1 -4 61.29 1.5
0 1 -4 50.49 1.9
0 1 4 54.39 1.3
0 -1 4 62.49 2.4
0 -1 4 53.49 1.8
0 -1 -4 52.89 1.5
0 1 4 55.39 1.4
0 1 -4 62.39 2.5
1 -1 4 212.68 6
-1 1 4 219.28 5.5
-1 -1 -4 213.28 4.4
-1 1 4 210.08 4.8
1 1 -4 234.58 5.8
-1 -1 -4 222.88 5
1 1 -4 218.28 6
-1 1 -4 221.48 6
1 1 4 220.28 4.5
-1 -1 4 230.68 6
1 1 4 212.78 5
-1 -1 4 216.28 5.4
1 -1 -4 215.78 4.9
1 -1 -4 212.98 5.5
-1 1 -4 222.48 5.1
-2 -1 -4 115.19 3.3
2 1 -4 117.09 4
2 1 -4 117.59 4.7
-2 1 4 123.49 3.7
2 1 -4 114.99 2.8
2 -1 4 122.19 3.9
2 -1 4 120.09 4.8
-2 -1 -4 125.19 4.2
2 -1 4 117.89 3.7
2 1 -4 120.29 3.3
-2 1 4 120.19 4.6
-2 -1 4 113.99 2.8
2 1 4 119.49 3.4
-2 -1 4 115.49 4.5
2 1 4 121.09 4.2
-2 1 -4 109.89 4.5
-2 1 -4 118.59 2.9
2 -1 -4 120.49 3.7
-2 -1 4 115.29 3
2 -1 -4 126.29 4.7
-2 -1 4 119.19 3.8
-3 -1 -4 -0.2 0.5
-3 -1 -4 0.3 0.9
-3 -1 -4 0.7 0.5
-3 1 4 1 0.4
3 -1 4 0 0.4
-3 1 4 1.8 0.7
3 1 -4 0.3 0.7
-3 -1 -4 -1.4 0.5
3 -1 4 0.3 0.7
3 1 -4 0.7 0.4
-3 1 -4 -1.2 0.5
-3 -1 4 1.4 0.7
3 1 4 1.6 0.6
3 1 4 0.3 0.6
3 1 4 0 0.8
-3 -1 4 0.7 0.5
3 -1 -4 1.3 0.5
3 1 4 0.6 0.4
3 -1 -4 0.1 0.8
-3 1 -4 0.9 0.4
4 -1 4 318.47 6.9
-4 -1 -4 340.27 7
4 1 -4 334.67 7.1
-4 1 4 322.37 7.5
4 -1 4 332.77 8.6
-4 -1 -4 317.87 7.3
4 1 -4 324.57 8.3
-4 1 4 337.07 7.1
4 1 4 319.67 8.1
4 -1 -4 332.37 7
-4 1 -4 313.57 6.9
4 -1 -4 327.27 8.3
4 1 4 313.47 6.7
-4 -1 4 327.47 7.6
-4 1 -4 323.87 7.5
-4 -1 4 342.37 7.2
5 -1 4 30 1.7
-5 -1 -4 33.5 1.9
5 -1 4 35.1 3.1
-5 1 4 31.5 2.2
-5 -1 -4 33.2 2.2
5 1 -4 28.2 2.8
5 1 -4 32.1 1.8
-5 1 4 31 1.7
-5 1 -4 31.1 2.1
-5 1 -4 32.5 1.7
5 -1 -4 33.7 1.9
-5 -1 4 33.8 2.1
-5 -1 4 29.6 1.8
5 1 4 30.8 1.6
5 -1 -4 30.8 2.7
5 1 4 32.3 2.6
-6 -1 -4 2.5 1.3
-6 1 4 4.3 1.2
6 1 -4 3.8 1.1
6 -1 4 1.7 1.6
6 1 -4 3.6 1.8
-6 1 4 4.9 1.1
-6 -1 -4 4.8 1.4
6 -1 4 6 0.9
6 -1 -4 4.9 1.1
-6 -1 4 6 1.2
-6 1 -4 7.4 1.2
6 1 4 4.5 0.9
6 1 4 5.2 1.6
-6 1 -4 4.1 1.3
6 -1 -4 5.9 2.3
-7 -1 -4 46.6 3.5
7 1 -4 43.8 2.8
7 1 -4 43.8 4
7 -1 4 43.4 4
-7 1 4 47.2 3.2
-7 1 4 44.8 2.6
7 -1 4 49.2 2.6
-7 -1 -4 46.6 2.7
-7 -1 4 43.2 2.7
-7 1 -4 45.5 2.5
-7 1 -4 45.1 3.2
-7 -1 4 49.2 3.4
7 1 4 41.2 3.8
7 -1 -4 48.5 4.4
7 -1 -4 51.29 2.9
7 1 4 47.1 2.5
-8 -1 -4 1.3 1.3
8 -1 4 0.8 0.9
-8 1 4 0 1.4
8 -1 4 2.2 2.2
-8 -1 -4 1.6 2
-8 1 4 1.7 1
8 1 -4 -2.3 2.3
8 -1 -4 0 1.3
8 1 4 0.2 1
-8 1 -4 0.3 1.3
-8 1 -4 -0.5 1.6
8 -1 -4 1.5 3
-8 -1 4 -0.6 1.7
8 1 4 -0.6 1.8
-8 -1 4 -0.6 1.4
0 -2 -4 1929.71 33.9
0 -2 -4 1894.51 33.5
0 -2 4 1916.51 35.7
0 2 -4 1953.3 36.4
0 -2 4 1926.11 36
0 2 4 1901.51 33.8
0 2 4 1908.61 33.9
0 2 -4 1820.92 35.5
-1 2 4 158.38 4.5
1 -2 4 155.18 5.5
-1 2 4 154.98 3.7
1 2 -4 155.98 5.2
-1 -2 -4 158.28 3.3
1 2 -4 141.19 4.9
-1 -2 -4 153.88 3.6
1 2 4 156.98 3.7
1 -2 -4 162.18 4.6
1 -2 -4 161.68 3.9
-1 -2 4 147.99 4.7
-1 -2 4 154.68 4.8
1 2 4 160.68 3.4
-1 2 -4 163.18 5.5
-1 2 -4 150.38 4.2
2 -2 4 9.6 1.2
-2 2 4 9 1.1
2 2 -4 10.6 1.7
2 -2 4 7.8 1.1
2 2 -4 8.3 0.8
-2 2 4 9.1 1.5
2 -2 4 9.6 1.8
-2 -2 -4 7.8 1
2 2 -4 7.4 1.3
2 2 -4 7.9 0.7
-2 2 4 8.8 0.7
-2 -2 -4 7.2 1.1
-2 2 -4 7.9 0.6
2 -2 -4 10.1 1.1
2 -2 -4 8.2 1.5
-2 -2 4 8.1 0.7
-2 2 -4 10 1.8
-2 -2 4 9.1 1.2
2 2 4 7.3 0.9
2 -2 -4 10 1.3
-2 -2 4 9.3 0.7
-2 2 -4 9.4 0.8
2 2 4 9.2 1.3
-2 -2 4 10.2 1.7
-3 -2 -4 106.89 2.7
-3 2 4 109.29 3.2
3 2 -4 107.99 3.6
-3 -2 -4 106.79 2.9
-3 2 4 105.19 2.8
3 2 -4 104.09 2.9
-3 -2 -4 110.89 3.8
3 -2 4 112.79 4
-3 -2 -4 110.99 4.7
3 2 4 104.59 2.6
3 2 4 104.29 3.2
-3 -2 4 107.19 3
-3 2 -4 100.09 3.2
3 -2 -4 109.99 3.6
3 2 4 111.89 3.8
3 2 4 108.39 4.7
-3 2 -4 105.99 2.8
3 -2 -4 99.49 2.8
-3 -2 4 109.59 3.2
4 -2 4 28.1 2.4
-4 -2 -4 29 1.6
4 -2 4 24.9 1.4
-4 2 4 25.9 1.7
4 2 -4 25.2 1.4
4 2 -4 27 2
-4 2 4 26.4 1.3
-4 -2 -4 21.8 1.5
-4 2 -4 26.1 1.3
-4 2 -4 26.5 1.7
-4 -2 4 26.2 1.6
4 2 4 24.8 1.9
4 -2 -4 29.4 2.4
-4 -2 4 26.6 1.6
4 -2 -4 26.3 1.6
4 2 4 25.9 1.2
5 -2 4 84.59 4.3
5 -2 4 87.79 3
-5 -2 -4 83.49 3.3
-5 2 4 88.29 3.1
-5 2 4 90.99 3.5
-5 -2 -4 87.99 3.1
5 2 -4 89.99 4.1
5 2 -4 86.39 3
-5 -2 4 85.39 3.4
5 2 4 86.19 2.8
-5 -2 4 87.59 3.1
5 -2 -4 88.49 3.1
-5 2 -4 86.49 2.9
5 -2 -4 87.29 4.7
-5 2 -4 86.59 3.5
5 2 4 92.09 4
6 2 -4 17.1 1.6
-6 2 4 14.7 1.4
-6 -2 -4 14.2 1.7
-6 2 4 14 1.8
-6 -2 -4 11.4 2
6 2 -4 12.7 2.1
6 -2 4 11.5 1.5
6 -2 4 11.8 2.4
-6 -2 4 13.9 2
-6 2 -4 16.2 2
-6 2 -4 13.9 1.4
6 -2 -4 13.7 2.8
-6 -2 4 15.7 1.8
6 -2 -4 15.4 1.7
6 2 4 18.3 2.5
6 2 4 14 1.4
-7 2 4 17.4 1.6
7 -2 4 20.3 3.4
-7 2 4 17.2 2.2
7 2 -4 15.5 2.9
7 2 -4 13.8 1.8
-7 -2 -4 14.9 2.5
7 -2 4 18.1 1.9
-7 -2 -4 16.2 1.9
-7 2 -4 19.8 2.5
-7 -2 4 16.9 2.1
7 2 4 15.7 2.7
7 -2 -4 15.8 3.4
-7 -2 4 14.6 2.3
-7 2 -4 17.5 2
7 2 4 13.4 1.6
7 -2 -4 16 1.9
8 -2 4 33.9 2.6
8 2 -4 30.6 4.2
8 2 -4 33.8 2.7
-8 2 4 40.7 2.5
-8 2 4 31.1 3.2
8 -2 4 22.4 4.2
-8 -2 4 37.3 3
8 -2 -4 39.1 5.4
-8 -2 4 28.3 3.1
-8 2 -4 32 2.6
-8 2 -4 34.2 3.4
8 -2 -4 33.1 2.9
0 3 4 985.7 18.1
0 3 -4 898.41 19.1
0 3 -4 971 20.8
0 -3 -4 1010.2 18
0 3 4 966.7 17.5
0 -3 4 967.6 20.4
0 -3 -4 969.3 17.5
0 -3 4 1005 19
1 3 -4 109.59 2.9
1 -3 4 111.69 5
-1 -3 -4 116.09 2.8
1 3 -4 105.39 4.4
1 -3 4 110.29 2.5
-1 -3 -4 111.39 2.7
1 3 -4 108.19 3
1 3 -4 107.29 4.5
-1 3 4 108.89 3.8
1 -3 4 116.79 3.7
-1 -3 4 111.49 3.9
1 3 4 112.79 3
-1 -3 4 107.69 4.1
-1 3 -4 109.29 4.8
-1 3 -4 116.19 3.7
-1 -3 4 114.29 3.2
1 -3 -4 114.29 3.3
1 3 4 109.89 3
-1 -3 4 116.09 2.7
-1 3 -4 109.79 3
1 -3 -4 116.49 4.1
-2 -3 -4 87.39 2.8
-2 3 4 84.99 3
2 3 -4 82.69 4.1
-2 3 4 84.39 2.2
2 -3 4 91.59 3.6
2 3 -4 86.19 2.5
2 3 -4 88.99 3
2 3 -4 82.99 4.3
2 -3 4 81.59 4.9
-2 3 4 91.69 4.3
-2 -3 -4 91.89 3.5
-2 3 4 86.49 2.5
2 -3 4 86.09 3.6
-2 3 -4 84.19 2.8
2 -3 -4 90.89 4.5
-2 -3 4 83.69 2.4
2 -3 -4 79.99 2.2
2 -3 -4 88.19 3.3
2 3 4 84.39 3.4
-2 -3 4 87.09 4.1
-2 3 -4 86.99 2.3
-2 -3 4 85.59 2.7
2 -3 -4 80.59 3.1
2 3 4 88.59 3
-2 3 -4 90.09 4.9
-2 -3 4 83.39 3.6
3 3 -4 16.6 1.1
-3 -3 -4 19.6 1.8
-3 3 4 18.7 1.1
3 -3 4 19 2.2
3 3 -4 18.1 1.5
-3 -3 -4 14.1 1.2
-3 3 4 16.1 1.2
-3 -3 -4 19 2.3
-3 -3 -4 16.2 1.1
3 -3 -4 14.6 1.8
3 3 4 16.9 0.9
-3 -3 4 18.5 1.4
3 -3 -4 21.5 1.5
-3 3 -4 16.3 1.4
-3 3 -4 16.1 1
3 3 4 16.9 1.7
-3 -3 4 18.2 1.2
3 3 4 20.1 1.3
3 3 4 17.2 2.2
-4 -3 -4 142.49 3.7
-4 -3 -4 137.49 4
4 -3 4 151.18 3.9
4 3 -4 140.89 3.9
-4 3 4 137.89 4.2
4 3 -4 144.19 4.8
4 -3 4 140.39 5.4
-4 3 4 146.99 3.9
-4 -3 4 151.08 4.1
-4 3 -4 148.19 4.5
-4 3 -4 141.29 3.8
4 -3 -4 145.29 3.9
-4 -3 4 143.39 4.2
4 -3 -4 138.89 5.5
4 3 4 142.09 4.5
4 3 4 144.39 3.6
5 3 -4 35.1 2.8
5 -3 4 40.2 4.1
-5 3 4 35.5 2.3
-5 -3 -4 38.4 2.2
-5 3 4 36.6 1.8
-5 -3 -4 33.9 2.4
5 3 -4 37.8 2.1
5 -3 4 38 2.1
5 3 4 34.7 2.5
-5 3 -4 36.6 1.9
5 -3 -4 38.6 2.4
5 -3 -4 35.3 3.8
-5 -3 4 40.3 2.4
-5 -3 4 38.3 2.4
5 3 4 36.2 1.7
-5 3 -4 34.2 2.6
-6 3 4 25.2 2.2
6 -3 4 28.4 2.2
6 -3 4 28.6 3.8
-6 3 4 28.4 1.8
6 3 -4 25.4 2
6 3 -4 31.1 2.9
-6 3 -4 30.4 1.9
-6 3 -4 27.8 2.4
6 -3 -4 24.9 3.6
-6 -3 4 27.5 2.5
-6 -3 4 29.7 2.7
6 -3 -4 28.5 2.2
7 -3 4 29.4 2.4
-7 3 4 26.5 2.1
7 -3 4 29.8 4.4
7 3 -4 27.3 2.2
-7 3 4 30.2 2.8
7 3 -4 29.8 3.7
-7 -3 4 25.9 2.7
7 -3 -4 25.7 2.7
7 -3 -4 32.3 4.6
-7 -3 4 23.8 2.8
-7 3 -4 27.4 2.8
-7 3 -4 27.7 2.2
-8 3 4 20 2
8 -3 4 15.2 2.1
8 3 -4 14.9 2.2
-8 3 4 13.5 2.4
8 3 -4 9.6 2.5
8 -3 4 7.8 4
-8 3 -4 14.5 2.4
-8 -3 4 14.5 2.7
-8 -3 4 15 2
8 -3 -4 14.9 4.2
-8 3 -4 17.6 2.1
8 -3 -4 17.1 2.4
0 4 -4 367.46 7.7
0 -4 4 354.86 10.2
0 -4 -4 350.66 7.3
0 -4 4 340.27 6.9
0 -4 4 389.56 8.5
0 4 -4 363.36 7.5
0 4 4 359.56 8.1
0 4 4 369.56 7.5
0 4 -4 375.66 10.5
0 -4 -4 361.76 8.2
0 4 -4 356.56 9
0 -4 4 350.86 8.5
-1 -4 -4 73.99 2.1
1 4 -4 70.99 2.4
1 4 -4 68.89 2.3
-1 4 4 75.09 3.3
1 -4 4 66.09 4.5
-1 -4 -4 69.19 2.2
1 4 -4 71.29 3.8
1 -4 4 70.29 1.9
1 -4 4 69.79 3.4
1 4 -4 75.49 4
1 4 4 68.89 2.7
-1 4 -4 72.99 3.1
1 -4 -4 71.89 3.5
-1 -4 4 66.59 1.9
-1 4 -4 67.89 4.2
-1 -4 4 71.19 2.7
1 -4 -4 67.99 2.6
-1 -4 4 68.39 3.6
-1 -4 4 69.69 3
1 4 4 68.79 2.5
-1 4 -4 70.19 2.5
-2 4 4 59.39 2.1
-2 4 4 56.99 1.7
2 -4 4 61.29 3.3
2 4 -4 58.79 2.2
2 -4 4 63.29 1.9
2 4 -4 58.19 2.5
-2 4 4 55.49 3.6
2 -4 -4 59.49 2
2 -4 -4 62.49 3
2 -4 -4 59.19 4.1
2 -4 -4 56.49 2.9
-2 -4 4 51.29 2.4
-2 4 -4 61.49 2.5
-2 -4 4 58.79 1.9
3 4 -4 119.99 3.4
-3 4 4 115.29 3.5
3 -4 4 120.49 5
3 4 -4 119.59 4
-3 4 4 121.89 3.1
-3 -4 4 113.39 3.4
-3 4 -4 116.09 3.8
-3 -4 4 112.99 3.3
3 -4 -4 117.49 3.2
3 -4 -4 121.39 4.8
-3 4 -4 117.89 3.2
-4 4 4 12.9 1.4
4 4 -4 12.3 1.3
4 4 -4 9.4 1.5
4 -4 4 10.9 1.2
-4 4 4 10.3 1.1
4 -4 4 12.5 2.4
-4 -4 4 9.5 1.3
4 -4 -4 9.5 1.3
-4 4 -4 8.8 1.1
-4 4 -4 10.8 1.4
4 -4 -4 9.4 2.4
-4 -4 4 9.4 1.4
5 4 -4 28.2 1.8
-5 4 4 24.3 2.1
-5 4 4 24.8 1.6
5 4 -4 29 2.6
5 -4 4 23.3 3.5
5 -4 4 27.2 2.3
5 -4 -4 21.6 2.2
5 -4 -4 22.2 3.5
-5 4 -4 26.2 1.8
-5 4 -4 27.6 2.3
-5 -4 4 25.7 2.4
-5 -4 4 24.8 2.3
-6 4 4 31.5 2.5
6 -4 4 27.2 4
6 -4 4 31.9 2.3
6 4 -4 32.1 2.2
-6 4 4 28 1.8
6 4 -4 30.6 3.1
-6 4 -4 32.2 2.5
-6 4 -4 32.4 2
-6 -4 4 31.3 2.6
6 -4 -4 34.7 2.7
6 -4 -4 30.6 4.1
-6 -4 4 31 2.7
7 -4 4 2.6 3
7 -4 4 0.7 1.4
-7 4 4 0.4 0.7
7 4 -4 0 0.9
-7 4 4 0.6 1
7 4 -4 1.2 1.5
-7 4 -4 -1.3 0.9
-7 4 -4 0.8 1.3
7 -4 -4 1.2 1.6
7 -4 -4 -1.1 2.7
-7 -4 4 2.5 1.4
-7 -4 4 1.4 1.7
8 4 -4 3.4 2.2
8 4 -4 7.2 1.9
-8 -4 4 9.7 2.4
-8 -4 4 4.5 2
0 -5 4 17.3 2.1
0 -5 4 24 1.2
0 5 -4 20.9 1.5
0 5 -4 20.3 1.3
1 -5 4 39.9 3.7
1 -5 4 38.7 1.6
1 5 -4 40.1 1.9
1 5 -4 39.6 1.8
-1 -5 4 38.1 1.5
-1 5 -4 42.4 2
-1 -5 4 46.1 2.6
-1 5 -4 41.5 1.8
-2 5 4 215.08 5
2 5 -4 199.98 5.2
2 -5 4 205.28 4.7
2 5 -4 205.78 5.6
2 -5 4 210.18 6.9
-2 5 4 205.18 4.4
2 -5 -4 210.48 6.6
-2 -5 4 207.58 4.7
2 -5 -4 202.28 4.6
-2 5 -4 202.48 5.4
3 5 -4 48.1 2.6
3 5 -4 49.8 2.2
3 -5 4 45.5 4.2
-3 5 4 51.79 1.8
-3 5 4 49.2 2.2
3 -5 -4 50.49 4.1
-3 -5 4 45.4 2.1
-3 -5 4 52.49 2.6
3 -5 -4 52.79 2.4
-3 5 -4 49.2 2.5
4 5 -4 90.69 3.3
-4 5 4 93.49 3.6
-4 5 4 89.99 2.9
4 5 -4 92.19 4.1
4 -5 4 81.39 5.3
-4 5 -4 91.09 3
-4 -5 4 86.89 3.3
4 -5 -4 92.79 3.3
-4 -5 4 91.69 3.5
-4 5 -4 89.49 3.7
4 -5 -4 84.49 5.4
-5 5 4 48.1 2.3
5 5 -4 46.6 3.3
5 5 -4 49.5 2.6
5 -5 4 51.99 2.9
-5 5 4 52.69 2.9
5 -5 4 48 4.9
5 -5 -4 49.1 2.8
-5 5 -4 51.39 3.1
-5 -5 4 49.4 3.1
5 -5 -4 48.1 5.2
-5 5 -4 45.6 2.2
-5 -5 4 52.99 3
6 5 -4 12.3 2.2
-6 5 4 10.8 1.8
6 5 -4 9.1 1.7
6 -5 4 8.6 3.6
6 -5 4 11 1.9
-6 5 4 9.4 1.3
6 -5 -4 9.8 1.8
-6 -5 4 11.7 1.8
-6 5 -4 9.6 1.4
-6 5 -4 10.4 1.9
-6 -5 4 10.2 2
6 -5 -4 10 3.4
7 -5 4 10.8 2.1
-7 5 4 7.4 1.7
7 5 -4 14.3 2.9
7 -5 4 10.8 3.6
-7 5 4 10.3 1.5
7 -5 -4 10.7 2.1
-7 5 -4 10.1 2.1
7 -5 -4 3.6 3.8
-7 5 -4 9.7 1.5
-7 -5 4 9.1 2.5
0 -6 4 38.9 3.4
0 6 -4 41.4 2.1
0 -6 4 39.3 1.7
0 6 -4 39.8 2
1 -6 4 20.6 3.1
1 6 -4 18.3 1.6
1 -6 4 20.4 1.4
1 6 -4 19.6 1.5
-1 -6 4 16.3 1.3
-1 -6 4 18.2 2.1
-1 6 -4 19 1.5
-1 6 -4 19.1 1.3
2 -6 4 80.19 4.8
2 6 -4 81.89 3.1
2 6 -4 79.19 3.3
2 -6 4 85.69 2.8
-2 6 -4 86.79 3.2
-2 -6 4 81.99 2.7
-2 -6 4 79.39 3.6
3 6 -4 96.69 3.5
3 6 -4 90.89 3.9
3 -6 4 89.09 5.4
-3 6 -4 97.39 3.8
-3 -6 4 95.89 3.7
-3 -6 4 97.29 3.2
4 6 -4 3.9 1.3
4 -6 4 1.4 3.1
4 6 -4 2.6 1
-4 6 4 4.3 0.9
-4 6 4 5.3 1.1
-4 -6 4 4.2 1.5
4 -6 -4 4.2 3
-4 -6 4 3.6 1.3
-4 6 -4 3 1.2
4 -6 -4 4.9 1.4
5 -6 4 6.7 3.8
-5 6 4 9 1.5
-5 6 4 8.8 1.1
5 -6 4 9.1 1.9
5 -6 -4 5.1 1.6
5 -6 -4 8.3 3.4
-5 6 -4 6.7 1.7
6 -6 4 24.1 4.5
6 -6 4 28.3 2.8
-6 6 4 28.9 2.5
-6 6 4 30.6 2
6 -6 -4 27.7 2.7
-6 6 -4 25.3 2.1
-6 6 -4 27.2 3
6 -6 -4 24.8 4.4
7 -6 4 4.5 4.4
-7 6 4 7.7 1.6
7 -6 4 9.3 2.2
-7 6 4 12.5 2.3
-7 6 -4 11.6 2.1
7 -6 -4 16 2.3
-7 6 -4 8.1 1.8
7 -6 -4 10.2 4.3
0 7 -4 10.3 1.4
0 7 -4 11.9 1.5
0 -7 4 10.4 2.6
0 -7 4 12.4 1.2
1 7 -4 14.4 1.7
1 7 -4 15 1.7
1 -7 4 16.6 3.3
1 -7 4 12.6 1.3
-1 -7 4 14.8 1.3
-1 -7 4 15.5 2.3
-1 7 -4 15.3 1.7
-1 7 -4 14.9 1.4
2 -7 4 48.6 4.9
-2 7 -4 57.09 2.9
3 -7 4 53.19 5.2
-3 7 -4 50.99 2.9
4 -7 4 8.8 3.6
-4 7 -4 10.5 1.7
5 -7 4 27.7 2.8
5 -7 4 19.9 4.6
-5 7 -4 24 2.7
6 -7 4 3.2 4.2
6 -7 4 2.2 1.8
-6 7 -4 0.8 1.4
1 -8 4 35.4 2.4
1 -8 4 33.3 4
-1 8 -4 34.2 2.2
-1 8 -4 32.5 2.4
2 -8 4 30.7 4.6
-2 8 -4 32.9 2.3
-2 8 -4 31 2.1
3 -8 4 2.2 3.2
-3 8 -4 2.8 1.1
4 -8 4 8.6 4
-4 8 -4 9.2 1.7
5 -8 4 31.2 5.3
5 -8 4 41.7 3.2
-5 8 -4 36 3.1
6 -8 4 12.6 2.2
6 -8 4 12.1 4.6
-6 8 -4 9.2 2.1
5 -9 4 34.6 3.2
5 -9 4 18 5.1
-5 9 -4 29.8 3.3
0 0 5 0.4 0.2
0 0 -5 0.5 0.3
0 0 -5 0 0.1
0 0 5 0 0.1
1 0 5 103.29 3.5
1 0 -5 103.49 3.1
-1 0 -5 106.19 3.4
-1 0 5 102.09 3
1 0 -5 103.99 3.6
-1 0 5 107.19 3.6
2 0 -5 54.99 2
-2 0 5 58.19 3.1
2 0 -5 58.49 2.6
-2 0 5 59.79 1.7
2 0 -5 61.09 3.2
-2 0 -5 59.59 3
2 0 5 60.79 3.1
-2 0 5 61.89 2.5
2 0 5 58.49 2.3
2 0 -5 57.59 1.6
3 0 5 52.19 1.6
-3 0 -5 50.49 3.4
-3 0 -5 53.49 2.1
3 0 5 50.99 3.4
3 0 -5 51.59 2.4
-3 0 -5 45.9 1.7
3 0 5 53.39 2.4
-3 0 -5 49.3 2.5
3 0 5 53.49 2.6
3 0 -5 51.49 1.7
-3 0 5 52.09 2.1
-3 0 5 52.29 1.8
-4 0 5 53.69 2.3
4 0 5 54.19 1.9
4 0 -5 53.19 2
-4 0 -5 53.29 2
-4 0 5 53.99 2
-4 0 -5 55.39 2.3
4 0 -5 54.09 2.8
4 0 5 50.99 2.8
5 0 -5 158.88 4.3
5 0 5 158.78 5.8
5 0 5 160.28 4.2
-5 0 -5 155.98 4.2
-5 0 -5 158.78 4.8
5 0 -5 158.88 5.7
-5 0 5 158.68 4.9
-5 0 5 154.48 4.4
-6 0 -5 0.4 1.2
-6 0 5 2 0.9
-6 0 5 1.4 1.1
-6 0 -5 1.2 1.1
6 0 -5 1.2 0.9
6 0 5 1.5 0.7
6 0 -5 1.6 1.7
6 0 5 3.3 1.4
-7 0 -5 1.2 1.1
-7 0 -5 -0.6 1.4
7 0 -5 0.3 1
-7 0 5 2 0.9
7 0 5 0.3 0.8
-7 0 5 1.9 1.2
7 0 -5 0.2 1.8
7 0 5 -0.3 1.6
-8 0 5 21.1 2.8
-8 0 5 27.4 2.5
8 0 -5 24.7 2.6
-8 0 -5 26.3 2.5
8 0 -5 25.2 4.1
8 0 5 30.3 2.2
-8 0 -5 33.7 3.5
8 0 5 31.4 4.3
0 -1 5 501.95 11.2
0 -1 -5 511.95 9.8
0 1 5 504.75 9.6
0 -1 5 523.05 10.3
0 1 -5 519.75 11.3
0 -1 -5 524.35 9.8
0 1 -5 499.15 10.5
0 1 5 526.55 9.6
-1 -1 -5 63.79 2.2
1 -1 5 64.19 3.1
1 1 -5 61.09 2.9
1 1 -5 64.89 2.8
-1 1 5 58.69 2
-1 1 5 64.89 2.5
1 -1 -5 61.69 2.5
1 -1 -5 64.19 2.1
-1 -1 5 63.49 2.5
1 1 5 63.49 1.8
-1 1 -5 61.49 2.9
1 1 5 61.09 2.2
-1 -1 5 65.59 2.9
2 -1 5 74.59 2.7
-2 1 5 69.09 3.4
-2 1 5 71.89 2.7
2 -1 5 71.59 2.6
2 1 -5 67.29 2.3
-2 -1 -5 68.49 2.5
2 -1 5 71.79 3.7
2 1 -5 63.19 3.4
2 1 -5 71.49 3
-2 -1 -5 70.39 3.1
2 -1 -5 72.49 2.9
2 1 5 66.29 3
-2 -1 5 63.39 2
-2 1 -5 64.89 1.8
-2 1 -5 68.89 2.1
-2 -1 5 73.09 2
-2 1 -5 65.29 3.4
-2 -1 5 68.89 3.5
-2 -1 5 68.89 2.8
2 1 5 67.69 2.4
2 -1 -5 67.79 3.4
-3 -1 -5 36.8 2.1
-3 1 5 32.5 1.6
-3 -1 -5 38 1.5
3 1 -5 35.8 1.5
3 -1 5 33.7 2.2
-3 -1 -5 37.3 1.6
-3 1 5 35.7 1.5
-3 -1 -5 35.2 2.9
3 1 -5 36.5 2
-3 -1 5 36.2 1.7
3 1 5 38.8 2
-3 1 -5 43.2 1.9
3 -1 -5 36.2 2
-3 1 -5 35.1 1.4
-3 -1 5 36.2 1.6
3 1 5 34.8 2.7
3 1 5 30.9 2.1
3 1 5 32.5 1.2
3 -1 -5 35.6 1.4
4 1 -5 508.35 10.2
-4 -1 -5 506.45 10.5
4 1 -5 508.85 11.6
4 -1 5 505.85 11.8
-4 -1 -5 525.75 10.1
-4 1 5 503.45 10.3
-4 1 5 495.45 10.7
4 -1 5 484.05 10
-4 1 -5 509.25 10.1
-4 -1 5 512.55 10.8
4 -1 -5 503.95 10.1
4 -1 -5 504.95 11.5
-4 1 -5 506.35 10.8
-4 -1 5 509.45 10.4
4 1 5 522.05 10
4 1 5 507.25 11.4
-5 1 5 8.1 1.3
5 1 -5 12.8 2.2
-5 -1 -5 7.1 1.2
5 1 -5 7.1 1
-5 1 5 7.2 1.1
-5 -1 -5 8.4 1.4
5 -1 5 7.9 1.7
5 -1 5 5.6 0.9
-5 -1 5 7.9 1.3
-5 -1 5 8.1 1.1
5 -1 -5 7.1 2.1
5 1 5 7.2 0.9
5 -1 -5 7.1 1.1
-5 1 -5 9 1.2
-5 1 -5 9.9 1.4
5 1 5 8.9 1.7
6 -1 5 38 2.1
-6 1 5 39 2.6
6 1 -5 39.7 2.4
-6 -1 -5 36 2.7
-6 -1 -5 43.3 2.5
-6 1 5 43.6 2.3
6 1 -5 39.5 3.3
6 -1 5 36 3.3
-6 -1 5 40.9 2.3
6 1 5 37.1 2
6 1 5 36.8 3.2
-6 1 -5 38.3 2.2
6 -1 -5 41.4 2.3
-6 1 -5 39.2 2.7
-6 -1 5 38.3 2.7
6 -1 -5 39.9 4
7 -1 5 27 2
7 1 -5 24 2.3
-7 1 5 25.9 2.7
-7 1 5 24.2 2.1
7 -1 5 17.5 3
-7 -1 -5 22.6 2.3
-7 -1 -5 20.5 2.6
7 1 -5 22.5 3.2
-7 -1 5 28.7 3
-7 1 -5 23.7 2.6
7 -1 -5 22.1 3.8
7 -1 -5 24.9 2.4
7 1 5 23.3 3.1
7 1 5 29 1.9
-7 1 -5 21.9 2.1
-7 -1 5 23.9 2.1
8 1 -5 6.3 2.6
8 -1 5 8.3 1.4
-8 -1 -5 8.6 2.4
8 1 -5 7 1.6
8 -1 5 -1.9 2.2
-8 -1 -5 6.4 1.6
-8 1 5 7.8 1.5
-8 1 5 10.8 2.1
-8 -1 5 4.9 1.9
8 1 5 7.8 1.4
8 1 5 5.7 2.3
8 -1 -5 11.6 3.8
-8 1 -5 5.9 1.7
8 -1 -5 5.1 1.7
-8 -1 5 6.4 2
-8 1 -5 7.3 2.2
0 -2 5 29.1 1.6
0 2 -5 25.7 2.7
0 -2 5 25.4 2.2
-1 -2 -5 80.19 2.1
-1 2 5 80.29 2.4
1 -2 5 83.09 3.9
1 2 -5 80.69 3.5
1 2 -5 79.59 3.6
-1 2 5 79.19 2.9
1 2 5 80.59 2.2
1 2 5 81.09 1.9
-1 -2 5 81.29 3.3
1 -2 -5 80.69 3
-1 -2 5 79.19 3.2
1 -2 -5 78.99 2.4
-1 2 -5 81.69 3.8
-1 2 -5 78.69 2.8
2 2 -5 245.78 7.8
2 2 -5 253.47 7.4
-2 -2 -5 244.08 5.7
-2 2 5 252.37 5.6
-2 2 5 248.98 5.2
2 2 -5 253.57 6
2 -2 5 259.07 6.6
-2 -2 -5 257.07 6.6
2 2 -5 243.68 5.3
2 -2 5 253.17 8.2
2 -2 5 270.37 6.5
-2 2 5 270.67 7.6
-2 2 5 255.17 6.3
2 -2 -5 250.67 5.9
-2 2 -5 257.17 5.7
-2 -2 5 254.07 6.8
-2 -2 5 253.97 5.5
-2 2 -5 255.07 8.1
2 -2 -5 241.68 5.1
2 -2 -5 256.57 6.4
-2 2 -5 250.47 5.2
2 2 5 252.37 5.8
2 -2 -5 251.87 7.5
2 2 5 250.37 6.7
3 2 -5 52.09 2
-3 -2 -5 56.79 2.8
-3 -2 -5 49 1.7
-3 -2 -5 54.69 3.4
3 -2 5 55.59 3.1
3 2 -5 53.19 2.5
-3 2 5 54.29 2.1
-3 -2 -5 52.09 1.9
-3 2 5 54.29 1.8
3 2 5 50.39 3.3
-3 -2 5 55.69 2
-3 2 -5 55.19 1.8
3 -2 -5 57.59 1.9
3 2 5 53.99 1.6
3 2 5 56.09 2.7
-3 2 -5 53.69 2.3
-3 -2 5 55.09 2.1
3 -2 -5 56.79 2.7
3 2 5 51.59 2.2
4 -2 5 23.8 1.3
4 2 -5 23 1.4
-4 -2 -5 24 1.5
-4 2 5 22.7 1.3
4 -2 5 25.2 2.3
4 2 -5 21.7 1.9
-4 -2 -5 23.1 1.5
-4 2 5 21.4 1.5
4 2 5 24 1.1
-4 2 -5 23 1.3
4 2 5 22 1.8
-4 -2 5 22 1.5
-4 -2 5 21.7 1.6
-4 2 -5 21.1 1.6
4 -2 -5 25.2 2.3
4 -2 -5 24.5 1.6
-5 2 5 57.19 2.4
5 2 -5 63.19 2.5
5 -2 5 54.59 3.6
5 -2 5 60.89 2.5
-5 2 5 60.39 2.8
5 2 -5 62.09 3.5
-5 -2 -5 54.39 2.8
-5 -2 -5 57.89 2.5
5 2 5 64.89 3.5
-5 2 -5 55.89 2.9
-5 -2 5 62.79 2.9
-5 2 -5 58.39 2.4
5 -2 -5 58.09 3.9
5 -2 -5 59.39 2.6
5 2 5 59.99 2.2
-5 -2 5 57.59 2.5
-6 2 5 -0.9 0.9
6 -2 5 -0.6 0.7
-6 2 5 0.3 0.6
-6 -2 -5 1.6 1.2
-6 -2 -5 -1.5 1.4
6 -2 5 1.1 1.6
6 2 -5 -0.1 0.8
6 2 -5 0.1 1.1
6 -2 -5 2 2.3
-6 -2 5 -0.6 1.2
6 2 5 -0.4 1.3
6 -2 -5 1.2 1.3
-6 2 -5 0 1
-6 2 -5 -0.2 0.8
6 2 5 -1.1 0.5
-6 -2 5 0.7 1
7 -2 5 5.5 1.1
7 -2 5 1.8 2.4
7 2 -5 1.5 1.3
-7 2 5 4.1 1.5
-7 2 5 4 1.1
-7 -2 -5 3.6 3.3
7 2 -5 6.9 2.1
-7 -2 5 5.6 1.6
7 -2 -5 0.7 2.9
7 -2 -5 4.2 1.6
-7 2 -5 4.8 1.5
-7 2 -5 4.5 1.3
-7 -2 5 2.8 1.6
7 2 5 2.6 2.5
8 -2 5 -0.9 2.7
-8 2 5 2.8 1.7
8 -2 5 3.4 1.2
8 2 -5 1.6 2.2
8 2 -5 2.2 1.3
-8 -2 5 4.4 2
-8 -2 5 2 1.2
-8 2 -5 0.8 1.7
8 -2 -5 2.8 3.5
-8 2 -5 2.9 1.4
8 -2 -5 0.4 1.7
0 -3 -5 37.5 1.2
0 -3 -5 39.7 1.6
0 -3 5 35 1.8
0 3 5 33.1 1
0 -3 5 30.6 1
0 3 -5 31 1.4
0 3 5 32.4 1.2
0 3 -5 30.8 2.7
0 -3 5 30.1 1.7
0 -3 5 34.9 2.5
0 3 -5 31.1 1.3
-1 -3 -5 30.3 1
1 3 -5 29.3 2.3
1 3 -5 29 1.4
1 3 -5 28.5 1.3
1 -3 5 32.4 2.1
1 -3 5 28.7 1
1 3 -5 28.1 2.4
-1 3 5 29.7 1.3
1 -3 5 30.9 3.3
-1 -3 -5 30.9 1
-1 3 5 30.1 1.8
-1 3 -5 30.4 2.5
-1 3 -5 27.5 1.4
-1 3 -5 28.2 1.8
1 3 5 28.7 1.1
1 -3 -5 24.1 1.8
1 3 5 27.6 1.1
-1 -3 5 29.9 2.1
-1 -3 5 30.4 2
-1 -3 5 28 1.5
1 -3 -5 28.8 1.6
-1 -3 5 28.7 1.1
2 -3 5 5.9 1.4
-2 3 5 4.9 0.5
2 3 -5 4.1 1.3
-2 3 5 4.2 0.6
2 3 -5 4.2 1
-2 -3 -5 5 0.8
2 -3 5 4.3 0.6
-2 -3 -5 5 1.1
2 3 -5 4.7 0.7
-2 3 5 4.5 0.8
2 3 -5 6 1.5
-2 3 5 4.5 1.2
-2 -3 5 6.2 0.8
2 -3 -5 5.3 1.2
-2 3 -5 3.8 0.7
2 3 5 5.5 1
2 -3 -5 2.3 1
-2 3 -5 4.1 0.6
2 3 5 4.3 0.8
-2 -3 5 5.4 1.2
2 -3 -5 3.4 1.3
2 -3 -5 5.6 0.7
-2 -3 5 7.3 1.1
-2 -3 5 6 1.4
-3 -3 -5 7.6 1
-3 3 5 7.5 0.8
-3 3 5 7.3 0.9
3 3 -5 8.7 1.2
3 -3 5 6.8 1.6
3 3 -5 7.3 0.9
-3 3 -5 8.5 0.8
3 3 5 6.3 0.9
-3 -3 5 5.8 0.9
-3 -3 5 7.1 0.9
3 3 5 6.9 1.1
-3 3 -5 7.9 1.1
3 -3 -5 10.4 1.7
4 -3 5 147.99 5.5
-4 3 5 143.19 3.8
4 -3 5 141.49 3.8
4 3 -5 144.49 4.9
4 3 -5 139.59 3.9
-4 3 5 145.99 4.3
-4 -3 5 141.49 4
4 -3 -5 140.29 5.5
4 -3 -5 139.29 3.9
-4 -3 5 139.49 4.1
-4 3 -5 144.79 4.5
-4 3 -5 138.89 3.8
5 3 -5 29.9 1.8
-5 3 5 26.3 1.7
5 -3 5 23.7 3
-5 3 5 28.7 2.1
5 -3 5 29.5 1.8
5 3 -5 25.3 2.6
-5 -3 5 32.5 2.3
5 -3 -5 31.7 2.3
-5 3 -5 28.9 1.7
-5 3 -5 34.6 2.5
-5 -3 5 29.7 2.3
5 -3 -5 28.9 3.5
6 3 -5 14.7 2.5
6 -3 5 14 3
6 -3 5 18.3 1.8
6 3 -5 21 1.8
-6 3 5 16 1.4
-6 3 5 15.4 2
6 -3 -5 15.2 3.5
-6 -3 5 18 2
6 -3 -5 17.7 2
-6 3 -5 19.1 2.2
-6 -3 5 13.6 2
-6 3 -5 15.5 1.6
-7 3 5 16 1.6
7 3 -5 10.7 2.5
7 -3 5 6.6 3
-7 3 5 13.9 2.3
7 -3 5 10.5 1.7
7 3 -5 16 1.9
7 -3 -5 11 3.7
-7 -3 5 11.6 2.3
-7 3 -5 11.8 1.6
-7 3 -5 14.3 2.2
-7 -3 5 11.8 1.9
7 -3 -5 14.1 2.1
8 3 -5 2.2 1.6
8 -3 5 3.4 3.4
8 3 -5 4.5 2.5
-8 3 5 7 1.9
8 -3 5 1.7 1.4
-8 3 5 4.1 1.2
-8 3 -5 2.1 1.6
8 -3 -5 4.8 1.8
8 -3 -5 2.4 3.5
-8 -3 5 2.1 1.9
-8 3 -5 2.4 1.8
-8 -3 5 4.4 2.1
0 4 -5 118.09 3.5
0 4 -5 118.59 5.5
0 4 -5 112.39 4.3
0 4 -5 125.09 3.3
0 -4 -5 116.59 3.4
0 -4 5 119.29 5.3
0 -4 5 115.89 4
0 -4 -5 116.79 2.8
0 4 5 120.49 2.9
0 -4 5 119.19 4.1
0 4 5 113.69 3.3
0 -4 5 110.29 2.7
-1 4 5 221.68 6.1
1 4 -5 192.18 7.1
1 -4 5 219.08 6.2
1 -4 5 208.78 4.5
1 4 -5 213.48 5.1
1 4 -5 213.58 7.3
-1 4 -5 215.48 5.2
-1 -4 5 191.78 6.7
1 -4 -5 218.48 5.2
-1 -4 5 208.38 4.5
1 -4 -5 224.58 6.4
-1 -4 5 201.58 6.1
-1 -4 5 215.48 5.4
2 -4 5 102.29 2.7
2 4 -5 104.09 3.1
2 -4 5 100.69 4.2
-2 4 5 104.29 2.5
2 4 -5 101.09 3.5
-2 4 5 106.39 4.7
-2 4 5 99.99 2.9
-2 -4 5 99.59 2.8
2 -4 -5 102.59 2.6
-2 4 -5 99.29 3.3
-2 -4 5 107.99 3.3
2 -4 -5 99.79 5.1
2 -4 -5 100.09 3.8
2 -4 -5 106.59 3.8
-3 4 5 128.19 3.2
3 -4 5 137.79 5.3
3 4 -5 127.29 4.3
3 4 -5 126.79 3.7
-3 4 5 124.39 3.7
-3 -4 5 131.19 3.6
3 -4 -5 118.49 4.7
-3 4 -5 127.69 3.4
-3 4 -5 125.79 4.1
3 -4 -5 134.39 3.5
-3 -4 5 127.49 3.8
-4 4 5 10.7 0.9
4 4 -5 10.4 1.3
-4 4 5 8.7 1.3
4 4 -5 9.6 1.6
4 -4 5 10.9 2.5
-4 4 -5 9.9 1.4
-4 -4 5 8.2 1.4
4 -4 -5 7 2.7
-4 -4 5 8.2 1.5
-4 4 -5 13.1 1.2
4 -4 -5 11.9 1.5
-5 4 5 50.39 2.7
-5 4 5 52.49 2.2
5 -4 5 51.69 2.7
5 4 -5 49.99 3.2
5 -4 5 54.09 5
5 4 -5 47.1 2.4
5 -4 -5 48.7 4.7
-5 -4 5 49.9 2.8
-5 -4 5 52.59 2.9
-5 4 -5 51.39 3
-5 4 -5 48.9 2.3
5 -4 -5 52.19 2.8
6 4 -5 12.7 2.1
6 -4 5 14.4 3.7
6 4 -5 17.9 1.7
-6 4 5 11.2 1.4
6 -4 5 11.3 1.6
-6 4 5 15.6 2.1
-6 4 -5 16.4 1.6
-6 -4 5 15 2
6 -4 -5 15 2
-6 -4 5 15.5 2.1
-6 4 -5 17.1 2.2
6 -4 -5 12.2 3.5
7 -4 5 10.6 2.1
-7 4 5 12.4 1.6
7 -4 5 7.6 3.7
7 4 -5 10 2.4
-7 4 5 11.2 1.9
7 4 -5 10.6 1.7
-7 4 -5 11.4 2.2
-7 4 -5 12.9 1.7
-7 -4 5 10.5 2.1
7 -4 -5 11.7 2
7 -4 -5 15 4.2
-7 -4 5 11.1 2
0 5 -5 2.5 0.9
0 5 -5 1.5 0.6
0 -5 5 0.1 1.5
0 -5 5 1.1 0.5
1 5 -5 33.1 1.8
1 -5 5 35.7 3.8
1 5 -5 30.8 1.7
1 -5 5 30.1 1.5
-1 5 -5 28.8 1.7
-1 -5 5 28.3 1.3
-1 5 -5 29.4 1.6
2 -5 5 65.69 2.2
2 5 -5 62.19 2.4
2 5 -5 64.19 2.9
2 -5 5 62.09 3.9
-2 5 -5 59.79 2.6
-2 -5 5 62.19 2.9
-2 -5 5 67.29 2.2
3 5 -5 68.59 2.7
3 5 -5 66.19 3.1
3 -5 5 70.09 4.9
-3 5 5 65.69 2.6
-3 5 5 68.79 2.2
3 -5 -5 78.49 4.5
-3 -5 5 67.69 2.6
-3 5 -5 67.69 2.9
-3 -5 5 74.29 2.9
3 -5 -5 69.19 2.6
-4 5 5 21.5 1.4
-4 5 5 23.8 1.8
4 5 -5 24.1 2.3
4 5 -5 24.2 1.8
4 -5 5 22.7 3.6
-4 -5 5 21.2 2.2
4 -5 -5 25.4 3.5
4 -5 -5 22 2.1
-4 5 -5 22.2 2.3
-4 -5 5 20.8 1.9
-4 5 -5 20.6 1.5
5 -5 5 12.6 3.2
5 5 -5 9.8 2
5 5 -5 11.1 1.6
5 -5 5 8.7 1.5
-5 5 5 9.3 1.6
-5 5 5 10.7 1.1
5 -5 -5 8.8 1.5
-5 5 -5 7.8 1.6
-5 5 -5 9.9 1.2
5 -5 -5 6.4 3.2
-5 -5 5 8.2 1.8
-5 -5 5 9.5 1.7
6 -5 5 5.9 1.5
-6 5 5 6.6 1.2
6 -5 5 3 3.2
6 5 -5 6.5 1.4
-6 5 5 6.8 1.4
6 5 -5 6.8 2
-6 -5 5 6.6 1.7
6 -5 -5 4.2 3.2
6 -5 -5 4.7 1.6
-6 5 -5 7.2 1.7
-6 -5 5 7.4 1.9
-6 5 -5 6.1 1.1
7 5 -5 15.4 2.1
-7 5 5 18.4 2
7 -5 5 18.2 2.4
7 5 -5 15.7 2.8
7 -5 5 13.3 4
-7 5 5 15.2 2.2
7 -5 -5 16.9 2.2
7 -5 -5 13 4.2
-7 5 -5 20.4 2.7
-7 5 -5 20.9 1.9
-7 -5 5 14.7 2.2
-7 -5 5 14.3 2.4
0 -6 5 3.5 2
0 6 -5 3.7 1
0 6 -5 2.8 0.8
0 -6 5 2.4 0.8
1 6 -5 161.28 4.7
1 -6 5 159.68 6.4
1 -6 5 157.58 3.9
1 6 -5 159.58 4.7
-1 -6 5 152.98 5.2
-1 -6 5 159.08 3.8
-1 6 -5 161.88 4.7
-1 6 -5 162.48 4.4
2 -6 5 127.59 3.5
2 6 -5 123.09 4.1
2 6 -5 124.49 4.4
2 -6 5 123.49 5.9
-2 6 -5 129.29 4.2
-2 -6 5 128.49 3.5
-2 -6 5 136.59 4.5
3 6 -5 106.49 4.3
3 -6 5 98.29 5.9
3 6 -5 102.79 3.7
-3 -6 5 98.79 4
-3 6 -5 101.49 4
-3 -6 5 104.29 3.3
4 -6 5 1.5 3.4
4 6 -5 -0.1 0.9
4 6 -5 0.5 0.9
-4 6 -5 1 1
-4 -6 5 -1.1 1.1
-4 -6 5 0.5 1.4
-5 6 5 20.2 2.2
5 6 -5 18.1 2.6
-5 6 5 20.4 1.5
5 -6 5 17.8 2.2
5 -6 5 22.9 4.6
5 6 -5 13.5 1.7
-5 -6 5 15.6 1.9
5 -6 -5 13.6 3.5
-5 6 -5 17.6 2.3
5 -6 -5 19.4 2
-5 -6 5 16.4 2.1
-6 6 5 19.5 1.7
6 -6 5 16.2 4.2
6 -6 5 16.7 2.3
-6 6 5 19.6 2.4
6 -6 -5 16.9 2.1
6 -6 -5 16.9 4.1
-6 6 -5 15.7 2.4
7 -6 5 -1.8 4
-7 6 5 1.9 1
7 -6 5 -0.8 1.7
-7 6 5 2.2 1.3
-7 6 -5 0.5 1.4
7 -6 -5 -2.1 3.7
7 -6 -5 2.2 1.7
0 -7 5 0.9 2.1
0 7 -5 0.1 0.9
0 7 -5 -0.4 0.6
0 -7 5 -0.1 0.9
1 -7 5 23.3 3.7
1 7 -5 20.7 1.9
1 -7 5 22.3 1.8
1 7 -5 24.3 2
-1 -7 5 18.6 1.7
-1 7 -5 18.2 1.6
-1 7 -5 20.9 1.9
-1 -7 5 20.5 2.5
2 7 -5 16.4 1.8
2 -7 5 17.7 1.8
2 -7 5 18 3.5
2 7 -5 19.4 2
-2 -7 5 18.9 1.7
-2 -7 5 16.4 2.3
-2 7 -5 17.4 1.6
-2 7 -5 14.3 1.7
3 7 -5 56.29 3.4
3 -7 5 56.29 5.4
3 7 -5 50.79 2.9
-3 7 -5 51.39 3
-3 -7 5 49.4 3.7
-3 -7 5 49.4 3.7
4 -7 5 1.9 3.4
-4 7 -5 3.3 1.3
5 -7 5 46.9 3.2
5 -7 5 46.9 5.6
-5 7 -5 47 3.4
6 -7 5 6.5 4.3
6 -7 5 6.1 2.1
-6 7 -5 8.6 2
0 -8 5 1.2 2.4
0 8 -5 1.8 1
0 8 -5 1.5 0.9
0 -8 5 1.8 1.1
1 -8 5 45 4.8
1 -8 5 45 2.4
-1 8 -5 46.8 2.7
-1 8 -5 45.6 2.6
2 -8 5 45.8 5
-2 8 -5 44.2 2.7
-2 8 -5 45.9 2.5
3 -8 5 34.8 4.8
-3 8 -5 31 2.5
4 -8 5 16.2 4.2
-4 8 -5 25.1 2.5
5 -8 5 22.9 5.2
5 -8 5 25.6 2.7
-5 8 -5 24.9 2.9
6 -8 5 5.7 4.4
6 -8 5 9.7 2.3
-6 8 -5 8.7 2.2
3 -9 5 37 5.8
-3 9 -5 44.6 4.3
-3 9 -5 40.3 3.2
4 -9 5 4.8 3.9
-4 9 -5 10.1 1.9
5 -9 5 21.9 5
5 -9 5 15.9 2.4
-5 9 -5 14.6 2.6
0 0 6 77.69 2.3
0 0 6 83.19 2.8
0 0 -6 82.19 2.8
0 0 -6 79.59 2.6
-1 0 -6 150.08 3.7
-1 0 6 142.29 4
1 0 6 147.99 4.6
1 0 -6 137.29 4.2
1 0 -6 149.99 4.8
-1 0 -6 141.39 4.4
-1 0 6 148.09 4.7
2 0 -6 25.9 1.8
2 0 6 26 1.5
-2 0 6 27.4 1.2
2 0 -6 25.5 1.4
2 0 -6 29.3 1.1
2 0 6 27.4 2.2
-2 0 -6 27.1 2.1
2 0 -6 26.5 2.2
-2 0 6 25.7 1.1
-2 0 6 26.1 1.6
-2 0 6 27.3 2.1
-3 0 6 69.39 2.4
3 0 -6 67.29 2.1
-3 0 -6 71.79 2.4
3 0 6 71.99 2
-3 0 -6 71.99 4.2
3 0 6 74.99 3.1
-3 0 -6 65.09 2
3 0 6 74.19 4.2
3 0 -6 64.99 2.8
3 0 6 68.09 3
-3 0 6 68.39 2.3
-4 0 -6 14.5 1.2
-4 0 6 11.5 1.2
4 0 6 14.4 1.8
4 0 -6 12.7 1.1
-4 0 6 15.5 1.1
-4 0 -6 14 1.3
4 0 -6 11.7 1.6
4 0 6 11.3 0.9
5 0 6 26.9 1.6
-5 0 -6 32.9 2
5 0 -6 31.1 1.9
5 0 -6 31.2 3
-5 0 6 32.6 1.8
-5 0 6 29.5 2.1
5 0 6 29.4 2.5
-5 0 -6 33.5 2.2
-6 0 -6 17.9 2.2
-6 0 6 20.3 2.3
6 0 -6 18.8 1.8
6 0 6 20.3 2.9
-6 0 6 22.8 1.8
6 0 6 18.8 1.5
-6 0 -6 22.3 1.9
6 0 -6 22.8 2.9
7 0 6 6.2 2
7 0 6 7.4 1.2
-7 0 -6 8.6 2.1
-7 0 6 7.1 1.7
7 0 -6 7.9 1.7
-7 0 -6 6.7 1.5
-7 0 6 8.6 1.5
7 0 -6 6.5 2.8
-8 0 -6 1.6 2
8 0 -6 -1.9 2.6
-8 0 6 -0.2 1.7
8 0 6 2.4 1.8
-8 0 -6 0 1.3
8 0 6 1.1 0.9
-8 0 6 0.3 1.2
8 0 -6 1.3 1.4
0 -1 6 718.83 15.2
0 -1 -6 729.13 13.8
0 1 -6 709.03 14.4
0 1 6 743.33 13.4
0 1 -6 724.83 15.3
0 -1 -6 720.63 13.8
0 -1 6 720.63 14.1
0 1 6 725.43 13.5
1 -1 6 585.74 13.5
-1 1 6 582.64 12.4
-1 -1 -6 592.84 11.8
1 1 -6 592.14 13
-1 1 6 577.94 11.6
-1 -1 -6 601.14 11.1
1 1 -6 603.24 13.3
-1 1 -6 579.04 13.3
1 1 6 585.44 11.1
1 -1 -6 578.64 11.7
1 -1 -6 597.64 12.5
1 1 6 580.94 11.9
-1 1 -6 587.04 11.9
-1 -1 6 583.34 12.5
-1 -1 6 603.24 13
2 1 -6 427.76 11.1
-2 -1 -6 422.36 10
-2 1 6 416.16 8.1
2 -1 6 420.96 9.2
-2 1 6 415.56 8.3
2 -1 6 425.76 11.1
-2 1 6 422.36 9.4
2 1 -6 429.36 10.2
2 1 -6 421.46 8.2
2 -1 6 429.16 9.4
-2 1 6 422.66 10.7
2 1 -6 423.96 8.9
-2 -1 6 434.96 11
2 -1 -6 415.76 10.7
-2 -1 6 427.06 8.4
2 1 6 410.56 10.1
-2 -1 6 420.96 9.7
-2 1 -6 416.56 8
2 -1 -6 414.96 8
-2 1 -6 422.26 11
2 -1 -6 412.86 8.7
-2 -1 6 426.56 8.4
2 -1 -6 411.56 9.5
2 1 6 424.26 8.9
-2 1 -6 417.66 8.5
-3 1 6 234.08 5.5
3 1 -6 234.68 5.2
3 1 -6 234.38 6.1
-3 1 6 230.68 5.1
3 -1 6 237.58 6.3
-3 -1 -6 239.28 5
-3 -1 -6 232.38 6.2
-3 -1 -6 231.38 5.3
-3 -1 -6 238.78 7.6
3 1 6 226.48 7.7
-3 1 -6 234.28 5.1
3 1 6 232.08 5.9
-3 1 -6 228.98 5.5
3 -1 -6 231.08 5.1
3 -1 -6 229.48 6.1
-3 -1 6 240.38 5.6
-3 -1 6 237.98 5.3
3 1 6 236.38 4.9
3 1 6 241.78 6.4
-4 -1 -6 5.5 0.9
-4 1 6 1.7 0.7
4 1 -6 2.6 1
4 1 -6 3.8 0.7
-4 -1 -6 2.6 0.8
4 -1 6 2.3 1
-4 1 6 3.4 0.6
4 1 6 2.3 0.6
-4 -1 6 2 0.7
-4 1 -6 2.2 0.6
4 1 6 2.5 1
4 -1 -6 2.5 1.1
-4 1 -6 2.4 0.7
4 -1 -6 1.8 0.7
-5 -1 -6 45 2.5
5 1 -6 49.4 2.3
5 -1 6 49.7 2.1
5 1 -6 50.49 3.2
-5 1 6 48.3 2.2
5 -1 6 47 3.3
-5 -1 -6 46.3 2.3
-5 1 6 49.9 2.6
-5 -1 6 48.5 2.5
-5 -1 6 50.89 2.3
5 -1 -6 49 3.4
-5 1 -6 46.6 2.1
5 1 6 47.3 2
5 -1 -6 54.19 2.4
-5 1 -6 48.7 2.5
5 1 6 46.4 3
6 1 -6 23.6 2.9
-6 -1 -6 20.4 2
6 1 -6 19.3 2
-6 -1 -6 21.8 2.3
6 -1 6 19.1 1.7
6 -1 6 16.9 2.7
-6 1 6 16.2 1.8
-6 1 6 20.5 2.2
-6 -1 6 17.4 1.8
6 -1 -6 22.7 2.1
6 -1 -6 24.7 3.5
-6 -1 6 22.3 2.4
6 1 6 17.1 2.5
6 1 6 26.8 1.7
-6 1 -6 24.4 2.4
-6 1 -6 19.8 1.8
-7 -1 -6 18.5 2.5
-7 1 6 18.4 2
7 -1 6 20.1 3.1
-7 -1 -6 20.5 2.2
7 -1 6 18.9 1.9
-7 1 6 18.9 2.3
7 1 -6 15.2 2.9
7 1 -6 19.8 2
7 -1 -6 16.8 2
7 -1 -6 15.5 3.6
7 1 6 13.9 2.8
-7 -1 6 18.8 2.5
-7 -1 6 21.2 2.2
-7 1 -6 17.5 2.5
7 1 6 14.5 1.6
-7 1 -6 19.9 2.2
8 1 -6 11.2 2.2
8 -1 6 13.2 1.8
-8 -1 -6 13 2.7
-8 1 6 15.1 2
8 1 -6 14.1 3.7
8 -1 6 5.9 2.7
-8 1 6 15 2.5
-8 1 -6 13.4 2
8 -1 -6 10.6 3.7
8 1 6 11 2.7
-8 -1 6 14.8 2.1
8 1 6 8 3.1
8 -1 -6 12.4 2.4
-8 1 -6 13 2.6
-8 -1 6 12.8 2.4
0 -2 6 714.53 14.4
0 -2 6 714.63 15.9
0 2 -6 687.53 16.1
0 2 6 729.83 12.9
0 -2 -6 728.93 13
0 2 6 713.53 12.8
0 -2 -6 738.03 13
0 2 -6 722.83 14.8
-1 2 6 375.86 8.6
-1 2 6 371.96 7.8
1 -2 6 376.26 10.3
1 -2 6 360.76 7.1
1 2 -6 380.66 7.8
1 2 -6 373.76 7.6
-1 -2 -6 373.06 7.4
1 -2 6 389.36 8.5
1 2 -6 375.26 9.8
1 2 -6 384.96 9.9
1 2 6 377.36 7.5
-1 2 -6 365.86 7.7
1 -2 -6 372.46 7.8
1 -2 -6 381.76 8.6
-1 -2 6 378.76 9.3
-1 -2 6 393.86 9.3
1 2 6 379.86 7.1
-1 2 -6 386.86 8.6
-1 -2 6 387.56 7.9
-1 2 -6 373.96 10
-1 -2 6 372.26 7.4
2 2 -6 75.19 2.8
2 2 -6 74.89 4.2
-2 2 6 82.29 3.8
2 2 -6 82.09 3.9
2 2 -6 76.29 2.3
2 -2 6 80.69 3.2
-2 2 6 80.39 2.9
2 -2 6 75.69 4.3
-2 -2 -6 75.39 2.5
-2 2 6 74.29 2
2 -2 6 75.09 2
-2 -2 -6 73.69 3.1
2 -2 6 75.99 3
-2 2 6 78.29 2.2
2 2 6 70.89 3.1
2 -2 -6 80.29 3.9
2 -2 -6 66.99 2
2 -2 -6 76.09 2.6
2 2 6 77.09 2.5
-2 -2 6 75.49 3.3
-2 -2 6 78.69 2.3
-2 2 -6 74.09 2.5
-2 -2 6 79.29 4.1
-2 2 -6 72.69 3.1
-2 2 -6 72.89 2.1
-2 -2 6 74.09 2.4
2 -2 -6 81.19 3.1
-2 2 -6 77.49 4.2
-3 -2 -6 5.6 1.6
-3 -2 -6 8 0.9
-3 -2 -6 8 1.3
3 -2 6 6.3 1.4
3 2 -6 5.3 0.7
-3 2 6 7.4 0.7
3 2 -6 6.1 1.1
-3 2 6 5.9 0.9
-3 -2 -6 5.7 0.8
3 2 6 7 1.1
-3 2 -6 6.1 0.9
-3 -2 6 6.5 0.8
3 2 6 6.4 1.6
3 2 6 9.7 1.3
3 2 6 6.6 0.6
-3 2 -6 7.2 0.8
-3 -2 6 6.6 0.8
3 -2 -6 5.9 0.9
3 -2 -6 10 1.5
-4 2 6 103.99 3.1
4 2 -6 106.39 3.3
4 2 -6 110.49 4.1
4 -2 6 103.59 4.5
-4 -2 -6 108.09 3.3
-4 -2 -6 104.89 3
-4 2 6 106.19 3.5
4 -2 6 104.69 3
4 2 6 103.29 3.8
-4 -2 6 105.49 3.4
4 2 6 107.49 2.8
-4 -2 6 102.49 3.2
-4 2 -6 105.59 3.1
4 -2 -6 105.29 4.4
4 -2 -6 103.89 3.2
-4 2 -6 103.59 3.6
-5 2 6 36 2.4
5 2 -6 30.4 2.9
5 2 -6 34.8 2.1
-5 2 6 34.4 1.8
5 -2 6 35 1.9
-5 -2 -6 34.1 2
5 -2 6 32.3 3.2
-5 -2 -6 34.2 2.4
5 -2 -6 36.8 2.4
-5 -2 6 37.1 2.3
-5 2 -6 34.3 2.3
-5 2 -6 36.3 1.9
5 -2 -6 37.1 3.8
-5 -2 6 33.9 2.2
5 2 6 31.4 2.8
5 2 6 36.4 1.7
-6 -2 -6 20 2
6 2 -6 18.7 1.9
6 -2 6 12.1 2.6
6 2 -6 18.4 2.7
-6 2 6 22.1 2.1
-6 -2 -6 17.6 2.2
6 -2 6 16.5 1.7
-6 2 6 16.8 1.6
-6 2 -6 19.6 2.3
6 2 6 21.2 1.5
-6 2 -6 22.1 1.7
-6 -2 6 19.9 1.9
6 -2 -6 17.9 3.1
6 2 6 15.4 2.4
6 -2 -6 23.6 2.1
-6 -2 6 20.4 2.1
-7 2 6 83.59 4.2
7 2 -6 86.29 3.8
7 2 -6 75.99 4.9
7 -2 6 78.69 5.6
7 -2 6 84.79 3.4
-7 2 6 78.29 3.5
7 -2 -6 82.79 3.8
-7 2 -6 81.39 3.5
7 -2 -6 78.29 6
-7 -2 6 83.59 4.3
-7 2 -6 79.79 4.3
-7 -2 6 83.89 3.9
-8 2 6 14 1.8
8 -2 6 16.5 2
8 2 -6 23.9 2.4
8 2 -6 10.4 3.1
-8 2 6 18.4 2.6
8 -2 6 11.4 3.7
-8 2 -6 14 2.5
-8 -2 6 16.9 2.8
8 -2 -6 10.2 3.9
-8 -2 6 16.9 2.3
-8 2 -6 17.7 2.2
8 -2 -6 15.9 2.3
0 3 -6 381.26 10.9
0 -3 6 422.16 8.9
0 -3 6 393.16 10.6
0 3 -6 387.16 8.1
0 3 -6 396.06 9.5
0 3 -6 407.86 8.1
0 -3 6 380.86 7.5
0 -3 6 382.06 9
-1 3 6 11.2 0.9
1 -3 6 10 1.4
1 3 -6 11.3 1.9
1 -3 6 7.7 1.9
1 -3 6 11.7 0.7
1 3 -6 12 1.9
-1 3 6 12.7 1.4
1 3 -6 13.3 1.1
1 3 -6 11.4 0.9
-1 3 -6 14.1 2.1
-1 -3 6 11.3 0.7
1 -3 -6 12.1 1.1
-1 -3 6 12.2 1.6
1 -3 -6 14.1 1.6
-1 3 -6 11.4 1
-1 -3 6 12.7 1.8
-1 -3 6 11 1.2
-1 3 -6 15.3 1.6
2 -3 6 53.89 1.8
-2 3 6 56.39 2.4
-2 3 6 57.39 1.9
-2 -3 -6 50.29 3.1
2 -3 6 55.39 3
-2 3 6 61.59 3.5
2 3 -6 57.39 2.5
2 3 -6 51.69 2
-2 3 6 56.29 1.7
2 -3 -6 60.89 2.8
-2 3 -6 55.09 2.2
-2 -3 6 54.99 2.2
2 -3 -6 57.79 2.5
2 -3 -6 49.2 1.8
-2 -3 6 60.49 2
2 -3 -6 57.79 3.4
-3 3 6 307.07 6.9
3 3 -6 307.67 7.7
3 -3 6 311.37 8.3
3 3 -6 306.17 6.8
-3 3 6 311.07 6.5
-3 3 -6 307.97 6.6
-3 -3 6 299.17 6.8
-3 -3 6 311.17 6.9
3 -3 -6 323.07 7.9
-3 3 -6 313.07 7.4
3 -3 -6 302.57 6.5
4 -3 6 28.4 2.8
4 3 -6 28.9 2.2
4 3 -6 27.7 1.6
-4 3 6 30.4 1.8
-4 3 6 30.7 1.6
-4 3 -6 28.9 1.9
-4 3 -6 29.8 1.6
-4 -3 6 24.9 1.7
-4 -3 6 28.9 1.7
4 -3 -6 31.4 1.9
4 -3 -6 30.3 3.3
5 -3 6 19.7 3
5 3 -6 19.5 2.5
5 -3 6 20 1.5
-5 3 6 20.5 1.8
-5 3 6 21.5 1.5
5 3 -6 19.9 1.6
-5 3 -6 22.8 2
5 -3 -6 18 3.2
-5 -3 6 19.5 2
5 -3 -6 17 1.7
-5 -3 6 20.6 1.9
-5 3 -6 21.2 1.4
-6 3 6 46.2 2.8
-6 3 6 44.4 2.3
6 3 -6 44.2 2.5
6 -3 6 42.3 2.4
6 -3 6 41.6 4.5
6 3 -6 43.6 3.6
6 -3 -6 40 2.6
-6 3 -6 44.9 2.3
-6 -3 6 40.1 2.5
6 -3 -6 47.8 5
-6 -3 6 38.8 2.9
-6 3 -6 49.3 3.1
-7 3 6 25.1 2.6
7 -3 6 24.7 2.4
7 3 -6 31 3.3
-7 3 6 27 2
7 -3 6 26 4.2
7 3 -6 24.3 2.4
-7 3 -6 21.9 2.1
-7 3 -6 27.5 3
-7 -3 6 31.1 3.1
-7 -3 6 24.3 2.3
7 -3 -6 24.5 2.6
7 -3 -6 21 4.2
8 -3 6 8.1 1.8
8 3 -6 10.5 2
-8 3 6 10.1 2.2
8 -3 6 5 3.1
-8 3 6 10 1.8
8 3 -6 10 2.7
-8 -3 6 13.5 2.6
-8 3 -6 10.6 1.8
-8 3 -6 13 2.6
8 -3 -6 10.7 4.1
8 -3 -6 9.6 2.3
-8 -3 6 9.6 2
0 4 -6 677.63 13.6
0 4 -6 691.03 13.4
0 -4 6 692.23 14.3
0 -4 6 675.43 12.7
1 -4 6 41.8 1.5
1 4 -6 44.5 1.9
1 -4 6 43.8 2.8
1 4 -6 43.5 2.1
-1 4 -6 43.1 2
-1 -4 6 44.1 1.5
1 -4 -6 38.8 2.5
-1 -4 6 47.1 2.3
2 4 -6 110.99 3.4
-2 4 6 119.29 2.8
-2 4 6 116.69 4.9
2 -4 6 108.49 4.5
2 -4 6 114.49 3
2 4 -6 117.59 3.9
-2 4 6 111.99 3
2 -4 -6 115.19 4.1
-2 -4 6 117.39 3.1
2 -4 -6 112.39 2.9
-2 -4 6 112.79 3.7
2 -4 -6 115.29 5.2
2 -4 -6 120.59 4
-2 4 -6 113.39 3.6
3 -4 6 9.8 2.1
-3 4 6 10.6 1
3 4 -6 11.1 1.1
-3 4 6 10.2 0.8
3 4 -6 9.9 1.4
3 -4 -6 10.4 1.2
-3 -4 6 8.6 1
-3 -4 6 12.8 1.5
3 -4 -6 14 2.2
-3 4 -6 11 1.4
4 -4 6 30.7 3.4
4 4 -6 38.1 2.6
-4 4 6 37 2.2
4 4 -6 33 2.2
-4 4 6 34.9 1.7
-4 -4 6 34.8 2.2
-4 4 -6 41.3 2.5
-4 4 -6 37.8 1.8
-4 -4 6 35.6 2.1
4 -4 -6 33.1 3.4
4 -4 -6 34.4 2.1
5 4 -6 16.3 2.4
-5 4 6 17.9 1.4
5 -4 6 19.9 1.9
-5 4 6 18.4 1.8
5 -4 6 14.7 3.2
5 4 -6 16.7 1.7
-5 -4 6 16.4 2
5 -4 -6 18.4 3.4
5 -4 -6 18.4 2
-5 -4 6 15.6 1.9
-5 4 -6 17.8 1.4
-5 4 -6 16.6 2
6 -4 6 42.3 4.7
-6 4 6 41.5 2.2
6 4 -6 37.3 2.5
6 4 -6 41 3.3
-6 4 6 43.8 2.8
6 -4 6 46 2.7
-6 -4 6 39.3 2.9
6 -4 -6 43.6 2.9
6 -4 -6 39.3 4.6
-6 4 -6 44 2.3
-6 -4 6 43.9 3.1
-6 4 -6 41.3 3
7 -4 6 52.79 3.2
7 -4 6 49.5 5.7
7 4 -6 50.89 4.1
-7 4 6 50.49 3.4
7 4 -6 50.09 3.2
-7 4 6 48.7 2.7
-7 4 -6 48.7 3.5
-7 -4 6 47 3.1
7 -4 -6 48.9 3.3
7 -4 -6 47.9 5.8
-7 4 -6 48.5 2.7
-7 -4 6 50.29 3.6
0 -5 6 52.29 1.8
0 5 -6 55.79 2.4
0 -5 6 53.99 3.3
0 5 -6 54.59 2.2
1 5 -6 0.4 0.6
1 5 -6 0.8 0.8
1 -5 6 1.1 1.8
1 -5 6 0.9 0.6
-1 -5 6 -1.2 0.6
-1 5 -6 1.7 0.7
-1 5 -6 0.4 0.6
-1 -5 6 4.7 1.3
2 -5 6 24.7 1.5
2 -5 6 20.6 2.7
2 5 -6 24.4 1.6
2 5 -6 24.9 1.9
-2 -5 6 22.5 1.4
-2 5 -6 22.5 1.7
-2 -5 6 27.3 2.2
-3 5 6 49.8 2.2
3 -5 6 50.59 4
3 5 -6 46.5 2.7
3 5 -6 48 2.3
-3 5 6 48.6 1.8
-3 -5 6 46.6 2.2
-3 5 -6 47.7 2.5
3 -5 -6 50.19 4
3 -5 -6 49.5 2.2
-3 -5 6 44.4 2.7
-4 5 6 2.9 0.6
4 5 -6 4.6 1
4 -5 6 5.4 2.8
4 5 -6 3.6 1.3
-4 5 6 3.3 0.9
4 -5 -6 2.6 2.5
-4 5 -6 2.7 1.1
-4 -5 6 2.9 1.1
4 -5 -6 2.9 1.2
-4 -5 6 4 1.5
5 -5 6 9.9 3.4
-5 5 6 7.4 1.4
5 5 -6 5.7 1.7
-5 5 6 8.7 1.1
5 -5 6 6.9 1.4
5 5 -6 6 1.3
5 -5 -6 6.3 1.5
-5 -5 6 4.7 1.5
-5 5 -6 5.4 1.5
-5 -5 6 7 1.6
-5 5 -6 7.7 1.2
5 -5 -6 4.9 3
-6 5 6 28.7 2.5
6 -5 6 30.6 4.7
6 -5 6 30 2.8
-6 5 6 33.4 2
6 5 -6 29.1 3.5
6 5 -6 28.8 2.4
-6 5 -6 29.6 2.8
-6 5 -6 32.3 2.1
-6 -5 6 31.9 2.8
6 -5 -6 34 2.7
-6 -5 6 29.2 2.9
6 -5 -6 31.5 4.7
-7 5 6 9.5 1.6
7 -5 6 7.7 3.8
-7 5 6 9.2 2
7 5 -6 8.9 1.7
7 5 -6 5.7 2.3
7 -5 6 8.1 2
-7 5 -6 9.4 2.1
7 -5 -6 9.2 2
-7 5 -6 12.7 1.8
7 -5 -6 12.6 3.8
-7 -5 6 10.7 2
-7 -5 6 8 2.1
0 6 -6 253.07 6.3
0 -6 6 241.88 7.4
0 -6 6 238.78 5.3
0 6 -6 246.78 6.3
1 6 -6 39.3 2.2
1 -6 6 39 1.9
1 6 -6 36.7 2.2
1 -6 6 41.9 4.1
-1 -6 6 38.5 3.2
-1 6 -6 36.8 2.1
-1 -6 6 39.7 1.8
-1 6 -6 38.1 1.9
2 -6 6 34.1 3.8
2 -6 6 38 2.1
2 6 -6 38.7 2.6
2 6 -6 34.2 2.2
-2 -6 6 41.1 2.8
-2 -6 6 37.7 2
-2 6 -6 37.8 2.3
3 6 -6 6.8 1.3
3 6 -6 7.5 1.5
3 -6 6 6.7 2.9
-3 -6 6 7.2 1.3
-3 -6 6 7 1.7
-3 6 -6 8.9 1.6
4 6 -6 19.2 1.9
4 -6 6 12.8 3.7
4 6 -6 21.4 2.5
-4 -6 6 23.4 2.4
-4 6 -6 19.7 2.1
-4 -6 6 18.7 1.9
5 -6 6 -0.7 3.3
5 6 -6 4.4 1.5
5 6 -6 2.7 1.1
5 -6 6 2.9 1.7
-5 -6 6 2.3 1.3
-5 6 -6 2.6 1.3
-5 -6 6 3.2 1.7
6 -6 6 26.8 5
6 6 -6 39 3.6
-6 6 6 36.1 2.2
-6 6 6 35.6 2.8
6 6 -6 34.7 2.7
6 -6 6 34.5 3
-6 -6 6 38.4 3
6 -6 -6 32.2 4.7
-6 -6 6 32.8 3.1
6 -6 -6 36.9 3
-6 6 -6 35.5 3.2
-7 6 6 27.5 2.7
-7 6 6 30.4 2.2
7 -6 6 30 5.4
7 -6 6 18.6 2.7
7 -6 -6 20.6 5
7 -6 -6 28.2 2.9
-7 6 -6 24.9 3.1
0 -7 6 112.69 3.2
0 7 -6 113.89 4
0 -7 6 102.59 5.1
0 7 -6 111.09 4
1 -7 6 39.6 4.2
1 7 -6 40 2.5
1 7 -6 39.1 2.5
1 -7 6 41.2 2.2
-1 -7 6 39.9 2
-1 -7 6 37 3.6
-1 7 -6 38.1 2.4
-1 7 -6 40.3 2.3
2 -7 6 55.29 5.7
2 -7 6 57.69 2.6
2 7 -6 57.39 3.2
2 7 -6 57.19 2.9
-2 7 -6 63.09 3.1
-2 -7 6 57.39 2.4
-2 7 -6 58.09 2.7
-2 -7 6 57.79 3.6
3 -7 6 1.3 3.4
3 7 -6 1 1
3 7 -6 0.5 0.9
-3 -7 6 0.9 1.1
-3 -7 6 1.5 1.7
-3 7 -6 0.5 0.9
4 -7 6 23.9 4.6
4 7 -6 18.9 2.3
4 7 -6 23 3
-4 7 -6 24.6 2.4
-4 -7 6 23.2 3
-4 -7 6 23.2 2.9
5 -7 6 4.5 3.6
5 -7 6 2.3 1.8
-5 7 -6 1.7 1.3
6 -7 6 5.9 3.8
6 -7 6 6.8 1.9
-6 7 -6 7.1 1.8
0 -8 6 111.29 5.5
0 8 -6 107.69 4.2
0 8 -6 110.49 4.2
0 -8 6 104.39 3.3
1 -8 6 36.6 4.3
1 8 -6 36.1 2.5
1 -8 6 36.3 2.2
1 8 -6 34.2 2.5
-1 8 -6 36.2 2.4
-1 -8 6 35.6 3.9
-1 8 -6 37 2.5
-1 -8 6 36.4 2.3
2 -8 6 2 3.4
2 -8 6 4.3 1.4
-2 8 -6 3.7 1
-2 8 -6 2.2 1.2
3 -8 6 6.5 3.6
-3 8 -6 4 1.4
-3 8 -6 5.5 1.3
4 -8 6 29.6 5.2
-4 8 -6 27.1 2.6
5 -8 6 -1.1 1.7
5 -8 6 -3.8 3.7
-5 8 -6 0.6 1.2
6 -8 6 0.8 4.4
6 -8 6 0.6 1.7
-6 8 -6 -0.5 1.2
2 -9 6 13.5 3.9
-2 9 -6 11.7 1.9
-2 9 -6 12.8 1.7
3 -9 6 22.1 4.7
-3 9 -6 20.9 2.1
-3 9 -6 19.2 2.3
4 -9 6 5.7 4.3
-4 9 -6 5.5 1.7
-4 9 -6 8.8 1.8
5 -9 6 5.9 3.9
5 -9 6 7.5 2.1
-5 9 -6 7.7 2.2
0 0 -7 0.8 0.7
0 0 -7 0.6 0.6
0 0 7 0.2 0.6
0 0 7 0.8 0.5
-1 0 -7 413.26 8.5
1 0 -7 410.26 9.8
1 0 -7 410.26 9.4
1 0 7 405.06 9.7
-1 0 7 402.76 9
-1 0 -7 406.56 9.6
-1 0 7 417.36 9.8
-2 0 7 540.65 13.2
-2 0 7 570.34 12
2 0 -7 542.45 12.2
-2 0 7 556.84 10.5
-2 0 -7 547.95 12.9
2 0 -7 506.95 10.3
2 0 7 554.34 13.1
2 0 -7 559.94 13.4
2 0 -7 567.14 11.1
-2 0 7 536.75 10.6
2 0 7 564.74 11.5
-3 0 7 13.2 0.9
3 0 -7 13.1 1.4
-3 0 7 11.7 1.2
3 0 7 15.6 1.6
3 0 -7 12.7 1.1
-3 0 -7 14 2.2
3 0 7 10.3 1.5
3 0 7 11.5 2.1
-3 0 -7 11.9 1.2
3 0 7 10.3 0.8
-3 0 -7 13.9 1
4 0 -7 44.9 1.9
-4 0 -7 51.09 2.3
-4 0 7 48.2 1.9
-4 0 7 47.6 2.2
4 0 -7 48 2.7
-4 0 -7 48.9 1.9
4 0 7 42 2.5
4 0 7 46.7 1.8
-5 0 7 5.6 1.2
5 0 -7 3.9 1.7
-5 0 -7 4.3 1.1
5 0 -7 4.6 1.1
-5 0 7 4.1 1
-5 0 -7 4.8 1.2
5 0 7 3.6 0.8
5 0 7 5.2 1.6
-6 0 7 42.2 2.7
6 0 7 45.6 2.1
-6 0 -7 42.7 3.1
6 0 -7 42.1 2.4
-6 0 -7 38 2.3
-6 0 7 38.7 2.3
6 0 7 37.6 3.3
6 0 -7 47.5 3.9
7 0 7 37.7 3.8
-7 0 7 42.8 3.1
-7 0 7 39 2.7
7 0 -7 40.5 4.3
7 0 7 39.9 2.3
-7 0 -7 40.6 3.4
7 0 -7 40.6 2.8
-7 0 -7 39.5 2.7
-8 0 -7 63.09 3.4
8 0 7 48.5 5
8 0 -7 68.59 3.7
-8 0 7 64.29 3.5
-8 0 -7 64.79 4.3
8 0 7 64.89 3.2
-8 0 7 65.39 4.2
8 0 -7 59.59 6.2
0 -1 -7 223.18 5.3
0 -1 -7 227.08 5.3
0 1 7 225.58 4.8
0 -1 7 229.48 6.5
0 1 -7 221.78 5.8
0 1 -7 219.98 6.6
0 1 7 226.08 5.1
0 -1 7 228.78 5.5
-1 -1 -7 718.23 14.3
-1 -1 -7 726.13 13.5
-1 1 7 723.23 14.9
1 1 -7 729.13 15.8
1 1 -7 703.23 15.6
1 -1 7 717.23 16.1
-1 1 7 713.53 14
-1 1 -7 708.23 15.8
-1 -1 7 729.33 15
1 -1 -7 733.33 14.3
1 -1 -7 725.13 15
-1 -1 7 706.03 15.3
1 1 7 725.03 13.5
-1 1 -7 715.13 14.3
1 1 7 725.33 14.5
2 1 -7 99.69 4
-2 1 7 89.19 2.5
2 -1 7 93.19 3.3
2 1 -7 98.69 2.5
-2 1 7 89.69 3.2
2 -1 7 87.49 4.4
2 1 -7 90.99 3
2 1 -7 92.89 4.4
-2 1 7 94.69 4.1
-2 -1 -7 89.09 3.6
2 -1 7 90.59 3.2
-2 1 7 93.49 2.4
-2 -1 7 97.49 2.6
-2 -1 7 89.29 2.6
-2 -1 7 96.09 3.6
-2 -1 7 90.59 4.3
-2 1 -7 89.79 4.3
-2 1 -7 89.19 2.6
2 1 7 93.79 2.9
-2 1 -7 89.79 2.3
2 -1 -7 99.49 3.6
2 -1 -7 88.39 4.1
2 -1 -7 96.79 2.4
2 -1 -7 85.59 2.8
2 1 7 88.39 3.7
-3 1 7 311.47 6.7
-3 -1 -7 329.57 9.5
-3 1 7 310.47 7
3 1 -7 321.77 7.7
3 -1 7 322.57 8
3 1 -7 316.77 6.8
-3 -1 -7 330.37 6.9
-3 -1 -7 328.97 6.4
-3 -1 7 316.87 6.9
-3 1 -7 315.67 7.2
3 -1 -7 305.67 7.6
-3 -1 7 323.97 7.1
3 1 7 320.67 9.5
3 1 7 315.47 7.5
3 -1 -7 318.37 6.6
3 1 7 324.07 7.9
3 1 7 319.57 6.4
-3 1 -7 322.47 6.6
-4 1 7 170.68 4.4
-4 -1 -7 165.08 4.5
4 1 -7 178.08 5.6
-4 -1 -7 168.98 4.1
4 1 -7 174.98 4.5
4 -1 7 176.78 5.7
-4 1 7 171.98 4.8
4 -1 7 166.78 4.2
-4 1 -7 167.68 4.8
4 -1 -7 178.08 5.6
-4 -1 7 173.38 4.5
-4 -1 7 168.68 4.8
4 1 7 170.58 4.1
-4 1 -7 175.08 4.3
4 -1 -7 176.18 4.4
4 1 7 176.78 5.4
5 1 -7 142.39 4.3
-5 1 7 132.09 4
5 1 -7 132.89 5.3
-5 -1 -7 140.49 4.6
-5 1 7 138.19 4.6
5 -1 7 136.99 3.9
5 -1 7 138.49 5.5
-5 -1 -7 140.89 3.9
-5 -1 7 136.49 4.1
5 1 7 137.29 5.3
-5 1 -7 139.99 4.6
-5 1 -7 143.19 4
5 -1 -7 138.79 4.1
5 -1 -7 136.69 5.5
-5 -1 7 139.19 4.7
5 1 7 142.69 3.8
6 1 -7 9.3 2.3
-6 -1 -7 10 1.9
-6 -1 -7 8.8 1.4
6 -1 7 8 2
6 1 -7 9.8 1.5
-6 1 7 9.3 1.8
6 -1 7 7.7 1.3
-6 1 7 8.8 1.3
-6 1 -7 9.6 1.8
-6 1 -7 9.6 1.4
-6 -1 7 9 1.4
6 1 7 6.5 2
6 1 7 8.8 1.1
-6 -1 7 10.1 1.8
6 -1 -7 6.9 1.5
6 -1 -7 11 2.8
7 -1 7 17.2 1.8
7 1 -7 14.8 2
7 1 -7 18 3.3
-7 -1 -7 19.7 2.1
7 -1 7 13.4 3.1
-7 -1 -7 16.3 2.4
-7 1 7 17.3 2
-7 1 7 18.9 2.4
-7 -1 7 15.5 2.3
-7 -1 7 16.5 2
7 1 7 17.8 2.9
-7 1 -7 18.9 1.9
7 1 7 16.8 1.7
7 -1 -7 18.6 2.2
-7 1 -7 19.7 2.6
7 -1 -7 19.4 3.9
-8 1 7 32.1 3.1
8 1 -7 37.2 3
8 -1 7 34.8 2.5
-8 1 7 34.2 2.8
8 1 -7 37.3 4.9
8 -1 7 21.5 3.9
-8 -1 7 39.8 2.8
-8 1 -7 33.7 3.6
8 -1 -7 28.2 3
8 -1 -7 29.8 4.5
-8 -1 7 29.9 3.2
-8 1 -7 35.6 2.8
0 2 -7 274.57 8.2
0 -2 7 275.67 6.7
0 -2 7 266.57 5.3
0 -2 -7 273.67 5.5
0 2 -7 277.07 7.1
0 2 7 269.17 5.2
0 2 7 273.17 5.2
0 -2 -7 271.77 5.5
0 2 -7 271.17 5.8
0 -2 7 274.17 6.4
0 -2 7 275.17 7.9
0 2 -7 264.97 5.8
-1 2 7 159.08 3.9
1 2 -7 154.68 5.6
-1 2 7 156.88 4.6
1 -2 7 162.58 4.6
1 -2 7 153.78 3.3
1 -2 7 160.78 6.1
-1 -2 -7 158.78 3.6
1 2 -7 154.88 3.8
1 2 -7 159.38 4
1 2 -7 158.58 5.7
-1 -2 -7 163.78 3.3
1 -2 -7 155.08 4.1
1 2 7 156.68 3.7
-1 -2 7 166.08 5.1
-1 2 -7 154.58 4.6
1 -2 -7 155.38 4.7
-1 -2 7 145.09 5.1
-1 2 -7 157.68 3.9
1 2 7 157.68 3.3
-1 2 -7 166.28 6
-1 -2 7 157.58 3.5
-1 -2 7 162.38 4
2 -2 7 87.59 5
-2 -2 -7 94.39 3.5
2 -2 7 87.29 2.3
2 2 -7 91.29 4.9
-2 2 7 85.89 2.3
2 2 -7 86.99 2.6
-2 2 7 89.49 2.5
2 2 -7 85.49 5.6
2 2 -7 90.59 3.1
-2 2 7 89.09 4.1
2 -2 7 89.89 3.7
-2 2 7 84.09 3.1
2 -2 -7 88.59 2.9
2 -2 -7 87.89 2.3
-2 -2 7 87.29 2.6
2 2 7 93.59 2.8
-2 -2 7 88.09 4.6
-2 2 -7 90.09 2.8
-2 2 -7 90.89 4.7
2 -2 -7 87.89 4.3
-2 -2 7 78.59 4.6
-2 2 -7 86.99 3.4
-2 -2 7 86.59 2.7
2 -2 -7 92.59 3.4
2 2 7 85.89 3.4
3 2 -7 2.7 0.9
-3 -2 -7 5.2 0.7
-3 -2 -7 4.1 1.4
-3 -2 -7 3.1 0.7
3 -2 7 4.7 1.2
3 2 -7 2.7 0.6
-3 -2 -7 4.4 1.1
-3 2 7 3.6 0.6
-3 2 7 3.8 0.7
3 -2 -7 2.3 0.8
-3 -2 7 4.3 0.8
3 2 7 3.1 1.1
-3 2 -7 4.5 0.9
3 2 7 5 0.5
3 2 7 3.4 0.8
-3 -2 7 3.7 0.7
3 2 7 3.2 0.8
3 -2 -7 4.7 1.2
-3 2 -7 3.8 0.6
4 2 -7 60.69 2.4
4 -2 7 61.59 3.5
-4 -2 -7 57.89 2.4
4 -2 7 60.49 2.1
-4 2 7 59.39 2.2
-4 -2 -7 62.69 2.2
-4 2 7 61.29 2.5
4 2 -7 58.49 3
-4 2 -7 60.99 2.2
-4 2 -7 62.79 2.7
-4 -2 7 60.29 2.4
4 2 7 61.09 2.9
4 -2 -7 55.69 3.4
4 2 7 59.19 1.9
-4 -2 7 59.39 2.5
4 -2 -7 62.79 2.4
-5 2 7 43.9 2.1
5 -2 7 49.8 3.9
-5 -2 -7 38.9 2.6
5 2 -7 43.9 3.4
5 -2 7 44.6 2.1
-5 -2 -7 44.2 2.2
5 2 -7 46.4 2.3
-5 2 7 46.1 2.6
-5 2 -7 49.6 2.9
5 2 7 44.1 2
5 -2 -7 47.8 4.1
-5 -2 7 46 2.4
-5 -2 7 46.4 2.5
5 2 7 44.3 3.1
5 -2 -7 43.7 2.5
-5 2 -7 49.3 2.2
6 2 -7 14.9 2.5
-6 2 7 19.6 1.7
6 2 -7 18.6 2
-6 2 7 21.6 2.2
6 -2 7 20.7 3.2
6 -2 7 19.2 1.8
-6 -2 7 21.4 2.1
6 -2 -7 21.8 2.2
-6 -2 7 22.2 2.3
-6 2 -7 21.4 1.9
-6 2 -7 19.7 2.3
6 -2 -7 22.3 3.7
-7 2 7 2 1.1
7 -2 7 2.3 1.1
-7 2 7 1.9 1.5
7 2 -7 2.9 1.2
7 2 -7 4.8 2.2
7 -2 7 -1.2 2.1
-7 -2 7 3.6 1.4
7 -2 -7 2.8 1.7
-7 2 -7 2.6 1.2
7 -2 -7 6.6 3.3
-7 2 -7 -0.1 1.5
-7 -2 7 2.2 1.7
-8 2 7 19.4 2.2
8 2 -7 23.7 2.4
8 -2 7 10.7 3.1
8 -2 7 18.2 2.2
-8 2 7 21.5 2.7
8 2 -7 16.4 3.3
8 -2 -7 11.5 4
-8 -2 7 16.1 2.4
-8 -2 7 17.7 2.7
8 -2 -7 14.8 2.4
-8 2 -7 14.8 2.2
-8 2 -7 17 2.6
0 3 -7 69.09 2.2
0 3 -7 64.49 4
0 -3 7 69.79 2.8
0 3 -7 67.19 2.3
0 -3 7 65.99 3
0 -3 7 63.49 3.7
0 -3 7 66.29 1.8
0 3 -7 63.39 3.1
-1 3 7 119.59 3.9
1 -3 7 124.69 5.8
1 3 -7 116.99 3.3
1 3 -7 110.89 5
1 -3 7 122.69 4.2
-1 3 7 116.29 3.1
1 3 -7 116.49 3.5
1 3 -7 113.59 5.2
1 -3 7 122.39 2.8
-1 -3 7 115.19 4.8
-1 3 -7 112.69 5.5
-1 -3 7 118.29 3.6
-1 -3 7 118.39 4.4
-1 3 -7 117.19 4.1
-1 -3 7 119.39 2.9
-1 3 -7 120.29 3.4
1 -3 -7 123.59 4.2
1 -3 -7 118.59 3.4
-2 3 7 261.57 6.4
-2 3 7 244.78 5.1
2 -3 7 247.88 5.3
2 3 -7 251.87 5.7
-2 3 7 249.28 5.5
2 -3 7 254.47 7
-2 3 7 259.67 7.7
2 3 -7 266.47 6.5
2 -3 -7 255.67 6.7
2 -3 -7 257.47 6.1
2 -3 -7 244.98 7.7
-2 3 -7 246.58 6
2 -3 -7 246.38 5.1
-2 -3 7 257.87 6.1
-2 -3 7 247.08 5.6
-3 3 7 135.39 3.8
-3 3 7 134.89 3.4
3 3 -7 130.19 4.4
3 -3 7 147.39 5.2
3 3 -7 131.39 3.8
-3 -3 7 136.39 3.7
-3 -3 7 133.29 3.8
3 -3 -7 133.49 4.8
-3 3 -7 135.89 4.1
-3 3 -7 131.09 3.4
3 -3 -7 131.09 3.4
4 3 -7 50.29 2.2
-4 3 7 49.4 2.3
-4 3 7 48.5 2
4 -3 7 46.4 3.4
4 3 -7 53.19 2.9
-4 3 -7 46.1 1.9
-4 3 -7 47.5 2.5
-4 -3 7 44.7 2.2
4 -3 -7 49.2 3.6
-4 -3 7 46.7 2.2
4 -3 -7 42.3 2.3
5 3 -7 54.19 2.6
-5 3 7 51.39 2.7
5 -3 7 53.19 2.4
5 3 -7 51.09 3.3
-5 3 7 51.69 2.3
5 -3 7 51.69 4.1
5 -3 -7 54.59 4.6
-5 3 -7 50.29 2.8
-5 -3 7 50.59 2.7
-5 3 -7 51.59 2.4
-5 -3 7 51.09 2.7
5 -3 -7 53.39 2.7
6 3 -7 13.6 1.8
-6 3 7 13.6 2
6 -3 7 12.4 1.6
6 3 -7 15.9 2.4
6 -3 7 16.9 3.2
-6 3 7 12.1 1.5
-6 -3 7 14.6 1.8
6 -3 -7 12.6 1.9
-6 -3 7 13.1 2
-6 3 -7 14.5 2.1
-6 3 -7 12.5 1.5
6 -3 -7 13.7 3.1
7 -3 7 0.7 1.3
7 3 -7 1 1.2
7 -3 7 -3.5 2.4
-7 3 7 3.6 1.4
-7 3 7 0.1 0.9
7 3 -7 1.4 1.7
-7 3 -7 2.6 1.6
-7 -3 7 1.8 1.8
7 -3 -7 2 3.3
7 -3 -7 3.1 1.7
-7 -3 7 3 1.6
-7 3 -7 2.7 1.2
8 -3 7 -0.6 1.5
8 3 -7 0.9 1.1
8 3 -7 -1.3 2.2
-8 3 7 0.6 1.4
8 -3 7 -0.9 4.4
-8 3 7 -1.7 1.5
-8 3 -7 -0.4 2.5
8 -3 -7 5.5 3.9
-8 3 -7 1.7 1.7
-8 -3 7 -2.3 1.8
-8 -3 7 1.9 1.8
8 -3 -7 -2.9 2.4
0 4 -7 3.8 0.9
0 -4 7 3.5 0.5
0 4 -7 4.4 1
0 -4 7 2.4 1
1 4 -7 50.49 2.2
1 -4 7 47.9 1.6
1 4 -7 44.2 2.1
1 -4 7 47.9 3.3
-1 4 -7 47.3 1.9
-1 -4 7 46.5 1.6
-1 -4 7 56.49 2.7
-1 4 -7 50.99 2.3
-2 4 7 58.69 2
2 4 -7 59.99 2.7
2 -4 7 56.99 2
2 -4 7 60.09 3.4
-2 4 7 59.29 1.7
2 4 -7 64.99 2.4
-2 -4 7 60.99 2.5
2 -4 -7 53.79 1.9
-2 4 -7 58.49 2.5
2 -4 -7 58.59 3
-2 -4 7 60.19 2.1
-3 4 7 20.2 1.1
3 4 -7 24.7 1.9
-3 4 7 20.8 1.4
3 4 -7 20.9 1.4
3 -4 7 19.3 2.6
-3 4 -7 21.4 1.6
-3 -4 7 22.2 1.7
3 -4 -7 21.1 1.6
3 -4 -7 24.8 2.6
-3 -4 7 17.8 1.3
4 4 -7 8.3 1.5
4 4 -7 8.6 1.1
4 -4 7 6.4 2.2
-4 4 7 8.7 1.2
-4 4 7 10.7 1.1
-4 -4 7 7.8 1.4
-4 -4 7 7.8 1.2
4 -4 -7 8.3 1.3
4 -4 -7 6.3 2.4
-4 4 -7 8.9 1.5
-4 4 -7 7.5 1
5 4 -7 4.1 1.5
5 -4 7 2.6 2.4
-5 4 7 3.9 1.1
5 4 -7 2.4 1.1
-5 4 7 2.4 0.8
5 -4 7 5.4 1.1
5 -4 -7 6.2 2.7
-5 -4 7 5 1.4
-5 -4 7 2.8 1.3
5 -4 -7 5.1 1.5
-5 4 -7 4.6 1.4
-5 4 -7 4.1 0.9
-6 4 7 73.39 3.6
6 4 -7 77.09 4.6
6 -4 7 71.69 5.7
-6 4 7 78.89 3
6 -4 7 73.89 3.4
6 4 -7 73.99 3.5
6 -4 -7 78.79 3.6
-6 -4 7 81.79 3.7
-6 4 -7 74.59 3.1
6 -4 -7 80.29 6.2
-6 -4 7 75.99 3.8
-6 4 -7 80.49 4
7 4 -7 -0.5 1.2
-7 4 7 1.2 1
7 -4 7 2.4 1.3
-7 4 7 3.7 1.3
7 4 -7 0.3 1.7
7 -4 7 -1.3 2.9
7 -4 -7 5.8 3.8
7 -4 -7 2.8 1.8
-7 4 -7 1.9 1.4
-7 -4 7 1.1 1.7
-7 4 -7 2.8 1.2
-7 -4 7 4.1 1.8
0 5 -7 4.3 0.9
0 5 -7 4.2 0.9
0 -5 7 3.6 1.5
0 -5 7 2.6 0.6
1 5 -7 41.7 2.1
1 5 -7 37.1 2.1
1 -5 7 41.1 1.6
1 -5 7 36.3 3.3
-1 -5 7 43.1 2.8
-1 -5 7 40.1 1.6
-1 5 -7 39.3 1.9
-1 5 -7 43.1 2.3
2 -5 7 7 0.9
2 -5 7 5.1 2.2
2 5 -7 3.7 0.8
2 5 -7 3.9 1
-2 -5 7 7.4 1.4
-2 5 -7 5.7 1.1
-2 -5 7 3.3 0.8
3 5 -7 36.4 2.1
3 5 -7 33.6 2.4
3 -5 7 35.7 3.7
-3 -5 7 36.6 2.1
-3 5 -7 43.3 2.4
-3 -5 7 32 2.3
-4 5 7 67.69 2.9
4 -5 7 61.19 4.9
-4 5 7 65.69 2.3
4 5 -7 60.99 3.4
4 5 -7 59.99 2.8
-4 -5 7 63.49 2.9
-4 5 -7 63.89 3.2
4 -5 -7 62.69 2.7
-4 -5 7 63.29 3
4 -5 -7 65.69 4.6
-5 5 7 50.39 2.8
-5 5 7 48.7 2.2
5 5 -7 47.4 3.3
5 5 -7 53.39 2.8
5 -5 7 52.99 5.7
5 -5 7 55.19 3
5 -5 -7 53.79 2.8
-5 -5 7 49.5 3
5 -5 -7 51.89 4.9
-5 5 -7 49.7 3.2
-5 -5 7 49.9 3.1
6 -5 7 5.9 1.6
6 5 -7 3.6 1.5
-6 5 7 5.8 1.5
6 5 -7 5.9 1.5
6 -5 7 5.6 3.5
-6 5 7 4.8 1
-6 5 -7 4.3 1.6
6 -5 -7 3.8 3.2
-6 5 -7 3.8 1.3
-6 -5 7 3.6 1.8
-6 -5 7 6.6 1.9
6 -5 -7 6.3 1.7
7 5 -7 1.3 1.3
-7 5 7 -0.4 0.9
-7 5 7 2 1.3
7 -5 7 -0.5 3.8
7 5 -7 -1.7 1.5
7 -5 7 -2.5 1.3
7 -5 -7 -2.1 3.1
7 -5 -7 0.8 1.6
-7 -5 7 1.3 1.8
-7 5 -7 -2.9 1.2
-7 -5 7 -1.3 1.7
-7 5 -7 0.3 1.4
0 -6 7 -0.9 0.8
0 -6 7 -2.6 1.6
0 6 -7 0 0.7
0 6 -7 0.6 0.5
1 6 -7 56.89 2.7
1 -6 7 57.49 2.2
1 6 -7 59.39 2.8
1 -6 7 60.09 4.8
-1 6 -7 60.19 2.5
-1 6 -7 58.69 2.8
-1 -6 7 62.19 2.3
-1 -6 7 58.69 3.5
2 -6 7 2.9 0.9
2 6 -7 3.3 1.2
2 -6 7 4.8 2.7
-2 -6 7 4.9 1.1
-2 -6 7 6.3 1.8
-2 6 -7 4.8 1.1
3 6 -7 11.9 1.7
3 6 -7 11.6 1.5
3 -6 7 14.1 3.7
-3 -6 7 13.7 1.5
-3 -6 7 13.7 2
-3 6 -7 14 1.9
4 6 -7 26.6 2.5
4 -6 7 24.5 4.2
4 6 -7 27.7 2.2
-4 6 -7 29.8 2.5
-4 -6 7 26 2.7
-4 -6 7 24.6 2.3
5 -6 7 1.6 3.5
5 6 -7 3.8 1.2
5 6 -7 6.2 1.7
5 -6 7 5.2 1.5
-5 -6 7 5 1.5
-5 6 -7 7.1 1.5
-5 -6 7 4.7 1.7
6 6 -7 21.2 2.4
6 -6 7 19.4 5
6 -6 7 21.2 2.4
6 6 -7 13.5 2.7
-6 -6 7 24.6 2.5
-6 -6 7 18.2 2.4
-6 6 -7 21.6 2.7
7 -6 7 5.9 2.1
7 -6 7 5.5 4.5
-7 6 -7 6.8 2.1
0 7 -7 27.9 2.2
0 7 -7 31.3 2.3
0 -7 7 25.7 3.3
0 -7 7 28 1.9
1 -7 7 10.9 3
1 7 -7 15.8 1.9
1 7 -7 13.7 1.8
1 -7 7 14.8 1.5
-1 7 -7 15.5 2
-1 -7 7 15.2 1.4
-1 -7 7 10.4 2.5
-1 7 -7 15.5 1.5
2 -7 7 90.29 3.2
2 7 -7 83.79 3.6
2 7 -7 86.19 3.9
2 -7 7 89.69 6
-2 7 -7 82.99 3.3
-2 -7 7 88.99 3
-2 7 -7 83.99 3.7
-2 -7 7 85.19 4
3 7 -7 -0.5 0.9
3 7 -7 1.1 1.1
3 -7 7 3.6 3.3
-3 7 -7 0.6 1
-3 -7 7 0.8 1.9
-3 -7 7 0.1 1.1
4 7 -7 13.7 2.1
4 -7 7 15.6 4.5
4 7 -7 13.4 1.8
-4 7 -7 16.6 2.2
-4 -7 7 16.7 1.8
-4 -7 7 16.3 2.2
5 -7 7 23.3 2.4
5 -7 7 16.8 4.5
-5 7 -7 24.3 2.5
6 -7 7 5 1.9
6 -7 7 6.5 3.6
-6 7 -7 3.3 1.7
0 -8 7 41.3 4.4
0 8 -7 46.2 2.8
0 8 -7 43.8 2.8
0 -8 7 40.8 2.2
1 8 -7 94.99 4.1
1 -8 7 88.59 6.2
1 8 -7 98.49 4.1
1 -8 7 93.59 3.4
-1 -8 7 94.19 3.2
-1 8 -7 95.09 4
-1 8 -7 98.59 4
-1 -8 7 93.49 5.1
2 8 -7 9.2 1.8
2 -8 7 8.9 3.6
2 8 -7 10.3 1.9
2 -8 7 11 1.5
-2 8 -7 11.4 1.6
-2 8 -7 12.2 1.9
-2 -8 7 8.9 1.5
-2 -8 7 7.7 2.2
3 -8 7 9.6 3.6
-3 8 -7 9 1.4
-3 8 -7 11.1 1.9
4 -8 7 8.7 3.5
-4 8 -7 8.4 1.8
5 -8 7 6.2 4.4
5 -8 7 5.8 2
-5 8 -7 11.6 2
6 -8 7 6.4 2.3
6 -8 7 6.3 4.5
-6 8 -7 5 2
1 -9 7 51.49 5
1 -9 7 50.69 2.7
-1 9 -7 52.89 3
-1 9 -7 54.29 3.2
2 -9 7 72.09 6.3
-2 9 -7 72.39 3.7
-2 9 -7 72.39 3.5
3 -9 7 34.6 5.4
-3 9 -7 27.3 2.9
-3 9 -7 38.1 2.6
4 -9 7 14.6 4.7
-4 9 -7 17.5 2.5
-4 9 -7 18.3 2.3
5 -9 7 3.4 2
5 -9 7 6 4
-5 9 -7 5.2 1.8
0 0 -8 338.47 7.9
0 0 -8 346.07 8.4
0 0 8 343.37 8.2
0 0 8 343.57 7.4
-1 0 8 56.79 2.4
-1 0 8 57.39 2.8
-1 0 -8 60.29 2.9
1 0 -8 57.19 2.7
1 0 -8 53.19 2.8
1 0 8 57.99 3
-1 0 -8 56.69 2.1
-2 0 -8 0.4 0.5
-2 0 -8 -1 0.3
2 0 8 -0.1 0.5
2 0 -8 -0.4 0.4
-2 0 -8 1.6 1
2 0 -8 1.7 1.1
-2 0 8 0.4 0.6
2 0 -8 0.8 0.6
2 0 8 0.7 0.7
2 0 8 0.7 1
-2 0 8 -0.8 0.3
-2 0 8 0.3 0.9
-2 0 8 0 0.4
2 0 -8 -0.4 0.8
-3 0 8 16.9 1.3
-3 0 -8 16 1.3
-3 0 -8 17.5 1.1
3 0 8 15.2 1.7
3 0 -8 15 1.2
3 0 -8 16.1 1.4
-3 0 8 15.4 1.1
4 0 -8 5.2 1.3
-4 0 -8 4.6 0.8
-4 0 -8 4.9 1
-4 0 8 4.4 0.9
4 0 -8 8.2 1.1
4 0 8 4.2 0.6
4 0 8 7.4 1.4
-4 0 8 4.9 0.8
5 0 -8 31.4 2.3
-5 0 8 26.5 2.1
-5 0 -8 33.1 2.5
-5 0 -8 31.5 1.8
-5 0 8 26 1.9
5 0 -8 26.6 3
5 0 8 30.7 3.1
5 0 8 25 1.7
-6 0 8 1.2 1
-6 0 -8 1.3 1.1
-6 0 -8 -0.2 1.4
-6 0 8 0.6 0.6
6 0 -8 0.3 2
6 0 8 0.5 0.6
6 0 -8 0.2 1.1
6 0 8 1.9 1.3
7 0 8 1.3 0.9
7 0 -8 3.8 1.5
7 0 -8 3 2.6
-7 0 -8 1.4 1.7
-7 0 8 0.9 0.9
7 0 8 -2.3 1.8
-7 0 8 1.7 1.5
-7 0 -8 1.4 1.3
-8 0 8 44.3 3.2
8 0 8 47.9 2.8
8 0 8 41.8 4.8
-8 0 -8 52.09 4.1
-8 0 -8 50.89 3.2
-8 0 8 57.29 3.9
8 0 -8 52.09 5.9
8 0 -8 45.1 3.5
0 -1 8 226.68 5.7
0 1 -8 221.08 6
0 1 8 235.38 5.1
0 -1 8 223.08 6.6
0 1 8 231.98 5.3
0 1 -8 224.38 6.8
0 -1 -8 241.18 5.7
0 -1 -8 228.48 5.6
-1 -1 -8 826.22 15.7
1 1 -8 839.22 18.2
1 -1 8 851.61 18.7
1 1 -8 824.02 18
-1 1 8 829.12 17.3
-1 1 8 840.82 16.3
1 1 -8 829.82 16
-1 -1 -8 842.42 16.6
1 1 -8 855.91 16.2
-1 1 -8 836.12 18.2
-1 -1 8 829.02 15.9
-1 -1 8 865.51 17.7
1 -1 -8 847.82 16.8
-1 -1 8 843.82 17.4
1 -1 -8 852.11 17.3
-1 -1 8 830.32 15.8
1 1 8 828.62 16.9
-1 1 -8 844.22 16.6
2 1 -8 87.99 3.1
2 -1 8 93.89 3.4
-2 1 8 92.09 3.4
2 -1 8 96.79 4.9
-2 1 8 88.39 2.4
2 1 -8 85.59 4
-2 -1 -8 90.19 3.8
2 1 -8 85.99 4.5
2 -1 8 89.89 2.2
2 1 -8 86.79 2.5
2 -1 8 86.09 3.3
-2 1 8 94.19 4.3
-2 -1 8 87.19 2.6
-2 -1 8 90.89 2.7
2 -1 -8 85.99 2.9
-2 1 -8 85.49 4.4
-2 1 -8 85.99 2.7
2 1 8 89.29 3.9
-2 1 -8 88.99 3.3
2 1 8 91.59 2.9
2 -1 -8 93.09 2.4
2 -1 -8 83.89 3.6
-2 -1 8 90.79 3.7
-2 -1 8 84.69 4.4
2 -1 -8 85.79 4.3
-3 -1 -8 20.3 1.1
-3 1 8 16.5 1.2
-3 1 8 17.4 1.1
3 -1 8 20.4 1.9
-3 -1 -8 19.5 1.3
-3 -1 -8 17.4 2.4
3 1 -8 15.6 1.5
3 1 -8 18 1.2
3 1 8 20.6 1.6
-3 -1 8 18.4 1.2
3 1 8 19.1 0.9
-3 1 -8 15.9 1.2
-3 1 -8 16.2 1.1
3 1 8 15.8 2.4
3 -1 -8 17.5 1.7
3 -1 -8 22.2 1.4
3 1 8 18.9 1.6
-3 -1 8 17.6 1.3
-4 1 8 144.89 3.9
-4 -1 -8 148.69 3.7
4 -1 8 146.39 5.3
4 -1 8 148.69 3.8
4 1 -8 149.09 4.1
-4 -1 -8 145.99 4.2
-4 1 8 146.79 4.4
4 1 -8 146.79 5.1
-4 -1 8 145.39 4.3
-4 1 -8 144.49 3.8
4 -1 -8 149.88 4.1
4 1 8 146.59 3.6
-4 1 -8 146.29 4.4
4 1 8 145.59 4.8
4 -1 -8 151.38 5.3
-4 -1 8 146.59 4.1
-5 1 8 87.59 3.6
-5 -1 -8 83.79 2.9
-5 -1 -8 80.99 3.5
-5 1 8 80.79 2.9
5 -1 8 77.39 4.5
5 1 -8 74.99 4.3
5 1 -8 82.19 3.1
5 -1 8 79.09 2.8
-5 1 -8 80.39 2.9
-5 1 -8 87.19 3.7
5 1 8 81.29 4.1
5 1 8 81.49 2.7
-5 -1 8 80.49 3.1
5 -1 -8 75.49 4.3
-5 -1 8 82.19 3.4
-6 -1 -8 17.1 1.8
-6 1 8 17.9 1.6
-6 1 8 22.5 2.3
-6 -1 -8 17.4 2.3
6 -1 8 17.2 1.5
6 -1 8 16.7 2.6
6 1 -8 17.2 2.8
6 1 -8 16.6 1.8
6 1 8 17.3 1.5
-6 1 -8 19.5 2.3
-6 -1 8 16.5 1.6
6 -1 -8 16.5 1.8
-6 1 -8 18.2 1.9
-6 -1 8 19.9 2.2
6 1 8 17.4 2.6
6 -1 -8 21.7 3.3
7 -1 8 2.3 0.9
7 1 -8 3.2 2.3
7 -1 8 -1.3 1.9
7 1 -8 1.1 1.4
-7 1 8 3.2 1.2
-7 1 8 2.8 1.5
-7 1 -8 -0.3 1.6
7 -1 -8 2 1.7
-7 -1 8 3.1 1.2
-7 -1 8 3.6 1.6
-7 1 -8 2.7 1.3
7 -1 -8 1.2 2.7
8 1 -8 5.1 1.6
-8 1 8 4.9 1.9
8 -1 8 7 1.4
-8 1 8 6.7 1.5
8 -1 8 3.7 2.6
8 1 -8 6 3.1
-8 -1 8 5.1 1.8
-8 -1 8 10.2 1.6
8 -1 -8 8.8 2.1
-8 1 -8 6.3 1.8
8 -1 -8 6.9 3.2
-8 1 -8 5.3 2.2
0 2 -8 3.4 0.8
0 2 -8 3.9 0.6
0 -2 -8 5.2 0.7
0 2 -8 11.6 1.8
0 -2 8 3.4 0.7
0 -2 8 5 0.4
0 2 8 4.8 0.4
0 -2 8 9.6 1.5
1 2 -8 0.9 0.7
1 2 -8 1.3 0.5
-1 2 8 1.1 0.4
1 2 -8 1.2 0.4
1 -2 8 2 1.1
1 -2 8 1.4 0.3
1 2 -8 1.4 0.8
-1 2 8 0.6 0.5
1 -2 8 2 0.9
-1 -2 -8 1.9 0.5
-1 -2 -8 1 0.3
-1 -2 8 1.3 0.3
-1 2 -8 1.4 1
1 -2 -8 1.4 0.7
-1 -2 8 2.4 0.6
-1 2 -8 2.3 0.6
-1 -2 8 1.2 0.6
1 2 8 1.5 0.4
-1 2 -8 1.9 0.6
1 -2 -8 2.6 0.7
1 2 8 1.7 0.3
-1 -2 8 2.3 0.8
-2 2 8 61.89 3.3
-2 2 8 56.09 1.9
-2 2 8 60.29 2.5
2 -2 8 56.39 2.9
2 2 -8 55.09 2
2 2 -8 55.39 2.5
-2 2 8 59.19 1.7
2 -2 8 54.59 1.7
-2 -2 -8 58.59 2.7
2 -2 -8 57.79 2.8
-2 2 -8 60.59 2.3
2 -2 -8 57.59 1.8
-2 -2 8 56.19 2.3
-2 -2 8 56.09 2
2 2 8 56.99 2.1
2 -2 -8 58.09 2.3
2 2 8 53.59 2.7
2 -2 -8 56.89 3.4
3 -2 8 211.88 6.4
-3 2 8 210.98 5.2
3 2 -8 211.88 5.1
-3 2 8 217.98 4.9
3 2 -8 216.98 5.9
3 -2 -8 209.08 5.8
3 -2 -8 218.28 5
-3 2 -8 212.48 4.8
-3 -2 8 219.28 5.2
-3 2 -8 214.18 5.5
-3 -2 8 216.78 5.2
4 2 -8 20 2
4 2 -8 21.3 1.4
4 -2 8 21.9 2.6
-4 2 8 22.6 1.6
-4 2 8 21.4 1.3
4 -2 -8 22.7 2.7
-4 -2 8 22.8 1.5
-4 2 -8 19.9 1.3
-4 -2 8 21.8 1.6
-4 2 -8 21.7 1.6
4 -2 -8 22.5 1.9
5 2 -8 105.59 4.9
5 -2 8 105.69 5.2
-5 2 8 112.79 4
5 2 -8 110.29 3.7
-5 2 8 108.59 3.5
5 -2 8 106.69 3.4
-5 2 -8 103.59 4
-5 2 -8 109.09 3.5
-5 -2 8 109.89 3.9
5 -2 -8 109.29 5.3
-5 -2 8 112.99 3.7
5 -2 -8 108.19 3.6
-6 2 8 8.8 1.2
-6 2 8 8.9 1.6
6 2 -8 9.5 2.4
6 -2 8 9.2 1.3
6 -2 8 7.1 2.4
6 2 -8 9.3 1.4
6 -2 -8 10.3 2.8
6 -2 -8 7.7 1.6
-6 2 -8 9.5 1.4
-6 -2 8 9.3 1.6
-6 2 -8 9.1 1.8
-6 -2 8 9.5 1.4
7 -2 8 6.8 1.3
7 -2 8 5.7 2.5
-7 2 8 8.7 1.5
7 2 -8 8 2.3
7 2 -8 7.4 1.5
-7 2 8 8.6 2
7 -2 -8 6.3 1.9
-7 -2 8 7.2 1.5
7 -2 -8 5 3.3
-7 2 -8 4.7 1.5
-7 2 -8 6.7 1.9
-7 -2 8 6.4 2
8 -2 8 57.49 3.2
8 2 -8 55.09 3.7
-8 2 8 63.19 4
-8 2 8 64.69 3.3
8 2 -8 59.69 5.3
8 -2 8 56.49 5.5
-8 2 -8 60.49 4.3
8 -2 -8 54.49 3.9
-8 -2 8 59.39 4.2
-8 2 -8 60.09 3.3
-8 -2 8 59.29 3.6
8 -2 -8 53.09 5.9
0 3 -8 83.59 2.8
0 -3 8 79.09 3.4
0 -3 8 72.39 4.3
0 -3 8 79.89 2.2
0 -3 8 79.59 3.2
0 3 -8 73.19 3.5
0 3 -8 82.19 4.9
-1 3 8 427.66 9.6
-1 3 8 424.16 8.7
1 -3 8 437.56 10.1
1 3 -8 430.66 9.1
1 3 -8 423.26 8.9
1 -3 8 421.56 8.2
-1 -3 8 422.06 8.4
-1 3 -8 423.56 8.7
-1 -3 8 430.06 9.3
1 -3 -8 432.66 9.8
-1 3 -8 428.76 9
1 -3 -8 417.06 8.8
-2 3 8 202.38 6.7
-2 3 8 202.58 4.3
-2 3 8 204.08 4.6
2 3 -8 202.68 5.5
2 3 -8 196.38 4.9
2 -3 8 197.08 4.4
-2 3 8 204.58 5.5
2 -3 8 203.38 6.2
2 -3 -8 208.88 5.2
-2 -3 8 199.68 4.7
-2 -3 8 202.58 5.2
2 -3 -8 194.38 4.3
2 -3 -8 214.68 5.8
-2 3 -8 199.48 5.2
2 -3 -8 209.08 7.1
-3 3 8 209.18 5.2
3 -3 8 210.78 6.7
3 3 -8 212.68 6.1
-3 3 8 214.18 4.8
3 3 -8 209.38 5.3
-3 3 -8 213.48 5.7
3 -3 -8 219.78 6.1
-3 -3 8 214.48 5.2
3 -3 -8 205.48 4.8
-3 -3 8 210.68 5.3
-4 3 8 186.88 5.1
4 -3 8 177.88 6.5
4 3 -8 192.88 5.1
4 3 -8 185.38 6
-4 3 8 185.18 4.6
-4 -3 8 192.58 5.1
-4 3 -8 178.08 4.6
4 -3 -8 196.08 6.4
4 -3 -8 183.08 4.7
-4 -3 8 183.98 5.1
-4 3 -8 183.18 5.5
5 3 -8 59.29 2.7
5 -3 8 62.89 2.6
5 -3 8 57.09 4
-5 3 8 59.89 2.9
5 3 -8 58.79 3.5
-5 3 8 54.29 2.5
-5 3 -8 59.19 2.5
-5 -3 8 62.49 2.9
-5 3 -8 60.49 3.2
5 -3 -8 59.29 2.9
-5 -3 8 58.69 2.8
5 -3 -8 60.49 4.7
6 -3 8 44.7 2.4
6 3 -8 42.3 2.6
6 3 -8 37.9 3.5
-6 3 8 44.5 2.8
6 -3 8 43.2 4
-6 3 8 44.1 2.4
6 -3 -8 42.1 2.9
6 -3 -8 39.8 4.4
-6 -3 8 45 2.8
-6 3 -8 45.9 2.4
-6 -3 8 43.3 2.9
-6 3 -8 46.8 3.1
7 -3 8 1.6 1.2
7 -3 8 2.8 2.6
-7 3 8 3.4 1.5
7 3 -8 2.3 1.7
7 3 -8 3.7 1.3
-7 3 8 2.3 0.9
-7 -3 8 2.3 1.5
-7 -3 8 5.1 1.8
7 -3 -8 0.2 3.2
-7 3 -8 2.4 1.6
7 -3 -8 1.4 1.7
-7 3 -8 2.9 1.2
0 4 -8 91.59 3.3
0 -4 8 90.49 3.6
0 -4 8 85.99 2.3
0 4 -8 85.39 2.9
1 4 -8 40.6 2.1
1 4 -8 43.3 2.1
1 -4 8 43.7 1.5
1 -4 8 41.2 2.9
-1 4 -8 47 1.9
-1 -4 8 43.2 1.6
-1 4 -8 40.8 2
-1 -4 8 45.4 2.4
2 -4 8 59.99 3.7
2 4 -8 66.29 3
2 -4 8 65.19 2.1
2 4 -8 65.99 2.6
-2 -4 8 63.29 2.2
-2 4 -8 71.59 2.8
-2 -4 8 67.79 2.8
3 4 -8 258.47 6.3
-3 4 8 259.97 5.7
3 4 -8 262.17 7.2
-3 4 8 265.17 6.1
3 -4 8 259.47 8.2
3 -4 -8 258.27 5.7
-3 -4 8 250.97 6.3
3 -4 -8 270.77 7.3
-3 4 -8 264.27 6.8
-3 -4 8 267.97 6.2
-4 4 8 19.2 1.9
-4 4 8 18.2 1.2
4 -4 8 17.8 2.9
4 4 -8 17.4 1.6
4 4 -8 17.1 2.2
4 -4 -8 14.4 1.6
4 -4 -8 18.8 3
-4 -4 8 18.9 1.8
-4 4 -8 18.1 1.8
-4 -4 8 16.7 1.8
5 4 -8 36.4 3
5 -4 8 33.1 2.2
-5 4 8 29.9 1.8
-5 4 8 32 2.2
5 -4 8 23.8 3.4
5 4 -8 30 2.3
-5 4 -8 35.6 1.9
-5 -4 8 34.4 2.6
5 -4 -8 32.4 2.4
5 -4 -8 34 4.2
-5 4 -8 33.6 2.6
-5 -4 8 26.3 2.4
-6 4 8 18.9 1.5
6 4 -8 12.6 1.8
6 4 -8 12.9 2.4
-6 4 8 15.9 2
6 -4 8 15.6 1.8
6 -4 8 17.8 3.5
-6 -4 8 11.8 1.9
6 -4 -8 14.1 3.7
-6 -4 8 13 1.9
-6 4 -8 17.7 2.4
-6 4 -8 18.1 1.7
6 -4 -8 13.7 1.9
-7 4 8 29 2.4
7 -4 8 34.4 2.7
-7 4 8 39 3
7 4 -8 32.6 2.9
7 -4 8 31.1 4.4
7 4 -8 30.5 3.8
7 -4 -8 32.4 3
-7 4 -8 34 3.2
-7 -4 8 30.5 3
7 -4 -8 34.5 5.1
-7 4 -8 40.6 2.6
-7 -4 8 36.4 3.3
0 5 -8 39.9 2
0 -5 8 36.4 1.5
0 5 -8 37.9 2.2
0 -5 8 39.3 3.1
1 5 -8 393.26 9
1 -5 8 378.96 7.8
1 5 -8 390.96 8.8
1 -5 8 390.06 10.3
-1 5 -8 384.16 8.9
-1 5 -8 391.16 8.5
-1 -5 8 393.76 9.3
-1 -5 8 388.56 7.9
2 5 -8 42.8 2.3
2 5 -8 43.5 2.5
2 -5 8 44.9 3.9
2 -5 8 47.5 1.9
-2 -5 8 44.2 1.9
-2 -5 8 49.2 2.6
-2 5 -8 48.4 2.4
3 5 -8 45.5 2.9
3 5 -8 43.5 2.3
3 -5 8 39 3.8
-3 -5 8 41.9 2.2
-3 5 -8 37.9 2.5
-3 -5 8 40.8 2.6
4 5 -8 73.79 3.8
4 5 -8 75.89 3.2
4 -5 8 74.39 5.2
-4 -5 8 76.49 3.4
-4 5 -8 73.59 3.5
-4 -5 8 64.99 3
5 -5 8 0.1 1
-5 5 8 0.7 0.6
5 5 -8 0.6 0.8
5 5 -8 1.3 1.3
5 -5 8 1.3 2.7
-5 5 8 0.9 0.8
-5 5 -8 1.3 0.9
-5 -5 8 0.6 1.4
5 -5 -8 -0.4 2.6
-5 -5 8 1.1 1.2
6 -5 8 30.4 2.6
6 5 -8 31.7 3.8
-6 5 8 25.3 2.5
-6 5 8 27.8 1.9
6 5 -8 25.6 2.3
6 -5 8 22.6 4.5
-6 -5 8 23.5 2.5
6 -5 -8 27.8 4.4
-6 5 -8 28.1 3.1
-6 -5 8 26.5 2.9
6 -5 -8 28.1 2.7
-7 5 8 3.4 1.4
-7 5 8 4.6 1.1
7 -5 8 2.7 3.4
7 5 -8 0 1.7
7 5 -8 3.9 1.4
7 -5 8 3 1.6
-7 5 -8 3.6 1.7
-7 -5 8 -0.1 1.8
7 -5 -8 1.9 3.6
-7 -5 8 2.3 1.8
7 -5 -8 2.2 1.8
0 -6 8 79.79 4.3
0 6 -8 82.39 3.2
0 -6 8 84.19 2.6
0 6 -8 80.79 3.3
1 -6 8 59.69 4.9
1 6 -8 57.89 2.8
1 6 -8 58.39 2.8
1 -6 8 57.89 2.2
-1 -6 8 60.39 2.3
-1 -6 8 58.49 3.7
-1 6 -8 59.29 2.6
-1 6 -8 57.39 2.8
2 -6 8 37.2 4.4
2 6 -8 38 2.6
2 -6 8 43.4 2.2
2 6 -8 37.4 2.5
-2 -6 8 44.5 3.2
-2 -6 8 43.2 2.1
-2 6 -8 35.2 2.4
-2 6 -8 38.2 2.2
3 6 -8 47.7 3
3 6 -8 50.69 2.7
3 -6 8 44.9 4.7
-3 -6 8 53.39 3.3
-3 6 -8 52.89 2.9
-3 -6 8 50.19 2.5
4 6 -8 4.9 1.2
4 6 -8 5 1.5
4 -6 8 0.9 2.8
-4 -6 8 3.5 1.6
-4 6 -8 4.7 1.4
-4 -6 8 3.1 1.5
5 -6 8 32.9 4.8
5 -6 8 37.5 2.6
5 6 -8 32.2 2.6
5 6 -8 31 3
-5 6 -8 33.5 2.7
-5 -6 8 34.9 3
-5 -6 8 34.3 2.7
6 -6 8 63.99 6.9
6 6 -8 62.09 4.5
6 6 -8 67.59 3.7
6 -6 8 68.39 3.7
-6 -6 8 71.09 3.7
-6 6 -8 64.39 4
-6 -6 8 61.79 3.8
7 6 -8 2.3 2.3
7 6 -8 5.1 1.7
-7 -6 8 6.9 2
-7 -6 8 8.4 2
0 7 -8 2.2 1
0 -7 8 1.7 2.4
0 -7 8 4.9 1.1
0 7 -8 3 1.2
1 -7 8 107.79 5.8
1 7 -8 100.79 4
1 -7 8 100.39 3.2
1 7 -8 91.29 4.1
-1 -7 8 98.29 4.9
-1 7 -8 98.29 4.1
-1 -7 8 98.79 3.1
-1 7 -8 99.79 3.7
2 7 -8 25.7 2.4
2 7 -8 21.1 2.1
2 -7 8 28.1 4.3
2 -7 8 26.5 1.9
-2 -7 8 28.2 2
-2 -7 8 28.9 2.9
-2 7 -8 26.1 2
-2 7 -8 24.7 2
3 -7 8 42.3 5.1
3 7 -8 39.2 2.9
3 7 -8 39.7 3
-3 -7 8 39.4 3.4
-3 -7 8 46.6 2.6
-3 7 -8 45.7 2.8
4 7 -8 13.8 2.1
4 7 -8 13.3 1.9
4 -7 8 12.7 4.2
-4 -7 8 11.1 1.6
-4 -7 8 11.2 1.9
-4 7 -8 13.7 2.1
5 7 -8 0.7 1.1
5 -7 8 -3.9 3.6
5 -7 8 1.5 1.4
5 7 -8 -0.9 1.3
-5 -7 8 2.7 1.6
-5 -7 8 1.4 1.3
-5 7 -8 1.5 1.2
6 -7 8 4.8 2
6 -7 8 3.8 3.7
-6 7 -8 4.3 1.8
0 8 -8 12.4 1.8
0 -8 8 10.5 1.5
0 8 -8 9.6 1.7
0 -8 8 16.2 3.3
1 8 -8 47 3
1 8 -8 36.5 2.7
1 -8 8 41.3 4.5
1 -8 8 44.4 2.6
-1 8 -8 39.4 2.8
-1 -8 8 42.7 4.3
-1 -8 8 42 2.4
-1 8 -8 40.5 2.6
2 -8 8 29.6 2.3
2 8 -8 27.4 2.7
2 8 -8 27.4 2.7
2 -8 8 23 4
-2 -8 8 27.3 2.3
-2 8 -8 30.9 2.1
-2 8 -8 26 2.4
-2 -8 8 27.1 2.9
3 -8 8 9.4 4.2
3 8 -8 6.8 1.7
3 8 -8 6 1.5
-3 -8 8 7.4 2.1
-3 8 -8 8.1 1.5
-3 8 -8 6.9 1.4
-3 -8 8 8.6 1.6
4 -8 8 6.9 4
-4 8 -8 8.5 1.9
5 -8 8 3.6 4.2
5 -8 8 12.2 2
-5 8 -8 11.4 2.1
0 9 -8 -0.3 1
0 9 -8 0.7 1.2
0 -9 8 1.1 1.2
0 -9 8 1.4 2.5
1 -9 8 18.4 1.9
1 -9 8 19.1 3.6
-1 9 -8 18.8 2
-1 9 -8 16.9 2.2
2 -9 8 11.6 3.7
-2 9 -8 14 2
-2 9 -8 14.4 2
3 -9 8 1.2 3.7
-3 9 -8 0.2 0.9
-3 9 -8 -0.7 1.2
4 -9 8 17.9 4.6
-4 9 -8 19.5 2.3
-4 9 -8 19 2.6
5 -9 8 4.9 4.2
5 -9 8 -2.4 1.9
-5 9 -8 2.8 1.4
4 -10 8 24.1 5.4
-4 10 -8 22.6 2.9
-4 10 -8 17.3 3.2
0 0 -9 1.9 0.9
0 0 -9 0.5 0.4
0 0 9 0.4 0.4
0 0 9 0.9 0.4
-1 0 9 586.54 12.3
-1 0 9 565.94 12.7
-1 0 -9 571.64 12.9
1 0 -9 572.04 13.1
1 0 -9 547.55 12.8
1 0 9 566.44 13.1
-1 0 -9 562.34 11.5
2 0 9 335.07 7.6
2 0 9 329.47 7.6
-2 0 -9 315.37 7.6
2 0 -9 312.87 9.4
2 0 9 325.97 9.4
2 0 -9 327.97 8.7
-2 0 9 328.67 6.8
2 0 -9 326.57 6.6
-2 0 9 316.77 6.7
-2 0 -9 324.87 6.8
-2 0 9 308.37 9.3
-2 0 9 307.37 8.1
2 0 -9 321.77 7.3
-2 0 -9 337.37 9.2
-3 0 -9 10.5 0.9
-3 0 9 8.2 1
-3 0 -9 6.8 1
-3 0 9 7.4 0.8
3 0 -9 9.3 1.4
3 0 -9 7.9 0.9
3 0 9 8.5 1.4
-4 0 9 89.29 2.9
4 0 9 90.49 2.7
4 0 9 86.79 3.8
-4 0 -9 83.19 3.2
-4 0 9 88.89 3.3
-4 0 -9 97.49 2.9
4 0 -9 89.59 3
4 0 -9 95.69 4.1
5 0 9 15.7 1.3
5 0 9 13.9 2.2
5 0 -9 19.3 1.9
-5 0 9 15.4 1.8
-5 0 -9 16.1 1.9
5 0 -9 17.9 2.6
-5 0 -9 17.7 1.6
-5 0 9 19 1.4
6 0 -9 2.7 1.3
-6 0 -9 1.5 1.4
6 0 9 -0.3 1.4
-6 0 9 1.4 0.9
6 0 9 1.6 0.8
-6 0 -9 0.7 1.1
6 0 -9 1.2 2
-6 0 9 2.5 1.3
7 0 -9 59.79 5.3
7 0 -9 54.89 3.3
7 0 9 42.5 4.3
-7 0 -9 49.2 3.7
-7 0 9 51.39 3.5
7 0 9 47.3 2.6
-7 0 9 46.5 2.7
-7 0 -9 47.8 2.9
8 0 -9 24.9 2.8
-8 0 9 24.3 2.5
8 0 -9 25.3 4.5
-8 0 9 25.3 2.9
0 -1 -9 142.79 4.5
0 1 -9 138.29 5.3
0 -1 9 144.79 4.2
0 -1 9 142.59 5.1
0 1 -9 149.29 3.9
0 -1 9 153.18 4.3
0 -1 -9 146.69 4.3
0 1 9 147.39 4
0 1 -9 145.79 4.7
0 1 9 149.09 3.7
-1 -1 -9 187.08 4.4
1 -1 9 181.48 3.8
-1 -1 -9 178.98 5.2
-1 1 9 182.68 5.5
-1 1 9 186.38 4.8
1 -1 9 194.08 5.1
1 1 -9 180.08 6.2
1 1 -9 188.78 6.3
1 -1 9 190.48 6.6
1 1 -9 192.88 4.6
1 1 -9 181.98 4.2
-1 1 -9 186.68 4.3
1 -1 -9 186.68 5.4
1 -1 -9 191.98 5.7
-1 1 -9 184.68 5.1
1 1 9 183.88 5.2
-1 -1 9 186.08 5.7
-1 -1 9 179.68 5.6
-1 -1 9 183.88 4.1
-1 1 -9 180.28 6.3
-1 -1 9 186.68 4.5
2 -1 9 30.2 3.3
2 -1 9 29.7 2.2
2 1 -9 27.8 1.8
-2 1 9 27.1 1.2
-2 1 9 25.9 2.3
-2 1 9 30.3 1.8
-2 -1 -9 29.7 2.2
-2 -1 -9 26.9 1.6
-2 1 9 25.8 1.3
2 1 -9 26.6 1.4
2 -1 9 26.6 1.1
2 -1 -9 25 1.6
2 1 9 27.8 2.3
-2 1 -9 25.9 1.9
-2 1 -9 26.7 2.8
2 -1 -9 26.5 1.3
2 -1 -9 26.5 2.1
2 -1 -9 21.7 2.5
2 1 9 25.7 1.5
-2 1 -9 26.1 1.5
-2 -1 9 25.3 1.4
-2 -1 9 28.2 1.5
3 -1 9 9.7 1.5
-3 -1 -9 8.5 0.8
-3 1 9 8.9 1
3 1 -9 10 1.4
-3 -1 -9 9.7 1.9
-3 1 9 8.5 0.9
3 1 -9 8.8 0.9
3 1 9 11.3 1.5
-3 -1 9 8.8 1
3 1 9 9.6 1.4
3 1 9 11 2.1
-3 1 -9 8.5 0.9
-3 -1 9 9.6 1.1
3 -1 -9 8.8 1.3
3 1 9 8.8 0.7
-3 1 -9 8.6 1.1
4 1 -9 90.19 3
-4 1 9 95.89 3
4 -1 9 87.49 2.8
4 1 -9 95.09 3.9
4 -1 9 94.19 4.1
-4 1 9 88.59 3.2
-4 -1 -9 89.09 3.2
-4 -1 -9 94.69 2.8
-4 -1 9 92.59 3.1
-4 1 -9 96.59 3.4
4 1 9 93.29 2.7
-4 -1 9 95.09 3.3
4 -1 -9 96.49 4.3
-4 1 -9 96.69 2.9
4 -1 -9 100.99 3.2
4 1 9 99.59 3.8
5 -1 9 17.5 1.3
5 1 -9 15.7 2.3
5 -1 9 14.2 2.4
-5 1 9 16.4 1.8
-5 1 9 16.7 1.4
5 1 -9 19.3 1.8
-5 -1 -9 18.8 1.7
-5 -1 -9 17.8 1.9
-5 -1 9 16.6 1.7
5 1 9 15.5 1.3
-5 -1 9 16.6 1.4
5 -1 -9 21.7 2.9
-5 1 -9 14.2 1.6
5 -1 -9 19.5 2
5 1 9 20 2.4
-5 1 -9 16.5 1.8
-6 -1 -9 1 1.6
6 -1 9 0.2 0.8
-6 1 9 1 0.8
-6 -1 -9 2.3 2
6 -1 9 0.8 1.8
6 1 -9 1.7 1.9
-6 1 9 1.6 1
6 1 -9 0.6 1.1
-6 1 -9 1.3 1.4
-6 -1 9 0.3 0.8
-6 -1 9 1.7 1.1
6 -1 -9 2.8 1.5
-6 1 -9 2.1 1.1
6 1 9 0.2 0.9
6 -1 -9 1.7 2.1
6 1 9 2.6 1.4
-7 1 9 2.4 1.6
7 1 -9 2.3 1.4
7 -1 9 -1.3 1.8
7 1 -9 1.6 2.6
7 -1 9 2.3 0.8
-7 1 -9 0.7 1.2
-7 1 -9 0.6 1.7
-7 -1 9 0 1.1
-7 -1 9 2.1 1.5
7 -1 -9 1.7 1.7
7 -1 -9 0.7 2.8
-8 1 9 6.1 1.9
-8 1 9 5.2 1.5
8 1 -9 5.3 1.6
8 1 -9 3.5 3.2
8 -1 9 6.1 1.3
8 -1 9 1.5 2.6
8 -1 -9 4.9 3.5
-8 1 -9 6 1.6
-8 -1 9 3.2 1.6
8 -1 -9 4.5 1.7
-8 1 -9 7.1 2.4
-8 -1 9 4.8 2
0 2 9 303.87 6
0 2 -9 301.57 6.5
0 2 9 307.67 6
0 -2 9 293.27 8.8
0 2 -9 288.77 9.2
0 2 -9 300.87 8
0 -2 9 295.47 5.9
0 -2 9 310.17 7.1
0 -2 -9 295.67 6.6
0 -2 9 301.67 7.5
0 -2 -9 305.37 6.5
0 2 -9 302.97 6.5
-1 2 9 114.99 4
-1 -2 -9 112.19 3.1
-1 -2 -9 110.39 2.8
1 2 -9 109.59 3.1
-1 2 9 113.59 3.3
1 2 -9 113.59 3.4
1 -2 9 114.29 4.1
1 -2 9 111.89 2.6
1 -2 9 104.29 5.2
1 -2 9 110.69 3.9
1 2 -9 107.89 5
1 2 -9 112.19 5.2
-1 -2 9 106.79 4.3
-1 2 -9 111.09 3.2
-1 2 -9 115.19 5.3
-1 2 -9 115.69 3.1
1 2 9 111.99 2.6
1 2 9 109.29 3.1
1 -2 -9 109.99 4
-1 2 -9 108.09 3.9
-1 -2 9 111.69 2.8
1 -2 -9 112.89 3.8
-1 -2 9 112.59 3.4
-2 2 9 131.29 4.2
2 2 -9 127.49 3.5
-2 2 9 130.69 5.2
-2 2 9 129.69 3.1
2 2 -9 127.99 4.1
-2 2 9 130.99 3.3
2 -2 9 135.79 4.7
2 -2 9 128.39 3.1
-2 -2 9 130.59 3.5
2 -2 -9 131.79 3.9
-2 -2 9 133.79 3.8
-2 2 -9 130.29 3.7
2 -2 -9 141.09 5.4
2 -2 -9 142.29 4.8
2 -2 -9 133.29 3.2
-3 2 9 4 0.7
3 2 -9 4.8 0.8
3 -2 9 9.1 1.8
-3 2 9 3.7 0.8
3 2 -9 5.8 1.1
-3 -2 9 5.6 0.8
-3 2 -9 4.9 1
-3 -2 9 4.4 0.8
-3 2 -9 5.3 0.7
3 -2 -9 5.8 1.6
3 -2 -9 3.3 0.9
4 -2 9 107.59 4.7
-4 2 9 103.19 3.1
4 2 -9 100.09 3.4
-4 2 9 102.89 3.5
4 2 -9 102.99 4.2
-4 -2 9 106.19 3.5
-4 2 -9 102.39 3.7
-4 2 -9 103.59 3.1
4 -2 -9 103.59 3.4
4 -2 -9 104.89 4.5
-4 -2 9 103.69 3.3
5 2 -9 4.1 1.6
5 -2 9 3.3 0.8
5 2 -9 5.2 1
5 -2 9 2.9 1.6
-5 2 9 4.2 1.1
-5 2 9 3.1 0.8
5 -2 -9 5.9 1.4
-5 -2 9 3.1 1.1
-5 -2 9 4.9 1.1
-5 2 -9 3.8 0.9
5 -2 -9 2.8 2
-5 2 -9 3.4 1.2
6 -2 9 0.2 1.7
-6 2 9 2.1 1
6 2 -9 1.9 0.9
-6 2 9 4.6 0.8
6 -2 9 2.1 0.7
6 2 -9 3.6 1.9
6 -2 -9 1.6 1.4
-6 -2 9 2.6 1.2
-6 2 -9 1.9 1.3
-6 -2 9 2.8 1
-6 2 -9 3 1.1
6 -2 -9 0.5 2.5
-7 2 9 -0.2 0.9
7 2 -9 0.1 1
-7 2 9 1.9 1.2
7 -2 9 1.8 2
7 2 -9 0.5 1.9
7 -2 9 -0.8 1
-7 2 -9 0.6 1.1
-7 2 -9 1.1 1.6
7 -2 -9 -0.5 1.6
-7 -2 9 -1.7 1
-7 -2 9 -0.3 1.2
7 -2 -9 -1.1 3.1
-8 2 9 9.9 2.2
8 -2 9 6.1 2.8
-8 2 9 8.3 2.5
8 -2 9 6.2 1.6
8 -2 -9 9.1 3.4
-8 2 -9 6.4 2.3
-8 2 -9 7.8 1.7
8 -2 -9 10.2 4.6
0 -3 9 142.19 4.5
0 3 -9 133.19 3.8
0 3 -9 138.99 3.8
0 -3 9 133.59 3.2
1 3 -9 18.4 1.4
1 3 -9 17.1 1.4
1 -3 9 21.8 2.3
1 -3 9 19.2 1
-1 -3 9 20.9 1.1
-1 -3 9 23 1.6
-1 3 -9 19.6 1.5
-1 3 -9 22.6 1.4
-2 3 9 55.59 1.9
2 -3 9 56.39 1.8
2 -3 9 57.59 3.4
-2 3 9 50.99 3.1
2 3 -9 59.79 2.3
-2 3 9 59.49 2.5
2 3 -9 54.59 2.6
-2 3 9 56.39 1.7
2 -3 -9 56.89 3.6
-2 -3 9 58.99 2.5
2 -3 -9 58.99 2.6
-2 -3 9 54.39 2
2 -3 -9 58.19 1.9
2 -3 -9 59.09 2.9
-2 3 -9 58.19 2.4
-3 3 9 85.49 2.5
3 3 -9 86.09 3.6
3 -3 9 94.19 4.4
3 3 -9 82.69 2.9
-3 3 9 86.79 2.8
3 -3 -9 82.09 2.7
-3 3 -9 87.09 3.2
-3 -3 9 86.69 2.9
-3 -3 9 80.79 2.9
3 -3 -9 89.29 3.8
4 3 -9 39.1 2.3
4 3 -9 33.5 2.8
4 -3 9 33.8 3.2
-4 3 9 38.3 1.8
-4 3 9 43.3 2.2
-4 3 -9 40.6 2.6
4 -3 -9 43 3.9
-4 -3 9 39 2.1
-4 3 -9 38.2 1.9
4 -3 -9 41.1 2.3
-4 -3 9 34.1 2.1
5 3 -9 27.9 3.1
-5 3 9 26.5 2.1
-5 3 9 24.5 1.6
5 -3 9 29.5 1.9
5 -3 9 20.6 2.9
5 3 -9 26.1 2
-5 3 -9 29.5 1.8
5 -3 -9 29.4 2.3
-5 3 -9 27.2 2.3
-5 -3 9 25.3 2.1
5 -3 -9 27.9 3.4
-5 -3 9 25.7 2.1
6 3 -9 25.6 3.3
-6 3 9 23.1 1.8
6 -3 9 24.8 2.1
6 -3 9 24.5 3.6
-6 3 9 25.4 2.3
6 3 -9 26.7 2.2
6 -3 -9 27.3 2.6
-6 -3 9 23.4 2.4
6 -3 -9 23.5 3.9
-6 -3 9 24.2 2.2
-6 3 -9 25.6 2.1
-6 3 -9 27.4 2.5
-7 3 9 6.6 1.6
7 -3 9 7.2 1.5
7 3 -9 6.9 1.7
7 3 -9 4.1 2.5
-7 3 9 8.6 1.3
7 -3 9 0.8 2.5
7 -3 -9 6.4 1.9
-7 3 -9 6.7 1.5
7 -3 -9 5.5 3.5
-7 -3 9 7.1 1.9
-7 3 -9 6.6 2
-7 -3 9 5.7 1.7
0 4 -9 0.6 0.6
0 -4 9 0.6 0.4
0 4 -9 0.3 0.8
0 -4 9 0.6 1
1 -4 9 28.7 2.6
1 -4 9 31.5 1.3
1 4 -9 33.2 1.8
1 4 -9 29 1.8
-1 -4 9 31.4 2.1
-1 4 -9 32 2
-1 4 -9 32.7 1.6
-1 -4 9 30.6 1.4
2 -4 9 84.39 4.3
2 4 -9 81.59 3.4
2 -4 9 85.99 2.5
2 4 -9 84.29 3
-2 4 -9 84.59 3.2
-2 -4 9 88.79 3.2
-2 -4 9 84.09 2.6
3 4 -9 24.7 2
3 4 -9 20.1 1.5
3 -4 9 25.6 2.9
-3 -4 9 17.2 1.6
-3 4 -9 21.3 1.7
-3 -4 9 21.6 1.5
-4 4 9 29 1.6
4 4 -9 32.9 2.2
4 -4 9 24.3 3.2
4 4 -9 31.6 3
-4 4 9 30.2 1.9
-4 -4 9 28 2.3
4 -4 -9 33.3 3.5
4 -4 -9 30.6 2.1
-4 -4 9 31.1 2.1
-4 4 -9 32.3 2.6
5 -4 9 6.7 1.2
5 4 -9 8.8 1.8
-5 4 9 7 1
5 4 -9 8.5 1.4
5 -4 9 4.9 2.6
-5 4 9 6.8 1.4
5 -4 -9 8.2 1.6
-5 -4 9 8.1 1.6
-5 -4 9 9.4 1.7
-5 4 -9 8.2 1.4
-5 4 -9 9 1.6
5 -4 -9 4.9 2.9
6 4 -9 27.4 2.4
6 -4 9 32.8 2.3
6 -4 9 27.2 4.1
-6 4 9 32.2 2.5
6 4 -9 28.5 3.5
-6 4 9 26.5 1.9
-6 4 -9 29.1 2.9
-6 -4 9 24.7 2.5
-6 4 -9 28.3 2.3
6 -4 -9 31.7 4.4
6 -4 -9 29.5 2.7
-6 -4 9 28.3 2.8
-7 4 9 6.6 1.7
7 -4 9 3.5 1.5
7 4 -9 5.9 2.3
7 4 -9 5.6 1.7
7 -4 9 5 3.3
-7 4 9 5.3 1.2
-7 4 -9 6.7 2
7 -4 -9 8.1 3.5
-7 4 -9 4.2 1.5
-7 -4 9 4.7 1.8
7 -4 -9 3.5 1.7
-7 -4 9 5 2.1
0 5 -9 14.1 1.4
0 -5 9 14.3 2.1
0 5 -9 12.9 1.5
0 -5 9 12 0.9
1 5 -9 14.4 1.4
1 5 -9 15.2 1.5
1 -5 9 13.3 1.1
1 -5 9 12.8 2.3
-1 5 -9 14.4 1.2
-1 -5 9 16.5 1.1
-1 5 -9 14.1 1.6
-1 -5 9 14.7 1.9
2 -5 9 23.6 3.1
2 5 -9 18.2 1.6
2 5 -9 16.8 1.8
2 -5 9 20.6 1.3
-2 -5 9 20.8 2.2
-2 5 -9 19.1 1.7
-2 -5 9 19.9 1.4
3 -5 9 40.1 4.1
3 5 -9 38.7 2.3
3 5 -9 37.2 2.7
-3 -5 9 42.7 2.8
-3 5 -9 36.6 2.5
-3 -5 9 37.9 2.1
4 5 -9 148.69 4.8
4 -5 9 149.19 6.9
4 5 -9 146.49 5.5
-4 -5 9 137.99 4.7
-4 5 -9 147.09 5.1
-4 -5 9 137.69 4.5
5 -5 9 53.09 5.2
5 5 -9 59.99 3.9
5 -5 9 56.09 2.8
5 5 -9 60.49 3.1
-5 5 -9 54.59 3.4
-5 -5 9 55.39 3.2
-5 -5 9 58.99 3.2
6 -5 9 9 1.7
6 -5 9 8.1 3.6
-6 5 9 10.1 1.9
6 5 -9 9.9 1.8
-6 5 9 11.1 1.4
6 5 -9 7.3 2.4
-6 5 -9 10 2.1
6 -5 -9 10 3.9
-6 -5 9 9.6 2
-6 -5 9 7.3 2.1
6 -5 -9 8.1 1.8
-7 5 9 6.6 1.7
7 5 -9 1.5 1.9
7 -5 9 1.9 3.7
7 -5 9 4.1 1.6
7 5 -9 4.5 1.4
-7 5 9 8.3 1.3
-7 5 -9 3.9 1.8
7 -5 -9 6.3 3.7
-7 -5 9 6.6 2
7 -5 -9 6.9 1.9
-7 -5 9 6.9 1.9
0 6 -9 10.6 1.5
0 6 -9 9.7 1.4
0 -6 9 6.4 2.1
0 -6 9 9.1 1.1
1 6 -9 37.9 2.5
1 -6 9 36.2 1.9
1 6 -9 36.3 2.4
1 -6 9 30.7 3.5
-1 -6 9 27.5 2.8
-1 6 -9 32.4 2
-1 -6 9 35.9 2
-1 6 -9 35.5 2.3
2 -6 9 30 2
2 6 -9 28.7 2.4
2 6 -9 30.9 2.2
2 -6 9 26.9 3.7
-2 -6 9 30 1.9
-2 6 -9 29.2 1.9
-2 -6 9 29.4 2.7
-2 6 -9 29.8 2.3
3 -6 9 17.6 3.7
3 6 -9 15 1.8
3 6 -9 14.6 2
-3 -6 9 12.1 1.5
-3 -6 9 16.2 2
-3 6 -9 12.1 1.7
4 6 -9 4.3 1.3
4 -6 9 6.8 3.5
4 6 -9 2.6 1.3
-4 -6 9 0.3 1.4
-4 -6 9 0.2 1.2
-4 6 -9 3 1.4
5 6 -9 4 1.7
5 -6 9 3.5 2.9
5 6 -9 2.2 1.2
-5 -6 9 2 1.5
-5 6 -9 2.3 1.4
-5 -6 9 5.2 1.7
6 6 -9 20.6 3.2
6 6 -9 19.2 2.4
6 -6 9 18.7 2.4
6 -6 9 14.5 3.9
-6 -6 9 21.1 2.7
-6 6 -9 21.5 2.8
-6 -6 9 22.7 2.5
7 6 -9 16 2.4
7 6 -9 16.5 3.5
-7 -6 9 17.2 2.5
-7 -6 9 21.4 2.7
0 7 -9 6.8 1.5
0 -7 9 0.7 2.1
0 7 -9 2.4 0.9
0 -7 9 3.8 1.1
1 7 -9 5.9 1.6
1 -7 9 5.8 1.2
1 7 -9 5 1.2
1 -7 9 7.4 2.8
-1 7 -9 5.5 1.3
-1 -7 9 6.8 1.1
-1 -7 9 5.2 2.1
-1 7 -9 7.4 1.3
2 7 -9 58.59 3.5
2 -7 9 63.59 6.4
2 7 -9 60.89 3.2
2 -7 9 62.79 2.8
-2 7 -9 59.09 3.1
-2 -7 9 63.59 2.7
-2 7 -9 57.19 2.9
-2 -7 9 69.39 4.1
3 7 -9 5.7 1.5
3 -7 9 5.3 3.5
3 7 -9 3.9 1.3
-3 -7 9 7.5 1.5
-3 -7 9 8 2
-3 7 -9 7.9 1.6
4 -7 9 27.4 4.7
4 7 -9 25.8 2.6
4 7 -9 30.2 2.5
-4 -7 9 32.4 3
-4 7 -9 29.6 2.7
-4 -7 9 33.7 2.4
5 7 -9 41.1 2.9
5 7 -9 41.3 3.6
5 -7 9 36.8 5.7
-5 -7 9 44 3.2
-5 7 -9 35.5 3.2
-5 -7 9 42.4 2.8
6 -7 9 6.1 4.1
6 -7 9 12.1 2.3
6 7 -9 13.4 2.4
6 7 -9 14.1 2.8
-6 -7 9 13.2 2.4
-6 -7 9 8.8 3.4
-6 7 -9 14.3 2.5
0 -8 9 90.19 3.3
0 8 -9 89.19 4
0 -8 9 88.39 5.5
0 8 -9 85.49 4
1 -8 9 71.29 5.6
1 -8 9 74.39 3
1 8 -9 66.09 3.7
1 8 -9 71.79 3.7
-1 8 -9 78.29 3.8
-1 -8 9 72.69 3
-1 -8 9 67.69 4.7
-1 8 -9 72.19 3.5
2 -8 9 7.1 3.6
2 8 -9 7.2 1.8
2 -8 9 4.7 1.4
2 8 -9 3.9 1.5
-2 8 -9 7.6 1.6
-2 8 -9 4.6 1.2
-2 -8 9 5.9 1.3
-2 -8 9 7.8 2.4
3 -8 9 10.9 4.2
3 8 -9 11.5 2.1
3 8 -9 9 1.7
-3 -8 9 9.7 1.5
-3 -8 9 9.1 2.3
-3 8 -9 8.4 1.5
-3 8 -9 8.6 1.7
4 -8 9 1.3 3.6
-4 8 -9 0.6 1.2
5 -8 9 12.9 2
5 -8 9 6.6 3.7
-5 8 -9 10.7 2.2
0 9 -9 50.09 3.2
0 9 -9 46.9 3.1
0 -9 9 50.09 4.7
0 -9 9 50.49 2.7
1 9 -9 31 2.8
1 -9 9 30.1 4.1
1 9 -9 33.9 2.9
1 -9 9 34.4 2.5
-1 -9 9 30.8 3.6
-1 -9 9 36.4 2.6
-1 9 -9 35.3 2.7
-1 9 -9 34.2 2.8
2 -9 9 35.1 4.8
2 -9 9 37.7 2.7
-2 9 -9 37.3 2.8
-2 9 -9 34.4 2.7
3 -9 9 7.7 4
-3 9 -9 10.5 1.7
-3 9 -9 5.6 1.6
4 -9 9 1.7 4.2
-4 9 -9 2.3 1.5
-4 9 -9 2.1 1.3
5 -9 9 17.6 2.5
5 -9 9 17.1 4.9
-5 9 -9 18.4 2.5
-5 9 -9 20.9 2.6
3 -10 9 4.9 3.5
-3 10 -9 6.3 1.6
-3 10 -9 1.4 1.5
4 -10 9 4.7 4.1
-4 10 -9 10.5 2.2
0 0 10 217.58 5.4
0 0 -10 215.68 6.1
0 0 -10 220.88 6.6
0 0 10 215.78 6.2
-1 0 10 2.2 0.9
1 0 -10 1.5 0.6
1 0 -10 3 1.1
1 0 10 4.2 1.2
-1 0 10 3.6 0.5
-1 0 -10 2.1 0.7
1 0 -10 1.3 1
1 0 -10 2.7 0.6
-1 0 10 2.8 0.9
-1 0 -10 2.4 1
-1 0 10 3.7 0.7
-2 0 -10 103.59 3.6
2 0 -10 100.89 4.4
-2 0 10 103.29 4.9
-2 0 -10 107.19 4.7
2 0 -10 105.09 3.4
2 0 -10 103.69 2.8
-2 0 -10 103.09 2.9
-2 0 10 101.39 2.8
2 0 10 106.09 3.7
-2 0 10 103.39 2.9
2 0 -10 107.09 5.1
2 0 10 104.09 3.5
-2 0 10 105.79 4
2 0 10 101.69 4.8
-3 0 -10 3.4 0.7
3 0 -10 4.9 0.8
3 0 -10 7.5 1.4
-3 0 10 6.1 0.8
3 0 10 6.6 1.3
-3 0 -10 6.9 1
-3 0 10 5 0.8
4 0 -10 22.1 1.7
4 0 -10 15.4 2
-4 0 -10 20.9 1.9
4 0 10 19.6 2.2
-4 0 10 17.5 1.4
4 0 10 19.3 1.2
-4 0 -10 20.9 1.5
-4 0 10 18.3 1.5
5 0 10 5.3 1.8
5 0 10 7.3 0.9
-5 0 -10 5.3 1.1
-5 0 10 6.1 1.3
5 0 -10 7.4 2.3
-5 0 -10 6.2 1.5
-5 0 10 8.4 1.1
5 0 -10 5.3 1.3
6 0 -10 60.69 3.2
-6 0 -10 59.69 3.6
6 0 10 58.89 4.3
-6 0 10 65.09 3.3
6 0 -10 62.69 4.5
-6 0 -10 60.29 2.8
6 0 10 60.09 2.6
-6 0 10 60.39 2.9
7 0 10 -1.4 0.8
-7 0 -10 0.6 1.2
-7 0 10 0.1 0.8
7 0 -10 2.1 2.8
-7 0 10 0.2 1.2
7 0 -10 -0.9 1.5
7 0 10 -2 1.8
-7 0 -10 -0.1 1.6
8 0 -10 4.6 2.1
-8 0 10 4.2 2
8 0 -10 3.6 3.6
-8 0 10 6.1 2.1
0 1 -10 469.25 12.3
0 1 10 494.55 10.4
0 -1 10 468.25 9.1
0 1 -10 499.35 9.7
0 -1 10 486.25 10.7
0 1 -10 476.65 9.7
0 -1 10 507.45 10.2
0 -1 -10 495.75 10.8
0 1 10 489.55 9.9
0 1 -10 495.65 11.4
0 -1 -10 485.85 11
0 -1 10 481.95 11.9
-1 -1 -10 158.08 4.9
1 -1 10 155.38 6
1 1 -10 153.98 3.8
-1 -1 -10 151.58 4
1 -1 10 151.58 3.3
1 1 -10 152.48 5.9
-1 1 10 150.78 5
-1 1 10 153.98 4.4
1 -1 10 155.98 4.7
1 1 -10 154.48 5.9
1 1 -10 155.48 4.2
-1 -1 10 159.48 4.1
-1 1 -10 154.18 5.9
1 -1 -10 153.58 5.3
-1 -1 10 155.98 3.6
-1 1 -10 154.98 3.7
1 1 10 153.08 4.8
-1 1 -10 154.58 4.7
-1 1 -10 149.29 3.8
-1 -1 10 159.28 5.3
-1 -1 10 154.88 5.2
1 -1 -10 148.39 5.1
-2 1 10 55.29 3.3
2 -1 10 54.69 2.8
-2 1 10 54.29 1.9
-2 -1 -10 52.89 2.3
2 1 -10 53.79 2
2 -1 10 54.39 1.7
-2 1 10 51.09 2.5
2 1 -10 52.29 2.5
-2 1 10 52.69 1.8
-2 -1 -10 51.29 3.2
2 -1 10 48.3 3.8
-2 -1 10 54.09 2.1
2 -1 -10 52.59 2.3
2 1 10 50.79 3.3
-2 1 -10 52.69 2.1
2 -1 -10 50.19 1.8
2 -1 -10 49.9 3.1
-2 1 -10 47 3.4
-2 -1 10 53.79 2
-2 1 -10 50.99 2.6
2 1 10 55.09 2.2
2 -1 -10 54.89 3.4
3 1 -10 182.48 4.6
3 -1 10 186.18 5.8
3 1 -10 183.28 5.4
-3 -1 -10 180.38 4
-3 1 10 178.88 4.7
-3 1 10 186.08 4.5
-3 -1 -10 186.78 4.6
-3 1 -10 189.48 4.3
3 -1 -10 182.98 5.5
3 1 10 182.68 5.2
-3 -1 10 183.98 4.7
-3 1 -10 184.88 4.9
-3 -1 10 182.48 4.6
3 -1 -10 170.28 4.4
3 1 10 183.68 4
4 1 -10 17.5 2.1
-4 1 10 18 1.5
-4 -1 -10 16.5 1.5
-4 1 10 21 1.3
4 -1 10 18.1 2.2
4 1 -10 20.9 1.5
4 -1 10 21.2 1.2
-4 -1 -10 16.4 1.7
4 1 10 19.9 2
-4 -1 10 21.6 1.6
4 -1 -10 24.3 1.8
4 -1 -10 15.6 2.2
4 1 10 20.4 1.1
-4 1 -10 17.4 1.4
-4 1 -10 15.8 1.6
-4 -1 10 16 1.4
5 -1 10 28.6 3
-5 -1 -10 27.5 2.8
-5 1 10 29.5 2.1
-5 1 10 33.1 1.9
5 -1 10 31.5 1.7
5 1 -10 31.7 2.1
-5 -1 -10 33.8 3.9
5 1 -10 29.7 3.2
5 -1 -10 24.9 3.1
-5 1 -10 33.3 2.6
5 -1 -10 33.5 2.5
-5 -1 10 31.2 2.1
-5 1 -10 34 2.1
-5 -1 10 28.3 2
6 -1 10 8.3 1.3
-6 1 10 13.1 1.4
6 1 -10 10.6 1.7
6 -1 10 9.1 2.5
6 1 -10 10.1 2.6
-6 1 10 11.2 1.8
-6 1 -10 10.4 1.9
-6 -1 10 7.4 1.4
6 -1 -10 9.9 1.8
6 -1 -10 11 2.8
-6 1 -10 10.1 1.5
-6 -1 10 11.2 1.7
-7 1 10 15.1 1.8
7 -1 10 16.7 1.7
7 1 -10 15.1 3.5
7 -1 10 9.9 2.9
-7 1 10 16.2 2.5
7 1 -10 14.3 2
7 -1 -10 11.5 2.2
-7 -1 10 18.5 1.9
-7 1 -10 13.5 2.4
7 -1 -10 14.4 3.8
-7 1 -10 14.2 1.8
-7 -1 10 13.1 2.1
-8 1 10 36.6 4
8 -1 10 36.5 2.6
8 1 -10 31.5 7.5
-8 1 10 37.6 4
8 -1 10 37.5 4.8
8 -1 -10 32.3 4.8
8 -1 -10 24.2 7.2
-8 -1 10 37.4 5.2
-8 1 -10 34.6 2.8
-8 1 -10 31.8 3.5
0 -2 10 460.95 12.2
0 -2 -10 452.45 9.9
0 -2 10 460.15 10.7
0 2 -10 471.65 12.9
0 2 10 468.95 9.1
0 2 -10 479.15 11.5
0 2 -10 468.15 9.6
0 2 10 463.85 9
0 -2 10 473.85 10.2
0 -2 10 458.15 8.9
0 2 -10 463.65 9.6
0 -2 -10 461.35 9.7
-1 2 10 48 2.5
1 -2 10 45.7 1.5
1 2 -10 47.6 2.1
1 -2 10 47.9 2.7
1 -2 10 49.99 4.2
1 -2 10 46.3 2.5
-1 2 10 47.4 2
1 2 -10 49.3 2
-1 -2 10 50.59 2.3
-1 2 -10 49.3 2.1
1 -2 -10 45.2 2.6
-1 -2 10 47.9 1.7
-1 2 -10 47.2 3.6
1 -2 -10 50.99 2.6
-1 2 -10 48 1.8
-1 2 -10 45.1 2.6
2 -2 10 176.78 4
-2 2 10 175.48 4.2
2 2 -10 180.18 5.1
-2 2 10 177.38 5.2
-2 2 10 183.18 6.4
2 2 -10 179.88 4.4
2 -2 10 182.18 5.8
-2 2 10 178.78 4
2 -2 -10 173.58 4
2 -2 -10 171.18 6.5
-2 -2 10 176.88 4.3
2 -2 -10 182.98 5.6
-2 2 -10 173.58 4.7
2 -2 -10 180.18 4.7
-2 -2 10 175.38 4.6
3 -2 10 24.7 2.4
3 2 -10 22.3 1.8
3 2 -10 25.4 1.5
-3 2 10 24.9 1.5
-3 2 10 24.9 1.3
3 -2 -10 31.6 2.6
3 -2 -10 28.5 1.7
-3 2 -10 26.7 1.7
-3 -2 10 23.8 1.5
-3 -2 10 24.1 1.4
4 2 -10 108.39 3.5
4 2 -10 94.39 4.1
-4 2 10 103.19 3.2
-4 2 10 98.19 3.5
4 -2 10 100.39 4.7
-4 2 -10 102.79 3.7
-4 2 -10 96.39 3.1
-4 -2 10 98.79 3.5
-4 -2 10 100.19 3.4
4 -2 -10 105.89 4.7
4 -2 -10 97.29 3.4
5 2 -10 8.3 1.9
5 -2 10 10.5 2.2
-5 2 10 9.9 1.3
-5 2 10 7.9 1.4
5 2 -10 8.3 1.4
5 -2 10 8.1 1.2
-5 2 -10 8.5 1.6
-5 -2 10 11.3 1.5
-5 2 -10 9.9 1.3
5 -2 -10 9.1 1.6
5 -2 -10 7.4 2.5
-5 -2 10 9.2 1.5
-6 2 10 27.5 2.3
6 -2 10 24.8 1.9
-6 2 10 23 1.9
6 2 -10 26.7 3.5
6 2 -10 23.9 2.3
6 -2 10 22 3.2
-6 -2 10 27.7 2
6 -2 -10 25.3 2.7
6 -2 -10 26.2 3.9
-6 -2 10 27.1 2.4
-6 2 -10 23.1 2
-6 2 -10 26.3 2.7
-7 2 10 21.7 2.2
7 2 -10 24.4 2.6
7 -2 10 22.2 2.3
7 2 -10 25.6 3.8
-7 2 10 28.9 2.7
7 -2 10 24 3.8
-7 -2 10 28.3 3
7 -2 -10 23.3 2.7
7 -2 -10 24.4 4.3
-7 2 -10 25.5 3.1
-7 -2 10 27.8 2.5
-7 2 -10 32.1 2.5
0 3 -10 7.8 1.1
0 -3 10 8.3 1.4
0 -3 10 10 0.8
0 3 -10 6.3 0.9
1 -3 10 18.4 0.9
1 3 -10 14.5 1.3
1 -3 10 19.4 2.4
1 3 -10 19.8 1.5
-1 -3 10 17.5 1
-1 3 -10 18 1.5
-1 -3 10 22.8 1.9
-1 3 -10 19.6 1.3
-2 3 10 16.1 1.1
2 -3 10 13.7 2
2 3 -10 15.8 1.6
2 3 -10 13.4 1.2
2 -3 10 15.1 1
-2 3 10 15.8 1.3
2 -3 -10 14.1 1.8
-2 -3 10 14.9 1.1
-2 -3 10 14.7 1.4
-2 3 -10 15.5 1.4
-3 3 10 289.07 6.7
3 3 -10 283.17 7.7
3 -3 10 288.97 8.5
-3 3 10 292.87 6.3
3 3 -10 291.07 6.9
-3 -3 10 295.67 6.8
-3 -3 10 294.87 6.9
3 -3 -10 300.37 7.5
3 -3 -10 283.67 6.2
-3 3 -10 291.77 7.2
4 -3 10 2.5 1.8
4 3 -10 5.8 1.2
4 3 -10 5.1 1.4
-4 3 10 3.4 0.9
-4 3 10 4 0.8
4 -3 -10 5.7 2.2
-4 -3 10 3.1 0.9
4 -3 -10 4.1 1.3
-4 3 -10 3.2 1
-4 -3 10 5.4 1.1
5 -3 10 20.9 1.8
5 3 -10 22.1 2.8
-5 3 10 20.4 1.9
5 3 -10 24.8 2.1
5 -3 10 18.6 2.9
-5 3 10 26.8 1.7
-5 3 -10 22.4 1.7
5 -3 -10 20.1 3.2
-5 -3 10 23.1 2
5 -3 -10 21.3 2.1
-5 -3 10 21.4 2
-5 3 -10 22.7 2.4
6 -3 10 35.5 3.7
6 3 -10 40.5 2.7
6 3 -10 40.8 3.9
-6 3 10 42.8 2.9
6 -3 10 41.9 2.4
-6 3 10 34.8 2.2
-6 -3 10 39.6 2.9
6 -3 -10 43.4 4.8
-6 3 -10 34.7 2.9
-6 3 -10 40.8 2.4
6 -3 -10 39.3 3
-6 -3 10 38 2.6
7 -3 10 7.1 2.7
7 3 -10 2.9 2.2
7 3 -10 7.4 1.7
-7 3 10 8 1.5
-7 3 10 6.6 1.3
7 -3 10 4.4 1.5
7 -3 -10 4.5 3.4
7 -3 -10 5.5 1.9
-7 3 -10 5.6 1.4
-7 -3 10 4.6 1.7
-7 -3 10 3.1 1.9
-7 3 -10 6.7 2
0 4 -10 187.88 5.2
0 4 -10 181.98 5
0 -4 10 180.58 5.6
0 -4 10 176.68 4.1
1 4 -10 18.5 1.6
1 -4 10 18.1 1
1 -4 10 15.1 2.1
1 4 -10 19.3 1.6
-1 -4 10 19.5 1.8
-1 -4 10 19.6 1.2
-1 4 -10 17.7 1.6
-1 4 -10 18.6 1.3
2 -4 10 161.28 5.9
2 4 -10 154.08 5
2 4 -10 152.58 4.5
2 -4 10 157.48 3.8
-2 -4 10 158.78 4.7
-2 -4 10 157.18 4
-2 4 -10 152.48 4.6
3 4 -10 19.9 2.1
3 -4 10 21.7 2.7
3 4 -10 21.1 1.7
-3 4 -10 20.2 1.8
-3 -4 10 21.7 1.5
-3 -4 10 19.8 1.7
4 4 -10 67.29 3.6
4 -4 10 66.39 4.9
4 4 -10 67.89 3
-4 4 10 71.99 2.5
-4 4 10 70.19 2.9
4 -4 -10 63.49 4.4
-4 4 -10 72.09 3.4
4 -4 -10 66.89 2.8
-4 -4 10 69.89 3
-4 -4 10 66.29 2.9
5 -4 10 22.4 3.6
-5 4 10 24.2 2
5 4 -10 24.3 2.2
5 4 -10 24 3
-5 4 10 23 1.7
5 -4 10 27.5 1.8
-5 -4 10 25.3 2.4
5 -4 -10 25.4 2.3
5 -4 -10 20.6 3.6
-5 4 -10 22.2 2.5
-5 -4 10 22.2 2.2
6 -4 10 31.7 2.4
6 -4 10 35.3 4.7
-6 4 10 31.3 2.6
6 4 -10 28.1 3.5
6 4 -10 34.4 2.5
-6 4 10 30 2
-6 -4 10 31.6 2.6
6 -4 -10 35.1 2.9
-6 -4 10 32.6 2.8
6 -4 -10 36.6 4.7
-6 4 -10 32.8 3.1
7 4 -10 10.8 1.9
7 4 -10 11 2.8
7 -4 10 10.2 3.8
7 -4 10 9.2 1.7
-7 4 10 12.2 2.1
-7 4 -10 12.1 2.4
7 -4 -10 10.8 2.1
7 -4 -10 12 3.8
-7 -4 10 11.9 2.3
-7 -4 10 8.9 2
0 -5 10 7.8 0.8
0 -5 10 8.2 1.7
0 5 -10 10.1 1.3
0 5 -10 9 1.3
1 -5 10 11.6 2.3
1 5 -10 13.8 1.6
1 5 -10 13.6 1.4
1 -5 10 12.3 1.1
-1 -5 10 13.8 1.1
-1 5 -10 13.6 1.2
-1 5 -10 14.6 1.6
-1 -5 10 12.3 1.7
2 -5 10 16.1 1.3
2 5 -10 16.8 1.8
2 -5 10 19.8 2.9
2 5 -10 16.5 1.6
-2 5 -10 19.5 1.8
-2 -5 10 17.1 1.3
-2 -5 10 14.8 1.8
3 -5 10 56.59 4.7
3 5 -10 57.29 2.8
3 5 -10 51.79 3.3
-3 5 -10 56.99 3
-3 -5 10 62.19 3.3
-3 -5 10 50.79 2.4
4 5 -10 0.8 0.9
4 5 -10 -0.2 1
4 -5 10 0.4 2.3
-4 -5 10 -0.8 0.9
-4 5 -10 0.8 1
-4 -5 10 -0.6 1.3
5 5 -10 17.9 2.6
5 5 -10 17.5 2
5 -5 10 14.4 3.3
-5 -5 10 18.5 2.2
-5 -5 10 17.3 2.1
-5 5 -10 18.9 2.4
6 -5 10 21.7 4.5
6 5 -10 31.4 4
6 5 -10 24.1 2.4
6 -5 10 24.9 2.5
-6 -5 10 26.3 2.8
-6 -5 10 25.9 2.7
-6 5 -10 29.2 3.2
7 -5 10 3 1.5
7 -5 10 -0.6 3.2
7 5 -10 3.7 1.5
7 5 -10 -0.6 1.9
-7 5 -10 3.4 1.8
-7 -5 10 4.6 1.8
-7 -5 10 4.1 2
0 6 -10 43.3 2.6
0 -6 10 42.8 2.1
0 6 -10 39 2.5
0 -6 10 38.8 3.7
1 6 -10 14.1 1.8
1 -6 10 11.8 3.2
1 6 -10 16.3 2
1 -6 10 11.8 1.3
-1 -6 10 8.4 2.2
-1 -6 10 11.3 1.2
-1 6 -10 14.1 1.6
-1 6 -10 10.6 1.6
2 6 -10 2.7 1.2
2 -6 10 3 1
2 -6 10 4.1 2.7
2 6 -10 2.4 1.1
-2 6 -10 1.2 1.1
-2 -6 10 6.1 1.1
-2 -6 10 -0.8 1.7
-2 6 -10 1.7 0.8
3 6 -10 34.6 2.7
3 6 -10 31.6 2.3
3 -6 10 30.2 4
-3 6 -10 32.3 2.4
-3 -6 10 36.3 3
-3 -6 10 35.3 2.2
4 -6 10 55.09 5.5
4 6 -10 49.7 3.4
4 6 -10 49.99 3
-4 6 -10 53.09 3.3
-4 -6 10 57.49 2.9
-4 -6 10 47.5 3.1
5 6 -10 53.89 3.3
5 6 -10 54.49 3.9
5 -6 10 52.09 5.9
-5 -6 10 54.29 3.4
-5 6 -10 52.89 3.4
-5 -6 10 53.99 3.2
6 -6 10 25.4 4.8
6 6 -10 25.8 3.5
6 -6 10 21.2 2.4
6 6 -10 26.2 2.9
-6 -6 10 23 2.6
-6 6 -10 22.6 2.9
-6 -6 10 22.2 2.8
0 -7 10 21.3 1.9
0 7 -10 19 2.1
0 -7 10 19.7 3.1
0 7 -10 19.7 2
1 -7 10 1.2 1
1 7 -10 -0.2 1.2
1 -7 10 2.5 2.7
1 7 -10 2.9 1.1
-1 -7 10 2.2 2.1
-1 7 -10 0.7 0.9
-1 7 -10 2.1 1.2
-1 -7 10 2.4 1
2 -7 10 70.19 3.1
2 7 -10 71.69 3.6
2 7 -10 74.39 3.9
2 -7 10 68.59 6.3
-2 -7 10 69.79 4.1
-2 -7 10 70.99 2.9
-2 7 -10 74.19 3.6
-2 7 -10 72.59 3.2
3 7 -10 44.4 3
3 -7 10 35.2 4.9
3 7 -10 42.9 3.1
-3 -7 10 44.4 2.6
-3 7 -10 41.9 2.8
-3 -7 10 43.8 3.5
-3 7 -10 43 2.6
4 7 -10 15 2.3
4 7 -10 14.6 2
4 -7 10 17.1 3.9
-4 7 -10 11.9 2
-4 -7 10 16.4 2.2
-4 -7 10 13.9 1.7
5 7 -10 3 1.3
5 -7 10 0 4
5 7 -10 0.9 1.4
-5 -7 10 4.2 1.5
-5 7 -10 2.4 1.4
-5 -7 10 1 1.7
6 -7 10 12.7 2.3
6 7 -10 12.1 2.5
6 -7 10 10.3 4.6
6 7 -10 15 2.4
-6 7 -10 18.1 2.8
-6 -7 10 17.3 2.3
-6 -7 10 12.5 2.4
0 -8 10 23.7 3.5
0 -8 10 25.8 2.1
0 8 -10 22.7 2.3
0 8 -10 24.9 2.5
1 -8 10 32.8 4.2
1 -8 10 31.2 2.3
1 8 -10 29.3 2.5
1 8 -10 34 2.9
-1 -8 10 32.9 2.3
-1 8 -10 34.5 2.8
-1 8 -10 31.7 2.5
-1 -8 10 31.8 3.5
2 -8 10 9.7 1.6
2 -8 10 8.2 3.7
2 8 -10 10.6 2
2 8 -10 11.2 2.1
-2 8 -10 8.9 1.7
-2 -8 10 7.6 2.4
-2 -8 10 9.9 1.5
-2 8 -10 10.5 1.7
3 8 -10 4.5 1.6
3 8 -10 1.6 1.3
3 -8 10 3.5 3.6
-3 8 -10 2.4 1.1
-3 -8 10 3 1.4
-3 -8 10 4.1 2.1
-3 8 -10 2.9 1.2
4 8 -10 71.09 4.2
4 -8 10 56.39 6.3
4 8 -10 58.89 3.7
-4 -8 10 55.39 3.1
-4 8 -10 59.49 3.8
-4 -8 10 62.59 3.7
-4 8 -10 58.19 3.4
5 -8 10 6.3 4
-5 8 -10 7.5 1.9
0 9 -10 9.3 1.8
0 -9 10 12.5 3.2
0 9 -10 11.3 2
0 -9 10 10.2 1.7
1 9 -10 8.5 1.9
1 -9 10 12.5 3.4
1 9 -10 13 2.2
1 -9 10 13.2 1.8
-1 9 -10 11.8 1.9
-1 -9 10 11.5 2.8
-1 -9 10 12.2 1.8
-1 9 -10 12.6 2
2 9 -10 4.5 1.8
2 -9 10 3.7 3.3
2 -9 10 7 1.7
2 9 -10 6 1.8
-2 -9 10 7.2 2.6
-2 9 -10 7.2 1.7
-2 -9 10 5.7 1.6
-2 9 -10 3.4 1.4
3 -9 10 32.3 4.9
-3 9 -10 49.5 3.5
-3 9 -10 49.9 3
4 -9 10 5.6 4
-4 9 -10 1.7 1.5
-4 9 -10 1 1.2
1 -10 10 9.7 5.3
2 -10 10 6.1 3.4
-2 10 -10 2.6 1.4
-2 10 -10 4.5 1.7
3 -10 10 10.2 3.9
-3 10 -10 7.5 1.8
-3 10 -10 2.6 1.9
0 0 -11 5.2 1.5
0 0 11 4.6 1.2
0 0 -11 3.1 1.1
-1 0 11 15 1.8
1 0 -11 20.3 2.4
1 0 11 16.4 0.8
1 0 -11 16.6 2.2
-1 0 -11 16.1 1.1
1 0 -11 15.6 1.2
1 0 11 18.2 2.1
-1 0 -11 17.9 1.5
-1 0 -11 17.6 2.3
1 0 -11 17.5 1.3
-1 0 11 16 1.8
-1 0 11 17.2 0.9
-1 0 11 16.4 1.2
-1 0 -11 17.4 1.3
1 0 11 15.5 1.7
-2 0 -11 0.9 0.8
2 0 11 1 1.3
-2 0 -11 2.2 1.2
2 0 11 3.8 1.4
2 0 -11 0.6 0.6
2 0 -11 3.7 0.8
-2 0 11 2.3 0.5
-2 0 11 1.7 0.5
2 0 11 2.5 0.7
-2 0 -11 1.9 0.6
-3 0 11 16.9 1.2
-3 0 11 16.3 1.3
-3 0 -11 21.1 1.4
-3 0 -11 21.6 1.8
3 0 -11 17.6 1.9
3 0 11 23.2 2.3
3 0 -11 12.9 1.4
4 0 -11 25.8 1.8
4 0 11 24.4 2.3
-4 0 11 22.6 1.5
4 0 11 31.2 1.6
4 0 -11 19.6 2.4
-4 0 11 21.9 1.6
-4 0 -11 21.9 2
-4 0 -11 22.8 1.6
-5 0 11 36.7 2.4
5 0 11 36.2 1.8
-5 0 -11 34.3 2.6
5 0 11 32.8 3.1
-5 0 11 36.3 2
5 0 -11 47.4 2.7
-5 0 -11 37.2 2.2
5 0 -11 37.1 3.8
6 0 -11 19.1 2.2
6 0 -11 22.1 3.5
6 0 11 19.7 3
-6 0 11 16.8 2
-6 0 -11 17.6 1.8
6 0 11 16.5 1.7
-6 0 11 21.4 1.9
-6 0 -11 18.5 2.3
-7 0 11 7.1 1.6
-7 0 11 9 1.8
7 0 -11 9.5 3.2
7 0 -11 8 2
0 1 11 103.29 3
0 -1 -11 96.19 3.7
0 1 -11 97.49 4.9
0 1 -11 97.69 4.1
0 1 -11 97.89 2.9
0 -1 11 97.69 3.3
0 -1 11 99.09 3.6
0 -1 11 86.79 4.2
0 1 11 93.79 3.4
0 -1 -11 93.19 4.1
0 1 -11 93.99 2.9
0 -1 11 93.09 2.3
-1 1 11 243.68 6.8
1 1 -11 243.08 5.5
1 -1 11 231.48 7.7
1 1 -11 233.78 7.8
1 1 -11 245.18 8
1 -1 11 259.27 6.6
-1 -1 -11 248.38 6
-1 1 11 254.67 6.3
-1 -1 -11 246.28 6.8
1 1 -11 241.98 5.9
1 -1 11 250.07 6.5
1 -1 11 246.58 4.9
-1 1 -11 240.48 5.6
1 1 11 243.98 6.7
-1 -1 11 244.18 5.7
-1 -1 11 237.78 5.2
-1 1 -11 247.58 5.4
-1 1 -11 242.58 6.6
1 -1 -11 249.88 7.1
-1 -1 11 237.38 7.1
1 -1 -11 243.98 7.2
-1 -1 11 232.68 7
-1 1 -11 246.08 8
-2 1 11 7.2 0.8
2 1 -11 7.1 0.9
2 -1 11 6.8 0.7
-2 1 11 6.2 1.1
-2 -1 -11 5.5 1.6
-2 1 11 7.8 1.7
-2 -1 -11 7.9 1.2
2 -1 11 9.6 1.5
-2 1 11 8.7 0.7
2 1 -11 6.6 1.1
2 1 11 7.9 1.1
-2 -1 11 7.9 0.8
-2 1 -11 7.3 1.1
2 -1 -11 9.4 1.9
2 1 11 11.7 1.8
2 -1 -11 7.5 1.9
2 -1 -11 7.9 1.1
-2 -1 11 7.3 0.9
2 -1 -11 8.8 1
2 1 11 7.8 2
3 -1 11 95.09 4
3 1 -11 86.69 2.9
-3 -1 -11 83.69 2.6
-3 -1 -11 89.69 3.4
3 1 -11 87.89 3.5
-3 1 11 87.59 2.7
-3 1 11 85.59 2.8
3 1 11 83.99 2.5
3 -1 -11 88.29 3.6
-3 -1 11 86.69 2.9
-3 1 -11 89.99 3.2
3 1 11 94.49 3.9
3 -1 -11 94.79 2.9
-3 -1 11 88.69 2.9
4 -1 11 326.97 9.1
4 1 -11 328.17 7.6
-4 1 11 328.17 7.4
4 1 -11 322.97 8.8
-4 1 11 321.67 7.8
4 -1 -11 324.67 7.4
4 -1 -11 334.97 9
-4 1 -11 323.97 7.1
-4 1 -11 325.87 7.9
-4 -1 11 321.67 7.8
-4 -1 11 325.77 7.6
-5 1 11 31.7 2
5 1 -11 30.3 3.3
5 -1 11 29.6 1.7
5 1 -11 27.7 2.1
5 -1 11 30.4 3
-5 1 11 28 2.2
-5 1 -11 27 2.6
-5 1 -11 30.1 2
-5 -1 11 30.3 2
5 -1 -11 33.4 2.6
5 -1 -11 31.5 3.5
-5 -1 11 28.4 2.2
6 1 -11 6.3 2.5
6 1 -11 7.8 1.6
6 -1 11 6.4 2
6 -1 11 6.2 1.1
-6 1 11 6.2 1.2
-6 1 11 5.8 1.4
6 -1 -11 5.9 1.6
-6 1 -11 4.8 1.7
6 -1 -11 6 2.6
-6 -1 11 8.6 1.4
-6 -1 11 7.6 1.6
-6 1 -11 5.7 1.3
7 1 -11 20.8 3.7
7 -1 11 21.2 1.9
7 1 -11 24.6 2.7
-7 1 11 21.2 2.4
-7 1 11 24.4 2.5
7 -1 11 18.5 3.3
-7 1 -11 23.5 2.9
7 -1 -11 17.9 2.5
-7 -1 11 24.2 2.8
-7 1 -11 22.5 2.2
-7 -1 11 23 2
7 -1 -11 23.3 4.4
8 -1 11 9.9 2.7
8 -1 11 7.6 1.6
-8 1 -11 12.6 1.9
-8 1 -11 10.1 2.5
0 2 -11 17.4 1.3
0 -2 11 16.5 0.9
0 -2 11 16.7 1.7
0 2 -11 16.4 1.4
-1 2 11 81.09 2.8
1 -2 11 78.49 2.2
1 2 -11 81.09 2.7
1 -2 11 81.89 3.7
-1 2 11 86.19 3.4
1 2 -11 82.59 3
-1 2 -11 81.89 2.8
1 -2 -11 77.29 3.5
-1 -2 11 78.19 2.3
-1 2 -11 81.09 2.6
-1 -2 11 79.79 2.9
1 -2 -11 84.19 3.8
2 -2 11 118.29 3
2 -2 11 122.19 4.8
-2 2 11 123.99 5.1
-2 2 11 125.69 3.2
-2 2 11 126.19 3
-2 2 11 127.59 4.2
2 2 -11 119.49 4
2 2 -11 118.79 3.5
-2 -2 11 118.49 3.6
-2 -2 11 120.49 3.3
2 -2 -11 122.99 5.3
2 -2 -11 126.99 4.6
2 -2 -11 124.99 3.8
-2 2 -11 123.49 3.7
2 -2 -11 120.19 3.1
-3 2 11 23.7 1.2
3 -2 11 24 2.7
3 2 -11 21.9 1.5
3 2 -11 20.8 1.9
-3 2 11 22.8 1.4
3 -2 -11 21.8 2.2
-3 -2 11 22.6 1.5
-3 -2 11 19.3 1.4
3 -2 -11 23.9 1.7
-3 2 -11 23.7 1.7
4 -2 11 4.3 2.2
4 2 -11 8.8 1.7
-4 2 11 6.2 1
-4 2 11 8.6 1
4 2 -11 4.2 1.1
-4 -2 11 5.8 1
-4 2 -11 9.2 1.2
4 -2 -11 7.5 2.1
-4 2 -11 7 1.4
4 -2 -11 8.5 1.4
-4 -2 11 10 1.3
5 -2 11 7 2.2
-5 2 11 10.8 1.3
-5 2 11 7.6 1.3
5 2 -11 10.7 2.3
5 -2 11 8.8 1.2
5 2 -11 8.7 1.4
5 -2 -11 7.3 2.7
5 -2 -11 9.2 1.8
-5 2 -11 10.1 1.7
-5 -2 11 11.9 1.5
-5 2 -11 8.8 1.3
-5 -2 11 11.8 1.6
-6 2 11 12.6 1.6
6 -2 11 16.6 1.6
6 2 -11 16.3 1.9
6 -2 11 17.5 2.9
-6 2 11 21.2 2.4
6 2 -11 17.6 3.2
-6 -2 11 17.5 2.1
-6 2 -11 17.4 2.4
6 -2 -11 13.9 3.2
6 -2 -11 15.2 2.2
-6 -2 11 16.2 1.9
-6 2 -11 15.6 1.7
-7 2 11 17.2 2.1
7 -2 11 19.4 2.1
7 2 -11 26.6 2.6
7 2 -11 23.7 4.1
-7 2 11 17 2.4
7 -2 11 20.9 3.4
-7 -2 11 21.2 2.3
7 -2 -11 20.1 2.5
-7 -2 11 23.1 2.6
-7 2 -11 16.1 2.5
7 -2 -11 18.3 4
-7 2 -11 21.9 2.3
0 3 -11 6.4 0.9
0 3 -11 6.1 1.1
0 -3 11 7.3 0.7
0 -3 11 6.8 1.2
1 3 -11 222.38 5.6
1 -3 11 223.88 6.8
1 -3 11 220.18 4.8
1 3 -11 220.88 5.8
-1 3 -11 220.98 5.3
-1 3 -11 222.38 5.6
-1 -3 11 226.18 5.9
-1 -3 11 218.38 4.9
2 -3 11 53.99 1.9
2 -3 11 55.29 3.7
2 3 -11 57.09 2.8
2 3 -11 54.59 2.3
-2 3 -11 54.89 2.6
-2 -3 11 54.29 2.5
-2 -3 11 52.69 2
3 3 -11 30.2 1.8
-3 3 11 31.4 1.6
3 3 -11 32.8 2.3
3 -3 11 31.7 2.9
-3 3 11 32.2 1.5
-3 -3 11 31.1 1.8
3 -3 -11 32.5 1.9
3 -3 -11 32.9 2.9
-3 3 -11 30.2 1.9
-3 -3 11 32.2 1.8
4 -3 11 97.39 5.2
4 3 -11 102.19 4.5
-4 3 11 109.09 3.7
-4 3 11 103.39 3.2
4 3 -11 103.49 3.7
4 -3 -11 105.49 3.6
-4 -3 11 104.29 3.7
4 -3 -11 100.69 4.9
-4 -3 11 102.29 3.7
-4 3 -11 102.09 4
5 3 -11 10.3 1.5
5 -3 11 13.1 2.9
-5 3 11 11.2 1.7
-5 3 11 13.8 1.2
5 3 -11 9.3 1.9
5 -3 11 10 1.3
5 -3 -11 11.7 1.8
-5 3 -11 10.6 1.8
-5 -3 11 12 1.6
-5 -3 11 11.1 1.5
5 -3 -11 11.2 3.2
6 3 -11 16.4 2.1
-6 3 11 16.8 1.8
-6 3 11 18.5 2.2
6 -3 11 17.5 3.5
6 3 -11 19.5 3.2
6 -3 11 20.4 1.7
-6 -3 11 18.2 2.1
-6 3 -11 18.4 2.5
6 -3 -11 20.2 2.2
-6 -3 11 18.1 2.1
6 -3 -11 19.1 3.8
-6 3 -11 19.3 2.1
-7 3 11 8.5 1.8
7 -3 11 5.1 1.5
-7 3 11 6.6 1.5
7 -3 11 4.2 2.9
7 3 -11 4.2 1.8
7 3 -11 5 2.7
-7 3 -11 3.8 1.7
-7 3 -11 6.8 2.1
7 -3 -11 5.4 2.1
-7 -3 11 8.7 2
7 -3 -11 7.5 3.7
-7 -3 11 5.8 1.9
0 4 -11 52.99 2.4
0 -4 11 52.89 1.8
0 4 -11 51.29 2.6
0 -4 11 56.19 3.2
1 -4 11 50.09 1.7
1 4 -11 46.5 2.4
1 4 -11 50.89 2.4
1 -4 11 51.59 3.5
-1 4 -11 51.69 2.2
-1 -4 11 52.89 1.9
-1 4 -11 49.1 2.4
-1 -4 11 49.9 2.6
2 4 -11 100.89 3.6
2 4 -11 105.29 4.1
2 -4 11 112.69 5
2 -4 11 105.69 3
-2 -4 11 107.29 3.1
-2 -4 11 108.29 3.8
-2 4 -11 108.99 3.7
3 -4 11 8.9 2.1
3 4 -11 7.9 1.3
3 4 -11 4.7 1.6
-3 4 -11 8.2 1.4
-3 -4 11 10.2 1.5
-3 -4 11 12 1.4
4 4 -11 14.8 2.2
4 -4 11 14.3 2.7
4 4 -11 12.3 1.5
-4 4 -11 10.2 1.6
-4 -4 11 13.4 1.7
-4 -4 11 13.2 1.5
5 4 -11 20.3 2
-5 4 11 17.9 1.9
5 4 -11 17.9 2.6
-5 4 11 15.5 1.5
5 -4 11 16.4 3.2
-5 4 -11 14.5 2.1
5 -4 -11 19 1.9
5 -4 -11 17.2 3.2
-5 -4 11 18.7 1.9
-5 -4 11 15.1 1.8
6 -4 11 20.9 4
-6 4 11 24.8 2.4
-6 4 11 23 1.7
6 4 -11 20.5 3.2
6 4 -11 25.7 2.5
6 -4 11 21.7 2.1
-6 -4 11 18.4 2.3
6 -4 -11 21.2 3.9
6 -4 -11 21.4 2.3
-6 -4 11 20.8 2.5
-6 4 -11 23.7 2.8
7 -4 11 27.1 4.7
7 4 -11 31.2 2.9
7 -4 11 31 2.6
7 4 -11 28.8 4.3
-7 4 11 35 2.7
-7 4 11 32.2 2
-7 -4 11 28 2.9
-7 4 -11 26.3 3.2
7 -4 -11 24 2.7
-7 -4 11 30.4 3.2
7 -4 -11 27.3 4.6
0 -5 11 0.4 0.5
0 5 -11 0.5 0.6
0 5 -11 1.3 0.8
0 -5 11 0.9 1.1
1 5 -11 11.2 1.5
1 5 -11 11.1 1.4
1 -5 11 11.6 2.2
1 -5 11 13.3 1.1
-1 5 -11 13.4 1.6
-1 5 -11 12.8 1.4
-1 -5 11 12.7 1.1
-1 -5 11 10.9 1.7
2 5 -11 31.4 2.6
2 -5 11 22.7 3.1
2 -5 11 23.5 1.4
2 5 -11 22.8 1.9
-2 5 -11 23.1 1.9
-2 -5 11 20.6 1.5
-2 -5 11 22 2.2
-2 5 -11 28.4 1.9
3 -5 11 16.2 3.4
3 5 -11 13 2
3 5 -11 11 1.7
-3 5 -11 15.4 2.1
-3 -5 11 13.3 1.5
-3 -5 11 17.1 2.1
4 -5 11 42 4.6
4 5 -11 46.9 3.1
4 5 -11 41.3 2.7
-4 -5 11 40.3 2.5
-4 5 -11 48.3 3
-4 -5 11 43.7 2.5
5 -5 11 2.6 2.3
5 5 -11 1 1
5 5 -11 -1.3 1.2
-5 -5 11 -0.6 1.2
-5 -5 11 -0.2 1.3
-5 5 -11 0.9 1
6 -5 11 26.8 2.6
6 5 -11 29.8 2.7
6 -5 11 24.2 4.2
6 5 -11 24.8 3.2
-6 5 -11 26.7 3.1
-6 -5 11 21.4 2.6
-6 -5 11 29.2 2.9
7 5 -11 11 2.7
7 -5 11 10.2 3.8
7 -5 11 6.5 1.7
7 5 -11 5.9 1.7
-7 5 -11 5.6 1.9
-7 -5 11 10.2 1.9
-7 -5 11 6 2
0 6 -11 -0.3 0.7
0 -6 11 -4.3 1.6
0 -6 11 0.4 0.8
1 -6 11 88.49 5.2
1 6 -11 96.09 4.1
1 -6 11 91.79 3
1 6 -11 96.89 4.1
-1 -6 11 92.39 4.5
-1 -6 11 98.89 3.2
-1 6 -11 99.79 3.9
2 -6 11 65.19 2.6
2 6 -11 61.49 3.5
2 6 -11 67.49 3.3
2 -6 11 60.89 5.4
-2 -6 11 67.39 2.7
-2 -6 11 61.09 3.7
-2 6 -11 66.69 3.4
-2 6 -11 65.69 3
3 -6 11 26.2 4.3
3 6 -11 24.9 2.4
3 6 -11 22.1 2.1
-3 -6 11 21.2 2
-3 -6 11 23.5 2.6
-3 6 -11 24.7 2.3
4 6 -11 11.6 1.8
4 6 -11 12.7 2.1
4 -6 11 11.9 3.9
-4 6 -11 15.3 2.2
-4 -6 11 10.7 1.8
-4 -6 11 12.1 1.7
5 -6 11 9.7 3.9
5 6 -11 9.9 2.2
5 6 -11 16.4 2.3
-5 6 -11 13.1 2.2
-5 -6 11 13.5 2.3
-5 -6 11 12.5 1.9
6 6 -11 7.1 2.2
6 -6 11 3.1 3.5
6 -6 11 6.9 1.8
6 6 -11 6.9 1.8
-6 -6 11 6.3 1.7
-6 -6 11 7.5 2
-6 6 -11 5.3 1.9
0 7 -11 0.7 0.9
0 -7 11 1.3 1.1
0 7 -11 0.5 1
0 -7 11 1.2 2.1
1 -7 11 9.4 1.4
1 7 -11 10.1 1.7
1 -7 11 9.2 3.3
1 7 -11 8.5 1.7
-1 7 -11 8.4 1.6
-1 -7 11 9.7 2.6
-1 7 -11 9.7 1.7
-1 -7 11 10.6 1.4
2 7 -11 9.8 1.9
2 -7 11 10.2 3.3
2 7 -11 8.9 1.9
2 -7 11 10 1.5
-2 -7 11 8.2 2.1
-2 -7 11 14.3 1.7
-2 7 -11 11.2 1.5
-2 7 -11 9.7 1.7
3 7 -11 17.7 2.4
3 -7 11 16.6 4.1
3 7 -11 15.9 2.2
-3 -7 11 17.6 1.8
-3 7 -11 17.6 2.3
-3 7 -11 18.5 1.9
-3 -7 11 18 2.6
4 -7 11 5.1 3.5
4 7 -11 4.8 1.7
4 7 -11 4.9 1.5
-4 -7 11 6.4 1.9
-4 -7 11 7.2 1.5
-4 7 -11 6.5 1.7
5 7 -11 28.8 2.8
5 7 -11 29.6 3.6
5 -7 11 13.7 4.7
-5 -7 11 25.3 2.9
-5 -7 11 27 2.5
-5 7 -11 28.1 2.9
6 -7 11 23.5 5.3
6 7 -11 30.4 2.9
6 7 -11 23.1 3.5
6 -7 11 21.5 2.6
-6 -7 11 31.5 2.8
-6 7 -11 21.5 3
-6 -7 11 27.2 3
0 -8 11 5.3 1.3
0 8 -11 3.8 1.3
0 8 -11 4.6 1.5
0 -8 11 5 2.7
1 -8 11 22.3 2.1
1 -8 11 20.4 3.7
1 8 -11 25.5 2.7
1 8 -11 21.7 2.4
-1 -8 11 19.6 2
-1 8 -11 21.7 2.4
-1 -8 11 18.1 3
-1 8 -11 24.7 2.3
2 8 -11 12.4 2.3
2 -8 11 9.5 3.6
2 -8 11 12.7 1.8
2 8 -11 10.3 2.1
-2 -8 11 11.8 1.7
-2 8 -11 13.7 2.1
-2 -8 11 11.1 2.6
-2 8 -11 12.6 1.8
3 8 -11 7.7 1.9
3 -8 11 8.3 4
3 8 -11 7.7 1.8
-3 -8 11 5.7 2.1
-3 8 -11 9.7 1.9
-3 -8 11 7.4 1.6
-3 8 -11 10.3 1.7
4 -8 11 46.1 5.7
4 8 -11 53.99 3.6
4 8 -11 53.19 3.8
-4 -8 11 56.09 3.6
-4 -8 11 50.79 3.1
-4 8 -11 49.7 3.1
-4 8 -11 58.89 3.8
5 8 -11 9 2.2
5 -8 11 16.6 4.7
5 8 -11 7.5 2.1
-5 -8 11 11.4 2.4
-5 8 -11 10.1 2
-5 -8 11 11.1 1.9
0 9 -11 15 2.2
0 9 -11 11.7 2
0 -9 11 13.6 1.8
0 -9 11 11.5 3.1
1 9 -11 -0.6 1.4
1 9 -11 -0.8 1.2
1 -9 11 0.3 1.3
1 -9 11 0.7 2.8
-1 9 -11 0.7 1.2
-1 9 -11 0.3 1.2
-1 -9 11 1.3 1.4
-1 -9 11 0.3 2.3
2 9 -11 0.3 1.4
2 -9 11 0.1 3
2 -9 11 0.7 1.4
2 9 -11 1.8 1.5
-2 9 -11 0.3 1.2
-2 -9 11 2.3 2.5
-2 -9 11 3 1.3
-2 9 -11 2.3 1.4
3 -9 11 42.4 5.8
-3 9 -11 50.29 3.3
-3 9 -11 52.99 3.6
4 -9 11 6.3 4.2
-4 9 -11 5.2 1.4
-4 9 -11 6.3 1.8
0 -10 11 -2.1 4.2
1 -10 11 10.2 1.8
1 -10 11 11.7 3.5
-1 10 -11 7.8 2
-1 10 -11 10.9 2.2
2 -10 11 3.8 2.9
-2 10 -11 1.9 1.4
-2 10 -11 2.3 1.2
3 -10 11 8.3 3.9
-3 10 -11 8.7 2.2
-3 10 -11 11.8 2.3
0 0 -12 12.4 1.9
0 0 -12 8.3 1.4
0 0 12 6.5 1
0 0 12 7.8 1.3
-1 0 12 50.89 2
-1 0 -12 55.79 3.4
-1 0 12 50.69 2.7
1 0 -12 53.49 3.4
1 0 -12 52.59 3.6
1 0 12 48.6 1.4
-1 0 -12 52.39 2.5
1 0 12 50.19 3.3
-1 0 12 51.69 1.7
-1 0 -12 54.59 1.8
1 0 12 44 2.5
-1 0 -12 53.99 2.1
1 0 -12 52.89 2
-1 0 12 46.6 2.8
1 0 -12 47.9 2.2
2 0 12 0.3 1
2 0 12 0.8 0.3
-2 0 -12 2.3 0.9
-2 0 -12 1.3 0.7
2 0 -12 2.1 0.9
2 0 12 1 0.6
-2 0 12 1.5 0.5
-2 0 -12 1.3 1.1
2 0 12 1.1 1.5
-2 0 12 2 0.6
-3 0 12 619.94 12.6
3 0 -12 612.64 13.5
-3 0 12 621.34 12.5
3 0 12 631.14 13.8
-3 0 -12 628.24 12.6
3 0 -12 627.04 12.5
4 0 12 22 2.5
4 0 12 21.5 1.3
-4 0 12 23.7 1.5
-4 0 -12 19.2 1.6
-4 0 12 20.1 1.7
4 0 -12 27.5 2.9
-4 0 -12 22.5 2.2
4 0 -12 20.8 1.9
5 0 12 5.1 0.9
-5 0 -12 5.6 1.2
5 0 -12 7 1.6
-5 0 12 7 1.4
-5 0 -12 7.1 1.7
-5 0 12 5.3 1.1
5 0 12 6.4 1.8
5 0 -12 7.7 2.6
6 0 -12 5.2 2.8
-6 0 12 4.6 1.3
6 0 -12 4.7 1.7
-6 0 12 7 1.3
7 0 -12 0.3 2.8
7 0 -12 0 1.5
-7 0 12 1.1 0.9
-7 0 12 0.7 1.2
0 1 -12 79.49 2.6
0 -1 12 82.49 3
0 1 -12 71.29 4.3
0 1 12 78.89 2.7
0 -1 12 78.09 2.1
0 -1 12 73.59 3.9
0 -1 12 72.89 3.2
0 -1 -12 80.39 3.9
0 1 12 71.09 2.9
0 -1 -12 82.29 3.6
0 1 -12 76.79 3.8
0 1 -12 76.09 2.6
-1 -1 -12 119.99 4.7
-1 -1 -12 121.99 3.8
1 -1 12 115.89 2.8
-1 1 12 119.59 3
1 1 -12 121.89 3.4
-1 1 12 117.89 3.9
-1 1 12 117.99 4.3
1 -1 12 119.69 4.2
-1 1 12 118.79 2.8
1 -1 12 114.69 5.3
1 1 -12 124.09 3.8
1 -1 12 117.89 4.2
-1 1 -12 114.29 3.3
1 -1 -12 112.89 3.4
1 -1 -12 116.69 3.1
-1 -1 12 118.59 3
1 -1 -12 123.79 5
1 -1 -12 122.69 4.8
-1 1 -12 106.09 5.3
-1 1 -12 117.99 4.2
-1 -1 12 120.59 3.6
1 1 12 113.79 4.3
-1 1 -12 111.09 3.1
2 -1 12 9.9 0.8
-2 1 12 11.2 0.9
2 -1 12 10.8 1.8
2 1 -12 10.2 1.3
2 1 -12 11.7 1.2
-2 1 12 11 0.9
-2 1 -12 10.9 1.2
-2 -1 12 9.9 0.9
2 -1 -12 11 1.4
-2 -1 12 9.6 1.1
2 -1 -12 12.6 1.2
3 1 -12 46.3 2.7
-3 1 12 44 2
3 -1 12 48.7 3.1
3 1 -12 51.99 2.3
-3 1 12 45.8 1.9
3 -1 -12 50.09 3
-3 -1 12 44.5 2
-3 -1 12 46.3 2
3 -1 -12 41.1 2.1
-3 1 -12 44.6 2.3
-4 1 12 203.18 5.5
4 1 -12 205.18 6.7
4 1 -12 198.08 5.4
4 -1 12 194.48 6.9
-4 1 12 200.18 5.1
-4 1 -12 200.78 5.8
4 -1 -12 201.08 6.7
-4 -1 12 200.88 5.5
-4 1 -12 211.48 5.1
4 -1 -12 208.98 5.4
-4 -1 12 200.28 5.4
-5 1 12 30.3 1.9
-5 1 12 36.3 2.4
5 -1 12 31.6 1.8
5 1 -12 33.5 2.3
5 1 -12 30.2 3.4
5 -1 12 34.8 3.2
5 -1 -12 36.9 2.7
5 -1 -12 31.7 3.5
-5 1 -12 32 2.1
-5 -1 12 31.5 2.1
-5 -1 12 33.6 2.3
-5 1 -12 33.8 2.9
6 -1 12 17.8 1.6
6 1 -12 18.1 2.2
-6 1 12 19.2 2.2
6 -1 12 19 2.9
6 1 -12 15.7 3.3
-6 1 12 18.4 1.7
-6 -1 12 19.8 1.9
-6 -1 12 18.7 2.2
6 -1 -12 19.5 2.4
-6 1 -12 19.2 2
6 -1 -12 20.8 3.7
-6 1 -12 15.3 2.3
7 -1 12 11.2 1.6
7 -1 12 14.1 2.8
7 1 -12 13.3 3.4
-7 1 12 12.3 2
-7 1 12 14.4 1.9
7 1 -12 11.5 2.2
-7 1 -12 14.9 1.9
-7 -1 12 16 2.3
-7 1 -12 12.6 2.4
7 -1 -12 11.6 3.6
-7 -1 12 13.3 1.9
7 -1 -12 10.2 2.2
0 -2 12 1.7 0.9
0 2 -12 0.2 0.4
0 -2 12 0 0.3
0 2 -12 -0.1 0.9
1 -2 12 177.38 4
1 -2 12 175.88 5.7
1 2 -12 169.68 4.8
1 2 -12 181.68 4.6
-1 2 -12 177.88 4.7
-1 -2 12 177.08 4.1
-1 -2 12 175.38 4.9
-1 2 -12 178.98 4.4
2 2 -12 16.4 1.4
-2 2 12 18.7 1
2 2 -12 17.1 1.8
2 -2 12 18.2 2.3
2 -2 12 17.8 1
-2 2 12 18.3 1.1
-2 -2 12 19.5 1.2
-2 -2 12 19.2 1.5
-2 2 -12 17.9 1.5
2 -2 -12 17.8 1.8
2 -2 -12 16.4 1.6
3 2 -12 119.39 4.5
3 2 -12 128.39 3.9
-3 2 12 125.59 3.6
-3 2 12 124.79 3.4
3 -2 12 130.59 5.2
-3 2 -12 126.09 4
-3 -2 12 128.49 3.8
3 -2 -12 128.49 4.6
3 -2 -12 127.89 3.6
-3 -2 12 130.49 3.9
4 -2 12 101.69 5
4 2 -12 106.39 4.7
4 2 -12 108.29 3.8
-4 2 12 103.99 3.7
-4 2 12 104.59 3.4
-4 2 -12 104.89 3.9
4 -2 -12 111.39 3.8
4 -2 -12 105.29 4.9
-4 -2 12 107.29 3.8
-4 -2 12 103.29 3.6
5 -2 12 1.8 0.8
-5 2 12 2.2 1.1
5 2 -12 2.6 1.6
-5 2 12 3.5 0.9
5 2 -12 0.7 1
5 -2 12 2.5 1.9
-5 2 -12 5.7 1.4
5 -2 -12 2.3 1.5
-5 -2 12 1.9 1
-5 2 -12 2.5 1.4
-5 -2 12 2.5 0.9
5 -2 -12 2.9 2.7
6 -2 12 6.2 2.3
-6 2 12 7.7 1.7
6 2 -12 7.4 2.4
-6 2 12 7.4 1.2
6 2 -12 9 1.6
6 -2 12 5.5 1.3
-6 -2 12 7.7 1.5
-6 2 -12 6.1 1.5
-6 2 -12 12.3 2.3
6 -2 -12 7 3.1
-6 -2 12 7.3 1.4
6 -2 -12 6.7 1.9
7 -2 12 0 0.9
-7 2 12 -0.1 1
-7 2 12 1.2 1.3
7 2 -12 -0.2 1.3
7 -2 12 0.4 2.2
7 2 -12 -0.3 2.3
7 -2 -12 0.1 1.6
7 -2 -12 -2.8 3.1
-7 2 -12 -0.4 1.5
-7 -2 12 1.7 1.2
-7 2 -12 -0.3 1.7
-7 -2 12 0.8 1.3
0 3 -12 21 1.7
0 -3 12 24.8 2
0 -3 12 20.4 1.1
0 3 -12 21.2 1.6
1 -3 12 306.77 6.5
1 3 -12 320.47 7.4
1 3 -12 309.57 7.6
1 -3 12 295.67 8.5
-1 3 -12 316.57 7.4
-1 3 -12 315.87 7.1
-1 -3 12 318.07 7.7
-1 -3 12 321.27 6.6
2 3 -12 8 1.1
2 -3 12 8 0.8
2 -3 12 8.2 1.9
2 3 -12 9.7 1.5
-2 -3 12 8.2 0.9
-2 -3 12 8.6 1.3
-2 3 -12 10.3 1.3
3 3 -12 37.7 2.5
3 -3 12 38.5 3.2
3 3 -12 37.8 2.1
-3 3 -12 39.8 2.3
-3 -3 12 40.2 2.1
-3 -3 12 38.5 1.9
4 -3 12 28.9 3.4
-4 3 12 39.7 2.1
4 3 -12 34.5 2.9
-4 3 12 34.9 1.8
4 3 -12 36.3 2.3
4 -3 -12 37.4 2.4
-4 -3 12 38.2 2.3
-4 3 -12 36.8 2.5
-4 -3 12 36 2.1
4 -3 -12 31 3.2
-5 3 12 18.4 1.6
5 -3 12 25.8 3.6
5 -3 12 26.2 1.7
5 3 -12 20.7 2.9
-5 3 12 23.6 2
5 3 -12 22.4 2.1
-5 3 -12 18.5 2.2
-5 -3 12 21.6 2.1
5 -3 -12 21.6 2.2
-5 -3 12 22.4 2.2
5 -3 -12 21.1 3.5
6 -3 12 28.6 2.1
6 -3 12 25.6 3.7
6 3 -12 31 3.8
-6 3 12 22 2.1
-6 3 12 32.5 2.6
6 3 -12 29.4 2.7
-6 -3 12 27.4 2.6
6 -3 -12 33.1 3
6 -3 -12 32.4 4.3
-6 3 -12 30.9 3.2
-6 -3 12 33.8 2.7
7 3 -12 7.9 2.9
-7 3 12 4.2 1.3
7 -3 12 5.6 2.5
7 3 -12 4.7 1.8
7 -3 12 3.1 1.5
-7 3 12 3.7 1.6
7 -3 -12 9.4 3.5
-7 -3 12 5.8 1.7
-7 3 -12 5.2 2.1
7 -3 -12 4.4 1.9
-7 -3 12 8 2
0 4 -12 0.8 0.6
0 -4 12 1.5 0.4
0 4 -12 1.6 0.9
0 -4 12 3 1
1 4 -12 78.99 3.2
1 -4 12 71.39 4
1 4 -12 74.59 3.1
1 -4 12 79.59 2.4
-1 4 -12 80.59 2.9
-1 4 -12 79.49 3.2
-1 -4 12 80.49 3.4
-1 -4 12 76.49 2.4
2 -4 12 19.8 2.6
2 -4 12 21.3 1.3
2 4 -12 21.2 2
2 4 -12 22 1.7
-2 -4 12 21.1 1.9
-2 -4 12 20 1.3
-2 4 -12 22.8 1.6
-2 4 -12 23.2 1.9
3 4 -12 32.8 2.2
3 4 -12 31 2.5
3 -4 12 30.5 3.7
-3 -4 12 34.4 1.8
-3 -4 12 32.4 2.1
-3 4 -12 33.4 2.3
4 4 -12 6.5 1.7
4 4 -12 4.3 1.2
4 -4 12 6.1 2
-4 4 -12 7 1.5
-4 -4 12 6.4 1.4
-4 -4 12 7.7 1.3
5 -4 12 1.7 2.2
5 4 -12 2.6 1.6
5 4 -12 0.8 0.8
-5 -4 12 0.7 1
-5 4 -12 1.3 1.2
-5 -4 12 0.8 1.1
6 -4 12 13.9 3.7
6 4 -12 13.7 2
6 4 -12 14.3 3
6 -4 12 12.9 1.7
-6 -4 12 12.2 2
-6 4 -12 14.8 2.4
-6 -4 12 12 2.1
6 -4 -12 10.7 2.8
-7 4 12 15.5 1.5
7 -4 12 5.3 3.7
7 4 -12 10.1 1.9
7 -4 12 8.9 1.7
7 4 -12 8.1 2.8
-7 4 12 10 2.1
-7 4 -12 8.4 2.3
7 -4 -12 11.6 4
-7 -4 12 11.6 2
7 -4 -12 9.5 2.4
-7 -4 12 10.1 2.2
0 5 -12 125.69 4.4
0 -5 12 119.29 4.8
0 5 -12 124.89 4.3
0 -5 12 122.19 3.4
1 -5 12 154.08 5.9
1 5 -12 150.88 4.9
1 5 -12 146.19 4.9
1 -5 12 150.18 3.8
-1 5 -12 148.49 4.6
-1 -5 12 148.89 3.9
-1 5 -12 142.49 4.8
-1 -5 12 147.49 5.1
2 5 -12 43 2.8
2 5 -12 40.6 2.6
2 -5 12 43 3.9
2 -5 12 44.3 1.9
-2 -5 12 42 2
-2 5 -12 43 2.3
-2 5 -12 42.5 2.5
-2 -5 12 41.5 2.7
3 -5 12 23.1 3.4
3 5 -12 26.3 2.4
3 -5 12 23.7 1.6
3 5 -12 26.8 2
-3 -5 12 23.7 1.7
-3 -5 12 27.2 2.3
-3 5 -12 24.9 2.1
4 5 -12 22.8 2.2
4 5 -12 23.7 2.5
4 -5 12 28.2 4
-4 -5 12 22.2 2.1
-4 -5 12 18 2
-4 5 -12 26.2 2.5
5 5 -12 22.3 2.3
5 5 -12 20.2 2.8
-5 5 -12 19.2 2.4
-5 -5 12 20.7 2.2
-5 -5 12 22.4 2.3
6 5 -12 8.7 2.5
6 5 -12 5.8 1.8
6 -5 12 4.9 1.5
6 -5 12 7.5 3.1
-6 -5 12 5.1 1.8
-6 -5 12 7.5 1.9
-6 5 -12 6.6 2
7 5 -12 1.3 3.1
7 5 -12 -0.1 1.6
-7 -5 12 2.3 2.2
-7 -5 12 2.8 2.5
0 -6 12 7 1.2
0 6 -12 8.4 1.5
0 6 -12 11.2 1.7
0 -6 12 9.4 2.2
1 -6 12 25.2 1.6
1 6 -12 27.1 2.3
1 6 -12 27.5 2.7
1 -6 12 18 3.1
-1 -6 12 24.4 3.1
-1 -6 12 26.5 1.8
-1 6 -12 25.6 2
-1 6 -12 22.6 2.1
2 -6 12 42.1 2.2
2 -6 12 37.5 4.4
2 6 -12 41 2.9
2 6 -12 42 2.6
-2 6 -12 46.7 2.8
-2 -6 12 40.5 2.2
-2 -6 12 37.4 3
-2 6 -12 40.4 2.4
3 6 -12 19.9 2.6
3 -6 12 14.1 3.1
3 6 -12 13.6 1.9
-3 6 -12 14.5 2
-3 6 -12 15.1 1.8
-3 -6 12 16.1 2.3
-3 -6 12 16 1.8
4 6 -12 1.4 1.1
4 -6 12 1.9 3.1
4 6 -12 2 1
-4 6 -12 1.3 1.3
-4 -6 12 1.5 1.1
-4 -6 12 -0.1 1.3
5 6 -12 3.7 1.4
5 -6 12 0.2 3.1
5 6 -12 3.4 1.6
-5 -6 12 2 1.6
-5 6 -12 2.1 1.4
-5 -6 12 1.5 1.5
6 -6 12 16.8 2.3
6 6 -12 12.8 2.8
6 6 -12 15.3 2.3
6 -6 12 13.8 4.6
-6 6 -12 11.4 2.4
-6 -6 12 14.2 2.2
-6 -6 12 16.7 2.4
0 7 -12 52.19 3.2
0 -7 12 47.1 4.6
0 7 -12 53.49 3.2
0 -7 12 52.09 2.4
1 -7 12 76.39 3
1 -7 12 66.99 5
1 7 -12 73.29 3.9
1 7 -12 72.79 3.7
-1 -7 12 70.19 2.9
-1 -7 12 70.39 4.3
-1 7 -12 73.59 3.7
-1 7 -12 71.79 3.5
2 -7 12 8.4 3.2
2 7 -12 10.6 2
2 7 -12 9.5 1.9
2 -7 12 9.7 1.4
-2 7 -12 8.8 1.7
-2 -7 12 7.2 2.1
-2 -7 12 9 1.5
-2 7 -12 10.5 1.7
3 7 -12 32.5 3
3 7 -12 34.9 2.8
3 -7 12 26.7 4.5
-3 -7 12 33.5 2.4
-3 7 -12 32.1 2.6
-3 -7 12 34.2 3.3
-3 7 -12 29.7 2.3
4 7 -12 12.3 2.4
4 -7 12 6.7 3.7
4 7 -12 11.2 2
-4 -7 12 9.8 2.1
-4 7 -12 9.9 1.9
-4 -7 12 10.8 1.7
5 -7 12 8.3 3.7
5 7 -12 8.2 2.2
5 7 -12 6.1 1.7
-5 -7 12 9.1 1.8
-5 7 -12 8.7 2.1
-5 -7 12 10.4 2.2
6 -7 12 5.7 6.6
6 7 -12 2.6 1.3
6 -7 12 1.4 2.6
6 7 -12 1.4 1.7
-6 -7 12 2 1.6
-6 7 -12 0.7 2.4
-6 -7 12 2.7 1.9
0 8 -12 0.6 1
0 -8 12 -0.5 2.4
0 8 -12 1.7 1.3
0 -8 12 1.8 1.2
1 -8 12 21.7 2
1 8 -12 20.7 2.6
1 -8 12 17.1 3.5
1 8 -12 17.1 2.3
-1 -8 12 16.7 3
-1 8 -12 17.7 2.4
-1 -8 12 18.7 1.9
-1 8 -12 19.6 2.1
2 8 -12 23.8 3.1
2 -8 12 23 4.2
2 -8 12 24.7 2.5
2 8 -12 20 2.6
-2 -8 12 20.2 3.1
-2 -8 12 23.4 2.2
-2 8 -12 25.5 2.5
-2 8 -12 25.1 2.3
3 8 -12 19.7 2.8
3 8 -12 18.6 2.6
3 -8 12 17.4 4.3
-3 8 -12 22.5 2.1
-3 -8 12 17.7 2.8
-3 -8 12 20.7 2.1
-3 8 -12 15.8 2.2
4 -8 12 50.79 6
4 8 -12 65.79 4
4 8 -12 67.59 4.4
-4 -8 12 65.99 3.2
-4 -8 12 66.89 4
-4 8 -12 69.19 4.2
-4 8 -12 61.29 3.5
5 8 -12 17.7 2.7
5 8 -12 19.9 3
5 -8 12 24.3 5.2
-5 -8 12 22.3 2.4
-5 8 -12 22.8 2.8
-5 8 -12 29.6 3
-5 -8 12 17.8 2.6
0 9 -12 28.5 2.8
0 -9 12 22.3 3.6
0 9 -12 26.6 2.7
0 -9 12 24.2 2.3
1 -9 12 30.9 4.2
1 9 -12 32.5 3.2
1 -9 12 35.6 2.7
1 9 -12 31.4 3.1
-1 -9 12 33 3.8
-1 -9 12 31.5 2.6
-1 9 -12 33.7 3.1
-1 9 -12 37.7 3.2
2 -9 12 2 3.2
2 9 -12 0 1.5
2 -9 12 0.1 1.3
2 9 -12 -1.3 1.3
-2 9 -12 -1.1 1.2
-2 -9 12 0.9 1.3
-2 -9 12 -2.5 2.1
-2 9 -12 0 1.2
3 -9 12 15.1 4.1
3 9 -12 9.8 2.3
3 9 -12 12.8 2.5
-3 -9 12 18.2 2
-3 9 -12 20.5 2.6
-3 -9 12 13.8 2.7
-3 9 -12 14 2.2
4 -9 12 10.2 4.3
-4 9 -12 12.7 2.1
-4 9 -12 12.3 2.3
0 -10 12 1.5 1.5
0 -10 12 1.3 2.8
0 10 -12 -0.6 1.2
1 -10 12 3.2 1.5
1 -10 12 4.1 3
-1 10 -12 -0.2 1.3
-1 10 -12 -0.6 1.4
2 -10 12 1.9 3
-2 10 -12 2.1 1.4
-2 10 -12 3.4 1.4
3 -10 12 10.6 4
-3 10 -12 8.7 2.1
-3 10 -12 10.2 2.2
0 0 -13 12.1 2.3
0 0 13 5.8 1.3
0 0 -13 5.8 1.4
0 0 13 2.8 0.9
-1 0 13 197.48 6.1
1 0 13 199.88 7
-1 0 13 191.38 6.1
-1 0 -13 195.58 5.8
-1 0 13 193.58 4.3
-1 0 -13 187.18 4.5
-1 0 -13 200.88 7.1
1 0 -13 198.58 7
1 0 -13 184.28 7.1
1 0 13 198.98 5.3
1 0 -13 183.78 4.6
-1 0 -13 194.68 4.7
-1 0 13 196.18 4.8
1 0 -13 197.58 5.1
1 0 13 191.38 4
2 0 13 132.59 4.4
-2 0 -13 124.99 3.6
2 0 13 125.69 3
2 0 13 127.39 4.4
-2 0 13 124.99 3.4
2 0 13 127.19 6.3
-2 0 -13 133.49 6
2 0 -13 130.19 4.3
2 0 -13 128.29 3.6
-2 0 13 128.29 3.5
-2 0 -13 123.79 4.4
-3 0 13 21 1.3
-3 0 -13 18.6 1.8
-3 0 13 19.2 1.3
3 0 -13 20.7 2.1
3 0 -13 17.7 1.9
3 0 13 19.7 2
4 0 -13 9.9 1.4
4 0 13 5.7 0.9
-4 0 -13 9.9 1.7
-4 0 13 11.3 1.3
4 0 -13 11.7 2.3
-4 0 13 9.9 1.4
4 0 13 9.8 2
-5 0 13 14.3 1.5
-5 0 13 15.2 1.9
5 0 -13 14.3 2.9
5 0 -13 11.5 1.8
6 0 -13 2.1 2.8
-6 0 13 6.5 1.3
6 0 -13 4.9 1.5
-6 0 13 3.7 1.2
7 0 -13 4.7 3.3
-7 0 13 5.4 1.6
7 0 -13 6.4 1.9
-7 0 13 4.8 1.3
0 -1 13 123.19 3.9
0 -1 -13 108.29 5
0 1 13 122.69 4.2
0 1 13 120.19 3.8
0 1 -13 121.09 3.5
0 1 -13 122.19 3.6
0 -1 -13 119.59 4.8
0 -1 13 116.79 2.8
1 1 -13 85.69 2.9
-1 1 13 85.69 2.4
1 -1 13 85.29 2.2
-1 1 13 87.39 2.3
-1 1 13 86.89 3.6
-1 1 13 86.79 3.4
1 1 -13 83.79 3.1
1 -1 13 82.49 3.5
-1 1 -13 86.09 2.9
1 -1 -13 84.99 2.9
-1 1 -13 90.49 2.7
-1 -1 13 82.99 2.4
-1 -1 13 88.49 3
1 -1 -13 92.19 2.7
1 -1 -13 95.29 4.5
1 -1 -13 79.59 4.1
-2 1 13 98.79 2.8
2 1 -13 95.79 3.1
-2 1 13 100.49 2.8
2 -1 13 102.99 4.1
2 1 -13 99.59 3.7
2 -1 13 100.69 2.6
-2 1 -13 98.39 3.2
2 -1 -13 98.69 3.6
2 -1 -13 109.99 3.3
-2 -1 13 95.49 3.2
-2 -1 13 98.89 2.9
-3 1 13 15.1 1.2
3 -1 13 16.2 2.1
3 1 -13 16.8 2.1
-3 1 13 15 1.1
3 1 -13 15.7 1.6
3 -1 -13 18 2.1
-3 -1 13 14.8 1.3
3 -1 -13 15.4 1.6
-3 1 -13 13 1.6
-3 -1 13 13 1.2
4 -1 13 4.6 1.8
4 1 -13 3.9 1.2
-4 1 13 3.1 1
-4 1 13 3.2 1
4 1 -13 4.9 1.9
-4 -1 13 6.6 1.2
4 -1 -13 5.9 2.3
-4 -1 13 5.7 1.2
-4 1 -13 4.6 1.4
4 -1 -13 5.4 1.4
5 -1 13 5.1 2.1
5 1 -13 6.5 2.5
-5 1 13 7.4 1.4
5 1 -13 9.1 1.6
-5 1 13 4.4 1.1
5 -1 13 5.9 1
-5 -1 13 7.3 1.4
5 -1 -13 4.7 2.7
-5 1 -13 7.3 1.9
-5 1 -13 11 1.6
-5 -1 13 7.2 1.4
5 -1 -13 5.8 1.6
6 -1 13 5.3 1.1
6 -1 13 3.6 2
6 1 -13 6.3 1.7
6 1 -13 5.3 2.7
-6 1 13 6.4 1.1
-6 1 13 6.8 1.5
-6 1 -13 4.3 1.4
-6 1 -13 3.3 1.8
6 -1 -13 6.7 2.8
-6 -1 13 4.8 1.1
-6 -1 13 6.2 1.5
6 -1 -13 5.7 1.8
7 1 -13 15.8 2.3
7 -1 13 16.3 2.9
7 1 -13 18.6 3.6
-7 1 13 16.2 1.8
7 -1 13 15.6 4.9
-7 1 13 16.1 2.2
7 -1 -13 13.1 3.6
-7 1 -13 16.8 2.9
-7 -1 13 16.9 2.1
7 -1 -13 14.7 2.3
-7 -1 13 16.1 2.2
0 2 -13 53.09 2.4
0 -2 13 54.39 1.8
0 -2 13 54.99 2.6
0 2 -13 53.09 2.3
1 2 -13 188.48 5.2
1 -2 13 180.38 4.1
1 -2 13 179.98 5.9
1 2 -13 184.08 4.8
-1 2 -13 193.48 5
-1 -2 13 184.08 5.2
-1 2 -13 184.48 4.7
-1 -2 13 183.98 4.3
2 -2 13 135.09 3.4
-2 2 13 142.89 3.6
2 -2 13 137.89 5.2
2 2 -13 139.29 4.1
2 2 -13 141.79 4.6
-2 2 13 137.19 3.4
-2 2 -13 135.19 4.1
-2 -2 13 133.79 3.7
2 -2 -13 142.49 4.6
-2 -2 13 133.99 4.1
2 -2 -13 136.89 3.8
3 2 -13 8.6 1.6
3 -2 13 9.2 2
-3 2 13 8.8 0.9
3 2 -13 8.9 1.2
-3 2 13 8.4 1
-3 -2 13 12.1 1.2
3 -2 -13 10.6 2
3 -2 -13 8.3 1.3
-3 2 -13 8.3 1.3
-3 -2 13 7.7 1
-4 2 13 82.89 3.1
4 2 -13 85.79 4.4
4 2 -13 80.39 3.3
-4 2 13 80.89 2.9
4 -2 13 78.49 4.8
4 -2 -13 81.19 3.2
-4 -2 13 85.49 3.2
-4 -2 13 84.19 3.2
4 -2 -13 91.89 4.8
-4 2 -13 82.79 3.7
5 -2 13 9.8 2.4
-5 2 13 9.9 1.1
5 -2 13 7.3 1.2
5 2 -13 8.3 1.6
-5 2 13 9 1.5
5 2 -13 13.6 2.7
-5 -2 13 9.9 1.6
-5 2 -13 9.6 2
5 -2 -13 9 2.7
-5 -2 13 11.7 1.6
5 -2 -13 9.1 1.7
6 2 -13 8.1 1.7
-6 2 13 10.2 1.8
6 -2 13 6.8 2.5
6 2 -13 9.6 2.9
6 -2 13 6.4 1.3
-6 2 13 9.3 1.4
6 -2 -13 8.4 2
-6 -2 13 6.1 1.3
-6 -2 13 9.1 1.6
6 -2 -13 8 3
-6 2 -13 8.1 2.1
7 -2 13 17.2 1.9
-7 2 13 19.7 2.4
7 2 -13 17.7 2.6
7 2 -13 16.3 3.9
-7 2 13 19.8 2
7 -2 13 15.4 3.3
-7 2 -13 19.7 2.9
-7 -2 13 18.3 2.5
-7 -2 13 19.8 2.3
7 -2 -13 15.7 4.2
7 -2 -13 14.3 2.5
0 -3 13 50.49 3
0 3 -13 48.1 2.6
0 -3 13 46.3 1.7
0 3 -13 47.1 2.3
1 3 -13 244.18 6.2
1 -3 13 234.98 7.3
1 -3 13 241.18 5.3
1 3 -13 244.88 6.4
-1 -3 13 255.97 6.6
-1 -3 13 240.78 5.4
-1 3 -13 238.58 6.2
-1 3 -13 248.38 6
2 -3 13 22 1.2
2 3 -13 21.1 1.6
2 -3 13 24.7 2.7
2 3 -13 20.3 2
-2 -3 13 21.7 1.3
-2 3 -13 22.7 1.6
-2 -3 13 21.3 1.7
-2 3 -13 24.1 1.9
3 -3 13 6.5 2
3 3 -13 4.6 1.7
3 3 -13 8.2 1.3
-3 3 -13 7.7 1.3
-3 -3 13 7.8 1.2
-3 -3 13 9.4 1.5
-4 3 13 22.4 1.8
4 3 -13 19.3 2.6
4 -3 13 15.9 2.5
4 3 -13 20.5 1.7
-4 3 13 19.3 1.4
-4 -3 13 22.3 1.8
4 -3 -13 18.9 1.9
4 -3 -13 21 2.8
-4 3 -13 21.4 2.3
-4 -3 13 18.4 1.8
-5 3 13 20.7 1.7
-5 3 13 22.3 2
5 3 -13 18.7 2.1
5 -3 13 27.5 1.7
5 -3 13 22.8 3.6
5 3 -13 16 2.5
5 -3 -13 21.5 3.3
-5 -3 13 18.8 2
-5 -3 13 20.9 2
-5 3 -13 19.5 2.5
5 -3 -13 22.8 2.2
-6 3 13 27.9 2.7
6 -3 13 28.1 4.2
-6 3 13 26.9 2.1
6 -3 13 29.4 2.1
6 3 -13 26.9 3.6
6 3 -13 33.2 2.7
6 -3 -13 24.5 2.6
-6 -3 13 27.2 2.6
-6 -3 13 24.7 2.5
-6 3 -13 26.1 3
6 -3 -13 24.5 3.9
-7 3 13 63.59 3.8
7 3 -13 50.59 5.6
7 -3 13 56.39 3.2
7 -3 13 47.9 5.6
7 3 -13 56.09 3.7
-7 3 13 51.09 2.9
-7 -3 13 54.19 3.4
-7 -3 13 62.19 3.8
7 -3 -13 52.89 5.5
-7 3 -13 55.99 4.2
7 -3 -13 60.29 3.8
0 4 -13 6.9 1.3
0 4 -13 8.4 1.3
0 -4 13 8.4 1.5
0 -4 13 8.4 0.8
1 -4 13 8.6 0.9
1 4 -13 7.6 1.3
1 -4 13 6.4 1.5
1 4 -13 7.3 1.2
-1 4 -13 6.5 1
-1 -4 13 6.7 1.3
-1 4 -13 7.2 1.3
-1 -4 13 8.2 0.9
2 4 -13 185.18 6
2 -4 13 183.08 6.9
2 4 -13 195.08 5.5
2 -4 13 180.78 4.5
-2 4 -13 182.48 5.1
-2 -4 13 191.98 5.6
-2 -4 13 177.38 4.6
-2 4 -13 184.78 5.4
3 -4 13 19 2.9
3 4 -13 25.5 2.8
3 -4 13 19.5 1.4
3 4 -13 21.7 1.9
-3 -4 13 21 1.6
-3 -4 13 22.1 2.3
-3 4 -13 19.7 2.1
4 4 -13 38.4 3.1
4 4 -13 31 2.4
4 -4 13 28.8 3.8
-4 -4 13 29.8 2
-4 -4 13 30.4 2.2
-4 4 -13 29.7 2.5
5 4 -13 30.6 2.5
5 -4 13 38.3 3.9
5 4 -13 32.5 3.4
-5 4 -13 34.7 2.8
-5 -4 13 32.2 2.4
-5 -4 13 35.1 2.6
6 -4 13 14.4 3.2
6 4 -13 13.5 3
6 -4 13 15.1 1.9
6 4 -13 14.5 2
-6 -4 13 15.2 2.2
-6 -4 13 11.7 2.1
-6 4 -13 11.2 2.3
7 4 -13 35.2 4.6
7 -4 13 29.7 4.6
7 -4 13 29.2 2.4
7 4 -13 32.2 3
-7 -4 13 32.5 2.8
-7 4 -13 27.4 3.2
-7 -4 13 32.8 3.2
0 -5 13 20.7 1.5
0 5 -13 12.2 1.7
0 5 -13 13.7 1.7
0 -5 13 15.7 2.2
1 5 -13 79.09 3.6
1 -5 13 79.49 2.6
1 -5 13 80.99 4.4
1 5 -13 83.29 3.6
-1 5 -13 75.39 3.2
-1 5 -13 79.59 3.4
-1 -5 13 82.39 2.7
-1 -5 13 79.79 3.9
2 5 -13 7.9 1.6
2 5 -13 11 2.1
2 -5 13 9.9 2.4
2 -5 13 7.4 1
-2 5 -13 8.3 1.4
-2 -5 13 7.2 1.1
-2 5 -13 8 1.5
-2 -5 13 8.9 2
3 -5 13 4.6 2.4
3 5 -13 5 1.6
3 5 -13 5.6 1.3
3 -5 13 4.6 0.9
-3 -5 13 4.6 1.1
-3 5 -13 4.8 1.2
-3 -5 13 6.3 1.7
4 5 -13 30 2.5
4 -5 13 25.7 4.1
4 5 -13 26.8 2.7
-4 5 -13 27.9 2.7
-4 -5 13 22.3 2.2
-4 -5 13 26.4 2.2
5 -5 13 25.1 4.1
5 5 -13 30.8 2.8
5 5 -13 30.9 3.1
-5 5 -13 33 2.9
-5 -5 13 28.7 2.5
-5 -5 13 29.8 2.6
6 -5 13 61.19 3.2
6 5 -13 57.69 3.6
6 -5 13 52.69 6
6 5 -13 62.79 4.9
-6 5 -13 59.49 4.2
-6 -5 13 61.29 3.7
-6 -5 13 64.49 3.7
0 6 -13 9.2 1.6
0 6 -13 8.7 1.7
0 -6 13 10.8 2.4
0 -6 13 10 1.2
1 -6 13 35.1 3.8
1 -6 13 35 1.9
1 6 -13 37 2.9
1 6 -13 35.8 2.6
-1 6 -13 31.6 2.3
-1 -6 13 34.5 3.2
-1 6 -13 38.2 2.7
-1 -6 13 34.8 2
2 -6 13 34.5 4.1
2 6 -13 41.8 3.2
2 6 -13 42.4 2.8
2 -6 13 43 2.2
-2 6 -13 40.9 2.4
-2 -6 13 43.1 3.5
-2 6 -13 40.1 2.7
-2 -6 13 41.7 2.2
3 -6 13 15.4 1.6
3 6 -13 13.2 1.9
3 6 -13 14.9 2.4
3 -6 13 13 3.4
-3 -6 13 15.8 2.3
-3 6 -13 13.7 1.8
-3 -6 13 11.7 1.6
-3 6 -13 15.5 2.1
4 -6 13 3 2.6
4 6 -13 3.8 1.6
4 6 -13 2.5 1.2
-4 -6 13 4.3 1.4
-4 6 -13 3.1 1.4
-4 -6 13 1.9 1.6
5 -6 13 16.7 4.6
5 6 -13 20.4 2.6
5 6 -13 21.6 3
-5 -6 13 22.5 2.5
-5 6 -13 23.8 2.9
-5 -6 13 23 2.4
6 6 -13 2 1.4
6 -6 13 0.3 3.4
6 -6 13 4.3 1.7
6 6 -13 -2.4 1.6
-6 6 -13 1 1.7
-6 -6 13 1.7 1.6
-6 -6 13 1.7 1.9
0 -7 13 12.5 1.6
0 -7 13 15.4 3
0 7 -13 13.7 2
0 7 -13 13.9 2
1 -7 13 3.8 2.4
1 7 -13 5.9 1.6
1 7 -13 1.8 1.2
1 -7 13 3.8 1.2
-1 -7 13 1.6 1.8
-1 -7 13 1.7 1.2
-1 7 -13 4 1.2
-1 7 -13 2.1 1.2
2 7 -13 18.2 2.4
2 7 -13 15.9 2.5
2 -7 13 19.4 2
2 -7 13 13.3 3.5
-2 7 -13 16.1 2.2
-2 -7 13 18.4 2.8
-2 -7 13 17.9 1.8
-2 7 -13 17.5 2.1
3 -7 13 9.4 3.3
3 7 -13 10.6 1.8
3 7 -13 11.8 2.3
-3 7 -13 10.9 1.9
-3 -7 13 10.8 1.6
-3 7 -13 9.6 1.6
-3 -7 13 11.4 2.3
4 7 -13 52.99 3.5
4 -7 13 46 5.7
4 7 -13 48.7 3.7
-4 -7 13 45.4 3.2
-4 -7 13 48.8 2.9
-4 7 -13 46.2 3.1
-4 7 -13 49.6 3.5
5 7 -13 9.4 2.1
5 7 -13 12 2.5
5 -7 13 9.3 4
-5 -7 13 13 2
-5 -7 13 14.2 2.4
-5 7 -13 9.6 2.1
6 7 -13 51.59 5.8
0 8 -13 0.6 1.2
0 -8 13 0.5 1.2
0 -8 13 -1.3 2.4
0 8 -13 1.2 1.2
1 -8 13 25.8 3.9
1 8 -13 21.9 2.7
1 -8 13 26.1 2.3
1 8 -13 24.6 2.7
-1 8 -13 23.6 2.8
-1 -8 13 28.8 2.4
-1 8 -13 29.8 2.6
-1 -8 13 19.8 3.2
2 -8 13 26.9 2.6
2 8 -13 23 3
2 -8 13 24.5 4
2 8 -13 23.7 2.8
-2 8 -13 27.2 2.6
-2 -8 13 27.2 2.3
-2 8 -13 24.7 2.5
-2 -8 13 22.6 3
3 8 -13 1.6 1.7
3 -8 13 2.8 3.2
3 8 -13 5 1.8
-3 -8 13 1.9 2.1
-3 8 -13 5 1.6
-3 -8 13 4.9 1.5
-3 8 -13 5.8 1.3
4 8 -13 18.7 2.6
4 8 -13 17.7 2.8
4 -8 13 14.3 4.4
-4 -8 13 14.3 2.3
-4 -8 13 21.5 2.2
-4 8 -13 13.5 2.1
-4 8 -13 17.7 2.5
5 8 -13 2.9 1.8
5 -8 13 0.3 4
5 8 -13 -0.9 1.4
-5 8 -13 1.1 1.3
-5 8 -13 2 1.7
-5 -8 13 -0.7 1.5
-5 -8 13 3.3 1.9
0 -9 13 20 2
0 -9 13 17.7 3.3
0 9 -13 21.1 2.7
0 9 -13 20 2.6
1 -9 13 18.8 2.1
1 9 -13 21.5 2.9
1 9 -13 17.3 2.6
1 -9 13 17.1 3.6
-1 -9 13 17.3 2
-1 9 -13 18.1 2.7
-1 9 -13 17.4 2.4
-1 -9 13 18 3.2
2 -9 13 15.1 2
2 -9 13 12.1 4
2 9 -13 15.4 2.5
2 9 -13 18.2 3
-2 -9 13 15.7 2
-2 9 -13 13 2.3
-2 9 -13 14.7 2.3
-2 -9 13 14.6 3.1
3 9 -13 -0.3 1.4
3 -9 13 2 3.3
3 9 -13 -2.5 1.7
-3 -9 13 0.8 1.4
-3 9 -13 1.4 1.3
-3 -9 13 -0.1 2
-3 9 -13 1.1 1
4 -9 13 23.5 5.3
4 9 -13 24.2 3.2
4 9 -13 32.5 3.3
-4 -9 13 33.4 3.5
-4 -9 13 27.8 2.8
-4 9 -13 40.1 2.9
-4 9 -13 28.8 3.3
0 10 -13 -2.2 1.6
0 -10 13 3.3 2.7
0 -10 13 4.1 1.6
0 10 -13 2.8 1.5
1 -10 13 28.4 2.8
1 -10 13 21.9 4
1 10 -13 27.7 3
1 10 -13 21.9 2.8
-1 10 -13 31.8 3.4
-1 10 -13 23.1 3
-1 -10 13 22.3 3.5
-1 -10 13 29.4 2.6
2 -10 13 36.6 4.9
2 -10 13 42.5 3.1
-2 10 -13 45.2 3.5
-2 10 -13 46.2 3.6
3 -10 13 5.4 3.6
-3 10 -13 3.4 1.8
-3 10 -13 -0.4 1.6
0 0 -14 50.09 3.9
0 0 14 43.5 2.4
0 0 14 53.59 2.2
0 0 14 48.6 3
0 0 -14 46.2 3.2
0 0 -14 51.29 2.1
0 0 -14 54.59 2.3
0 0 14 46.9 1.5
-1 0 -14 55.99 2.2
1 0 14 57.89 2.6
-1 0 -14 54.49 2.9
1 0 14 54.39 1.6
-1 0 14 51.09 2.2
-1 0 -14 55.69 2.2
1 0 14 58.69 3.6
-1 0 -14 58.99 3.9
-1 0 14 57.59 1.8
1 0 -14 52.89 2.3
1 0 -14 51.49 2.5
-2 0 -14 58.79 2.4
-2 0 14 55.09 2
2 0 -14 56.99 2.4
-2 0 -14 60.39 2.6
-2 0 14 54.69 2.1
2 0 -14 57.89 2.9
2 0 14 56.09 1.7
2 0 14 53.19 3
3 0 14 2.2 1.4
-3 0 14 4.4 0.8
3 0 -14 7.5 1.3
-3 0 -14 4.3 1.2
-3 0 14 4 0.8
3 0 -14 3.6 1.6
4 0 -14 52.79 3.7
4 0 -14 46.9 2.8
-4 0 14 49.9 2.4
-4 0 14 46.5 2.3
5 0 -14 6.7 1.7
5 0 -14 6 2.6
-5 0 14 8.4 1.4
-5 0 14 6.3 1.2
6 0 -14 -0.1 1.6
-6 0 14 -0.9 0.8
6 0 -14 -1.2 2.3
-6 0 14 0.2 1
7 0 -14 -1.3 1.8
-7 0 14 -1 1
-7 0 14 0.4 1.3
7 0 -14 0.2 3.1
0 -1 14 229.68 4.9
0 -1 14 226.68 5.9
0 1 -14 229.18 5.6
0 1 -14 225.98 5.6
-1 1 14 150.78 3.4
1 1 -14 143.59 4.5
1 -1 14 148.09 3.4
-1 1 14 146.19 3.6
1 -1 14 152.08 4.8
1 1 -14 153.38 4.2
1 -1 -14 151.68 4.2
-1 1 -14 149.09 4
-1 1 -14 151.58 4.2
1 -1 -14 144.69 3.8
-1 -1 14 141.29 3.5
-1 -1 14 145.39 4.2
2 -1 14 48.8 3.1
-2 1 14 53.89 2
2 1 -14 55.69 2.8
2 -1 14 53.19 1.8
-2 1 14 55.69 2
2 1 -14 52.89 2.3
2 -1 -14 54.49 2.7
-2 -1 14 51.49 2.3
-2 1 -14 57.39 2.3
2 -1 -14 54.69 2.3
-2 1 -14 57.19 2.5
-2 -1 14 55.49 2
3 1 -14 121.89 3.8
-3 1 14 119.59 3.5
-3 1 14 123.89 3.6
3 1 -14 123.59 4.7
3 -1 14 122.29 5
-3 1 -14 114.49 4
3 -1 -14 125.89 4.7
-3 -1 14 118.19 3.6
-3 -1 14 123.69 3.7
3 -1 -14 124.19 3.8
4 1 -14 30.8 3
-4 1 14 33.8 1.9
4 -1 14 28.4 3.1
4 1 -14 32.4 2.5
-4 1 14 33.3 2.1
-4 -1 14 35.6 2
-4 -1 14 31.3 1.9
4 -1 -14 34.3 3.5
-4 1 -14 32.1 2.7
4 -1 -14 30.6 2.4
5 1 -14 4.7 1.5
5 1 -14 4 2.4
5 -1 14 11.8 2.5
-5 1 14 5.3 1.1
-5 1 14 5.9 1.3
5 -1 14 5.6 1
5 -1 -14 4 2.5
-5 -1 14 4.5 1.1
-5 -1 14 5.7 1.4
5 -1 -14 3.9 1.5
-5 1 -14 3.5 1.9
6 -1 14 16.3 3
6 -1 14 18.9 1.6
-6 1 14 20 1.8
6 1 -14 19.4 3.6
6 1 -14 18.5 2.3
-6 1 14 21.8 2.3
-6 -1 14 21.3 2.3
-6 1 -14 19.4 2.7
-6 -1 14 19.7 1.8
6 -1 -14 16.5 2.2
6 -1 -14 22.5 3.7
7 1 -14 14.6 2.4
7 1 -14 12.6 3.5
-7 1 14 15.6 2.4
-7 1 14 13.8 1.9
-7 -1 14 12.9 2
-7 -1 14 11.7 1.8
7 -1 -14 14.2 2.4
7 -1 -14 13.6 3.6
0 -2 14 7.1 0.8
0 -2 14 10.6 1.5
0 2 -14 7.7 1.3
0 2 -14 6.6 1.2
1 2 -14 165.88 4.9
1 -2 14 177.88 5.7
1 2 -14 166.88 4.7
1 -2 14 166.18 3.9
-1 -2 14 165.58 4
-1 2 -14 165.08 4.5
-1 2 -14 165.28 4.6
-1 -2 14 167.98 4.9
2 -2 14 12.5 0.9
2 2 -14 10.3 1.3
2 -2 14 10.6 2
2 2 -14 14.1 1.8
-2 -2 14 13 1.3
-2 2 -14 12.2 1.5
-2 -2 14 11.9 1
-2 2 -14 14.9 1.4
3 -2 14 46.7 3.7
3 2 -14 52.19 2.5
-3 2 14 52.69 2.2
-3 2 14 53.19 2
3 2 -14 51.39 3.1
-3 -2 14 52.99 2.5
3 -2 -14 52.89 2.5
-3 2 -14 53.09 2.7
-3 -2 14 57.49 2.5
3 -2 -14 56.09 3.6
-4 2 14 27.8 1.8
4 2 -14 26.7 3
-4 2 14 25.8 1.7
4 2 -14 26.4 2.1
4 -2 14 30.8 3
-4 -2 14 27.5 1.9
4 -2 -14 25.2 2.3
4 -2 -14 25.4 2.9
-4 2 -14 27.2 2.5
-4 -2 14 25.6 1.9
-5 2 14 33.4 2.3
5 -2 14 28.2 1.9
5 2 -14 27.2 2.5
-5 2 14 31.1 1.9
5 2 -14 34.3 3.8
5 -2 14 24.5 3.3
5 -2 -14 33.1 2.7
-5 -2 14 31.8 2.3
-5 2 -14 34 2.9
5 -2 -14 33.6 3.7
-5 -2 14 31.6 2.2
6 2 -14 5.7 1.8
6 -2 14 4.4 2.4
-6 2 14 9.9 1.5
-6 2 14 11.8 1.9
6 2 -14 9.5 3
6 -2 14 9.2 1.4
6 -2 -14 7.3 3.1
-6 -2 14 9.1 1.6
6 -2 -14 8 2
-6 -2 14 7.8 1.5
-6 2 -14 8.4 2.1
7 2 -14 2.5 1.8
-7 2 14 4.9 1.5
-7 2 14 4.3 1.3
7 -2 14 2.3 1.2
7 2 -14 2 3.1
7 -2 14 0.6 2.5
7 -2 -14 3.8 3.3
-7 -2 14 1.8 1.5
-7 2 -14 4.8 2.1
-7 -2 14 5.2 1.5
7 -2 -14 4.5 2
0 3 -14 12.5 1.5
0 3 -14 13.8 1.6
0 -3 14 14.9 1
0 -3 14 15.5 1.9
1 3 -14 81.99 3.2
1 -3 14 83.89 2.5
1 -3 14 88.59 4.1
1 3 -14 81.19 3.3
-1 -3 14 80.99 2.5
-1 3 -14 80.79 3
-1 -3 14 86.89 3.4
-1 3 -14 85.29 3.3
2 -3 14 69.79 2.3
2 3 -14 72.59 3.4
2 -3 14 71.39 4.2
2 3 -14 72.19 3
-2 3 -14 69.99 3.1
-2 -3 14 73.49 2.5
-2 3 -14 72.79 2.9
-2 -3 14 72.49 3.2
3 3 -14 15.2 2.1
3 3 -14 13.4 1.6
3 -3 14 17 2.8
-3 -3 14 17.8 1.6
-3 3 -14 15.6 1.8
-3 -3 14 16.9 1.4
4 3 -14 24.7 2
4 3 -14 24.5 2.9
4 -3 14 20.4 3.2
-4 -3 14 26 2
-4 3 -14 21.5 2.3
-4 -3 14 23.4 1.8
-5 3 14 14.8 2
5 3 -14 15.9 2.6
5 3 -14 14.2 1.8
-5 3 14 15.7 1.4
5 -3 14 15 2.9
5 -3 -14 16.1 3.4
-5 -3 14 13.1 1.8
5 -3 -14 14.1 1.9
-5 3 -14 13.9 2.1
-5 -3 14 14 1.7
6 -3 14 55.79 5
6 3 -14 49.2 3.4
-6 3 14 51.99 3.2
6 -3 14 50.19 2.8
-6 3 14 51.29 2.6
6 3 -14 57.69 4.8
-6 -3 14 46 3.1
-6 -3 14 52.59 3.3
6 -3 -14 50.49 5.1
-6 3 -14 52.69 3.9
6 -3 -14 46 3.6
7 3 -14 4.5 1.8
7 -3 14 2 2.5
7 -3 14 3.1 1.3
7 3 -14 -2.2 2.9
-7 3 14 6 1.3
-7 3 14 6.3 1.7
-7 3 -14 4.4 2.2
7 -3 -14 3.5 2.1
-7 -3 14 5 1.8
7 -3 -14 5.1 3.3
0 4 -14 41.1 2.5
0 4 -14 42.8 2.4
0 -4 14 39.2 1.7
0 -4 14 41.4 2.8
1 4 -14 210.58 5.9
1 4 -14 213.38 6.2
1 -4 14 207.88 4.9
1 -4 14 210.28 6.9
-1 4 -14 206.68 5.9
-1 4 -14 205.18 5.7
-1 -4 14 208.98 6.2
-1 -4 14 210.08 5
2 4 -14 58.49 3.3
2 4 -14 51.79 2.8
2 -4 14 50.29 2
2 -4 14 57.69 4.4
-2 -4 14 51.59 2.9
-2 4 -14 52.39 2.9
-2 -4 14 53.59 2.2
-2 4 -14 52.39 2.6
3 -4 14 41.8 2
3 -4 14 39.5 3.6
3 4 -14 45.1 2.6
3 4 -14 44.9 3.1
-3 4 -14 46.5 2.8
-3 -4 14 47.7 2.2
-3 -4 14 43.6 2.6
4 4 -14 82.99 3.7
4 4 -14 80.49 4.2
4 -4 14 86.09 5.7
-4 -4 14 77.59 3.2
-4 -4 14 82.89 3.5
-4 4 -14 91.79 4.2
5 4 -14 8.2 1.7
5 4 -14 8.6 2.3
5 -4 14 5.8 2.8
-5 4 -14 7.5 1.7
-5 -4 14 8.1 1.5
-5 -4 14 8.3 1.6
6 4 -14 13.5 2.1
6 -4 14 12.8 1.8
6 -4 14 11.7 3
6 4 -14 13.1 3.1
-6 -4 14 11.7 2.1
-6 4 -14 13.3 2.6
-6 -4 14 11 2.1
7 -4 14 13.5 1.9
7 4 -14 13.5 5.1
7 4 -14 14.4 2.6
7 -4 14 14.7 3.5
-7 -4 14 15.4 2.9
-7 -4 14 18 3.2
-7 4 -14 15.1 2.8
0 5 -14 82.89 3.8
0 5 -14 89.59 3.8
0 -5 14 88.09 2.8
0 -5 14 82.09 4.3
1 -5 14 7.9 1.9
1 5 -14 7.6 1.5
1 5 -14 6.7 1.6
1 -5 14 6.4 0.9
-1 5 -14 6.9 1.4
-1 -5 14 4.3 1.3
-1 -5 14 8.5 1.2
-1 5 -14 4.5 1.2
2 5 -14 28.3 2.4
2 -5 14 33.6 1.8
2 5 -14 33.2 2.7
2 -5 14 28 3.6
-2 5 -14 33 2.1
-2 5 -14 33.2 2.6
-2 -5 14 30.8 2.5
-2 -5 14 31 1.8
3 5 -14 18.4 2.1
3 5 -14 23.6 2.8
3 -5 14 20.8 1.5
3 -5 14 17.6 3
-3 5 -14 19.2 1.8
-3 -5 14 20.2 2.3
-3 5 -14 18.2 1.9
-3 -5 14 15.7 1.6
4 5 -14 10.7 1.8
4 -5 14 9.5 3
4 5 -14 11.3 2.2
-4 -5 14 9.9 1.5
-4 5 -14 12.2 2
-4 -5 14 13 1.9
5 -5 14 28.4 4.5
5 5 -14 38 3
5 5 -14 36.5 3.6
-5 -5 14 36.8 2.7
-5 5 -14 38.9 3.2
-5 -5 14 35.2 2.9
6 -5 14 5.2 1.5
6 5 -14 3.7 1.6
6 5 -14 3.1 2.3
6 -5 14 1.8 3.1
-6 -5 14 5.4 1.8
-6 -5 14 3.9 1.7
-6 5 -14 3.2 1.7
0 6 -14 59.89 3.4
0 6 -14 59.19 3.3
0 -6 14 64.39 2.6
0 -6 14 61.99 4.1
1 -6 14 99.09 5.5
1 6 -14 98.29 4.3
1 6 -14 104.39 4.5
1 -6 14 102.69 3.3
-1 6 -14 96.69 4.1
-1 -6 14 92.79 4.5
-1 -6 14 97.69 3.2
-1 6 -14 95.29 4.2
2 6 -14 4.9 1.4
2 6 -14 2.6 1.5
2 -6 14 1.4 2.5
2 -6 14 3.7 0.9
-2 -6 14 4.8 1.8
-2 6 -14 5.6 1.2
-2 6 -14 4.6 1.3
-2 -6 14 4.8 1.2
3 6 -14 90.59 4.7
3 -6 14 95.39 3.3
3 -6 14 77.89 6.2
3 6 -14 92.79 4.3
-3 -6 14 94.59 4.4
-3 -6 14 89.19 3.4
-3 6 -14 94.69 4.2
-3 6 -14 98.29 4
4 6 -14 2 1.3
4 -6 14 0.5 2.5
4 6 -14 2.3 1.5
-4 -6 14 0.9 1.2
-4 -6 14 2.3 1.4
-4 6 -14 1.9 1.4
5 6 -14 48.6 3.4
5 6 -14 46.9 4
5 -6 14 28.3 4.9
-5 6 -14 39.6 3.4
-5 -6 14 43.7 3.3
-5 -6 14 44.2 3
6 6 -14 21.1 3.7
6 6 -14 17.1 2.5
6 -6 14 16.7 4.7
-6 6 -14 17.2 2.9
-6 -6 14 20.7 2.7
-6 -6 14 21.5 2.5
0 7 -14 191.88 6.4
0 -7 14 189.28 7.3
0 7 -14 181.58 6.3
0 -7 14 192.88 5.2
1 7 -14 0.8 1.2
1 7 -14 -0.6 0.9
1 -7 14 -0.7 2.3
1 -7 14 0.4 1
-1 -7 14 -0.4 1
-1 7 -14 0.9 1
-1 -7 14 -1.4 1.9
-1 7 -14 1.3 1.4
2 -7 14 11.3 1.6
2 7 -14 9.3 2
2 7 -14 9.9 2
2 -7 14 7.5 3.2
-2 7 -14 10 2
-2 7 -14 11.3 1.8
-2 -7 14 8.4 2.2
3 7 -14 11.7 2.3
3 -7 14 11.7 3.7
3 7 -14 12.5 2.1
-3 7 -14 14 1.9
-3 -7 14 13.6 2.5
-3 -7 14 10.3 1.6
-3 7 -14 10.3 1.8
4 7 -14 32.8 3.8
4 -7 14 27.3 4.5
4 7 -14 26.2 3
-4 -7 14 29 3.1
-4 7 -14 28.9 3
-4 -7 14 29.2 2.6
-4 7 -14 27.8 2.5
5 -7 14 22.6 4.8
5 7 -14 24.5 3.6
5 7 -14 25.4 3
-5 -7 14 25.1 2.9
-5 -7 14 24.3 2.5
-5 7 -14 23 2.9
0 -8 14 3.1 2.4
0 -8 14 3.8 1.4
0 8 -14 3.2 1.5
0 8 -14 4.1 1.5
1 -8 14 75.29 3.3
1 -8 14 66.19 5.5
1 8 -14 75.29 4.3
1 8 -14 73.89 4.2
-1 -8 14 79.59 3.4
-1 8 -14 80.79 4.2
-1 8 -14 73.69 4.2
-1 -8 14 68.69 5
2 -8 14 8.4 1.7
2 8 -14 7 2.1
2 -8 14 7 3.3
2 8 -14 9.6 2.2
-2 -8 14 10.6 2.6
-2 -8 14 9.8 1.6
-2 8 -14 13 2.1
-2 8 -14 9.6 1.9
3 8 -14 52.89 3.9
3 -8 14 45 5.7
3 8 -14 51.39 3.9
-3 8 -14 53.59 3.4
-3 -8 14 53.99 3
-3 8 -14 55.49 3.8
4 8 -14 15.1 2.8
4 -8 14 10.5 4
-4 -8 14 12.6 2.5
-4 8 -14 11.2 2.1
-4 8 -14 10.8 1.9
-4 -8 14 15.9 2
5 8 -14 42.8 3.6
5 8 -14 37.6 3.9
-5 -8 14 43.5 3.6
-5 -8 14 37.8 3.1
0 9 -14 64.09 4.1
0 -9 14 61.09 3.1
0 -9 14 56.59 5.2
0 9 -14 57.39 3.9
1 9 -14 41.2 3.6
1 -9 14 29 4
1 -9 14 40.1 2.8
1 9 -14 36.3 3.5
-1 9 -14 39.5 3.4
-1 -9 14 41.2 4.3
-1 -9 14 39.8 2.9
-1 9 -14 38.7 3.3
2 -9 14 0.5 3.1
2 9 -14 4.5 1.9
2 9 -14 1.8 1.8
2 -9 14 3.2 1.7
-2 9 -14 4 1.6
-2 -9 14 1.3 2.5
-2 9 -14 3.6 1.5
-2 -9 14 4.2 1.6
3 9 -14 -1.5 1.8
3 -9 14 1.7 3.5
3 9 -14 0.8 1.6
-3 -9 14 -0.6 2
-3 -9 14 2.3 1.4
-3 9 -14 2 1.4
-3 9 -14 2.5 1.4
4 9 -14 80.09 5
4 -9 14 83.49 7.5
-4 -9 14 89.59 4.6
-4 9 -14 90.69 5.8
-4 9 -14 79.79 4.5
-4 -9 14 80.19 4
0 10 -14 8.3 2.1
0 -10 14 5 1.6
0 -10 14 7.5 2.9
0 10 -14 2 2
1 10 -14 13.7 2.4
1 -10 14 16.7 3.5
1 -10 14 18.3 2.2
1 10 -14 17 2.8
-1 10 -14 12.4 2.4
-1 -10 14 13 3.1
-1 -10 14 17.7 2.1
-1 10 -14 10.9 2.2
2 -10 14 -0.7 1.6
2 10 -14 -1.8 1.6
2 -10 14 0.4 3.1
2 10 -14 2.5 2
-2 -10 14 5.2 2.3
-2 10 -14 -0.6 1.3
-2 10 -14 2.2 1.4
-2 -10 14 2.8 1.6
0 0 -15 5.5 1.9
0 0 -15 6.6 2.7
0 0 15 1 0.9
-1 0 -15 2.6 1.3
1 0 15 0.1 0.9
1 0 -15 2 1.1
-1 0 15 1.6 0.4
1 0 15 1.1 0.4
1 0 -15 -1.8 1.3
-1 0 15 -0.1 0.6
-1 0 -15 -0.5 0.8
2 0 15 31.3 2.9
-2 0 15 33.4 1.7
-2 0 -15 31.3 1.7
2 0 15 31.4 1.3
2 0 -15 35.4 2.5
-2 0 -15 32.7 2.3
-2 0 15 33.8 1.5
2 0 -15 36 2.2
3 0 -15 178.88 5.1
3 0 -15 184.68 6
-3 0 15 183.78 4.9
-3 0 15 177.88 4.8
-4 0 15 13.1 1.4
-4 0 15 16.1 1.5
4 0 -15 15.2 2.4
4 0 -15 13.3 1.7
5 0 -15 9 2.8
-5 0 15 7.1 1.3
-5 0 15 6.8 1.3
5 0 -15 7.3 1.7
6 0 -15 4.4 1.6
-6 0 15 5.6 1.4
-6 0 15 1.6 1.2
6 0 -15 4.3 2.6
7 0 -15 21.2 2.8
7 0 -15 14 4
-7 0 15 22.9 2.2
-7 0 15 20.5 2.5
0 -1 15 10.7 1.4
0 1 -15 13.8 1.6
0 -1 15 9.6 0.8
0 1 -15 8.9 1.4
1 1 -15 7.1 1.3
1 1 -15 8.9 1.4
1 -1 15 9.9 0.7
1 -1 15 8.6 1.5
-1 -1 15 8.2 1.1
-1 1 -15 9.4 1.2
-1 -1 15 8 0.7
-1 1 -15 7.1 1.3
1 -1 -15 10 1.8
2 -1 15 148.69 5.4
2 1 -15 145.29 4.4
-2 1 15 151.68 3.8
2 -1 15 148.39 3.6
2 1 -15 149.49 4.9
-2 1 15 148.09 3.9
-2 -1 15 148.59 3.9
-2 1 -15 148.49 4.1
-2 1 -15 148.49 4.4
2 -1 -15 147.39 4
2 -1 -15 151.18 4.7
-2 -1 15 145.59 4.3
3 1 -15 14 2.2
-3 1 15 12.9 1.3
3 1 -15 13.5 1.6
-3 1 15 11.1 1.2
3 -1 15 13.5 2.4
3 -1 -15 13.4 2.2
-3 -1 15 18 1.7
-3 -1 15 10.1 1.2
3 -1 -15 13.4 1.7
-3 1 -15 12.2 1.8
4 1 -15 54.59 4
-4 1 15 50.69 2.4
4 -1 15 60.19 3.9
-4 1 15 51.29 2.5
4 1 -15 53.89 2.8
-4 1 -15 54.69 3.1
-4 -1 15 51.49 2.5
-4 -1 15 49.3 2.4
4 -1 -15 47.6 4
4 -1 -15 54.69 3
-5 1 15 8.9 1.5
5 -1 15 8.8 1.2
5 -1 15 5.4 2.2
-5 1 15 9.9 1.4
5 1 -15 7.1 1.8
5 1 -15 7.7 2.6
-5 1 -15 8.3 2.1
-5 -1 15 9.2 1.5
5 -1 -15 7.6 1.8
5 -1 -15 9.6 2.9
-5 -1 15 9.9 1.5
6 1 -15 12.7 3.3
-6 1 15 12.5 1.7
-6 1 15 9.9 1.8
6 1 -15 9.4 2
6 -1 -15 10.2 2
-6 -1 15 8.6 1.6
6 -1 -15 9.3 3.1
-6 -1 15 13.2 1.7
-7 1 15 2.5 1.4
-7 1 15 4.2 1.2
7 1 -15 5.1 2.8
7 1 -15 3.4 2
7 -1 -15 2 2
-7 -1 15 3.2 1.3
-7 -1 15 4.6 1.6
7 -1 -15 0.8 2.9
0 -2 15 173.98 4.1
0 2 -15 164.98 4.9
0 -2 15 173.98 5.3
0 2 -15 178.88 5
1 2 -15 124.29 4
1 -2 15 123.79 4.7
1 -2 15 124.59 3.2
1 2 -15 123.79 4.2
-1 -2 15 126.59 4.2
-1 2 -15 130.89 4
-1 -2 15 125.19 3.3
-1 2 -15 117.79 3.8
2 2 -15 50.09 2.9
2 2 -15 53.89 2.6
2 -2 15 48.8 3.3
2 -2 15 50.49 1.8
-2 -2 15 53.19 2.5
-2 2 -15 53.09 2.5
-2 2 -15 53.29 2.5
-2 -2 15 50.29 2
3 2 -15 123.89 4.2
3 2 -15 117.39 4.8
3 -2 15 125.49 5.6
-3 -2 15 114.69 3.6
-3 -2 15 112.49 3.9
-3 2 -15 125.79 4.3
4 2 -15 70.79 4.1
-4 2 15 70.49 2.9
-4 2 15 72.99 2.7
4 2 -15 72.69 3.3
4 -2 15 58.79 4.4
4 -2 -15 70.19 4.5
-4 -2 15 66.69 3
-4 2 -15 64.79 3.5
4 -2 -15 66.69 3.1
-4 -2 15 72.69 3.1
5 -2 15 8.9 1.2
5 -2 15 11.3 2.5
5 2 -15 9.6 1.7
5 2 -15 11.5 2.7
-5 2 15 10.5 1.3
-5 2 15 11.4 1.6
5 -2 -15 9.4 1.8
5 -2 -15 10.9 2.8
-5 2 -15 10.8 2
-5 -2 15 9.2 1.6
-5 -2 15 8.5 1.4
6 2 -15 4.2 1.7
-6 2 15 3.7 1.1
-6 2 15 5.4 1.5
6 2 -15 5 2.9
6 -2 15 3.5 2.2
6 -2 15 5.3 1.1
6 -2 -15 3.4 1.7
6 -2 -15 4.1 3.1
-6 2 -15 5.2 2
-6 -2 15 4.6 1.5
-6 -2 15 2.7 1.2
7 -2 15 4.2 2.8
-7 2 15 7.8 1.8
-7 2 15 13.8 1.7
7 -2 15 4.5 1.5
7 2 -15 11.5 2.3
7 2 -15 6 3.4
7 -2 -15 12.4 2.2
-7 -2 15 7.9 1.9
7 -2 -15 11.9 3.8
-7 -2 15 10.6 2
-7 2 -15 12.9 2.6
0 3 -15 117.79 4.2
0 -3 15 119.59 3.2
0 3 -15 121.19 4.1
0 -3 15 124.69 4.6
1 -3 15 7.3 0.8
1 3 -15 7 1.3
1 -3 15 6.1 1.5
1 3 -15 5.3 1.3
-1 3 -15 5.4 1.1
-1 -3 15 5.9 1.3
-1 -3 15 6.3 0.8
-1 3 -15 6.5 1.2
2 -3 15 155.68 6.2
2 3 -15 154.18 4.8
2 3 -15 147.69 5.4
2 -3 15 151.68 3.9
-2 -3 15 151.68 4.1
-2 3 -15 154.78 4.6
-2 -3 15 155.68 4.9
-2 3 -15 156.18 4.9
3 3 -15 13.5 1.8
3 -3 15 15.4 1.3
3 3 -15 18.7 2.4
3 -3 15 19.1 3.1
-3 3 -15 15.3 1.9
-3 -3 15 16.3 1.4
-3 -3 15 17.4 1.8
4 3 -15 88.49 4.7
4 3 -15 84.79 3.7
4 -3 15 78.69 5.3
-4 -3 15 89.39 3.3
-4 -3 15 78.99 3.4
-4 3 -15 80.89 3.9
5 3 -15 54.69 4.5
5 3 -15 49.8 3
5 -3 15 47.3 4.5
-5 -3 15 50.99 2.8
-5 3 -15 48.3 3.3
-5 -3 15 49.1 2.9
6 -3 15 4.9 1.3
6 3 -15 5.6 2.6
6 -3 15 6 2.2
6 3 -15 5.7 1.6
-6 3 -15 5.5 2.1
-6 -3 15 4.5 1.5
-6 -3 15 2.4 1.5
7 3 -15 3.3 1.7
7 -3 15 0.4 1.2
7 3 -15 0.4 3
-7 -3 15 1.4 1.2
-7 3 -15 -0.3 1.9
7 -3 -15 1.1 2.9
-7 -3 15 1 1.6
0 4 -15 46.5 2.6
0 -4 15 46.1 3
0 4 -15 51.89 2.8
0 -4 15 50.59 2
1 -4 15 163.58 6.2
1 -4 15 168.28 4.2
1 4 -15 175.88 5.3
1 4 -15 163.98 5.4
-1 4 -15 170.38 5.2
-1 4 -15 164.58 5.2
-1 -4 15 166.28 4.3
-1 -4 15 170.88 5.5
2 4 -15 91.49 3.7
2 -4 15 89.19 2.8
2 4 -15 90.99 4.3
2 -4 15 82.59 4.8
-2 -4 15 87.29 3
-2 -4 15 85.39 3.7
-2 4 -15 81.99 3.3
-2 4 -15 84.59 3.6
3 -4 15 13.4 1.4
3 -4 15 14.9 2.8
3 4 -15 17.5 2.5
3 4 -15 14.8 1.9
-3 -4 15 13.5 1.4
-3 -4 15 12.7 1.8
-3 4 -15 16.7 2
4 -4 15 84.99 5.5
4 4 -15 87.99 4
4 4 -15 92.39 4.8
-4 -4 15 90.99 3.7
-4 -4 15 89.99 3.5
-4 4 -15 91.99 4.3
5 4 -15 7.2 1.5
5 -4 15 7.3 2.8
5 4 -15 8.3 2.4
-5 -4 15 7.9 1.4
-5 4 -15 7.1 1.8
-5 -4 15 7.4 1.4
6 -4 15 20.1 2.1
6 4 -15 20 3.6
6 4 -15 20.1 2.7
6 -4 15 15.9 4
-6 -4 15 19 2.3
-6 4 -15 22.3 3.1
-6 -4 15 23.9 2.6
0 -5 15 29.3 1.6
0 5 -15 25.1 2.3
0 5 -15 23.6 2.2
0 -5 15 29.4 2.8
1 -5 15 5.5 2.4
1 -5 15 5.7 0.9
1 5 -15 8.2 1.8
1 5 -15 5.2 1.4
-1 5 -15 3.1 1.5
-1 5 -15 5.2 1.3
-1 -5 15 2.7 1.6
-1 -5 15 4.5 1
2 -5 15 70.69 2.6
2 5 -15 70.69 3.8
2 -5 15 65.29 4.7
2 5 -15 66.79 3.4
-2 -5 15 66.89 3.5
-2 5 -15 66.29 3.1
-2 -5 15 76.59 2.8
-2 5 -15 71.99 3.5
3 -5 15 12.6 1.4
3 5 -15 11.7 1.8
3 5 -15 15.5 2.4
3 -5 15 10.8 2.7
-3 -5 15 14.4 1.5
-3 5 -15 14.9 2
-3 5 -15 13.1 1.7
-3 -5 15 13.4 1.9
4 5 -15 2.2 1.1
4 -5 15 1.3 2
4 5 -15 5.5 1.8
-4 -5 15 2.5 1.1
-4 -5 15 2.3 1.3
-4 5 -15 3.2 1.4
5 5 -15 23.1 3.4
5 -5 15 21.2 4
5 5 -15 26.6 2.7
-5 -5 15 19.7 2.4
-5 -5 15 22.1 2.4
-5 5 -15 24 2.9
6 5 -15 19.6 3.7
6 -5 15 13.1 4.1
6 5 -15 13.4 2.3
6 -5 15 22.5 2.3
-6 -5 15 18.3 2.3
-6 -5 15 19.1 2.5
-6 5 -15 16.6 2.8
0 6 -15 44.5 3
0 -6 15 44.7 3.7
0 6 -15 41.1 3
0 -6 15 39.6 2.1
1 6 -15 41.3 3.2
1 -6 15 34.7 3.9
1 -6 15 41.5 2.1
1 6 -15 40.8 2.9
-1 6 -15 44.1 3
-1 6 -15 40.3 2.7
-1 -6 15 41.7 2.2
-1 -6 15 38 3.3
2 -6 15 98.89 5.8
2 -6 15 103.29 3.5
2 6 -15 109.09 4.5
2 6 -15 99.39 4.9
-2 6 -15 98.39 4.2
-2 -6 15 102.39 4.8
-2 -6 15 107.69 3.6
-2 6 -15 101.19 4.4
3 -6 15 17.6 1.8
3 6 -15 19.9 2.7
3 -6 15 19 3.5
3 6 -15 19.5 2.5
-3 -6 15 20.4 2
-3 6 -15 21 2
-3 6 -15 15.1 2.2
-3 -6 15 17.4 2.4
4 6 -15 45.3 3.1
4 -6 15 42.8 5.3
4 6 -15 48 3.9
-4 6 -15 51.59 3.4
-4 -6 15 48.7 2.8
-4 6 -15 45.9 3.1
-4 -6 15 46.9 3.3
5 -6 15 3.5 2.8
5 6 -15 3.2 2
5 6 -15 4.3 1.5
-5 6 -15 3.8 1.7
-5 -6 15 2.5 1.5
-5 -6 15 2.5 1.6
6 6 -15 37.5 3.5
6 -6 15 33.9 5.6
6 6 -15 34 4.3
6 -6 15 39.5 3.1
-6 -6 15 39.2 3.2
-6 6 -15 39.6 3.8
-6 -6 15 36.7 3.1
0 7 -15 9.5 1.7
0 7 -15 12.2 2.1
0 -7 15 10.1 2.4
0 -7 15 13.2 1.5
1 7 -15 0.3 1.3
1 -7 15 0.7 2
1 -7 15 1.1 1
1 7 -15 1 1.2
-1 -7 15 0.4 1
-1 7 -15 1.3 1.4
-1 -7 15 2.6 2.1
-1 7 -15 1 0.9
2 -7 15 7.6 3
2 7 -15 6.7 1.9
2 -7 15 6.5 1.5
2 7 -15 7.8 2
-2 7 -15 7 1.7
-2 7 -15 8.4 1.7
-2 -7 15 4.2 2.1
-2 -7 15 8.6 1.6
3 7 -15 33.1 3.3
3 7 -15 32.4 2.8
3 -7 15 31.8 4.8
-3 -7 15 34.3 3.4
-3 7 -15 37.2 3
-3 -7 15 37.1 2.5
-3 7 -15 36.5 2.6
4 7 -15 2.2 1.7
4 7 -15 -0.1 1.5
4 -7 15 5.1 3.9
-4 7 -15 2.1 1.4
-4 7 -15 1.8 1.6
-4 -7 15 2.6 1.9
-4 -7 15 2 1.5
5 7 -15 18.4 2.6
5 7 -15 18.5 3
5 -7 15 14.4 4.3
-5 7 -15 16.8 2.4
-5 -7 15 17.8 2.5
-5 -7 15 20.7 2.2
-5 7 -15 17.7 2.6
0 -8 15 3.3 1.4
0 -8 15 0.3 2.5
0 8 -15 2.6 1.4
0 8 -15 2.2 1.4
1 8 -15 85.19 4.6
1 8 -15 79.19 4.5
1 -8 15 68.69 5.5
1 -8 15 84.69 3.5
-1 -8 15 81.29 5.2
-1 8 -15 83.09 4.5
-1 8 -15 80.99 4.4
-1 -8 15 81.59 3.5
2 8 -15 8.7 2.2
2 8 -15 7.8 2.1
2 -8 15 9.5 3.1
2 -8 15 13.2 2
-2 8 -15 13.3 2.3
-2 -8 15 9.1 2.5
-2 8 -15 10 1.9
-2 -8 15 12.1 1.7
3 8 -15 -0.9 1.7
3 -8 15 3.8 3.3
3 8 -15 0.5 1.5
-3 -8 15 -0.8 2.1
-3 8 -15 -1 1.3
-3 8 -15 -0.9 1.1
-3 -8 15 -0.4 1.3
4 8 -15 20.5 2.6
4 8 -15 15.4 2.8
4 -8 15 15.5 4.4
-4 8 -15 18.8 2.5
-4 -8 15 15.8 2.6
-4 8 -15 14.4 2.6
-4 -8 15 19.7 2.1
0 -9 15 7.5 3.1
0 -9 15 8.6 1.7
0 9 -15 11.1 2.3
0 9 -15 10.2 2.1
1 -9 15 2.1 2.9
1 9 -15 1.7 1.6
1 9 -15 4.9 2
1 -9 15 4.8 1.6
-1 -9 15 3.9 1.7
-1 9 -15 2.2 1.7
-1 9 -15 5 1.7
-1 -9 15 4.9 2.6
2 9 -15 2.9 2
2 9 -15 7.5 2.2
2 -9 15 6.3 1.8
2 -9 15 8.7 3.1
-2 9 -15 7.2 1.8
-2 -9 15 4.9 1.7
-2 9 -15 6.8 2
-2 -9 15 5.9 2.7
3 -9 15 5 3.5
3 9 -15 1.6 1.8
3 9 -15 3.9 2
-3 -9 15 6.3 1.6
-3 9 -15 6.9 1.9
-3 9 -15 3.6 1.7
-3 -9 15 0.7 2.2
0 -10 15 12.5 3
0 -10 15 16.4 2.1
0 10 -15 18.3 2.7
0 10 -15 15.1 2.9
1 10 -15 7.7 2.2
1 10 -15 8.7 2.2
1 -10 15 8.4 1.9
1 -10 15 9.9 3.2
-1 10 -15 4.5 2
-1 -10 15 7.1 2.9
-1 -10 15 9.5 1.8
-1 10 -15 8.2 2.2
2 -10 15 1.8 1.7
2 10 -15 3 2
2 10 -15 2 1.9
2 -10 15 2.5 3.3
-2 -10 15 5.5 2.3
-2 10 -15 3.5 1.7
-2 10 -15 1.9 1.7
-2 -10 15 4.1 1.7
0 0 -16 1303.27 24.6
0 0 16 1375.16 24.8
0 0 16 1293.67 25
0 0 -16 1271.97 24.5
-1 0 -16 23.6 1.9
1 0 16 32 3.2
1 0 -16 28.3 2.2
-1 0 16 27.9 1.2
-1 0 -16 28.7 3.2
1 0 -16 33.6 2.2
1 0 16 28.9 1.3
-1 0 16 27.8 1.6
-2 0 16 58.09 2.2
2 0 -16 64.59 3.3
-2 0 16 59.09 2.3
2 0 -16 61.09 3
-3 0 16 198.78 5.2
3 0 -16 192.18 6.3
-3 0 16 195.18 5.1
3 0 -16 187.28 5.3
4 0 -16 3.4 1.6
4 0 -16 0.2 1.9
-4 0 16 0.7 0.7
-4 0 16 0.8 0.7
-5 0 16 29.5 2.2
5 0 -16 27.1 2.9
5 0 -16 31.6 3.8
-5 0 16 28.1 2
-6 0 16 -1.5 1
-6 0 16 1.7 1.1
6 0 -16 -0.6 1.7
6 0 -16 0 2.6
-7 0 16 0.1 1.2
7 0 -16 -1.1 1.8
7 0 -16 -0.3 3
0 -1 16 12.6 0.9
0 1 -16 11.8 1.6
0 1 -16 12.9 1.5
0 -1 16 13.4 1.6
1 -1 16 261.27 7.2
1 1 -16 272.37 6.7
1 -1 16 265.77 5.6
1 1 -16 264.57 7
-1 -1 16 278.87 6.7
-1 -1 16 267.57 5.8
-1 1 -16 267.37 6.5
-1 1 -16 268.27 6.5
2 1 -16 14.6 2
2 1 -16 13.1 1.6
2 -1 16 14.9 2.1
2 -1 16 12.9 1
-2 1 16 13.6 1.1
-2 1 16 15.6 1.1
2 -1 -16 15.7 1.7
-2 1 -16 16 1.8
-2 -1 16 14.7 1.1
-2 -1 16 11.5 1.3
2 -1 -16 17.3 2
-2 1 -16 14.6 1.6
3 -1 16 16.8 2.4
3 1 -16 11.2 1.6
-3 1 16 16.2 1.5
3 1 -16 13.2 2.2
-3 1 16 15.6 1.5
3 -1 -16 13 1.8
-3 1 -16 12.4 1.8
3 -1 -16 14.2 2.3
-3 -1 16 16.8 1.5
-3 -1 16 14.4 1.4
4 -1 16 60.69 4.2
4 1 -16 69.79 4.5
-4 1 16 64.89 2.7
-4 1 16 67.19 2.9
4 1 -16 66.69 3.3
-4 -1 16 68.89 2.9
4 -1 -16 63.99 3.3
-4 -1 16 62.19 2.8
4 -1 -16 69.49 4.6
-4 1 -16 70.99 3.6
-5 1 16 2.6 0.9
5 1 -16 3.4 2.4
5 1 -16 3.4 1.7
-5 1 16 2.6 0.9
-5 -1 16 2.1 1
5 -1 -16 2.3 1.6
-5 -1 16 2 1
5 -1 -16 3.1 2.5
-6 1 16 10.5 1.6
-6 1 16 11.1 1.9
6 1 -16 8.7 2.1
6 1 -16 7 3
-6 -1 16 8.4 1.4
6 -1 -16 10.7 2.2
-6 -1 16 9.6 1.6
6 -1 -16 9.6 3.2
7 1 -16 -0.2 2
7 1 -16 0.6 3
-7 1 16 3 1.3
-7 1 16 2.8 1.1
7 -1 -16 2.2 1.8
-7 -1 16 2.7 1.2
-7 -1 16 1 1.1
7 -1 -16 0.2 3
0 2 -16 421.26 9.5
0 2 -16 415.86 9.5
0 -2 16 416.96 9.9
0 -2 16 404.66 8.3
1 -2 16 45.4 2.9
1 2 -16 46.2 2.6
1 -2 16 46.8 1.7
1 2 -16 49.7 2.9
-1 -2 16 46.9 2.5
-1 -2 16 43.2 1.8
-1 2 -16 50.89 2.6
-1 2 -16 47.4 2.5
2 2 -16 87.09 4
2 2 -16 93.19 3.6
2 -2 16 91.79 4.5
2 -2 16 91.29 2.7
-2 2 -16 87.79 3.3
-2 2 -16 95.99 3.6
-2 -2 16 92.09 3.5
-2 -2 16 90.89 2.9
3 2 -16 123.69 5.1
3 -2 16 110.09 5.5
3 2 -16 114.29 4.3
-3 2 -16 121.49 4.4
-3 -2 16 116.19 3.7
-3 -2 16 114.29 4
-4 2 16 6.7 1.5
4 -2 16 4.9 2.3
4 2 -16 5 1.4
-4 2 16 5.9 1.9
4 2 -16 4.4 2.3
-4 -2 16 5.1 1
-4 -2 16 8.5 1.4
4 -2 -16 4.3 3.9
-4 2 -16 6.1 1.8
4 -2 -16 7.8 1.9
5 -2 16 3.3 2.1
5 -2 16 7 1
-5 2 16 7.5 1.4
-5 2 16 5.4 1
5 2 -16 6.5 2.3
5 2 -16 5.8 1.6
-5 2 -16 5.7 1.8
5 -2 -16 8.4 2.7
5 -2 -16 5.9 1.7
-5 -2 16 4.8 1.2
-5 -2 16 4.9 1.3
6 -2 16 24.9 3.5
6 -2 16 26.4 2
-6 2 16 26.9 2.4
-6 2 16 23.8 2.1
6 2 -16 22.6 3.6
6 2 -16 25.8 3
6 -2 -16 28 2.8
-6 -2 16 23.3 2.4
-6 -2 16 26.6 2.5
6 -2 -16 30 4.3
-6 2 -16 22.9 2.9
7 2 -16 3.6 2.9
-7 2 16 11.9 2.1
7 2 -16 10.7 2.4
-7 -2 16 9.4 2
-7 -2 16 6.3 1.9
7 -2 -16 8.7 2.5
7 -2 -16 7.8 3.6
0 3 -16 6.9 1.4
0 3 -16 9.2 1.5
0 -3 16 6.5 1.4
0 -3 16 5.7 0.8
1 -3 16 55.09 2
1 -3 16 54.09 3.3
1 3 -16 53.49 2.8
1 3 -16 57.89 3.1
-1 3 -16 54.69 2.7
-1 -3 16 50.39 3
-1 -3 16 52.09 2
-1 3 -16 53.79 2.7
2 -3 16 22.8 1.4
2 3 -16 21.9 2.1
2 3 -16 24.6 2.6
2 -3 16 19.1 2.7
-2 -3 16 22.3 1.4
-2 3 -16 22.2 2.2
-2 3 -16 19.5 1.8
-2 -3 16 20.3 2
3 3 -16 56.89 3
3 3 -16 52.09 3.6
3 -3 16 53.29 2.2
3 -3 16 57.29 4.1
-3 3 -16 52.09 3
-3 -3 16 52.59 2.4
-3 -3 16 55.19 2.7
4 -3 16 77.69 5.4
4 3 -16 71.09 4.3
4 3 -16 72.59 3.6
-4 3 -16 74.69 3.9
-4 -3 16 76.69 3.2
-4 -3 16 73.19 3.4
5 3 -16 6 2.3
5 -3 16 6.6 2.7
5 3 -16 6.6 1.7
-5 -3 16 7.1 1.5
-5 3 -16 4 1.8
-5 -3 16 5.5 1.3
6 3 -16 18.1 2.5
6 -3 16 10.3 1.6
6 -3 16 11.1 3.3
6 3 -16 14.8 3.7
-6 -3 16 17.1 2.2
-6 -3 16 13.1 2.1
-6 3 -16 14.4 2.6
7 -3 16 4.2 1.4
7 -3 16 5.5 3
-7 3 -16 2.4 2.1
0 4 -16 64.79 3.3
0 4 -16 68.29 3.3
0 -4 16 69.99 3.8
0 -4 16 70.89 2.4
1 -4 16 45.8 3.3
1 -4 16 46.5 2
1 4 -16 48 3
1 4 -16 52.29 2.9
-1 -4 16 48.9 2.1
-1 -4 16 48.3 2.9
-1 4 -16 47.9 2.7
-1 4 -16 48.4 2.7
2 4 -16 26.1 2.7
2 -4 16 25.3 3.2
2 -4 16 22.9 1.4
2 4 -16 27.7 2.5
-2 -4 16 20.9 2.1
-2 4 -16 22.4 1.9
-2 4 -16 24.1 2.2
-2 -4 16 25 1.6
3 -4 16 47.5 2.2
3 4 -16 43.4 2.8
3 4 -16 45.8 3.6
3 -4 16 49.7 4.1
-3 -4 16 47.4 2.3
-3 4 -16 47.7 2.7
-3 -4 16 47.6 2.8
-3 4 -16 45.7 2.9
4 4 -16 1.4 1.1
4 -4 16 0.7 2
4 4 -16 0.9 1.5
-4 -4 16 0.2 0.8
-4 -4 16 2.1 1
-4 4 -16 2.1 1.4
5 4 -16 28.5 2.9
5 4 -16 31.7 3.8
5 -4 16 22.5 3.9
-5 -4 16 32.6 2.5
-5 -4 16 27.7 2.4
-5 4 -16 29.2 3.1
6 4 -16 11.8 3
6 4 -16 17.4 2.4
6 -4 16 16.5 2
6 -4 16 10.6 3.4
-6 4 -16 16.4 2.9
-6 -4 16 17.3 2.2
-6 -4 16 18.2 2.2
0 5 -16 77.49 3.7
0 5 -16 72.19 3.8
0 -5 16 73.59 4.1
0 -5 16 70.49 2.6
1 5 -16 31.2 2.5
1 -5 16 26.6 3.1
1 5 -16 30.5 2.7
1 -5 16 33.3 1.7
-1 5 -16 30.3 2.4
-1 -5 16 31.6 1.9
-1 -5 16 32.2 2.6
-1 5 -16 32.7 2.4
2 5 -16 59.89 3.7
2 -5 16 62.09 2.5
2 -5 16 55.39 4.2
2 5 -16 61.69 3.4
-2 5 -16 57.89 3.1
-2 5 -16 60.49 3.4
-2 -5 16 60.39 2.5
-2 -5 16 61.69 3.4
3 -5 16 57.89 4.9
3 5 -16 71.39 3.7
3 -5 16 64.29 2.7
3 5 -16 63.59 3.9
-3 5 -16 57.79 3.3
-3 -5 16 63.69 2.7
-3 5 -16 60.39 3.1
-3 -5 16 58.89 3.3
4 5 -16 49.5 3.1
4 5 -16 49.2 3.7
4 -5 16 41.7 4.3
-4 -5 16 51.39 3
-4 -5 16 48.6 2.6
-4 5 -16 54.89 3.6
5 -5 16 27.7 4.3
5 5 -16 27.4 3.5
5 5 -16 31.3 3
-5 5 -16 26.8 2.8
-5 -5 16 23.7 2.5
-5 -5 16 27.8 2.7
6 -5 16 24.3 2.3
6 5 -16 18.2 2.6
6 -5 16 22.8 4.6
6 5 -16 15.2 3.3
-6 5 -16 19.7 3
-6 -5 16 20.7 2.4
-6 -5 16 17.7 2.4
0 -6 16 2.8 0.9
0 -6 16 1.9 1.6
0 6 -16 3.3 1.4
0 6 -16 3.4 1.3
1 6 -16 15.2 2.2
1 -6 16 16.1 1.6
1 -6 16 12.2 2.5
1 6 -16 17.1 2.5
-1 6 -16 15.2 2.1
-1 6 -16 13.9 2
-1 -6 16 12.6 2.1
-1 -6 16 16.3 1.6
2 -6 16 12.6 1.5
2 -6 16 10.2 2.6
2 6 -16 10.8 2
2 6 -16 12 2.3
-2 -6 16 11.8 2.3
-2 -6 16 10.6 1.5
-2 6 -16 12.2 1.8
-2 6 -16 14.9 2.2
3 6 -16 9.7 1.8
3 -6 16 11.7 1.5
3 -6 16 11 3.2
3 6 -16 12.7 2.4
-3 -6 16 13.7 1.7
-3 -6 16 9.3 1.9
-3 6 -16 14.4 2
-3 6 -16 12.6 1.9
4 6 -16 8.4 2.3
4 6 -16 8.6 1.9
4 -6 16 2.2 2.8
-4 6 -16 10.2 2.1
-4 -6 16 6.3 1.8
-4 6 -16 5.3 1.7
-4 -6 16 7.7 1.6
5 -6 16 40.2 5.3
5 6 -16 38.7 4
5 6 -16 39.9 3.3
-5 -6 16 38 2.9
-5 6 -16 37.7 3.4
-5 -6 16 35.1 3.1
0 7 -16 82.19 4.2
0 7 -16 85.59 4.4
0 -7 16 84.39 3.4
0 -7 16 80.19 4.8
1 -7 16 24.1 3.6
1 7 -16 21.7 2.7
1 -7 16 23.4 2.1
1 7 -16 27.3 3
-1 7 -16 24 2.5
-1 -7 16 24 2.1
-1 7 -16 20.3 2.4
-1 -7 16 18.5 2.8
2 -7 16 19.5 1.9
2 -7 16 21.2 3.8
2 7 -16 16.7 2.6
2 7 -16 20.5 2.9
-2 7 -16 18.9 2.4
-2 -7 16 18.2 2.8
-2 7 -16 20 2.5
-2 -7 16 22.5 2.3
3 -7 16 9.7 1.6
3 -7 16 6.5 3.1
3 7 -16 11.1 2.1
3 7 -16 7.9 2
-3 -7 16 9.3 1.7
-3 7 -16 9.2 1.9
-3 -7 16 9.1 2.1
-3 7 -16 11.2 1.8
4 -7 16 29.4 4.8
4 7 -16 22.8 2.9
4 7 -16 20 3
-4 -7 16 21.2 2.7
-4 -7 16 25.6 2.6
-4 7 -16 25.7 3.2
-4 7 -16 25.2 2.5
5 7 -16 12.5 2.2
5 -7 16 9.8 4.2
5 7 -16 12.4 2.9
-5 -7 16 13.6 2.3
-5 -7 16 13.1 1.9
-5 7 -16 8.5 2.2
-5 7 -16 9.2 2.3
0 8 -16 13.7 2.2
0 8 -16 13.4 2.4
0 -8 16 10.3 3
0 -8 16 14.2 1.9
1 -8 16 12.9 1.9
1 -8 16 11.9 3
1 8 -16 10.7 2.2
1 8 -16 12.7 2.4
-1 -8 16 8.4 2.6
-1 8 -16 13.4 2.5
-1 8 -16 12.6 2.2
-1 -8 16 11.3 1.8
2 8 -16 13.4 2.7
2 -8 16 14.6 2
2 8 -16 13.8 2.8
2 -8 16 13.5 3.8
-2 -8 16 14.3 2.8
-2 8 -16 14.5 2.3
-2 -8 16 16.9 2
-2 8 -16 14.4 2.4
3 8 -16 2.1 1.9
3 8 -16 5 2
3 -8 16 3.4 3.3
-3 -8 16 4 1.7
-3 8 -16 4.9 1.7
-3 8 -16 5.9 1.7
-3 -8 16 2.2 2.2
4 8 -16 1 1.5
4 8 -16 2.2 1.7
4 -8 16 0.2 3.1
-4 -8 16 0.8 1.4
-4 8 -16 0 1.7
-4 8 -16 2.6 1.1
-4 -8 16 2.5 2
0 -9 16 28 2.6
0 9 -16 27.3 3.3
0 9 -16 26.2 3.1
0 -9 16 23.2 3.8
1 -9 16 1.4 1.5
1 -9 16 0.8 2.7
1 9 -16 0.5 1.5
1 9 -16 -0.7 1.4
-1 9 -16 -0.7 1.2
-1 9 -16 -0.6 1.5
-1 -9 16 1.7 2.4
-1 -9 16 1.8 1.6
2 -9 16 32.4 2.9
2 9 -16 26 3.4
2 9 -16 29.2 3.6
2 -9 16 29.2 4.4
-2 -9 16 22.8 3.4
-2 9 -16 37.6 3.4
-2 -9 16 29.1 2.9
-2 9 -16 36.2 3.2
3 9 -16 6.6 2.4
3 9 -16 8 2.4
3 -9 16 14.5 4.1
-3 9 -16 11.7 2.3
-3 -9 16 12.9 1.9
-3 9 -16 9.8 2.3
-3 -9 16 6.3 2.4
0 -10 16 16.1 2.1
0 -10 16 16.5 3.4
0 10 -16 16.8 3
0 10 -16 21.2 2.9
1 -10 16 18.7 4
1 10 -16 20.7 3.1
1 10 -16 21.5 3
1 -10 16 20.4 2.4
-1 -10 16 18.9 3.4
-1 -10 16 26.1 2.6
-1 10 -16 27 3.5
-1 10 -16 20.8 3.1
0 0 -17 2.8 1.3
0 0 17 -0.1 0.7
0 0 -17 1.3 1.1
-1 0 17 42.2 2
1 0 -17 41.8 2.8
-1 0 17 43.8 1.6
1 0 -17 44.6 2.7
-2 0 17 3.7 1
2 0 -17 3.3 1.7
-2 0 17 3.9 0.8
2 0 -17 1.8 1.4
3 0 -17 0.7 1.3
-3 0 17 0.6 0.7
-3 0 17 1.2 0.7
3 0 -17 0.5 1.6
4 0 -17 47.4 3.2
4 0 -17 48.6 4.2
-4 0 17 45.4 2.4
-4 0 17 48.1 2.5
-5 0 17 41.9 2.6
5 0 -17 42.3 3.4
-5 0 17 45.9 2.6
5 0 -17 44.1 4.6
6 0 -17 15.5 2.6
-6 0 17 21.9 2.4
-6 0 17 25 2.3
6 0 -17 20.9 4
7 0 -17 13 3.5
7 0 -17 15.1 2.9
-7 0 17 24.9 2.1
-7 0 17 22.2 2.5
0 1 -17 5.3 1.4
0 -1 17 0.8 0.8
0 1 -17 0.2 1
0 -1 17 1.6 0.5
1 -1 17 83.29 2.4
1 1 -17 90.69 3.6
1 -1 17 84.89 3.5
1 1 -17 83.99 3.8
-1 1 -17 81.69 3.2
-1 1 -17 88.79 3.5
-1 -1 17 83.69 2.6
-1 -1 17 83.89 3.2
2 -1 17 23.6 1.3
2 1 -17 26.4 2.4
2 -1 17 22.1 2.7
2 1 -17 25.8 2.8
-2 -1 17 25.7 1.5
-2 1 -17 27.6 2.4
-2 1 -17 21.5 1.9
-2 -1 17 24.3 2
3 1 -17 47.7 3.5
-3 1 17 50.29 2.2
-3 1 17 48.3 2.2
3 -1 17 42.6 3.4
3 1 -17 47.1 2.8
-3 -1 17 46.8 2.3
-3 1 -17 41.4 2.8
3 -1 -17 43.9 2.7
-3 1 -17 48.4 2.7
3 -1 -17 45.2 3.4
-3 -1 17 46.5 2.1
-4 1 17 15 1.5
4 1 -17 14.3 2.1
4 1 -17 13.5 3
-4 1 17 11.5 1.5
4 -1 -17 14.4 2.2
4 -1 -17 13.6 2.9
-4 -1 17 13.9 1.6
-4 -1 17 15.8 1.6
-5 1 17 9 1.3
-5 1 17 9.9 1.5
5 1 -17 9.5 2
5 1 -17 7 2.5
-5 -1 17 10.4 1.6
5 -1 -17 8.7 1.9
5 -1 -17 7.8 2.9
6 1 -17 0.4 2.9
6 1 -17 2.9 2
-6 1 17 1.8 0.9
-6 1 17 4.2 1.3
6 -1 -17 1.3 1.9
6 -1 -17 3.9 2.8
-6 -1 17 2.3 1.2
-6 -1 17 3.6 1.2
7 1 -17 2.2 2
-7 1 17 2 1.2
-7 1 17 -0.6 1.1
7 1 -17 0 3.1
-7 -1 17 0.8 1.3
7 -1 -17 2 2.1
7 -1 -17 1.7 3.3
-7 -1 17 2.9 1.3
0 2 -17 3.6 1.3
0 -2 17 2.8 0.6
0 2 -17 2.8 1.2
0 -2 17 2.2 0.9
1 2 -17 87.39 4
1 -2 17 92.09 4.1
1 2 -17 91.69 3.7
1 -2 17 93.39 2.7
-1 -2 17 88.29 2.7
-1 2 -17 94.49 3.6
-1 2 -17 90.59 3.5
-1 -2 17 91.59 3.6
2 2 -17 2.5 1.4
2 -2 17 1.2 0.6
2 -2 17 1 1.4
2 2 -17 1.5 1.5
-2 2 -17 2.4 1.2
-2 -2 17 1.5 0.6
-2 2 -17 -1.2 0.9
-2 -2 17 1.4 0.9
3 -2 17 3.1 1.6
3 2 -17 3.4 1.4
3 2 -17 2.9 1.7
-3 -2 17 3.2 1
-3 2 -17 4.9 1.3
-3 2 -17 4.5 1.4
-3 -2 17 3.2 0.8
4 2 -17 18.4 2.9
4 -2 17 16.4 3.1
4 2 -17 20.2 2.3
-4 2 -17 18.6 2.5
-4 -2 17 21.9 1.8
-4 -2 17 22 2
5 2 -17 8.8 2.8
5 -2 17 7.7 2.7
5 2 -17 6.4 1.7
-5 -2 17 7.8 1.6
-5 -2 17 11 1.6
-5 2 -17 7.9 2
-6 2 17 17.2 2.1
-6 2 17 13.2 1.8
6 2 -17 18 3.9
6 2 -17 18.1 2.6
6 -2 -17 11.1 3.3
-6 -2 17 15.3 2.2
-6 -2 17 15.8 2.3
-6 2 -17 12.4 3.9
6 -2 -17 13 2.4
-7 2 17 42.6 3.1
-7 2 17 54.49 2.7
7 -2 -17 39.8 5.1
7 -2 -17 38.1 3.6
0 -3 17 1.5 1.1
0 3 -17 0.9 1.1
0 3 -17 2.3 1.2
0 -3 17 0.7 0.5
1 3 -17 48.3 2.9
1 3 -17 49.8 3.1
1 -3 17 50.09 3.4
1 -3 17 54.39 2
-1 -3 17 47.4 2
-1 3 -17 47.7 2.7
-1 -3 17 51.99 3
-1 3 -17 51.19 2.7
2 -3 17 10.1 2.4
2 -3 17 13.7 1.2
2 3 -17 15.2 2
2 3 -17 11.4 2.1
-2 -3 17 15.7 1.3
-2 -3 17 13.9 1.8
-2 3 -17 10.9 1.5
-2 3 -17 16.2 2.1
3 -3 17 54.79 4.3
3 3 -17 56.99 3.2
3 3 -17 52.29 3.8
3 -3 17 54.49 2.3
-3 3 -17 54.39 3.1
-3 3 -17 50.89 2.8
-3 -3 17 50.59 2.4
-3 -3 17 55.09 2.8
4 3 -17 33.8 3.4
4 3 -17 38.7 3
4 -3 17 39.5 3.9
-4 -3 17 37.5 2.2
-4 -3 17 35.7 2.3
-4 3 -17 39.2 3.2
5 3 -17 15.1 3.1
5 -3 17 15.9 3.4
5 3 -17 12.6 2.1
-5 3 -17 16.9 2.6
-5 -3 17 18.7 1.9
-5 -3 17 17 2
6 3 -17 8.7 1.9
6 -3 17 7.7 1.5
6 -3 17 7 3.1
6 3 -17 7 3
-6 -3 17 8.5 1.8
-6 3 -17 13.7 2.8
-6 -3 17 10.5 1.7
0 4 -17 57.09 3.2
0 -4 17 62.59 2.3
0 4 -17 57.39 3.3
0 -4 17 58.49 3.8
1 -4 17 19.4 2.7
1 4 -17 17.8 2.3
1 -4 17 16.7 1.3
1 4 -17 17.1 2.3
-1 4 -17 15.2 1.9
-1 -4 17 16.9 1.4
-1 -4 17 12.8 2.1
-1 4 -17 15.2 2.1
2 4 -17 29.3 2.8
2 -4 17 25.7 3.3
2 4 -17 29.4 2.5
2 -4 17 28.7 1.7
-2 4 -17 25.8 2.4
-2 -4 17 23.4 1.7
-2 -4 17 27.1 2.3
-2 4 -17 29.4 2.3
3 4 -17 3 1.6
3 4 -17 2.1 1.2
3 -4 17 1.2 2.2
3 -4 17 1.3 0.8
-3 -4 17 2.7 0.9
-3 -4 17 4.2 1.3
-3 4 -17 1.8 1.2
-3 4 -17 1.1 1.4
4 -4 17 -0.2 1.5
4 4 -17 0.9 1.7
4 4 -17 -0.3 0.9
-4 -4 17 0.7 0.8
-4 -4 17 1.4 0.9
-4 4 -17 0.8 1.4
5 4 -17 19.3 2.6
5 4 -17 16.5 3
5 -4 17 13.9 3.3
-5 -4 17 20 2.1
-5 -4 17 15.6 2
-5 4 -17 18.8 2.8
6 -4 17 7 1.5
6 -4 17 6.1 3
6 4 -17 5 1.9
6 4 -17 7.1 3.1
-6 -4 17 8.7 1.7
-6 -4 17 8.8 1.8
-6 4 -17 8.4 2.5
0 5 -17 7.4 1.5
0 -5 17 9.2 1.2
0 -5 17 6.5 1.7
0 5 -17 9.6 1.8
1 5 -17 56.69 3.5
1 -5 17 57.39 2.3
1 5 -17 61.39 3.5
1 -5 17 53.59 3.7
-1 -5 17 50.79 3.3
-1 5 -17 50.59 3
-1 5 -17 56.49 3.3
-1 -5 17 56.69 2.4
2 5 -17 32.6 3
2 -5 17 35.6 3.4
2 -5 17 35.8 2
2 5 -17 32.8 2.7
-2 -5 17 32.8 2
-2 5 -17 32.7 2.8
-2 5 -17 33.8 2.5
-2 -5 17 34.3 2.7
3 -5 17 93.59 5.7
3 5 -17 92.39 4.3
3 5 -17 100.39 5.1
3 -5 17 95.49 3.4
-3 5 -17 96.89 4
-3 -5 17 88.09 4.1
-3 -5 17 96.39 3.5
-3 5 -17 95.79 4.4
4 -5 17 19.4 3.6
4 5 -17 24.6 2.5
4 5 -17 21.9 3.1
-4 5 -17 25 2.7
-4 5 -17 23.1 2.7
-4 -5 17 26 2
-4 -5 17 23.7 2.4
5 -5 17 13.5 3.6
5 5 -17 12.9 2.3
5 5 -17 14.3 3
-5 5 -17 14.2 2.6
-5 -5 17 12.1 1.9
-5 -5 17 13.7 2
6 -5 17 13.9 3.6
6 5 -17 10.5 3.4
6 -5 17 11.6 1.9
6 5 -17 10.8 2.2
-6 5 -17 10.4 2.6
-6 -5 17 14.6 2.3
-6 -5 17 13 2.1
0 -6 17 12.2 2.3
0 6 -17 9.8 1.8
0 -6 17 11.4 1.4
0 6 -17 11.4 2
1 -6 17 51.89 2.4
1 6 -17 48 3.5
1 -6 17 49.5 4
1 6 -17 48.6 3.6
-1 -6 17 51.29 2.4
-1 -6 17 44.2 3.7
-1 6 -17 47.2 3.1
-1 6 -17 49.99 3.4
2 -6 17 30.7 2
2 6 -17 28.3 3.1
2 6 -17 29.7 3.1
2 -6 17 24.9 3.5
-2 6 -17 29 2.6
-2 -6 17 33.7 2.2
-2 6 -17 29.8 2.7
-2 -6 17 27.7 3
3 -6 17 0.7 2.3
3 6 -17 1 1.4
3 6 -17 0.4 1.5
3 -6 17 -1.1 0.9
-3 6 -17 -1 0.9
-3 6 -17 0.8 1.2
-3 -6 17 -1 1.4
-3 -6 17 2.3 1.3
4 -6 17 0.3 2.6
4 6 -17 2.4 1.4
4 6 -17 2.3 2
-4 -6 17 -1.2 1.4
-4 6 -17 -0.1 1.2
-4 -6 17 0.9 1.1
-4 6 -17 2.2 1.5
5 -6 17 7.1 3.6
5 6 -17 5.9 2
5 6 -17 7.6 2.4
-5 -6 17 8.9 2
-5 6 -17 6.9 2.1
-5 -6 17 8.3 1.7
-5 6 -17 8.3 2.1
0 -7 17 7.9 2.5
0 -7 17 12 1.7
0 7 -17 12 2.3
0 7 -17 10.9 2
1 -7 17 17.8 1.9
1 7 -17 18.2 2.6
1 -7 17 18.2 3.2
1 7 -17 21.8 2.9
-1 7 -17 18.9 2.5
-1 -7 17 14.3 2.8
-1 -7 17 20.2 1.9
-1 7 -17 18.7 2.6
2 7 -17 10.6 2.5
2 -7 17 9.8 1.6
2 7 -17 8.5 2.1
2 -7 17 11.3 3.1
-2 -7 17 7.9 1.6
-2 7 -17 9.8 2
-2 -7 17 10.8 2.4
-2 7 -17 9.4 2
3 -7 17 68.79 3.3
3 -7 17 67.39 5.6
3 7 -17 68.79 4.7
3 7 -17 71.79 4.3
-3 -7 17 70.09 3.4
-3 7 -17 76.59 4.2
-3 7 -17 68.79 3.8
-3 -7 17 73.39 4.4
4 7 -17 44.1 4.2
4 7 -17 38.3 3.4
4 -7 17 35.5 5.1
-4 -7 17 38.9 3
-4 7 -17 34.1 3.4
-4 7 -17 40.9 3.3
-4 -7 17 34.7 3.4
5 7 -17 14.3 3.3
5 -7 17 9.2 5
5 7 -17 12.6 2.8
-5 7 -17 14.3 3.1
-5 -7 17 14.3 2.2
-5 7 -17 18.1 3.7
-5 -7 17 17.1 2.7
0 -8 17 21.3 2.1
0 8 -17 16.2 2.5
0 8 -17 19.8 2.7
0 -8 17 14.2 3.2
1 8 -17 10.2 2.4
1 8 -17 9.7 2.2
1 -8 17 6.9 3
1 -8 17 8.5 1.6
-1 8 -17 7.6 2
-1 8 -17 8.7 2.1
-1 -8 17 10.8 1.8
-1 -8 17 8.1 2.6
2 8 -17 5.8 2.2
2 -8 17 3.9 1.6
2 -8 17 1 2.7
2 8 -17 6.7 2.2
-2 -8 17 7.1 2.6
-2 8 -17 5.5 1.7
-2 -8 17 6.6 1.5
-2 8 -17 5.1 1.7
3 8 -17 4.8 2
3 8 -17 1.5 1.9
3 -8 17 7.8 3.6
-3 -8 17 4.6 1.7
-3 8 -17 6.4 1.9
-3 8 -17 4.7 1.8
-3 -8 17 2.3 2
4 -8 17 6.4 3.5
4 8 -17 5.3 2.2
4 8 -17 2.3 1.9
-4 -8 17 7 1.9
-4 8 -17 3.7 2.1
-4 -8 17 5.3 2.1
-4 8 -17 5 1.8
0 9 -17 30 3.4
0 -9 17 29.2 2.6
0 9 -17 19.9 2.8
0 -9 17 16.5 3.2
1 -9 17 -0.4 2.4
1 -9 17 -0.9 1.4
1 9 -17 -1.3 1.5
1 9 -17 -0.4 1.4
-1 9 -17 -1.4 1.4
-1 9 -17 0.4 1.1
-1 -9 17 1.1 1.4
-1 -9 17 2.4 2.5
2 -9 17 1.4 1.6
2 -9 17 1.8 3
2 9 -17 1.2 1.9
2 9 -17 1.4 1.7
-2 -9 17 -1.3 2.4
-2 9 -17 2.4 1.7
-2 9 -17 2.1 1.5
-2 -9 17 -2.4 1.4
3 9 -17 17.7 3.3
3 -9 17 17 6.1
3 9 -17 15.7 3.2
-3 -9 17 19.6 2.2
-3 9 -17 17.9 4
-3 9 -17 17.4 3.1
-3 -9 17 15.4 2.9
0 -10 17 6.4 2.1
0 10 -17 4.6 2.3
0 -10 17 2.1 2.9
0 10 -17 -3 1.8
1 10 -17 5.4 3
-1 0 18 224.88 5
-1 0 18 223.38 5.7
1 0 -18 225.98 6.6
1 0 -18 216.48 5.9
-2 0 18 7.1 1.2
2 0 -18 5.7 1.5
-2 0 18 6.9 1
2 0 -18 7.2 2
3 0 -18 5.9 1.7
-3 0 18 3.8 0.9
3 0 -18 4.6 1.9
-3 0 18 5.7 0.9
-4 0 18 6.1 1.2
4 0 -18 7.6 2.7
4 0 -18 6.1 1.7
-4 0 18 7 1.3
5 0 -18 5.1 1.8
5 0 -18 4.2 2.7
-5 0 18 3.3 1.1
-5 0 18 1.6 1.1
-6 0 18 61.99 3.4
-6 0 18 59.79 3.3
6 0 -18 56.19 5.6
6 0 -18 57.89 4.2
7 0 -18 25.2 6.7
-7 0 18 17.7 2.9
0 -1 18 0.4 0.6
0 1 -18 1.8 1.3
0 -1 18 0.5 0.9
0 1 -18 4.1 1.6
1 -1 18 0.9 0.4
1 1 -18 3.4 1.6
1 1 -18 3.2 1.5
1 -1 18 1.2 1.3
-1 -1 18 -0.5 0.5
-1 1 -18 1.7 1.2
-1 1 -18 1 1.2
-1 -1 18 -0.1 1
2 1 -18 54.79 3.2
2 -1 18 61.89 3.7
2 1 -18 58.19 3.7
2 -1 18 56.29 2
-2 1 -18 55.29 3.1
-2 -1 18 60.39 2.4
-2 1 -18 58.69 2.9
-2 -1 18 58.79 2.9
3 1 -18 2.5 1.5
3 1 -18 0.9 1.6
-3 -1 18 2.7 0.9
-3 -1 18 1.9 0.7
-4 1 18 3.1 0.9
4 1 -18 2.7 1.6
4 1 -18 2.1 2.2
-4 1 18 1.9 1
4 -1 -18 2.6 1.6
-4 -1 18 4.5 1.1
-4 -1 18 4.2 1.1
4 -1 -18 6.6 2.8
5 1 -18 121.49 5
5 1 -18 129.39 6.6
-5 1 18 123.39 4.4
-5 1 18 123.79 4.2
-5 -1 18 121.39 4.5
5 -1 -18 121.89 6.6
-5 -1 18 124.59 4.5
5 -1 -18 123.49 5
-6 1 18 5.3 1.3
6 1 -18 -0.2 2.7
6 1 -18 3 2
-6 1 18 2.3 1.1
6 -1 -18 2.8 2.9
6 -1 -18 0.4 2.1
-6 -1 18 4.4 1.3
-6 -1 18 2.6 1.1
-7 1 18 4.8 1.5
-7 1 18 4.2 2.1
7 -1 -18 -0.1 4.8
0 2 -18 8 1.6
0 -2 18 6.9 0.8
0 2 -18 4.4 1.4
0 -2 18 3.4 1.3
1 -2 18 90.49 4.1
1 2 -18 92.49 3.8
1 2 -18 91.29 4.2
1 -2 18 88.29 2.6
-1 -2 18 84.39 3.6
-1 2 -18 84.69 3.7
-1 -2 18 83.49 2.7
-1 2 -18 84.09 3.7
2 -2 18 16.2 2.4
2 2 -18 23.2 2.4
2 2 -18 15.4 2.3
2 -2 18 18.8 1.2
-2 2 -18 21.1 2.1
-2 2 -18 21.8 2.3
-2 -2 18 21 1.4
-2 -2 18 18 1.8
3 2 -18 22.6 3
3 -2 18 19.1 3
3 2 -18 20.6 2.4
-3 2 -18 19.6 2.1
-3 -2 18 18.8 1.6
-3 2 -18 20.8 2.2
-3 -2 18 20.6 1.9
4 2 -18 87.49 5.1
4 2 -18 92.99 4.3
4 -2 18 85.29 5.2
-4 -2 18 91.89 3.5
-4 -2 18 91.59 3.7
-4 2 -18 86.89 4.3
5 -2 18 18.2 1.4
5 2 -18 14.6 3.2
5 2 -18 10.8 2.1
5 -2 18 9.7 2.7
-5 2 -18 15.4 2.6
-5 -2 18 9.7 1.8
-5 -2 18 15.3 1.9
6 2 -18 13.4 2.4
6 2 -18 13 3.5
-6 -2 18 11.3 2.1
-6 -2 18 14.3 2
0 3 -18 29.3 2.8
0 3 -18 22 2.4
0 -3 18 24.1 1.6
0 -3 18 29.3 2.5
1 3 -18 49.99 3.4
1 3 -18 52.09 3.1
1 -3 18 48.5 1.9
1 -3 18 49.2 3.5
-1 3 -18 46.5 3
-1 -3 18 49.1 3.2
-1 -3 18 45.1 2
-1 3 -18 44.8 2.8
2 3 -18 4.6 1.7
2 -3 18 6.5 0.9
2 3 -18 8.3 1.7
2 -3 18 8.3 1.9
-2 3 -18 7.2 1.5
-2 -3 18 9 1
-2 -3 18 8.9 1.4
-2 3 -18 9.4 1.7
3 3 -18 16.5 2.8
3 -3 18 22.4 3.3
3 3 -18 19.6 2.3
3 -3 18 23.2 1.6
-3 3 -18 19.4 2.2
-3 -3 18 21.6 1.6
-3 -3 18 24 2
-3 3 -18 19.2 2.3
4 -3 18 6.5 2.3
4 3 -18 10.1 2
4 3 -18 9.9 2.4
-4 3 -18 11 2.2
-4 -3 18 10.3 1.4
-4 -3 18 10.9 1.6
5 3 -18 52.19 4.9
5 3 -18 58.29 3.7
5 -3 18 50.69 5
-5 -3 18 56.59 3
-5 -3 18 57.69 3.2
-5 3 -18 55.39 4
6 3 -18 4.2 3.1
6 3 -18 5.2 2
6 -3 18 2 1.2
6 -3 18 0.9 2.5
-6 -3 18 1.4 1.4
-6 -3 18 5 1.4
-6 3 -18 3.1 2.1
0 -4 18 2.3 0.8
0 -4 18 2.8 1.3
0 4 -18 3 1.5
0 4 -18 2.5 1.4
1 -4 18 55.49 3.6
1 -4 18 52.59 2.2
1 4 -18 53.29 3.5
1 4 -18 47.2 3
-1 4 -18 51.39 3.1
-1 -4 18 52.79 2.2
-1 4 -18 51.69 3
-1 -4 18 47.9 3.1
2 4 -18 11.1 1.9
2 -4 18 12.8 2.5
2 4 -18 10.2 2.2
2 -4 18 12 1.3
-2 -4 18 11.1 2
-2 4 -18 8.1 1.8
-2 4 -18 10.6 1.9
-2 -4 18 11.8 1.3
3 4 -18 33.3 2.7
3 4 -18 39 3.4
3 -4 18 33.9 2
3 -4 18 24.4 3.4
-3 4 -18 34.5 2.5
-3 -4 18 34.8 2
-3 -4 18 33.2 2.4
-3 4 -18 35.7 2.8
4 4 -18 62.39 3.7
4 4 -18 61.99 4.6
4 -4 18 51.39 4.8
-4 4 -18 53.39 3.4
-4 -4 18 60.49 3.2
-4 -4 18 58.29 2.8
-4 4 -18 56.09 3.8
5 4 -18 7.8 1.9
5 -4 18 5.2 2.6
5 4 -18 7.9 2.6
-5 -4 18 8 1.6
-5 -4 18 8.8 1.6
-5 4 -18 8.9 2.2
6 -4 18 7.3 1.6
6 -4 18 8.7 3.2
6 4 -18 7.7 2.2
6 4 -18 10.8 3.5
-6 -4 18 10.2 1.8
-6 4 -18 3.7 2.3
-6 -4 18 6.6 1.7
0 -5 18 1.5 1.3
0 5 -18 0.9 1.4
0 5 -18 0.2 1.1
0 -5 18 -1.1 0.6
1 -5 18 13.2 1.4
1 5 -18 12 2.2
1 5 -18 11.1 2.1
1 -5 18 12.2 2.3
-1 5 -18 14 2.1
-1 -5 18 10.5 2
-1 5 -18 10.1 1.8
-1 -5 18 16.5 1.6
2 5 -18 18 2.3
2 -5 18 18.9 1.6
2 5 -18 16.1 2.6
2 -5 18 18.8 3.1
-2 5 -18 18.2 2.3
-2 -5 18 17.8 1.5
-2 5 -18 15.2 2.3
-2 -5 18 14.5 2.2
3 5 -18 4.7 1.7
3 -5 18 4.2 1.1
3 -5 18 3.2 1.9
3 5 -18 3.6 1.9
-3 -5 18 3.3 1.5
-3 -5 18 4.9 1.2
-3 5 -18 4.1 1.5
-3 5 -18 3.6 1.4
4 -5 18 6.1 2.9
4 5 -18 7.6 1.8
4 5 -18 8.6 2.5
-4 5 -18 9.3 2.1
-4 5 -18 8.2 2
-4 -5 18 10.4 1.8
-4 -5 18 9.2 1.4
5 5 -18 50.69 3.6
5 5 -18 51.19 4.5
5 -5 18 52.49 5.2
-5 -5 18 47.2 3
-5 -5 18 46.2 3
-5 5 -18 48.1 3.9
-5 5 -18 44.7 3.4
0 6 -18 34.6 3.2
0 -6 18 34.4 2.1
0 6 -18 35.1 3
0 -6 18 36.7 3.6
1 6 -18 2.1 1.6
1 -6 18 3.1 1.7
1 6 -18 4.5 1.7
1 -6 18 3.5 1
-1 -6 18 3.6 1.9
-1 -6 18 4.4 1
-1 6 -18 4 1.6
-1 6 -18 3.8 1.4
2 6 -18 0.7 1.6
2 6 -18 1.2 1.6
2 -6 18 1.3 0.8
2 -6 18 0.8 1.7
-2 6 -18 0.8 1.3
-2 -6 18 1.2 1.4
-2 -6 18 2.1 1.1
-2 6 -18 1 1.1
3 6 -18 24 3.2
3 6 -18 30.6 2.9
3 -6 18 17.2 3.2
3 -6 18 24.4 2.1
-3 6 -18 21.6 2.4
-3 -6 18 23.4 2
-3 -6 18 17.3 2.4
-3 6 -18 26.1 2.9
4 6 -18 46.3 3.8
4 -6 18 38.5 4.9
4 6 -18 47.8 4.4
-4 -6 18 40.6 3.1
-4 -6 18 50.39 2.9
-4 6 -18 47.6 3.2
-4 6 -18 49.3 3.8
5 6 -18 3.1 1.7
5 -6 18 -3.1 2.6
5 6 -18 0 1.9
-5 -6 18 1.7 1.4
-5 6 -18 -0.1 1.6
-5 6 -18 2 1.9
-5 -6 18 1.7 1.6
0 7 -18 2.4 1.6
0 -7 18 0.5 2
0 -7 18 3.3 1.2
0 7 -18 6.5 1.8
1 -7 18 10 2.5
1 7 -18 11.5 2.3
1 -7 18 11.1 1.6
1 7 -18 11.7 2.2
-1 7 -18 11.6 2.1
-1 7 -18 11.7 2.2
-1 -7 18 12.9 1.7
-1 -7 18 8.7 2.3
2 -7 18 10 3.2
2 7 -18 14.4 2.7
2 -7 18 16.4 1.9
2 7 -18 18.4 3.1
-2 7 -18 13.5 2.3
-2 -7 18 15.1 1.8
-2 -7 18 10.7 2.4
-2 7 -18 15.6 2.5
3 -7 18 19 4
3 7 -18 20.2 3
3 -7 18 20.2 2.2
3 7 -18 18.9 3.1
-3 7 -18 20 2.7
-3 -7 18 17.1 2.7
-3 -7 18 18.3 2.1
-3 7 -18 21.3 2.7
4 -7 18 2.9 3.1
4 7 -18 11.3 2.8
4 7 -18 9.9 2.1
-4 7 -18 8.8 1.9
-4 7 -18 9.3 2.3
-4 -7 18 8.9 1.6
-4 -7 18 7.4 2.1
0 -8 18 2.5 2.6
0 -8 18 7.1 1.5
0 8 -18 5 1.9
0 8 -18 8.3 2.1
1 -8 18 2 2.6
1 8 -18 1.5 1.7
1 8 -18 3.4 1.8
1 -8 18 2.2 1.5
-1 -8 18 1.6 2
-1 -8 18 3.1 1.3
-1 8 -18 2.2 1.8
-1 8 -18 1.5 1.5
2 8 -18 8 2.5
2 -8 18 4.9 1.7
2 8 -18 9.5 2.2
2 -8 18 1.7 2.3
-2 -8 18 7.6 2.7
-2 8 -18 8.4 2
-2 -8 18 7.7 1.7
-2 8 -18 8.7 1.9
3 -8 18 16.3 4
3 8 -18 22 3.5
3 8 -18 26.9 3.6
-3 -8 18 20.3 3.2
-3 -8 18 22.9 2.4
-3 8 -18 25.3 3.2
-3 8 -18 22.2 3.1
0 -9 18 3.6 2.5
0 -9 18 1.1 1.5
0 9 -18 -0.2 1.4
0 9 -18 1 1.4
1 9 -18 7.6 2.3
1 9 -18 7.9 2.2
1 -9 18 9.8 3
1 -9 18 7.1 1.9
-1 -9 18 7.7 1.7
-1 9 -18 6.6 2
-1 -9 18 4 2.7
-1 9 -18 3.8 2
2 9 -18 -0.2 1.8
2 -9 18 2.1 1.6
2 -9 18 1.4 2.9
2 9 -18 3.3 2.1
-2 9 -18 2.9 1.8
-2 -9 18 0.7 2.4
-2 -9 18 1.5 1.7
-2 9 -18 2.4 1.7
2 0 -19 45.5 3.5
2 0 -19 48.7 3.1
-2 0 19 45.5 1.9
-2 0 19 47.9 2.3
-3 0 19 32.4 2
3 0 -19 34.9 3.6
3 0 -19 28.2 2.9
-3 0 19 30 1.8
-4 0 19 170.68 5.2
-4 0 19 173.88 5.1
4 0 -19 171.98 5.6
4 0 -19 170.98 6.8
-5 0 19 56.69 3.1
5 0 -19 66.19 4
5 0 -19 64.39 5.3
-5 0 19 60.99 3.2
6 0 -19 10.6 2.4
-6 0 19 10 1.7
6 0 -19 8.2 3.4
-6 0 19 5.7 1.4
0 1 -19 16.6 2.2
0 1 -19 14.3 2.1
0 -1 19 17.6 1.8
0 -1 19 15.1 1.2
1 -1 19 11.7 1
1 -1 19 8.6 1.7
1 1 -19 10.9 1.8
1 1 -19 13.4 2.3
-1 -1 19 10.7 1.1
-1 1 -19 10.8 1.8
-1 -1 19 10.2 1.7
-1 1 -19 8.5 1.9
2 1 -19 27.3 2.7
2 1 -19 25.8 2.9
-2 -1 19 25.1 1.4
-2 -1 19 23.4 1.9
3 1 -19 4.5 1.9
3 1 -19 5 2.2
-3 -1 19 4.9 1
-3 -1 19 5.9 1.1
4 1 -19 10.4 2.1
4 1 -19 9.3 2.7
-4 -1 19 14.4 1.5
-4 -1 19 15.3 1.5
5 1 -19 4.3 2.8
-5 1 19 5.9 1.3
-5 1 19 5.9 1.2
5 1 -19 4.5 1.8
5 -1 -19 4 2.9
-5 -1 19 5.4 1.3
5 -1 -19 7.8 2
-5 -1 19 5 1.3
-6 1 19 54.79 3
6 1 -19 58.49 4.2
6 1 -19 56.09 5.8
-6 1 19 52.39 3.1
6 -1 -19 52.79 5.5
6 -1 -19 56.79 4.1
-6 -1 19 55.29 3.1
-6 -1 19 58.39 3.3
0 2 -19 5.2 1.7
0 -2 19 5.1 0.8
0 -2 19 14.6 2.1
0 2 -19 6.3 1.8
1 2 -19 43.5 3.4
1 -2 19 44.5 1.8
1 -2 19 47 3.3
1 2 -19 45.2 3.2
-1 -2 19 43.2 1.9
-1 -2 19 44.9 2.9
-1 2 -19 43.3 3.2
-1 2 -19 41.9 2.9
2 2 -19 121.99 4.6
2 -2 19 112.89 5.1
2 -2 19 113.79 3.2
2 2 -19 113.79 5
-2 -2 19 112.39 4.1
-2 2 -19 109.29 4.3
-2 -2 19 110.49 3.4
-2 2 -19 106.59 4.1
3 2 -19 20.6 2.4
3 -2 19 22.7 3
3 2 -19 24.2 3.2
-3 -2 19 20.7 1.6
-3 2 -19 30 2.8
-3 2 -19 21.6 2.2
-3 -2 19 23.2 2
4 -2 19 45.3 4.1
4 2 -19 45.3 3.6
4 2 -19 44.4 4.2
-4 -2 19 46.5 2.7
-4 2 -19 43.1 2.9
-4 -2 19 43.3 2.3
-4 2 -19 42.2 3.4
5 2 -19 22.2 2.8
5 2 -19 19.5 3.5
-5 -2 19 20.1 2.4
-5 -2 19 22.7 2
6 2 -19 20.5 2.9
6 2 -19 17.1 3.6
-6 -2 19 17.2 2.4
-6 -2 19 26.8 2.4
0 -3 19 -0.4 1.2
0 3 -19 -0.1 1.2
0 3 -19 0.7 1.3
0 -3 19 1.4 0.6
1 3 -19 18.9 2.3
1 -3 19 19 2.5
1 3 -19 25.8 2.9
1 -3 19 20.7 1.4
-1 -3 19 22.2 1.4
-1 3 -19 26.5 2.7
-1 3 -19 17.9 2.1
-1 -3 19 23.6 2.2
2 -3 19 42 3.5
2 3 -19 48.2 3.8
2 -3 19 45.6 2.1
2 3 -19 53.59 3.6
-2 3 -19 46.9 3.1
-2 3 -19 43.2 3
-2 -3 19 50.29 2.9
-2 -3 19 46.6 2.2
3 3 -19 3.9 1.9
3 3 -19 2.9 1.5
3 -3 19 1.9 0.8
3 -3 19 1.3 1.8
-3 -3 19 3.9 1.2
-3 3 -19 2.9 1.6
-3 3 -19 3.9 1.5
-3 -3 19 2.7 0.8
4 3 -19 12 2
4 -3 19 8.2 2.4
4 3 -19 9.7 2.9
-4 -3 19 9.3 1.6
-4 3 -19 8.4 1.7
-4 3 -19 12.1 2.3
-4 -3 19 8.6 1.3
5 3 -19 12.4 2.5
5 3 -19 12.4 3.3
5 -3 19 11.2 3
-5 -3 19 16.4 2.1
-5 3 -19 14 2.6
-5 -3 19 17.2 2
6 -3 19 20 2.2
6 3 -19 22.4 3
6 3 -19 25.7 4.5
6 -3 19 19.6 3.6
-6 -3 19 23.7 2.7
-6 3 -19 20.5 3.1
-6 -3 19 29.1 2.6
0 -4 19 2 1.6
0 4 -19 4 1.7
0 4 -19 2.5 1.6
0 -4 19 2.8 0.9
1 -4 19 28.6 2.9
1 -4 19 25.3 1.6
1 4 -19 30.3 3
1 4 -19 30.5 2.9
-1 4 -19 25 2.6
-1 4 -19 28 2.6
-1 -4 19 29.1 2.5
-1 -4 19 27.9 1.8
2 4 -19 18.6 2.9
2 -4 19 17.4 1.5
2 4 -19 20 2.4
2 -4 19 18.2 2.9
-2 4 -19 18.5 2.4
-2 -4 19 17.5 1.6
-2 4 -19 19.7 2.4
-2 -4 19 15.1 2.3
3 -4 19 14.8 1.5
3 4 -19 17.1 2.4
3 4 -19 19.1 3
3 -4 19 14.4 3
-3 -4 19 16 1.5
-3 4 -19 13.8 2.1
-3 4 -19 15.4 2.2
-3 -4 19 18.8 1.8
4 4 -19 14.7 2.8
4 4 -19 13.7 2.2
4 -4 19 13.2 3.2
-4 4 -19 14.4 2.4
-4 -4 19 14.7 1.9
-4 4 -19 15.7 2.4
-4 -4 19 14.6 1.7
5 4 -19 10.6 2.9
5 -4 19 16.3 3.3
5 4 -19 13.8 2.4
-5 4 -19 11.6 2.4
-5 -4 19 13 2
-5 -4 19 13.6 1.9
-5 4 -19 12.6 2.5
6 -4 19 9 1.6
6 4 -19 6.3 3.3
6 4 -19 6.6 2.1
6 -4 19 7.3 3
-6 4 -19 5.4 2.5
-6 -4 19 7.7 1.8
-6 -4 19 9.4 2.1
0 -5 19 3.7 2
0 5 -19 2.2 1.5
0 5 -19 3.3 1.7
0 -5 19 3.5 1
1 -5 19 19 2.9
1 -5 19 21 1.5
1 5 -19 18.7 2.6
1 5 -19 17.2 2.6
-1 -5 19 16.7 2.3
-1 5 -19 19.7 2.6
-1 -5 19 21.7 1.7
-1 5 -19 15.9 2.4
2 5 -19 30.2 2.9
2 -5 19 31.6 2
2 5 -19 35.7 3.6
2 -5 19 33.1 3.6
-2 -5 19 33.5 2.1
-2 5 -19 32.4 2.9
-2 5 -19 29 2.9
-2 -5 19 31.9 2.9
3 -5 19 2.7 1.8
3 5 -19 5.1 2.1
3 -5 19 4.9 1.2
3 5 -19 5.3 1.7
-3 5 -19 4.9 1.7
-3 5 -19 4.3 1.6
-3 -5 19 3.2 1.5
-3 -5 19 4 1.2
4 5 -19 4.4 1.7
4 5 -19 3.9 2
4 -5 19 9.1 3
-4 -5 19 6.1 1.4
-4 5 -19 5.9 2
-4 -5 19 4.2 1.2
-4 5 -19 7.5 1.9
5 5 -19 5.2 2.5
5 -5 19 7.8 2.8
5 5 -19 7.7 2.2
-5 5 -19 5.6 2.1
-5 -5 19 7.5 1.7
-5 5 -19 6.8 2.2
-5 -5 19 8.4 1.8
0 6 -19 36.7 3
0 -6 19 43.6 2.2
0 -6 19 34 3.3
0 6 -19 36.7 3
1 -6 19 25.5 1.9
1 6 -19 22.8 2.9
1 6 -19 25 2.6
1 -6 19 22.6 3
-1 6 -19 17.2 2.4
-1 6 -19 21.9 2.7
-1 -6 19 23.4 1.8
-1 -6 19 21.9 2.7
2 6 -19 0.5 1.6
2 -6 19 1.3 0.9
2 -6 19 -0.5 1.5
2 6 -19 -0.8 1.5
-2 6 -19 1.4 1.4
-2 -6 19 1.3 1.4
-2 6 -19 2.8 1.5
-2 -6 19 -1 1
3 -6 19 3.4 2.1
3 6 -19 0 1.8
3 6 -19 0.1 1.3
3 -6 19 -1 0.9
-3 -6 19 -0.3 1.3
-3 6 -19 0.5 1.3
-3 6 -19 0.3 1.5
-3 -6 19 1.4 1.1
4 6 -19 6.7 2.1
4 6 -19 6.9 2.5
4 -6 19 7.6 3.1
-4 6 -19 5.5 1.9
-4 6 -19 6.1 2
-4 -6 19 4.8 1.8
-4 -6 19 5.2 1.7
5 6 -19 1.9 1.5
5 -6 19 4.3 2.9
5 6 -19 -0.1 2.2
-5 -6 19 2.1 1.3
-5 -6 19 0.1 1.4
-5 6 -19 0 1.7
-5 6 -19 3.4 2
0 -7 19 -0.4 2
0 7 -19 -1.3 1.4
0 7 -19 0.8 1.5
0 -7 19 1.4 1.1
1 -7 19 42 4.3
1 7 -19 45.6 3.8
1 -7 19 41.4 2.6
1 7 -19 38.3 3.6
-1 -7 19 36.9 3.4
-1 -7 19 39.1 2.6
-1 7 -19 41.4 3.5
-1 7 -19 42.3 3.6
2 7 -19 2 2.1
2 -7 19 5.8 1.5
2 -7 19 7.8 2.8
2 7 -19 5.5 2.3
-2 7 -19 4.8 1.8
-2 7 -19 6.1 2
-2 -7 19 2.6 2
-2 -7 19 6.9 1.5
3 7 -19 0.4 1.9
3 7 -19 2.5 1.9
3 -7 19 4.8 2.7
3 -7 19 1.5 1.3
-3 7 -19 4.1 1.7
-3 -7 19 0.6 1.7
-3 -7 19 4 1.4
-3 7 -19 1.4 1.6
4 -7 19 4.5 3
4 7 -19 1.8 2
4 7 -19 0.4 1.3
-4 7 -19 0.2 1.7
-4 -7 19 2.9 1.4
-4 -7 19 0.2 1.7
-4 7 -19 -1.1 1.6
0 -8 19 33 2.5
0 8 -19 25.2 3.1
0 8 -19 26.4 3.1
0 -8 19 20.8 3.5
1 8 -19 5.4 2
1 -8 19 6.9 1.6
1 8 -19 8.6 2.4
1 -8 19 3.6 2.6
-1 8 -19 6.6 1.9
-1 -8 19 5 2.4
-1 -8 19 7.9 1.7
-1 8 -19 5.5 2
2 8 -19 41.3 3.7
2 -8 19 31.8 4.3
2 -8 19 39.9 3
2 8 -19 47.9 4.4
-2 8 -19 44.3 3.8
-2 -8 19 30.8 3.7
-2 8 -19 47.4 3.6
-2 -8 19 43.8 2.9
3 8 -19 0.5 2
3 -8 19 4.6 3.2
3 8 -19 -0.6 2
-3 8 -19 0.5 1.6
-3 -8 19 2.1 1.6
-3 8 -19 0 1.4
-3 -8 19 1.5 2.2
0 9 -19 21.2 3.1
0 -9 19 17.8 3.4
0 -9 19 16.6 2.2
0 9 -19 20.9 3.1
1 -9 19 30.5 2.8
1 9 -19 32.4 3.8
1 9 -19 27.6 3.4
1 -9 19 22.7 4.1
-1 -9 19 31.8 2.7
-1 -9 19 22.6 3.6
-1 9 -19 29 3.6
-1 9 -19 24.4 3.3
2 9 -19 0.8 2.4
2 9 -19 1.8 2.2
-2 -9 19 1.6 2.4
-2 -9 19 3.1 2.6
-2 9 -19 -0.1 2.4
-3 0 20 1 0.8
3 0 -20 1.6 1.8
3 0 -20 0.1 1.9
-3 0 20 0.2 0.6
-4 0 20 18.5 1.5
4 0 -20 14.9 2.9
4 0 -20 15.1 2.3
-4 0 20 12.4 1.7
-5 0 20 21.5 2.3
5 0 -20 29.8 4.1
-5 0 20 35.3 2.5
5 0 -20 27 2.8
6 0 -20 8.6 2.3
6 0 -20 6.3 3.3
-6 0 20 8.2 1.7
-6 0 20 10.4 1.8
0 1 -20 0.4 1.5
0 1 -20 -0.8 1.5
0 -1 20 -0.5 0.9
1 1 -20 66.49 4
1 1 -20 77.39 3.7
-1 -1 20 77.39 3.3
-1 -1 20 75.99 2.5
2 1 -20 5.3 1.8
2 1 -20 4.4 1.9
-2 -1 20 3.8 0.8
-2 -1 20 5 1
3 1 -20 2.8 2.3
3 1 -20 1.3 1.7
-3 -1 20 2.4 0.9
-3 -1 20 1 0.7
4 1 -20 8.9 2.1
4 1 -20 10.8 2.8
-4 -1 20 14.1 1.4
-4 -1 20 11.4 1.4
5 1 -20 14.7 3.3
5 1 -20 17.5 2.7
-5 -1 20 17.2 2
-5 -1 20 23.4 2
6 1 -20 4.5 2.1
6 1 -20 2.2 3
-6 -1 20 3.9 1.3
-6 -1 20 4.4 1.4
0 2 -20 203.18 6.3
0 2 -20 193.88 6.1
0 -2 20 197.38 4.8
0 -2 20 204.08 6.3
1 2 -20 2.3 1.6
1 2 -20 2.5 1.7
1 -2 20 3.2 0.7
1 -2 20 2.9 1.3
-1 -2 20 2.1 0.8
-1 2 -20 3.4 1.6
-1 2 -20 3.2 1.6
-1 -2 20 3.9 1.2
2 2 -20 16.5 2.7
2 2 -20 15.3 2.5
2 -2 20 14.9 2.3
2 -2 20 14.9 1.2
-2 2 -20 17.3 2.2
-2 -2 20 18.3 1.4
-2 -2 20 14.8 1.9
-2 2 -20 12.5 2
3 -2 20 11.9 2.5
3 2 -20 10.7 2.4
3 2 -20 12.1 2.1
-3 2 -20 10 1.9
-3 -2 20 13.2 1.7
-3 2 -20 14.7 2.3
-3 -2 20 13.8 1.4
4 2 -20 9.9 2.6
4 2 -20 9.1 2.2
-4 -2 20 13.1 1.7
-4 -2 20 10.7 1.4
5 2 -20 52.89 5
5 2 -20 50.89 4.1
-5 -2 20 42.9 3
-5 -2 20 51.49 2.9
6 2 -20 12.9 2.6
6 2 -20 13.5 3.5
-6 -2 20 21.9 2.1
-6 -2 20 10.7 2.1
0 3 -20 152.18 5.4
0 3 -20 143.89 5.3
0 -3 20 143.69 4
0 -3 20 147.09 5.5
1 3 -20 54.99 3.7
1 3 -20 47.4 3.5
1 -3 20 52.19 2.1
1 -3 20 52.39 3.5
-1 -3 20 50.89 3.1
-1 3 -20 46.6 3.3
-1 -3 20 53.49 2.2
-1 3 -20 53.59 3.4
2 3 -20 5.3 1.8
2 -3 20 6.4 2
2 3 -20 2.8 2.1
2 -3 20 4.9 1
-2 3 -20 6.4 1.9
-2 -3 20 2.5 0.9
-2 3 -20 5.2 1.8
-2 -3 20 5.1 1.3
3 3 -20 7.5 2.2
3 -3 20 8 1.2
3 -3 20 7 2.4
3 3 -20 12 2.2
-3 -3 20 8.4 1.2
-3 -3 20 9 1.5
-3 3 -20 9.3 2
-3 3 -20 6.9 1.8
4 -3 20 13.2 3.1
4 3 -20 14.8 2.3
4 3 -20 21.5 3.3
-4 3 -20 16.2 2.7
-4 -3 20 17.1 1.6
-4 -3 20 18 2.1
-4 3 -20 15.9 2.3
5 3 -20 17.3 3.6
5 3 -20 18.5 2.8
5 -3 20 15.3 3.3
-5 3 -20 16.1 2.7
-5 -3 20 16.9 2.1
-5 3 -20 13.3 2.4
-5 -3 20 20 2.2
6 3 -20 2.8 2
6 3 -20 -0.5 3
-6 -3 20 4.1 1.2
-6 -3 20 -0.1 1.4
0 -4 20 171.68 6.4
0 -4 20 172.68 4.6
0 4 -20 171.38 6.2
0 4 -20 170.28 6.1
1 -4 20 8.8 2.1
1 4 -20 8.4 2
1 4 -20 5.9 2
1 -4 20 9 1.1
-1 4 -20 8.8 2.2
-1 -4 20 9.2 1.2
-1 4 -20 6.9 1.9
-1 -4 20 9.5 1.8
2 4 -20 10.3 2
2 -4 20 10.3 1.2
2 4 -20 9.4 2.3
2 -4 20 9.8 2.3
-2 -4 20 11 2
-2 4 -20 9 1.9
-2 4 -20 10.5 2
-2 -4 20 12.1 1.3
3 4 -20 13.4 2.4
3 -4 20 12.4 1.5
3 -4 20 13.4 2.7
3 4 -20 14.6 2.9
-3 4 -20 13.5 2
-3 -4 20 15.6 1.5
-3 4 -20 13.3 2.3
-3 -4 20 13.3 1.7
4 -4 20 31.9 4.2
4 4 -20 39.3 3.5
4 4 -20 41.5 4.4
-4 4 -20 41.3 3.7
-4 -4 20 45.3 2.6
-4 4 -20 38.1 3.2
-4 -4 20 40.9 2.8
5 4 -20 24.6 4
5 4 -20 21.1 2.8
5 -4 20 16.2 3.3
-5 -4 20 26.2 2.1
-5 -4 20 22 2.4
-5 4 -20 20.5 2.8
-5 4 -20 21.5 3
0 5 -20 86.29 4.4
0 -5 20 75.89 4.6
0 5 -20 85.79 4.5
0 -5 20 88.59 3.1
1 5 -20 45.3 3.6
1 5 -20 40.9 3.6
1 -5 20 45.5 2.2
1 -5 20 48.2 3.8
-1 -5 20 47.6 3.2
-1 -5 20 48.4 2.3
-1 5 -20 44.2 3.5
-1 5 -20 40.5 3.1
2 -5 20 45.3 4
2 5 -20 42.4 3.8
2 5 -20 48.2 3.5
2 -5 20 50.39 2.4
-2 -5 20 48.7 3.5
-2 5 -20 49.4 3.4
-2 -5 20 51.19 2.5
-2 5 -20 50.69 3.6
3 -5 20 14.8 2.7
3 -5 20 12 1.5
3 5 -20 10.4 2.1
3 5 -20 10.6 2.6
-3 5 -20 11.9 2.2
-3 5 -20 12.2 2.2
-3 -5 20 13.4 1.7
-3 -5 20 10.5 1.9
4 -5 20 18.5 3.5
4 5 -20 17.3 3.3
4 5 -20 17.4 2.5
-4 5 -20 20 2.5
-4 -5 20 25 2.3
-4 -5 20 24.1 2.1
-4 5 -20 21.4 2.9
5 5 -20 8.4 2.3
5 -5 20 10.5 3.3
5 5 -20 7.2 3
-5 -5 20 9.8 1.7
-5 5 -20 8.8 2.5
-5 -5 20 9.9 1.9
-5 5 -20 11.5 2.5
0 -6 20 76.09 4.8
0 6 -20 93.39 4.7
0 6 -20 89.29 4.8
0 -6 20 88.09 3.4
1 -6 20 3.7 1.1
1 6 -20 1.7 1.8
1 -6 20 1.6 1.6
1 6 -20 3.5 1.7
-1 6 -20 3.5 1.8
-1 -6 20 4.9 1.7
-1 6 -20 2.4 1.6
-1 -6 20 3.6 1
2 6 -20 37.6 4.2
2 -6 20 33.3 4.1
2 6 -20 31.7 3.4
2 -6 20 37.1 2.3
-2 6 -20 33 3.3
-2 -6 20 29.8 3.3
-2 6 -20 34.2 3.1
-2 -6 20 35.4 2.5
3 6 -20 40.5 4.3
3 6 -20 45.8 3.6
3 -6 20 38.3 2.4
3 -6 20 41.5 4.5
-3 -6 20 35.1 3.1
-3 -6 20 41.7 2.5
-3 6 -20 41.9 3.4
-3 6 -20 47.6 3.7
4 -6 20 8.2 3.1
4 6 -20 5.8 2
4 6 -20 7 2.4
-4 6 -20 8.3 2.3
-4 -6 20 8.4 1.8
-4 6 -20 7.2 2.1
-4 -6 20 5.6 1.7
0 -7 20 77.89 3.2
0 7 -20 76.99 4.3
0 7 -20 75.49 4.5
0 -7 20 69.39 4.7
1 7 -20 32.8 3.8
1 -7 20 28.5 3.9
1 7 -20 33.3 3.6
1 -7 20 33.2 2.4
-1 -7 20 30 2.5
-1 7 -20 31.4 3.6
-1 7 -20 34.5 3.5
-1 -7 20 35.2 3.7
2 7 -20 30.1 3.8
2 -7 20 28.1 2.4
2 7 -20 32.5 3.7
2 -7 20 25.9 3.8
-2 -7 20 21.8 3.2
-2 -7 20 29.4 2.4
-2 7 -20 23.2 3
-2 7 -20 30.1 3.3
3 7 -20 5 2.1
3 7 -20 5.6 2.3
3 -7 20 7.1 2.8
-3 -7 20 2.4 1.8
-3 -7 20 5.1 1.7
-3 7 -20 5.7 1.8
-3 7 -20 7.3 2.2
4 7 -20 0.6 2.3
4 7 -20 3.3 1.7
4 -7 20 2.9 2.5
-4 -7 20 2.1 1.4
-4 -7 20 0.4 1.7
-4 7 -20 1 1.6
-4 7 -20 3.1 1.9
0 8 -20 11.8 2.3
0 -8 20 14.3 1.8
0 -8 20 11.6 2.9
0 8 -20 19.2 3
1 8 -20 6.1 2.3
1 8 -20 6.4 2.3
1 -8 20 4.5 1.5
1 -8 20 6.2 2.6
-1 8 -20 3.3 1.9
-1 -8 20 4.9 1.6
-1 8 -20 1.4 1.7
-1 -8 20 3.2 2.4
2 8 -20 17.3 3
2 -8 20 17.8 2.2
2 -8 20 19 3.7
2 8 -20 27.5 3.6
-2 -8 20 14.7 2.9
-2 8 -20 19 2.6
-2 -8 20 26.5 2.6
-2 8 -20 21.4 3.3
3 8 -20 1.6 2.5
3 8 -20 1.3 2.3
3 -8 20 1.6 3.4
-3 8 -20 0.7 1.7
-3 -8 20 3.2 2.5
-3 -8 20 5 1.7
-3 8 -20 4.9 2.4
0 9 -20 0.7 1.7
0 -9 20 -0.6 2.6
0 9 -20 -2.3 1.6
0 -9 20 -0.6 1.5
1 9 -20 6.5 2.5
1 9 -20 8.5 3.7
-1 -9 20 10.1 4.4
-1 9 -20 1.2 2.9
-1 -9 20 5 2.2
4 0 -21 103.59 4.9
-4 0 21 108.29 4
4 0 -21 109.89 6
-4 0 21 103.39 3.8
5 0 -21 105.69 5
-5 0 21 98.39 4.1
-5 0 21 108.99 4.1
5 0 -21 97.09 6.2
6 0 -21 19.2 2.9
-6 0 21 16.2 2.1
-6 0 21 16.6 2.2
6 0 -21 18.6 4
1 1 -21 43.9 3.4
1 1 -21 42.5 3.6
-1 -1 21 41.1 1.9
-1 -1 21 43.3 2.7
2 1 -21 19.9 2.8
2 1 -21 19 2.6
-2 -1 21 21.2 1.8
-2 -1 21 20 1.5
3 1 -21 0 1.5
3 1 -21 -0.7 2
-3 -1 21 1.4 0.9
-3 -1 21 1.9 0.7
4 1 -21 101.09 5.9
4 1 -21 95.39 4.8
-4 -1 21 105.49 3.9
-4 -1 21 97.79 3.7
5 1 -21 6.2 2.3
5 1 -21 5.3 2.9
-5 -1 21 6.3 1.5
-5 -1 21 8.8 1.4
6 1 -21 13.9 2.8
6 1 -21 11.1 3.5
-6 -1 21 20.9 2.1
-6 -1 21 11.4 1.8
0 2 -21 -0.1 1.5
0 -2 21 1.2 1
0 2 -21 2 1.7
0 -2 21 0.1 0.6
1 2 -21 3.1 2.1
1 -2 21 4.4 0.8
1 -2 21 3.5 1.3
1 2 -21 4.5 2
-1 -2 21 1.8 1.4
-1 -2 21 4.3 0.9
-1 2 -21 4.3 1.7
-1 2 -21 5 1.9
2 -2 21 5.2 1.9
2 2 -21 3.5 2.4
2 2 -21 6 2.1
2 -2 21 6.4 0.9
-2 2 -21 5.5 1.9
-2 -2 21 4.3 1
-2 -2 21 3.7 1.5
-2 2 -21 3.8 1.7
3 2 -21 23 2.8
3 2 -21 18.2 2.8
-3 -2 21 20.9 2
-3 -2 21 24 1.6
4 2 -21 24.9 3.8
4 2 -21 28 3.1
-4 -2 21 28.7 2.1
-4 -2 21 23.8 2.2
5 2 -21 28.3 4
5 2 -21 25.6 3.1
-5 -2 21 28 2.2
-5 -2 21 23.9 2.4
6 2 -21 11 3.6
6 2 -21 8.6 2.6
-6 -2 21 12 1.9
-6 -2 21 3.8 1.9
0 3 -21 24.4 2.9
0 3 -21 27.4 2.9
0 -3 21 22.7 1.7
0 -3 21 25 2.6
1 -3 21 15.4 1.3
1 -3 21 12.9 2.3
1 3 -21 14.1 2.8
1 3 -21 14.7 2.5
-1 3 -21 12.8 2.3
-1 -3 21 11.7 1.3
-1 -3 21 12.7 2.1
-1 3 -21 9.5 2.4
2 3 -21 10.1 2.5
2 -3 21 11.6 1.3
2 3 -21 11.2 2.2
2 -3 21 9.4 2.2
-2 3 -21 9.7 2
-2 3 -21 12.4 2.2
-2 -3 21 14.2 1.4
-2 -3 21 11.9 2
3 3 -21 18.2 2.9
3 3 -21 19.7 2.7
3 -3 21 18.7 2.8
-3 3 -21 18.2 2.4
-3 -3 21 17.4 2.1
-3 3 -21 13.9 2.3
-3 -3 21 20.5 1.6
4 3 -21 12.4 2.4
4 3 -21 10.6 3.1
4 -3 21 9.9 2.7
-4 -3 21 10.8 1.6
-4 3 -21 11.8 2.4
-4 -3 21 12.3 1.9
-4 3 -21 10.1 2
5 3 -21 28.4 3.3
5 3 -21 24.5 4
-5 -3 21 28.4 2.6
-5 -3 21 25.9 2.3
0 4 -21 3.7 1.9
0 -4 21 3.3 1
0 -4 21 5.4 1.8
0 4 -21 2.5 1.8
1 -4 21 33.6 3.3
1 4 -21 33.8 3.5
1 4 -21 35.6 3.7
1 -4 21 37.3 1.9
-1 4 -21 33.9 3.2
-1 -4 21 38.3 3.1
-1 4 -21 35.4 3
-1 -4 21 37.6 2.1
2 -4 21 7.6 1.1
2 4 -21 7.9 2.5
2 -4 21 4.5 1.9
2 4 -21 10.8 2.1
-2 4 -21 4.4 1.8
-2 4 -21 8 1.9
-2 -4 21 8.7 1.5
-2 -4 21 8.5 1.2
3 4 -21 33.1 3.4
3 -4 21 26.8 1.9
3 -4 21 26.9 3.5
3 4 -21 26.9 3.6
-3 4 -21 29.5 3.1
-3 4 -21 29.9 3.1
-3 -4 21 31.4 2.4
-3 -4 21 23.9 2.1
4 4 -21 6 2.6
4 -4 21 8.8 2.7
4 4 -21 9.1 2.3
-4 -4 21 8.2 1.4
-4 4 -21 7.5 2.1
-4 4 -21 7.6 2.4
-4 -4 21 10.1 1.8
5 4 -21 18.1 3.7
5 4 -21 16.8 2.8
5 -4 21 15.2 3.5
-5 4 -21 15.4 2.7
-5 -4 21 14.1 1.9
-5 4 -21 13 2.5
-5 -4 21 16 2
0 5 -21 8.5 2.2
0 5 -21 10 2.2
0 -5 21 10.4 1.3
0 -5 21 9.6 2
1 5 -21 70.49 4.2
1 -5 21 70.09 2.8
1 -5 21 66.89 4.3
1 5 -21 69.29 4.4
-1 -5 21 68.09 4
-1 5 -21 71.39 4.2
-1 -5 21 73.39 2.9
-1 5 -21 70.89 4.1
2 -5 21 73.69 4.8
2 -5 21 83.09 3.2
2 5 -21 79.69 5.2
2 5 -21 77.09 4.6
-2 5 -21 79.29 4.3
-2 5 -21 82.79 4.4
-2 -5 21 83.79 3.3
-2 -5 21 73.69 4.3
3 5 -21 49.6 4.7
3 5 -21 52.99 3.8
3 -5 21 53.49 2.8
3 -5 21 49 4.5
-3 5 -21 56.49 3.9
-3 5 -21 57.29 3.9
-3 -5 21 55.89 2.8
-3 -5 21 56.49 3.4
4 5 -21 3.4 2.5
4 -5 21 3.5 2.3
4 5 -21 0.8 1.9
-4 -5 21 4.4 1.3
-4 5 -21 1.5 1.9
-4 5 -21 2.5 1.8
-4 -5 21 2.9 1.2
5 -5 21 6.6 2.9
5 5 -21 4.4 2.8
5 5 -21 4.9 2
-5 -5 21 3 1.4
-5 -5 21 6.8 1.5
-5 5 -21 4.4 2
-5 5 -21 4.5 2.3
0 -6 21 0 1.6
0 6 -21 1.8 1.8
0 6 -21 0.5 1.5
0 -6 21 -0.4 0.9
1 6 -21 31.9 3.7
1 -6 21 26.5 3.5
1 -6 21 30.7 2.2
1 6 -21 28.5 3.3
-1 6 -21 28.2 3.3
-1 6 -21 34.2 3.4
-1 -6 21 29.6 3.2
-1 -6 21 32.9 2.2
2 -6 21 36.3 3.7
2 -6 21 42.7 2.4
2 6 -21 32.4 3.8
2 6 -21 37.5 3.9
-2 -6 21 43.6 2.7
-2 -6 21 32.7 3.5
-2 6 -21 36.8 3.3
-2 6 -21 37.2 3.4
3 -6 21 51.99 2.8
3 6 -21 49.99 4
3 6 -21 54.99 4.7
3 -6 21 51.89 4.6
-3 -6 21 48.1 3.4
-3 6 -21 48.2 3.8
-3 -6 21 52.29 3
-3 6 -21 55.49 3.9
4 -6 21 4.5 2.2
4 6 -21 1.5 2.4
4 6 -21 1.2 1.4
-4 -6 21 0.3 1.2
-4 -6 21 1.5 1.2
-4 6 -21 0.2 1.7
-4 6 -21 1.9 1.9
0 -7 21 8.4 2.5
0 -7 21 10.1 1.6
0 7 -21 8.1 2.2
0 7 -21 9 2.5
1 7 -21 18.2 3.2
1 -7 21 17.1 1.9
1 7 -21 10 2.4
1 -7 21 13 2.9
-1 -7 21 13.5 2.7
-1 7 -21 16.5 2.8
-1 7 -21 12.6 2.6
-1 -7 21 13.7 1.9
2 7 -21 41.9 4.6
2 -7 21 44.5 2.6
2 -7 21 45.6 4.4
2 7 -21 47 4.2
-2 -7 21 39.1 4
-2 -7 21 48 2.9
-2 7 -21 45.4 3.7
-2 7 -21 49.5 3.9
3 7 -21 54.29 4.8
3 7 -21 47.1 4.4
3 -7 21 41.7 5.1
-3 7 -21 54.69 4.3
-3 7 -21 52.19 4
-3 -7 21 50.99 3.3
0 -8 21 2.2 1.3
0 8 -21 -0.1 1.5
0 -8 21 1.7 2.2
0 8 -21 2.4 1.9
1 -8 21 11.1 3.2
1 -8 21 10.3 1.9
1 8 -21 7.1 2.3
1 8 -21 10.5 2.6
-1 -8 21 10.8 2.7
-1 8 -21 12.1 2.6
-1 -8 21 9.2 1.8
-1 8 -21 10.6 2.6
2 8 -21 28.5 3.8
2 -8 21 24.5 4.1
2 -8 21 24.3 2.5
2 8 -21 27.2 4.1
-2 8 -21 27.4 3.3
-2 -8 21 26.8 2.7
-2 8 -21 30.7 3.8
-2 -8 21 29.6 3.6
-5 0 22 3.1 2.1
-5 0 22 8.4 2.1
5 0 -22 7.6 3.5
-6 0 22 18.5 2.4
6 0 -22 18.1 4.5
6 0 -22 18 2.9
-6 0 22 26.4 2.3
2 1 -22 46.8 3.7
2 1 -22 44.9 4.1
-2 -1 22 48.5 2.2
-2 -1 22 47.5 2.5
3 1 -22 4.9 1.9
3 1 -22 4.9 2.3
-3 -1 22 4.8 0.9
-3 -1 22 2.6 1
4 1 -22 9.8 2.3
4 1 -22 6.6 2.6
-4 -1 22 10.6 1.5
-4 -1 22 11.7 1.5
5 1 -22 40.3 4.8
5 1 -22 36.9 3.7
-5 -1 22 41 2.5
-5 -1 22 36.4 2.8
6 1 -22 5.6 3.4
6 1 -22 8.2 2.6
-6 -1 22 10.1 1.7
-6 -1 22 4.6 1.4
0 2 -22 6.6 2.2
0 2 -22 6.5 2.2
0 -2 22 7.9 1.9
0 -2 22 5.2 1
1 -2 22 20.7 1.4
1 2 -22 20.4 3
1 -2 22 18.5 2.4
1 2 -22 18.7 2.8
-1 2 -22 18.8 2.5
-1 -2 22 17.1 2.2
-1 -2 22 20.1 1.6
-1 2 -22 19.2 2.6
2 2 -22 4.7 2
2 2 -22 3.4 2
-2 -2 22 1.7 1.3
-2 -2 22 1.3 0.8
3 2 -22 12 2.9
3 2 -22 15.1 2.6
-3 -2 22 14.7 1.9
-3 -2 22 12 1.4
4 2 -22 31.9 4.1
4 2 -22 35.8 3.7
-4 -2 22 35.4 2.2
-4 -2 22 33.7 2.5
5 2 -22 27.3 4.2
5 2 -22 22.2 2.9
-5 -2 22 25.8 2.7
-5 -2 22 29.9 2.4
0 3 -22 119.19 5.3
0 -3 22 128.19 5.2
0 3 -22 118.79 5.1
0 -3 22 117.69 3.6
1 -3 22 18 2.7
1 3 -22 13 2.7
1 -3 22 17.5 1.3
1 3 -22 12.2 2.5
-1 3 -22 13 2.3
-1 -3 22 14.9 2
-1 -3 22 16.3 1.5
-1 3 -22 15.8 2.6
2 3 -22 9.9 2.6
2 -3 22 11.8 1.3
2 -3 22 13.4 2.3
2 3 -22 7.9 2
-2 3 -22 12.1 2.2
-2 3 -22 6.8 1.8
-2 -3 22 10.8 1.9
-2 -3 22 15.8 1.3
3 3 -22 21.2 3.5
3 3 -22 25.2 3.1
3 -3 22 19.6 3
-3 3 -22 19.2 2.6
-3 -3 22 22.6 2.4
-3 -3 22 23 1.7
-3 3 -22 21.9 2.8
4 3 -22 15.5 2.7
4 3 -22 15.1 3.5
-4 -3 22 17.3 1.7
-4 -3 22 13.4 2.1
5 3 -22 28.9 3.3
5 3 -22 22.8 4.1
-5 -3 22 21.8 2.4
-5 -3 22 28.6 2.3
0 4 -22 67.09 4.2
0 -4 22 59.59 3.9
0 4 -22 63.29 4
0 -4 22 65.19 2.6
1 -4 22 0 1.4
1 -4 22 1.3 0.7
1 4 -22 2.4 2
1 4 -22 1 2
-1 4 -22 1.3 1.7
-1 -4 22 1.8 0.7
-1 -4 22 -0.3 1.1
-1 4 -22 -1.5 1.5
2 4 -22 38.4 3.7
2 4 -22 41.6 4.3
2 -4 22 37.1 2.1
2 -4 22 42.9 3.4
-2 4 -22 39.1 3.4
-2 -4 22 37.7 2.3
-2 4 -22 37.8 3.5
-2 -4 22 42.9 3
3 -4 22 11.7 2.7
3 4 -22 11.8 2.5
3 4 -22 9.5 2.7
3 -4 22 11.8 1.5
-3 -4 22 9.4 1.6
-3 4 -22 9.8 2.1
-3 -4 22 14.4 2
-3 4 -22 8.9 2.2
4 4 -22 15.7 3.3
4 4 -22 16 2.7
4 -4 22 14.3 2.9
-4 -4 22 18.4 1.7
-4 4 -22 15.8 2.8
-4 -4 22 16.7 2.2
-4 4 -22 19.4 2.7
5 -4 22 32.9 4.6
5 4 -22 29.3 3.4
5 4 -22 38 4.9
-5 4 -22 42.1 3.6
-5 -4 22 41.9 2.7
-5 -4 22 43.8 2.9
-5 4 -22 38.2 3.9
0 -5 22 5.7 1.8
0 5 -22 8.3 2.3
0 5 -22 6.9 2.1
0 -5 22 7.2 1.2
1 -5 22 56.19 2.6
1 5 -22 54.19 4
1 5 -22 53.39 4.5
1 -5 22 49.99 4.1
-1 5 -22 60.49 4.4
-1 -5 22 55.89 3.9
-1 -5 22 59.89 2.6
-1 5 -22 58.69 4
2 -5 22 9.1 2.3
2 5 -22 9.9 3
2 5 -22 6.6 2.5
2 -5 22 8.9 1.3
-2 -5 22 7.9 1.5
-2 -5 22 13.5 2.2
-2 5 -22 6.6 2
-2 5 -22 9.4 2.3
3 5 -22 38.2 4.5
3 5 -22 39.4 3.5
3 -5 22 31 4
3 -5 22 33.1 2.3
-3 -5 22 36.5 2.2
-3 5 -22 34.2 3.6
-3 -5 22 41.6 3
-3 5 -22 35.5 3.5
4 5 -22 2.8 2.1
4 -5 22 4.7 2
4 5 -22 3.9 2.6
-4 -5 22 -0.2 1.3
-4 5 -22 1.6 2
-4 -5 22 3.1 1.4
-4 5 -22 1.8 2.1
0 6 -22 51.99 4.3
0 -6 22 62.99 2.9
0 -6 22 56.29 4.3
0 6 -22 61.19 4.2
1 -6 22 16.4 2.9
1 6 -22 22.4 3.5
1 6 -22 16.3 2.8
1 -6 22 17.4 1.8
-1 6 -22 19.3 3.1
-1 6 -22 16.1 2.7
-1 -6 22 18.6 3
-1 -6 22 16.4 1.8
2 6 -22 50.89 4.9
2 -6 22 48.3 2.6
2 6 -22 44.5 4
2 -6 22 48.1 4.4
-2 -6 22 46.8 3.7
-2 6 -22 46.3 4.1
-2 6 -22 48.2 3.9
-2 -6 22 49.99 2.7
3 6 -22 1.2 2
3 -6 22 1.5 1.9
3 -6 22 -0.2 1
3 6 -22 3 2.6
-3 -6 22 2.6 1.5
-3 6 -22 2.6 2
-3 6 -22 1.2 1.7
-3 -6 22 3.1 1.3
4 6 -22 23.8 3.8
4 6 -22 21.4 3.1
4 -6 22 21.9 3.7
-4 6 -22 21.7 3.2
-4 6 -22 22.9 3.4
-4 -6 22 27.1 2.2
-4 -6 22 27.5 2.6
0 7 -22 33.8 3.3
0 -7 22 37.1 2.4
0 -7 22 36 3.5
0 7 -22 37.2 4.1
1 7 -22 56.49 4.9
1 -7 22 57.79 3
1 7 -22 54.09 4.1
1 -7 22 63.59 4.7
-1 -7 22 49.99 4.2
-1 -7 22 56.29 3
-1 7 -22 55.59 4.3
-1 7 -22 56.09 4.6
2 -7 22 9 2.7
2 7 -22 10.4 2.2
2 7 -22 8.3 2.9
2 -7 22 10.2 1.6
-2 7 -22 7.6 2.5
-2 -7 22 11.3 1.6
-2 -7 22 12.9 2.4
-2 7 -22 9.3 2.2
3 -7 22 8.9 2.6
3 7 -22 6 2.6
3 7 -22 2.8 2.6
-3 7 -22 5.3 2
-3 -7 22 6.6 1.8
-3 -7 22 6.7 2
-3 7 -22 3.4 2.1
0 8 -22 28.1 3.6
0 -8 22 31.5 2.6
0 8 -22 20.7 3.3
0 -8 22 16.8 3.1
1 8 -22 8.6 2.6
1 -8 22 4.9 2.5
1 8 -22 11.5 2.8
1 -8 22 11.5 2
-1 8 -22 10.9 2.4
-1 -8 22 8.1 2.3
-1 -8 22 11 2.1
-1 8 -22 8.5 2.4
3 1 -23 104.19 5
3 1 -23 102.89 5.5
-3 -1 23 109.49 3.6
-3 -1 23 100.29 4
4 1 -23 10.3 2.4
4 1 -23 8.2 2.7
-4 -1 23 9.8 1.3
-4 -1 23 10.8 1.6
5 1 -23 57.39 4.3
5 1 -23 55.99 5.5
-5 -1 23 49 3.2
-5 -1 23 57.09 3
0 -2 23 18.9 1.4
0 2 -23 18.3 2.6
0 -2 23 19.2 2.3
0 2 -23 17.8 2.9
1 2 -23 0.3 2
1 2 -23 2.1 2.2
-1 -2 23 0.1 1.2
-1 -2 23 1.5 0.8
2 2 -23 3.3 1.9
2 2 -23 1.8 2
-2 -2 23 3.6 0.7
-2 -2 23 -0.7 1
3 2 -23 21.1 3.5
3 2 -23 25.7 3
-3 -2 23 20.9 2
-3 -2 23 22.2 1.6
4 2 -23 15.6 3.4
4 2 -23 11.6 2.5
-4 -2 23 12.8 1.5
-4 -2 23 17.1 2.1
5 2 -23 22.4 4
5 2 -23 25.8 3.3
-5 -2 23 28.2 2.3
-5 -2 23 24.6 2.5
0 -3 23 2 0.8
0 3 -23 1.8 1.9
0 3 -23 2.5 1.9
0 -3 23 -0.2 1.3
1 3 -23 8.1 2.5
1 -3 23 7.6 1.1
1 3 -23 6.8 2.6
1 -3 23 10.9 1.9
-1 -3 23 8 1.1
-1 3 -23 7.2 2.2
-1 3 -23 7.5 2.1
-1 -3 23 2.2 1.6
2 -3 23 16.6 1.5
2 3 -23 17.6 2.8
2 -3 23 14.4 2.4
2 3 -23 13.2 2.9
-2 -3 23 16.6 2.3
-2 3 -23 15.3 2.5
-2 -3 23 17.4 1.6
-2 3 -23 14.4 2.5
3 3 -23 28.4 3.9
3 3 -23 20.3 2.9
-3 3 -23 19.6 4.1
-3 -3 23 20.1 2
-3 -3 23 21.3 2.3
4 3 -23 10.8 2.6
4 3 -23 9.4 3.2
-4 -3 23 5.1 1.6
-4 -3 23 6.6 1.3
5 3 -23 42.7 5.1
5 3 -23 40.7 4.1
-5 -3 23 30.9 2.9
-5 -3 23 39.6 2.6
0 -4 23 0.6 0.7
0 4 -23 2.3 2.1
0 4 -23 2.5 1.9
0 -4 23 2.6 1.3
1 4 -23 6.6 2.6
1 -4 23 7.8 1.9
1 -4 23 5.2 1.1
1 4 -23 6.3 2.3
-1 -4 23 5.7 1.1
-1 4 -23 4.2 2
-1 -4 23 5 1.6
-1 4 -23 5.3 2.3
2 -4 23 6.8 1.2
2 4 -23 4.7 2.3
2 -4 23 6.3 2
2 4 -23 5.7 2.6
-2 -4 23 6.7 1.3
-2 -4 23 4.8 1.7
-2 4 -23 5.8 2.3
-2 4 -23 6.2 2.1
3 4 -23 23.8 3.2
3 4 -23 23 3.8
3 -4 23 18 1.8
3 -4 23 15.3 2.8
-3 4 -23 18.9 2.7
-3 4 -23 19.4 3
-3 -4 23 23.7 2.7
-3 -4 23 24.7 1.9
4 -4 23 37.1 3.9
4 4 -23 20.1 3.7
4 4 -23 23.7 3.4
-4 -4 23 23.4 2.6
-4 4 -23 22.2 2.9
-4 -4 23 28.4 2.1
-4 4 -23 20.2 3.3
0 -5 23 10.6 2.1
0 5 -23 9.7 2.5
0 5 -23 7.1 2.4
0 -5 23 8.8 1.5
1 5 -23 1.9 2.2
1 -5 23 0.9 1
1 5 -23 2.6 1.9
1 -5 23 2.7 1.5
-1 5 -23 2.5 2
-1 -5 23 3.2 1
-1 -5 23 1.6 1.4
-1 5 -23 1.9 1.9
2 5 -23 0.7 2.3
2 -5 23 1.9 1
2 -5 23 4.8 2.1
2 5 -23 0.2 2.4
-2 -5 23 2.2 1.2
-2 5 -23 1.7 2.1
-2 -5 23 4.4 1.6
-2 5 -23 1.5 1.9
3 5 -23 6.6 2.1
3 -5 23 6.4 1.4
3 -5 23 7.3 2.5
3 5 -23 6 2.6
-3 5 -23 5.3 2.1
-3 5 -23 7.3 2.4
-3 -5 23 5.8 1.3
-3 -5 23 7.4 1.6
4 5 -23 2.1 2.6
4 -5 23 3.6 2.2
4 5 -23 0.6 2
-4 5 -23 0.8 2.1
-4 -5 23 2 1.4
-4 5 -23 -0.9 1.8
-4 -5 23 2.9 1.4
0 6 -23 2.2 1.9
0 6 -23 1.5 2.1
0 -6 23 3.8 1.1
0 -6 23 5.4 1.9
1 6 -23 8.9 2.5
1 -6 23 10.1 1.6
1 -6 23 16.5 2.9
1 6 -23 11.9 3
-1 6 -23 12.8 2.9
-1 6 -23 13.2 2.8
-1 -6 23 11.6 2.3
-1 -6 23 8.2 1.5
2 -6 23 7.3 1.4
2 -6 23 6.6 2
2 6 -23 6.6 2.6
2 6 -23 12 3.3
-2 -6 23 13.2 2.2
-2 6 -23 10 2.7
-2 6 -23 9.8 2.4
-2 -6 23 15.2 1.8
3 6 -23 1.5 2.1
3 -6 23 4.2 2.2
3 6 -23 3.9 2.8
-3 -6 23 -1.3 1.2
-3 -6 23 5.1 1.5
-3 6 -23 2.8 2.1
-3 6 -23 2.2 1.8
0 7 -23 29.5 3.9
0 -7 23 20.3 3.3
0 -7 23 29.4 2.4
0 7 -23 31 3.7
1 7 -23 5 2.1
1 7 -23 10.1 2.9
1 -7 23 6.2 1.5
1 -7 23 1.1 2.3
-1 7 -23 5 2.3
-1 -7 23 8.1 1.6
-1 7 -23 7.1 2.4
-1 -7 23 6.2 2
2 -7 23 12.3 3.1
2 7 -23 12.1 3.1
2 7 -23 11.8 2.6
2 -7 23 12.5 1.8
-2 7 -23 10.8 2.9
-2 -7 23 13.5 1.8
-2 -7 23 11.5 2.2
-2 7 -23 10.9 2.4
5 1 -24 20.7 3.9
5 1 -24 20.1 3.1
-5 -1 24 24.2 2.2
-5 -1 24 21.7 2.5
1 2 -24 9.2 2.5
1 2 -24 9.4 2.5
-1 -2 24 15 1.3
-1 -2 24 8.7 1.9
2 2 -24 11.3 2.8
2 2 -24 11.1 2.5
-2 -2 24 11.3 1.7
-2 -2 24 9.7 1.2
3 2 -24 53.39 4.6
3 2 -24 49.3 4.2
-3 -2 24 56.49 3
-3 -2 24 43.1 2.5
4 2 -24 0.1 2.1
4 2 -24 0.2 2.6
-4 -2 24 0.6 0.8
-4 -2 24 1.5 1
5 2 -24 73.39 4.8
5 2 -24 67.89 6.2
-5 -2 24 70.29 3.7
-5 -2 24 65.39 3.3
0 3 -24 45.2 3.9
0 3 -24 46 3.8
0 -3 24 45.5 2.2
0 -3 24 41.5 3.4
1 -3 24 0.4 0.7
1 -3 24 -2.1 1.3
1 3 -24 0.5 2.1
1 3 -24 2 2.3
-1 -3 24 -0.4 1.2
-1 3 -24 0.1 1.8
-1 -3 24 1.5 0.7
-1 3 -24 -1.3 1.8
2 -3 24 45.9 3.3
2 3 -24 40.4 4.2
2 3 -24 43.5 4.1
-2 3 -24 36.4 4.9
-2 -3 24 31.7 2.9
-2 -3 24 44.8 2.3
-2 3 -24 42.8 6
3 3 -24 43.2 4.1
3 3 -24 49.5 5
-3 -3 24 47.7 3.1
-3 -3 24 41.6 2.5
4 3 -24 36.5 4.6
4 3 -24 40.5 4
-4 -3 24 34 2.8
-4 -3 24 38.6 2.3
5 3 -24 10.8 3.3
5 3 -24 15 4.1
-5 -3 24 9.8 2.9
-5 -3 24 12.7 1.8
0 4 -24 -0.4 2
0 4 -24 -0.7 2.2
0 -4 24 -1 0.8
0 -4 24 -1.1 1.4
1 -4 24 10.7 1.4
1 -4 24 8.2 2.2
1 4 -24 10.8 2.4
1 4 -24 10.2 2.9
-1 4 -24 14.7 2.7
-1 4 -24 8.2 2.4
-1 -4 24 9.3 2.1
-1 -4 24 16.4 1.5
2 4 -24 18.1 3
2 -4 24 20.5 3.1
2 -4 24 18.4 1.9
2 4 -24 27.1 3.9
-2 -4 24 16.4 1.9
-2 4 -24 20.7 3.1
-2 -4 24 21.5 2.7
-2 4 -24 19.2 2.9
3 4 -24 57.49 5.3
3 4 -24 61.79 4.4
3 -4 24 52.39 4.6
-3 -4 24 52.89 3.4
-3 4 -24 55.79 4.1
-3 -4 24 60.79 2.8
-3 4 -24 52.89 4.1
4 4 -24 -0.3 2.7
4 4 -24 0.5 2.2
4 -4 24 3 2.7
-4 4 -24 1.4 2.8
-4 -4 24 1.5 1.4
-4 -4 24 -2.5 1
-4 4 -24 -1.1 2.2
0 5 -24 0.5 2
0 -5 24 -0.8 1.5
0 5 -24 -0.3 2.2
0 -5 24 1.5 0.9
1 5 -24 19.9 3.5
1 -5 24 17.1 3
1 -5 24 15.6 1.7
1 5 -24 14.5 3
-1 -5 24 13.6 2.5
-1 5 -24 17.1 2.9
-1 5 -24 18.9 3.1
-1 -5 24 18.4 1.9
2 -5 24 16.7 1.9
2 5 -24 21.2 3.7
2 5 -24 11.9 3
2 -5 24 14.3 2.9
-2 5 -24 14.6 2.8
-2 -5 24 15.1 2.5
-2 5 -24 16.4 3.1
-2 -5 24 21.3 2
3 5 -24 9 2.7
3 -5 24 9.5 2.6
3 5 -24 13 3.3
-3 5 -24 11.4 2.6
-3 -5 24 12.7 1.7
-3 -5 24 11.2 2
-3 5 -24 8.3 2.6
4 5 -24 25.9 4.7
4 5 -24 18.7 3.4
4 -5 24 18.7 3.4
-4 5 -24 15.9 3
-4 5 -24 17 3.2
-4 -5 24 19 2.8
-4 -5 24 26.5 2.6
0 -6 24 0.3 0.9
0 6 -24 -1.7 1.7
0 6 -24 -0.7 2.4
0 -6 24 -2.9 1.6
1 -6 24 27.1 2.2
1 6 -24 21.1 3.7
1 6 -24 27.4 3.5
1 -6 24 17.4 3.2
-1 6 -24 20.7 3
-1 -6 24 23.7 3
-1 6 -24 28.3 3.7
-1 -6 24 23.4 2.2
2 6 -24 13.1 3.4
2 6 -24 12 2.8
2 -6 24 9.9 2.6
-2 -6 24 11.3 2.4
-2 6 -24 11.9 2.7
-2 6 -24 9.8 2.9
-2 -6 24 11.9 1.6
3 -6 24 17.8 3.3
3 6 -24 19.2 3.6
3 6 -24 18.5 3.5
-3 -6 24 18.2 2.2
-3 -6 24 19.5 2.5
-3 6 -24 15.7 3.1
-3 6 -24 14.2 2.7
0 -7 24 -2.2 1.9
0 7 -24 0.5 2.3
0 7 -24 2.4 1.9
1 -7 24 2.9 1.3
1 7 -24 1.2 2.1
1 -7 24 -2.4 2
1 7 -24 3 2.7
-1 -7 24 4.2 1.4
-1 7 -24 2.3 2.3
-1 -7 24 -0.7 1.9
-1 7 -24 0.5 1.9
2 -7 24 17.1 5
2 -7 24 15 2.5
-2 7 -24 13.5 3.7
-2 7 -24 16.8 3.8
2 2 -25 1.5 3.9
2 2 -25 -0.2 3.2
-2 -2 25 3.7 1.1
-2 -2 25 5.1 1.6
3 2 -25 7.1 2.5
3 2 -25 5.6 2.6
-3 -2 25 7.9 1.5
4 2 -25 45.5 4.8
4 2 -25 50.89 4.3
-4 -2 25 42.1 3
-4 -2 25 60.49 2.7
5 2 -25 13.1 5.7
5 2 -25 14.1 3.6
-5 -2 25 14.2 3
0 3 -25 40.6 3.8
0 -3 25 51.49 3.3
0 3 -25 39 4.2
0 -3 25 40.3 2.3
1 3 -25 1.2 2
1 3 -25 1.8 2.5
1 -3 25 2.8 1.5
-1 -3 25 3.8 0.9
-1 -3 25 0.2 1.3
2 3 -25 11.3 3.1
2 3 -25 10.2 2.8
-2 -3 25 9.3 1.6
-2 -3 25 5.2 1.8
3 3 -25 5.5 2.6
3 3 -25 6.8 2.4
-3 -3 25 5.8 1.5
-3 -3 25 9.7 1.3
4 3 -25 0.2 2.5
4 3 -25 0 2.4
-4 -3 25 1.5 1.2
-4 -3 25 0.6 1.1
0 -4 25 26.9 3.2
0 4 -25 21.5 3
0 -4 25 28.2 2
0 4 -25 28.4 3.7
1 4 -25 5.7 2.4
1 -4 25 2.4 2
1 -4 25 4.3 1.2
1 4 -25 7.1 3
-1 -4 25 8.1 1.3
-1 4 -25 6.9 2.5
-1 4 -25 5.9 2.4
-1 -4 25 3.9 1.9
2 -4 25 39 2.3
2 -4 25 41.1 3.9
2 4 -25 32.8 3.9
2 4 -25 44.1 4.8
-2 -4 25 37.9 2.5
-2 4 -25 33.6 3.5
-2 4 -25 37 4
-2 -4 25 35.6 3.2
3 4 -25 0.8 2.7
3 -4 25 5.5 1.9
3 4 -25 4.7 2.3
-3 4 -25 3.8 2.2
-3 -4 25 3.7 1.2
-3 4 -25 3.3 2.2
-3 -4 25 3.2 1.4
4 4 -25 13.2 3.7
4 4 -25 13.9 2.9
-4 -4 25 11.6 2.1
-4 -4 25 13.3 1.9
0 5 -25 9.2 2.8
0 5 -25 10.2 2.5
0 -5 25 8.3 2.3
1 -5 25 1.8 2.1
1 -5 25 4 1.1
1 5 -25 5.3 2.4
1 5 -25 5.5 2.8
-1 5 -25 5.3 2.4
-1 5 -25 5.2 2.4
-1 -5 25 4.2 2
-1 -5 25 1.4 1.1
2 -5 25 43.1 2.4
2 5 -25 40.5 4.7
2 -5 25 39.8 4
2 5 -25 30.1 3.8
-2 -5 25 44.5 2.5
-2 -5 25 35.8 3.3
-2 5 -25 39.7 4
-2 5 -25 41.1 4.3
3 5 -25 7.1 2.8
3 5 -25 4.4 2.9
3 -5 25 9.1 2.6
-3 -5 25 7.4 1.6
-3 5 -25 7.1 2.5
-3 5 -25 3.9 2.2
-3 -5 25 4.9 1.9
0 -6 25 4.3 2
0 6 -25 5.3 2.7
0 6 -25 4.9 2.3
0 -6 25 4.2 1.3
1 -6 25 20.5 2.1
1 6 -25 19.4 3.1
1 -6 25 15.8 2.9
1 6 -25 20.4 3.9
-1 -6 25 19.1 3.2
-1 6 -25 18.6 3.2
-1 -6 25 22.9 2.1
-1 6 -25 14.4 2.9
2 6 -25 40.4 4.1
2 -6 25 29.2 3.8
2 -6 25 35.6 2.5
2 6 -25 40.4 4.8
-2 -6 25 32.7 3.5
-2 6 -25 32.8 4
-2 6 -25 37.4 3.9
-2 -6 25 43.5 2.6
0 -7 25 3.7 2
0 7 -25 -0.3 2.8
0 -7 25 2.4 1.3
0 7 -25 1.8 2.2
4 2 -26 13.7 4
4 2 -26 11.6 3.2
-4 -2 26 13.5 1.7
-4 -2 26 16.1 2.3
1 3 -26 23.2 3.7
1 3 -26 22.4 3.2
-1 -3 26 20.8 2.8
-1 -3 26 21.5 1.9
2 3 -26 44.4 4.7
2 3 -26 42.8 4.4
-2 -3 26 39.3 3.2
-2 -3 26 45 2.5
3 3 -26 29.9 4.1
3 3 -26 37.2 3.9
-3 -3 26 30.4 2.1
-3 -3 26 35.5 2.7
4 3 -26 3.3 3
4 3 -26 6.3 2.7
-4 -3 26 4 1.4
-4 -3 26 -0.5 1.3
0 4 -26 -0.2 2.2
0 4 -26 1.1 2.1
1 4 -26 21.5 3.8
1 -4 26 19.7 1.8
1 4 -26 15 2.9
1 -4 26 14.7 2.7
-1 -4 26 17.3 2.7
-1 4 -26 17.3 3.2
-1 -4 26 16 1.8
-1 4 -26 18.3 3.1
2 -4 26 20.3 3.3
2 -4 26 26 1.9
2 4 -26 23.4 3.8
2 4 -26 20.5 3.6
-2 -4 26 29 2.1
-2 4 -26 21.7 3.4
-2 -4 26 20 2.7
-2 4 -26 28 3.4
3 4 -26 14.4 3.6
3 4 -26 10.4 3
-3 -4 26 12.4 1.6
-3 -4 26 13.3 2.2
0 -5 26 47 3.5
0 5 -26 41.9 4.1
0 5 -26 29.3 4
0 -5 26 31.5 2.2
1 5 -26 16.6 3.1
1 5 -26 16.1 3.7
1 -5 26 15.1 1.7
1 -5 26 12.8 2.7
-1 5 -26 12.5 2.9
-1 -5 26 14.3 1.8
-1 -5 26 13.9 2.6
-1 5 -26 15.1 3.3
2 -5 26 14.4 1.7
2 5 -26 17.5 3.7
2 5 -26 11.7 3
2 -5 26 12.6 2.6
-2 5 -26 11.8 2.9
-2 -5 26 16.6 1.8
-2 -5 26 12.1 2.4
-2 5 -26 12.2 2.6
3 -5 26 15.4 2.9
3 5 -26 15.5 3.9
3 5 -26 13 4.2
-3 5 -26 12.6 3
-3 -5 26 17.6 2.4
-3 5 -26 11.5 2.7
-3 -5 26 16.5 3.6
0 6 -26 14.2 3.4
0 -6 26 28 2.1
0 -6 26 31.1 3.2
0 6 -26 18.1 3.1
1 -6 26 4.7 1.3
1 6 -26 3.9 2.6
1 -6 26 4.5 2.4
1 6 -26 2.5 2.9
-1 6 -26 2.2 2.3
-1 6 -26 1.2 2.5
-1 -6 26 5.4 1.4
-1 -6 26 3.9 2
2 -6 26 4.7 2.2
2 -6 26 -3.8 1.5
-2 6 -26 1.1 2.5
-2 6 -26 1.5 2.7
2 3 -27 28.3 3.8
2 3 -27 37.2 4.3
-2 -3 27 44.3 2.9
-2 -3 27 38.8 2.4
3 3 -27 34.3 4.1
3 3 -27 34.7 4.2
-3 -3 27 33.4 2.4
-3 -3 27 44.9 2.9
0 4 -27 2 2.6
0 4 -27 2.8 2.3
0 -4 27 3.6 1.8
0 -4 27 3.4 1
1 4 -27 8.7 3.1
1 4 -27 9.7 2.7
1 -4 27 16.1 2.7
1 -4 27 12.5 1.6
-1 4 -27 6.2 2.7
-1 -4 27 9.1 1.5
-1 -4 27 5.1 2.2
-1 4 -27 9.1 2.9
2 4 -27 24.5 3.8
2 4 -27 22.4 3.9
-2 -4 27 19 2.8
3 4 -27 24.6 3.8
3 4 -27 27.2 4.3
-3 -4 27 25.4 2.5
-3 -4 27 29.4 2.8
0 5 -27 -0.8 2.4
0 -5 27 1.1 1
0 5 -27 0.1 2.1
0 -5 27 0.8 1.5
1 -5 27 7.1 1.9
1 -5 27 5.5 1.2
1 5 -27 5.4 3.1
1 5 -27 4.4 2.6
-1 5 -27 3.9 2.4
-1 5 -27 4.3 2.5
-1 -5 27 6.3 1.4
-1 -5 27 0.9 2.1
2 5 -27 17.9 3.6
2 -5 27 18.9 2.2
2 5 -27 21.5 3.4
-2 5 -27 18.2 3.3
-2 -5 27 29 2.2
-2 -5 27 13.6 2.6
-2 5 -27 20.7 3.2
0 6 -27 9.7 3.9
0 -6 27 12.7 2.2
0 -4 28 48.2 6.5
0 -4 28 36.7 3
0 4 -28 31.4 5.1
1 4 -28 29 3.6
1 4 -28 28.4 4.2
-1 -4 28 41.1 3.2
-1 -4 28 32.8 2.3
2 4 -28 44.5 5
2 4 -28 54.49 4.7
-2 -4 28 50.39 3.7
-2 -4 28 53.79 2.7
0 5 -28 56.39 4.8
0 5 -28 64.09 5.7
0 -5 28 67.19 4.7
0 -5 28 66.99 3
1 5 -28 52.19 4.9
1 -5 28 53.89 4.5
1 -5 28 59.49 3.1
1 5 -28 61.29 6.1
-1 5 -28 57.99 4.8
-1 -5 28 62.09 4.5
-1 -5 28 62.29 3.1
-1 5 -28 61.69 5.3
loop_
_geom_angle_atom_site_label_1
_geom_angle_atom_site_label_2
_geom_angle_atom_site_label_3
_geom_angle
_geom_angle_site_symmetry_1
_geom_angle_site_symmetry_3
_geom_angle_publ_flag
H1A N1 H1B 107.7(7) . . ?
H1C N1 H1B 110.0(7) . . ?
H1C N1 H1A 111.6(7) . . ?
C2 N1 H1B 111.8(5) . . ?
C2 N1 H1A 108.5(5) . . ?
C2 N1 H1C 107.2(5) . . ?
C6 N3 H3 125.8(5) . . ?
C5 N3 H3 127.0(5) . . ?
C5 N3 C6 107.25(5) . . ?
C5 N2 C4 105.44(4) . . ?
C6 C4 N2 109.38(4) . . ?
C3 C4 N2 120.86(4) . . ?
C3 C4 C6 129.76(5) . . ?
O1 C1 O2 126.52(5) . . ?
C2 C1 O2 116.43(4) . . ?
C2 C1 O1 117.00(4) . . ?
C1 C2 N1 109.71(4) . . ?
H2 C2 N1 108.1(4) . . ?
H2 C2 C1 107.8(4) . . ?
C3 C2 N1 110.20(4) . . ?
C3 C2 C1 110.47(5) . . ?
C3 C2 H2 110.5(5) . . ?
C4 C6 N3 106.09(4) . . ?
H6 C6 N3 122.5(5) . . ?
H6 C6 C4 131.4(5) . . ?
N2 C5 N3 111.84(5) . . ?
H5 C5 N3 122.7(4) . . ?
H5 C5 N2 125.5(4) . . ?
C2 C3 C4 112.34(5) . . ?
H3B C3 C4 109.6(4) . . ?
H3B C3 C2 107.7(4) . . ?
H3A C3 C4 110.9(4) . . ?
H3A C3 C2 109.4(4) . . ?
H3A C3 H3B 106.6(6) . . ?
loop_
_geom_bond_atom_site_label_1
_geom_bond_atom_site_label_2
_geom_bond_distance
_geom_bond_site_symmetry_2
_geom_bond_publ_flag
O2 C1 1.2562(5) . ?
O1 C1 1.2535(6) . ?
N1 H1B 0.997(8) . ?
N1 H1A 1.018(8) . ?
N1 H1C 1.012(9) . ?
N1 C2 1.4910(6) . ?
N3 H3 1.013(9) . ?
N3 C6 1.3784(7) . ?
N3 C5 1.3513(7) . ?
N2 C4 1.3890(6) . ?
N2 C5 1.3253(7) . ?
C4 C6 1.3739(7) . ?
C4 C3 1.5005(7) . ?
C1 C2 1.5396(7) . ?
C2 H2 1.080(8) . ?
C2 C3 1.5389(8) . ?
C6 H6 1.069(7) . ?
C5 H5 1.061(7) . ?
C3 H3B 1.051(8) . ?
C3 H3A 1.088(8) . ?
loop_
_geom_torsion_atom_site_label_1
_geom_torsion_atom_site_label_2
_geom_torsion_atom_site_label_3
_geom_torsion_atom_site_label_4
_geom_torsion
_geom_torsion_site_symmetry_1
_geom_torsion_site_symmetry_2
_geom_torsion_site_symmetry_3
_geom_torsion_site_symmetry_4
_geom_torsion_publ_flag
C5 N2 C4 C3 -179.64(5) . . . . ?
C6 N3 C5 N2 0.65(7) . . . . ?
O1 C1 C2 C3 94.78(6) . . . . ?
N1 C2 C3 C4 -58.22(6) . . . . ?
C2 C3 C4 C6 -123.88(6) . . . . ?
H1A N1 C2 C1 162.6(5) . . . . ?
H1B N1 C2 C1 43.9(5) . . . . ?
H1C N1 C2 C1 -76.7(6) . . . . ?
C4 N2 C5 H5 178.7(6) . . . . ?
H3 N3 C5 H5 0.1(8) . . . . ?
H3 N3 C6 H6 2.4(8) . . . . ?
C5 N2 C4 C6 0.25(6) . . . . ?
C5 N3 C6 C4 -0.46(6) . . . . ?
O2 C1 C2 N1 155.42(5) . . . . ?
C1 C2 C3 C4 -179.63(4) . . . . ?
N2 C4 C6 N3 0.13(6) . . . . ?
H1A N1 C2 C3 40.8(5) . . . . ?
H1B N1 C2 C3 -77.9(5) . . . . ?
H1C N1 C2 C3 161.4(6) . . . . ?
C6 N3 C5 H5 -178.7(5) . . . . ?
C5 N3 C6 H6 -178.8(5) . . . . ?
O1 C1 C2 H2 -144.4(4) . . . . ?
C4 N2 C5 N3 -0.56(6) . . . . ?
O1 C1 C2 N1 -26.91(7) . . . . ?
O2 C1 C2 C3 -82.89(6) . . . . ?
C2 C3 C4 N2 55.98(6) . . . . ?
C3 C4 C6 N3 -180.00(7) . . . . ?
H1A N1 C2 H2 -80.0(7) . . . . ?
H1B N1 C2 H2 161.2(7) . . . . ?
H1C N1 C2 H2 40.6(7) . . . . ?
H3 N3 C5 N2 179.4(6) . . . . ?
H3 N3 C6 C4 -179.3(6) . . . . ?
O2 C1 C2 H2 37.9(4) . . . . ?
N1 C2 C3 H3A 65.4(5) . . . . ?
C1 C2 C3 H3B 59.5(4) . . . . ?
H2 C2 C3 H3B -59.7(6) . . . . ?
H3B C3 C4 N2 175.7(5) . . . . ?
C3 C4 C6 H6 -1.8(6) . . . . ?
N1 C2 C3 H3B -179.1(4) . . . . ?
H2 C2 C3 C4 61.2(4) . . . . ?
H3A C3 C4 N2 -66.8(5) . . . . ?
H3B C3 C4 C6 -4.1(5) . . . . ?
C1 C2 C3 H3A -56.0(5) . . . . ?
H2 C2 C3 H3A -175.2(6) . . . . ?
H3A C3 C4 C6 113.4(5) . . . . ?
N2 C4 C6 H6 178.3(6) . . . . ?
loop_
_restr_rigu_atom_site_label_1
_restr_rigu_atom_site_label_2
_restr_rigu_target_weight_param
_restr_rigu_u13_diff
_restr_rigu_u23_diff
_restr_rigu_u33_diff
N1 H1B 0.004000 0.001924 0.000476 -0.002017
N1 H1A 0.004000 0.003887 0.002213 -0.003012
N1 H1C 0.004000 -0.001611 -0.001577 0.000595
H1B H1A 0.004000 -0.001164 0.008362 -0.000570
H1B H1C 0.004000 0.009190 -0.020948 0.005399
H1A H1C 0.004000 0.011667 0.003451 0.001344
N3 H3 0.004000 0.002331 -0.002724 0.000509
N3 N2 0.004000 0.001994 0.000122 -0.000409
N3 C4 0.004000 -0.001818 0.000983 0.000077
N3 C6 0.004000 -0.002242 0.001117 0.000468
N3 H6 0.004000 -0.007981 0.005004 -0.008179
N3 C5 0.004000 0.002416 -0.001574 -0.000882
N3 H5 0.004000 0.004431 -0.005679 -0.005632
H3 C6 0.004000 -0.004036 0.012879 0.000973
H3 C5 0.004000 0.006506 -0.006981 0.002086
N2 C4 0.004000 -0.000819 -0.001084 0.000044
N2 C6 0.004000 0.000652 0.000951 -0.000086
N2 C5 0.004000 0.001554 0.000151 0.000047
N2 H5 0.004000 0.006130 0.000446 -0.010220
C4 C6 0.004000 -0.000982 -0.000389 0.000406
C4 H6 0.004000 -0.004755 -0.002452 -0.006719
C4 C5 0.004000 -0.001061 0.000841 -0.000387
C2 H2 0.004000 0.003250 -0.004500 -0.006038
C2 C3 0.004000 -0.001635 -0.000889 0.000185
C2 H3B 0.004000 -0.006697 0.003586 -0.009243
C2 H3A 0.004000 -0.000828 0.002863 -0.009919
H2 C3 0.004000 -0.001135 -0.013790 0.006398
C6 H6 0.004000 0.000907 0.000774 -0.005176
C6 C5 0.004000 -0.002248 -0.002522 -0.000402
C5 H5 0.004000 0.002822 -0.000698 -0.006013
C3 H3B 0.004000 -0.006052 -0.001370 -0.007114
C3 H3A 0.004000 -0.000857 -0.001189 -0.003167
H3B H3A 0.004000 -0.019554 0.004656 0.006789

_cod_database_fobs_code 2108886
