#------------------------------------------------------------------------------
#$Date: 2022-01-01 06:19:30 +0200 (Sat, 01 Jan 2022) $
#$Revision: 271667 $
#$URL: file:///home/coder/svn-repositories/cod/cif/2/10/89/2108919.cif $
#------------------------------------------------------------------------------
#
# This file is available in the Crystallography Open Database (COD),
# http://www.crystallography.net/. The original data for this entry
# were provided by IUCr Journals, http://journals.iucr.org/.
#
# The file may be used within the scientific community so long as
# proper attribution is given to the journal article from which the
# data were obtained.
#
data_2108919
loop_
_publ_author_name
'Rejnhardt, Piotr'
'Drozd, Marek'
'Daszkiewicz, Marek'
_publ_section_title
;
 Low-temperature phase transition and high-pressure phase stability of
 1<i>H</i>-pyrazole-1-carboxamidine nitrate
;
_journal_issue                   6
_journal_name_full               'Acta Crystallographica Section B'
_journal_page_first              996
_journal_page_last               1002
_journal_paper_doi               10.1107/S2052520621010970
_journal_volume                  77
_journal_year                    2021
_chemical_formula_moiety         'C4 H7 N4, N O3'
_chemical_formula_sum            'C4 H7 N5 O3'
_chemical_formula_weight         173.15
_space_group_crystal_system      monoclinic
_space_group_IT_number           14
_space_group_name_Hall           '-P 2ybc'
_space_group_name_H-M_alt        'P 1 21/c 1'
_atom_sites_solution_hydrogens   geom
_atom_sites_solution_primary     direct
_audit_creation_date             2021-07-16
_audit_creation_method
;
Olex2 1.2
(compiled 2018.05.29 svn.r3508 for OlexSys, GUI svn.r5506)
;
_cell_angle_alpha                90
_cell_angle_beta                 97.94(9)
_cell_angle_gamma                90
_cell_formula_units_Z            4
_cell_length_a                   5.036(2)
_cell_length_b                   10.162(2)
_cell_length_c                   13.54(2)
_cell_measurement_reflns_used    414
_cell_measurement_temperature    293(2)
_cell_measurement_theta_max      20.5710
_cell_measurement_theta_min      3.9970
_cell_volume                     686.3(11)
_computing_cell_refinement       'CrysAlisPro 1.171.39.46 (Rigaku OD, 2018)'
_computing_data_collection       'CrysAlisPro 1.171.39.46 (Rigaku OD, 2018)'
_computing_data_reduction        'CrysAlisPro 1.171.39.46 (Rigaku OD, 2018)'
_computing_molecular_graphics    'Olex2 (Dolomanov et al., 2009)'
_computing_publication_material  'Olex2 (Dolomanov et al., 2009)'
_computing_structure_refinement  'ShelXL (Sheldrick, 2015)'
_computing_structure_solution    'ShelXS (Sheldrick, 2008)'
_diffrn_ambient_temperature      293(2)
_diffrn_detector                 'CCD plate'
_diffrn_detector_area_resol_mean 8.2214
_diffrn_detector_type            'Sapphire2, large Be window'
_diffrn_measured_fraction_theta_full 0.349
_diffrn_measured_fraction_theta_max 0.349
_diffrn_measurement_details
;
List of Runs (angles in degrees, time in seconds):

  # Type    Start    End  Width  t~exp~   \w     \q     \k     \f   Frames
--------------------------------------------------------------------------
  1  \w    -20.00  31.60   0.60   30.00    --   25.00   0.00   0.00   86
  2  \w    -20.00  35.80   0.60   30.00    --   25.00   0.00 180.00   93
  3  \w     -3.00  46.80   0.60   30.00    --   25.00 -40.00-170.00   83
  4  \w     -3.00  46.80   0.60   30.00    --   25.00 -40.00  10.00   83
  5  \w      8.00  65.00   0.60   30.00    --   25.00 -82.00  30.00   95
  6  \w      8.00  65.00   0.60   30.00    --   25.00 -82.00-150.00   95
  7  \w     32.50  88.90   0.60   30.00    --   25.00-135.00-122.00   94
  8  \w     32.00  89.00   0.60   30.00    --   25.00-135.00  58.00   95
  9  \w     25.00  46.60   0.60   30.00    --  -25.00-135.00  58.00   36
 10  \w     25.00  46.60   0.60   30.00    --  -25.00-135.00-122.00   36
 11  \w      0.00  22.80   0.60   30.00    --  -25.00 -82.00-150.00   38
 12  \w      0.00  22.80   0.60   30.00    --  -25.00 -82.00  30.00   38
 13  \w    -19.00  17.00   0.60   30.00    --  -25.00 -40.00  10.00   60
 14  \w    -19.00  17.00   0.60   30.00    --  -25.00 -40.00-170.00   60
 15  \w    -33.00  21.60   0.60   30.00    --  -25.00   0.00 180.00   91
 16  \w    -33.00  21.60   0.60   30.00    --  -25.00   0.00   0.00   91
;
_diffrn_measurement_device       'four-circle diffractometer'
_diffrn_measurement_device_type  'Xcalibur, Sapphire2, large Be window'
_diffrn_measurement_method       '\w scans'
_diffrn_orient_matrix_type
'CrysAlisPro convention (1999,Acta A55,543-557)'
_diffrn_orient_matrix_UB_11      -0.0570732000
_diffrn_orient_matrix_UB_12      -0.0146282000
_diffrn_orient_matrix_UB_13      0.0436332000
_diffrn_orient_matrix_UB_21      -0.1302127000
_diffrn_orient_matrix_UB_22      0.0040000000
_diffrn_orient_matrix_UB_23      -0.0277495000
_diffrn_orient_matrix_UB_31      0.0046915000
_diffrn_orient_matrix_UB_32      -0.0682149000
_diffrn_orient_matrix_UB_33      -0.0109924000
_diffrn_radiation_monochromator  graphite
_diffrn_radiation_probe          x-ray
_diffrn_radiation_type           MoK\a
_diffrn_radiation_wavelength     0.71073
_diffrn_reflns_av_R_equivalents  0.0745
_diffrn_reflns_av_unetI/netI     0.0511
_diffrn_reflns_Laue_measured_fraction_full 0.349
_diffrn_reflns_Laue_measured_fraction_max 0.349
_diffrn_reflns_limit_h_max       5
_diffrn_reflns_limit_h_min       -5
_diffrn_reflns_limit_k_max       12
_diffrn_reflns_limit_k_min       -11
_diffrn_reflns_limit_l_max       8
_diffrn_reflns_limit_l_min       -8
_diffrn_reflns_number            3600
_diffrn_reflns_point_group_measured_fraction_full 0.349
_diffrn_reflns_point_group_measured_fraction_max 0.349
_diffrn_reflns_theta_full        25.042
_diffrn_reflns_theta_max         25.042
_diffrn_reflns_theta_min         4.011
_diffrn_source                   'fine-focus sealed X-ray tube'
_diffrn_source_type              'Enhance (Mo) X-ray Source'
_exptl_absorpt_coefficient_mu    0.143
_exptl_absorpt_correction_T_max  1.00000
_exptl_absorpt_correction_T_min  0.17652
_exptl_absorpt_correction_type   multi-scan
_exptl_absorpt_process_details
;
CrysAlisPro 1.171.39.46 (Rigaku Oxford Diffraction, 2018)
Empirical absorption correction using spherical harmonics,
 implemented in SCALE3 ABSPACK scaling algorithm.
;
_exptl_crystal_colour            colourless
_exptl_crystal_density_diffrn    1.676
_exptl_crystal_description       prism
_exptl_crystal_F_000             360
_refine_diff_density_max         0.152
_refine_diff_density_min         -0.149
_refine_diff_density_rms         0.037
_refine_ls_extinction_coef       0.036(18)
_refine_ls_extinction_expression Fc^*^=kFc[1+0.001xFc^2^\l^3^/sin(2\q)]^-1/4^
_refine_ls_extinction_method     'SHELXL-2018/3 (Sheldrick 2018)'
_refine_ls_goodness_of_fit_ref   1.063
_refine_ls_hydrogen_treatment    constr
_refine_ls_matrix_type           full
_refine_ls_number_parameters     110
_refine_ls_number_reflns         421
_refine_ls_number_restraints     0
_refine_ls_restrained_S_all      1.063
_refine_ls_R_factor_all          0.0912
_refine_ls_R_factor_gt           0.0502
_refine_ls_shift/su_max          0.000
_refine_ls_shift/su_mean         0.000
_refine_ls_structure_factor_coef Fsqd
_refine_ls_weighting_details
'w=1/[\s^2^(Fo^2^)+(0.0809P)^2^+0.5673P] where P=(Fo^2^+2Fc^2^)/3'
_refine_ls_weighting_scheme      calc
_refine_ls_wR_factor_gt          0.1221
_refine_ls_wR_factor_ref         0.1498
_reflns_Friedel_coverage         0.000
_reflns_number_gt                271
_reflns_number_total             421
_reflns_threshold_expression     'I > 2\s(I)'
_cod_data_source_file            xk5086sup1.cif
_cod_data_source_block           0.89GPa
_cod_original_cell_volume        686.1(12)
_cod_database_code               2108919
_shelx_shelxl_version_number     2018/3
_chemical_oxdiff_formula         C4N4NO3H7
_shelx_space_group_comment
;
The symmetry employed for this shelxl refinement is uniquely defined
by the following loop, which should always be used as a source of
symmetry information in preference to the above space-group names.
They are only intended as comments.
;
_reflns_odcompleteness_completeness 34.50
_reflns_odcompleteness_iscentric 1
_reflns_odcompleteness_theta     24.99
_olex2_refinement_description
;
1. Fixed Uiso
 At 1.2 times of:
  All C(H) groups, All N(H,H) groups
2.a Aromatic/amide H refined with riding coordinates:
 C1(H1), C2(H2), C3(H3)
2.b X=CH2 refined with riding coordinates:
 N3(H3A,H3B), N4(H4A,H4B)
;
_shelx_res_file
;
TITL instrument in P21/c #14
    instrument.res
    created by SHELXL-2018/3 at 10:41:30 on 16-Jul-2021
REM reset to P21/c #14
CELL 0.71073 5.035944 10.161713 13.536623 90 97.9434 90
ZERR 4 0.002141 0.002196 0.02172 0 0.091 0
LATT 1
SYMM -X,0.5+Y,0.5-Z
SFAC C H N O
UNIT 16 28 20 12

L.S. 99
PLAN  20
BOND
fmap 2 53
ACTA
OMIT 4 7 0
OMIT 3 7 5
OMIT 3 3 7
OMIT 5 2 3
OMIT 5 3 3
OMIT 4 7 4
REM <olex2.extras>
REM <HklSrc "%.\\instrument.hkl">
REM </olex2.extras>

WGHT    0.080900    0.567300
EXTI    0.036429
FVAR       2.32500
C1    1    0.105007    0.791660    0.537140    11.00000    0.06205    0.04414 =
         0.11288    0.00741   -0.02215    0.00216
AFIX  43
H1    2   -0.042516    0.831590    0.500110    11.00000   -1.20000
AFIX   0
C2    1    0.321837    0.861593    0.588540    11.00000    0.05166    0.04256 =
         0.06550   -0.00572    0.00761   -0.00481
AFIX  43
H2    2    0.342760    0.952466    0.592276    11.00000   -1.20000
AFIX   0
C3    1    0.492663    0.770000    0.631171    11.00000    0.06267    0.04018 =
         0.12263   -0.00749   -0.03161   -0.00801
AFIX  43
H3    2    0.655498    0.784792    0.671118    11.00000   -1.20000
AFIX   0
C4    1    0.476750    0.524180    0.630292    11.00000    0.05222    0.03368 =
         0.12849    0.01288   -0.02645   -0.01327
N1    3    0.379135    0.649932    0.604060    11.00000    0.05826    0.03195 =
         0.17317   -0.00217   -0.05060    0.00055
N2    3    0.133518    0.663086    0.547140    11.00000    0.05620    0.03898 =
         0.13512   -0.00144   -0.03949    0.00399
N3    3    0.337655    0.424964    0.589957    11.00000    0.07167    0.03252 =
         0.15734    0.00076   -0.05407    0.00272
AFIX  93
H3A   2    0.399087    0.346228    0.598627    11.00000   -1.20000
H3B   2    0.184465    0.438250    0.554679    11.00000   -1.20000
AFIX   0
N4    3    0.708628    0.511218    0.684224    11.00000    0.05838    0.05423 =
         0.09101    0.00522   -0.03033    0.00088
AFIX  93
H4A   2    0.777881    0.434291    0.694881    11.00000   -1.20000
H4B   2    0.793305    0.579540    0.709370    11.00000   -1.20000
AFIX   0
N5    3    0.244504    0.647022    0.826996    11.00000    0.04920    0.04376 =
         0.14160   -0.00889   -0.02574    0.00302
O1    4    0.486529    0.673582    0.855958    11.00000    0.04415    0.04368 =
         0.12607   -0.00081   -0.01917   -0.00445
O2    4    0.165023    0.532682    0.825892    11.00000    0.05641    0.04234 =
         0.14904   -0.00327   -0.01310   -0.01329
O3    4    0.085691    0.737595    0.793206    11.00000    0.06047    0.05469 =
         0.12819    0.01853   -0.02634    0.00644
HKLF 4




REM  instrument in P21/c #14
REM wR2 = 0.1498, GooF = S = 1.063, Restrained GooF = 1.063 for all data
REM R1 = 0.0502 for 271 Fo > 4sig(Fo) and 0.0912 for all 421 data
REM 110 parameters refined using 0 restraints

END

WGHT      0.0804      0.5727

REM Highest difference peak  0.152,  deepest hole -0.149,  1-sigma level  0.037
Q1    1   0.3582  0.7666  0.8769  11.00000  0.05    0.15
Q2    1   0.3088  0.7765  0.9006  11.00000  0.05    0.15
Q3    1   0.6672  0.7430  0.7419  11.00000  0.05    0.13
Q4    1   0.6903  0.7504  0.7145  11.00000  0.05    0.13
Q5    1  -0.0091  0.7246  0.6744  11.00000  0.05    0.12
Q6    1  -0.0629  0.8437  0.4566  11.00000  0.05    0.11
Q7    1   0.2809  0.4605  0.7818  11.00000  0.05    0.11
Q8    1   0.2285  0.6465  0.6012  11.00000  0.05    0.10
Q9    1   0.4197  1.0589  0.5775  11.00000  0.05    0.10
Q10   1   0.2648  0.5170  0.9209  11.00000  0.05    0.10
Q11   1   0.1772  0.8040  0.6414  11.00000  0.05    0.10
Q12   1   0.2518  0.9712  0.5536  11.00000  0.05    0.09
Q13   1   1.0333  0.5967  0.6977  11.00000  0.05    0.09
Q14   1  -0.0950  0.3805  0.5803  11.00000  0.05    0.09
Q15   1   0.4618  0.2773  0.5396  11.00000  0.05    0.09
Q16   1   0.0626  0.6334  0.4441  11.00000  0.05    0.09
Q17   1   0.4802  0.9580  0.6391  11.00000  0.05    0.09
Q18   1   0.1280  0.8157  0.6806  11.00000  0.05    0.09
Q19   1   0.3567  0.7120  0.6613  11.00000  0.05    0.09
Q20   1   0.4736  1.0441  0.5404  11.00000  0.05    0.09
;
_shelx_res_checksum              86972
_shelx_hkl_file
;
   0  -2   0 2965.88 89.1495   5
   0   2   0 3058.85 95.2080  12
   0  -2   0 2977.10 98.6462   8
   0   2   0 3021.28 101.012   9
   0  -2   0 2996.93 100.584   7
   0  -2   0 3142.20 100.721   6
   0  -2   0 3035.53 80.5760   3
   0  -2  -1 11390.8 194.060   8
   0  -2  -1 11156.9 185.686   5
   0   2   1 11388.7 174.243  11
   0   2   1 11397.2 131.907  14
   0  -2  -1 11285.1 178.844   6
   0  -2  -1 11274.3 151.062   4
   0  -2  -1 11212.1 125.763   3
   0  -2  -1 11313.7 198.954   7
   0  -2  -2 1822.83 85.0358   8
   0  -2  -2 1765.28 86.9862   7
   0  -2  -2 1835.88 85.9274   5
   0   2   2 1947.80 91.6582  10
   0  -3   0-6.91600 12.2952   5
   0  -3   0 9.71914 16.3695   7
   0   3   0-1.75308 11.6377  12
   0  -3   0-19.6907 17.3241   8
   0  -3   0-9.18677 12.7430   6
   0   3   0 15.3484 16.5701   9
   0  -3   1 3563.01 233.939   6
   0  -3  -1 3836.30 142.210   7
   0  -3  -1 4007.81 134.541   6
   0  -3  -1 3992.61 96.8489   3
   0  -3  -1 3944.76 140.081   8
   0  -3  -1 3936.15 132.112   5
   0   3   1 3929.05 104.518  13
   0  -3  -1 3932.71 103.561   4
   0   3   1 3871.59 93.4523  14
   0  -3   1 4116.85 186.381   7
   0  -3   1 4021.74 174.341   8
   0  -3  -2 1311.39 69.6023   4
   0  -3  -2 1327.61 84.3434   8
   0  -3  -2 1253.81 52.2915   3
   0   3   2 1199.61 83.5503  10
   0  -3  -2 1286.84 75.9162   6
   0  -3  -2 1247.46 80.4771   5
   0  -3  -2 1179.94 83.1940   7
   0   3   2 1354.16 43.8725   1
   0  -3  -2 1216.10 41.1884   2
   0   3   2 1298.29 74.0221  11
   0  -3  -3 9774.29 221.347   6
   0  -3  -3 9976.13 246.482   8
   0  -3  -3 9669.63 245.860   5
   0  -3  -3 9686.64 251.020   7
   0   3   3 9814.85 257.443  10
   0  -4   0 987.372 57.1369   4
   0  -4   0 961.898 81.3839   8
   0  -4   0 937.896 82.8354   7
   0  -4   0 969.620 74.6324   5
   0   4   0 937.820 82.1211   9
   0   4   0 1025.94 80.7013  12
   0  -4   0 1022.13 85.1754   6
   0  -4   1 1170.26 109.020   7
   0  -4  -1 1034.02 79.4387   5
   0   4   1 1014.65 79.9191  12
   0  -4   1 932.177 125.520   6
   0  -4  -1 1028.56 86.9737   7
   0  -4  -1 986.589 84.0769   8
   0  -4  -1 1071.33 85.2361   6
   0  -4   1 1047.18 98.4904   8
   0   4   1 1016.32 58.2569  14
   0  -4  -1 971.884 57.2283   3
   0  -4  -1 964.417 59.8421   4
   0   4  -1 1173.06 106.953   9
   0  -4   1 1070.94 103.799   5
   0   4   1 1042.54 62.6426  13
   0   4   1 901.072 81.0312   9
   0   4   2 7224.59 200.976  11
   0   4   2 6893.60 223.619  10
   0  -4  -2 7109.86 227.948   7
   0  -4  -2 6897.37 219.252   8
   0  -4  -2 6924.92 204.009   6
   0   4   2 7085.49 172.836  13
   0  -4  -2 6917.02 139.582   3
   0  -4  -2 7054.74 212.451   5
   0  -4  -2 7050.24 174.797   4
   0   4   3 1574.52 60.9910  16
   0  -4  -3 1690.02 71.6719   3
   0  -4  -3 1634.27 60.9894  15
   0  -4  -3 1655.96 101.679   6
   0  -4  -3 1656.63 111.091   5
   0  -4  -3 1587.32 112.442   7
   0   4   3 1762.03 120.570  10
   0  -4  -3 1673.05 112.064   8
   0  -4  -4 465.110 70.1451   7
   0  -4  -4 376.756 62.2472   8
   0  -4  -4 374.227 62.4433   5
   0  -4  -4 442.185 58.9992   6
   0   5   0 30.5260 29.5082  12
   0  -5   0 60.9025 33.5292   5
   0  -5   0 14.4104 31.2548   7
   0  -5   0 37.0852 36.9537   6
   0  -5   0 42.7277 26.0648   4
   0   5   0 48.7549 34.5517   9
   0  -5   0 57.0576 37.9232   8
   0  -5  -1 1354.36 82.4956   3
   0  -5   1 1223.33 185.746   6
   0   5   1 1496.64 117.650   9
   0  -5   1 1649.22 145.150   7
   0   5   1 1638.66 113.242  12
   0  -5  -1 1508.38 112.726   6
   0   5  -1 1839.52 148.862   9
   0  -5   1 1813.11 140.101   5
   0  -5  -1 1502.90 116.988   8
   0  -5  -1 1579.39 122.677   7
   0  -5   1 1653.29 140.051   8
   0  -5  -1 1633.65 111.941   5
   0   5   1 1493.85 79.6608  14
   0  -5  -1 1579.95 82.7011   4
   0   5   1 1556.76 105.531  13
   0  -5  -2 671.019 74.8229   5
   0   5   2 681.483 60.4251  13
   0  -5  -2 711.123 85.4277   7
   0  -5  -2 682.956 62.2724   4
   0  -5  -2 662.969 52.4003   3
   0  -5  -2 717.517 83.8144   8
   0   5   2 608.379 79.5212  10
   0   5   2 630.760 70.8350  11
   0   5   2 629.280 75.9373  12
   0  -5  -2 670.472 77.4034   6
   0  -5  -3 131.971 25.9924   3
   0  -5  -3 133.974 36.2145   4
   0  -5  -3 140.618 44.6060   5
   0   5   3 52.5710 26.9997  13
   0  -5  -3 110.506 35.9822   6
   0  -5  -3 103.557 38.0831   8
   0   5   3 157.716 41.3322  11
   0  -5  -3 126.618 43.9509   7
   0   5   3 100.514 45.1307  10
   0  -5  -4 2274.81 137.737   6
   0  -5  -4 2235.46 149.672   8
   0  -5  -4 2332.59 158.808   7
   0  -5  -4 2288.88 96.8067   3
   0  -5  -4 2414.73 159.251   5
   0  -5  -4 2225.70 82.0925  15
   0   5   4 2336.13 161.526  10
   0   5   4 2277.23 86.3180  16
   0   6   0 5247.69 182.633  14
   0  -6   0 5137.77 212.079   5
   0  -6   0 5812.60 260.741   6
   0  -6   0 5112.16 156.327   4
   0  -6   0 5085.95 239.636   7
   0   6   0 5169.39 237.620   9
   0  -6   0 5222.54 237.679   8
   0  -6  -1 520.801 55.1379   4
   0   6   1 582.331 78.3243  12
   0   6   1 488.583 52.3552  14
   0  -6  -1 618.039 89.6590   7
   0  -6   1 539.155 103.909   7
   0  -6  -1 574.178 77.7039   5
   0  -6  -1 564.209 78.3077   6
   0  -6  -1 561.694 83.4206   8
   0   6   1 575.869 85.0952   9
   0  -6   1 504.796 84.7576   5
   0  -6   1 497.054 96.4986   8
   0  -6  -2 21.9872 31.7031   4
   0   6   2 113.339 42.1711  11
   0   6   2 117.418 50.0210   9
   0  -6  -2 47.4024 39.8200   7
   0   6   2 26.6160 30.7583  12
   0  -6  -2 85.2499 43.0136   5
   0   6   2 96.7012 34.4311  13
   0  -6  -2 71.4857 25.1663   3
   0  -6  -2 51.5764 38.6137   6
   0  -6  -2 65.0376 44.0871   8
   0   6   2 112.092 48.5596  10
   0  -6  -3 637.244 55.7814   3
   0   6   3 628.139 78.2383  11
   0  -6  -3 674.298 91.3738   5
   0  -6  -3 714.846 95.0162   8
   0  -6  -3 645.324 85.0750   6
   0   6   3 627.906 88.7349  12
   0   6   3 688.779 72.1489  13
   0   6   3 628.873 90.7225  10
   0  -6  -3 617.245 69.0517   4
   0  -6  -3 656.125 93.9062   7
   0  -6  -4 1059.18 117.019   5
   0  -6  -4 952.785 99.7322   6
   0  -6  -4 1004.52 115.315   7
   0   6   4 1029.18 94.6599  13
   0   6   4 853.443 108.954  10
   0  -6  -4 947.534 110.412   8
   0  -6  -4 877.115 61.8156   3
   0   6   5 317.736 74.7116  10
   0  -6  -5 295.020 74.1283   7
   0  -6  -5 252.865 33.7119  15
   0  -6  -5 244.256 66.0638   5
   0  -6  -5 318.924 70.1549   8
   0  -6  -5 237.430 36.2936   3
   0  -6  -5 336.090 67.6641   6
   0  -7   0-36.2201 34.5536   4
   0   7   0 34.8328 41.0587   9
   0  -7   0 101.727 58.2836   7
   0   7   0 34.1621 36.6698  14
   0  -7   0 50.6610 52.5260   8
   0  -7   0-0.59575 38.7666   5
   0  -7   0 13.0591 49.8407   6
   0   7   1 448.945 82.8661  11
   0   7   1 308.159 72.5050   9
   0  -7  -1 312.626 49.5176   4
   0   7   1 323.025 50.9620  14
   0   7   1 321.561 68.9719  12
   0  -7  -1 378.046 70.6367   5
   0  -7   1 337.767 109.999   8
   0  -7  -1 317.642 77.0760   8
   0  -7   1 161.666 76.7618   5
   0  -7  -1 395.909 78.9278   6
   0  -7  -1 367.495 77.5036   7
   0  -7  -2 120.675 57.6519   7
   0   7   2 23.6307 43.6917   9
   0  -7  -2 104.718 52.2775   6
   0   7   2 50.2758 45.3828  11
   0   7   2-6.81046 36.0841  12
   0  -7  -2-26.2431 44.1813   8
   0  -7  -2 27.5095 31.9408   4
   0   7   2 59.9699 50.5599  10
   0  -7  -2 3.66752 39.3101   5
   0  -7  -3-49.8814 49.5287   5
   0  -7  -3 2.44053 43.9507   7
   0  -7  -3 66.4420 51.4658   8
   0   7   3 29.8027 41.3542   9
   0   7   3 20.9284 33.1040  13
   0  -7  -3 37.1142 42.0019   6
   0   7   3-20.3979 46.5302  10
   0   7   3-27.4758 36.7022  12
   0   7   3 38.3979 38.6054  11
   0  -7  -4 526.214 91.9797   8
   0   7   4 599.710 79.9068  13
   0  -7  -4 608.284 99.3946   5
   0   7   4 541.250 92.6269  12
   0  -7  -4 499.164 96.2166   7
   0   7   4 492.412 96.4976  10
   0  -7  -4 536.492 87.5294   6
   0  -7  -5 139.844 64.6297   8
   0   7   5 171.498 54.5860  13
   0  -7  -5 133.695 59.9200   7
   0   7   5 77.2221 54.3882  10
   0  -7  -5 238.937 73.7665   5
   0  -7  -5 85.1585 49.9591   6
   0   8   0 128.434 60.8985   9
   0  -8   0 132.875 65.3082   5
   0  -8   0 158.553 75.1732   8
   0  -8   0 101.337 71.7068   7
   0   8   0 96.0521 57.6619  14
   0  -8  -1 3720.79 249.699   7
   0   8   1 3966.82 237.711  11
   0  -8  -1 3656.40 162.678   4
   0  -8  -1 3586.62 216.888   5
   0   8   1 3573.03 242.147   9
   0  -8  -1 3736.47 244.588   8
   0  -8  -1 4115.90 259.337   6
   0  -8  -2 560.268 104.954   7
   0  -8  -2 561.405 94.9179   6
   0   8   2 518.326 99.8621   9
   0   8   2 508.670 91.7584  12
   0   8   2 706.512 116.713  10
   0  -8  -2 620.949 97.6789   5
   0   8   2 691.275 103.554  11
   0  -8  -2 581.100 77.8667   4
   0  -8  -2 577.984 105.250   8
   0   8   3 1721.53 168.398   9
   0   8   3 1808.38 178.021  10
   0  -8  -3 1694.99 156.482   5
   0  -8  -3 1945.61 171.874   6
   0  -8  -3 1766.67 174.410   8
   0   8   3 1848.93 167.647  12
   0  -8  -3 1804.74 180.447   7
   0   8   3 1803.83 152.015  11
   0  -8  -4 41.8426 58.9062   8
   0   8   4 67.4584 57.0203  12
   0  -8  -4 162.818 72.4817   6
   0   8   4 48.6200 54.0417   9
   0   8   4 32.2713 56.3634  10
   0  -8  -4 66.6393 62.4335   5
   0  -8  -4 97.2023 71.2633   7
   0   8   5 626.059 119.386  10
   0  -8  -5 543.836 111.645   7
   0   8   5 586.568 111.626  12
   0  -8  -5 710.695 119.621   5
   0  -8  -5 550.416 106.542   8
   0   8   5 473.433 88.4254  13
   0  -8  -5 541.513 97.4690   6
   0  -8  -6-23.6682 51.7486   7
   0  -9   0-39.7702 77.2375   7
   0  -9   0 55.9121 92.0797   5
   0  -9   0 54.6869 89.6373   8
   0  -9  -1 385.757 103.692   8
   0   9   1 385.125 102.535   9
   0  -9  -1 384.078 109.671   7
   0  -9  -1 286.039 84.7701   5
   0   9   1 305.100 91.7068  11
   0  -9  -1 137.710 93.0027   6
   0   9   2 631.049 114.123  11
   0  -9  -2 713.114 129.955   7
   0   9   2 510.813 108.318  10
   0  -9  -2 517.028 96.7566   5
   0   9   2 638.641 114.049  12
   0  -9  -2 522.723 106.567   6
   0  -9  -2 491.698 105.162   8
   0   9   2 511.982 109.715   9
   0   9   3 523.189 102.176  11
   0  -9  -3 446.029 106.456   7
   0  -9  -3 451.669 96.9855   5
   0   9   3 384.698 90.3054  12
   0   9   3 424.617 106.969  10
   0  -9  -3 409.805 99.3348   8
   0  -9  -3 318.455 89.8329   6
   0   9   3 427.244 102.069   9
   0   9   4 605.391 125.588   9
   0  -9  -4 783.223 134.286   8
   0   9   4 867.579 144.480  10
   0  -9  -4 773.916 125.594   5
   0   9   4 666.452 116.084  12
   0  -9  -4 674.684 112.654   6
   0  -9  -4 793.179 141.917   7
   0  -9  -5-12.3775 65.4977   6
   0  -9  -5 51.5795 64.0442   5
   0   9   5 152.828 77.6975  12
   0  -9  -5 157.239 81.3284   7
   0   9   5 76.3860 81.4277  10
   0  -9  -5 103.552 78.6425   8
   0   9   5 8.85542 69.3628   9
   0  -9  -6 433.869 111.227   7
   0   9   6 380.515 107.002  12
   0  10   1 86.4152 91.0336  11
   0 -10  -1 26.2567 81.4194   7
   0  10   1 272.363 117.430  10
   0  10   1 188.085 90.8003   9
   0 -10  -1 53.9986 85.3210   5
   0 -10  -1 202.934 110.019   8
   0 -10  -2-189.135 118.389   6
   0 -10  -2-98.3285 76.5175   5
   0  10   2-149.751 83.2116  11
   0  10   2-4.35676 71.0920  10
   0  10   2-20.3147 69.9651   9
   0 -10  -2 32.8269 75.1177   7
   0 -10  -2 60.3326 78.2285   8
   0 -10  -3-21.4232 65.5353   5
   0 -10  -3 144.086 79.1441   8
   0  10   3 240.384 90.0369  12
   0  10   3 104.663 69.2580  11
   0 -10  -3-47.3902 77.3336   7
   0  10   3-111.433 89.6873  10
   0 -10  -3 300.833 99.1758   6
   0  10   3 285.363 102.201   9
   0  10   4 106.357 93.5262   9
   0 -10  -4 269.286 96.3269   6
   0  10   4 204.539 85.8974  12
   0 -10  -4 236.209 89.0499   5
   0 -10  -4 93.3132 81.0790   7
   0  10   4 140.480 87.5695  10
   0 -10  -4 266.593 100.203   8
   0 -10  -5-121.832 77.5366   5
   0  10   5 137.025 81.5678  12
   0 -10  -5 197.516 101.981   7
   0 -10  -5 37.6197 62.1862   6
   0  10   5 127.534 92.3995  10
   0 -10  -5 20.5856 71.5880   8
   0  10   5 89.5822 85.3110   9
   0  10   6 29.4940 72.5061   9
   0 -10  -6 46.5066 74.7696   7
   0  10   6 51.7677 86.0335  12
   0 -11  -1 149.896 144.533   8
   0  11   1 79.4005 107.744  10
   0 -11  -2 285.009 120.072   8
   0  11   2 247.365 112.135   9
   0  11   2 205.805 125.595  10
   0  11   2 279.802 142.230  11
   0 -11  -2 137.034 123.931   5
   0 -11  -2 279.232 119.370   7
   0 -11  -3 185.624 107.794   8
   0 -11  -3 254.086 113.608   7
   0  11   3-62.7147 136.984  10
   0 -11  -3 196.562 137.125   6
   0  11   3 164.500 94.6710   9
   0 -11  -3-31.0350 80.4746   5
   0  11   3 26.7351 85.9928  11
   0  11   4 156.026 97.8371   9
   0 -11  -4-61.2091 87.7200   7
   0 -11  -4 32.7580 79.5133   5
   0 -11  -4 81.8069 87.6307   8
   0 -11  -4 23.2947 86.8154   6
   0  11   4 195.945 97.9943  12
   0  11   4 42.9656 89.0822  10
   0  11   5 36.7307 75.4454  12
   0  11   5 46.4913 97.5672   9
   0  11   5-66.6614 93.5957  10
   0 -11  -5 29.3916 81.5034   7
   0 -11  -5 46.4644 89.2935   8
   0 -11  -5-40.0340 57.3109   5
   0  11   6-16.0226 84.9450   9
   0 -11  -6 65.5895 74.2734   7
   0  12   2-49.7949 125.251  10
  -1   0   0 6859.94 162.384  14
   1   0   0 8034.87 166.848  16
  -1   0   0 7673.17 161.924  15
   1   0   0 7155.37 181.997  13
  -1   0  -1 10.7478 13.7378   1
   1   0   1 15.4481 12.8599   3
   1   0   1-0.56498 6.83870  12
  -1   0  -1 24.9510 14.3302   4
   1   0   1 26.0463 14.7181  16
   1   0   1 17.0995 8.46353   6
  -1   0  -1 12.1606 8.02241   5
  -1   0  -1 25.7549 9.16952  11
   1   0   1 25.8826 13.0689  13
   1   0   1 7.08493 11.4617   2
  -1   0  -1-0.84338 9.12906  14
  -1   0  -1 11.3410 12.8178  15
  -1   0  -2 59.1049 19.4380   1
  -1   0  -2 61.5550 18.1843  15
   1   0   2 49.0489 16.4983   3
  -1   0  -2 76.2484 14.8026   5
   1   0   2 70.9491 20.0050  16
   1   0   2 65.1909 31.5361   6
  -1   0  -2 42.6344 16.5103   4
   1   0   2 63.0738 19.7902   2
  -1   0  -3 1.76265 14.4170   4
   1   0   3-10.8164 17.8945   2
  -1   0  -3 16.4261 19.1982   1
  -1   0  -3-5.83052 14.6884  15
   1   0   3-5.98355 18.2318  16
   1  -1   0 27007.5 291.756   6
  -1   1   0 27287.0 292.737   1
   1   1   0 26741.9 408.709  13
   1  -1   0 27345.6 321.289   3
  -1   1   0 26894.0 296.851  11
  -1   1   0 27153.6 300.650  15
  -1   1   0 26982.1 319.610  14
   1  -1   0 27124.0 294.842   2
   1  -1   0 26999.2 298.483  16
   1   1   1 7979.24 169.110   2
   1  -1   1 8037.12 159.651   6
  -1  -1  -1 7984.95 169.179  15
  -1   1  -1 7961.67 107.292   7
   1  -1   1 8017.11 178.639   3
  -1   1  -1 7731.73 176.014  14
  -1  -1  -1 8109.73 161.325   5
  -1   1  -1 8050.25 137.262   4
   1   1   1 8059.95 178.707  13
   1  -1   1 7912.96 104.220   8
   1  -1   1 7889.59 168.860  16
   1   1   1 7732.76 134.653   3
  -1  -1  -1 8266.39 176.659   4
  -1  -1  -1 7958.96 136.028  14
   1  -1   1 7989.89 171.662   2
  -1   1  -1 7854.30 166.330   1
   1   1   1 8018.75 171.213  12
   1   1   1 8140.47 167.458  16
  -1   1  -1 7990.20 105.690   8
   1  -1   1 7881.69 138.329  13
  -1  -1  -1 7983.26 167.816   1
  -1   1  -1 7860.60 166.432  15
   1  -1   1 7981.42 108.473   7
  -1   1  -1 7961.50 109.565  10
  -1  -1  -1 7952.39 121.782   8
   1  -1   2 421.387 46.9539   2
  -1   1  -2 391.910 43.8155   1
  -1   1  -2 422.700 28.2491   7
   1  -1   2 348.149 43.4027   3
   1  -1   2 393.104 24.8770   5
   1   1   2 401.992 29.1484  10
   1  -1   2 381.141 44.1647  16
  -1  -1  -2 426.262 29.2729   8
  -1   1  -2 417.083 45.2743  15
   1  -1   2 363.446 38.9614   6
  -1   1  -2 395.770 37.4929   4
  -1   1  -3-3.48221 16.6009  15
  -1   1  -3 50.9390 23.0396   1
   1  -1   3-2.81812 21.7523  16
  -1  -1  -3 9.05970 10.4152   7
   1   1   3-21.5057 18.1993   2
   1   1   3-1.95248 15.7761  16
  -1  -1  -3 26.6377 18.1563   5
   1  -1   3-39.0201 30.0918   2
  -1  -1  -3 29.6119 21.0552   4
  -1  -1  -3 14.3043 16.7689  15
  -1  -1  -3 5.30353 16.5233   1
  -1  -1  -4 1692.06 102.791   4
   1   1   4 1776.29 125.474  16
  -1  -1  -4 1844.11 108.417  15
   1   1   4 1704.83 195.273   2
   1  -2  -1 1719.36 93.7989   3
   1  -2  -1 1601.49 84.6556   7
  -1   2   1 1497.96 90.7022  14
   1  -2  -1 1666.70 91.6938   6
  -1   2   1 1561.16 90.5207  11
   1  -2   0 1597.78 73.7389   7
   1  -2   0 1557.32 70.4470   2
   1  -2   0 1607.62 86.5074   6
   1  -2   0 1604.65 73.3029   8
   1  -2   0 1650.26 74.2767  16
  -1   2   0 1562.93 69.0893   1
  -1   2   0 1595.91 76.7178  10
  -1   2   0 1615.40 74.1969  15
  -1   2   0 1574.15 85.3000  11
  -1   2   0 1578.37 46.0764   5
  -1   2   0 1526.76 84.2434  14
   1  -2   0 1577.94 85.2112   3
   1   2   1 3313.22 127.421  13
   1  -2   1 3395.59 114.313  16
   1  -2   1 3512.10 118.509   2
  -1  -2  -1 3339.16 124.397   4
   1   2   1 3561.36 114.221   2
   1   2   1 3294.51 115.689   9
   1  -2   1 3491.59 129.962   6
   1   2   1 3346.80 108.515  16
  -1  -2  -1 3390.96 110.099  15
   1   2   1 3300.44 83.6351   6
  -1  -2  -1 3269.21 121.912   5
  -1   2  -1 3428.97 113.326  15
  -1  -2  -1 3438.80 110.254   8
  -1   2  -1 3471.44 134.418  14
  -1  -2  -1 3513.31 121.120   7
   1  -2   1 3458.35 102.346   8
   1   2   1 3236.17 72.2567   3
   1  -2   1 3418.75 132.230   3
  -1   2  -1 3464.79 105.633   9
  -1   2  -1 3508.71 116.269   1
  -1  -2  -1 3397.54 108.878   1
   1   2   1 3332.80 130.815  12
   1  -2   1 3418.74 105.162   7
   1   2   2 578.415 34.2915   3
   1  -2   2 617.697 60.0787   2
  -1  -2  -2 586.050 56.0810   4
   1  -2   2 560.958 61.2792   3
   1   2   2 570.241 56.4419  12
   1   2   2 582.602 50.6160   2
  -1  -2  -2 598.878 50.0242   1
  -1  -2  -2 589.294 49.6903  15
  -1   2  -2 628.035 56.1126  15
   1  -2   2 628.530 59.7543   6
   1  -2   2 601.346 57.0443  16
   1   2   2 584.486 49.2566  16
   1  -2   2 528.248 41.7354   8
   1   2   2 560.417 56.2518  13
  -1   2  -2 622.201 55.4631   1
  -1  -2  -2 583.468 32.1606  14
  -1  -2  -2 572.861 45.9215   8
  -1  -2  -2 599.643 55.4179   5
  -1  -2  -2 591.710 48.9379   7
  -1  -2  -3 2950.16 131.608   4
  -1   2  -3 2992.49 153.536  15
  -1  -2  -3 3066.87 130.146   5
   1   2   3 3173.86 115.039  10
   1   2   3 3187.60 124.506  16
  -1  -2  -3 2971.80 120.730  15
   1   2   3 3243.80 128.435   2
  -1  -2  -3 3202.65 128.499   1
  -1  -2  -3 3030.24 111.483   7
   1  -2   3 3074.71 210.497  16
  -1  -2  -3 3083.96 109.805   8
  -1  -2  -4 6650.74 220.106   4
   1   2   4 6277.33 306.088   2
  -1  -2  -4 6706.11 189.200   7
  -1  -2  -4 6601.19 202.674  15
   1   2   4 6732.11 208.011  16
  -1  -2  -4 6785.20 215.469   5
   1  -3  -2 420.942 56.6797   7
   1  -3  -2 529.816 64.5442   6
   1  -3  -1 11607.3 265.966   6
  -1   3   1 11680.2 260.458  10
  -1   3   1 11600.6 254.350  14
   1  -3  -1 11597.9 244.573   3
   1  -3  -1 11293.4 180.247   2
  -1   3   1 11379.8 180.446   1
   1  -3  -1 11770.4 252.373   7
  -1   3   1 11414.0 261.908  11
   1  -3  -1 11270.8 245.894   8
  -1   3   0 178.471 35.4875  14
   1  -3   0 169.256 25.5631   2
  -1   3   0 177.828 26.3567  15
   1  -3   0 181.559 32.6969   7
   1  -3   0 185.898 37.5461   6
   1  -3   0 197.644 33.6014   8
  -1   3   0 207.351 39.5754  11
  -1   3   0 189.951 27.1064   1
   1  -3   0 202.679 27.6051  16
   1  -3   0 178.026 23.1750   5
  -1   3   0 179.687 32.9664  10
   1  -3   0 193.019 35.5313   3
  -1  -3   0 165.192 43.3361   5
  -1  -3  -1 28.3170 19.7393   7
  -1   3  -1 37.0766 15.5191   1
   1   3   1 38.1134 20.6422  12
   1  -3   1 22.0541 15.9991   8
   1  -3   1 37.2153 21.4156   6
  -1   3  -1 23.8187 12.7810  15
  -1  -3  -1 27.3523 20.4865   4
   1   3   1 28.3891 19.8962  13
  -1  -3  -1 18.2681 15.7454   8
  -1   3  -1 23.8805 19.9896  14
   1  -3   1 30.6400 18.8255   7
   1  -3   1 35.8793 17.4454  16
   1   3   1 58.0584 19.2072   2
  -1  -3  -1 35.4100 14.8586   1
  -1  -3  -1 26.6420 21.7547   5
   1  -3   1 18.1840 20.2703   3
   1   3   1 47.8337 23.5887   9
   1  -3   1 39.5249 19.6204   2
  -1   3  -1 26.2752 18.2070   9
   1  -3   1 30.8521 12.8553   5
   1   3   2-18.0337 13.4924  11
  -1   3  -2 1.20504 15.7520  15
  -1  -3  -2-1.94568 14.3226  15
  -1  -3  -2-23.6607 21.0621   8
   1  -3   2 7.41512 17.5033  16
   1  -3   2 1.54801 19.6694   3
   1   3   2 11.6101 19.4162  12
   1  -3   2-10.7764 16.5297   8
  -1  -3  -2-5.40997 22.6534   4
  -1  -3  -2 2.08298 15.6826   1
   1   3   2 20.0151 20.0948   9
   1  -3   2 3.95750 20.3361   6
   1   3   2-5.26009 14.5017  16
  -1  -3  -2-6.47360 16.2721   6
   1   3   2-12.2726 20.3130  13
   1   3   2 10.2389 13.8152   2
  -1  -3  -2-40.6892 23.9631   7
  -1  -3  -2 22.2505 19.0024   5
  -1  -3  -3 4034.10 162.751   4
  -1  -3  -3 4035.41 141.140   1
  -1  -3  -3 3903.01 98.3266   6
   1   3   3 4083.71 153.056  10
   1   3   3 4148.88 143.072   2
   1   3   3 4149.43 169.311  13
  -1  -3  -3 3931.46 135.032  15
  -1  -3  -3 4218.30 169.497   5
   1   3   3 4167.08 138.664  16
  -1  -3  -3 4121.11 154.571   7
  -1  -3  -3 3984.71 147.266   8
  -1  -3  -4 1616.94 103.356   7
  -1  -3  -4 1675.19 101.439  15
  -1  -3  -4 1787.31 119.857   5
  -1  -3  -4 1601.93 66.8001   6
   1   3   4 1757.17 103.823  16
   1   3   4 1660.24 166.769   2
  -1  -3  -4 1874.36 124.356   4
   1   3   4 1807.79 112.458  10
  -1  -3  -4 1663.50 103.232   8
  -1  -3  -5 12.9319 30.4015   5
   1   3   5 35.7107 28.4617  16
  -1  -3  -5 10.0322 26.3177   7
  -1  -3  -5-11.7435 26.4344  15
  -1  -3  -5 19.4559 26.2603   4
  -1   4   2 7806.31 245.103  11
   1  -4  -2 7570.54 244.150   6
   1  -4  -2 7985.68 247.482   8
   1  -4  -2 8000.30 250.535   7
  -1   4   2 7787.87 256.356  10
   1  -4  -2 7922.08 218.824   3
   1  -4  -1 3920.33 104.466   2
  -1   4   1 3852.39 169.748  11
   1  -4  -1 3825.83 172.069   6
   1  -4  -1 3944.15 156.115   3
  -1   4   1 4050.91 160.040  14
   1  -4  -1 3842.07 136.426   5
   1  -4  -1 3982.62 168.171   7
  -1   4   1 3653.12 166.208  10
  -1   4   1 3860.86 101.438   1
   1  -4  -1 3864.95 164.772   8
  -1  -4   0 1169.55 135.364   8
  -1   4   0 1333.52 66.4450   1
   1  -4   0 1431.37 99.8156   3
   1  -4   0 1320.61 96.3227   8
   1  -4   0 1332.14 107.079   6
   1  -4   0 1288.14 66.2636  16
   1  -4   0 1316.98 67.6072   2
  -1  -4   0 1438.59 140.088   5
   1  -4   0 1256.26 94.8008   7
  -1   4   0 1266.88 66.4583  15
   1  -4   0 1279.38 70.6417   5
  -1   4   0 1311.92 93.7777  14
  -1   4   0 1332.28 101.251  11
  -1   4   0 1327.04 76.1493  12
   1   4   1 266.129 50.3496  12
  -1  -4  -1 310.397 51.0503   8
   1  -4   1 250.147 35.0078  16
   1  -4   1 225.145 45.3299   3
  -1  -4  -1 255.658 32.3564   1
   1  -4   1 269.482 33.5039   5
  -1  -4  -1 262.386 43.0581   4
  -1   4  -1 303.626 48.8521   9
   1   4   1 301.859 51.6800  13
   1  -4   1 289.280 46.0812   8
   1   4   1 248.988 32.1362   2
  -1   4  -1 280.215 34.6093  15
  -1   4  -1 258.717 47.1123  14
   1  -4   1 273.105 48.3970   7
  -1  -4  -1 186.551 44.0902   7
   1   4   1 277.626 49.9372   9
   1  -4   1 228.725 47.9065   6
  -1  -4  -1 266.980 49.8761   5
  -1  -4  -2 3164.45 151.303   8
   1  -4   2 3202.85 145.247   8
   1   4   2 3146.72 150.593  13
   1  -4   2 3229.20 169.611   6
  -1  -4  -2 3176.87 118.118  15
  -1  -4  -2 3384.80 162.797   7
  -1  -4  -2 3625.61 184.782   6
  -1  -4  -2 3140.67 161.215   5
   1   4   2 3103.01 163.926  12
   1  -4   2 3320.25 172.790   3
  -1   4  -2 3266.47 133.147  15
   1  -4   2 3214.98 108.006   5
   1   4   2 3166.91 112.556   2
  -1  -4  -2 3200.53 150.082   4
   1  -4   2 3025.17 131.638  16
   1   4   2 3172.82 117.616  16
  -1  -4  -2 3338.89 118.058   1
   1   4   2 3091.74 153.061   9
  -1  -4  -3 1000.66 91.1804   4
   1   4   3 904.851 65.1128  16
  -1  -4  -3 880.115 66.8620   1
  -1  -4  -3 920.946 87.7434   7
  -1  -4  -3 892.473 65.3818  15
  -1  -4  -3 865.634 61.0875   6
   1   4   3 900.771 67.4210   2
   1   4   3 944.021 86.0305  10
  -1  -4  -3 989.124 95.2897   5
   1   4   3 923.211 86.5838  13
  -1  -4  -3 958.580 86.6639   8
  -1  -4  -4 23.3857 25.9925   8
  -1  -4  -4 93.0117 27.4701  15
  -1  -4  -4 15.8927 31.3378   4
  -1  -4  -4 54.1775 22.6889   6
  -1  -4  -4 77.0822 36.2865   7
   1   4   4 71.8494 25.0734  16
   1   4   4 34.4128 34.3938  13
  -1  -4  -4 109.988 43.6101   5
   1   4   4 68.5156 37.6025  10
  -1  -4  -5-43.3841 40.3616   4
  -1  -4  -5-16.8846 27.6631  15
   1   4   5 1.22416 27.2476  16
  -1  -4  -5 11.9516 31.6237   7
  -1  -4  -5 80.7877 43.8198   5
  -1  -4  -5 17.9437 21.9684   6
   1  -5  -3 331.637 67.0741   7
   1  -5  -3 295.830 59.2490   8
   1  -5  -3 295.298 56.3243   3
   1  -5  -3 266.105 59.2792   6
  -1   5   3 264.377 61.9624  10
  -1   5   2 319.777 65.8724  10
   1  -5  -2 389.207 56.3949   3
  -1   5   2 255.748 58.0754  14
  -1   5   2 344.385 29.4184   1
  -1   5   2 345.044 32.4890  13
   1  -5  -2 305.154 58.8155   7
   1  -5  -2 249.321 47.0508   5
   1  -5  -2 326.612 29.2020   2
   1  -5  -2 381.085 66.9536   6
   1  -5  -2 390.230 65.6421   8
  -1   5   2 366.323 65.6049  11
   1  -5  -1 46.2482 33.8599   8
   1  -5  -1 42.7979 30.7938   5
   1  -5  -1 26.8297 28.2290   7
  -1   5   1 31.4228 22.3987  12
  -1   5   1 52.1393 33.3596  11
   1  -5  -1 37.7726 30.5873   3
  -1   5   1 82.6242 36.0031  14
   1  -5  -1 23.9739 17.6839   2
  -1   5   1-40.0273 32.4787  10
  -1   5   1 6.22441 14.4231   1
   1  -5  -1 36.8116 32.1143   6
  -1  -5   0 3033.71 238.631   8
  -1   5   0 3820.78 170.910  14
   1  -5   0 3754.06 111.019  16
  -1  -5   0 3592.69 252.600   5
   1  -5   0 3735.63 141.391   5
  -1   5   0 3815.49 188.711  11
  -1   5   0 3659.12 113.245  15
   1  -5   0 3924.91 177.637   3
  -1   5   0 3990.99 153.165  12
   1  -5   0 3739.25 183.480   7
  -1   5   0 3746.56 180.187   9
   1  -5   0 4058.06 205.226   6
   1  -5   0 3710.04 180.425   8
   1  -5   1-1.81513 27.1577   3
   1   5   1 0.74902 31.4288  13
   1  -5   1-35.8102 23.8998   5
   1  -5   1 73.3106 39.5407   6
  -1  -5  -1-3.80457 30.3468   4
   1  -5   1-11.7086 26.7627   8
  -1   5  -1-6.47339 27.8134  14
   1  -5   1 13.0623 19.5924  16
   1  -5   1 72.3944 36.2244   7
  -1  -5  -1-53.2433 37.0098   8
   1   5   1-13.4639 31.3635  12
  -1  -5  -1-22.8831 19.7060   1
  -1   5  -1 51.2227 35.2393   9
   1   5   1 17.8051 34.4501   9
  -1  -5  -1 18.9331 37.4307   7
   1   5   1 16.5405 20.0599   2
  -1  -5  -1 17.1935 32.4296   5
  -1   5  -1 2.54769 17.4199  15
  -1  -5  -2 7113.21 252.525   8
   1  -5   2 6953.42 245.564   8
   1   5   2 6930.66 163.086   2
   1  -5   2 7011.76 200.674  16
  -1  -5  -2 6866.80 259.976   5
   1  -5   2 7523.38 285.790   6
   1   5   2 7290.73 240.351  13
  -1   5  -2 7369.35 205.333  15
  -1  -5  -2 7095.75 263.706   7
   1  -5   2 6962.58 275.215   3
  -1  -5  -2 6765.26 160.834   1
  -1  -5  -2 6855.55 369.852   6
   1  -5   2 6353.04 293.941   7
  -1  -5  -2 6994.67 234.172   4
   1  -5   2 6906.68 183.134   5
   1   5   2 7104.13 258.572   9
  -1  -5  -3 23.9968 27.4395   1
   1   5   3 13.4655 23.1876  11
   1   5   3 13.6715 24.4624   2
   1   5   3-7.84455 29.9558  12
  -1  -5  -3 62.1566 41.2118   8
   1   5   3 33.2994 21.5705  16
  -1  -5  -3 10.3557 21.8377   6
   1   5   3 10.5128 31.0773  13
  -1  -5  -3 8.18267 33.3488   7
  -1  -5  -3 25.5170 31.3279   4
   1   5   3-54.3494 35.3375   9
   1   5   3 39.8397 38.4853  10
  -1  -5  -3 12.7744 33.6365   5
  -1  -5  -3 12.1217 21.8299  15
  -1  -5  -4 5811.18 236.108   4
  -1  -5  -4 5549.77 239.215   7
   1   5   4 5638.01 168.679  16
   1   5   4 5442.84 235.808  10
   1   5   4 5727.21 231.518  13
  -1  -5  -4 5544.31 180.003   6
  -1  -5  -4 5270.63 172.421  15
  -1  -5  -4 5521.66 243.178   5
  -1  -5  -4 5782.12 234.038   8
  -1  -5  -5 411.119 78.3821   4
  -1  -5  -5 518.646 79.4718   8
  -1  -5  -5 389.729 83.2317   7
   1   5   5 490.438 61.7730  16
  -1  -5  -5 331.984 53.8716  15
   1   5   5 476.300 80.7700  13
  -1  -5  -5 449.498 57.6890   6
  -1  -5  -5 499.813 86.0346   5
   1   5   5 457.073 78.8623  10
  -1  -5  -6 217.002 45.2459   6
  -1  -5  -6 330.851 74.8474   5
   1   5   6 270.977 74.1395  13
   1   5   6 340.039 61.4901  16
  -1  -5  -6 260.078 53.7463  15
  -1  -5  -6 143.522 68.5835   7
   1  -6  -4 1660.73 157.655   7
   1  -6  -4 1959.62 163.333   6
   1  -6  -3 414.707 76.4920   8
  -1   6   3 363.022 78.6691  10
  -1   6   3 342.920 42.6145  13
   1  -6  -3 493.167 80.8801   6
   1  -6  -3 433.196 79.7879   7
   1  -6  -3 416.916 62.8784   3
   1  -6  -3 401.502 27.2419   2
   1  -6  -2 368.751 69.9153   8
   1  -6  -2 331.875 67.8378   7
  -1   6   2 309.186 65.0422  14
  -1   6   2 295.810 64.7712  11
   1  -6  -2 385.495 77.1303   6
  -1   6   2 341.969 75.5311  10
   1  -6  -2 385.637 65.0826   5
   1  -6  -2 375.945 62.6404   3
   1  -6  -1 1152.18 122.164   6
   1  -6  -1 1150.50 117.434   7
  -1   6   1 1102.31 95.0906  12
   1  -6  -1 1107.13 101.951   3
   1  -6  -1 1095.70 113.301   8
   1  -6  -1 1010.96 89.9834   5
  -1   6   1 1002.49 115.586  10
  -1   6   1 1066.38 112.961   9
  -1   6   1 1148.05 116.209  11
  -1   6   1 1055.68 94.7574  14
  -1   6   0 1170.97 115.136   9
  -1   6   0 1164.73 104.098  14
  -1  -6   0 898.201 158.325   5
   1  -6   0 1167.72 118.267   7
   1  -6   0 1191.73 92.8238   5
   1  -6   0 1221.16 110.095   3
  -1   6   0 1305.73 80.5490  15
  -1   6   0 1238.95 103.553  12
   1  -6   0 1169.06 115.198   8
  -1   6   0 1161.88 115.510  11
   1  -6   0 1176.03 127.073   6
  -1  -6  -1 5.15906 39.3500   7
  -1  -6  -1 27.6020 24.7247   1
   1  -6   1 46.5207 39.9851   3
  -1   6  -1 76.7225 40.7672  14
   1  -6   1 26.9644 37.3471   7
   1   6   1 33.2209 15.3417  14
   1  -6   1 68.5606 37.1438   8
   1   6   1 40.4355 39.8973  12
  -1  -6  -1 78.7164 49.9679   8
  -1   6  -1 94.7625 30.0715  15
   1  -6   1 49.4101 38.9661   6
  -1  -6  -1 83.8108 44.7421   4
   1   6   1 52.5131 25.9054   2
  -1   6  -1 45.4131 37.4930   9
   1  -6   1 23.8430 27.2368   5
   1  -6   1 31.1392 23.6189  16
   1   6   1 59.0810 41.0951   9
  -1  -6  -1 27.3199 37.4061   5
   1   6   2 2079.77 158.175   9
  -1  -6  -2 1851.34 150.884   7
   1   6   2 1667.49 80.2234   2
  -1  -6  -2 1934.57 153.771   5
   1  -6   2 2123.81 162.333   8
  -1   6  -2 2092.47 115.689  15
   1   6   2 1783.59 148.776  12
  -1  -6  -2 1941.63 135.424   4
  -1  -6  -2 1816.64 85.7428   1
   1  -6   2 1792.71 107.873  16
   1   6   2 1819.85 117.134  11
   1  -6   2 1966.62 118.922   5
   1   6   2 2010.09 143.179  13
   1  -6   2 1955.07 172.385   6
  -1  -6  -2 1858.32 147.088   8
  -1  -6  -3-12.1964 42.6818   8
  -1  -6  -3 64.4495 35.5276   6
   1   6   3-11.2238 34.5019  13
  -1  -6  -3 136.715 54.8518   4
  -1  -6  -3-17.9531 42.1001   7
   1   6   3 28.0713 42.4831  10
  -1  -6  -3 8.02851 43.2522   5
   1   6   3 39.8120 31.1009  11
   1   6   3 47.1328 42.6640  12
   1   6   3 5.37669 34.6863   9
  -1  -6  -4 93.5398 56.4849   7
   1   6   4 79.5446 45.2859  10
   1   6   4 147.712 56.6472  13
   1   6   4 44.5399 56.7219  12
  -1  -6  -4 65.5172 31.2344   6
  -1  -6  -4 107.928 34.5037  15
  -1  -6  -4 103.672 49.4907   8
   1   6   4 26.8017 56.7555   9
   1   6   4 129.806 34.9382  16
  -1  -6  -4 72.2628 52.4912   5
  -1  -6  -4 95.4633 49.5393   4
  -1  -6  -5 403.932 81.0485   4
  -1  -6  -5 354.663 77.9229   5
  -1  -6  -5 219.139 80.7610   7
   1   6   5 167.214 87.0815  12
  -1  -6  -5 304.265 51.3898  15
  -1  -6  -5 407.865 61.5600   6
   1   6   5 468.488 81.2274  13
   1   6   5 323.722 78.0570  10
  -1  -6  -5 498.014 86.2955   8
  -1  -6  -6 266.626 80.4424   5
  -1  -6  -6 156.833 74.0329   7
   1   6   6 393.341 91.2119  13
  -1  -6  -6 38.9470 34.0259   6
  -1  -6  -6 172.071 51.3847  15
  -1   7   4 100.183 58.9100  10
   1  -7  -4 66.0371 45.2161   3
   1  -7  -4 54.7766 54.7444   8
   1  -7  -4 145.068 62.3333   7
   1  -7  -4 23.5176 50.0251   6
   1  -7  -3 449.602 89.7562   8
   1  -7  -3 396.815 85.9624   6
   1  -7  -3 184.922 57.2566   5
   1  -7  -3 300.936 77.6762   7
  -1   7   3 455.950 87.4120  11
   1  -7  -3 358.646 64.1515   3
  -1   7   3 332.940 79.9498  10
   1  -7  -2 69.7223 48.2028   8
   1  -7  -2 4.49014 42.7536   6
  -1   7   2 15.1120 51.9700  10
   1  -7  -2 86.3067 47.6204   5
  -1   7   2-7.44777 33.1968  14
  -1   7   2-4.47548 32.2042  12
   1  -7  -2 3.23721 45.0444   7
  -1   7   2 39.0492 43.3110  11
   1  -7  -2 4.79920 38.1089   3
   1  -7  -1-17.9113 45.1527   8
  -1   7   1 35.0121 41.8197  14
   1  -7  -1 48.1694 40.4645   3
   1  -7  -1 17.2749 42.4413   7
  -1   7   1 11.6850 33.9220  12
  -1   7   1 25.4151 45.7610  11
   1  -7  -1 67.7379 41.7398   5
   1  -7  -1 43.3261 47.1127   6
  -1   7   1 46.1384 50.2081   9
  -1   7   1 149.539 61.8102  10
   1  -7   0 616.043 88.6150   3
  -1   7   0 613.306 94.4390   9
   1  -7   0 642.135 101.664   6
   1  -7   0 650.750 98.4767   7
  -1   7   0 594.595 95.3186  11
  -1   7   0 683.514 89.8555  14
   1  -7   0 580.983 90.1356   8
   1  -7   0 710.175 85.1229   5
  -1   7  -1 169.672 61.0483  14
  -1  -7  -1 62.3206 59.4843   8
   1  -7   1 92.2396 51.2697   8
   1  -7   1 144.333 61.4016   6
  -1   7  -1 5.40446 42.4706   9
   1  -7   1 187.960 69.9611   7
  -1  -7  -1 62.4589 53.5434   4
   1  -7   1 72.6264 39.4224   5
   1  -7   1 108.736 40.5248  16
  -1  -7  -1 91.3781 59.4913   7
   1   7   1 66.7185 57.8203   9
  -1  -7  -1 15.8390 57.8787   5
   1   7   2 546.408 76.4646  11
  -1  -7  -2 527.753 84.1213   4
   1  -7   2 493.126 82.6848   5
  -1  -7  -2 557.159 100.770   7
   1  -7   2 557.318 120.919   6
   1   7   2 481.579 102.407  13
  -1   7  -2 611.339 108.641  14
   1   7   2 486.151 88.4576  12
   1  -7   2 533.572 108.734   8
   1  -7   2 444.728 66.2376  16
  -1  -7  -2 478.407 90.2345   8
   1   7   2 446.186 89.9552   9
  -1   7  -2 644.022 77.3215  15
  -1  -7  -2 422.651 88.7360   5
  -1  -7  -3 376.095 72.4522   4
  -1  -7  -3 446.038 85.0387   8
   1   7   3 401.988 75.1296  13
   1   7   3 140.946 85.3341   9
   1   7   3 174.975 79.0861  12
   1   7   3 392.342 67.1247  11
  -1  -7  -3 567.421 107.391   6
   1   7   3 388.717 86.2552  10
  -1  -7  -3 385.569 85.8188   5
  -1  -7  -3 402.522 86.9391   7
  -1  -7  -4 230.557 71.1075   8
  -1  -7  -4 34.8082 53.1369   7
   1   7   4 87.9487 48.6452  13
  -1  -7  -4 122.696 56.2890   4
  -1  -7  -4 186.784 54.0442   6
   1   7   4 41.1458 51.5602  12
   1   7   4 47.0993 60.9964  10
  -1  -7  -4 105.643 54.8418   5
   1   7   4 40.6696 57.1951   9
  -1  -7  -5 327.166 84.1095   4
   1   7   5 221.545 76.9959  10
  -1  -7  -5 162.419 85.1607   7
  -1  -7  -5 201.898 50.5071   6
   1   7   5 129.068 86.6536  12
   1   7   5 304.995 75.4853  13
   1   7   5 86.3324 72.6265   9
  -1  -7  -5 207.534 71.1833   8
  -1  -7  -5 216.012 76.5985   5
  -1  -7  -6 150.692 62.7837   8
   1   7   6 105.136 63.2266  10
   1   7   6 72.2636 50.2191  13
  -1  -7  -6 154.130 76.8719   5
   1   7   6 51.0302 65.5959  12
  -1  -7  -6 29.0214 74.1287   7
  -1  -7  -7 532.305 110.726   5
   1  -8  -4 31.9483 52.1789   8
   1  -8  -4 85.9845 67.6196   7
   1  -8  -4 119.421 69.5443   6
  -1   8   4 103.911 56.0393  12
   1  -8  -4 49.3842 37.4496   3
  -1   8   4 172.084 74.0430  10
   1  -8  -3 1396.07 163.175   7
   1  -8  -3 1310.90 152.160   8
   1  -8  -3 868.071 113.925   5
   1  -8  -3 1365.25 157.670   6
   1  -8  -3 1394.42 125.594   3
  -1   8   3 1137.77 129.099  12
  -1   8   3 1335.45 150.305  11
  -1   8   3 1172.86 148.660  10
   1  -8  -2 823.213 109.739   5
   1  -8  -2 762.064 119.973   8
  -1   8   2 616.295 93.3236  12
   1  -8  -2 800.749 124.282   7
   1  -8  -2 726.826 94.5891   3
  -1   8   2 331.080 90.5223  14
   1  -8  -2 682.272 113.403   6
  -1   8   2 684.803 114.327   9
  -1   8   2 716.472 115.692  11
  -1   8   2 692.225 117.644  10
   1  -8  -1 1094.47 120.075   3
   1  -8  -1 1142.34 114.410   5
  -1   8   1 1037.56 119.004  14
   1  -8  -1 1037.16 138.029   7
  -1   8   1 1171.84 124.290  12
   1  -8  -1 1081.38 138.823   6
  -1   8   1 1089.51 141.578  11
  -1   8   1 987.532 133.250  10
  -1   8   1 1003.94 132.269   9
   1  -8  -1 1014.99 126.647   8
   1  -8   0-34.5779 59.7644   7
   1  -8   0-76.6363 64.1136   6
  -1   8   0 102.923 61.5628  11
  -1   8   0-51.3469 55.0849  10
   1  -8   0-76.0756 55.5554   8
   1  -8   0 10.6291 44.0448   5
  -1   8   0-46.9977 57.4007  14
  -1   8   0 2.92540 45.6863   9
   1  -8   1 247.160 76.3752   8
   1  -8   1 269.154 94.9746   6
  -1  -8  -1 231.045 87.0127   4
  -1  -8  -1 402.785 120.121   8
  -1   8  -1 287.946 73.8768  14
   1  -8   1 439.799 107.571   7
   1  -8   1 168.743 59.1102   5
  -1   8  -1 359.802 96.5317   9
  -1  -8  -1 267.173 98.7878   5
  -1  -8  -2 10.1555 58.2834   4
  -1  -8  -2-32.1740 66.9685   8
   1   8   2-91.5058 66.1481  12
  -1  -8  -2-97.3055 74.9176   7
   1  -8   2-72.4773 124.181   8
   1   8   2-77.6969 58.9489  11
  -1  -8  -2-91.6187 72.1918   5
   1   8   2 31.6010 59.5160   9
  -1  -8  -3 515.510 102.529   8
  -1  -8  -3 555.993 107.664   5
  -1  -8  -3 407.008 83.6554   4
   1   8   3 571.750 88.5896  11
  -1  -8  -3 586.848 112.097   7
   1   8   3 506.864 105.779  12
   1   8   3 516.756 108.401  13
   1   8   3 481.412 112.093  10
   1   8   3 157.189 94.5408   9
  -1  -8  -4 108.657 60.0357   8
  -1  -8  -4-18.9640 55.9976   7
  -1  -8  -4 77.7161 60.6586   4
  -1  -8  -4 48.0673 43.8306   6
   1   8   4 166.643 64.7735  13
   1   8   4 24.3906 62.6488  12
   1   8   4 142.434 77.7457  10
  -1  -8  -4 123.967 69.3217   5
   1   8   4 23.0914 62.7178   9
  -1  -8  -5-60.3333 61.7748   8
  -1  -8  -5-24.9441 58.4412   4
   1   8   5 0.49822 61.4398  12
  -1  -8  -5-6.92158 70.1122   7
   1   8   5 94.4417 58.5491  13
   1   8   5-42.5634 62.1751  10
  -1  -8  -5 48.9558 65.6100   5
   1   8   5 17.6000 54.0560   9
   1   8   6 71.4777 81.7717   9
  -1  -8  -6 266.858 88.4966   8
  -1  -8  -6 165.928 99.7022   7
   1   8   6 326.104 86.1800  13
   1   8   6 253.743 94.3243  10
   1   8   6 115.059 91.7553  12
  -1  -8  -6 369.715 100.487   5
  -1  -8  -7 101.681 62.8785   5
  -1  -8  -7 48.8229 83.1453   7
   1   8   7 144.975 128.083  12
   1  -9  -4 513.819 120.032   8
   1  -9  -4 381.207 103.483   7
   1  -9  -4 431.881 112.133   6
  -1   9   4 309.311 100.458  10
  -1   9   4 465.418 100.616  12
   1  -9  -3 325.095 100.750   8
   1  -9  -3 252.608 76.3147   6
  -1   9   3 124.786 57.3588  12
  -1   9   3 248.811 91.0873  11
   1  -9  -3 154.548 65.4545   5
  -1   9   3 163.538 76.1782  10
  -1   9   3 257.286 85.7932   9
   1  -9  -3 156.292 79.5208   7
   1  -9  -2 1135.88 148.239   8
   1  -9  -2 1332.14 161.315   6
  -1   9   2 1215.65 139.296  12
  -1   9   2 1176.44 153.403  11
  -1   9   2 1219.86 163.432  10
  -1   9   2 1187.07 156.362   9
   1  -9  -2 1259.47 140.978   5
   1  -9  -2 1246.52 162.740   7
   1  -9  -1 648.519 118.510   8
   1  -9  -1 700.431 123.743   6
   1  -9  -1 601.289 117.411   7
  -1   9   1 803.204 130.313  11
   1  -9  -1 588.334 98.1037   5
  -1   9   1 673.840 126.859  10
  -1   9   1 747.109 126.797   9
  -1   9   0 1683.71 182.550  11
   1  -9   0 1604.55 184.693   7
  -1   9   0 2074.78 202.408  14
   1  -9   0 1430.00 147.761   5
   1  -9   0 1714.59 192.839   6
  -1   9   0 1550.13 180.439  10
  -1   9   0 1505.04 177.937   9
   1  -9   0 1380.19 163.477   8
   1  -9   1 44.2159 80.9388   8
   1  -9   1 103.150 80.0240   7
  -1   9  -1 90.2423 77.3790  14
  -1   9  -1 188.295 92.0218  11
  -1  -9  -1 125.394 144.514   8
   1  -9   1 125.339 108.614   6
   1  -9   1 178.973 98.9968   5
  -1  -9  -1 143.908 147.663   5
  -1  -9  -2 2081.82 189.733   4
   1   9   2 2074.44 199.089  11
  -1  -9  -2 2214.98 233.938   5
  -1  -9  -2 2290.04 245.856   8
  -1  -9  -3 219.899 89.8806   8
  -1  -9  -3 266.474 85.5456   4
   1   9   3 100.212 93.6931   9
  -1  -9  -3 322.619 104.171   7
   1   9   3 57.8590 82.3410  12
   1   9   3 208.000 98.7128  10
  -1  -9  -3 189.256 83.5035   5
  -1  -9  -4 132.198 73.9669   8
   1   9   4 376.860 106.110  13
   1   9   4 119.188 93.2267  12
  -1  -9  -4 206.186 79.4786   7
  -1  -9  -4 254.842 79.7876   4
   1   9   4 170.020 96.9101  10
  -1  -9  -4 272.141 96.1616   5
   1   9   4 105.621 92.4876   9
  -1  -9  -5 172.147 82.7442   8
  -1  -9  -5 106.657 84.4215   7
   1   9   5 75.5315 65.2161  13
   1   9   5 79.6375 88.9712  12
  -1  -9  -5 100.929 79.2420   5
   1   9   5-12.1308 59.3596  10
   1   9   5 45.7716 84.1388   9
  -1  -9  -6-59.7474 63.3367   8
  -1  -9  -6 80.8963 80.5601   5
  -1  -9  -6-7.31565 70.8690   7
   1   9   6 59.6860 68.9988  13
   1   9   6 70.7584 83.3301  12
   1   9   6-68.3895 77.1826  10
   1   9   6-10.4694 79.6081   9
  -1  -9  -7-7.38018 64.7216   7
   1   9   7 36.0693 87.8665  12
   1   9   7 44.1535 73.3838   9
  -1  10   5 72.0412 93.3322   9
   1 -10  -4 396.058 119.844   8
   1 -10  -4 435.287 116.991   6
  -1  10   4 254.398 89.3561  12
   1 -10  -4 467.459 129.113   7
  -1  10   4 446.016 121.359  10
  -1  10   4 308.479 113.394   9
   1 -10  -3 43.2516 70.1809   8
  -1  10   3 228.621 81.5139  12
   1 -10  -3 187.168 90.6624   6
   1 -10  -3 154.081 85.3711   7
   1 -10  -3 6.11252 50.5448   5
  -1  10   3 139.068 82.5184  10
  -1  10   3 238.210 94.7842   9
  -1  10   3 18.9946 71.0106  11
   1 -10  -2-89.5427 68.9173   7
   1 -10  -2 44.2425 69.6697   8
  -1  10   2-89.6103 75.4028  10
   1 -10  -2 106.891 76.4080   6
  -1  10   2 93.0206 75.9393  11
   1 -10  -2-27.1608 69.0624   5
  -1  10   2-50.8610 64.2671   9
   1 -10  -1 428.519 111.084   8
   1 -10  -1 170.789 72.8042   5
   1 -10  -1 426.825 117.701   7
  -1  10   1 479.832 116.438  11
  -1  10   1 424.343 106.390  10
   1 -10  -1 292.540 96.4093   6
  -1  10   1 393.612 108.295   9
   1 -10   0-52.6244 93.5193   6
  -1  10   0 70.8451 83.2360  11
   1 -10   0-60.9735 79.1847   7
  -1  10   0-40.3760 73.1050  10
  -1  10   0-123.623 87.2702   9
   1 -10   0-30.9296 74.4384   8
  -1  10  -1 0.30965 120.161  11
  -1 -10  -2 306.471 160.423   8
   1  10   2 161.999 121.878  10
  -1 -10  -2 60.7224 110.633   5
  -1 -10  -3-5.13153 85.5413   8
  -1 -10  -3-20.0580 79.5868   7
   1  10   3 37.5882 88.1509  10
  -1 -10  -3-91.4856 90.2408   5
   1  10   3-76.3288 78.5424   9
  -1 -10  -4 108.268 83.0448   8
  -1 -10  -4 150.062 99.6453   7
   1  10   4 18.8365 72.0074  10
   1  10   4 20.6410 74.2536  12
  -1 -10  -4 86.7243 81.3688   5
   1  10   4-44.5332 83.9545   9
  -1 -10  -5 662.296 135.758   8
   1  10   5 356.616 152.820  12
  -1 -10  -5 669.636 148.459   7
  -1 -10  -5 743.826 149.414   5
   1  10   5 516.470 147.576  10
   1  10   5 222.343 151.486   9
   1  10   6 4.82092 82.2221  12
  -1 -10  -6 265.580 117.099   5
   1  10   6 139.101 92.7897  10
  -1 -10  -6 51.9028 82.5327   7
   1  10   6 92.7038 109.669   9
  -1 -10  -6 223.825 95.2100   8
   1  10   7 15.0880 109.995  12
  -1 -10  -7 24.9988 61.8772   5
   1 -11  -4 150.902 95.7159   6
   1 -11  -4 44.1383 96.9968   7
  -1  11   4-6.78900 69.3738  10
  -1  11   4 35.9890 79.1637  12
   1 -11  -4 35.6833 82.6278   8
  -1  11   4 182.973 111.693   9
   1 -11  -3 80.7254 91.9602   8
  -1  11   3-190.442 105.804   9
   1 -11  -3 72.6538 89.8197   7
   1 -11  -3 98.1833 82.9780   6
  -1  11   3-137.576 94.3745  10
  -1  11   2 262.575 100.345  10
   1 -11  -2 120.604 87.8584   8
   1 -11  -2 116.001 80.1576   7
   1 -11  -2 182.071 101.059   6
  -1  11   2 40.6773 81.0531  11
  -1  11   2 229.424 100.177   9
   1 -11  -1-81.3838 91.2951   8
   1 -11  -1-6.00034 90.5587   6
   1 -11  -1 185.134 103.860   7
  -1  11   1 59.7245 90.2367  11
  -1  11   1 15.9032 80.9042  10
  -1  11   1 224.619 111.767   9
   1 -11   0 1.61457 134.938   8
  -1  11   0-272.375 138.353  11
  -1  11   0-157.239 129.366  10
   1  11   3 217.516 167.163  10
  -1 -11  -3 103.134 111.770   5
  -1 -11  -4 66.9281 91.6869   8
  -1 -11  -4 100.418 107.329   7
   1  11   4-65.0250 86.5993  10
  -1 -11  -4-47.6269 110.935   5
   1  11   4 81.2122 100.117   9
  -1 -11  -5 54.5850 83.1060   8
   1  11   5 11.5286 90.7606   9
   1  11   5 4.74343 82.2020  12
  -1 -11  -5 65.9517 101.358   5
   1  11   5 24.6409 81.2094  10
  -1 -11  -5-116.761 114.541   7
   2   0   0 26.7598 23.3968   2
  -2   0   0 15.8854 23.5247   1
   2   0   1 30.8892 23.8665  16
  -2   0  -1 13.7126 24.7686  15
  -2   0  -1 7.36674 19.6937  14
   2   0   1-3.59381 19.7662  13
   2   0   1 19.5510 16.1549   6
  -2   0  -1-11.9095 23.3193   4
   2   0   1-0.84610 20.7188   3
  -2   0  -1-31.2269 22.3866   1
   2   0   1-17.0365 22.3128   2
  -2   0  -1 12.9515 16.5324   5
   2   0   2 10915.1 197.209   6
  -2   0  -2 10752.4 258.940   4
  -2   0  -2 11016.7 288.103  15
  -2   0  -2 11045.7 271.645  14
   2   0   2 11085.0 285.979  16
   2   0   2 10831.1 270.725  13
   2   0   2 11266.7 272.404   3
  -2   0  -2 10893.8 285.097   1
  -2   0  -2 11148.7 203.922   5
   2   0   2 11333.4 289.547   2
  -2   0  -3 43.2849 32.0782   1
  -2   0  -3 53.1744 35.0107  15
  -2   0  -3 70.2053 37.9338   4
   2   0   3 70.6692 34.9719  13
   2   0   3 165.631 37.1022   6
   2   0   3 102.778 39.3988   3
   2   0   3 69.4377 39.5058  16
   2   0   3 95.2868 29.5365  12
  -2   0  -3 96.1626 36.1610  14
  -2   0  -3 87.3831 25.5832  11
   2   0   3 96.6967 41.8797   2
  -2   0  -3 67.8560 25.3853   5
  -2   0  -4 4009.69 180.306   4
   2   0   4 3677.66 183.108   2
  -2   0  -4 3717.48 182.457   1
   2   0   4 3707.68 181.697  16
  -2   0  -4 3647.74 181.197  15
  -2   0  -4 3645.47 168.314  14
   2   0   4 3948.95 184.212   3
   2   0   4 3893.07 179.002  13
  -2   0  -5 5.51818 30.1690   4
  -2   0  -5 6.61796 11.6513   7
   2   0   5-8.03396 40.5894  16
  -2   0  -5-1.94042 34.3523   1
   2   0   5 57.0818 50.8143   2
  -2   0  -5-9.96743 36.0360  15
   2   0   6 1075.56 177.869  16
  -2   1   0 3717.85 147.233   4
  -2   1   0 3820.75 163.764   1
   2  -1   0 3688.52 164.547  16
  -2   1   0 3723.70 168.508  15
   2  -1   0 4024.41 170.876   3
   2  -1   0 3501.46 156.182   6
  -2   1   0 3819.08 180.783  14
   2  -1   0 3745.34 160.688   2
  -2   1  -1 574.500 56.0078   4
  -2  -1  -1 625.408 70.0334   4
   2  -1   1 572.682 64.7729   2
   2  -1   1 561.370 64.5612   3
   2   1   1 598.145 70.2618  13
   2  -1   1 596.137 66.4444  16
  -2  -1  -1 598.756 69.1959   1
   2   1   1 576.358 65.9529  16
  -2  -1  -1 636.376 70.6693  15
  -2   1  -1 531.060 65.1686  14
  -2   1  -1 569.147 67.0180   1
   2   1   1 548.554 57.1603   3
   2   1   1 605.994 68.6009   2
  -2   1  -1 594.234 38.4254   5
  -2   1  -1 535.231 63.4984  15
  -2  -1  -1 586.465 57.2806   5
   2  -1   1 607.282 56.2421   6
   2  -1   1 562.390 33.2686   7
   2  -1   1 613.357 62.9232  13
  -2  -1  -2-18.1622 12.4631   8
  -2  -1  -2-17.5801 22.4840  14
  -2   1  -2-26.9004 29.2825  15
  -2   1  -2-50.0875 32.7033  14
  -2  -1  -2 4.98919 23.4694  15
   2  -1   2-45.4385 31.6251  16
   2   1   2-15.6659 26.3410  16
  -2  -1  -2-56.3396 32.3528   1
   2  -1   2 12.7655 20.1851  13
   2   1   2 0.76210 23.0155  13
   2  -1   2-15.9496 20.6890   6
   2   1   2-3.34991 12.8238   6
  -2   1  -2 3.02675 19.6975  11
   2   1   2-6.07691 21.7444  12
  -2  -1  -2-54.2955 35.1116   4
  -2   1  -2 6.87598 10.9492   5
  -2   1  -2-40.2448 26.5919   4
   2  -1   2-13.0712 25.6795   2
   2  -1   2-69.9160 35.6157   3
   2   1   2-12.7128 19.8118   3
   2   1   2-53.8298 31.4456   2
  -2  -1  -2-17.8578 20.0248   5
  -2   1  -2-16.0433 28.5634   1
  -2   1  -3 627.356 66.1054   4
  -2  -1  -3 607.173 72.9139   4
   2  -1   3 522.649 70.2011   2
   2   1   3 618.685 75.2063   2
   2  -1   3 531.973 71.1030  16
   2   1   3 561.947 70.6883  13
  -2  -1  -3 576.238 71.5221   1
  -2   1  -3 557.160 71.5993  14
  -2  -1  -3 610.521 64.5532  14
   2  -1   3 571.710 72.7835   3
   2   1   3 549.646 61.8189   3
   2  -1   3 617.580 68.0768  13
  -2  -1  -3 594.730 73.6391  15
  -2   1  -3 642.961 76.1991   1
   2  -1   3 543.917 43.1762  12
   2   1   3 530.543 60.6026  12
  -2   1  -3 630.965 59.5955  11
  -2  -1  -3 610.047 61.9158   5
   2  -1   3 569.970 60.1328   6
   2   1   3 576.789 70.9270  16
  -2   1  -3 562.818 70.3790  15
  -2   1  -4 3043.07 151.469   4
  -2  -1  -4 3024.16 160.428   4
   2   1   4 3008.42 164.408   2
  -2   1  -4 2959.39 164.099   1
   2   1   4 3033.38 163.204  16
  -2  -1  -4 2857.64 160.035   1
  -2  -1  -4 2555.75 77.6045   7
   2  -1   4 2934.48 168.575  16
  -2  -1  -4 3045.51 145.273  14
   2   1   4 3275.89 159.098   3
   2   1   4 2848.84 160.665  13
   2  -1   4 2992.32 170.462   2
   2  -1   4 3040.27 170.113   3
  -2  -1  -4 2980.81 161.482  15
  -2  -1  -4 3064.77 140.408   5
  -2   1  -4 3048.78 169.525  15
   2  -1   5 82.1385 51.7810   2
   2   1   5 71.0146 43.5661  16
   2  -1   5 68.5829 53.4402  16
   2   1   5 127.572 54.3566   2
  -2  -1  -5 0.72130 31.2424  15
  -2  -1  -5 58.7469 18.8452   7
  -2   1  -5 70.1342 43.1224  15
  -2   1  -5 82.3413 48.9150   1
  -2  -1  -5 46.5112 38.9026   1
  -2  -1  -5 48.1076 37.1623   4
   2   1   6 76.5895 54.5877  16
  -2  -1  -6 19.6331 35.4110  15
   2   1   6 6.73235 64.3186   2
  -2  -1  -6 12.2117 16.7083   7
  -2   2   0 9052.74 191.381   4
  -2   2   0 9444.02 261.125  15
  -2   2   0 9192.47 271.778  14
  -2   2   0 9267.80 246.852   1
   2  -2   0 9456.31 259.555  16
   2  -2   0 9409.81 253.056   6
   2  -2   0 8937.02 240.313   2
   2  -2   0 9341.74 201.346   7
   2  -2   0 9271.27 267.844   3
  -2   2  -1 1146.99 70.4025   4
  -2  -2  -1 1255.55 103.697   4
   2  -2   1 1080.90 59.2412   7
  -2   2  -1 1063.18 93.3755  14
  -2   2  -1 1136.65 91.9443  15
  -2  -2  -1 1100.88 88.5291   5
   2   2   1 1049.93 90.8800  16
  -2  -2  -1 1277.48 102.533   1
  -2   2  -1 1076.20 87.8727   1
   2  -2   1 1226.83 81.7239  13
   2   2   1 1240.39 105.280  13
   2  -2   1 1048.62 90.9597   3
   2   2   1 1315.52 105.497   2
   2  -2   1 1068.39 88.1075  16
   2   2   1 1175.15 79.9153   3
  -2  -2  -1 1039.83 92.5235  15
  -2   2  -1 1139.95 88.3485  11
   2  -2   1 1074.10 85.6334   2
   2  -2   1 1141.78 87.0634   6
  -2   2  -2 4012.49 139.350   4
  -2  -2  -2 3821.81 177.490   4
   2  -2   2 3985.51 178.033   2
   2  -2   2 3915.51 176.286  16
   2   2   2 3827.87 168.205  16
   2  -2   2 4072.14 117.817   7
  -2  -2  -2 4003.95 177.067  15
  -2   2  -2 3895.86 172.257   1
   2   2   2 3848.92 171.104   2
  -2  -2  -2 3692.34 167.538   1
   2  -2   2 4048.27 170.277   6
  -2  -2  -2 3834.68 119.955   8
   2  -2   2 3996.70 147.141  13
   2  -2   2 4063.27 189.026   3
   2   2   2 3692.15 131.971   3
   2   2   2 3745.62 177.235  13
   2   2   2 3927.70 178.143  12
  -2   2  -2 3916.78 161.803  11
  -2  -2  -2 3864.24 163.145   5
  -2   2  -2 3925.27 175.923  15
  -2   2  -2 3967.39 116.562   9
  -2   2  -2 3921.42 186.360  14
  -2   2  -3 3956.08 151.942   4
   2  -2   3 3965.29 169.184   6
   2  -2   3 3872.85 184.177   2
  -2  -2  -3 4140.75 191.113   4
   2   2   3 4098.86 183.162   2
   2  -2   3 3876.98 184.195  16
   2   2   3 4137.67 181.755  16
  -2   2  -3 3940.19 181.130   1
  -2  -2  -3 4282.97 188.821  15
  -2   2  -3 4030.45 184.987  15
  -2  -2  -3 4081.40 184.276   1
  -2   2  -3 4151.28 198.576  14
   2  -2   3 4077.93 195.976   3
   2  -2   3 3878.50 154.243  13
   2   2   3 4038.38 181.924  12
  -2  -2  -3 4163.00 147.334  14
  -2  -2  -3 4135.59 173.522   5
   2  -2   3 3910.11 98.0623   8
  -2   2  -3 4067.75 103.917  10
   2   2   3 3833.49 120.113  10
   2   2   3 3971.75 146.269   3
   2   2   3 3926.68 189.448  13
  -2  -2  -3 4108.34 121.488   8
   2  -2   4 2199.48 79.6212   8
   2   2   4 2402.75 147.806   2
  -2   2  -4 2598.47 159.553   1
   2  -2   4 2508.18 162.368  16
   2   2   4 2432.55 146.498  16
  -2  -2  -4 2626.06 166.955  15
  -2   2  -4 2508.59 156.477  15
  -2  -2  -4 2600.66 121.973  14
   2  -2   4 2476.71 163.277   3
   2   2   4 2528.10 164.523  13
  -2  -2  -4 2768.03 115.054   7
   2   2   4 2439.15 145.104  12
  -2  -2  -4 2523.07 142.307   5
   2  -2   4 2740.07 173.140   2
   2  -2   5 371.677 101.580  16
   2  -2   5 178.687 87.0072   2
  -2   2  -5 256.231 66.8622  15
  -2  -2  -5 265.238 61.0525  15
  -2  -2  -5 330.679 53.2528  14
  -2  -2  -5 190.423 36.9779   7
   2   2   5 343.293 68.5321   2
  -2  -2  -5 308.106 58.9915   5
  -2  -2  -5 239.751 59.4064   4
   2   2   5 295.547 61.7139  16
   2   2   5 292.817 64.5736  13
  -2  -2  -5 259.456 60.1788   1
  -2  -2  -6 601.520 89.7786   4
   2   2   6 697.291 97.7657  16
  -2  -2  -6 650.469 88.3330  15
   2   2   6 746.407 141.868   2
   2  -3  -1 2701.43 143.540   2
   2  -3  -1 2345.03 137.707   7
   2  -3  -1 3190.85 176.754   6
  -2   3   1 2728.78 149.404   1
  -2   3   1 2707.40 174.711  14
   2  -3  -1 3229.56 180.699   3
  -2   3   0 402.055 37.1756   4
   2  -3   0 367.180 53.1744  16
  -2   3   0 366.897 57.0890  15
  -2   3   0 308.516 57.3877  14
   2  -3   0 335.182 53.9917   6
  -2   3   0 401.599 64.2908  11
  -2   3   0 320.477 49.6596   1
   2  -3   0 373.971 59.2756   3
   2  -3   0 377.358 53.1332   2
   2  -3   0 349.842 46.2628   7
   2   3   1 126.651 47.3010   2
   2  -3   1 92.5817 27.1288   8
  -2   3  -1 26.4538 17.1939   4
  -2   3  -1 42.4219 24.4189  15
   2  -3   1 57.7058 29.6413  16
   2  -3   1 50.1555 22.6433   7
  -2  -3  -1 88.9756 41.1633   4
  -2   3  -1 33.5745 29.9379  14
  -2  -3  -1 78.0946 43.4796   8
   2  -3   1 72.2178 31.8751   6
  -2   3  -1 159.434 54.5141  11
  -2   3  -1 41.8428 26.3583   1
  -2  -3  -1 119.001 40.9238   1
   2  -3   1 59.3311 25.0997   2
   2  -3   1 39.2995 30.3923   3
  -2   3  -1 92.3324 28.4654  10
   2   3   1 101.746 42.8689   3
  -2  -3  -1 90.5169 35.8239   5
  -2  -3  -2 470.896 53.0778   8
   2  -3   2 574.649 72.0592   2
  -2  -3  -2 531.911 71.8181   4
   2  -3   2 565.647 72.2399  16
   2   3   2 489.668 62.4747  16
   2  -3   2 507.227 52.0428   7
  -2   3  -2 556.707 71.3024  15
  -2  -3  -2 516.280 65.9399   1
   2  -3   2 557.953 52.1621  13
   2   3   2 486.548 64.7074   2
   2  -3   2 585.228 75.7556   6
  -2  -3  -2 526.737 68.1688  15
  -2   3  -2 530.023 77.4060  14
   2   3   2 504.314 75.3196  12
  -2   3  -2 508.889 66.8609   1
  -2   3  -2 526.400 70.1511  11
   2   3   2 447.007 70.4901  13
  -2  -3  -2 483.229 65.5646   5
  -2   3  -2 486.068 50.2792  10
   2  -3   2 458.568 69.8066   3
   2   3   2 451.043 43.1135   3
  -2   3  -2 524.305 54.4738   9
   2  -3   2 501.834 50.1703   8
  -2   3  -3 48.7560 34.7178   1
  -2  -3  -3-10.2127 24.9010   8
   2  -3   3-22.6418 24.7723   8
   2  -3   3 188.660 46.8681  16
  -2  -3  -3-19.2967 26.0047   7
  -2   3  -3 43.2081 28.3521  15
   2   3   3 18.8544 34.5111  12
  -2  -3  -3 45.1192 39.8735   4
  -2   3  -3 11.3376 35.1501  14
  -2  -3  -3 44.6631 34.9434   1
   2  -3   3 92.1474 41.2228   2
   2   3   3 27.8751 39.1610  13
   2  -3   3 61.1368 37.3182   6
   2   3   3 2.44245 19.4925   3
   2   3   3 62.0770 35.9986  16
  -2  -3  -3 50.9018 32.5620  15
   2  -3   3-2.50449 30.3434   3
   2  -3   3 28.2796 25.4928  13
   2   3   3 26.8888 25.6105  10
   2   3   3 38.0702 32.4689   2
  -2  -3  -3 20.1289 30.3485   5
   2   3   3-11.0012 21.0243   9
   2  -3   4 1867.67 95.6336   8
  -2   3  -4 2166.01 155.333   1
  -2  -3  -4 1736.48 137.060   4
   2   3   4 1847.86 131.938   2
  -2  -3  -4 1680.99 110.704   7
   2  -3   4 1938.20 149.670  16
  -2  -3  -4 1967.10 136.647   1
  -2   3  -4 1943.39 141.543  15
  -2  -3  -4 1813.42 129.255  15
   2   3   4 1855.75 142.732  13
   2   3   4 1867.17 129.314  16
  -2  -3  -4 1828.57 91.8880  14
   2  -3   4 1595.61 205.982   6
  -2  -3  -4 1810.06 130.838   5
   2   3   4 1795.48 104.194  10
  -2  -3  -4 1705.65 101.624   8
   2  -3   4 2586.42 201.929   2
   2  -3   4 1865.28 150.902   3
   2   3   5 54.3056 46.2755  12
   2  -3   5-30.4517 92.1860  16
  -2   3  -5 140.784 65.5992  15
  -2  -3  -5 136.729 51.9451   4
   2   3   5 153.241 55.3574  13
  -2  -3  -5 89.3994 44.5563  15
  -2  -3  -5 99.0845 37.8339   7
  -2  -3  -5 206.608 40.9175  14
   2   3   5 82.8832 40.4085   2
  -2  -3  -5 131.189 51.3935   5
   2   3   5 99.1758 44.4344  16
  -2  -3  -5 179.336 55.5019   1
   2   3   5 29.6860 36.5830   9
  -2  -3  -6 0.56059 56.0552   4
   2   3   6 123.368 49.5664  16
   2   3   6 85.7340 68.5861   2
  -2  -3  -6 181.944 59.6330  15
  -2  -3  -6 42.5298 32.3389   7
  -2  -3  -6 112.976 35.6384  14
   2   3   6 159.450 65.2863  13
  -2  -3  -6 133.343 47.2650   5
   2   3   7 321.400 69.4420  16
  -2  -3  -7 276.202 53.5676   7
   2   3   7 315.974 79.4304  13
  -2  -3  -7 350.807 77.4065  15
   2  -4  -1 191.234 42.8494   7
  -2   4   1 157.897 52.3090  14
  -2   4   1 170.600 40.4490   1
  -2   4   1 182.156 24.0021   4
   2  -4  -1 248.983 58.4494   6
  -2   4   1 192.273 55.0114  11
   2  -4  -1 174.079 46.1720   3
   2  -4  -1 174.114 38.7033   2
  -2   4   0 1307.46 50.9346   4
   2  -4   0 1525.56 102.978   2
   2  -4   0 1458.97 103.534  16
   2  -4   0 1402.75 100.072   7
  -2   4   0 1435.66 105.025  15
  -2   4   0 1555.37 102.898   1
  -2   4   0 1360.02 117.832  14
   2  -4   0 1649.01 129.514   6
   2  -4   0 1515.22 121.520   3
  -2   4   0 1430.65 121.708  11
  -2   4   0 1544.52 113.681  10
   2  -4   0 1631.09 110.715   8
   2   4   1 33.7717 38.3928   2
   2  -4   1 48.0855 28.9336   8
   2  -4   1 33.8086 31.0485  16
  -2   4  -1-7.14647 26.1866  15
   2  -4   1 23.0863 25.8601   7
  -2  -4  -1-7.09528 40.4042   4
  -2   4  -1-5.60396 31.6252  14
  -2  -4  -1-25.5362 36.9172   1
   2   4   1 22.2865 43.0891  13
   2  -4   1-1.54904 33.5999   6
  -2  -4  -1 34.5930 43.8718   8
   2  -4   1 8.78847 26.1975   2
  -2   4  -1 41.2592 37.8260  11
  -2   4  -1 43.5303 30.7550  10
   2  -4   1 39.3592 38.6603   3
  -2   4  -1 29.3222 27.7650   9
  -2   4  -1-19.9558 26.8900   1
  -2  -4  -1 13.1516 35.7935   5
   2  -4   2 13.7698 24.4324   8
   2  -4   2 84.7731 40.2743  16
   2  -4   2 41.0620 31.6081   7
  -2   4  -2 52.1492 35.3600   1
  -2  -4  -2 53.6025 37.0299   4
  -2   4  -2 83.6702 44.6738  14
   2  -4   2 50.2914 35.5813   2
   2  -4   2 80.7803 24.9381  13
  -2   4  -2 85.1042 41.8250  15
  -2  -4  -2 71.6224 37.1018   1
   2   4   2 4.06948 35.2899  13
   2  -4   2 34.2716 33.6285   6
  -2  -4  -2 72.4417 33.8276   8
   2   4   2 20.6907 39.0974  12
  -2   4  -2 22.6341 33.5586  11
  -2   4  -2 74.6110 27.1794  10
   2  -4   2 45.8650 35.1469   3
   2   4   2 34.2483 17.9283   3
  -2   4  -2 30.8201 30.3650   9
   2   4   2 58.2378 35.0709   2
  -2  -4  -2 90.2773 44.3529   5
   2   4   3 558.457 72.2786   2
  -2   4  -3 528.474 74.0603  15
  -2  -4  -3 464.242 70.1108  15
   2   4   3 201.278 78.8914  12
   2  -4   3 549.131 85.1596   6
   2  -4   3 490.009 50.1339  13
  -2   4  -3 550.015 87.7382  14
   2   4   3 538.408 85.3768  13
  -2  -4  -3 497.284 69.7865   1
  -2  -4  -3 495.299 79.6110   4
   2  -4   3 543.561 74.3795  16
   2   4   3 516.376 67.7831  16
  -2   4  -3 555.295 75.9726   1
   2  -4   3 485.644 82.7490   3
  -2  -4  -3 442.360 81.4313   7
   2   4   3 179.122 78.6928   9
  -2  -4  -3 511.875 80.5506   5
   2  -4   3 644.164 96.9250   2
  -2  -4  -3 609.098 74.4013   8
   2  -4   3 554.146 64.7148   8
   2  -4   4 2653.47 137.803   8
  -2  -4  -4 2569.47 173.115   4
   2   4   4 2409.06 153.638   2
  -2  -4  -4 2617.15 155.230   1
   2  -4   4 2641.30 175.896  16
   2   4   4 2601.85 149.058  16
  -2  -4  -4 2293.92 148.315   7
   2  -4   4 2124.92 235.194   6
  -2   4  -4 2606.64 163.953  15
   2   4   4 2662.11 178.477  13
   2  -4   4 2649.27 193.487   3
  -2  -4  -4 2279.78 154.363  15
  -2  -4  -4 2634.93 172.768   5
   2   4   4 2457.18 139.557  10
  -2  -4  -4 2579.47 140.756   8
  -2  -4  -5 34.2730 33.5321   8
   2   4   5-77.4615 43.9419  16
  -2  -4  -5 0.44392 43.4209   4
   2   4   5 25.3161 52.1045  13
  -2  -4  -5 6.85662 37.2460  15
  -2  -4  -5 9.97521 32.2892   7
  -2  -4  -5 15.1241 20.3471  14
   2   4   5 8.27968 44.0606  12
  -2  -4  -5 70.2151 46.4636   1
   2   4   5 49.0607 33.4571  10
  -2  -4  -5 36.9915 40.5209   5
   2   4   5 10.5200 30.2435   9
   2   4   5 31.1098 44.4456   2
  -2  -4  -6 70.9076 53.6449   4
   2   4   6 92.7721 54.1275  16
   2   4   6 42.7050 72.3152   2
   2   4   6 35.2131 51.1074  12
  -2  -4  -6 50.7086 43.8154   7
   2   4   6 126.133 60.8369  13
  -2  -4  -6 90.7431 58.6996  15
  -2  -4  -6 152.383 62.7996   5
   2   4   7 342.815 79.4399  16
  -2  -4  -7 178.949 53.8947   7
   2   4   7 296.194 79.7245  13
  -2  -4  -7 225.030 75.8115  15
   2  -5  -2 3292.66 154.494   2
  -2   5   2 3353.39 163.313   1
   2  -5  -2 3788.86 225.132   6
   2  -5  -2 3690.06 210.948   3
   2  -5  -2 3428.06 199.653   7
   2  -5  -1 50.0936 39.8883   8
  -2   5   1 29.5272 27.1494   1
   2  -5  -1 54.4227 36.2173   7
  -2   5   1 80.6042 45.9780  14
   2  -5  -1 83.4089 49.9144   6
  -2   5   1 116.889 50.9511  11
  -2   5   1 40.6463 31.5444  10
   2  -5  -1-12.3498 30.6588   2
   2  -5  -1 72.7907 43.0162   3
   2  -5   0 4420.12 175.170   2
   2  -5   0 3851.94 171.574  16
  -2   5   0 4327.50 171.359   1
  -2   5   0 4153.35 181.754  15
  -2   5   0 4338.27 220.897  14
   2  -5   0 4532.64 222.801   3
  -2   5   0 3943.44 126.538  12
   2  -5   0 4455.97 226.271   6
  -2   5   0 4281.84 223.074  11
   2  -5   0 4268.10 195.329   7
  -2   5   0 4213.09 201.210  10
   2  -5   0 4294.11 193.720   8
   2  -5   1 1303.29 102.686   2
   2  -5   1 1484.81 111.792  16
  -2   5  -1 1410.05 102.315   1
  -2   5  -1 1311.78 105.811  15
  -2  -5  -1 759.267 113.691   4
   2  -5   1 1539.43 138.397   6
   2  -5   1 1483.31 117.918   7
  -2   5  -1 1402.83 132.483  14
  -2   5  -1 1494.04 136.718  11
  -2   5  -1 1378.06 114.019  10
  -2   5  -1 1376.38 114.681   9
   2  -5   1 1426.53 132.038   3
   2  -5   1 1372.09 108.283   8
  -2  -5  -1 842.116 133.463   5
   2  -5   2 67.9020 40.6980   8
  -2  -5  -2 83.4137 41.7456   8
   2  -5   2 107.517 41.1670  16
   2  -5   2 37.9197 35.1002   7
  -2  -5  -2 70.2590 45.5157   4
  -2   5  -2 112.852 42.3650  15
   2   5   2 87.0441 45.5128  13
   2  -5   2 89.9754 51.3338   6
  -2   5  -2 184.776 51.5165   1
   2   5   2 55.3737 62.2013  12
  -2   5  -2 78.3994 50.4233  11
   2  -5   2 150.896 56.3689   3
   2  -5   2 145.126 51.3700   2
  -2   5  -2 110.380 41.5925  10
  -2  -5  -2 63.8792 37.2585   1
  -2   5  -2 184.699 57.5534  14
   2   5   2 108.799 38.4000   2
  -2   5  -2 146.073 48.8649   9
  -2  -5  -2 112.614 52.5364   5
  -2  -5  -3 531.502 74.7901   1
  -2  -5  -3 480.409 73.7705   8
   2  -5   3 500.200 71.9785   8
  -2  -5  -3 433.955 95.7632   7
  -2   5  -3 537.640 77.0247  15
  -2   5  -3 568.040 95.0412  14
   2  -5   3 402.954 43.4352  13
   2  -5   3 554.753 94.9814   6
   2   5   3 449.472 82.0215  13
   2  -5   3 607.129 84.3052  16
   2  -5   3 447.984 84.1207   3
   2   5   3 214.275 90.9355  12
  -2  -5  -3 524.157 90.5334   4
   2   5   3 467.038 69.9728   2
  -2  -5  -3 512.162 85.6044   5
   2   5   3 206.065 91.0440   9
   2   5   4-14.8388 48.2068  13
  -2  -5  -4 45.7944 40.0140   8
   2  -5   4 47.1625 42.0620   8
   2  -5   4 27.4080 41.6346  16
  -2  -5  -4-47.0311 41.2422  15
   2   5   4-36.1309 35.7598  16
  -2  -5  -4-1.52103 39.8144   7
  -2  -5  -4 55.0173 41.5522   1
  -2   5  -4 7.25549 36.7930  15
  -2   5  -4 6.77976 49.9152  14
   2  -5   4 71.8550 77.9786   6
  -2  -5  -4 28.4166 46.7257   4
   2  -5   4 35.1515 51.6624   3
   2   5   4-28.8701 34.2549   2
   2   5   4 3.22833 48.9209  12
   2   5   4 6.47215 36.2345  10
  -2  -5  -4-8.03827 48.2025   5
   2   5   4 19.2043 37.0065   9
  -2  -5  -6 1636.56 161.398   4
   2   5   6 1343.25 125.236  16
   2   5   6 1595.94 164.645  13
  -2  -5  -6 1678.04 163.835   5
  -2  -5  -7-21.2722 48.2051  15
  -2  -5  -7-33.1837 55.7283   4
   2   5   7 68.9174 62.0782  16
  -2  -5  -7-6.87108 44.0486   7
   2   5   7-65.8125 65.6489  13
   2   5   7 10.8359 55.2983  12
  -2  -5  -7 46.8766 53.7083   5
   2  -6  -2 816.067 73.8484   2
  -2   6   2 797.307 72.0378   1
   2  -6  -2 946.840 121.681   6
   2  -6  -2 922.344 111.662   3
   2  -6  -2 894.154 111.052   7
   2  -6  -1 477.228 80.7470   8
   2  -6  -1 481.559 63.6833   2
   2  -6  -1 528.395 85.4470   7
  -2   6   1 410.117 82.0717  14
  -2   6   1 467.021 59.7663  12
   2  -6  -1 526.543 93.4573   6
  -2   6   1 475.350 89.8243  11
  -2   6   1 474.658 85.2544  10
  -2   6   1 459.740 59.3125   1
   2  -6  -1 467.712 82.3495   3
   2  -6   0 142.763 50.5783   8
  -2   6   0 206.022 50.2517   1
   2  -6   0 82.4017 45.0548   7
  -2   6   0 77.8365 52.8359  14
   2  -6   0 140.619 40.9745   2
   2  -6   0 173.898 58.9371   6
  -2   6   0 107.819 58.8940  11
   2  -6   0 193.463 60.2569   3
  -2   6   0 83.6805 43.6035  10
  -2   6   0 117.836 48.7172   9
   2  -6   1 218.328 60.1468   8
   2  -6   1 318.727 78.1328   2
   2  -6   1 82.0315 43.8734   7
  -2   6  -1 196.109 63.2314  14
   2  -6   1 128.718 47.2819  16
   2  -6   1 185.695 67.6134   6
  -2   6  -1 172.542 48.9841   1
  -2   6  -1 149.164 62.7219  11
   2  -6   1 96.5344 48.2826   3
  -2   6  -1 84.5414 44.4122  10
  -2   6  -1 127.421 47.9281  15
  -2   6  -1 184.308 56.2516   9
  -2  -6  -2 41.6967 39.7911   1
   2  -6   2-6.05105 39.9279   8
   2  -6   2 81.3724 49.3708   7
  -2   6  -2-1.89449 35.1963  15
  -2  -6  -2 20.3483 47.3744   4
   2  -6   2 25.3239 34.0924  16
   2  -6   2 113.789 56.8743   6
   2   6   2 4.69921 57.1028  13
   2  -6   2 85.8697 58.3662   3
  -2   6  -2 49.0209 51.0828  11
  -2   6  -2 76.4628 46.7633  14
  -2   6  -2 75.4270 43.1079  10
  -2  -6  -2-40.0644 52.7971   8
   2   6   2-58.2901 47.5823   2
  -2   6  -2-28.1033 44.7241   9
  -2  -6  -2 135.756 67.4786   5
  -2  -6  -3 43.0466 47.3452   8
   2  -6   3-10.0158 42.1045   8
   2  -6   3 8.37997 42.3530  16
  -2   6  -3 59.4625 44.4075  15
  -2  -6  -3-9.51309 49.5411   4
  -2   6  -3 67.3893 58.2042  14
  -2  -6  -3 50.8150 53.0146   7
   2  -6   3-1.14898 48.4181   6
   2   6   3-19.6330 46.5398  13
   2  -6   3-5.11395 51.5161   3
   2   6   3-0.14068 47.8513  12
   2   6   3-47.5275 43.8845   2
  -2  -6  -3-0.96342 40.9797   1
  -2  -6  -3-35.0686 52.5562   5
   2   6   3-32.3353 52.6282   9
  -2  -6  -4 68.1444 51.1172   7
  -2  -6  -4 157.977 61.3918   8
   2  -6   4 123.633 60.6886   8
   2  -6   4 142.329 79.4653  16
  -2   6  -4 148.420 62.4797  15
  -2  -6  -4 142.881 61.1843   4
  -2   6  -4 57.6661 70.6624  14
   2   6   4 103.368 45.7157   2
   2   6   4 93.3396 58.6815  13
   2   6   4 66.4408 62.5171  12
   2   6   4 45.6775 44.9329  10
  -2  -6  -4 164.413 56.1252   1
  -2  -6  -4 213.129 74.2611   5
   2   6   4 57.8029 73.2673   9
  -2  -6  -5 662.125 98.2606   8
   2   6   5 645.543 110.029  13
   2   6   5 755.484 90.5874  16
  -2  -6  -5 733.174 114.782   4
  -2  -6  -5 652.680 95.1391  15
   2   6   5 876.003 135.671   2
  -2  -6  -5 486.298 101.957   7
   2   6   5 634.750 98.9556  10
  -2  -6  -5 664.375 108.572   5
   2   6   5 217.680 97.0206   9
   2   6   5 265.439 111.677  12
  -2  -6  -6 1624.58 170.669   4
   2   6   6 1686.35 137.788  16
  -2  -6  -6 1316.49 131.615  15
   2   6   6 1711.70 174.348  13
  -2  -6  -6 1696.14 173.040   5
  -2  -6  -6 1189.92 130.132   8
  -2  -6  -7 74.0014 62.1710   4
  -2  -6  -7 14.9480 44.1826   7
  -2  -6  -7-0.10877 59.2533  15
   2   6   7-49.3907 65.6441  13
   2   6   7 22.3474 71.3580  12
  -2  -6  -7 94.1098 70.2902   5
   2   6   7 7.25666 44.4740   9
   2  -7  -3 51.7688 61.6915   7
   2  -7  -3-38.1639 64.6991   6
   2  -7  -3 98.6493 63.0242   3
   2  -7  -2 113.126 53.9845   8
   2  -7  -2 220.134 74.0679   7
  -2   7   2 160.593 50.2315  12
   2  -7  -2 149.482 71.1536   6
  -2   7   2 217.307 79.9192  11
  -2   7   2 126.010 59.8808  10
   2  -7  -2 146.130 55.7883   3
  -2   7   1 991.619 127.804  14
   2  -7  -1 939.985 129.212   6
   2  -7  -1 921.198 117.674   3
  -2   7   1 948.468 132.712  11
  -2   7   1 956.112 124.482  10
   2  -7  -1 938.223 119.463   7
  -2   7   1 856.666 115.928   9
   2  -7  -1 843.089 113.985   8
   2  -7   0 136.901 60.7475   8
   2  -7   0-12.4136 52.9455   7
  -2   7   0-38.5507 44.8395  14
   2  -7   0 28.1191 52.2285   6
  -2   7   0 82.2871 69.9547  11
   2  -7   0 36.6765 53.0696   3
  -2   7   0-18.3113 45.5509  10
  -2   7   0-17.9109 43.4746   9
   2  -7   1 410.582 80.9760   8
   2  -7   1 268.153 70.4855   7
   2  -7   1 344.384 73.7470  16
  -2   7  -1 363.624 85.5368  14
   2  -7   1 409.759 102.297   6
   2  -7   1 344.833 83.1245   3
  -2   7  -1 362.214 91.3845  11
  -2   7  -1 318.012 75.9333  10
  -2   7  -1 500.169 93.4824   9
   2  -7   2-41.7835 50.6018   8
  -2  -7  -2-36.9438 63.1655   8
  -2   7  -2-29.2697 48.4859  15
  -2  -7  -2-41.1516 71.7439   4
  -2   7  -2-29.0900 48.5323  14
   2  -7   2 64.6307 66.0636   7
   2  -7   2-11.1121 53.1184   6
   2  -7   2-57.4496 45.8539  16
   2  -7   2-14.6727 50.6853   3
  -2   7  -2 23.6731 57.4784  11
  -2   7  -2-130.382 66.6633  10
  -2   7  -2 95.0394 63.8729   9
  -2  -7  -2-38.6753 81.0094   5
  -2  -7  -3 1155.49 141.214   4
  -2   7  -3 1526.57 145.831  15
   2  -7   3 1145.14 140.870  16
   2   7   3 1391.80 165.133  13
  -2   7  -3 1399.34 175.245  14
   2   7   3 571.752 151.433  12
   2  -7   3 1300.02 183.259   6
  -2  -7  -3 1208.90 152.074   5
  -2  -7  -3 971.858 121.374   8
   2  -7   3 947.059 125.773   8
  -2  -7  -4-39.5444 58.8544   8
  -2  -7  -4 113.929 84.4770   7
  -2  -7  -4 16.5958 58.0729   4
   2   7   4-9.37598 57.9174  13
   2   7   4-44.7475 66.8375  12
   2   7   4-3.39031 51.3204  10
  -2  -7  -4-1.75032 54.7547   5
   2   7   4-6.62659 46.4076   9
  -2  -7  -5 623.266 105.252   8
  -2  -7  -5 406.935 108.591   7
   2   7   5 710.035 117.764  13
   2   7   5 279.157 125.410  12
   2   7   5 625.174 107.290  10
  -2  -7  -5 578.941 111.038   4
  -2  -7  -5 598.239 111.805   5
   2   7   5 248.104 118.039   9
  -2  -7  -6 434.922 94.1833   8
  -2  -7  -6 414.818 105.096   4
  -2  -7  -6 215.961 89.6366   7
   2   7   6 343.919 100.444  13
   2   7   6 160.503 104.678  12
  -2  -7  -6 236.143 88.5910   5
   2   7   6 212.641 68.5181  10
   2   7   6 107.137 84.5420   9
  -2  -7  -7 269.860 89.4590   4
  -2  -7  -7 112.635 66.2261   7
   2   7   7 417.326 117.325  13
   2   7   7 55.6944 99.0655  12
  -2  -7  -7 392.890 110.218   5
   2   7   7 60.8019 82.1125   9
   2  -8  -3-75.3221 66.1789   7
   2  -8  -3 77.4724 81.5294   6
   2  -8  -3-48.8177 49.3954   3
   2  -8  -2 53.3859 62.3457   8
   2  -8  -2-20.0170 51.6646   7
   2  -8  -2 12.7867 55.7049   6
  -2   8   2-24.9767 65.0084  11
   2  -8  -2-120.377 63.8984   3
  -2   8   2-16.8710 55.4370  10
   2  -8  -1 53.9621 51.2319   8
   2  -8  -1 35.9576 57.1434   7
  -2   8   1 64.1337 57.7518  14
   2  -8  -1 73.7583 66.6627   6
  -2   8   1 37.7315 68.0198  11
   2  -8  -1 162.238 71.4392   3
  -2   8   1 78.7333 64.1145  10
  -2   8   1 47.7179 58.9671   9
   2  -8   0 128.392 61.3992   8
  -2   8   0 97.8614 59.4232  14
   2  -8   0 144.027 56.7115   7
   2  -8   0 14.7794 57.9616   6
   2  -8   0 141.859 69.8456   3
  -2   8   0 96.3189 77.2060  11
  -2   8   0 40.2686 52.4197  10
  -2   8   0 105.925 67.9274   9
   2  -8   1-2.87906 55.2340   8
   2  -8   1 65.8020 58.1983   3
  -2   8  -1 181.158 71.5706  14
   2  -8   1-31.8679 48.7942   7
   2  -8   1 98.8296 66.1312   6
  -2   8  -1-80.9106 72.2096  11
  -2   8  -1-78.7208 66.1837  10
  -2   8  -1 10.0478 49.2286   9
   2  -8   2 113.740 72.8000   8
  -2  -8  -2 75.3479 92.7186   8
  -2  -8  -2-55.8856 141.363   4
  -2   8  -2 145.877 74.0043  14
   2  -8   2 200.764 88.1767   6
   2  -8   2 204.389 78.9004   3
  -2   8  -2 117.290 82.8972  11
  -2   8  -2 158.399 67.1022  10
  -2  -8  -2-33.8088 132.666   5
  -2  -8  -3 1905.16 205.204   4
  -2   8  -3 1570.75 231.064  14
   2  -8   3 1034.37 196.483   6
  -2   8  -3 1784.12 218.840  11
  -2  -8  -3 1782.37 211.906   5
   2   8   3 1360.97 182.701  10
  -2  -8  -3 1697.16 180.988   8
  -2  -8  -4 109.369 65.6973   8
  -2  -8  -4 129.567 78.0140   4
   2   8   4 56.9488 68.6215  13
  -2  -8  -4 59.2214 82.4781   7
   2   8   4 14.8852 58.6316  12
   2   8   4 39.1661 63.2090  10
  -2  -8  -4 0.17140 66.1947   5
   2   8   4 51.3391 75.8029   9
  -2  -8  -5 13.0123 54.9779   8
  -2  -8  -5 62.6916 73.1085   7
   2   8   5-28.6151 63.0358  13
   2   8   5 10.3116 76.1627  12
  -2  -8  -5 121.821 73.3938   4
   2   8   5 124.130 80.3651  10
  -2  -8  -5 100.356 79.0540   5
   2   8   5 67.1647 88.0806   9
  -2  -8  -6 76.1900 65.4816   8
  -2  -8  -6-81.0508 78.6778   4
  -2  -8  -6-0.85073 56.2917   7
   2   8   6-7.65982 64.4346  13
   2   8   6 28.9676 73.3275  12
  -2  -8  -6-66.1018 83.7702   5
   2   8   6-73.1559 68.8031  10
   2   8   6-59.4925 55.7319   9
  -2  -8  -7 320.680 107.508   7
   2   8   7 557.065 120.980  13
   2   8   7 307.823 152.770  12
   2   8   7 98.8886 98.9895   9
   2   8   8-9.64122 80.4142  12
  -2  -8  -8 7.37144 73.6951   5
   2  -9  -3-122.101 82.3696   7
   2  -9  -3 0.20871 67.1512   6
   2  -9  -3-54.6921 51.1860   3
  -2   9   3 36.9886 70.6897   9
   2  -9  -2 896.109 143.727   8
   2  -9  -2 971.354 147.770   7
   2  -9  -2 1034.03 158.092   6
  -2   9   2 888.044 146.915  11
   2  -9  -2 891.420 125.233   3
  -2   9   2 937.807 157.934  10
  -2   9   2 887.480 141.493   9
   2  -9  -1-45.4707 64.7746   8
  -2   9   1 53.2821 60.1803  14
   2  -9  -1 117.248 70.8080   7
   2  -9  -1 85.2725 72.8113   6
   2  -9  -1 197.660 82.6208   3
  -2   9   1 196.219 91.4806  11
  -2   9   1 44.0799 69.0679  10
  -2   9   1 134.174 72.8954   9
   2  -9   0 84.7824 68.3697   8
   2  -9   0 85.0079 71.1167   7
  -2   9   0 47.9714 63.8020  14
   2  -9   0-84.3275 69.4197   6
   2  -9   0 139.223 74.0624   3
  -2   9   0 92.6355 84.5167  11
  -2   9   0 22.7277 57.4028  10
  -2   9   0-8.04021 57.8397   9
   2  -9   1-23.1191 57.6714   8
   2  -9   1 87.4831 72.0147   7
  -2   9  -1 208.517 91.1054  14
   2  -9   1-54.7347 73.6463   6
   2  -9   1 121.590 79.5620   3
  -2   9  -1 34.4993 73.9236  11
  -2   9  -1-6.04518 63.1613  10
  -2   9  -1 11.5194 68.0088   9
   2  -9   2 120.393 83.8182   8
  -2   9  -2-11.8485 75.2041  14
   2  -9   2-6.78789 88.8390   6
  -2   9  -2 131.101 94.8270  11
  -2   9  -2 113.786 67.9403  10
  -2  -9  -3 221.502 103.641   8
  -2  -9  -3-35.4258 128.273   4
   2   9   3-50.4296 89.5054  10
  -2  -9  -3 25.0999 107.781   5
  -2  -9  -4-29.3723 63.5738   8
  -2  -9  -4-84.2067 101.410   4
   2   9   4-3.07436 75.2613  10
  -2  -9  -4-30.9880 83.5312   5
  -2  -9  -5 50.7810 69.6201   8
  -2  -9  -5-243.108 111.776   4
  -2  -9  -5 0.23593 77.1326   7
   2   9   5-39.3306 72.1189  13
   2   9   5-27.8472 78.6442  12
   2   9   5 27.8422 69.9405  10
  -2  -9  -5-91.3582 85.3871   5
   2   9   5-44.0462 90.2798   9
  -2  -9  -6 57.5429 70.3789   8
  -2  -9  -6-29.5576 77.8035   4
  -2  -9  -6 24.7879 84.9912   7
   2   9   6-7.07473 73.7743  13
   2   9   6-41.9099 71.2251  12
  -2  -9  -6 68.3639 77.8408   5
   2   9   6 31.7859 80.7681  10
   2   9   6 15.0639 69.7685   9
  -2  -9  -7 124.486 82.2467   7
   2   9   7 204.512 96.4271  13
   2   9   7 137.594 125.296  12
  -2  -9  -7 236.581 104.296   5
   2   9   7 136.638 115.158   9
   2   9   8 55.8414 121.216  12
  -2  -9  -8-11.7646 77.5901   5
   2 -10  -3 45.1980 89.3634   7
   2 -10  -3-31.2040 81.7022   6
  -2  10   3 53.6756 72.4105   9
   2 -10  -2 242.787 98.6101   8
   2 -10  -2 338.980 106.448   7
   2 -10  -2 344.746 114.155   6
  -2  10   2 302.784 106.612  11
  -2  10   2 406.436 117.370  10
  -2  10   2 468.944 122.095   9
   2 -10  -1 30.5630 68.1957   8
   2 -10  -1 24.1790 65.1797   7
   2 -10  -1-44.7840 74.2248   6
   2 -10  -1 54.0622 67.2047   3
  -2  10   1 4.32577 70.3254  11
  -2  10   1-9.76527 75.9577  10
  -2  10   1 34.6185 69.7323   9
   2 -10   0-84.6255 74.2970   8
   2 -10   0 0.40189 69.3258   7
  -2  10   0-73.6146 105.822  14
   2 -10   0 77.9605 76.1474   6
  -2  10   0 59.2280 79.3009  11
  -2  10   0 83.1329 77.0469  10
  -2  10   0 58.3539 75.6667   9
   2 -10   1 690.764 143.866   8
  -2  10  -1 492.242 138.236  14
   2 -10   1 628.936 148.737   6
  -2  10  -1 863.722 177.693  11
  -2  10  -1 658.292 141.939  10
   2 -10   2 188.835 140.809   6
  -2  10  -2 486.847 199.839  11
  -2 -10  -4 33.6120 85.7136   8
  -2 -10  -4-124.310 164.415   4
   2  10   4 32.8669 90.0317  10
  -2 -10  -4-20.0669 117.339   5
  -2 -10  -5-105.072 78.7443   8
  -2 -10  -5-230.807 147.582   4
   2  10   5-10.9322 81.0785  10
  -2 -10  -5 90.1670 95.5820   5
  -2 -10  -6-123.129 86.9701   8
  -2 -10  -6-35.5397 91.5476   4
   2  10   6-113.967 113.627  13
   2  10   6 50.9604 84.6999  12
  -2 -10  -6 31.3570 82.1546   7
  -2 -10  -6-143.419 111.910   5
   2  10   6 30.7929 74.2709  10
   2  10   6-10.4818 74.3355   9
   2 -11  -3 37.0800 96.6012   7
   2 -11  -3 115.815 88.1358   6
  -2  11   3 40.7847 81.5621   9
   2 -11  -2 19.8222 70.2068   8
   2 -11  -2-38.6242 78.8972   7
   2 -11  -2 87.5781 89.8620   6
  -2  11   2 66.2889 80.1534  10
  -2  11   2 192.651 93.6009   9
   2 -11  -1 90.3647 82.8629   8
   2 -11  -1 108.828 86.9983   7
   2 -11  -1 30.4003 75.8645   6
  -2  11   1 231.378 117.671  11
  -2  11   1 244.231 115.651  10
  -2  11   1 147.663 100.400   9
   2 -11   0-0.74459 78.5751   8
   2 -11   0 70.3792 79.1653   7
   2 -11   0-103.528 104.631   6
  -2  11   0 54.6053 93.3645  11
  -2  11   0-143.070 97.4600  10
  -2  11   0-38.4469 78.9926   9
   2 -11   1-96.8403 138.019   6
  -2  11  -1 26.8071 117.653  11
   3   0   1 3.68383 31.5919  16
  -3   0  -1 31.9402 32.1199  15
  -3   0  -1-1.07294 37.3017   4
  -3   0  -1-28.6216 40.3759   1
   3   0   1 14.7260 27.3616   6
   3   0   1 23.2808 38.3034   3
   3   0   1-21.2658 35.0903   2
  -3   0  -1-26.1141 38.0349   5
  -3   0  -2 1052.07 107.140   4
   3   0   2 1009.94 110.617  16
   3   0   2 994.668 109.407   2
  -3   0  -2 1173.57 121.494  14
  -3   0  -2 1174.71 125.502  15
  -3   0  -2 1114.98 121.048   1
   3   0   2 1125.39 81.8686   6
   3   0   2 1171.93 118.660  13
   3   0   2 1077.61 108.093   3
  -3   0  -2 930.598 74.1833   5
  -3   0  -3-39.5391 46.1124  15
  -3   0  -3 9.41043 39.0156   4
  -3   0  -3 12.6498 34.5832  14
   3   0   3-34.0370 42.3022  16
  -3   0  -3-5.30370 44.6485   1
   3   0   3 15.1226 36.2110  13
   3   0   3-42.0443 28.0997   6
   3   0   3-47.5488 43.1964   2
   3   0   3-80.0811 49.9623   3
  -3   0  -3 7.45025 27.6244   5
  -3   0  -4-12.2161 41.7705   4
  -3   0  -4-36.4590 53.4242  15
  -3   0  -4 54.1098 42.4580  14
   3   0   4-20.1260 42.9465  13
   3   0   4 17.4004 45.2845  16
   3   0   4 67.7163 52.3394   2
   3   0   4 76.8051 48.0993   3
  -3   0  -4 18.2961 29.1977   5
  -3   0  -4 9.90516 45.1198   1
   3   0   5 33.5459 49.3919  16
  -3   0  -5 8.14830 47.1135  15
  -3   0  -5-61.0358 49.8806  14
  -3   0  -5 62.5253 55.1260   1
   3   0   5 16.5148 46.2231  13
   3   0   5-59.1584 56.4338   2
   3   0   5 47.2882 50.5118   3
   3   0   5 31.3640 31.2976  12
  -3   0  -5-12.7054 46.0743   4
   3   0   6 2499.64 202.390  16
  -3   0  -6 2151.02 179.394  15
  -3   0  -6 2334.18 178.795  14
   3   0   6 2686.93 207.402  13
   3   0   6 2617.77 172.561  12
   3   0   6 2458.63 213.279   2
   3   0   7 15.0240 79.6601   2
  -3   0  -7 19.9368 49.1455  14
  -3   0  -7 0.78165 56.6632  15
  -3   0  -7-15.4560 57.7685   1
   3   0   7 77.4097 87.7643  13
   3   0   7 33.5595 91.2712  12
   3   0   7 12.9734 78.5161  16
   3  -1   1-24.1187 38.6292  16
  -3  -1  -1 2.97474 44.2865   1
  -3   1  -1-33.9905 41.2339   1
  -3   1  -1 22.8251 38.0103  15
  -3   1  -1-13.0555 35.4429   4
   3  -1   1 0.86239 17.5116   7
  -3  -1  -1-1.56497 44.3679   4
  -3   1  -1 46.3414 49.1830  14
   3  -1   1-3.28547 27.4532   6
   3  -1   1-20.4655 38.0274   3
   3   1   1-7.63160 33.7939   3
   3  -1   1-19.0633 33.8148   2
  -3   1  -1 0.34031 20.7942   5
   3   1   1-39.8384 48.1189   2
   3   1   2 819.388 103.970   2
   3  -1   2 332.400 66.3019  16
  -3   1  -2 410.537 78.8898   1
  -3   1  -2 393.803 77.5911  15
  -3  -1  -2 558.502 90.1004  15
  -3   1  -2 378.734 67.8375   4
  -3  -1  -2 492.883 82.1883   4
  -3   1  -2 381.550 75.2122  14
   3  -1   2 438.542 75.8762  13
   3  -1   2 401.286 58.8198   6
  -3  -1  -2 664.271 97.5158   1
  -3   1  -2 390.757 43.8182   5
  -3  -1  -2 528.145 71.8210   5
   3  -1   2 348.510 67.8573   3
   3  -1   2 396.346 74.2804   2
  -3   1  -3 3189.90 173.826   4
  -3  -1  -3 3149.86 191.546   4
   3  -1   3 3130.18 193.583   2
   3   1   3 3449.06 204.082   2
   3   1   3 3145.24 195.536  16
  -3   1  -3 3332.85 209.259  15
  -3   1  -3 3360.58 207.548   1
  -3  -1  -3 3217.45 202.955  15
  -3  -1  -3 3294.20 207.671   1
   3   1   3 3286.09 198.792  13
   3  -1   3 3187.47 198.589  16
  -3   1  -3 3198.87 197.827  14
  -3  -1  -3 3341.26 187.367  14
   3   1   3 3148.10 116.021   6
   3  -1   3 3285.97 155.950   6
   3  -1   3 3491.87 206.151   3
   3  -1   3 3370.82 188.757  13
   3   1   3 3366.08 181.773   3
  -3   1  -3 3560.15 132.085   5
  -3  -1  -3 3345.47 162.594   5
   3  -1   4 339.044 77.0664  16
   3   1   4 271.356 74.0380  16
  -3  -1  -4 223.549 66.5725   4
  -3   1  -4 268.958 68.7305  15
  -3   1  -4 252.639 68.8656  14
  -3  -1  -4 266.914 63.5037  14
  -3  -1  -4 260.458 82.3492  15
   3  -1   4 336.280 71.8464   6
   3  -1   4 220.299 60.6329  13
   3   1   4 256.767 68.9141  13
   3   1   4 243.606 55.8009  12
   3  -1   4 304.157 77.6383   2
  -3   1  -4 249.068 69.2203   1
   3   1   4 214.733 58.2731   3
   3   1   4 231.379 72.5083   2
   3  -1   4 243.349 65.3834   3
  -3   1  -4 360.163 59.5751  11
  -3   1  -4 290.199 68.6709   4
  -3  -1  -4 277.078 57.8799   5
  -3  -1  -4 71.3242 88.5117   1
  -3   1  -5 178.955 64.6194   1
  -3   1  -5 197.301 61.0205   4
   3  -1   5 268.982 72.6261  16
   3   1   5 218.965 66.5755  16
  -3   1  -5 61.3347 47.2756  15
  -3  -1  -5 216.947 73.3878  15
  -3   1  -5 128.005 48.5625  14
  -3  -1  -5 12.2431 67.2552   1
  -3  -1  -5 285.097 68.2824  14
   3  -1   5 288.807 74.0116  13
   3   1   5 209.371 63.5501  13
   3  -1   5 181.128 67.3133   2
   3   1   5 0.12208 63.3170   2
   3   1   5 273.565 73.4937   3
   3  -1   5 226.839 69.6572   3
   3   1   5 216.478 56.2865  12
   3  -1   5 166.838 49.6906  12
  -3   1  -5 244.319 53.4412  11
  -3  -1  -5-8.01824 66.2926   4
  -3  -1  -5 3.49955 53.1595   5
  -3  -1  -6 43.4685 103.116   4
   3  -1   6 487.902 108.055  16
   3   1   6 656.531 105.608  16
  -3   1  -6 345.145 83.5415  15
   3  -1   6 552.810 109.069   2
  -3   1  -6 397.686 82.5320  14
  -3  -1  -6 523.419 85.9026  14
   3   1   6 358.960 104.384   2
  -3  -1  -6 531.126 97.9689  15
   3  -1   6 733.580 120.925  13
   3   1   6 569.080 101.966  13
   3   1   6 757.680 106.806  12
  -3   1  -6 520.644 68.6195  11
  -3   1  -6 592.772 104.560   1
  -3  -1  -6 141.315 108.794   1
   3  -1   7-229.168 173.325  16
   3   1   7 52.0681 72.6859  16
   3   1   7 46.7329 81.3768   2
  -3   1  -7 196.054 100.095  15
  -3  -1  -7 39.7596 49.7963  15
  -3  -1  -7 64.5395 52.4083  14
   3  -1   7-248.481 172.659  13
   3   1   7 50.0260 66.1731  13
  -3  -1  -7-27.7856 62.8566   1
   3  -1   7-25.1132 97.0901   2
   3   1   7-183.306 103.995  12
  -3   2   0 379.446 81.6739   1
  -3   2   0 295.865 57.9667   4
   3  -2   0 341.704 77.1127   3
   3  -2   0 346.821 70.3070   2
   3  -2   1 139.859 50.1436  16
  -3   2  -1 150.884 55.4067  15
  -3   2  -1 225.557 53.1592   4
   3  -2   1 111.899 25.1789   7
  -3   2  -1 207.482 62.5144  14
   3  -2   1 168.633 48.6889   6
  -3   2  -1 102.547 52.5568   1
   3  -2   1 153.806 53.3808   2
   3  -2   1 166.629 55.2844   3
  -3   2  -1 173.562 24.9042   5
   3  -2   2 27.0192 38.9991  16
   3   2   2-42.7757 36.0380  16
  -3   2  -2-26.8728 36.1198   4
  -3   2  -2 14.6788 38.2105  15
  -3  -2  -2 12.6493 40.4048  15
  -3  -2  -2 33.5619 52.0051   4
  -3   2  -2 13.1343 44.9989  14
  -3  -2  -2-8.25941 22.5630   8
   3  -2   2 93.8664 44.4375  13
   3   2   2-2.18925 42.5460  13
   3  -2   2-20.1939 34.0515   6
   3   2   2-2.40939 17.2412   6
  -3  -2  -2 0.93074 52.0511   1
   3  -2   2 49.9391 44.1456   2
   3  -2   2-8.62512 38.3109   3
  -3   2  -2-48.1386 46.4130   1
   3   2   2-18.2158 34.4270   3
   3   2   2 73.4281 50.9500   2
  -3  -2  -2-13.3332 37.8591   5
  -3   2  -3 1789.95 123.881   4
  -3  -2  -3 2098.03 166.276   4
   3  -2   3 1834.74 152.674   2
   3   2   3 1999.64 158.625   2
   3  -2   3 1953.98 159.915  16
  -3   2  -3 1927.58 156.852   1
  -3   2  -3 2065.73 169.340  15
  -3  -2  -3 2006.84 162.597  15
  -3  -2  -3 1868.43 155.911   1
   3  -2   3 1926.25 134.927  13
  -3   2  -3 2106.47 168.024  14
   3  -2   3 2027.48 138.009   6
   3  -2   3 1938.25 160.696   3
   3   2   3 1864.30 128.212   3
   3   2   3 1717.74 151.702  13
   3   2   3 1824.60 149.912  16
  -3   2  -3 2007.53 136.665  11
  -3   2  -4 1363.07 115.737   4
   3  -2   4 1359.93 138.018   2
   3   2   4 1361.32 140.392   2
   3  -2   4 1460.30 143.587  16
  -3   2  -4 1358.59 137.028   1
   3   2   4 1429.55 136.912  16
  -3   2  -4 1418.55 142.383  15
  -3  -2  -4 1406.62 141.775  15
  -3   2  -4 1431.18 143.079  14
  -3  -2  -4 1478.35 124.510  14
   3  -2   4 1428.16 122.212   6
   3   2   4 1334.39 116.649   3
   3  -2   4 1475.61 146.644   3
   3  -2   4 1387.17 122.067  13
   3   2   4 1382.13 141.887  13
   3   2   4 1385.78 128.653  12
  -3   2  -4 1326.79 111.379  11
   3  -2   5-28.1368 48.4919  16
  -3   2  -5 0.38997 49.6780  15
  -3  -2  -5 23.1481 52.6512   4
  -3  -2  -5 50.0422 51.9660  15
   3   2   5 41.7046 52.5927  16
  -3   2  -5-4.56990 45.8749  14
  -3  -2  -5 26.5823 41.0021  14
   3  -2   5 87.0500 62.7606   2
  -3  -2  -5-7.31404 51.1182   1
   3  -2   5 110.482 56.5420  13
   3   2   5-35.7744 54.2060  13
   3   2   5-22.1507 46.5744   3
   3   2   5-20.9312 51.9009   2
   3  -2   5 55.8558 52.2294   3
   3   2   5-107.150 51.0854  12
  -3   2  -5-51.3050 37.5317  11
  -3  -2  -5-0.37430 44.4608   5
  -3   2  -5 57.3334 55.5180   1
   3  -2   6 44.5644 70.4290  16
  -3  -2  -6 16.4561 61.1549   4
   3   2   6 52.0883 61.0522  16
   3  -2   6 67.1459 83.0301   2
  -3   2  -6 99.2544 73.2905  15
  -3  -2  -6-31.0291 62.4002  15
  -3   2  -6 81.4404 55.6597  14
  -3  -2  -6 63.8323 44.1320  14
   3   2   6 11.1846 51.1038   2
   3  -2   6 13.6402 60.0691  13
   3   2   6-10.2209 50.6375  13
  -3   2  -6 134.619 72.2207   1
   3   2   6 98.5444 52.8845  12
  -3   2  -6 105.852 54.1280  11
  -3  -2  -6 228.575 62.9216   5
  -3  -2  -6 29.5702 70.3857   1
  -3  -2  -7 13.3588 61.0135   4
   3   2   7 74.2838 60.0220  16
  -3  -2  -7 165.111 80.0771  15
   3   2   7 130.230 93.9779   2
  -3  -2  -7-12.5542 44.1754  14
   3   2   7 23.4277 58.0038  13
  -3  -2  -7 17.1766 73.9761   1
   3   2   7-18.7479 64.2309  12
  -3   3   0 735.279 77.6435   4
   3  -3   0 652.060 93.2791   2
  -3   3   0 699.282 113.391  14
  -3   3   0 782.881 105.390   1
   3  -3   0 805.387 103.414   6
   3  -3   0 720.662 107.075   3
   3  -3   0 692.180 75.2007   7
   3  -3   1 69.8608 49.5352  16
  -3   3  -1 143.418 59.9773   1
  -3   3  -1 130.407 39.7453   4
  -3   3  -1 79.4400 47.3971  15
   3  -3   1 92.5886 29.7621   7
  -3   3  -1 70.0781 49.5209  14
   3  -3   1 69.0864 40.7512   6
   3  -3   1 114.634 51.2863   2
   3  -3   1 115.409 51.8070   3
  -3  -3  -2 425.146 59.2659   8
   3  -3   2 488.155 86.9221  16
  -3   3  -2 356.594 52.6367   4
   3  -3   2 436.202 53.8749   7
  -3   3  -2 369.405 79.7173  15
  -3   3  -2 506.436 86.9819   1
  -3  -3  -2 43.4779 96.3956   4
  -3   3  -2 489.924 89.1333  14
   3   3   2 409.241 89.6772  13
   3  -3   2 572.256 97.9869  13
   3  -3   2 401.405 72.6436   6
  -3   3  -2 481.427 79.1476  11
   3  -3   2 401.689 72.6675   2
   3  -3   2 428.874 82.8452   3
  -3  -3  -2 418.847 85.0484   1
   3   3   2 353.632 63.4317   3
   3   3   2 492.401 93.5891   2
  -3  -3  -2 429.137 81.5667   5
  -3   3  -3 974.917 93.3700   4
   3  -3   3 913.525 109.835   2
   3   3   3 887.454 113.038   2
   3  -3   3 1121.69 125.506  16
   3   3   3 1118.97 121.618  16
  -3   3  -3 934.449 114.113   1
  -3   3  -3 1110.58 127.150  15
  -3  -3  -3 933.859 113.943  15
  -3  -3  -3 327.730 117.645   1
  -3  -3  -3 126.693 115.446   4
  -3   3  -3 999.019 124.969  14
   3  -3   3 970.855 109.681   6
   3  -3   3 967.283 121.000   3
   3   3   3 1038.42 96.4234   3
   3  -3   3 906.964 91.2005  13
   3   3   3 902.828 117.610  13
  -3   3  -3 947.809 104.378  11
  -3  -3  -3 923.137 108.441   5
  -3  -3  -3 995.607 80.7006   8
  -3  -3  -4 153.224 87.0480   1
  -3   3  -4 513.732 89.9978   1
   3  -3   4 527.304 91.3452  16
  -3   3  -4 505.716 96.1391  15
  -3  -3  -4 40.9326 98.9203   4
   3   3   4 526.423 88.5776  16
  -3  -3  -4 602.120 99.4695  15
  -3   3  -4 568.765 103.098  14
   3  -3   4 499.079 90.6071   2
   3  -3   4 638.067 95.0857   6
   3  -3   4 514.396 77.2671  13
   3   3   4 505.152 98.4229  13
   3   3   4 645.914 97.6252   3
   3   3   4 261.505 97.0519  12
   3  -3   4 620.646 107.513   3
  -3   3  -4 661.446 92.1040  11
   3   3   4 485.790 90.6174   2
  -3  -3  -4 27.1657 89.8267   5
  -3   3  -5 1986.13 176.612   1
   3  -3   5 2031.07 185.187  16
   3   3   5 1837.63 158.369  16
  -3   3  -5 1768.23 165.015  15
  -3   3  -5 2003.90 184.872  14
  -3  -3  -5 2005.00 140.918  14
   3  -3   5 1864.92 180.248   3
   3  -3   5 1728.66 140.518  13
   3   3   5 1903.72 175.590  13
  -3   3  -5 2175.71 163.597  11
   3  -3   5 2093.46 196.623   2
   3  -3   6 252.497 117.472  16
   3   3   6 104.369 66.7910  16
   3  -3   6 75.5870 139.946   2
  -3   3  -6 48.2702 72.9667  15
  -3  -3  -6 18.0870 61.3829  15
  -3   3  -6-33.8011 66.2248  14
   3   3   6 27.6726 54.4979   2
   3  -3   6 67.5634 68.4010  13
   3   3   6-70.3758 62.8533  13
   3   3   6-17.6541 46.9731  12
  -3   3  -6-22.6732 58.4309  11
  -3  -3  -6-7.41392 50.8999   5
  -3  -3  -6-29.8892 59.8425   1
  -3  -3  -6 16.0531 69.7898   4
   3   3   7 3017.24 226.982  16
   3   3   7 2987.86 237.596  13
   3   3   7 3190.13 247.257  12
   3   3   8 206.007 78.9616  16
  -3  -3  -8 145.467 67.2421  15
   3   3   8 117.564 68.8806  13
  -3   4   0 1126.28 83.0948   4
   3  -4   0 1148.45 119.894   2
   3  -4   0 987.605 91.9640   7
  -3   4   0 1208.38 128.084   1
  -3   4   0 1089.01 138.284  14
   3  -4   0 1110.18 127.100   6
   3  -4   0 1147.24 135.493   3
  -3   4  -1 129.565 40.3406   4
   3  -4   1 175.608 59.2073  16
  -3   4  -1 150.252 58.2735  15
   3  -4   1 121.400 39.4162   7
  -3   4  -1 99.6572 54.7017  14
  -3   4  -1 131.090 64.5020   1
   3  -4   1 238.584 67.6631   6
  -3   4  -1 122.369 57.1731  11
   3  -4   1 87.5342 45.7627   2
  -3   4  -1 61.9177 31.7916   9
   3  -4   1 99.1751 55.4896   3
  -3  -4  -2 96.0224 46.1974   8
   3  -4   2 116.536 54.8561  16
   3  -4   2 49.3865 34.0626   7
  -3   4  -2 8.49679 47.0314  15
  -3  -4  -2-24.7175 67.3430   4
  -3   4  -2 105.504 61.8429  14
   3   4   2 18.5470 52.8038  13
   3  -4   2 11.5526 43.7614   6
   3  -4   2 46.0434 46.7676   2
  -3   4  -2 74.2921 52.0258  11
  -3  -4  -2 23.6207 55.0152   1
   3  -4   2 70.5160 58.0274   3
  -3   4  -2 115.458 53.7474   1
   3   4   2-30.5202 43.3804   3
   3   4   2 12.4557 61.9338   2
  -3  -4  -2 75.1465 59.9323   5
  -3  -4  -3 145.288 48.5685   8
   3  -4   3 119.054 57.1559  16
  -3   4  -3 186.855 66.8634  15
  -3   4  -3 164.669 60.7442   1
  -3  -4  -3 9.75242 71.9760   4
  -3   4  -3 155.709 69.1239  14
   3  -4   3 191.344 58.5485  13
   3  -4   3 152.557 61.7595   6
   3  -4   3 124.420 56.7020   2
   3   4   3 92.4954 62.3822  13
  -3   4  -3 35.8915 43.6307  11
   3  -4   3 61.9759 50.9036   3
  -3  -4  -3 57.3099 60.6216   1
   3   4   3 81.4823 61.9132   2
  -3  -4  -3 93.2169 56.6553   5
   3  -4   4 455.731 91.4981  16
  -3   4  -4 406.335 88.6863  15
  -3  -4  -4 366.640 104.104  15
  -3   4  -4 497.388 104.944  14
   3  -4   4 426.752 97.3925   2
   3  -4   4 490.973 98.0260   6
   3  -4   4 431.139 68.8125  13
   3   4   4 622.047 123.726  13
   3   4   4 290.171 136.857  12
   3  -4   4 479.190 102.780   3
  -3   4  -4 447.013 85.0422  11
   3   4   4 328.203 91.3260   2
  -3   4  -4 426.067 89.5282   1
   3  -4   5 167.285 76.3400  16
   3   4   5 238.046 75.0095  16
  -3  -4  -5 4.61802 78.2382   4
   3  -4   5 146.065 109.368   2
  -3   4  -5 119.212 65.7839  15
  -3  -4  -5 63.3552 64.6540  15
  -3  -4  -5 30.3312 52.5989   1
  -3   4  -5 142.571 77.0006  14
   3  -4   5 8.33873 42.9962  13
  -3   4  -5 228.957 82.3066   1
   3   4   5 130.819 73.0344  13
   3   4   5 95.3752 65.1243   2
   3  -4   5 128.126 72.2110   3
   3   4   5 80.0401 69.9161  12
  -3   4  -5 125.372 64.4349  11
  -3  -4  -5 4.20739 70.8528   5
   3   4   6 520.392 97.2741  16
  -3  -4  -6 47.5969 108.493   4
  -3   4  -6 236.863 84.1117  15
  -3  -4  -6 155.418 82.3454  15
   3   4   6 333.367 99.6122   2
   3   4   6 402.372 104.119  13
   3   4   6 180.694 101.134  12
  -3  -4  -6 68.9201 94.4280   1
  -3  -4  -6 62.4450 102.434   5
  -3  -4  -7-11.7199 109.948   4
   3   4   7 329.563 131.219   2
  -3  -4  -7 168.032 103.139  15
   3   4   7 272.563 89.4852  13
   3   4   7 113.922 101.773  12
   3   4   7 286.339 86.8869  16
  -3  -4  -7-19.2658 63.5695   5
   3   4   8 254.394 93.4684  16
  -3  -4  -8 259.017 97.8007  15
   3   4   8 541.838 121.681  13
   3   4   8 138.340 106.768  12
   3  -5  -1 432.789 84.0510   7
  -3   5   1 309.577 82.9802   1
   3  -5  -1 330.512 86.8386   6
   3  -5  -1 351.435 78.2742   2
   3  -5  -1 453.171 106.169   3
   3  -5   0 408.256 72.8968   7
  -3   5   0 359.889 89.5577  14
   3  -5   0 433.035 89.6749   6
  -3   5   0 456.681 82.4301   1
   3  -5   0 409.780 74.1387   2
   3  -5   0 523.211 107.171   3
   3  -5   1 21.7897 47.8465  16
   3  -5   1 25.4364 36.8536   7
  -3   5  -1-7.95760 49.0753  15
  -3   5  -1 31.7448 51.3465  14
   3  -5   1 22.1088 51.0033   6
   3  -5   1 23.4242 42.2412   2
  -3   5  -1-9.90951 52.4910  11
   3  -5   1 112.109 65.3408   3
  -3   5  -1 61.8529 36.5722   9
  -3   5  -1 83.8666 46.6476   1
   3  -5   2 3465.10 203.824   2
  -3   5  -2 3291.60 196.310   1
   3  -5   2 3566.40 208.376  16
   3  -5   2 3929.45 204.048   7
  -3   5  -2 3206.57 205.737  15
  -3   5  -2 3556.04 242.974  14
   3  -5   2 3323.47 221.139   6
   3  -5   2 3238.65 229.254   3
  -3   5  -2 3165.76 212.375  11
  -3  -5  -3 251.635 71.2309   8
   3  -5   3 196.882 62.9958  16
  -3   5  -3 242.701 71.7443  15
  -3  -5  -3 35.4119 71.7543   4
  -3   5  -3 241.123 85.6509  14
   3  -5   3 241.628 77.1744   2
   3  -5   3 236.378 75.8125   6
  -3  -5  -3-9.29469 54.9496   1
   3   5   3 113.591 72.3781  13
  -3   5  -3 186.233 71.2369  11
   3  -5   3 165.136 70.6173   3
   3   5   3 112.997 67.1714   2
  -3   5  -3 161.645 58.8417   1
  -3  -5  -3 262.406 91.1705   5
   3  -5   4 110.115 61.6964  16
  -3   5  -4 94.7502 56.3208  15
   3  -5   4 112.511 80.9820   2
  -3  -5  -4 11.7466 61.3977   4
  -3   5  -4 77.8674 67.8211  14
   3  -5   4 49.2730 59.2986   6
   3   5   4-18.5776 59.4757  13
  -3   5  -4 117.916 59.4609   1
   3  -5   4 49.7618 56.5247   3
  -3   5  -4-14.9745 60.2640  11
   3   5   4 28.3630 56.4352   2
  -3  -5  -4-10.8016 51.4887   1
  -3  -5  -4-10.4544 57.6975   5
   3  -5   5 219.477 119.633  16
   3   5   5 726.103 106.743  16
  -3  -5  -5 154.545 116.908   1
  -3  -5  -5 84.8609 118.906   4
  -3   5  -5 306.386 110.279  15
  -3  -5  -5 370.995 108.942  15
  -3   5  -5 643.419 116.252  14
   3   5   5 578.972 108.628  13
   3   5   5 429.835 113.674   2
   3  -5   5 657.408 127.626   3
   3   5   5 229.745 105.876  12
  -3   5  -5 263.962 125.904  11
  -3  -5  -5 33.7713 119.151   5
   3   5   6 3221.22 217.930  16
   3   5   6 3281.30 252.889  13
  -3  -5  -7 0.18147 76.1640   4
   3   5   7 4.70272 57.2268  16
   3   5   7 161.238 137.382   2
  -3  -5  -7 35.6015 72.6301  15
   3   5   7-12.2942 75.9539  13
   3   5   7 43.9592 71.2448  12
  -3  -5  -7 39.4870 66.6122   5
  -3  -5  -8-0.18036 63.8879   4
   3   5   8-15.4426 63.3692  16
  -3  -5  -8 38.7660 57.8620  15
   3   5   8-30.5111 77.2014  13
   3   5   8-5.95029 72.6356  12
   3  -6  -1 88.5836 62.6853   7
  -3   6   1 37.2849 60.8803  14
   3  -6  -1 126.607 75.5835   6
  -3   6   1 59.9768 54.9083   1
   3  -6  -1 145.265 63.2816   2
   3  -6  -1-16.3301 57.1970   3
   3  -6   0 420.782 80.9806   7
  -3   6   0 410.491 103.056  14
   3  -6   0 346.129 94.4852   6
   3  -6   0 395.093 80.3277   2
  -3   6   0 128.886 97.8512  11
   3  -6   0 438.523 97.1318   3
  -3   6   0 208.318 68.3809   9
  -3   6   0 353.226 77.0219   1
   3  -6   1 825.340 105.640   2
  -3   6  -1 800.353 102.194   1
   3  -6   1 880.871 119.163  16
   3  -6   1 808.254 98.8127   7
  -3   6  -1 871.642 119.018  15
  -3   6  -1 824.140 131.774  14
   3  -6   1 879.354 131.266   3
   3  -6   1 891.235 130.020   6
  -3   6  -1 623.584 146.909  11
  -3   6  -1 817.227 106.369   9
  -3   6  -2 1262.70 126.875   1
  -3   6  -2 1448.33 164.580  14
   3  -6   2 930.940 144.593   6
   3  -6   2 1238.94 151.319   3
  -3   6  -2 675.499 154.567  11
  -3   6  -2 1198.62 128.446  10
   3  -6   2 1164.29 137.190   8
   3  -6   2 1563.19 151.608   2
  -3  -6  -3 59.3551 60.3425   8
   3  -6   3-26.7652 66.2924  16
   3  -6   3-6.07362 65.4651   2
  -3   6  -3-1.53799 56.3789  15
  -3  -6  -3 30.7958 93.4299   1
  -3  -6  -3 145.817 85.7647   4
  -3   6  -3 124.501 74.9314  14
   3  -6   3-6.34738 55.5561   6
  -3   6  -3 8.24755 48.3099   1
   3   6   3 73.6777 77.4208  13
   3  -6   3 34.5474 73.0834   3
  -3   6  -3 171.331 75.6145  11
  -3  -6  -3 34.0955 73.2541   5
   3  -6   4 114.367 102.466  16
  -3  -6  -4 476.676 108.795   4
  -3   6  -4 608.989 125.116  14
   3  -6   4 157.449 114.325   6
   3   6   4 542.964 122.580  13
   3  -6   4 134.542 95.2876   3
  -3  -6  -4 97.8319 110.765   1
   3   6   4 398.969 119.570   2
  -3   6  -4 479.577 106.530  11
  -3  -6  -4 6.62442 107.105   5
  -3   6  -4 40.5397 103.659  15
  -3  -6  -5 47.8032 89.4436   1
   3  -6   5 6.61719 84.1665  16
  -3  -6  -5-0.15608 66.3588   4
  -3   6  -5-0.51296 65.3211  15
  -3   6  -5-113.802 77.4943  14
   3   6   5 29.4130 67.8104   2
   3   6   5 123.958 81.5947  13
   3   6   5 8.43061 64.4778  12
  -3   6  -5 27.0985 75.5348  11
  -3  -6  -5 17.9204 73.3054   5
  -3  -6  -6-23.0058 81.0031   4
   3   6   6 340.321 81.1359  16
  -3  -6  -6 71.4936 67.1870  15
   3   6   6 109.968 97.6388   2
   3   6   6 278.906 103.399  13
  -3  -6  -6 126.751 114.340   1
   3   6   6 99.5210 77.4797  12
  -3  -6  -6 16.9091 85.2959   5
  -3  -6  -7-52.7879 99.5470   4
  -3  -6  -7 84.2416 73.5618  15
   3   6   7 114.252 81.8603  13
   3   6   7-70.7423 71.5917  12
  -3  -6  -7 15.1476 82.1601   5
  -3  -6  -8-9.24881 67.9437   4
   3   6   8-10.7732 85.7352  13
   3   6   8-14.7073 67.4011  12
  -3  -6  -8 3.17416 77.1550   5
   3  -7  -1 330.251 91.0252   7
  -3   7   1 280.522 106.314  14
   3  -7  -1 402.958 114.839   6
   3  -7  -1 414.878 106.649   3
   3  -7   0 161.169 71.4145   7
  -3   7   0-29.4711 60.9163  14
   3  -7   0 63.5664 70.5138   6
  -3   7   0 116.254 80.4586  11
   3  -7   0 17.4368 59.3725   3
  -3   7   0 150.788 66.8677   9
   3  -7   1 238.067 68.9823   7
   3  -7   1 265.360 82.7485   2
  -3   7  -1 228.869 82.6667  14
   3  -7   1 158.133 86.6991   6
  -3   7  -1 51.2911 84.3465  11
   3  -7   1 104.030 83.9186   3
  -3   7  -1 268.846 75.9142   9
   3  -7   2 771.959 138.718   8
   3  -7   2 285.501 130.203  16
   3  -7   2 835.879 164.514   2
  -3   7  -2 734.495 131.915  15
  -3   7  -2 899.026 138.373  14
   3  -7   2 177.376 128.003   6
   3  -7   2 453.148 143.639   3
  -3   7  -2 214.533 146.632  11
  -3   7  -2 951.147 131.298  10
   3  -7   3 377.805 142.378  16
  -3   7  -3 327.416 140.573  15
  -3   7  -3 928.995 150.517  14
   3  -7   3 495.284 157.502   3
   3  -7   3 732.592 153.121   6
  -3   7  -3 215.666 147.826  11
   3  -7   4 146.012 183.321  16
  -3  -7  -4 977.018 151.276   4
  -3   7  -4 481.289 181.492  15
  -3   7  -4 973.740 158.907  14
   3  -7   4 275.685 163.467   6
   3  -7   4 445.105 151.210   3
   3   7   4 985.480 166.272  13
  -3   7  -4 381.831 143.458  11
  -3  -7  -4 52.6319 156.713   5
  -3  -7  -5 648.614 129.231   4
   3   7   5 433.639 133.965  13
   3   7   5 351.021 137.017  12
  -3  -7  -6 133.038 86.3262   4
   3   7   6 170.095 93.8912  13
   3   7   6-53.1240 71.1313  12
  -3  -7  -6 8.29217 89.9887   5
  -3  -7  -7 54.8256 95.8256   4
   3   7   7 105.239 93.2101  13
   3   7   7-20.7292 68.5132  12
  -3  -7  -7 3.30625 107.220   5
  -3  -7  -8 111.522 81.9058   4
   3   7   8 168.925 109.790  13
   3   7   8-22.8674 75.9189  12
  -3  -7  -8 8.50027 70.6785   5
   3  -8  -1 1648.63 187.610   7
   3  -8  -1 1728.38 206.135   6
  -3   8   1 1607.40 196.142   9
   3  -8   0 110.614 70.2251   7
  -3   8   0 68.3468 67.1091  14
   3  -8   0 180.911 87.3336   6
  -3   8   0 44.5108 102.436  11
   3  -8   0 132.367 75.9772   3
  -3   8   0 176.396 72.4870   9
   3  -8   1-43.0652 82.6432   8
   3  -8   1-7.32128 60.3377   7
  -3   8  -1 47.7720 65.9365  14
   3  -8   1-157.558 88.8754   6
   3  -8   1-11.7971 68.7470   3
  -3   8  -1 24.9214 88.0959  11
  -3   8  -1 86.5109 63.7178  10
  -3   8  -1 162.676 82.1173   9
   3  -8   2 197.913 116.970   8
  -3   8  -2-4.34164 74.1257  14
   3  -8   2 14.2103 71.6656   6
   3  -8   2 8.47942 66.7291   3
  -3   8  -2 2.27048 79.6486  11
  -3   8  -2-176.109 83.1684  10
  -3   8  -3 230.039 104.177  14
   3  -8   3 62.5122 112.987   6
   3  -8   3 136.125 99.6990   3
  -3   8  -3 95.8319 98.5264  11
  -3  -8  -4 30.2741 103.270   4
  -3   8  -4 58.6269 101.894  14
  -3   8  -4 36.5269 71.8419  11
  -3  -8  -4-43.2345 100.717   5
  -3  -8  -5 203.952 109.717   4
   3   8   5 114.173 81.3943  13
  -3  -8  -5 5.49305 108.908   5
  -3  -8  -6 139.695 97.5996   4
   3   8   6 157.234 98.2481  13
   3   8   6 13.4417 89.1193  12
  -3  -8  -6-45.5869 104.773   5
  -3  -8  -7 17.5803 104.554   4
   3   8   7 402.797 126.834  13
   3   8   7 113.738 121.825  12
  -3  -8  -7 45.3396 106.955   5
   3  -9  -1 32.6114 73.8929   7
   3  -9  -1 57.1416 83.4737   6
   3  -9  -1 14.9727 77.0925   3
  -3   9   1 97.5712 94.6856   9
   3  -9   0 27.6255 67.1119   7
  -3   9   0 64.2468 86.9993  14
   3  -9   0-48.8286 71.9116   6
   3  -9   0 20.1020 65.5262   3
  -3   9   0-4.45849 98.7023  11
  -3   9   0-135.776 87.9216   9
   3  -9   1-70.9763 108.737   8
   3  -9   1-22.9581 68.9955   7
  -3   9  -1-12.4121 69.9881  14
   3  -9   1-38.7926 84.6121   6
   3  -9   1 32.7043 102.545   3
  -3   9  -1 0.21027 76.8544  11
  -3   9  -1-192.288 78.4247  10
  -3   9  -1-121.114 84.1934   9
  -3   9  -2 176.176 87.2543  14
   3  -9   2-37.3067 88.2538   6
   3  -9   2 2.59335 86.0518   3
  -3   9  -2 92.7780 109.527  11
   3  -9   3 230.926 146.371   6
  -3   9  -3 430.374 127.948  11
  -3  -9  -5 23.6140 140.757   4
  -3  -9  -5-14.3833 110.750   5
   3 -10  -1-201.271 119.648   7
   3 -10  -1-18.1987 86.4909   6
   3 -10  -1-23.9648 85.2866   3
  -3  10   1 103.054 90.2844   9
   3 -10   0 224.017 110.825   7
  -3  10   0-135.037 114.193  14
   3 -10   0 13.4493 85.4808   6
   3 -10   0-2.16987 75.7590   3
  -3  10   0-126.387 97.0889  11
  -3  10   0-170.442 105.179   9
   3 -10   1-314.866 164.890   8
  -3  10  -1-120.302 116.060  14
   3 -10   1 33.8887 81.6444   6
   3 -10   1-142.057 91.3282   3
  -3  10  -1-214.186 109.718  11
  -3  10  -1 97.3805 76.7092  10
  -3  10  -2-93.5781 118.806  14
   3 -10   2 31.3806 89.7017   6
  -3  10  -2-6.73103 105.098  11
   4   0   2 1209.38 152.552   2
  -4   0  -2 1307.23 165.409   1
   4   0   2 1540.10 173.862   3
   4   0   3-24.5838 57.4435  16
  -4   0  -3-108.784 65.3734   4
  -4   0  -3-29.2423 55.7234  15
  -4   0  -3-130.983 80.1528  14
   4   0   3-77.4307 73.7382  13
  -4   0  -3-7.67550 61.8122   1
   4   0   3-80.6460 64.6857   2
   4   0   3-72.6606 62.7016   3
   4   0   4 1907.93 187.669   2
   4   0   4 1779.68 182.609  16
  -4   0  -4 1641.39 180.501  15
  -4   0  -4 1881.65 186.013  14
   4   0   4 1885.31 179.044   3
   4   0   4 1995.42 190.005  13
  -4   0  -5 6.63335 64.1797   4
   4   0   5-262.173 98.4862  16
  -4   0  -5 14.3552 68.8435  15
  -4   0  -5 14.0641 57.9594  14
  -4   0  -5-13.8079 72.1939   1
   4   0   5-10.7744 62.8169  13
   4   0   5-16.5243 64.0046   2
   4   0   5-107.774 73.6066   3
   4   0   6 1563.12 192.189   2
   4   0   6 1697.53 185.237  16
  -4   0  -6 1845.60 201.926  15
  -4   0  -6 1725.81 182.404  14
   4   0   6 1766.37 186.225   3
   4   0   6 1762.32 189.653  13
   4   0   7-140.443 98.7271  16
  -4   0  -7 45.7835 68.4185  15
   4   0   7 28.5985 81.0765   2
  -4   0  -7 26.9311 65.1724  14
   4   0   7 128.391 95.2846  13
  -4   0  -7 4.09578 84.0571   1
   4   0   8 82.6529 136.694  16
   4   0   8 365.503 190.493   2
  -4   0  -8 59.1544 75.9735  15
   4   0   8 364.309 282.264  13
  -4   1  -2 561.929 110.866   1
   4  -1   2 672.611 115.179  16
  -4   1  -2 518.457 101.906   4
  -4   1  -2 554.326 108.960  15
   4  -1   2 709.064 118.135   2
   4  -1   2 647.657 114.561   3
   4  -1   3-74.4813 70.4342  16
   4   1   3-94.6185 66.4666  16
  -4   1  -3 134.696 62.7482   4
  -4  -1  -3-52.3839 61.5395   4
  -4   1  -3-198.382 85.2313  15
  -4  -1  -3-46.1392 59.6379  15
  -4   1  -3-27.5663 64.2718   1
  -4   1  -3-54.2919 67.1928  14
   4   1   3-41.9486 70.1747  13
   4  -1   3-232.101 88.9404  13
   4  -1   3-75.7285 69.2241   2
   4  -1   3-97.5823 67.6220   3
  -4  -1  -3 3.17945 66.4778   1
   4   1   3 16.0360 58.0886   3
   4   1   3-39.3344 65.0854   2
  -4  -1  -4 11.4150 69.5755   1
   4  -1   4-85.3609 75.5817  16
   4   1   4 53.0897 58.3190  16
  -4   1  -4 80.8346 67.6535   4
  -4  -1  -4 0.14288 57.4485   4
  -4   1  -4-324.304 103.729  15
  -4  -1  -4-145.608 86.0884  15
  -4   1  -4-19.4934 55.6505  14
  -4  -1  -4 101.445 60.3654  14
   4  -1   4-58.3675 57.5363  13
   4   1   4-50.3063 69.5180  13
   4  -1   4-11.2652 60.5387   2
   4   1   4 106.587 73.4660   2
   4  -1   4 138.159 75.9357   3
   4   1   4 0.27872 51.4375   3
  -4   1  -4 40.0752 67.2955   1
  -4   1  -5-1.53602 60.2803   4
   4  -1   5-18.4825 62.3552  16
   4   1   5-19.5390 59.2238  16
  -4  -1  -5-5.84129 61.9477   4
  -4   1  -5-26.9277 72.2514  15
  -4  -1  -5 103.999 68.8088  15
  -4   1  -5-127.777 94.9456   1
  -4   1  -5 2.50080 55.8713  14
  -4  -1  -5 29.0411 54.7505  14
   4  -1   5 36.9993 59.7760  13
   4   1   5 24.4715 59.8696  13
   4  -1   5-87.5352 73.3579   2
  -4  -1  -5 44.8272 70.7188   1
   4   1   5-14.0683 62.5056   2
   4   1   5 179.265 74.2812   3
   4  -1   5-95.6261 73.6608   3
  -4  -1  -6 3.57437 87.5086   1
  -4  -1  -6-178.744 85.0577   4
   4  -1   6 243.593 87.8649  16
   4   1   6 246.967 91.0718  16
  -4   1  -6 185.667 96.3956  15
  -4  -1  -6 89.3097 69.9104  15
  -4   1  -6 165.733 78.5334  14
  -4  -1  -6 134.850 68.1059  14
   4  -1   6 198.437 86.0829   2
   4   1   6 97.6750 75.1339   2
   4  -1   6 298.021 100.181  13
   4   1   6 130.633 87.3025  13
   4  -1   6 139.534 80.1215   3
  -4   1  -6 321.601 100.118   1
  -4  -1  -7-14.2697 92.6770   4
   4  -1   7 512.843 156.028  16
   4   1   7 277.204 102.653  16
  -4   1  -7-113.683 109.071  15
  -4  -1  -7 377.234 114.995  15
   4  -1   7 295.346 130.303   2
   4   1   7 327.246 124.695   2
  -4   1  -7 484.159 111.085  14
  -4  -1  -7 384.754 96.5598  14
   4  -1   7 232.374 111.578  13
   4   1   7 467.133 130.490  13
  -4   1  -7 99.6386 122.749   1
  -4  -1  -7 30.3310 102.194   1
   4   1   8 431.205 128.625  16
   4   1   8 499.660 184.754   2
  -4  -1  -8 411.145 115.318  15
   4   1   8 317.790 174.134  13
   4  -2   2-38.8283 62.9860  16
  -4   2  -2-41.0639 63.8103   4
  -4   2  -2-33.0153 63.4679  15
  -4   2  -2 17.2878 60.3570  14
   4  -2   2 22.8419 48.2603   6
   4  -2   2-128.396 73.5903   2
   4  -2   2-44.5644 59.7231   3
  -4   2  -2 17.6615 58.9267   1
  -4  -2  -3 64.9467 98.2595   1
  -4   2  -3 231.468 85.5820   1
   4  -2   3 129.884 72.5169  16
  -4   2  -3 63.0473 53.0220   4
  -4   2  -3 75.2324 61.5167  15
  -4  -2  -3-0.17932 73.9868   4
  -4   2  -3 174.994 76.3024  14
   4   2   3 159.796 90.4474  13
   4  -2   3 51.8309 55.4798  13
   4  -2   3 111.506 67.5586   2
   4  -2   3 112.095 67.1352   3
   4   2   3 30.3792 59.7803   3
   4   2   3-27.3626 70.3056   2
  -4  -2  -3 0.12536 65.1783   5
  -4   2  -4 496.965 100.229   4
   4  -2   4 583.163 116.296  16
  -4  -2  -4 134.168 135.302   1
   4   2   4 516.733 102.973  16
  -4  -2  -4 27.2422 116.846   4
  -4   2  -4 471.141 111.376  15
  -4  -2  -4 502.960 109.775  15
  -4   2  -4 560.282 114.981  14
   4  -2   4 546.745 101.028  13
   4   2   4 453.470 108.324  13
   4  -2   4 465.742 101.833   2
  -4   2  -4 552.347 114.849   1
   4   2   4 389.989 92.2036   3
   4  -2   4 527.016 107.410   3
   4   2   4 612.330 127.754   2
  -4  -2  -4 53.4068 91.4713   5
  -4   2  -5-19.0917 61.7479   4
   4  -2   5 10.9500 63.1473  16
   4   2   5 47.6236 69.6064  16
  -4   2  -5 95.9771 77.0707   1
  -4  -2  -5-48.9381 92.3670   4
  -4   2  -5 67.9720 63.8488  15
  -4  -2  -5-42.1290 68.9225  15
  -4   2  -5 65.5731 74.3353  14
   4  -2   5 52.0086 57.8341   2
   4  -2   5 55.0271 58.0244  13
   4   2   5-137.144 85.8016  13
   4   2   5 57.0222 75.7920   2
  -4  -2  -5-15.5414 66.3840   1
   4  -2   5-21.2034 70.0761   3
  -4  -2  -6 11.3065 84.9598   1
   4  -2   6 213.341 102.296  16
  -4  -2  -6 23.8370 70.0924   4
   4   2   6 91.8738 73.1566  16
  -4   2  -6 146.510 91.6715  15
  -4  -2  -6 141.524 81.5545  15
   4  -2   6 128.308 81.5117   2
  -4   2  -6 43.5406 65.9757  14
   4  -2   6 135.733 82.2653  13
   4   2   6 108.892 86.3186  13
   4   2   6 30.0016 62.4275   2
   4  -2   6 67.0741 60.4466   3
  -4   2  -6 100.699 78.8690   1
  -4  -2  -7 10.9478 94.7101   4
   4  -2   7 493.288 176.727  16
   4   2   7 305.472 103.042  16
   4  -2   7 294.689 129.127   2
  -4   2  -7 537.345 145.474  15
  -4  -2  -7 447.694 125.858  15
   4   2   7 190.047 106.495   2
  -4   2  -7 366.275 107.726  14
  -4   2  -7 362.422 111.929   1
   4  -2   7 187.632 109.420  13
   4   2   7 405.485 124.201  13
  -4  -2  -7 39.7697 109.359   1
   4   2   8-66.3086 73.5653  16
   4   2   8-84.2376 113.340   2
  -4  -2  -8 81.9804 74.2654  15
   4   2   8 88.8380 119.702  13
   4  -3   1 1619.84 180.215   2
  -4   3  -1 1816.86 201.836   1
  -4   3  -1 1585.69 208.499  14
   4  -3   1 1406.52 148.523   6
   4  -3   1 1632.58 176.736   3
   4  -3   2 13.6697 60.3344  16
  -4   3  -2 12.8275 56.3101  15
  -4   3  -2-29.1159 59.6690  14
  -4   3  -2-20.9414 63.8664   1
   4  -3   2 102.733 60.8519   6
   4  -3   2 65.4003 60.2818   2
   4  -3   2 97.9917 70.6956   3
   4  -3   3 2759.31 218.010   2
   4  -3   3 2843.36 224.609  16
  -4   3  -3 2871.52 228.437   1
  -4   3  -3 2827.42 233.621  15
  -4   3  -3 2870.66 238.061  14
   4  -3   3 2962.00 207.852   6
   4  -3   3 2773.32 226.189   3
   4   3   3 2730.25 297.085  13
   4  -3   4 93.8671 63.9327  16
   4   3   4 161.674 79.0591  16
  -4  -3  -4-12.4388 88.0843   1
  -4  -3  -4 0.18916 73.9835   4
  -4   3  -4 165.171 77.5261  15
  -4  -3  -4 150.699 71.1216  15
  -4   3  -4 124.717 63.8365   1
  -4   3  -4 117.495 75.9965  14
   4  -3   4 131.764 69.6673  13
   4   3   4 353.499 111.819  13
   4  -3   4 158.561 76.6467   2
   4  -3   4 235.332 85.5291   3
   4   3   4 64.9199 77.3627   2
  -4  -3  -4 29.5911 63.9437   5
   4  -3   5 411.282 110.588  16
   4   3   5 251.405 88.1661  16
  -4  -3  -5 49.0996 111.940   4
  -4   3  -5 381.658 106.894  15
  -4  -3  -5 399.801 108.770  15
  -4   3  -5 358.713 103.327  14
   4  -3   5 239.594 89.7169   2
   4  -3   5 409.269 100.311  13
   4   3   5 346.328 103.916  13
  -4  -3  -5 26.2731 93.4569   1
   4  -3   5 318.213 101.870   3
   4   3   5 225.507 94.2351   2
  -4  -3  -5 16.2602 79.5322   5
  -4   3  -5 312.019 93.9367   1
  -4  -3  -6 11.7670 81.5294   1
   4  -3   6 25.4110 79.2065  16
   4   3   6-88.4359 80.2799  16
  -4  -3  -6 3.16533 72.3090   4
  -4   3  -6-126.496 87.9333  15
  -4  -3  -6-54.7028 84.6262  15
   4  -3   6-22.3621 72.9181   2
  -4   3  -6-95.0731 84.1874  14
   4   3   6 120.690 87.8886   2
   4   3   6-19.8640 73.2263  13
   4  -3   6 10.7450 72.7025   3
  -4   3  -6 46.2111 76.0807   1
  -4  -3  -6 11.3990 62.6684   5
  -4  -3  -7 68.0050 131.170   4
   4  -3   7 779.678 235.046  16
   4   3   7 540.702 124.790  16
  -4   3  -7 739.249 179.318  15
  -4  -3  -7 537.158 127.637  15
   4   3   7 530.749 135.942   2
  -4   3  -7 777.844 190.314  14
   4   3   7 636.355 134.279  13
  -4  -3  -7 48.2099 107.792   1
  -4  -3  -8 24.2644 71.6625   4
   4   3   8 75.8119 87.4942  16
   4   3   8 0.69904 104.656   2
  -4  -3  -8 223.117 100.332  15
   4   3   8 141.539 96.9655  13
  -4   4  -1 119.814 82.9146  14
   4  -4   1 84.3168 63.3224   6
  -4   4  -1 80.5082 83.9680   1
   4  -4   1 149.264 78.2897   2
   4  -4   1 133.262 77.0550   3
  -4   4  -2 1052.82 148.294   1
   4  -4   2 963.871 137.884  16
  -4   4  -2 399.808 136.535  15
   4  -4   2 976.856 132.098   6
  -4   4  -2 974.939 156.940  14
   4  -4   2 940.132 135.058   2
   4  -4   2 946.784 140.600   3
   4  -4   3 326.812 90.6265  16
  -4   4  -3 432.368 104.962  15
  -4   4  -3 397.828 107.890  14
  -4   4  -3 454.368 107.308   1
   4  -4   3 86.4923 80.9256   6
   4  -4   3 439.788 98.7543   2
   4  -4   3 219.357 107.115   3
  -4   4  -4 440.030 104.664   1
  -4  -4  -4 231.614 145.078   1
   4  -4   4 605.235 117.027  16
  -4   4  -4 682.715 129.483  15
  -4  -4  -4 91.2846 166.999   4
  -4   4  -4 523.490 117.396  14
   4  -4   4 643.526 120.301   2
   4  -4   4 318.423 117.327   6
   4   4   4 718.163 146.776  13
   4  -4   4 263.170 124.165   3
   4   4   4 700.799 154.428   2
  -4  -4  -4 44.4173 130.516   5
   4  -4   5 663.242 125.826  16
   4   4   5 638.140 115.553  16
  -4  -4  -5 9.73632 134.225   4
  -4   4  -5 519.945 118.982  15
  -4  -4  -5 579.792 124.233  15
   4  -4   5 762.677 141.740   2
  -4   4  -5 666.961 135.503  14
  -4  -4  -5 94.3850 115.680   1
   4   4   5 582.032 127.504  13
   4  -4   5 411.790 146.129   3
   4   4   5 497.706 125.235   2
  -4   4  -5 649.076 126.215   1
  -4   4  -5 330.032 108.884  11
  -4  -4  -5 8.76780 132.203   5
  -4  -4  -6 47.1588 92.2987   1
   4  -4   6 40.3374 95.2459  16
   4   4   6 155.833 84.4860  16
  -4  -4  -6-20.7859 106.073   4
   4  -4   6 162.612 103.591   2
  -4   4  -6 88.0116 113.507  15
  -4  -4  -6 177.473 82.3513  15
  -4   4  -6 179.698 104.376  14
  -4   4  -6 93.8813 72.6163   1
   4   4   6 141.223 78.9930   2
   4   4   6 223.391 92.4670  13
   4  -4   6 85.5915 92.9205   3
  -4  -4  -6 26.8107 85.7870   5
  -4  -4  -7 117.691 160.158   4
   4   4   7 420.310 115.217  16
  -4  -4  -7 348.385 113.129  15
   4   4   7 503.454 137.946   2
   4   4   7 519.947 130.126  13
  -4  -4  -7 60.3654 103.480   1
  -4  -4  -7 0.17481 106.130   5
  -4  -4  -8 29.0963 79.4636   4
   4   4   8-18.0405 75.2183  16
   4   4   8-174.740 161.874   2
  -4  -4  -8 72.3581 84.9559  15
   4   4   8-14.2919 81.3071  13
  -4   5  -1 254.850 86.6972   1
  -4   5  -1 314.341 107.847  14
   4  -5   1 168.349 99.0216   6
   4  -5   1 330.111 97.3954   2
   4  -5   1 172.127 122.666   3
   4  -5   2 2133.44 195.253   2
  -4   5  -2 2304.51 214.207   1
  -4   5  -2 2456.66 247.538  14
   4  -5   3-48.4274 73.1125  16
  -4   5  -3-31.2520 69.3806   1
  -4   5  -3-5.47475 61.5305  15
  -4   5  -3 105.423 86.7285  14
   4  -5   3-41.9654 66.6925   2
   4  -5   3 156.358 94.1269   6
   4  -5   3 10.9120 75.2654   3
   4  -5   4 31.3062 69.1359  16
  -4  -5  -4-60.4372 126.790   4
  -4   5  -4-20.2781 65.5547  15
   4  -5   4 52.1871 66.4225   2
  -4   5  -4-111.270 92.6526  14
   4  -5   4 21.8606 70.0382   6
   4  -5   4-106.457 77.0051   3
  -4   5  -4-8.24390 64.3910  11
  -4   5  -4-49.4079 59.9274   1
  -4  -5  -4 18.4005 132.869   5
   4  -5   5 1.88348 71.2967  16
  -4  -5  -5 13.7268 96.9792   4
   4  -5   5-77.4964 105.196   2
  -4   5  -5-4.39590 67.9576  15
  -4   5  -5-80.8791 84.7097  14
  -4  -5  -5 35.1809 76.1347   1
  -4   5  -5 103.035 83.7302   1
   4   5   5-92.5494 86.5473  13
   4  -5   5-35.2760 71.7022   3
   4   5   5 74.1497 80.9108   2
  -4   5  -5 10.7794 71.1450  11
  -4  -5  -5-20.7231 91.1448   5
   4  -5   6 106.459 168.650  16
   4   5   6-73.0340 65.5494  16
  -4  -5  -6 30.5520 86.8079   4
  -4   5  -6 9.03442 93.3519  15
  -4  -5  -6-50.7300 60.3920  15
  -4   5  -6-21.8400 80.3816  14
   4   5   6-44.5518 80.2076   2
   4   5   6 58.0564 83.5438  13
  -4  -5  -6 5.98687 79.1294   5
  -4  -5  -6 21.1905 78.8202   1
  -4  -5  -7 17.4152 88.1642   4
   4   5   7-95.4751 86.0692  16
  -4  -5  -7-19.1609 94.1349  15
   4   5   7 128.172 98.6988   2
   4   5   7-33.7307 93.2754  13
  -4  -5  -7 13.0292 97.8672   1
  -4  -5  -7 12.7280 80.5634   5
  -4  -5  -8-217.274 110.904   4
   4   5   8 143.963 281.579   2
   4   5   8 132.088 98.1793  16
  -4  -5  -8-229.706 114.912  15
   4   5   8 93.6628 91.9240  13
   4   5   8-80.1257 243.670  12
  -4   6  -1 122.075 81.8503  14
   4  -6   1-140.299 85.6231   6
   4  -6   1-185.099 91.2399   2
  -4   6  -1-75.6941 77.0564   1
   4  -6   1 80.3169 86.6394   3
  -4   6  -2 350.210 105.063   1
  -4   6  -2 57.1064 79.1616  14
   4  -6   2 349.242 92.8968   2
   4  -6   2 103.760 96.5005   6
   4  -6   2 54.2859 96.1897   3
   4  -6   3 10.3765 65.5666  16
   4  -6   3 108.005 85.6587   2
  -4   6  -3-1.69933 78.2258  14
   4  -6   3 11.4340 68.7295   6
   4  -6   3 100.467 93.9647   3
  -4   6  -3 12.3170 68.2625  11
  -4   6  -3-10.8155 63.3723   1
   4  -6   4 50.7376 74.4065  16
   4  -6   4-61.9079 93.3181   2
  -4   6  -4-45.8146 72.0398  15
  -4   6  -4-65.7459 89.8579  14
   4  -6   4-70.4974 93.0092   6
  -4   6  -4-58.0602 79.7647   1
   4  -6   4-64.7478 80.5343   3
  -4   6  -4-310.411 108.789  11
   4  -6   5-126.317 100.761  16
  -4  -6  -5 0.25283 94.5781   4
  -4   6  -5 0.22474 77.4308  15
  -4   6  -5 39.2121 81.2039  14
   4   6   5 16.2925 103.844  13
   4  -6   5 93.5879 106.282   3
  -4   6  -5 34.1782 90.6215  11
  -4  -6  -5-57.6895 104.720   5
  -4  -6  -6 21.7847 84.8194   4
  -4  -6  -6 32.6736 164.082   1
  -4  -6  -6 15.4959 113.737   5
  -4  -6  -7-63.8265 100.094   4
   4   6   7 17.4096 94.9238  13
  -4  -6  -7-27.5220 82.1296   5
   4  -7   0 29.7771 117.601   6
   4  -7   0-5.47478 133.614   3
  -4   7  -1 201.926 99.0971  14
   4  -7   1 23.7727 77.9062   6
   4  -7   1 25.3038 84.9570   3
   4  -7   2-213.969 122.030   2
  -4   7  -2 22.8354 87.4047  14
   4  -7   2 3.14338 73.3469   6
   4  -7   2-10.5778 86.8342   3
   4  -7   3-3.04647 111.588  16
   4  -7   3-84.6567 145.100   2
  -4   7  -3 160.256 158.581  14
   4  -7   3 7.83486 85.3383   6
   4  -7   3-34.7643 78.5509   3
  -4   7  -3-13.5022 95.2987  11
  -4   7  -4 154.896 141.839  14
  -4   7  -5-165.611 132.890  14
   4   7   6 327.822 142.116  13
  -4  -7  -6 28.0939 124.508   5
   4  -8   0 32.4878 111.730   6
   4  -8   0 0.30669 96.7985   3
  -4   8  -1 165.928 111.388  14
   4  -8   1-5.68192 111.153   6
   4  -8   1 108.040 108.421   3
  -4   8  -2-182.771 114.831  14
   4  -8   2 3.56468 71.7203   6
   4  -8   2 63.2581 99.5629   3
  -4   8  -3 101.601 99.1214  14
   4  -8   3-58.8750 81.0954   6
   4  -8   3 2.10496 107.079   3
  -4   8  -3-17.8473 87.9968  11
  -4   8  -4 73.5731 96.3218  14
   5   0   4 150.208 110.448   2
  -5   0  -4 66.7898 114.651   1
  -5   0  -5 44.5196 95.2930   4
   5   0   5 184.602 102.710  16
  -5   0  -5 109.382 87.9466  15
  -5   0  -5-16.3628 101.867   1
   5   0   5-59.3705 116.566  13
   5   0   5-25.2790 87.8629   2
   5   0   5 48.7956 96.8727   3
  -5   0  -6-19.6235 91.5694   1
  -5   0  -6 10.2885 89.6494   4
  -5   0  -6-92.4322 95.5392  15
  -5   0  -6 24.7034 102.694  14
   5   0   6-47.4125 86.6472   2
   5   0   6 16.9811 87.7178  13
   5  -1   4 187.577 94.6413  16
  -5   1  -4 236.425 97.3696  15
   5  -1   4 224.986 117.076   2
  -5   1  -4 9.01606 127.474   1
   5  -1   4 272.780 137.107   3
  -5   1  -5 110.563 137.414   4
   5  -1   5 52.5792 87.3511  16
  -5  -1  -5 4.42541 86.3492   4
   5   1   5-74.0328 77.6660  16
  -5   1  -5-316.398 152.773  15
  -5  -1  -5-24.8627 74.6391  15
  -5   1  -5 1.10634 82.9833   1
  -5   1  -5 21.5106 78.9056  14
  -5  -1  -5 56.0329 117.458   1
   5   1   5-234.198 122.298  13
   5  -1   5 189.780 123.586  13
   5  -1   5-32.2057 73.5867   2
   5   1   5 45.1646 95.2628   2
   5  -1   5-59.7968 97.5672   3
  -5   1  -6 45.8407 91.7543   4
  -5  -1  -6-47.1153 100.044   4
  -5  -1  -6 39.2965 87.7933   1
   5  -1   6-51.6970 92.4198  16
   5   1   6-73.4185 91.2311  16
  -5   1  -6 113.511 88.1813  15
  -5  -1  -6 51.8727 78.6937  15
  -5   1  -6-66.6530 86.8856  14
   5  -1   6-56.6461 77.7382   2
   5   1   6 66.7387 105.198   2
   5  -1   6 82.7154 91.1113  13
   5   1   6 24.8232 91.2194  13
   5  -1   6-63.5495 85.7037   3
  -5   1  -6 9.15633 89.9852   1
  -5   2  -3-40.6973 85.3146   1
   5  -2   4 264.650 109.046  16
  -5   2  -4 265.694 96.2384  15
  -5   2  -4 213.504 111.391  14
   5  -2   4 111.804 89.1649   2
  -5   2  -4 64.5982 80.3460   1
   5  -2   4 70.5126 83.4900   3
   5  -2   5 56.0982 88.9536  16
  -5  -2  -5 1.91747 107.281   4
  -5   2  -5-55.7161 80.6170   1
  -5   2  -5 27.5150 84.2924  15
  -5   2  -5-185.342 102.883  14
   5  -2   5 27.7124 69.6502   2
   5   2   5 233.071 117.367  13
  -5  -2  -5-70.5197 115.008   1
   5   2   5 86.2510 126.176   2
   5  -2   5-165.880 104.286   3
  -5  -2  -6 4.15428 104.199   4
  -5  -2  -6 8.96766 90.9919   1
   5  -2   6 81.1298 92.9812  16
   5   2   6 139.820 93.8826  16
  -5   2  -6-97.6196 115.047  15
  -5  -2  -6 26.5927 83.8508  15
   5  -2   6-7.76569 80.6472   2
  -5   2  -6-100.561 99.1966  14
   5   2   6-43.5121 89.1040   2
   5   2   6 107.662 106.657  13
   5  -2   6-222.201 120.387   3
  -5   2  -6-9.96819 91.7132   1
   5  -3   3-68.5743 102.362   2
   5  -3   3 36.8895 72.9135   3
   5  -3   4 10.1089 97.6129  16
  -5   3  -4 4.79591 77.9788  15
  -5   3  -4 17.6162 82.0165   1
  -5   3  -4 27.0418 73.6553  14
   5  -3   4 160.425 95.5828   2
   5  -3   4 24.8826 86.6254   3
  -5   3  -5 58.3806 83.8133   1
   5  -3   5 48.9003 94.2422  16
  -5   3  -5-4.02394 86.5294  15
  -5   3  -5-76.3863 91.4183  14
   5  -3   5-70.5841 97.2438   2
   5  -3   5 165.866 111.223   3
  -5  -3  -6-28.9549 111.296   1
   5  -3   6 85.1860 123.906  16
  -5   3  -6 176.868 102.751  14
   5   3   6 122.228 111.859  13
  -5   3  -6 89.1600 129.311   1
  -5   4  -3 220.156 114.998  14
  -5   4  -3 264.907 133.650   1
   5  -4   3 224.450 111.094   2
   5  -4   3-65.2135 80.7889   3
  -5   4  -4 81.9329 104.205   1
   5  -4   4 0.67863 80.1896  16
  -5   4  -4 13.8665 93.8671  15
  -5   4  -4-35.6343 84.1822  14
   5  -4   4 40.0581 86.5336   2
   5  -4   4 23.5441 86.5717   3
   5  -4   5-5.54657 79.5708  16
  -5   4  -5-19.4518 105.133  15
   5  -4   5-131.151 104.831   2
  -5   4  -5-4.40208 86.3639  14
   5  -4   5-1.18471 96.3503   3
  -5   4  -5-23.2491 84.2089   1
  -5   5  -3-85.0859 105.117   1
  -5   5  -3 26.1339 89.6134  14
   5  -5   3 97.0116 110.522   2
   5  -5   3-4.67347 78.8449   3
   5  -5   4-165.915 94.5738  16
  -5   5  -4 85.2404 96.3493  14
  -5   5  -4-144.811 117.339   1
   0   0   0    0.00    0.00   0

TITL instrument in P2(1)/c
REM P2(1)/c (#14 in standard setting)
CELL 0.71073   5.035944  10.161713  13.536623  90.0000  97.9434  90.0000
ZERR    4.00   0.002141   0.002196   0.021720   0.0000   0.0910   0.0000
LATT  1
SYMM -x, y+1/2,-z+1/2
SFAC C H N O
UNIT 16.00 28.00 20.00 12.00
TREF
HKLF 4
END
;
_shelx_hkl_checksum              7588
_olex2_submission_special_instructions 'No special instructions were received'
_oxdiff_exptl_absorpt_empirical_details
;
Empirical correction (ABSPACK) includes:
- Absorption correction using spherical harmonics
- Frame scaling
;
_oxdiff_exptl_absorpt_empirical_full_max 4.621
_oxdiff_exptl_absorpt_empirical_full_min 0.776
loop_
_space_group_symop_operation_xyz
'x, y, z'
'-x, y+1/2, -z+1/2'
'-x, -y, -z'
'x, -y-1/2, z-1/2'
loop_
_atom_site_label
_atom_site_type_symbol
_atom_site_fract_x
_atom_site_fract_y
_atom_site_fract_z
_atom_site_U_iso_or_equiv
_atom_site_adp_type
_atom_site_occupancy
_atom_site_site_symmetry_order
_atom_site_calc_flag
_atom_site_refinement_flags_posn
_atom_site_refinement_flags_adp
_atom_site_refinement_flags_occupancy
_atom_site_disorder_assembly
_atom_site_disorder_group
C1 C 0.1050(19) 0.7917(6) 0.5371(12) 0.076(11) Uani 1 1 d . . . . .
H1 H -0.042516 0.831590 0.500110 0.091 Uiso 1 1 calc R . . . .
C2 C 0.3218(18) 0.8616(6) 0.5885(12) 0.053(10) Uani 1 1 d . . . . .
H2 H 0.342760 0.952466 0.592276 0.064 Uiso 1 1 calc R . . . .
C3 C 0.4927(19) 0.7700(5) 0.6312(12) 0.079(10) Uani 1 1 d . . . . .
H3 H 0.655498 0.784792 0.671118 0.095 Uiso 1 1 calc R . . . .
C4 C 0.477(2) 0.5242(5) 0.6303(13) 0.075(13) Uani 1 1 d . . . . .
N1 N 0.3791(15) 0.6499(4) 0.6041(11) 0.094(11) Uani 1 1 d . . . . .
N2 N 0.1335(13) 0.6631(4) 0.5471(9) 0.082(9) Uani 1 1 d . . . . .
N3 N 0.3377(16) 0.4250(4) 0.5900(11) 0.094(10) Uani 1 1 d . . . . .
H3A H 0.399087 0.346228 0.598627 0.112 Uiso 1 1 calc R . . . .
H3B H 0.184465 0.438250 0.554679 0.112 Uiso 1 1 calc R . . . .
N4 N 0.7086(15) 0.5112(5) 0.6842(9) 0.072(9) Uani 1 1 d . . . . .
H4A H 0.777881 0.434291 0.694881 0.086 Uiso 1 1 calc R . . . .
H4B H 0.793305 0.579540 0.709370 0.086 Uiso 1 1 calc R . . . .
N5 N 0.2445(16) 0.6470(5) 0.8270(10) 0.082(11) Uani 1 1 d . . . . .
O1 O 0.4865(11) 0.6736(3) 0.8560(8) 0.074(7) Uani 1 1 d . . . . .
O2 O 0.1650(13) 0.5327(4) 0.8259(9) 0.085(10) Uani 1 1 d . . . . .
O3 O 0.0857(12) 0.7376(4) 0.7932(8) 0.085(9) Uani 1 1 d . . . . .
loop_
_atom_site_aniso_label
_atom_site_aniso_U_11
_atom_site_aniso_U_22
_atom_site_aniso_U_33
_atom_site_aniso_U_23
_atom_site_aniso_U_13
_atom_site_aniso_U_12
C1 0.062(9) 0.044(4) 0.11(3) 0.007(5) -0.022(14) 0.002(3)
C2 0.052(8) 0.043(4) 0.07(2) -0.006(5) 0.008(13) -0.005(3)
C3 0.063(7) 0.040(4) 0.12(2) -0.007(5) -0.032(12) -0.008(4)
C4 0.052(9) 0.034(4) 0.13(3) 0.013(5) -0.026(17) -0.013(3)
N1 0.058(8) 0.032(3) 0.17(3) -0.002(4) -0.051(13) 0.001(3)
N2 0.056(6) 0.039(3) 0.14(2) -0.001(4) -0.039(11) 0.004(3)
N3 0.072(7) 0.033(3) 0.16(2) 0.001(4) -0.054(12) 0.003(3)
N4 0.058(7) 0.054(3) 0.09(2) 0.005(4) -0.030(11) 0.001(3)
N5 0.049(7) 0.044(4) 0.14(3) -0.009(5) -0.026(13) 0.003(3)
O1 0.044(5) 0.044(3) 0.126(18) -0.001(3) -0.019(9) -0.004(2)
O2 0.056(7) 0.042(3) 0.15(2) -0.003(3) -0.013(12) -0.013(2)
O3 0.060(6) 0.055(3) 0.13(2) 0.019(4) -0.026(11) 0.006(2)
loop_
_atom_type_symbol
_atom_type_description
_atom_type_scat_dispersion_real
_atom_type_scat_dispersion_imag
_atom_type_scat_source
C C 0.0033 0.0016 'International Tables Vol C Tables 4.2.6.8 and 6.1.1.4'
H H 0.0000 0.0000 'International Tables Vol C Tables 4.2.6.8 and 6.1.1.4'
N N 0.0061 0.0033 'International Tables Vol C Tables 4.2.6.8 and 6.1.1.4'
O O 0.0106 0.0060 'International Tables Vol C Tables 4.2.6.8 and 6.1.1.4'
loop_
_geom_angle_atom_site_label_1
_geom_angle_atom_site_label_2
_geom_angle_atom_site_label_3
_geom_angle
_geom_angle_site_symmetry_1
_geom_angle_site_symmetry_3
_geom_angle_publ_flag
N2 C1 C2 112.6(5) . . ?
C3 C2 C1 105.7(5) . . ?
C2 C3 N1 106.4(5) . . ?
N3 C4 N1 116.8(6) . . ?
N4 C4 N1 119.6(5) . . ?
N4 C4 N3 123.2(5) . . ?
C3 N1 C4 128.7(5) . . ?
N2 N1 C3 111.9(4) . . ?
N2 N1 C4 119.4(4) . . ?
C1 N2 N1 103.4(4) . . ?
O1 N5 O3 119.7(5) . . ?
O2 N5 O1 120.5(5) . . ?
O2 N5 O3 119.7(5) . . ?
loop_
_geom_bond_atom_site_label_1
_geom_bond_atom_site_label_2
_geom_bond_distance
_geom_bond_site_symmetry_2
_geom_bond_publ_flag
C1 C2 1.404(9) . ?
C1 N2 1.319(7) . ?
C2 C3 1.342(9) . ?
C3 N1 1.376(7) . ?
C4 N1 1.397(8) . ?
C4 N3 1.304(8) . ?
C4 N4 1.295(7) . ?
N1 N2 1.370(7) . ?
N5 O1 1.257(7) . ?
N5 O2 1.228(7) . ?
N5 O3 1.263(6) . ?

_cod_database_fobs_code 2108919
