#------------------------------------------------------------------------------
#$Date: 2019-05-18 08:14:21 +0300 (Sat, 18 May 2019) $
#$Revision: 215299 $
#$URL: file:///home/coder/svn-repositories/cod/cif/2/10/83/2108399.cif $
#------------------------------------------------------------------------------
#
# This file is available in the Crystallography Open Database (COD),
# http://www.crystallography.net/. The original data for this entry
# were provided by IUCr Journals, http://journals.iucr.org/.
#
# The file may be used within the scientific community so long as
# proper attribution is given to the journal article from which the
# data were obtained.
#
data_2108399
loop_
_publ_author_name
'Tcho\'n, Daniel'
'Makal, Anna'
_publ_section_title
;
 Structure and piezochromism of pyrene-1-carbaldehyde at high pressure
;
_journal_issue                   3
_journal_name_full               'Acta Crystallographica Section B'
_journal_page_first
;
;
_journal_paper_doi               10.1107/S2052520619003354
_journal_volume                  75
_journal_year                    2019
_chemical_formula_moiety         'C17 H10 O'
_chemical_formula_sum            'C17 H10 O'
_chemical_formula_weight         230.25
_space_group_crystal_system      triclinic
_space_group_IT_number           2
_space_group_name_Hall           '-P 1'
_space_group_name_H-M_alt        'P -1'
_symmetry_space_group_name_Hall  '-P 1'
_symmetry_space_group_name_H-M   'P -1'
_atom_sites_solution_hydrogens   geom
_audit_creation_date             2018-06-25
_audit_creation_method
;
Olex2 1.2
(compiled May 29 2018 13:30:08 for OlexSys, GUI svn.r5506)
;
_cell_angle_alpha                109.37(3)
_cell_angle_beta                 99.57(3)
_cell_angle_gamma                100.71(3)
_cell_formula_units_Z            2
_cell_length_a                   6.477(2)
_cell_length_b                   8.041(2)
_cell_length_c                   10.205(3)
_cell_measurement_reflns_used    460
_cell_measurement_temperature    293(2)
_cell_measurement_theta_max      21.6140
_cell_measurement_theta_min      1.9140
_cell_volume                     477.6(3)
_computing_cell_refinement
'CrysAlisPro, Agilent Technologies, Version 1.171.37.34 (release 22-05-2014 CrysAlis171 .NET) (compiled May 22 2014,16:03:01)'
_computing_data_collection
'CrysAlisPro, Agilent Technologies, Version 1.171.37.34 (release 22-05-2014 CrysAlis171 .NET) (compiled May 22 2014,16:03:01)'
_computing_data_reduction
'CrysAlisPro, Agilent Technologies, Version 1.171.37.34 (release 22-05-2014 CrysAlis171 .NET) (compiled May 22 2014,16:03:01)'
_computing_molecular_graphics    'Olex2 (Dolomanov et al., 2009)'
_computing_publication_material  'Olex2 (Dolomanov et al., 2009)'
_computing_structure_refinement  'ShelXL (Sheldrick, 2015)'
_diffrn_ambient_temperature      293(2)
_diffrn_detector                 'CCD plate'
_diffrn_measured_fraction_theta_full 0.718
_diffrn_measured_fraction_theta_max 0.520
_diffrn_measurement_details
'#__ type_ start__ end____ width___ exp.time_ 1 omega -150.00 -94.00 0.2000 0.3970 omega____ theta____ kappa____ phi______ frames - -20.0000 70.0000 -24.2319 280 #__ type_ start__ end____ width___ exp.time_ 2 omega -150.00 -94.00 0.2000 0.3970 omega____ theta____ kappa____ phi______ frames - -20.0000 70.0000 155.7681 280 #__ type_ start__ end____ width___ exp.time_ 3 omega -105.00 -76.00 0.2000 0.3970 omega____ theta____ kappa____ phi______ frames - 20.0000 70.0000 155.7700 145 #__ type_ start__ end____ width___ exp.time_ 4 omega -105.00 -75.00 0.2000 0.3970 omega____ theta____ kappa____ phi______ frames - 20.0000 70.0000 -24.2300 150 #__ type_ start__ end____ width___ exp.time_ 5 omega -96.00 -30.00 0.2000 0.3970 omega____ theta____ kappa____ phi______ frames - 20.0000 -70.0000 24.2300 330 #__ type_ start__ end____ width___ exp.time_ 6 omega -103.00 -66.00 0.2000 0.3970 omega____ theta____ kappa____ phi______ frames - -20.0000 -70.0000 -155.7700 185 #__ type_ start__ end____ width___ exp.time_ 7 omega -103.80 -66.00 0.2000 0.3970 omega____ theta____ kappa____ phi______ frames - -20.0000 -70.0000 24.2300 189 #__ type_ start__ end____ width___ exp.time_ 8 omega -96.00 -30.00 0.2000 0.3970 omega____ theta____ kappa____ phi______ frames - 20.0000 -70.0000 -155.7700 330'
_diffrn_measurement_device       'abstract diffractometer'
_diffrn_measurement_device_type
'dectris-CrysAlisPro-abstract goniometer imported dectris images'
_diffrn_measurement_method       '\w scans'
_diffrn_orient_matrix_UB_11      -0.0506264000
_diffrn_orient_matrix_UB_12      0.0235626000
_diffrn_orient_matrix_UB_13      -0.0250498000
_diffrn_orient_matrix_UB_21      0.0590807000
_diffrn_orient_matrix_UB_22      0.0320340000
_diffrn_orient_matrix_UB_23      -0.0134875000
_diffrn_orient_matrix_UB_31      -0.0123243000
_diffrn_orient_matrix_UB_32      -0.0530677000
_diffrn_orient_matrix_UB_33      -0.0436105000
_diffrn_radiation_monochromator  synchrotron
_diffrn_radiation_probe          x-ray
_diffrn_radiation_type           synchrotron
_diffrn_radiation_wavelength     0.4859
_diffrn_reflns_av_R_equivalents  0.1391
_diffrn_reflns_av_unetI/netI     0.0786
_diffrn_reflns_Laue_measured_fraction_full 0.718
_diffrn_reflns_Laue_measured_fraction_max 0.520
_diffrn_reflns_limit_h_max       9
_diffrn_reflns_limit_h_min       -9
_diffrn_reflns_limit_k_max       12
_diffrn_reflns_limit_k_min       -12
_diffrn_reflns_limit_l_max       15
_diffrn_reflns_limit_l_min       -15
_diffrn_reflns_number            2461
_diffrn_reflns_point_group_measured_fraction_full 0.718
_diffrn_reflns_point_group_measured_fraction_max 0.520
_diffrn_reflns_theta_full        16.950
_diffrn_reflns_theta_max         22.567
_diffrn_reflns_theta_min         1.900
_diffrn_source                   synchrotron
_exptl_absorpt_coefficient_mu    0.051
_exptl_absorpt_correction_T_max  1.000
_exptl_absorpt_correction_T_min  0.07393
_exptl_absorpt_correction_type   multi-scan
_exptl_absorpt_process_details
;
CrysAlisPro 1.171.38.43c (Rigaku Oxford Diffraction, 2015)
Empirical absorption correction using spherical harmonics,
 implemented in SCALE3 ABSPACK scaling algorithm.
;
_exptl_crystal_density_diffrn    1.601
_exptl_crystal_description
;
;
_exptl_crystal_F_000             240
_refine_diff_density_max         0.875
_refine_diff_density_min         -0.777
_refine_diff_density_rms         0.209
_refine_ls_extinction_method     none
_refine_ls_goodness_of_fit_ref   1.089
_refine_ls_hydrogen_treatment    constr
_refine_ls_matrix_type           full
_refine_ls_number_parameters     165
_refine_ls_number_reflns         2461
_refine_ls_number_restraints     162
_refine_ls_restrained_S_all      1.057
_refine_ls_R_factor_all          0.2634
_refine_ls_R_factor_gt           0.1689
_refine_ls_shift/su_max          0.000
_refine_ls_shift/su_mean         0.000
_refine_ls_structure_factor_coef Fsqd
_refine_ls_weighting_details
'w=1/[\s^2^(Fo^2^)+(0.1308P)^2^+1.3113P] where P=(Fo^2^+2Fc^2^)/3'
_refine_ls_weighting_scheme      calc
_refine_ls_wR_factor_gt          0.3776
_refine_ls_wR_factor_ref         0.4342
_reflns_Friedel_coverage         0.000
_reflns_number_gt                1176
_reflns_number_total             2461
_reflns_threshold_expression     'I > 2\s(I)'
_cod_data_source_file            xk5054sup1.cif
_cod_data_source_block           28kbar
_cod_original_cell_volume        477.5(3)
_cod_database_code               2108399
_shelx_shelxl_version_number     2016/6
_chemical_oxdiff_formula         'C17 H10 O1'
_shelx_space_group_comment
;
The symmetry employed for this shelxl refinement is uniquely defined
by the following loop, which should always be used as a source of
symmetry information in preference to the above space-group names.
They are only intended as comments.
;
_diffrn_oxdiff_twin_integration_method simultaneous
_olex2_refinement_description
;
1. Twinned data refinement
 Scales: 0.725(6)
 0.237(6) 0.0377(16)
2. Fixed Uiso
 At 1.2 times of:
  All C(H) groups
3. Uiso/Uaniso restraints and constraints
Uanis(C12) \\sim Ueq: with sigma of 0.005 and sigma for terminal atoms of 0.01
4. Rigid body (RIGU) restrains
 All non-hydrogen atoms
 with sigma for 1-2 distances of 0.004 and sigma for 1-3 distances of 0.004
5.a Aromatic/amide H refined with riding coordinates:
 C3(H3), C14(H14), C8(H8), C6(H6), C7(H7), C4(H4), C13(H13), C11(H11),
 C17(H17), C10(H10)
;
_shelx_res_file
;
TITL 3d_twin1_hklf4_a.res in P-1
    3d_twin1_hklf4.res
    created by SHELXL-2016/6 at 18:34:45 on 25-Jun-2018
REM Old TITL 3d_twin1_hklf4 in P-1
REM SHELXT solution in P-1
REM R1 0.245, Rweak 0.024, Alpha 0.174, Orientation as input
REM Formula found by SHELXT: C17 O
CELL 0.4859 6.4766 8.0414 10.2048 109.366 99.574 100.715
ZERR 2 0.0023 0.0022 0.003 0.025 0.026 0.026
LATT 1
SFAC C H O
DISP C 0.001 0.001 6.068
DISP H -0 0 0.607
DISP O 0.004 0.003 13.336
UNIT 34 20 2
RIGU
ISOR 0.005 0.01 C12

L.S. 5
PLAN  20
BOND $H
list 4
fmap 2
acta
OMIT -4 0 1
OMIT -9 7 3
OMIT 2 7 -3
OMIT -5 11 -6
REM <olex2.extras>
REM <HklSrc "%./3d_twin1_hklf5.hkl">
REM </olex2.extras>

WGHT    0.130800    1.311300
BASF   0.23692   0.03774
FVAR      18.40933
O1    3    0.412329    1.019483    0.810562    11.00000    0.09094    0.01727 =
         0.03627    0.00103    0.02857    0.00249
C15   1    0.238559    0.473907    0.456659    11.00000    0.03889    0.01213 =
         0.02229    0.00426    0.01212    0.00212
C2    1    0.292229    0.659876    0.555519    11.00000    0.03544    0.01314 =
         0.02363    0.00778    0.01062    0.00437
C3    1    0.327002    0.800363    0.498225    11.00000    0.03846    0.01704 =
         0.02569    0.01103    0.01132    0.00229
AFIX  43
H3    2    0.352128    0.921479    0.558694    11.00000   -1.20000
AFIX   0
C14   1    0.249526    0.544711    0.744428    11.00000    0.05826    0.02435 =
         0.03074    0.00816    0.02325    0.00441
AFIX  43
H14   2    0.247617    0.567838    0.839700    11.00000   -1.20000
AFIX   0
C1    1    0.297072    0.689275    0.701522    11.00000    0.04006    0.01788 =
         0.02732    0.00816    0.01908    0.00877
C12   1    0.197311    0.327520    0.504643    11.00000    0.01799    0.02192 =
         0.02099    0.01193    0.00006    0.00860
C9    1    0.192503    0.250098    0.213218    11.00000    0.03413    0.02475 =
         0.02364    0.00990    0.00828    0.00740
C8    1    0.196281    0.215360    0.069464    11.00000    0.04494    0.02170 =
         0.02531    0.00861    0.01479    0.00773
AFIX  43
H8    2    0.173563    0.095818    0.006498    11.00000   -1.20000
AFIX   0
C5    1    0.275830    0.577429    0.257535    11.00000    0.04577    0.01661 =
         0.02623    0.00614    0.01799    0.00450
C6    1    0.276947    0.536580    0.113508    11.00000    0.05287    0.02807 =
         0.02595    0.01295    0.01132    0.00766
AFIX  43
H6    2    0.307239    0.631026    0.080507    11.00000   -1.20000
AFIX   0
C7    1    0.233822    0.358367    0.019534    11.00000    0.05454    0.03657 =
         0.00887    0.00900    0.00441    0.01107
AFIX  43
H7    2    0.229641    0.333058   -0.076795    11.00000   -1.20000
AFIX   0
C4    1    0.324081    0.760594    0.357673    11.00000    0.05000    0.01701 =
         0.02984    0.01034    0.02107    0.00307
AFIX  43
H4    2    0.354545    0.855918    0.325630    11.00000   -1.20000
AFIX   0
C16   1    0.236992    0.431809    0.309868    11.00000    0.03657    0.01740 =
         0.02224    0.00775    0.00956    0.00588
C13   1    0.204350    0.365552    0.650035    11.00000    0.02911    0.02128 =
         0.02351    0.01850    0.00301    0.01352
AFIX  43
H13   2    0.178723    0.270620    0.682972    11.00000   -1.20000
AFIX   0
C11   1    0.147972    0.143397    0.403301    11.00000    0.04303    0.01152 =
         0.03487    0.01693    0.01487    0.00773
AFIX  43
H11   2    0.116643    0.047136    0.434229    11.00000   -1.20000
AFIX   0
C17   1    0.355844    0.869855    0.817114    11.00000    0.06830    0.01721 =
         0.02943    0.00368    0.02785    0.00951
AFIX  43
H17   2    0.349050    0.870074    0.907486    11.00000   -1.20000
AFIX   0
C10   1    0.146128    0.107047    0.263572    11.00000    0.06468    0.01434 =
         0.03148    0.00743    0.02154    0.00909
AFIX  43
H10   2    0.113970   -0.013419    0.200166    11.00000   -1.20000
AFIX   0
HKLF 5




REM  3d_twin1_hklf4_a.res in P-1
REM R1 =  0.1689 for    1176 Fo > 4sig(Fo)  and  0.2634 for all    2461 data
REM    165 parameters refined using    162 restraints

END

WGHT      0.1306      1.3121

REM Highest difference peak  0.875,  deepest hole -0.777,  1-sigma level  0.209
Q1    1   0.2733  0.6807  0.6165  11.00000  0.05    0.88
Q2    1   0.2660  0.6415  0.2810  11.00000  0.05    0.85
Q3    1   0.2576  0.6168  0.7210  11.00000  0.05    0.80
Q4    1   0.3675  0.7596  0.7835  11.00000  0.05    0.74
Q5    1  -0.0293  0.3438  0.5975  11.00000  0.05    0.74
Q6    1   0.2055  1.0620  0.7196  11.00000  0.05    0.74
Q7    1   0.1243  0.7394  0.2221  11.00000  0.05    0.69
Q8    1   0.4231  0.3229  0.1238  11.00000  0.05    0.68
Q9    1   0.0567  0.3608 -0.0912  11.00000  0.05    0.67
Q10   1   0.3382  0.3843 -0.0054  11.00000  0.05    0.67
Q11   1   0.3638  0.6245  0.1237  11.00000  0.05    0.67
Q12   1   0.3035  0.6429  0.4615  11.00000  0.05    0.67
Q13   1  -0.0111  0.2445 -0.1035  11.00000  0.05    0.66
Q14   1   0.4934  1.0236  0.7791  11.00000  0.05    0.65
Q15   1   0.3128  0.6008  0.4217  11.00000  0.05    0.65
Q16   1   0.2646  0.3035  0.0740  11.00000  0.05    0.64
Q17   1   0.1352  0.6341  0.5277  11.00000  0.05    0.64
Q18   1   0.3034  0.7758  0.7215  11.00000  0.05    0.64
Q19   1   0.3126  0.1354  0.4007  11.00000  0.05    0.63
Q20   1   0.0856  0.7154  0.9443  11.00000  0.05    0.63
;
_shelx_res_checksum              60897
_shelx_hkl_file
;
   0   0  -2 63596.1 295.901   1
   0  -1   0 355244. 488.965   1
   0  -1  -1 48785.2 135.582   1
   0   1   2 77337.5 229.995   1
   0   1   3 55544.1 235.542   1
   0  -1  -4-13.8302 241.958   1
   0   1   5 790.769 319.306   1
   0  -1  -6 4413.14 436.759   1
   0  -1  -7 28174.9 867.624   1
   0   2   0 1535.60 143.108   1
   0  -2  -1 1502.07 199.249   1
   0  -2  -2 172447. 386.223   1
   0  -2  -3 41368.1 322.884   1
   0   2   4 2015.84 262.624   1
   0   2   5 7876.61 363.190   1
   0   2   6 25998.4 363.412   1
   0  -2  -7 78256.4 840.455   1
   0  -2  -8 476.720 802.447   1
   0   3   1 1118.57 201.887   1
   0  -3  -2 101537. 341.940   1
   0  -3  -3 724.638 290.308   1
   0  -3  -4 4090.03 244.391   1
   0  -3  -5 4760.88 295.259   1
   0  -3  -6 38002.1 395.559   1
   0  -3  -7 1125.68 375.128   1
   0  -3  -8 11280.5 853.145   1
   0  -4   0 887.380 321.565   1
   0  -4  -1 10955.8 402.234   1
   0  -4  -2 1086.08 254.006   1
   2  -4   5 7599.33 1252.17  -3
  -4   3  -1 7599.33 1252.17  -2
   0  -4  -2 7599.33 1252.17   1
   0  -4  -3 15714.9 323.942   1
   0   4   4 2800.23 278.645   1
   0  -4  -5 10858.1 509.405   1
   0   4   6 3100.65 484.109   1
   0  -4  -7 2318.18 524.126   1
   3  -3   5 2236.48 477.661  -3
  -4   2  -2 2236.48 477.661  -2
   0  -5   0 2236.48 477.661   1
   0  -5  -1 23407.9 531.611   1
   0   5   2 596.008 499.917   1
   5  -4   1 5574.94 571.599  -2
   0   5   3 5574.94 571.599   1
   0  -5  -4 9195.90 519.394   1
   0  -5  -5 501.113 513.942   1
   0  -5  -6 3352.28 717.304   1
   0   5   7 11548.6 960.115   1
   0  -6   0 7460.09 541.312   1
   0   6   1 24665.2 632.591   1
   0  -6  -2 5257.08 589.034   1
   0  -6  -3 48925.1 778.243   1
   0   6   4 3376.23 808.851   1
   0  -6  -5 1064.02 911.250   1
   0   6   6 5434.01 655.372   1
   0   6   7 4268.71 882.531   1
   0  -7   0 2680.20 756.402   1
   0   7   1 2283.67 848.502   1
   0  -7  -2 2354.60 1080.43   1
   0  -7  -3 6276.73 679.606   1
   0   7   4 143.531 664.489   1
   0  -7  -5-447.015 689.605   1
   0   7   6 5049.79 782.659   1
   0  -8  -1 14279.2 760.344   1
   0  -8  -2 3465.91 756.965   1
   0  -8  -4 15338.8 736.766   1
   0  -8  -5 91498.7 974.687   1
   0   8   6 1395.27 745.143   1
   0  -9  -2 3241.90 804.374   1
   0  -9  -3 325.709 797.290   1
   0   9   4 26780.0 842.079   1
   0  -9  -5 23292.9 856.554   1
   0 -10  -3 2606.31 1377.48   1
  -1   9   5 1269.10 1687.65   1
   1  -9  -4 31430.1 1549.10   1
  -1   8   5 2920.80 724.391   1
   1  -8  -4 814.564 754.249   1
   1  -8  -3 3596.53 1242.05   1
   1  -7  -5 3492.35 723.575   1
  -1   7   4 801.249 864.062   1
   1  -7  -2 564.316 957.296   1
  -1   6   5 2315.60 629.670   1
  -1   6   4 6743.08 630.218   1
   1  -6  -2 5779.05 588.280   1
  -1   5   6 401.287 544.718   1
  -1   5   5 2090.52 510.536   1
   1  -5  -4 8768.08 354.667   1
  -1   5   3 5533.45 438.834   1
   1  -5  -2 4704.18 394.041   1
  -1   4   8 2986.27 1092.39   1
  -1   4   7 46.4954 487.900   1
   1  -4  -5 5598.47 308.816   1
  -1   4   4 12727.1 312.350   1
   1  -4  -3 4054.34 271.735   1
   1  -4  -2 6177.76 400.211   1
   1  -4  -1 89908.0 896.027   1
   1  -3 -10 1310.18 675.961   1
  -1   3   8 7683.33 598.377   1
   1  -3  -7 331.685 495.287   1
   1  -3  -6 155825. 525.967   1
  -1   3   5 34261.2 309.635   1
   1  -3  -4 337.037 232.968   1
   1  -3  -3 11215.8 291.672   1
   1  -3  -2 226426. 1155.58   1
   1  -2 -11 9615.06 1013.56   1
   1  -2 -10 4783.64 929.258   1
  -1   2   9 1140.73 759.062   1
   1  -2  -8 5066.68 533.625   1
   1  -2  -7 60298.1 623.948   1
   1  -2  -6 361509. 666.943   1
   1  -2  -5 12349.2 377.691   1
   1  -2  -4 3242.07 190.190   1
  -1   2   3 31271.7 519.305   1
  -1   2   2 34305.0 202.934   1
   1  -1 -10-576.740 848.613   1
   1  -1  -9 87.2541 782.217   1
  -1   1   8 6786.99 529.565   1
   1  -1  -7 4184.80 450.724   1
   1  -1  -5-20.0516 193.385   1
   1  -1  -4 11855.4 241.588   1
   1  -1  -2 5050.52 115.604   1
  -1   1   1-39.6556 101.215   1
   1   0  -8 3994.04 447.957   1
   1   0  -7 8129.32 417.660   1
  -1   0   6 10944.2 370.633   1
   1   0  -5 26712.2 397.800   1
   1   0  -3 217393. 519.201   1
  -1   0   2 27058.4 183.319   1
   1   0  -1 39524.3 171.368   1
   1   1  -6 508.793 316.155   1
  -1  -1   5 26513.6 334.294   1
   1   1  -4 1612.95 265.282   1
   1   1  -3 476.449 151.001   1
   1   1  -2 220290. 281.472   1
   1   1  -1 79047.1 275.824   1
   1   1   0 55868.7 278.352   1
   1   1   1 94275.2 393.168   1
   1   1   2 46400.3 430.476   1
   1   2  -3 92841.9 593.135   1
  -1  -2   2 1450.46 122.855   1
   1   2  -1 21305.7 236.874   1
  -1  -2   0 22282.1 266.450   1
  -1  -2  -1 72471.9 320.429   1
  -1  -2  -2 358773. 700.601   1
   1   2   3 698.174 257.443   1
   1   2   4 3159.07 312.075   1
  -1  -2  -5 15145.1 676.210   1
  -1  -2  -6 207336. 1633.67   1
  -1  -3   0 17832.4 321.693   1
   1   3   1 248499. 352.489   1
   1   3   2 35951.8 273.936   1
  -1  -3  -3 513.435 519.476   1
  -1   4  -6 822.334 886.932  -3
   4  -3  -1 822.334 886.932  -2
   1   3   3 822.334 886.932   1
   1   3   4 741.001 352.955   1
   1   3   5 317.483 523.279   1
  -1  -3  -7 1643.59 1002.01   1
  -1  -4   3 134119. 1099.85   1
  -1  -4   2 29185.2 432.132   1
  -1  -4   1 7298.03 373.534   1
  -1  -4   0 74359.2 590.706   1
   1   4   1 2460.91 262.934   1
  -1  -4  -2 828.545 365.311   1
   1   4   3 2206.70 474.154   1
   1   4   4 349.778 439.783   1
  -1  -4  -5 3089.84 511.112   1
   1   4   6 2762.09 546.679   1
   1   4   8 4458.14 848.846   1
  -1  -5   1 68475.6 655.341   1
  -1  -5   0 448.659 467.393   1
  -1  -5  -1 14464.6 534.498   1
  -1  -5  -2 487.984 491.986   1
  -1  -5  -3 31667.8 591.880   1
   1   5   4 16703.0 606.873   1
  -1  -5  -6 628.332 578.049   1
   1   5   7 2801.46 612.914   1
  -1  -5  -8 16465.6 780.563   1
  -1  -6   2 137723. 921.902   1
  -1  -6   1 297963. 1247.24   1
   1   6   0 17062.7 620.954   1
  -1  -6  -1 5080.83 604.413   1
  -1  -6  -2 1429.32 571.154   1
   1   6   3 5168.94 1312.65   1
   1   6   4 1834.26 597.689   1
  -1  -6  -5 1079.58 611.100   1
   1   6   6 2072.76 638.477   1
  -1  -6  -7 1369.53 665.224   1
  -1  -7   2 18915.3 689.447   1
  -1  -7  -1 1516.66 651.479   1
   1   7   2-1202.87 684.668   1
  -1  -7  -3 563.753 664.916   1
  -3   7 -10 1042.09 624.525  -3
   1   7   4 1042.09 624.525   1
  -1  -7  -5-160.583 688.640   1
   1   7   6 1376.22 721.913   1
   1   7   7 2072.55 755.714   1
  -1  -8   1 556.005 703.268   1
   1   8   0 2068.41 707.394   1
   1   8   1 1462.40 705.527   1
   1   8   2 6953.40 740.710   1
  -1  -8  -3 477.886 905.805   1
   8  -5   1 3896.64 1103.38  -2
   1   8   3 3896.64 1103.38   1
  -1  -8  -4 14791.2 793.268   1
   1   8   5 5466.61 784.558   1
  -1  -8  -6 2995.99 1254.39   1
  -3   9 -12 3783.04 1292.26  -3
   9  -7   0 3783.04 1292.26  -2
   1   8   6 3783.04 1292.26   1
   1   9   0 11708.8 833.539   1
  -1  -9  -1 373.972 782.976   1
   1   9   2 2331.66 804.397   1
   1   9   3 3742.03 767.046   1
   4  -8  12 12010.3 941.921  -3
  -9   6  -1 12010.3 941.921  -2
  -1  -9  -4 12010.3 941.921   1
  -1 -10  -1 130.453 846.600   1
   1  10   2-1457.23 1075.84   1
   2  -6  -4 3371.09 740.187   1
  -2   5   8 6524.31 1184.42   1
   2  -5  -7 8461.79 812.589   1
  -2   5   6 1219.69 496.763   1
   2  -5  -5 2384.51 379.669   1
  -2   5   4-507.031 525.918   1
   2  -5  -3 4898.96 599.041   1
  -2   4  11 1765.99 1532.26   1
   2  -4 -10 2205.27 650.325   1
   2  -4  -9 353.049 597.776   1
  -2   4   7 17280.7 546.721   1
   2  -4  -6 8062.52 478.055   1
   2  -4  -5 873.026 303.241   1
   2  -4  -4 837.026 374.595   1
   2  -4  -3 1597.80 486.898   1
   2  -3 -13-36.5865 1213.01   1
   2  -3 -12 3288.24 783.114   1
   2  -3 -11 9786.35 766.754   1
   2  -3 -10 1529.09 679.922   1
  -2   3   9 452.209 553.162   1
   2  -3  -8 2077.10 504.282   1
  -2   3   7 52760.9 590.421   1
   2  -3  -6 58098.5 575.260   1
  -2   3   5 959.603 274.977   1
  -2   3   4 10018.5 389.556   1
  -2   3   3 34145.0 415.850   1
  -2   2  12 3537.52 1197.11   1
   1 -11   6 30069.1 2449.13  -3
  -4  10   0 30069.1 2449.13  -2
   2  -2 -12 30069.1 2449.13   1
   2  -2 -10 1553.51 645.727   1
   2  -2  -8 14783.7 561.357   1
  -2   2   7 44211.7 587.510   1
  -2   2   6 39223.2 667.072   1
   2  -2  -5 956.617 220.366   1
   2  -2  -4 13787.4 300.023   1
   2  -2  -3 8172.26 249.726   1
   2  -1 -12 5006.32 974.449   1
   2  -1 -11 10112.1 942.180   1
  -1  10  -4 10490.0 1949.76  -3
   3  -9   0 10490.0 1949.76  -2
  -2   1  11 10490.0 1949.76   1
   2  -1 -10 1652.54 586.378   1
  -2   1   9 13414.5 802.141   1
  -2   1   8 9608.83 516.700   1
   2  -1  -7 4170.15 431.166   1
  -2   1   6 12514.5 398.395   1
  -2   1   5 1096.87 156.106   1
   2  -1  -4 421.437 189.269   1
   2  -1  -3 3069.90 217.264   1
   2  -1  -2 13376.5 255.561   1
   2   0 -11-962.623 688.774   1
   2   0 -10-238.779 829.522   1
  -2   0   9 42869.0 637.451   1
   2   0  -8 1100.19 456.935   1
   2   0  -7 9628.78 421.186   1
   2   0  -6 6993.45 436.857   1
   2   0  -5 242469. 740.213   1
  -2   0   4 389226. 865.246   1
   2   0  -3 56832.9 366.876   1
   2   0  -2 23773.8 228.724   1
   2   1  -9 36246.5 1137.65   1
  -2  -1   8 4102.89 454.582   1
  -2  -1   7 5441.41 408.528   1
   2   1  -6 7945.79 368.788   1
   2   1  -5 114142. 536.178   1
  -2  -1   3 819.956 99.8584   1
  -2  -1   2 8052.18 186.249   1
  -2  -1   1 111249. 427.331   1
   2   1   0 7149.64 273.993   1
  -2  -2   8 1307.14 540.392   1
  -2  -2   7 774.946 394.943   1
  -2  -2   6 33778.9 426.411   1
   2   2  -5 637.718 279.805   1
  -2  -2   4 10785.7 262.377   1
  -2  -2   3 769.685 141.474   1
   2   2  -2 6231.95 154.865   1
   2   2  -1 819.754 356.554   1
  -2  -2  -1 1230.49 311.245   1
   2   2   2 47215.4 515.420   1
  -2  -2  -3 1365.93 400.323   1
   2   3  -7 49880.6 922.736   1
   2   3  -6 504.530 607.050   1
   2   3  -5-541.902 503.167   1
   2   3  -4 4733.75 276.074   1
   2   3  -3 108199. 611.373   1
  -2  -3   2 19493.8 206.732   1
  -2  -3   1 2894.78 293.917   1
  -2  -3   0 2688.69 306.577   1
  -4   1   2 2923.56 545.584  -2
  -2  -3  -1 2923.56 545.584   1
  -2  -3  -2 31065.2 551.707   1
  -2  -3  -3 4605.38 537.863   1
   0  -5   8 687.136 660.410  -3
  -5   3   3 687.136 660.410  -2
  -2  -3  -4 687.136 660.410   1
  -2  -3  -5-48.0504 659.091   1
  -2  -4   4-168.418 358.137   1
  -2  -4   3 2307.41 259.145   1
   2   4  -2 10870.4 411.505   1
  -2  -4   1 2898.57 465.548   1
   2   4   0 8730.14 388.508   1
  -2  -4  -1 4947.39 410.516   1
  -2  -4  -2 1286.62 447.989   1
   2   4   3 1120.22 471.726   1
   2   4   4 399.688 613.265   1
  -2  -4  -6 2169.30 682.352   1
  -2  -5   5 3093.76 889.804   1
  -2  -5   4 344.303 572.038   1
   2   1   5 3989.15 948.536  -3
  -4  -2   0 3989.15 948.536  -2
  -2  -5   4 3989.15 948.536   1
   2   5  -3 1141.33 452.847   1
   2   5  -2 20867.5 572.106   1
   2   5  -1 49684.2 655.635   1
  -2  -5   0 11403.0 516.192   1
  -2  -5  -1 393.844 463.024   1
  -2  -5  -2 4087.56 507.439   1
  -2  -5  -4 183.122 540.983   1
   2   5   5 1234.76 579.565   1
   2   5   6-650.820 598.142   1
   2   5   7 3633.84 818.285   1
  -2  -6   4 6869.68 986.535   1
   2   6  -3 1763.93 542.751   1
  -2  -6   2 337249. 1357.22   1
  -2  -6   1 51695.5 767.231   1
  -2  -6   0 4172.82 595.988   1
  -2  -6  -2 7576.93 589.534   1
  -2  -6  -3 1460.17 592.387   1
  -2  -6  -4 931.540 613.667   1
   2   6   5 4884.47 652.525   1
   2   6   6 151.438 658.632   1
  -2  -6  -7 90.8794 676.901   1
  -2  -6  -8 6116.38 913.144   1
  -2  -7   4 21923.0 1234.31   1
   2   7  -3 8096.76 761.122   1
  -2  -7   1 2971.60 1163.51   1
  -2  -7   0 7647.31 684.873   1
  -2  -7  -1 1480.16 626.440   1
   2   7   2 849.717 649.878   1
  -2  -7  -3 649.725 673.231   1
   2   7   4 1918.57 674.008   1
   2   7   5 23093.6 773.858   1
   2   7   6 1596.32 727.505   1
  -2  -7  -7-2483.44 731.993   1
  -2  -8   3 8403.37 740.296   1
  -2  -8   2 1597.98 713.300   1
  -2  -8   1 1269.91 751.352   1
  -2  -8   0 21832.8 799.129   1
   3  -5  11 6335.41 810.200  -3
  -8   3   0 6335.41 810.200  -2
  -2  -8  -1 6335.41 810.200   1
   2   8   2 1925.73 730.244   1
   2   8   3 990.060 737.736   1
  -9   5   1 20379.1 1238.67  -2
  -2  -8  -4 20379.1 1238.67   1
  -2  -8  -5 37217.0 877.781   1
  -2  -9   2 1325.65 784.992   1
  -2  -9   1 4811.03 799.943   1
  -2  -9   0 19903.6 877.785   1
   2   9   1 1653.71 757.431   1
  -2  -9  -2 3632.95 775.918   1
  -2  -9  -3-254.057 842.842   1
  -2 -10   1 1914.55 1104.59   1
   2  10   0 4359.90 1836.42   1
  -3   6   7 3796.34 620.576   1
   3  -6  -5 3917.69 1177.66   1
  -3   5  10 706.283 656.449   1
   3  -5  -9 820.601 602.767   1
   3  -5  -8 11217.3 612.171   1
   3  -5  -7-365.697 615.522   1
  -3   5   6 1156.37 582.173   1
   3  -5  -5 3035.39 679.182   1
  -3   4  12 2151.61 729.487   1
   3  -4 -11 2179.84 904.232   1
  -3   4  10 1441.17 638.802   1
  -3   4   9 1454.53 610.297   1
   3  -4  -8 3217.80 554.658   1
   3  -4  -7 441.052 838.396   1
   3  -4  -6 15248.1 586.287   1
   3  -4  -5 4129.51 498.707   1
   3  -4  -4 283.526 881.164   1
   3  -3 -13 1030.84 710.580   1
  -3   3  12 2993.07 688.111   1
   3  -3 -11 1538.03 651.262   1
   3  -3 -10 2601.17 596.394   1
  -3   3   9-328.961 569.193   1
   3  -3  -7 4241.59 517.458   1
   3  -3  -6 386029. 1079.81   1
  -3   3   4 11541.3 502.173   1
   3  -2 -13 2116.06 757.780   1
   3  -2 -12 1925.23 635.845   1
   3  -2 -11 25641.2 672.579   1
   3  -2 -10 4260.15 843.895   1
   3  -2  -9 7314.20 1213.80   1
  -3   2   8 1350.07 479.026   1
  -3   2   7 49307.5 590.960   1
  -3   2   6 18985.0 460.415   1
   3  -2  -5 29467.1 500.175   1
  -3   2   4 15622.6 401.320   1
   3  -2  -3 1924.47 372.058   1
   3  -1 -13 341.782 742.153   1
  -3   1  12 3248.64 701.465   1
  -3   1  11 4580.01 673.589   1
   3  -1 -10 2277.10 597.944   1
   3  -1  -8-105.896 506.172   1
   3  -1  -7 22985.0 477.263   1
   3  -1  -6 4518.40 394.094   1
  -3   1   5 17093.4 448.215   1
   3  -1  -4 21931.1 381.588   1
  -3   1   3 2094.30 269.391   1
   3   0 -13 5644.40 836.906   1
   3   0 -12 4831.71 689.797   1
  -3   0  11 3232.54 627.538   1
   3   0 -10 1026.96 568.522   1
  -3   0   9 3384.88 517.352   1
   3   0  -8 721.511 487.835   1
  -3   0   7 5789.26 440.167   1
   1  -5  -1 2038.90 1302.43  -3
   0   6  -3 2038.90 1302.43  -2
   3   0  -6 2038.90 1302.43   1
  -3   0   5 5899.45 426.962   1
   3   0  -4-65.7565 417.466   1
   3   0  -3 19343.9 370.441   1
   3   1 -12 1047.94 643.351   1
  -3  -1  11 1786.92 593.069   1
   3   1 -10 9977.54 907.304   1
   3   1  -9 995.037 518.415   1
   3   1  -8 820.492 453.297   1
   3   1  -7 18398.3 509.532   1
  -3  -1   6 783.697 379.656   1
   3   1  -5 3288.22 526.043   1
  -3  -1   4 6403.38 191.311   1
  -3  -1   3 870.841 320.374   1
  -3  -1   2 4711.22 434.391   1
  -3  -2  11 501.903 693.257   1
   3   2  -9 3034.96 517.976   1
   3   2  -8 1195.17 479.900   1
   3   2  -7 6333.03 457.433   1
  -3  -2   6 7834.73 388.460   1
   3   2  -5-340.992 348.232   1
  -2  -4   2 1403.16 489.721  -2
  -3  -2   5 1403.16 489.721   1
   0  -3  -3 4874.92 780.836  -3
   2   4  -2 4874.92 780.836  -2
   3   2  -5 4874.92 780.836   1
  -3  -2   4 1418.80 309.808   1
   3   2  -3 104055. 375.628   1
  -3  -2   1-297.314 331.059   1
  -3  -2   0 1305.01 364.111   1
  -3  -2  -1 115859. 729.844   1
  -3  -3   9 800.901 635.680   1
   3   3  -8 207521. 905.853   1
   3   3  -7 99424.6 657.035   1
   3   3  -6 2228.66 396.248   1
   3   3  -5 3052.69 306.489   1
   3   3  -4 14018.2 350.820   1
  -3  -3   3 211593. 390.378   1
   3   3  -2 278.505 254.377   1
  -3  -3   1 1356.96 512.999   1
   0  -1   7 3449.96 840.101  -3
  -4  -1   3 3449.96 840.101  -2
  -3  -3   1 3449.96 840.101   1
  -3  -3   0 5926.41 467.851   1
  -3  -3  -1 9671.79 521.689   1
  -3  -3  -2 4755.22 535.187   1
   3   3   3-847.700 548.517   1
   3   4  -9 8006.24 848.546   1
   3   4  -8 259676. 1666.80   1
   3   4  -7 4292.36 724.679   1
  -3  -4   6 4115.50 505.024   1
  -3  -4   5 735.590 423.540   1
  -3  -4   4 14417.3 486.893   1
  -3  -4   3 11470.6 556.839   1
  -3  -4   2 813.427 399.246   1
   3   4  -1 2680.77 415.263   1
  -3  -4   0 1745.01 455.035   1
  -3  -4  -1 3188.99 576.849   1
  -3  -4  -2 2178.74 609.962   1
  -3  -4  -4 5581.71 671.441   1
  -3  -5   6 1250.93 934.193   1
  -3  -5   5 8077.83 522.186   1
  -3  -5   4 3329.85 507.153   1
  -3  -5   3 898.254 506.363   1
   3   5  -2 5594.31 479.135   1
   3   5  -1 171421. 895.901   1
   3   5   0-77.3008 497.233   1
  -3  -5  -1 471.336 656.442   1
   3   5   2 4644.59 848.080   1
  -3  -5  -3 8097.06 617.117   1
  -3  -5  -4 3703.64 649.277   1
   3   5   5-290.969 633.598   1
  -3  -6   6 39100.6 1297.16   1
  -3  -6   5 717.888 575.032   1
  -3  -6   4 10657.3 604.930   1
  -3  -6   3 1999.98 599.731   1
  -3  -6   2 47426.4 777.004   1
   3   6   0 1897.33 564.569   1
  -3  -6  -1 1727.60 572.241   1
  -3  -6  -2 2479.65 608.479   1
  -3  -6  -3 1325.65 617.889   1
  -3  -6  -4-51.8274 739.654   1
   1  -6  12-821.912 1564.86  -3
  -8   4   3-821.912 1564.86  -2
  -3  -6  -4-821.912 1564.86   1
   3   6   5-391.394 650.297   1
   3   6   6 348.408 671.618   1
  -3  -7   6 2375.87 1208.04   1
  -3  -7   3 1862.17 1113.02   1
   2  -2  10 1725.80 775.181  -3
  -7   0   1 1725.80 775.181  -2
  -3  -7   2 1725.80 775.181   1
   3   7  -1 1697.34 635.786   1
   3   7   0 2244.41 676.236   1
  -3  -7  -1 1481.26 657.210   1
   3   7   2 1985.15 666.620   1
   3   7   3 117.487 697.543   1
   3   7   4-1340.20 723.815   1
  -3  -7  -5 5598.67 736.112   1
  -3  -8   5 5198.85 1361.12   1
  -3  -8   4 1759.79 757.327   1
  -3  -8   3 1023.21 727.124   1
  -3  -8   2 2608.79 725.668   1
   3   8  -1-3345.15 743.279   1
   3   8   0 6306.12 735.864   1
  -3  -8  -1 144.052 730.359   1
  -3  -8  -2 1392.61 756.315   1
  -3  -8  -3 229.252 744.152   1
  -3  -9   4 10017.0 1490.88   1
   3   9  -3 2800.65 887.397   1
   3   9  -2 1041.61 733.135   1
   3   9  -1 5858.48 771.793   1
   3   9   0 4218.13 781.658   1
  -3  -9  -1-716.494 811.953   1
   3  10  -3-1026.25 863.409   1
   3  10  -2 3204.07 804.286   1
  -4   6  10 1225.08 958.470   1
  -4   6   9 6462.22 1060.01   1
  -4   6   8 3335.54 807.675   1
   4  -6  -7 11679.5 1500.34   1
  -4   5  11 2281.21 681.622   1
   4  -5 -10-2853.37 668.716   1
  -4   5   9 756.021 639.508   1
   4  -5  -8 1165.67 609.153   1
   4  -5  -6 5876.08 1213.21   1
  -4   4  12 3728.24 697.989   1
  -3  11  -4 9435.64 1327.41  -3
   4 -11   4 9435.64 1327.41  -2
  -4   4  11 9435.64 1327.41   1
   4  -4 -10 2474.97 633.196   1
   4  -4  -9 1103.34 580.701   1
  -4   4   8 1811.91 1083.96   1
  -4   9  -2 26.3336 1184.12  -3
   3  -9   5 26.3336 1184.12  -2
  -4   4   8 26.3336 1184.12   1
   4  -4  -7 125.949 589.612   1
   4  -4  -6 27924.0 1345.64   1
   4  -3 -12 1134.23 680.319   1
  -4   3  11 12509.1 669.503   1
   4  -3 -10 1501.12 633.386   1
   4  -3  -9 3779.00 575.253   1
  -4   3   8 415.245 514.663   1
  -4   3   6 40654.0 643.155   1
  -4   3   5-401.836 462.417   1
   4  -2 -13 1724.77 706.159   1
   4  -2 -12 383.108 651.796   1
   4  -2 -11 3891.38 628.067   1
   4  -2 -10 3328.31 594.714   1
   4  -2  -9 1586.53 543.623   1
   4  -2  -8 24792.6 1071.61   1
   4  -2  -7 17089.3 507.535   1
   4  -2  -6 833.864 473.564   1
  -4   2   5-106.384 438.701   1
   4  -1 -13 4351.78 685.812   1
   4  -1 -12 128.355 644.617   1
  -4   1  11 2575.98 588.422   1
   4  -1 -10 2125.42 561.419   1
  -4   1   8 289.304 445.317   1
  -4   1   7 6084.56 507.789   1
   4  -1  -6 584.423 460.915   1
   4  -1  -5 2856.38 417.380   1
  -4   1   4 96334.2 643.689   1
   4   0 -14 9190.96 801.284   1
  -4   0  13 11333.3 761.111   1
   4   0 -12 2594.02 693.860   1
   4   0 -11 244.207 646.401   1
   4   0 -10 6778.68 614.911   1
   4   0  -8 816.062 463.457   1
   4   0  -7 1385.11 455.430   1
  -4   0   6 670.289 409.326   1
  -4   0   5 161697. 1024.85   1
   4   0  -4 18199.3 421.021   1
   4   0  -3 10167.2 715.550   1
   4   1 -14 87706.4 1600.00   1
   4   1 -13 8310.59 746.194   1
  -4  -1  12 702.842 716.783   1
   4   1 -11-606.160 1313.68   1
   0  -9   2 2870.30 1373.34  -2
  -4  -1  11 2870.30 1373.34   1
  -4  -1  10 6627.55 607.966   1
   4   1  -9 5030.27 742.102   1
   1  -6  -2 2729.66 1059.10  -3
   1   7  -3 2729.66 1059.10  -2
   4   1  -8 2729.66 1059.10   1
   4   1  -7 376.309 431.601   1
   4   1  -6 2805.63 432.124   1
  -4  -1   5 970.765 406.343   1
   4   1  -4 1612.59 301.110   1
   4   1  -3 260.320 669.681   1
   4   2 -12 2277.87 672.347   1
  -4  -2  11 1841.17 649.721   1
   4   2 -10-30.4402 934.934   1
   4   2  -9 13300.2 614.604   1
   4   2  -8 385.392 504.595   1
  -4  -2   7 3435.76 922.590   1
   2   6  -3 11614.2 918.541  -2
   4   2  -7 11614.2 918.541   1
   4   2  -6 1394.70 408.922   1
   4   2  -5 814.895 406.722   1
   4   2  -4-32.2325 343.887   1
  -4  -2   3 6442.92 395.255   1
   4   2  -2 31129.2 568.463   1
  -1   0   7 4259.33 1168.49  -3
  -4  -2   5 4259.33 1168.49  -2
  -4  -2   1 4259.33 1168.49   1
   4   3 -12 3792.65 1028.83   1
   4   3 -11-11.0674 685.192   1
   4   3  -9 4341.20 589.127   1
   4   3  -8 1103.96 519.501   1
   4   3  -7 58916.3 614.239   1
  -4  -3   6 10756.5 409.057   1
   4   3  -5 1204.67 512.235   1
  -4  -3   4 1198.40 358.866   1
  -4  -3   3 5134.22 409.976   1
   4   3  -2 293.465 486.973   1
  -4  -3   1 702.582 509.005   1
   4   3   0 159.065 525.994   1
   4   3   1-385.002 557.800   1
   4   4  -9 1390.75 639.579   1
  -4  -4   5 3371.94 783.580   1
   4   4  -4 6188.10 448.524   1
   4   4  -3 863.754 438.611   1
  -4  -4   2 191.388 469.878   1
  -4  -4   1 1328.57 488.284   1
  -4  -4   0 1063.13 613.654   1
  -4  -4  -1 2013.39 1432.88   1
  -4  -4  -2 2440.20 842.894   1
  -4  -5   5 1211.77 739.901   1
   4   5  -4 5120.61 525.862   1
   1   0   9 3180.41 720.781  -3
  -6  -2   3 3180.41 720.781  -2
  -4  -5   3 3180.41 720.781   1
   4   5  -1 63299.5 942.332   1
   4   5   0 655.352 850.664   1
   0  -3  11 2103.46 1213.02  -3
  -4  -5  -1 2103.46 1213.02   1
   0   3 -11 979.107 1052.56  -3
   7  -1  -4 979.107 1052.56  -2
   4   5   1 979.107 1052.56   1
   4   5   2 409.547 602.564   1
   4   5   3 5742.37 643.812   1
  -4  -6   5 3990.50 621.544   1
   4   6  -4 1122.02 595.502   1
   4   6  -2 51316.5 852.532   1
   4   6  -1 447.600 587.227   1
  -4  -6   0 1194.23 611.125   1
  -4  -6  -1 1224.75 626.540   1
   4   6   2-1146.24 647.922   1
  -4  -6  -3-347.636 660.445   1
  -4  -6  -4 322.380 669.485   1
  -4  -7   5 44.4076 1206.29   1
   4   7  -4 3130.90 926.007   1
   2   0  10-338.183 1456.15  -3
  -7  -2   2-338.183 1456.15  -2
  -4  -7   4-338.183 1456.15   1
  -4  -7   3 5279.10 703.125   1
  -4  -7   2 1393.93 670.634   1
   4   7  -1 661.668 670.187   1
  -4  -7   0 394.511 672.965   1
  -4  -7  -1 5347.97 715.454   1
  -4  -7  -2 1933.32 710.426   1
  -4  -7  -4 6967.73 1469.16   1
  -4  -8   5 3010.96 778.815   1
   4   8  -4 9199.99 742.906   1
  -4  -8   3 2432.49 733.746   1
   4   8  -2-931.989 781.418   1
  -4  -8   1 864.940 756.211   1
   4   8   0 14175.5 803.246   1
  -4  -8  -1 1389.86 760.745   1
  -4  -8  -2 1406.22 1038.02   1
  -4  -9   5 10363.6 890.737   1
   4   9  -4 10343.1 829.275   1
  -4  -9   3 232.965 791.585   1
   4   9  -2 2623.67 790.803   1
  -4  -9   1 484.917 812.192   1
  -4 -10   5-748.247 1545.03   1
  -4 -10   4 3058.07 1032.16   1
  -5   6  10 4380.20 816.567   1
   5  -6  -9 1747.30 1061.13   1
  -5   5  11-1491.73 720.554   1
   5  -5 -10 1130.27 662.195   1
  -5   5   9 177.817 644.542   1
  -5   5   8 856.311 712.919   1
  -5   4  11 736.246 654.364   1
   5  -4 -10 1863.45 630.835   1
   5  -4  -9 2.36481 607.645   1
  -4   9  -1 2244.17 1161.98  -3
   2  -9   6 2244.17 1161.98  -2
  -5   4   8 2244.17 1161.98   1
   5  -4  -7 1499.55 782.657   1
  -5   3  12 832.901 658.764   1
   5  -3 -11 4780.57 634.856   1
  -5   3  10 10446.8 630.269   1
   5  -3  -9 1516.91 578.797   1
   5  -3  -8 586.364 532.678   1
   5  -3  -7 25737.0 852.612   1
  -3  11  -1-447.906 1824.51  -3
   2 -11   4-447.906 1824.51  -2
  -5   2  12-447.906 1824.51   1
  -5   2  11 12985.9 682.641   1
   5  -2 -10 1246.19 591.312   1
   5  -2  -9 510.531 545.385   1
   5  -2  -8 2460.95 536.032   1
  -5   1  13 227.724 703.863   1
  -5   1  12-686.315 637.488   1
  -5   1  11 609.104 631.572   1
  -5   1  10-213.661 695.445   1
  -5   1   9 749.899 558.770   1
   5  -1  -8 2484.29 650.716   1
   5  -1  -7-506.002 537.949   1
   5  -1  -6 505.682 513.076   1
   5  -1  -5 1891.11 1020.53   1
   5   0 -13 1228.10 685.203   1
   5   0 -12 460.134 669.944   1
   5   0 -11 3339.93 638.384   1
   5   0 -10 5990.09 624.404   1
  -5   0   9 1219.96 564.759   1
  -5   0   8 6640.39 840.126   1
   5   0  -7 1113.55 1190.59   1
   2  -6  -3 7218.76 918.699  -3
   1   7  -5 7218.76 918.699  -2
   5   0  -7 7218.76 918.699   1
  -5   0   6 48.4839 505.166   1
   5   0  -5 5128.66 618.658   1
   5   0  -4 2723.64 883.119   1
   5   1 -14 6692.55 727.318   1
   1 -10  -1 8524.96 1549.10  -3
   0  11  -3 8524.96 1549.10  -2
   5   1 -13 8524.96 1549.10   1
   5   1 -12 929.546 642.768   1
   5   1 -11 1540.27 613.750   1
   5   1 -10 1324.39 676.508   1
  -5  -1   9-549.755 770.320   1
  -5  -1   8 3808.54 529.994   1
  -5  -1   7 1789.45 523.643   1
   5   1  -6 1322.08 439.034   1
   5   1  -5-266.421 460.382   1
   5   2 -14-82.5186 799.320   1
   5   2 -13 2172.26 899.981   1
   5   2 -12 4715.68 741.232   1
   5   2 -11 156.323 621.028   1
   5   2 -10-459.806 595.167   1
   5   2  -9-3616.42 1259.23   1
  -5  -2   8 27520.2 946.288   1
   5   2  -7 41396.0 579.344   1
   5   2  -6-51.4132 438.547   1
  -5  -2   5-1987.40 717.543   1
  -5  -2   3 69328.3 1173.37   1
  -5  -2   2 8538.86 898.247   1
   5   3 -14 104.293 1247.09   1
   5   3 -13 3429.71 784.232   1
  -5  -3  12 8035.51 767.306   1
   5   3 -11 1534.21 714.840   1
   5   3 -10-24.9843 727.182   1
   5   3  -9 1512.65 563.492   1
   5   3  -3 7660.58 670.636   1
  -5  -3   2 1479.71 979.766   1
  -5  -3   1 4327.54 1042.78   1
   5   4 -13 8611.77 1335.67   1
  -5  -4   3 1522.71 493.874   1
  -5  -4   2 685.417 968.083   1
  -6  -2   5 299.163 1227.40  -2
  -5  -4   2 299.163 1227.40   1
  -5  -4   1 24584.1 1258.27   1
   5   4   0-384.475 1062.20   1
  -5  -5   4 4652.04 875.836   1
   5   5  -3 922.358 739.329   1
  -5  -5   2 21353.6 1012.61   1
  -5  -5   0-309.364 645.136   1
  -5  -5  -1-117.629 627.943   1
   5   6  -4 1577.19 946.861   1
   5   6  -3 560.127 636.827   1
   5   6  -2 1557.68 644.187   1
  -5  -6   1 1255.88 654.942   1
   5   6   0 450.329 658.270   1
  -5  -6  -1 69.3666 697.198   1
   5   6   2 68.5892 678.966   1
   5   7  -4-512.184 717.254   1
   5   7  -3 930.643 716.125   1
  -5  -7   2-36.6798 732.558   1
   5   7  -1 308.596 710.473   1
  -5  -7   0 598.907 719.356   1
   5   7   1 690.303 723.383   1
   5   7   2 2841.40 757.193   1
   5   8  -4 2158.25 787.191   1
   5   8  -3 1311.89 804.337   1
   5   8  -2-570.089 777.068   1
  -5  -8   1 3219.23 800.488   1
  -5  -8   0 1794.95 1040.89   1
  -5  -9   4 4232.12 840.008   1
  -5  -9   3 4818.73 835.681   1
   6  -5 -10 4799.99 1070.77   1
  -6   4  11 7340.89 1032.66   1
  -6   4  10-672.827 657.129   1
   6  -4  -9-300.921 735.150   1
   6  -3 -10 749.179 641.908   1
   6  -3  -9-742.821 607.892   1
  -6   3   8 6055.08 859.197   1
  -6   2  12 430.772 665.504   1
  -6   2  11 3237.47 645.318   1
  -6   2  10 1138.41 630.419   1
   6  -2  -9 1310.18 607.816   1
   0   9  -7 4964.72 988.940  -2
   6  -2  -8 4964.72 988.940   1
   6  -2  -7 5988.17 1264.92   1
   6  -1 -12 1538.56 670.046   1
   6  -1 -11 155.692 619.344   1
  -6   1  10 968.556 707.303   1
  -3   9   2 3648.75 2233.75  -3
   0 -10   6 3648.75 2233.75  -2
  -6   1  10 3648.75 2233.75   1
   6  -1  -9 15849.2 637.742   1
   6  -1  -8 817.622 549.436   1
  -6   1   7 317.466 676.228   1
   1   8  -7 14615.4 2079.44  -2
   6  -1  -7 14615.4 2079.44   1
   6   0 -13 14564.2 760.713   1
   6   0 -12 1852.00 923.771   1
   2 -10  -2 6212.06 3813.33  -3
   0  11  -5 6212.06 3813.33  -2
   6   0 -12 6212.06 3813.33   1
   6   0 -11 1059.76 652.684   1
   6   0 -10 5998.43 623.103   1
  -6   0   9 19284.8 655.387   1
   6   0  -8 287.188 566.756   1
   6   0  -7-1505.54 1286.05   1
   6   0  -6 1187.54 1195.03   1
  -6  -1  13-389.840 731.248   1
  -6  -1  12 159.953 683.219   1
  -6  -1  11 719.589 666.840   1
   6   1 -10 2828.24 633.267   1
  -6  -1   9 1515.50 603.913   1
   6   1  -7-1406.80 510.377   1
   6   1  -6 2732.98 1220.37   1
   6   1  -5 10.7813 1174.52   1
  -6  -2  14 2801.02 1115.77   1
   6   2 -13 3701.90 757.624   1
   6   2 -12 484.343 704.046   1
  -6  -2  11 333.087 676.178   1
  -6  -2  10 1184.05 646.177   1
   6   2  -9 849.370 593.808   1
  -6  -3  14 727.171 773.627   1
   6   3 -13 3742.47 751.697   1
  -6  -5   3 424.079 1477.13   1
   6   5  -2 42329.5 766.509   1
   6   5  -1 8061.49 981.570   1
  -6  -6   3 2454.39 1152.73   1
   0   1 -13-375.023 980.079  -3
   8   2  -6-375.023 980.079  -2
   6   6  -2-375.023 980.079   1
  -6  -6   1 18.6999 685.410   1
  -6  -6   0 2897.08 949.940   1
  -6  -7   3 1878.53 1219.36   1
  -6  -7   2 1597.94 759.888   1
   6   7  -1 1632.08 756.587   1
  -6  -7   0 8112.24 837.183   1
  -6  -8   3 104.639 976.666   1
   6   8  -2-39.4058 1129.97   1
  -7   3  10 2177.40 824.827   1
   7  -2 -11 109.739 679.799   1
   7  -2 -10-101.541 674.083   1
  -7   2   9 6830.55 1108.34   1
  -7   1  12 1811.41 830.398   1
  -7   1  11-74.2162 678.815   1
   7  -1 -10-215.384 661.984   1
   7  -1  -9 592.083 650.006   1
   7  -1  -8 1772.05 1507.89   1
  -7   0  12 787.088 697.210   1
  -7   0  11 161.471 677.388   1
   7   0 -10 1134.24 667.862   1
  -7   0   9-766.384 647.832   1
  -7   0   8-72.5880 952.515   1
  -7  -1  13 1290.46 1102.89   1
   7   1 -12 957.979 695.589   1
   7   1 -11 919.730 715.473   1
   7   1 -10 484.333 660.374   1
   7   1  -9-240.191 655.536   1
   7   2 -13 1361.42 767.644   1
  -8   1  11 7777.12 1125.32   1
  -8   0  11 2423.73 867.888   1
   8   0 -10 2934.35 1176.24   1
   0  -1   1 179008. 373.561   2
   0   1   0 122840. 443.395   2
   0  -2   2 31472.6 270.723   2
   0   2  -1 88621.0 516.725   2
   0  -2   0 492.609 311.284   2
   0  -3   2 49014.5 431.163   2
   0  -3   1 1888.44 402.175   2
   0  -3   0 793.773 681.053   2
   0  -4   4-449.469 336.545   2
   0  -4   3 29652.3 474.018   2
   0  -4   2 9721.16 504.877   2
   0   4  -1 650.302 599.055   2
   0   4   0 1894.22 689.114   2
   0   5  -4 1989.56 486.299   2
   0  -5   3-213.882 677.398   2
   0   5  -2-2727.97 1039.84   2
   0  -5   1-1202.88 773.693   2
   0   5   0 1751.45 888.186   2
   0  -6   5 304.628 571.109   2
   0  -6   4 2452.57 664.592   2
   0  -6   2 65630.8 1060.07   2
   0   6  -1 43041.4 1104.98   2
   0   6   0 3639.21 1058.29   2
   0   7  -4 724.092 756.861   2
   0   7  -3 2650.55 857.417   2
   0  -7   2 80701.5 1293.38   2
   0  -7   0-38.8973 2108.63   2
   0  -8   6 555.356 838.167   2
   0   8  -2 3157.21 1612.88   2
   0  -8   1 2574.30 1270.32   2
   3  -8  -2 484.313 1077.08  -3
   0   9  -6 484.313 1077.08   2
   0   9  -5 4535.81 902.662   2
   0   9  -4 2430.45 995.255   2
   0   9  -3 348.350 1196.90   2
   0   9  -2 4465.30 3372.30   2
   0   9  -1 3726.31 1400.73   2
   0 -10   7 107.040 878.753   2
   0 -10   6 1794.46 1086.69   2
   0 -10   5 9830.82 1769.81   2
   0 -10   4 6260.30 1155.89   2
   0  10  -3 1090.43 1327.36   2
   0 -10   2 2401.41 1399.04   2
   0 -11   8 1608.32 1437.76   2
   0  11  -7 241.868 996.730   2
   0  11  -6 209.020 1043.28   2
   0 -11   5 1971.26 1353.83   2
   0  11  -4 3494.72 1210.63   2
   0  11  -2-109.468 1493.53   2
   0  12  -7 1908.38 3353.62   2
   0 -12   6-151.648 2286.96   2
   0 -12   5 5746.91 2388.00   2
   1 -12   4-814.999 2322.16   2
   1 -12   5 689.281 1542.28   2
   1 -12   6 1849.21 2263.19   2
  -1  12  -7 5723.31 2168.73   2
   1 -11   2 2916.07 1511.43   2
  -1  11  -3 765.316 1242.97   2
   1 -11   4-97.0366 1173.47   2
  -1  11  -5 1697.22 1093.96   2
   1 -11   6 52.0201 1025.77   2
   1 -11   7 738.161 977.018   2
   1 -10   1 7995.29 1454.14   2
  -1  10  -2 1451.78 1386.35   2
  -1  10  -3 1253.52 1179.08   2
   1 -10   4 675.985 1084.45   2
  -1  10  -5 7729.73 1011.09   2
  -1  10  -6-2856.01 991.650   2
   1 -10   7-2323.07 869.262   2
  -1   9  -1 3518.53 1335.39   2
   1  -9   2-135.463 1254.92   2
  -1   9  -3 1173.69 1038.09   2
   1  -9   4 652.340 935.540   2
  -1   9  -5 926.518 871.398   2
  -1   9  -6-413.550 818.304   2
   1  -9   7 1743.63 1323.53   2
  -1   8   0-626.212 1308.69   2
  -1   8  -1 2028.46 1759.92   2
  -1   8  -6 516.174 967.427   2
  -1   7   0 2896.71 1189.41   2
   1  -7   1 9327.81 1138.34   2
  -1   7  -2 48494.8 1145.00   2
   1  -7   3 378.072 768.454   2
   1  -7   4 2332.28 706.284   2
  -1   7  -5 89.8620 700.304   2
   1  -7   6 5090.93 1049.79   2
  -1   6   0 3525.21 1037.18   2
  -1   6  -1 83815.2 1172.65   2
   1  -6   2 1094.63 827.353   2
  -1   6  -3 96.6163 628.696   2
   1  -6   4 3718.35 625.441   2
  -1   6  -5-1223.93 553.124   2
  -1   5   0 12294.8 880.687   2
  -1   5  -1 4665.06 1005.99   2
   1  -5   2 1039.86 204.407   2
  -1   5  -3 943.235 303.182   2
  -1   5  -4 15553.2 518.934   2
  -1   4   0 9.28318 733.241   2
   1  -4   1 889.998 548.831   2
  -1   4  -2 1451.93 193.594   2
  -1   4  -3 116692. 777.229   2
   1  -3   0 119.693 652.302   2
  -1   3  -2 1095.93 154.614   2
  -1   2   0 2573.60 124.285   2
  -1   2  -1 348.376 76.9697   2
  -1   1   0 487.712 65.4448   2
  -1   0   1 14289.1 141.939   2
  -1   0   0 5092.89 62.9536   2
  -1  -1   1 28598.2 104.870   2
  -1  -1   0 17184.8 178.836   2
  -1  -2   2 731.905 193.769   2
  -1  -2   1 6725.39 82.3368   2
   1   2   0 7125.11 407.014   2
   1   3  -3 181931. 1409.61   2
  -1  -3   2 13453.8 160.671   2
  -1  -3   1-114.059 235.529   2
  -1  -4   4 32220.4 490.728   2
  -1  -4   3 22667.9 233.421   2
   1   4  -2 8127.79 592.661   2
  -1  -4   1 1276.88 161.584   2
   1   4   0 20414.5 841.696   2
  -1  -5   5-80.6679 796.301   2
   1   5  -4 855.352 535.765   2
  -1  -5   3 11634.1 600.888   2
   1   5  -2 5153.42 792.486   2
  -1  -5   1 18816.0 959.858   2
   1   5   0 436.483 1088.33   2
   1   6  -6-521.489 1540.44   2
   1   6  -5 1492.42 622.113   2
  -1  -6   4 1286.34 643.967   2
   1   6  -3 3218.40 735.756   2
  -1  -6   2 44087.3 1113.82   2
   1   6  -1 83179.2 1307.76   2
   1   6   0 10691.1 1588.21   2
   1   7  -6 5945.42 714.651   2
   1   7  -5 4156.67 2103.61   2
  -1  -7   4 522.906 779.915   2
  -1  -7   2 5769.92 1143.90   2
   1   7  -1 1122.76 1177.76   2
  -1  -8   7 525.802 1610.96   2
  -1  -8   6-468.625 867.573   2
   1   8  -2 2132.01 1653.77   2
  -1  -8   1 1362.90 1327.53   2
   1   9  -7-1277.74 814.551   2
   1   9  -6-312.475 902.109   2
  -1  -9   5 7304.44 1031.96   2
   1   9  -4 2591.12 1097.65   2
   1   9  -3 192.822 1250.99   2
  -1  -9   2 3570.87 1345.39   2
   1   9  -1 7980.10 1978.39   2
  -1 -10   8 7311.62 2077.67   2
   1  10  -7 148.705 934.665   2
  -1 -10   6 340.313 1015.06   2
  -1 -10   5 2854.63 1068.16   2
   1  10  -4 908.482 1150.05   2
   1  10  -3 1823.88 1365.26   2
   1  10  -2 1384.85 1627.41   2
   1  11  -7-1337.30 1039.57   2
  -1 -11   6 937.474 1098.29   2
  -1 -11   5-784.652 1161.65   2
  -1 -11   4-99.6548 1232.32   2
   1  11  -2-385.326 2010.24   2
  -2  12  -3 2067.32 3905.60   2
   2 -12   4 451.000 1133.93   2
   2 -12   5 954.513 2275.45   2
  -2  12  -6 4764.73 2210.66   2
   2 -12   7 12265.5 2884.55   2
  -2  11  -2 1237.26 1459.43   2
  -2  11  -3-1410.42 1211.67   2
   2 -11   5 4945.18 1099.48   2
  -2  11  -6 1914.79 1034.08   2
  -2  11  -7-2002.33 963.971   2
   2 -10   1 9009.68 1474.10   2
  -2  10  -2 925.458 1369.10   2
  -2  10  -3 1753.91 1138.17   2
  -2  10  -4 5160.43 1075.53   2
   2 -10   5 5244.92 1003.94   2
   2 -10   6-6640.08 955.701   2
   2 -10   7-1900.62 1260.76   2
  -2   9   0 6023.13 1576.13   2
  -2   9  -1 4466.27 1350.14   2
  -2   9  -2 1780.87 1288.89   2
  -2   9  -3 3743.79 1041.79   2
  -2   9  -4-97.4970 936.265   2
   2  -9   5 238.257 873.956   2
  -2   8   0 1838.12 1293.10   2
  -2   8  -6 6856.40 1188.10   2
   2  -7   0 2260.27 1184.71   2
   2  -7   1 14294.3 1141.98   2
   2  -7   2 81106.1 1235.44   2
   2  -7   3 806.522 813.387   2
   2  -7   4 1313.80 764.901   2
   2  -7   5-187.668 682.327   2
  -2   6   1 958.195 1231.68   2
  -2   6   0 4977.89 1040.53   2
   2  -6   1 3809.14 977.374   2
  -2   6  -2 16646.3 1194.79   2
  -2   6  -3-3707.69 665.859   2
  -2   6  -5 489.544 1473.42   2
  -2   5   1-664.819 922.882   2
  -2   5  -1 162.916 203.284   2
  -2   5  -2 5410.20 205.773   2
   2  -5   3 1259.70 526.543   2
   2  -5   4-186.471 473.488   2
   2  -4  -1 1495.28 756.836   2
  -2   4   0-5.32392 224.534   2
  -2   4  -1 429.576 163.211   2
  -2   4  -2 7084.93 177.464   2
   2  -4   3 19458.8 453.313   2
  -2   3   0 2806.35 184.083   2
  -2   3  -1 8878.41 458.943   2
  -2   3  -2 1070.95 157.678   2
  -2   2   1 4203.32 180.641   2
  -2   2   0 19769.0 264.758   2
  -2   2  -1 3850.84 118.791   2
  -2   1   1 17870.8 209.720   2
  -2   1   0 999999. 1181.07   2
  -2   1  -1 234749. 426.124   2
  -2   0   2 8916.25 236.386   2
  -2   0   1 198082. 404.060   2
  -2   0   0 759065. 892.738   2
  -2   0  -1 7418.69 234.568   2
  -2  -1   2 2547.98 168.361   2
   2   1  -1 39558.8 178.276   2
  -2  -1   0 2793.85 128.796   2
  -2  -2   2 1706.92 681.578   2
  -2  -2   1-3918.57 253.604   2
  -2  -2   0 817.978 242.770   2
   2   3  -3 27570.1 386.094   2
  -2  -3   2 5864.61 198.902   2
   2   3  -1 962.696 280.581   2
   2   3   0 1270.82 985.569   2
   2   4  -5 2956.21 1142.93   2
   2   4  -4-125.545 293.183   2
  -2  -4   3 349.431 198.342   2
   2   4  -2 668.666 1852.32   2
  -2  -4   1 378.584 300.780   2
   2   4   0 1254.40 1286.79   2
   2   5  -5-82.5731 553.731   2
   2   5  -4 190.444 597.502   2
   2   5  -3 1491.45 750.186   2
  -2  -5   2 5026.45 956.018   2
   2   5  -1 14587.0 1035.72   2
   2   5   0 5857.42 1492.11   2
   2   6  -6 514.288 1739.54   2
   2   6  -5 18.1467 684.187   2
   2   6  -4 1596.40 693.484   2
   2   6  -2 95635.5 1349.11   2
   2   6  -1 13671.8 1212.99   2
   2   7  -7 5425.58 1941.26   2
   2   7  -6 2852.07 749.444   2
  -2  -7   5 3146.03 1020.16   2
  -2  -7   4 5491.86 1597.26   2
   2   7  -3-1493.74 1225.69   2
  -2  -7   2 6131.90 1180.43   2
  -2  -7   1 912.723 1337.20   2
  -2  -8   7-2627.77 1365.83   2
  -2  -8   6-1585.21 928.963   2
   2   8  -3 2176.03 1434.69   2
  -2  -8   2 3084.57 1317.43   2
   2   8  -1-564.437 2047.27   2
   2   9  -8-1852.55 2582.39   2
   2   9  -7-888.873 863.836   2
   2   9  -6 228.565 928.575   2
   2   9  -5 4019.41 1017.79   2
   2   9  -4 8749.70 1123.25   2
   2   9  -3 2268.23 1294.52   2
   2   9  -2 1287.45 1393.56   2
   2  10  -8 1146.22 1982.29   2
  -2 -10   7 415.087 960.718   2
   2  10  -6 39.1143 1031.29   2
  -2 -10   5 3701.86 1103.64   2
  -2 -10   4 713.160 1181.01   2
   2  10  -3 2301.09 1400.10   2
   2  10  -2 757.552 1955.53   2
  -2 -11   8 3386.09 1567.32   2
   2  11  -7 408.131 1077.70   2
   2  11  -6 1195.63 1133.56   2
  -2 -11   5 1085.50 1190.66   2
   2  11  -4 1889.70 1260.71   2
   2  11  -3 1374.33 1367.74   2
   3 -12   3 7932.36 2334.43   2
   3 -12   4-394.603 2319.63   2
   3 -12   5 1630.53 1581.23   2
   3 -12   6 3231.52 2215.93   2
   3 -11   1 1118.84 1549.24   2
  -3  11  -2 5345.78 1493.92   2
  -3  11  -3 1707.67 1251.27   2
   3 -11   4 1114.55 1181.76   2
  -3  11  -5 1807.67 1105.41   2
  -3  11  -6 560.742 1020.45   2
   3 -11   7-216.783 1457.33   2
  -3  10   0 14103.6 2280.22   2
  -3  10  -1 6859.90 1458.78   2
  -3  10  -2 1003.21 1380.22   2
  -3  10  -3 1365.19 1178.07   2
  -3  10  -4 4482.93 1100.09   2
  -3  10  -5 2960.65 994.514   2
  -3  10  -6-1555.84 927.944   2
  -3   9   0 5561.96 2047.52   2
   3  -9   1 1592.23 1426.32   2
  -3   9  -2-1652.53 3194.36   2
  -3   9  -3-327.224 1082.55   2
   3  -9   4 2187.73 951.632   2
   3  -9   5 211.943 1898.72   2
  -3   9  -6-63.4547 1152.62   2
  -3   8   0 1776.08 1979.86   2
   3  -8   5 1027.76 897.114   2
   3  -7   0 8202.80 1204.23   2
  -3   7  -1 36582.6 1225.10   2
   3  -7   2 18471.1 952.948   2
   3  -7   3 3304.06 793.676   2
   3  -7   4-385.997 755.476   2
  -3   7  -5 104.099 1154.13   2
  -3   6   1 3959.39 1272.25   2
  -3   6   0 1369.84 1047.10   2
   3  -6   1 2895.33 437.511   2
   3  -6   2 413.190 351.614   2
  -3   6  -3 3526.60 415.260   2
  -3   6  -4 148.341 391.939   2
  -3   5   1 451.865 581.676   2
   3  -5   0 3419.66 364.802   2
  -3   5  -1 308.050 235.377   2
  -3   5  -2 495.059 241.646   2
  -3   5  -3 6707.77 367.159   2
   3  -4  -1 66301.4 522.232   2
  -3   4   0 1511.38 310.703   2
  -3   4  -1 921.894 237.477   2
  -3   4  -2 1948.20 213.312   2
  -3   4  -3 44729.1 559.148   2
  -3   3   1 4523.74 269.299   2
  -3   3   0 836.854 194.665   2
  -3   3  -1 2297.19 195.386   2
  -3   3  -2 489.501 215.893   2
  -3   2   2 2692.25 294.496   2
  -3   2   1 2855.59 216.020   2
  -3   2   0 719.300 187.954   2
  -3   2  -1 6935.40 204.318   2
  -3   2  -2 25303.2 257.123   2
  -3   1   2 3681.66 249.736   2
   3  -1  -1 799.359 190.723   2
  -3   1   0 2167.51 168.687   2
  -3   1  -1 16599.8 224.765   2
   3   0  -3 5345.25 619.151   2
  -3   0   1 13344.7 405.896   2
  -3   0   0 296.713 181.747   2
  -3   0  -1 2305.48 194.922   2
  -3  -1   3 74.0916 267.820   2
   3   1  -2 1392.41 249.177   2
   3   1  -1 1003.47 224.647   2
  -3  -1   0 611.579 193.217   2
  -3  -2   2 4425.54 322.174   2
  -3  -2   1 140.804 317.102   2
  -3  -2   0 314.098 384.475   2
   3   3  -3 69179.0 1627.82   2
  -3  -3   2-573.034 1068.65   2
  -3  -3   1 212.550 404.234   2
   3   4  -5-50.6993 548.348   2
  -3  -4   4 2405.94 490.084   2
  -3  -4   3 2919.79 538.700   2
  -3  -4   2 267.718 756.645   2
  -3  -4   1 173.298 422.765   2
   3   4   0-200.680 1342.64   2
  -3  -5   5 403.795 1145.58   2
   3   5  -4 1108.17 602.807   2
  -3  -5   3 793.852 706.215   2
   3   5  -2 5274.53 967.002   2
   3   6  -6 6073.10 1945.93   2
  -3  -6   5-208.726 672.625   2
  -3  -6   4 2146.41 751.996   2
   3   6  -3 500.503 971.631   2
  -3  -6   2 16615.2 1162.56   2
   3   6  -1 5023.91 1555.42   2
   3   7  -7 2923.34 2219.27   2
  -3  -7   6-546.387 729.636   2
   3   7  -5 1112.24 822.247   2
  -3  -7   4 2369.89 892.495   2
   3   7  -3 2818.80 1146.40   2
  -3  -7   2 1167.70 1261.77   2
   3   8  -8 3767.95 2473.07   2
   3   8  -7 1525.79 2724.20   2
   3   8  -6 820.775 1162.44   2
   3   8  -5 743.305 1214.47   2
   3   8  -4 480.471 1359.03   2
   4 -12   3 5915.62 2362.14   2
   4 -12   4 1047.47 2385.42   2
  -4  12  -5 4995.42 2373.81   2
  -4  12  -6-7769.32 3578.21   2
  -4  11  -1 4111.31 1551.22   2
  -4  11  -2 6197.06 1353.66   2
   4 -11   3 1739.42 1279.10   2
  -4  11  -5 2871.41 1135.83   2
   4 -11   6-1358.87 1041.72   2
   4 -10   0 19.6985 2291.13   2
  -4  10  -1 3904.92 1493.17   2
  -4  10  -2 706.327 1244.91   2
   4 -10   3 971.150 1171.17   2
  -4  10  -4 1798.52 1096.90   2
  -4  10  -5 634.416 1027.89   2
   4 -10   6 5779.15 1566.17   2
  -4   9   0 3826.72 1474.11   2
  -4   9  -1 1962.42 1336.74   2
  -4   9  -2 493.948 1153.12   2
  -4   9  -3-907.817 1056.54   2
  -4   9  -4 706.018 950.587   2
  -4   9  -5-341.492 907.459   2
  -4   9  -6 6701.33 2570.35   2
  -4   8   1 422.118 2157.68   2
  -4   8   0 2043.34 1940.22   2
   4  -8   5 77.9382 1787.28   2
  -4   7   1 842.306 1930.71   2
   4  -7   0 5954.57 1224.63   2
  -4   7  -1 4598.23 1193.24   2
   4  -7   2 26006.5 945.618   2
   4  -7   3 1203.52 874.045   2
  -4   7  -4-697.511 769.805   2
  -4   7  -5 4815.98 2006.84   2
   4  -6  -1-1717.21 674.537   2
  -4   6   0 106.071 341.354   2
  -4   6  -2-5136.69 361.634   2
  -4   6  -3 1501.37 344.667   2
  -4   6  -4 1693.24 555.743   2
  -4   5   2 737.724 823.949   2
  -4   5   1 413.511 378.536   2
  -4   5   0 525.574 309.945   2
  -4   5  -1 1269.73 277.574   2
  -4   5  -2 581.371 281.979   2
  -4   5  -3 2186.28 328.638   2
  -4   4   2 1327.78 1732.98   2
  -4   4   1 2059.45 329.528   2
  -4   4   0 939.836 270.765   2
  -4   4  -1 770.661 267.841   2
  -4   4  -2 1590.06 297.727   2
  -4   4  -3 1475.59 507.696   2
  -4   3   2 8203.91 397.595   2
  -4   3   1 1601.59 444.926   2
  -4   3   0 1172.01 253.879   2
  -4   3  -1 7782.26 306.007   2
  -4   3  -2 1774.17 290.492   2
  -4   2   3-211.044 374.225   2
   4  -2  -2 2727.50 307.213   2
  -4   2   1 2881.04 289.833   2
  -4   2   0 14199.4 289.976   2
  -4   2  -1 57777.9 388.551   2
  -4   1   3 142.958 343.433   2
  -4   1   1 16604.6 321.286   2
  -4   1   0 353910. 777.072   2
  -4   1  -1 14919.2 291.848   2
  -4   0   4 4024.35 728.175   2
  -4   0   3 2695.31 330.910   2
  -4   0   2-12094.1 534.781   2
  -4   0   1 14885.1 556.552   2
  -4   0   0 9923.77 284.427   2
  -4  -1   4-267.552 385.611   2
   4   1  -3 635.525 399.226   2
  -4  -1   2 2280.56 262.275   2
  -4  -1   1 4298.79 298.090   2
  -4  -1   0 1576.68 273.895   2
  -4  -1  -1-177.413 462.445   2
   4   2  -4-256.320 376.373   2
  -4  -2   3 2345.43 329.567   2
  -4  -2   2 9592.41 386.785   2
  -4  -2   1 676.966 278.000   2
  -4  -3   5 309.789 676.832   2
  -4  -3   4-198.255 507.183   2
  -4  -3   3 1468.55 288.230   2
  -4  -3   2-93.0272 304.739   2
  -4  -3   1-173.147 378.783   2
  -4  -3   0 984.060 551.795   2
  -5  11   0-1323.46 2440.29   2
  -5  11  -1 2150.94 1439.22   2
   5 -11   2 3240.04 1365.03   2
   5 -11   3 1481.31 1278.60   2
  -5  11  -4 621.554 1218.28   2
  -5  11  -6 15123.5 2197.88   2
  -5  10  -1 3117.10 1345.21   2
   5 -10   2-571.945 1256.11   2
   5 -10   3 2449.57 1172.75   2
  -5  10  -4 1139.04 1093.57   2
  -5  10  -5 110.313 1030.67   2
  -5  10  -6-569.850 2010.87   2
  -5   9   1 12882.4 2353.62   2
  -5   9   0 212.194 1489.51   2
  -5   9  -1 4648.33 1285.83   2
   5  -9   2-643.404 1148.82   2
  -5   9  -3 2258.42 1085.08   2
   5  -9   4-154.660 972.240   2
  -5   9  -5-639.455 1893.32   2
  -5   8   1 4167.30 2154.53   2
  -5   8   0 10244.7 2199.03   2
   5  -7   0 11411.2 2156.88   2
   5  -7   1 4507.68 1621.76   2
   5  -7   2 3100.78 1406.96   2
   5  -7   3 758.350 1361.34   2
  -5   6   2 1350.39 924.449   2
  -5   6   1-997.696 561.619   2
  -5   6   0 1570.68 412.503   2
  -5   6  -1 324.622 371.552   2
  -5   6  -2 913.948 435.856   2
   5  -6   3 437.136 401.709   2
  -5   6  -4 846.381 674.837   2
  -5   5   1 3933.18 545.777   2
  -5   5   0 526.374 397.405   2
  -5   5  -1 516.047 417.644   2
  -5   5  -2 383.586 389.501   2
  -5   4   3-211.495 1008.47   2
   5  -4  -2 6083.67 458.057   2
  -5   4   1 14805.5 447.736   2
  -5   4   0 660.500 352.241   2
  -5   4  -2 1270.94 359.277   2
  -5   4  -3 9467.12 672.996   2
   5  -3  -2 493.171 396.013   2
  -5   3   1 560.207 433.076   2
  -5   3   0 744.960 368.232   2
  -5   3  -1-429.970 345.628   2
  -5   3  -2 2463.16 351.821   2
  -5   2   3 662.831 415.973   2
  -5   2   2 1857.20 455.142   2
  -5   2   1 1202.80 317.251   2
  -5   2   0 404.742 346.400   2
  -5   2  -1 2491.51 330.686   2
  -5   2  -2 1415.36 335.862   2
  -5   1   4-535.960 449.313   2
  -5   1   3 2785.77 392.331   2
  -5   1   2 772.557 334.254   2
  -5   1   1 1325.86 370.438   2
  -5   1   0 889.291 330.580   2
  -5   1  -1 9025.17 346.477   2
  -5   0   4 360.560 428.030   2
  -5   0   3 621.951 468.329   2
  -5   0   2 1618.11 318.072   2
  -5   0   1 630.242 349.262   2
  -5   0   0 1125.92 328.054   2
  -5   0  -1 2410.11 340.483   2
  -5  -1   5 303.625 843.759   2
  -5  -1   4-125.707 416.021   2
  -5  -1   3 2814.67 351.807   2
  -5  -1   2 651.777 322.954   2
  -5  -1   1 136.794 347.699   2
  -5  -1   0 481.231 339.704   2
  -5  -1  -1 4315.59 630.059   2
   5   2  -5 322.702 620.586   2
  -5  -2   4-15.5797 534.872   2
  -5  -2   3 23574.4 384.928   2
  -5  -2   2 1920.73 374.575   2
  -5  -2   1 2212.52 365.620   2
  -5  -2   0 981.727 624.059   2
   5   3  -5-735.412 1100.53   2
  -5  -3   4 2656.26 377.512   2
  -5  -3   3 1991.21 344.382   2
  -5  -3   2 1907.91 362.458   2
  -5  -3   1 627.399 633.620   2
  -5  -3   0 2805.97 681.711   2
   6  -6   0 2527.48 1094.27   2
   6  -6   1 913.114 999.568   2
  -6   6  -4-258.506 769.746   2
   6  -5  -1 821.144 658.746   2
   6  -5   0 548.817 611.739   2
  -6   5  -1-224.446 577.082   2
  -6   4   2-2098.43 672.552   2
  -6   4   1 888.461 408.149   2
  -6   4   0 1171.52 395.266   2
  -6   4  -1-5859.58 485.646   2
  -6   4  -2 1033.99 677.326   2
  -6   4  -3-375.211 719.862   2
  -6   3   3 811.182 519.708   2
  -6   3   2 272.816 407.676   2
  -6   3   1 5.01916 376.568   2
  -6   3   0 1502.10 434.575   2
  -6   3  -1 2110.47 412.708   2
  -6   3  -2-1198.99 723.553   2
  -6   2   4 1267.48 922.571   2
  -6   2   3 705.459 563.437   2
  -6   2   2 67.8799 388.222   2
  -6   2   1 130.541 371.473   2
  -6   2   0 51887.5 536.045   2
  -6   2  -1 23161.6 449.565   2
   6  -1  -3 826.498 475.536   2
  -6   1   2-595.097 374.211   2
  -6   1   1 6061.71 437.361   2
  -6   1   0 30720.4 482.175   2
  -6   0   5 2025.40 541.648   2
  -6   0   4-1013.40 582.881   2
  -6   0   3 442.929 551.884   2
  -1   2  -9 22.7238 576.205  -3
   6   0  -3 22.7238 576.205   2
  -6   0   2 955.452 368.365   2
  -6   0   1 1311.91 416.169   2
  -6   0   0 1525.99 394.896   2
   6   0   1 995.997 853.371   2
   6   1  -5 1066.07 711.824   2
   6   1  -4 426.169 428.748   2
  -6  -1   2 997.463 433.067   2
  -6  -1   1 802.619 429.037   2
  -6  -1   0-96.4527 398.504   2
  -6  -2   6 2222.38 825.358   2
  -6  -2   4 923.229 416.773   2
  -6  -2   2 962.045 445.007   2
  -6  -2   1 929.747 415.883   2
  -6  -3   5-86.7639 458.190   2
  -6  -3   4 887.742 453.833   2
   1   1   9 208.924 538.346  -3
  -6  -3   3 208.924 538.346   2
  -6  -3   2 945.623 509.428   2
  -6  -3   1 892.716 775.314   2
   7  -7  -2-181.847 890.641   2
  -7   7   1-294.993 539.284   2
  -7   7   0 857.670 510.976   2
  -7   7  -1 698.089 490.485   2
  -7   7  -2 1481.40 472.136   2
  -7   7  -3 485.215 548.101   2
  -7   7  -4 7627.45 943.486   2
  -7   6   2-931.459 546.446   2
  -7   6   1 497.729 513.869   2
  -7   6   0 428.062 488.849   2
  -7   6  -1 304.656 469.492   2
  -7   6  -2 2290.07 534.838   2
  -7   6  -3 1916.11 678.395   2
   7  -5  -2-1524.30 551.854   2
  -7   5   1 6591.51 501.044   2
  -7   5   0 605.060 468.543   2
  -7   5  -1-314.539 528.430   2
  -7   5  -3 4682.14 836.239   2
   7  -4  -3-740.078 684.614   2
   7  -4  -2 1063.24 479.223   2
  -7   4   1 3113.74 511.121   2
  -7   4   0 715.576 643.095   2
  -7   4  -1-859.650 488.989   2
  -7   4  -2 1148.24 482.791   2
  -7   3   4-574.452 560.404   2
  -7   3   3-228.814 480.490   2
   7  -3  -2 597.514 447.988   2
  -7   3   1 805.048 430.342   2
  -7   3   0-193.977 483.125   2
  -7   3  -1 2411.06 466.908   2
  -7   3  -2 133.973 460.804   2
   7  -2  -4-225.054 673.199   2
   7  -2  -3-139.546 458.957   2
  -7   2   2 417.638 431.165   2
  -7   2   1 408.398 424.064   2
  -7   2   0 1160.52 468.491   2
  -7   2  -1 3256.90 461.027   2
  -7   2  -2 7.94919 787.211   2
  -7   1   5 1306.14 631.959   2
  -7   1   3 282.940 445.136   2
  -7   1   2 952.488 427.374   2
  -7   1   1-195.755 474.544   2
  -7   1   0 2108.77 458.786   2
  -7   1  -1-159.768 448.577   2
  -7   0   5-1581.43 706.600   2
  -7   0   4 966.009 475.444   2
  -7   0   3 1330.69 451.919   2
  -7   0   2 59.0947 427.282   2
  -7   0   0 1294.37 464.292   2
  -7   0  -1 1217.74 786.818   2
  -7  -1   6 3654.89 950.272   2
  -7  -1   4 298.770 473.362   2
  -7  -1   3 3242.77 544.323   2
  -7  -1   2 1173.88 439.648   2
  -7  -1   1 1875.01 483.290   2
  -7  -1   0 975.490 656.932   2
   7   2  -6-207.985 1405.47   2
  -7  -2   5-1077.77 513.100   2
  -7  -2   4-443.251 482.640   2
   7   2  -3 4731.37 1036.29   2
  -7  -2   2 727.403 604.341   2
  -7  -2   1 109.231 495.080   2
  -7  -2   0 3220.24 859.097   2
  -8   7   1-1242.86 648.559   2
  -8   7   0 461.461 560.034   2
  -8   7  -1 247.688 534.006   2
  -8   7  -2-983.747 549.572   2
   8  -6  -3 714.416 780.280   2
  -8   6   2 426.836 581.915   2
  -8   6   1 1007.15 558.042   2
  -8   6   0 1654.43 546.056   2
  -8   6  -1 1251.65 510.857   2
  -8   6  -2 1614.36 591.207   2
  -8   6  -3 2098.75 1017.02   2
  -8   5   3 587.663 589.304   2
  -8   5   2 486.760 537.132   2
  -8   5   1 1061.98 524.981   2
  -8   5   0 545.766 505.203   2
  -8   5  -1 3195.44 747.084   2
  -8   5  -2-225.227 566.219   2
  -8   4   4-1174.26 683.783   2
  -8   4   3 332.436 653.258   2
  -8   4   2 1637.82 521.261   2
  -8   4   1 1714.69 515.912   2
  -8   4   0 60.5638 485.490   2
  -8   4  -1 2195.89 554.455   2
  -8   4  -2 2237.19 544.311   2
  -8   3   4-579.580 560.713   2
  -8   3   3 675.747 522.017   2
  -8   3   2 827.760 494.765   2
  -8   3   1 661.964 482.927   2
  -8   3  -1 6014.10 546.884   2
  -8   3  -2 6722.86 933.003   2
  -8   2   5-627.501 775.427   2
  -8   2   4 1965.20 546.772   2
  -8   2   3 422.605 506.190   2
  -8   2   2 382.945 480.024   2
  -8   2   1 1761.08 473.176   2
  -8   2   0 18543.0 579.926   2
  -8   2  -1 4422.62 529.116   2
   8  -1  -5-2482.23 577.039   2
  -8   1   4 1905.31 529.928   2
  -8   1   3 1171.40 500.545   2
  -8   1   2-203.671 480.748   2
  -8   1   1 374.535 467.877   2
  -8   1   0 1552.39 536.101   2
  -8   1  -1 5382.47 938.945   2
  -8   0   5-161.253 557.176   2
  -8   0   4-1316.57 630.487   2
  -8   0   3 1892.07 577.738   2
   8   0  -2 1407.02 534.430   2
  -8   0   1 1950.24 535.004   2
  -8   0   0 222.746 533.596   2
   8   1  -6 317.829 712.306   2
  -8  -1   5 54.2646 540.964   2
  -8  -1   4 1121.09 514.367   2
  -8  -1   3 438.427 495.281   2
  -8  -1   2 1557.73 473.821   2
  -8  -1   1 645.866 540.365   2
   8   2  -7 3692.15 1384.50   2
  -8  -2   5 382.099 550.105   2
  -8  -2   4 433.374 517.028   2
  -8  -2   3 859.684 507.704   2
  -8  -2   2-704.395 595.535   2
  -8  -2   1 1040.28 994.407   2
  -9   7   3 11834.8 1024.57   2
  -9   7   2-2509.98 636.952   2
  -9   7   1 1609.72 629.063   2
  -9   7   0 1600.82 763.543   2
  -9   7  -1 2801.60 575.120   2
  -9   7  -2 948.432 568.652   2
  -9   7  -3 71.4929 926.879   2
  -9   6   3 832.900 636.340   2
  -9   6   2 95.3276 615.329   2
  -9   6   1 1547.21 599.634   2
  -9   6   0 1719.31 573.167   2
  -9   6  -2 204.568 560.649   2
   9  -5  -4 1943.32 827.721   2
  -9   5   3 446.704 612.041   2
  -9   5   2 397.293 588.159   2
  -9   5   0 276.397 548.054   2
  -9   5  -1 1277.80 551.456   2
   9  -5   2 158.065 755.606   2
   5  -7  11 2125.22 1071.67  -3
  -9   5  -2 2125.22 1071.67   2
  -9   4   4-925.813 616.675   2
  -9   4   3 430.838 590.818   2
  -9   4   2 2244.27 588.995   2
  -9   4   1 1492.01 565.642   2
  -9   4   0 1319.57 533.469   2
  -9   4  -1 1216.21 610.195   2
  -9   4  -2 1396.94 1067.26   2
   9  -3  -5-452.850 805.371   2
  -9   3   3 1073.86 568.470   2
   9  -3  -2 753.317 551.905   2
  -9   3   1-389.098 533.801   2
  -9   3   0 201.015 536.815   2
  -9   2   5-1029.45 620.291   2
  -9   2   4-349.005 578.693   2
  -9   2   3 1480.23 556.552   2
  -9   2   2-35.4184 528.775   2
  -9   2   1 1478.10 521.346   2
  -9   2   0 670.600 600.283   2
  -9   2  -1 1224.73 1066.67   2
  -9   1   5-826.400 602.859   2
  -9   1   4 262.910 567.150   2
  -9   1   3 999.929 550.146   2
  -9   1   2-279.590 525.208   2
  -9   1   1 1718.63 537.018   2
  -9   1   0 914.652 592.498   2
  -9   0   5 104.457 657.933   2
  -9   0   4 545.313 574.798   2
  -9   0   3-18.9919 547.004   2
  -9   0   2-893.350 532.108   2
  -9   0   0-814.605 1110.27   2
  -9  -1   6 835.046 612.981   2
  -9  -1   5-45.9420 586.976   2
  -9  -1   4-393.079 561.424   2
  -9  -1   3 3183.15 539.701   2
  -9  -1   2 1761.17 527.623   2
  -9  -1   1 1065.57 793.458   2
  -9  -2   6-731.111 1096.94   2
  -9  -2   5 650.173 1050.24   2
   0   0   2 3648.22 65.8315   3
   0   0   3 1017.74 75.6515   3
   0   0   4 7609.48 131.486   3
   0   0  -5 674.489 109.569   3
   0   0   6 251.228 103.507   3
   0   0   7 103.162 164.266   3
   0   0   8 400.147 185.869   3
   0   0   9 112.997 206.731   3
   0   0  10 28.4308 230.922   3
   0   0  11-489.584 384.767   3
   0  -1  12-76.1630 270.881   3
   0  -1  11-230.882 254.674   3
   0   1 -10 425.244 233.878   3
   0  -1   9 3798.17 224.587   3
   0  -1   8 89.1557 225.223   3
   0  -1   7 171.576 219.579   3
   0  -1   6 202.941 159.131   3
   0  -1   4 4307.38 235.229   3
   0  -1   3 5540.92 122.975   3
   0  -1   2 141.822 44.6238   3
   0  -1   1 23656.4 97.5628   3
   0  -1   0 15808.3 109.779   3
   0   1   1 2724.55 71.6083   3
   0   1   2 4634.63 65.1632   3
   0   1   3 3426.54 66.9993   3
   0   1   4 91.9505 68.0593   3
   0   1   5 124.525 98.8505   3
   0   1   6 298.170 122.124   3
   0   1   7 1500.50 176.667   3
   0   1   8 1793.28 202.136   3
   0   1   9 127.820 210.494   3
   0   2 -15 1379.70 454.222   3
   0  -2  14 3656.93 329.913   3
   0  -2  13 176.826 285.477   3
   0  -2  12-103.610 262.788   3
   0  -2  11 23.2419 250.921   3
   0  -2  10 326.288 290.728   3
   0   2  -9 167.727 244.523   3
   0  -2   8 260.525 220.007   3
   0  -2   7-26.5457 189.887   3
   0  -2   6 104.505 160.058   3
   0  -2   5-32.2700 128.043   3
   0  -2   3 961.866 70.8803   3
   0  -2   2 4084.74 70.1342   3
   0  -2   1 13107.1 149.819   3
   0  -2   0 144.665 83.6818   3
   0  -2  -1 122.878 95.4671   3
   0   2   2 10095.1 83.8398   3
   0   2   3 2642.37 80.3234   3
   0  -2  -4 230.342 100.592   3
   0   2   6 1841.12 157.350   3
   0   2   7 5048.84 363.852   3
   0  -3  14 625.239 308.077   3
   0   3 -13 133.259 290.428   3
   0  -3  12-166.925 264.917   3
   0  -3  10-1775.72 707.518   3
   0   3  -9 658.145 260.675   3
   0  -3   8-193.895 229.665   3
   0  -3   7 50.2777 197.471   3
   0  -3   6 868.932 172.031   3
   0  -3   5 516.219 145.842   3
   0  -3   4 178.521 145.488   3
   0  -3   3 762.923 73.8718   3
   0  -3   2 6857.41 162.980   3
   0  -3   1 388.966 126.948   3
   0   3   0-27.9504 155.911   3
   0   3   2 5304.88 113.514   3
   0   3   3-11.7648 143.425   3
   0  -3  -4 492.173 96.4878   3
   0  -3  -5 582.654 221.656   3
   0   4 -14 546.229 345.166   3
   0  -4  13 130.992 291.148   3
   0  -4  12-12.8526 334.011   3
   0  -4  11-171.995 301.301   3
   0  -4   9 840.927 261.084   3
   0  -4   8 15.7484 234.330   3
   0  -4   7 2623.96 219.459   3
   0  -4   6 518.991 181.077   3
   0  -4   5-136.745 148.814   3
   0  -4   4-22.7031 137.795   3
   0  -4   3 3771.00 194.531   3
   0  -4   2 1438.30 177.733   3
   0  -4   1 41.1804 196.176   3
   0  -4   0-9.76632 190.477   3
   0   4   1 517.916 213.560   3
   0   4   2 194.889 234.873   3
   0   4   3 628.054 262.423   3
   0  -4  -4-146.858 290.689   3
   0  -4  -5-516.631 288.413   3
   0   5 -13 474.095 333.630   3
   0  -5  12 885.687 334.461   3
   0   5 -11 621.738 313.603   3
   0  -5  10-275.822 322.850   3
   0  -5   9 222.639 333.432   3
   0  -5   7 500.242 201.146   3
   0  -5   6-181.520 426.502   3
   0  -5   5 673.809 262.126   3
   0  -5   4 37.2775 176.837   3
   0  -5   3 795.406 231.554   3
   0  -5   2 507.372 230.108   3
   0  -5   1 389.139 244.102   3
   0  -5   0-17.6113 252.992   3
   0  -5  -1 646.037 272.569   3
   0   5   2-136.552 290.630   3
   0  -5  -3 409.126 313.955   3
   0  -5  -4 705.891 336.330   3
   0  -5  -5-23.3883 308.257   3
   0  -6  10 1754.13 562.604   3
   0  -6   9 616.760 550.785   3
   0  -6   8-56.4982 497.644   3
   0  -6   7-15.4810 336.755   3
   0  -6   6 329.898 330.718   3
   0  -6   5 157.057 304.758   3
   0  -6   4 172.340 341.854   3
   0   6  -3 929.217 280.290   3
   0  -6   2 9450.44 356.340   3
   0  -6   1 6794.20 353.434   3
   0  -6   0 609.023 316.902   3
   0   6   1 1201.77 334.725   3
   0  -6  -2 412.294 348.912   3
   0  -6  -3 2241.79 374.100   3
   0  -6  -4 743.648 388.625   3
   0  -6  -5 785.779 403.316   3
   0  -7   5 1913.84 634.344   3
   0  -7   4 380.219 329.544   3
   0  -7   3 1116.64 337.965   3
   0  -7   2 10945.0 413.223   3
   0  -7   1 321.589 367.641   3
   0   7   1 1071.62 508.835   3
   0  -7  -3-115.471 789.563   3
   0  -7  -4 793.806 454.105   3
   0  -8   5 1694.40 715.617   3
   0   8  -4-375.086 430.415   3
   0  -8   2 140.000 727.462   3
   0  -8   1 574.103 394.951   3
   0  -8   0 890.805 424.351   3
   0  -8  -1 1539.71 431.521   3
   0  -8  -2 421.391 442.964   3
   0  -8  -3 463.477 458.731   3
   0  -8  -4 736.414 424.161   3
   0  -9   3 54.6562 468.587   3
   0  -9   2 198.331 433.705   3
   0  -9   1 545.862 447.943   3
   0  -9   0 1430.56 448.635   3
   0  -9  -1 865.755 479.967   3
   0  -9  -2-407.451 521.779   3
   0  -9  -3-635.534 495.335   3
   0   9   4 785.971 463.560   3
   0  10  -1 904.661 487.125   3
   0 -10  -1-54.0890 522.161   3
   0 -10  -2-418.872 1046.34   3
   0 -10  -3 446.166 737.362   3
   0 -10  -4 1460.46 1089.85   3
   1 -12   4-448.357 522.980   3
   1 -12   5-903.215 1012.57   3
  -1  11   1 285.636 610.852   3
   1 -11   0 665.294 474.564   3
  -1  11  -1 577.193 466.959   3
   1 -11   2-177.298 523.078   3
   1 -11   3 1415.54 522.752   3
   1 -11   4 532.786 492.181   3
   1 -11   5 637.397 499.761   3
  -1  10   4 640.730 476.200   3
   1 -10  -3 916.822 480.827   3
   1 -10  -2 489.728 457.588   3
   1 -10   0 1125.65 453.621   3
   1 -10   1 655.834 492.647   3
   1 -10   2 1111.85 477.826   3
   1 -10   3 695.823 487.106   3
   1 -10   4 1782.11 979.999   3
   1 -10   5 1724.15 468.746   3
  -1  10  -6 1325.71 461.570   3
   1 -10   7 2428.84 943.454   3
  -1   9   4 1544.95 467.957   3
   1  -9  -3-2051.33 465.983   3
   1  -9  -2 156.585 409.100   3
   1  -9  -1 146.057 400.283   3
   1  -9   0-33.7954 452.897   3
   1  -9   1 341.680 443.793   3
   1  -9   2 269.637 430.760   3
   1  -9   3 905.463 434.932   3
   1  -9   4 1214.61 425.759   3
   1  -9   5 1070.63 430.409   3
   1  -9   6 545.793 416.177   3
   1  -9   7 735.729 837.976   3
  -1   9 -10 808.376 503.151   3
   1  -9  11-105.848 412.259   3
   1  -9  12 611.433 437.387   3
  -1   8   5-54.7379 442.911   3
  -1   8   4 49.6647 411.720   3
   1  -8  -3 593.959 394.422   3
   1  -8  -2 312.864 490.824   3
   1  -8  -1 275.059 414.215   3
   1  -8   0-287.527 396.673   3
   1  -8   1 148.037 807.825   3
   1  -8   3-924.559 522.077   3
   1  -8   4 1122.16 427.928   3
   1  -8   5 777.346 360.372   3
   1  -8   6 405.879 367.968   3
  -1   8  -7 342.476 362.772   3
   1  -8   8 114.762 232.929   3
   1  -8  10 202.524 267.675   3
   1  -8  11 280.564 278.446   3
   1  -8  12-360.376 291.183   3
   1  -8  13 492.678 309.111   3
  -1   8 -14 1215.02 445.882   3
  -1   7   5 50.4489 394.428   3
   1  -7  -4-222.050 385.416   3
   1  -7  -3 908.252 828.429   3
  -1   7   2 379.394 445.824   3
   1  -7  -1 75.1054 359.423   3
   1  -7   0 729.518 358.167   3
  -1   7  -1 1205.69 359.081   3
  -1   7  -2 7427.97 390.499   3
   1  -7   3-10.8098 333.283   3
   1  -7   4 32.8749 335.875   3
   1  -7   5-53.2622 182.860   3
   1  -7   6 977.386 163.403   3
   1  -7   7 257.755 186.919   3
   1  -7   8 57.9415 216.423   3
   1  -7  10-56.8512 253.848   3
   1  -7  11-54.9718 269.456   3
   1  -7  12-286.648 289.118   3
   1  -7  13-361.380 300.031   3
   1  -7  14 446.163 315.282   3
  -1   6   5 1259.66 575.744   3
   1  -6  -4 461.606 327.582   3
   1  -6  -3 2116.77 323.568   3
   1  -6  -1-36.1701 322.649   3
  -1   6   0 78.8831 306.265   3
  -1   6  -1 12623.3 380.013   3
   1  -6   2 356.376 289.231   3
   1  -6   3 280.113 272.289   3
   1  -6   4 533.542 129.415   3
   1  -6   5 76.6117 159.510   3
   1  -6   6 574.203 150.121   3
   1  -6   7-995.478 220.210   3
   1  -6   8 175.710 264.703   3
   1  -6   9 156.705 312.676   3
   1  -6  10 238.286 255.507   3
   1  -6  11-364.832 278.385   3
   1  -6  12-346.497 315.752   3
   1  -6  13 492.131 301.072   3
   1  -5  -6 42.5611 524.088   3
  -1   5   5-79.8730 301.840   3
   1  -5  -4 1288.54 308.224   3
   1  -5  -3 224.784 261.343   3
   1  -5  -2 395.610 253.170   3
   1  -5   0 1200.36 263.667   3
  -1   5  -1 641.809 137.555   3
   1  -5   2 170.481 99.4696   3
  -1   5  -3 1283.66 246.447   3
   1  -5   4 2016.48 119.856   3
   1  -5   5 446.539 123.037   3
   1  -5   6 298.138 137.419   3
   1  -5   7 500.370 188.002   3
   1  -5   8 10003.1 261.181   3
   1  -5   9 853.529 224.715   3
   1  -5  10-206.390 242.207   3
   1  -5  11-256.069 257.306   3
   1  -5  12-52.0758 279.423   3
   1  -5  13 1075.60 315.278   3
   1  -5  14 545.317 318.776   3
   1  -4  -6-64.2212 276.876   3
   1  -4  -5 508.495 263.797   3
   1  -4  -4 819.805 255.013   3
   1  -4  -3 305.089 220.819   3
  -1   4   2 688.390 237.272   3
   1  -4  -1 3513.93 205.863   3
   1  -4   0 272.163 191.766   3
   1  -4   1 155.779 61.9265   3
   1  -4   2 318.029 75.3063   3
  -1   4  -3 17098.5 206.358   3
   1  -4   4 3128.91 130.873   3
   1  -4   5 96.0003 108.148   3
   1  -4   6 211.332 144.402   3
   1  -4   7 2290.76 200.121   3
   1  -4   8 13293.5 269.002   3
   1  -4   9 466.566 228.300   3
   1  -4  10 366.737 340.910   3
   1  -4  11 366.329 261.914   3
   1  -4  12 295.691 270.760   3
   1  -4  13 410.628 291.957   3
   1  -4  14 218.592 308.948   3
   1  -4  15 1376.08 471.967   3
  -1   3   6 6212.87 350.783   3
   1  -3  -5 1273.94 219.859   3
   1  -3  -4 216.255 168.248   3
  -1   3   3 521.491 133.874   3
  -1   3   2 14527.8 335.478   3
   1  -3   0 66.7525 62.9116   3
   1  -3   1 22.5281 57.2897   3
   1  -3   2 172.015 64.8205   3
   1  -3   3 14562.7 139.967   3
   1  -3   4 149.719 85.2738   3
   1  -3   5 228.097 84.7441   3
   1  -3   6 364.085 113.043   3
   1  -3   7 90.6376 173.297   3
   1  -3   8-6.44569 193.837   3
   1  -3   9 249.169 218.539   3
   1  -3  10 191.551 353.717   3
   1  -3  11 124.853 253.558   3
   1  -3  12 200.423 332.985   3
   1  -3  13-158.378 310.078   3
   1  -3  14 211.738 316.629   3
   1  -3  15 567.695 370.674   3
  -1   2   7 2250.22 417.216   3
  -1   2   6 20132.1 485.299   3
  -1   2   5 207.785 190.124   3
  -1   2   4 532.732 215.663   3
   1  -2  -3 1446.19 166.077   3
  -1   2   2 1966.64 146.440   3
  -1   2   1 4942.24 139.778   3
  -1   2   0 438.524 96.9874   3
   1  -2   1 164.637 44.5653   3
   1  -2   2 2420.44 128.117   3
   1  -2   3 503.581 62.5504   3
   1  -2   4 92.7539 63.9427   3
   1  -2   5 473.654 135.811   3
   1  -2   6 180.364 161.750   3
   1  -2   7 950.188 175.998   3
   1  -2   8 72.1950 198.025   3
   1  -2   9 193.912 305.816   3
   1  -2  11 92.5562 258.838   3
   1  -2  12 442.007 280.843   3
   1  -2  13-104.799 299.808   3
   1  -2  14 111.577 322.896   3
   1  -2  15 552.879 332.159   3
  -1   1   9 266.661 531.307   3
  -1   1   8 768.865 452.097   3
  -1   1   7-257.880 378.695   3
  -1   1   6 1982.80 252.759   3
   1  -1   2 18443.1 136.358   3
   1  -1   3 10625.7 270.721   3
   1  -1   4 95.2809 155.997   3
   1  -1   5 277.467 132.386   3
   1  -1   6 1377.06 210.827   3
   1  -1   7 284.061 171.059   3
   1  -1   8 213.842 199.146   3
   1  -1  11 354.615 279.435   3
   1  -1  12 455.305 281.863   3
   1  -1  13-9.42761 306.744   3
  -1   0  10 1149.85 552.434   3
  -1   0   9 167.238 461.917   3
  -1   0   8-219.491 421.194   3
  -1   0   6 346.719 310.237   3
   1   0   2 460.291 58.0738   3
   1   0   3-29.0320 122.834   3
  -1   0  -4 1187.90 115.949   3
   1   0   5 2052.62 114.142   3
   1   0   6 1369.21 222.498   3
   1   0   7 1000.70 206.516   3
   1   0   8 260.256 200.882   3
   1   0  11 135.232 267.868   3
  -1  -1  12 2108.50 647.761   3
  -1  -1  10 754.410 538.138   3
  -1  -1   9 207.220 484.677   3
  -1  -1   8 1396.08 425.489   3
  -1  -1   7-206.331 345.932   3
   1   1   2 3450.51 138.068   3
   1   1   3 311.394 89.6711   3
  -1  -1  -4 664.820 158.071   3
   1   1   5 2563.45 146.062   3
   1   1   6 1931.37 196.988   3
   1   1   7 3660.26 222.211   3
   1   1   8 248.985 201.252   3
  -1  -2  -2 19341.7 412.684   3
   1   2   3 196.134 163.543   3
   1   2   4 518.684 207.550   3
   1   2   5 1043.63 158.855   3
   1   2   6 17518.1 267.244   3
  -1  -3  -2 212.972 349.124   3
  -1  -3  -3-132.161 166.783   3
  -1  -3  -4 48.1185 202.460   3
  -1  -3  -5 136.665 525.288   3
  -1  -4  -1-359.371 399.775   3
  -1  -4  -2 468.877 458.609   3
  -1  -4  -3 726.097 530.510   3
  -1  -4  -4 403.304 544.182   3
  -1  -5  -1 1019.31 534.029   3
  -1  -5  -2 1760.82 558.673   3
  -1  -5  -3 319.219 623.990   3
  -1  -5  -4 717.294 688.869   3
  -1  -6  -1 2118.78 659.621   3
  -1  -6  -2 969.953 659.894   3
  -1  -6  -3-241.983 683.691   3
  -1  -6  -4 195.674 751.538   3
  -1  -7  -2-1129.98 725.845   3
  -1  -7  -3 165.284 861.701   3
   2 -12   3 687.003 519.619   3
   2 -12   4 1265.04 472.582   3
   2 -12   5 931.484 475.898   3
   2 -12   6 340.080 466.819   3
  -2  12  -7-418.547 591.393   3
  -2  11   1-48.9611 476.964   3
   2 -11   0-325.420 458.620   3
  -2  11  -1-890.057 454.149   3
   2 -11   2 37.6610 449.441   3
   2 -11   3 192.570 444.823   3
   2 -11   4-310.768 425.970   3
   2 -11   5 1350.41 448.969   3
   2 -11   6 416.453 442.391   3
  -2  11  -7 1455.18 568.485   3
  -2  10   5-161.408 515.300   3
  -2  10   4 583.695 473.902   3
  -2  10   3-275.237 458.667   3
  -2  10   2 647.142 579.283   3
  -2  10   1-275.371 443.491   3
   2 -10   0 933.826 433.087   3
   2 -10   1-38.2594 416.825   3
   2 -10   2-120.069 450.140   3
   2 -10   3-125.190 411.147   3
   2 -10   4-21.2741 412.830   3
   2 -10   5 848.964 420.274   3
   2 -10   6 856.274 418.067   3
   2 -10  13 320.890 388.626   3
  -2   9   5 1429.86 461.263   3
  -2   9   4 1916.48 457.387   3
  -2   9   3 143.898 433.493   3
  -2   9   2 549.683 512.019   3
  -2   9   1 150.773 446.850   3
   2  -9   0 96.9482 403.129   3
   2  -9   1 61.5044 386.339   3
   2  -9   2 354.736 383.536   3
   2  -9   4 502.568 372.506   3
   2  -9   5 311.565 365.563   3
   2  -9   6 378.578 566.772   3
   2  -9  10-3.42968 289.309   3
   2  -9  11 222.719 303.720   3
   2  -9  12 444.716 317.967   3
   2  -9  13-287.255 324.539   3
   2  -8  -5 835.991 423.137   3
   2  -8  -4 581.750 415.181   3
   2  -8  -3 220.716 393.444   3
   2  -8  -2 141.815 373.198   3
   2  -8  -1 584.857 361.508   3
   2  -8   1 713.126 536.945   3
  -2   8  -3 2808.33 417.645   3
   2  -8   4 811.835 332.855   3
   2  -8   5 139.928 325.759   3
   2  -8   6 694.599 321.489   3
  -2   8  -7 721.440 467.458   3
  -2   8  -8 74.2274 344.110   3
   2  -8   9 207.328 259.226   3
   2  -8  10 40.5693 275.579   3
   2  -8  11 1595.00 302.218   3
   2  -8  12 162.387 310.734   3
   2  -8  13-93.7555 317.619   3
   2  -7  -6-228.594 408.284   3
   2  -7  -5 487.448 390.984   3
   2  -7  -4 125.485 358.318   3
  -2   7   3 331.607 521.475   3
   2  -7  -2 1027.64 449.525   3
   2  -7  -1 3.32087 333.669   3
   2  -7   0 74.9893 317.981   3
  -2   7  -1 2916.74 334.839   3
  -2   7  -2 13028.8 373.164   3
   2  -7   3 560.957 298.605   3
   2  -7   4 3470.49 330.379   3
   2  -7   5 286.073 155.335   3
   2  -7   7 837.173 224.558   3
   2  -7   8 83.6134 234.350   3
   2  -7   9 310.056 250.366   3
   2  -7  10 216.876 269.359   3
   2  -7  11 331.962 286.642   3
   2  -7  12-156.932 300.736   3
   2  -7  13 208.036 319.725   3
   2  -7  14 784.254 461.942   3
   2  -6  -5 405.750 450.506   3
   2  -6  -4 329.019 333.860   3
   2  -6  -3 1408.06 778.753   3
   2  -6  -2-150.203 300.640   3
   2  -6  -1 21.0419 277.095   3
   2  -6   0 531.690 273.397   3
  -2   6  -1 294.754 270.909   3
   2  -6   2 2909.50 284.017   3
   2  -6   3-288.693 136.922   3
   2  -6   4 135.497 132.435   3
   2  -6   5 148.989 141.442   3
   2  -6   6 143.789 168.873   3
   2  -6   7 899.831 213.984   3
   2  -6   8 852.878 245.664   3
   2  -6   9 176.509 355.246   3
   2  -6  10 976.984 266.042   3
   2  -6  11 300.443 280.978   3
   2  -6  12 122.162 290.473   3
   2  -6  13 301.838 308.064   3
   2  -6  14 447.904 325.944   3
   2  -5  -6-558.000 312.277   3
   2  -5  -5 24.9190 302.599   3
   2  -5  -4-420.817 383.755   3
   2  -5  -3 642.577 340.891   3
   2  -5  -2 970.861 316.691   3
  -2   5   1 55.2806 290.812   3
  -2   5   0 332.065 284.772   3
   2  -5   1 82.6476 147.498   3
   2  -5   2 1107.35 136.090   3
   2  -5   3-36.4168 114.984   3
   2  -5   4 105.649 122.173   3
   2  -5   5 368.569 135.236   3
   2  -5   6 709.154 163.166   3
   2  -5   7 475.863 201.503   3
   2  -5   8 836.440 225.502   3
   2  -5  10 387.042 251.692   3
   2  -5  11 387.453 272.989   3
   2  -5  12 714.774 294.332   3
   2  -5  13 514.899 305.358   3
   2  -5  14 131.174 320.478   3
   2  -4  -6 1079.65 672.009   3
   2  -4  -5-581.810 320.998   3
   2  -4  -4 201.556 340.588   3
   2  -4  -3 102.152 273.226   3
   2  -4  -2 947.864 257.761   3
  -2   4   1 31.4395 232.759   3
   2  -4   0 236.960 225.583   3
   2  -4   1 173.347 129.555   3
   2  -4   2 1418.75 118.120   3
   2  -4   3 3250.45 121.105   3
   2  -4   4 538.166 148.252   3
   2  -4   5 116.711 139.438   3
   2  -4   6 263.524 193.535   3
   2  -4   7 1041.20 227.764   3
   2  -4   8 102.787 211.125   3
   2  -4  10 310.055 247.157   3
   2  -4  11-64.1895 269.603   3
   2  -4  12 288.185 294.787   3
   2  -4  13 179.682 306.275   3
   2  -4  14 170.789 322.326   3
   2  -3  -5 775.939 517.104   3
   2  -3  -4 29.6689 451.037   3
  -2   3   3 993.484 275.904   3
  -2   3   2 3648.30 226.393   3
  -2   3   1 62.2717 173.260   3
  -2   3   0 64.4832 200.742   3
  -2   3  -2 52.1561 94.0199   3
   2  -3   3 412.111 103.532   3
   2  -3   4 144.692 137.232   3
   2  -3   5-39.1573 139.914   3
   2  -3   6 357.503 183.959   3
   2  -3   7 96.2362 210.290   3
   2  -3   8 142.237 237.840   3
   2  -3   9 86.4272 647.664   3
   2  -3  10 465.101 256.720   3
   2  -3  11-192.431 267.462   3
   2  -3  12 100.429 288.305   3
   2  -3  13-38.6609 310.192   3
   2  -3  14 951.363 333.859   3
   2  -2   3 130.932 103.792   3
   2  -2   4 378.699 128.719   3
   2  -2   5 10186.0 261.688   3
   2  -2   6 185.009 181.899   3
   2  -2   7 456.476 208.043   3
   2  -2   8-9.77012 239.432   3
   2  -2   9 1486.23 344.436   3
   2  -2  11 186.410 270.143   3
   2  -2  12-297.647 286.308   3
   2  -2  13-45.9819 319.664   3
   2  -2  14 1354.31 343.392   3
  -2   1  -3-22.8562 126.600   3
   2  -1   4 9546.31 184.494   3
   2  -1   6 247.897 177.408   3
   2  -1   7 243.104 217.493   3
   2  -1   8-75.3904 235.165   3
   2  -1   9 840.893 348.453   3
   2  -1  10-266.896 260.372   3
   2  -1  11 93.2212 278.408   3
   2  -1  12 174.916 303.143   3
   2  -1  13 805.188 321.820   3
   2   0   4-13.6597 133.357   3
   2   0   5 217.976 155.747   3
   2   0   6 440.890 187.205   3
   2   0   7 442.350 219.893   3
   2   0   8 1141.52 242.959   3
   2   0   9 1310.00 325.714   3
   2   0  10 991.614 364.281   3
   2   0  11 270.217 319.695   3
   2   1   6 9.91584 185.805   3
   2   1   7 1931.30 227.798   3
   2   1   8-139.251 240.619   3
   2   1   9-381.638 683.117   3
   2   2   5 216.758 277.638   3
   2   2   6 2101.05 345.687   3
  -3  12  -3-123.330 622.954   3
  -3  12  -4 268.523 471.375   3
  -3  12  -5-419.610 467.884   3
  -3  12  -6 123.823 473.662   3
  -3  11   1 468.205 470.002   3
  -3  11   0 5.27564 460.411   3
   3 -11   2 491.983 459.063   3
  -3  11  -3 660.503 445.031   3
   3 -11   5 524.032 572.849   3
  -3  11  -6-54.8351 447.787   3
  -3  10   5-273.346 642.262   3
   3 -10  -4 660.127 475.399   3
   3 -10  -3-451.574 458.290   3
   3 -10  -2-5.97732 444.307   3
   3 -10  -1 411.275 436.667   3
   3 -10   0 181.964 428.335   3
   3 -10   1 195.256 425.670   3
   3 -10   2 457.002 412.090   3
   3 -10   3 314.325 413.168   3
  -3  10  -4 574.033 422.350   3
  -3  10  -5 387.806 415.431   3
  -3  10  -6 557.327 403.452   3
   3  -9  -6-78.4302 456.408   3
   3  -9  -5 491.794 456.120   3
   3  -9  -4 525.463 438.653   3
   3  -9  -3 112.374 428.019   3
   3  -9  -2 350.323 474.317   3
   3  -9  -1 860.970 404.389   3
   3  -9   0-80.5065 391.909   3
   3  -9   1 379.600 383.041   3
   3  -9   2 60.3985 380.396   3
   3  -9   3 464.374 371.243   3
   3  -9   4 668.679 371.211   3
   3  -9   5 279.781 369.271   3
  -3   9  -6 222.395 777.585   3
   3  -9  10-44.9362 299.303   3
   3  -9  11 95.2744 313.895   3
   3  -9  12 869.795 507.283   3
   3  -8  -6-297.301 429.695   3
   3  -8  -5-260.688 419.050   3
   3  -8  -4-59.7498 403.587   3
  -3   8   3 278.572 386.528   3
   3  -8  -1-232.083 358.751   3
   3  -8   0 166.556 351.727   3
   3  -8   1 177.032 350.021   3
   3  -8   3 344.224 453.562   3
   3  -8   4 522.854 329.038   3
   3  -8   5 520.720 333.127   3
  -3   8  -6 288.974 409.782   3
  -3   8  -7-415.389 395.408   3
   3  -8   8 330.542 268.905   3
   3  -8   9 92.5539 273.757   3
   3  -8  10 419.682 290.064   3
   3  -8  11 679.002 304.811   3
   3  -8  12-195.557 314.995   3
   3  -8  13-338.027 368.673   3
   3  -7  -6 278.915 438.579   3
   3  -7  -5-795.554 386.657   3
   3  -7  -4-551.866 367.780   3
   3  -7  -3-65.4747 353.623   3
   3  -7  -2-80.2573 781.263   3
   3  -7  -1-638.493 454.416   3
  -3   7   0 249.255 320.932   3
   3  -7   1 5077.61 348.480   3
  -3   7  -2 2610.24 315.910   3
  -3   7  -3 857.908 299.642   3
   3  -7   4 32.8196 286.797   3
   3  -7   5 440.980 174.496   3
   3  -7   6 132.055 239.038   3
   3  -7   7-87.2816 232.783   3
   3  -7   8 257.681 363.296   3
   3  -7   9-198.004 278.652   3
   3  -7  11-35.5970 291.663   3
   3  -7  12 91.9547 311.540   3
   3  -7  13-108.041 315.888   3
   3  -6  -7-724.828 885.507   3
   3  -6  -4 1837.83 777.662   3
   3  -6  -3 588.794 396.395   3
   3  -6  -2 28.7902 699.015   3
   3  -6  -1-471.520 359.574   3
   3  -6   0-265.962 334.877   3
   3  -6   2-76.2913 332.291   3
   3  -6   3 563.398 213.431   3
   3  -6   4 98.4045 160.587   3
   3  -6   5 137.249 175.896   3
   3  -6   6 172.368 229.386   3
   3  -6   7-661.421 256.467   3
   3  -6   9-243.786 263.278   3
   3  -6  10-211.703 270.253   3
   3  -6  11-195.916 289.723   3
   3  -6  12-431.971 292.576   3
   3  -6  13 409.410 321.128   3
   3  -5  -6 79.3075 742.447   3
   3  -5  -5 59.8469 679.236   3
   3  -5  -4 1050.33 667.766   3
   3  -5  -3-357.238 418.975   3
   3  -5  -2-229.994 324.847   3
   3  -5  -1-273.273 312.425   3
   3  -5   0 380.700 294.803   3
  -3   5  -1-127.715 277.491   3
   3  -5   2-157.390 181.888   3
   3  -5   3 1295.32 195.201   3
   3  -5   4 1913.38 192.245   3
   3  -5   5 570.163 179.361   3
   3  -5   6 394.208 219.224   3
   3  -5   7 921.015 243.402   3
   3  -5   9 778.863 291.767   3
   3  -5  10-502.485 280.309   3
   3  -5  12 310.673 308.157   3
   3  -5  13 215.454 323.037   3
   3  -4   3 8419.50 278.726   3
   3  -4   4 894.455 156.901   3
   3  -4   5 922.424 229.919   3
   3  -4   6 194.889 205.943   3
   3  -4   7 1323.31 241.180   3
   3  -4   9-68.5266 281.859   3
   3  -4  10 84.1385 309.118   3
   3  -4  11-1280.07 299.282   3
   3  -4  12 438.558 306.105   3
   3  -4  13 835.613 318.615   3
   3  -3   4 81.9942 213.716   3
   3  -3   6 639.472 204.890   3
   3  -3   7 1360.11 234.313   3
   3  -3   8 275.972 373.034   3
   3  -3   9 700.566 266.209   3
   3  -3  10 164.577 304.748   3
   3  -3  11 590.085 278.658   3
   3  -3  12 390.842 299.330   3
   3  -3  13 409.142 317.588   3
   3  -2   5-8.71031 250.437   3
   3  -2   6 353.408 208.247   3
  -3   2  -8 553.249 322.703   3
   3  -2   9 343.796 272.527   3
   3  -2  10 516.754 293.315   3
   3  -2  11 569.864 320.444   3
   3  -2  12 358.559 308.584   3
   3  -2  13 480.146 326.476   3
   3  -1   6 1098.00 342.045   3
   3  -1   7 398.180 234.227   3
   3  -1   8-182.414 323.154   3
   3  -1   9 283.558 270.080   3
   3  -1  10 110.765 299.470   3
   3  -1  11 52.6972 357.243   3
   3  -1  12-173.080 307.662   3
   3  -1  13 510.322 522.809   3
   3   0   7 3603.62 405.304   3
   3   0   9 891.120 481.097   3
   3   0  10 422.635 516.654   3
  -4  12  -4 291.979 468.008   3
  -4  12  -5 471.805 476.454   3
   4 -11  -1-394.860 602.319   3
  -4  11   0 741.675 979.921   3
   4 -11   1-59.7954 445.722   3
   4 -11   2-30.3382 450.497   3
   4 -11   3-425.802 444.159   3
   4 -11   4-1058.45 451.383   3
   4 -11   5 879.585 458.268   3
   4 -10  -4 2269.64 533.383   3
   4 -10  -3 709.958 457.474   3
   4 -10  -2 8.18698 440.894   3
   4 -10  -1-54.7465 439.781   3
   4 -10   0 1101.43 450.186   3
   4 -10   1 15.1202 426.230   3
   4 -10   2 0.38970 424.842   3
   4 -10   3-97.5929 409.742   3
   4 -10   4 540.457 428.132   3
   4 -10   5-113.167 404.723   3
  -4   9   5 191.412 755.895   3
   4  -9  -4 69.8408 496.839   3
  -4   9   3 881.596 436.985   3
   4  -9  -2-91.4503 418.955   3
   4  -9  -1-2018.47 419.814   3
   4  -9   0-549.480 396.574   3
  -4   9  -2 917.423 817.625   3
   4  -9   3-452.901 381.093   3
   4  -9   4 21.6020 386.108   3
   4  -9   5-92.8964 382.436   3
   4  -9  10 241.740 304.989   3
   4  -9  11 826.914 323.594   3
   4  -9  12 1277.02 339.272   3
   4  -8  -3 786.358 595.392   3
  -4   8   2 1211.76 507.713   3
   4  -8  -1 720.719 594.562   3
   4  -8   0 180.795 467.928   3
   4  -8   1 165.711 444.909   3
   4  -8   2 3972.61 483.739   3
  -4   8  -3-607.324 532.338   3
  -4   8  -4-316.929 546.230   3
   4  -8   5 110.222 343.274   3
   4  -8   7 416.511 281.352   3
   4  -8   8 253.125 300.797   3
   4  -8   9 346.927 276.430   3
   4  -8  10 904.165 303.341   3
   4  -8  11 717.398 315.817   3
  -4   7  -1 1001.61 394.528   3
  -4   7  -2 3465.72 511.138   3
   4  -7   3 247.334 782.598   3
   4  -7   4-254.946 735.916   3
   4  -7   5-188.333 336.314   3
   4  -7   6-98.0467 247.263   3
   4  -7   8 663.250 307.419   3
   4  -7   9 599.142 511.465   3
   4  -7  10 866.503 294.174   3
   4  -7  11 627.442 307.417   3
   4  -7  12 255.752 317.700   3
   4  -6   4 561.506 298.237   3
   4  -6   6 85.6715 239.581   3
   4  -6   7 27.8081 435.955   3
   4  -6   8 622.331 277.350   3
   4  -6   9 783.001 298.068   3
   4  -6  10 145.690 313.381   3
   4  -6  11 627.084 333.283   3
   4  -6  12 283.600 320.809   3
   4  -5   6 597.841 369.055   3
   4  -5   8-20.0196 270.856   3
   4  -5   9 926.780 297.922   3
   4  -5  10 1045.52 323.217   3
   4  -5  11 351.887 330.365   3
   4  -5  12 392.855 316.915   3
   4  -4   8 503.360 276.352   3
   4  -4   9 330.635 304.644   3
   4  -4  10 86.8428 304.587   3
   4  -4  11-173.245 333.954   3
   4  -4  12-83.2762 342.810   3
   4  -3   9 219.177 291.614   3
   4  -3  10 1233.52 310.312   3
   4  -3  11 68.1115 325.962   3
   4  -3  12 409.282 350.910   3
   4  -2  11 2881.76 571.178   3
   4  -2  12-364.283 586.232   3
  -5  12  -5 759.213 578.933   3
   5 -11   1 1044.24 517.125   3
   5 -11   2 212.452 453.590   3
   5 -11   3 168.989 503.540   3
   5 -11   4 398.692 508.293   3
  -5  11  -5 1857.79 761.468   3
   5 -10   2-785.526 565.238   3
   5 -10   3-44.9326 568.598   3
   5 -10   4 320.142 576.219   3
   5  -9   4-306.815 959.565   3
   5  -9  10 354.271 462.101   3
   5  -9  11-350.726 367.988   3
   5  -8   7 1341.18 472.613   3
   5  -8   8 1121.99 517.842   3
   5  -8   9 331.887 595.611   3
   5  -8  10 123.447 607.529   3
   5  -8  11-270.530 315.949   3
   5  -7   9 3073.98 554.173   3
   5  -7  10 453.605 562.741   3
   5  -7  11-385.017 922.821   3
;
_shelx_hkl_checksum              94108
_olex2_submission_special_instructions 'No special instructions were received'
loop_
_space_group_symop_operation_xyz
'x, y, z'
'-x, -y, -z'
loop_
_atom_site_label
_atom_site_type_symbol
_atom_site_fract_x
_atom_site_fract_y
_atom_site_fract_z
_atom_site_U_iso_or_equiv
_atom_site_adp_type
_atom_site_occupancy
_atom_site_site_symmetry_order
_atom_site_calc_flag
_atom_site_refinement_flags_posn
_atom_site_refinement_flags_adp
O1 O 0.4123(13) 1.0195(7) 0.8106(7) 0.051(3) Uani 1 1 d . U
C15 C 0.2386(15) 0.4739(8) 0.4567(8) 0.025(2) Uani 1 1 d . U
C2 C 0.2922(15) 0.6599(8) 0.5555(9) 0.024(2) Uani 1 1 d . U
C3 C 0.3270(15) 0.8004(9) 0.4982(9) 0.027(2) Uani 1 1 d . U
H3 H 0.352128 0.921479 0.558694 0.032 Uiso 1 1 calc R .
C14 C 0.2495(17) 0.5447(10) 0.7444(10) 0.038(3) Uani 1 1 d . U
H14 H 0.247617 0.567838 0.839700 0.045 Uiso 1 1 calc R .
C1 C 0.2971(15) 0.6893(9) 0.7015(9) 0.027(2) Uani 1 1 d . U
C12 C 0.1973(13) 0.3275(9) 0.5046(9) 0.0194(17) Uani 1 1 d . U
C9 C 0.1925(15) 0.2501(10) 0.2132(9) 0.027(2) Uani 1 1 d . U
C8 C 0.1963(16) 0.2154(10) 0.0695(9) 0.030(3) Uani 1 1 d . U
H8 H 0.173563 0.095818 0.006498 0.036 Uiso 1 1 calc R .
C5 C 0.2758(16) 0.5774(9) 0.2575(9) 0.029(3) Uani 1 1 d . U
C6 C 0.2769(17) 0.5366(10) 0.1135(10) 0.035(3) Uani 1 1 d . U
H6 H 0.307239 0.631026 0.080507 0.042 Uiso 1 1 calc R .
C7 C 0.2338(17) 0.3584(11) 0.0195(9) 0.034(3) Uani 1 1 d . U
H7 H 0.229641 0.333058 -0.076795 0.040 Uiso 1 1 calc R .
C4 C 0.3241(16) 0.7606(9) 0.3577(9) 0.031(3) Uani 1 1 d . U
H4 H 0.354545 0.855918 0.325630 0.037 Uiso 1 1 calc R .
C16 C 0.2370(15) 0.4318(9) 0.3099(9) 0.025(2) Uani 1 1 d . U
C13 C 0.2043(14) 0.3656(9) 0.6500(9) 0.0214(19) Uani 1 1 d . U
H13 H 0.178723 0.270620 0.682972 0.026 Uiso 1 1 calc R .
C11 C 0.1480(15) 0.1434(9) 0.4033(9) 0.027(2) Uani 1 1 d . U
H11 H 0.116643 0.047136 0.434229 0.032 Uiso 1 1 calc R .
C17 C 0.3558(17) 0.8699(9) 0.8171(9) 0.038(3) Uani 1 1 d . U
H17 H 0.349050 0.870074 0.907486 0.045 Uiso 1 1 calc R .
C10 C 0.1461(17) 0.1070(10) 0.2636(10) 0.036(3) Uani 1 1 d . U
H10 H 0.113970 -0.013419 0.200166 0.043 Uiso 1 1 calc R .
loop_
_atom_site_aniso_label
_atom_site_aniso_U_11
_atom_site_aniso_U_22
_atom_site_aniso_U_33
_atom_site_aniso_U_23
_atom_site_aniso_U_13
_atom_site_aniso_U_12
O1 0.091(6) 0.017(2) 0.036(4) 0.001(2) 0.029(5) 0.002(3)
C15 0.039(6) 0.012(3) 0.022(4) 0.004(2) 0.012(4) 0.002(3)
C2 0.035(5) 0.013(3) 0.024(4) 0.008(2) 0.011(4) 0.004(3)
C3 0.038(6) 0.017(3) 0.026(4) 0.011(3) 0.011(4) 0.002(3)
C14 0.058(7) 0.024(3) 0.031(5) 0.008(3) 0.023(5) 0.004(4)
C1 0.040(6) 0.018(3) 0.027(4) 0.008(2) 0.019(4) 0.009(3)
C12 0.018(4) 0.022(2) 0.021(3) 0.012(2) 0.000(3) 0.009(2)
C9 0.034(6) 0.025(3) 0.024(4) 0.010(3) 0.008(4) 0.007(3)
C8 0.045(6) 0.022(3) 0.025(4) 0.009(3) 0.015(5) 0.008(3)
C5 0.046(6) 0.017(3) 0.026(4) 0.006(2) 0.018(5) 0.005(3)
C6 0.053(7) 0.028(4) 0.026(5) 0.013(3) 0.011(5) 0.008(4)
C7 0.055(7) 0.037(4) 0.009(4) 0.009(3) 0.004(5) 0.011(4)
C4 0.050(7) 0.017(3) 0.030(4) 0.010(3) 0.021(5) 0.003(3)
C16 0.037(6) 0.017(3) 0.022(4) 0.008(2) 0.010(4) 0.006(3)
C13 0.029(5) 0.021(3) 0.024(4) 0.018(3) 0.003(4) 0.014(3)
C11 0.043(6) 0.012(3) 0.035(5) 0.017(3) 0.015(5) 0.008(3)
C17 0.068(7) 0.017(3) 0.029(5) 0.004(3) 0.028(6) 0.010(3)
C10 0.065(7) 0.014(3) 0.031(5) 0.007(3) 0.022(5) 0.009(3)
loop_
_atom_type_symbol
_atom_type_description
_atom_type_scat_dispersion_real
_atom_type_scat_dispersion_imag
_atom_type_scat_source
C C 0.0010 0.0010 'International Tables Vol C Tables 4.2.6.8 and 6.1.1.4'
H H 0.0000 0.0000 'International Tables Vol C Tables 4.2.6.8 and 6.1.1.4'
O O 0.0040 0.0030 'International Tables Vol C Tables 4.2.6.8 and 6.1.1.4'
loop_
_geom_angle_atom_site_label_1
_geom_angle_atom_site_label_2
_geom_angle_atom_site_label_3
_geom_angle
C12 C15 C2 120.8(7)
C12 C15 C16 118.1(6)
C16 C15 C2 121.0(7)
C3 C2 C15 117.5(7)
C1 C2 C15 117.2(7)
C1 C2 C3 125.3(6)
C2 C3 H3 119.2
C4 C3 C2 121.5(6)
C4 C3 H3 119.2
C1 C14 H14 119.0
C1 C14 C13 122.0(7)
C13 C14 H14 119.0
C2 C1 C17 124.3(7)
C14 C1 C2 120.8(6)
C14 C1 C17 114.8(7)
C15 C12 C11 119.3(7)
C13 C12 C15 119.3(6)
C13 C12 C11 121.4(8)
C8 C9 C16 119.4(8)
C8 C9 C10 121.6(6)
C16 C9 C10 119.1(7)
C9 C8 H8 119.5
C7 C8 C9 120.9(6)
C7 C8 H8 119.5
C6 C5 C4 122.2(8)
C6 C5 C16 119.5(6)
C4 C5 C16 118.2(7)
C5 C6 H6 119.5
C7 C6 C5 121.0(9)
C7 C6 H6 119.5
C8 C7 H7 120.1
C6 C7 C8 119.9(8)
C6 C7 H7 120.1
C3 C4 C5 122.2(8)
C3 C4 H4 118.9
C5 C4 H4 118.9
C15 C16 C5 119.4(6)
C9 C16 C15 121.5(8)
C9 C16 C5 119.1(7)
C14 C13 C12 119.9(8)
C14 C13 H13 120.1
C12 C13 H13 120.1
C12 C11 H11 119.3
C10 C11 C12 121.4(8)
C10 C11 H11 119.3
O1 C17 C1 128.7(8)
O1 C17 H17 115.7
C1 C17 H17 115.7
C9 C10 H10 119.7
C11 C10 C9 120.7(6)
C11 C10 H10 119.7
loop_
_geom_bond_atom_site_label_1
_geom_bond_atom_site_label_2
_geom_bond_distance
O1 C17 1.218(10)
C15 C2 1.437(8)
C15 C12 1.416(12)
C15 C16 1.420(11)
C2 C3 1.434(12)
C2 C1 1.423(12)
C3 H3 0.9300
C3 C4 1.358(11)
C14 H14 0.9300
C14 C1 1.374(13)
C14 C13 1.385(9)
C1 C17 1.468(8)
C12 C13 1.403(12)
C12 C11 1.436(8)
C9 C8 1.405(12)
C9 C16 1.409(8)
C9 C10 1.412(13)
C8 H8 0.9300
C8 C7 1.402(14)
C5 C6 1.397(12)
C5 C4 1.427(8)
C5 C16 1.439(13)
C6 H6 0.9300
C6 C7 1.379(10)
C7 H7 0.9300
C4 H4 0.9300
C13 H13 0.9300
C11 H11 0.9300
C11 C10 1.355(12)
C17 H17 0.9300
C10 H10 0.9300
loop_
_diffrn_oxdiff_twin_id
_diffrn_oxdiff_twin_ratio
_diffrn_oxdiff_twin_reflns_isolated
_diffrn_oxdiff_twin_reflns_overlapped
1 0.7193 2586 91
2 0.2488 2396 93
3 0.0319 2711 79
loop_
_twin_individual_id
_twin_individual_mass_fraction_refined
1 0.725(6)
2 0.237(6)
3 0.0377(16)

_cod_database_fobs_code 2108399
