#------------------------------------------------------------------------------
#$Date: 2022-01-01 06:19:30 +0200 (Sat, 01 Jan 2022) $
#$Revision: 271667 $
#$URL: file:///home/coder/svn-repositories/cod/cif/2/10/89/2108910.cif $
#------------------------------------------------------------------------------
#
# This file is available in the Crystallography Open Database (COD),
# http://www.crystallography.net/. The original data for this entry
# were provided by IUCr Journals, http://journals.iucr.org/.
#
# The file may be used within the scientific community so long as
# proper attribution is given to the journal article from which the
# data were obtained.
#
data_2108910
loop_
_publ_author_name
'Rejnhardt, Piotr'
'Drozd, Marek'
'Daszkiewicz, Marek'
_publ_section_title
;
 Low-temperature phase transition and high-pressure phase stability of
 1<i>H</i>-pyrazole-1-carboxamidine nitrate
;
_journal_issue                   6
_journal_name_full               'Acta Crystallographica Section B'
_journal_page_first              996
_journal_page_last               1002
_journal_paper_doi               10.1107/S2052520621010970
_journal_volume                  77
_journal_year                    2021
_chemical_formula_moiety         'C4 H7 N4, N O3'
_chemical_formula_sum            'C4 H7 N5 O3'
_chemical_formula_weight         173.15
_space_group_crystal_system      monoclinic
_space_group_IT_number           14
_space_group_name_Hall           '-P 2ybc'
_space_group_name_H-M_alt        'P 1 21/c 1'
_atom_sites_solution_hydrogens   geom
_atom_sites_solution_primary     direct
_audit_creation_date             2021-07-09
_audit_creation_method
;
Olex2 1.2
(compiled 2018.05.29 svn.r3508 for OlexSys, GUI svn.r5506)
;
_cell_angle_alpha                90
_cell_angle_beta                 99.70(5)
_cell_angle_gamma                90
_cell_formula_units_Z            4
_cell_length_a                   5.1216(12)
_cell_length_b                   10.2236(11)
_cell_length_c                   13.952(10)
_cell_measurement_reflns_used    1212
_cell_measurement_temperature    293(2)
_cell_measurement_theta_max      22.1540
_cell_measurement_theta_min      3.9730
_cell_volume                     720.1(6)
_computing_cell_refinement       'CrysAlisPro 1.171.39.46 (Rigaku OD, 2018)'
_computing_data_collection       'CrysAlisPro 1.171.39.46 (Rigaku OD, 2018)'
_computing_data_reduction        'CrysAlisPro 1.171.39.46 (Rigaku OD, 2018)'
_computing_molecular_graphics    'Olex2 (Dolomanov et al., 2009)'
_computing_publication_material  'Olex2 (Dolomanov et al., 2009)'
_computing_structure_refinement  'ShelXL (Sheldrick, 2015)'
_computing_structure_solution    'ShelXS (Sheldrick, 2008)'
_diffrn_ambient_temperature      293(2)
_diffrn_detector                 'CCD plate'
_diffrn_detector_area_resol_mean 8.2214
_diffrn_detector_type            'Sapphire2, large Be window'
_diffrn_measured_fraction_theta_full 0.349
_diffrn_measured_fraction_theta_max 0.349
_diffrn_measurement_details
;
List of Runs (angles in degrees, time in seconds):

  # Type    Start    End  Width  t~exp~   \w     \q     \k     \f   Frames
--------------------------------------------------------------------------
  1  \w    -20.00  31.60   0.60   30.00    --   25.00   0.00   0.00   86
  2  \w    -20.00  35.80   0.60   30.00    --   25.00   0.00 180.00   93
  3  \w     -3.00  46.80   0.60   30.00    --   25.00 -40.00-170.00   83
  4  \w     -3.00  46.80   0.60   30.00    --   25.00 -40.00  10.00   83
  5  \w      8.00  65.00   0.60   30.00    --   25.00 -82.00  30.00   95
  6  \w      8.00  65.00   0.60   30.00    --   25.00 -82.00-150.00   95
  7  \w     32.50  88.90   0.60   30.00    --   25.00-135.00-122.00   94
  8  \w     32.00  89.00   0.60   30.00    --   25.00-135.00  58.00   95
  9  \w     25.00  46.60   0.60   30.00    --  -25.00-135.00  58.00   36
 10  \w     25.00  46.60   0.60   30.00    --  -25.00-135.00-122.00   36
 11  \w      0.00  22.80   0.60   30.00    --  -25.00 -82.00-150.00   38
 12  \w      0.00  22.80   0.60   30.00    --  -25.00 -82.00  30.00   38
 13  \w    -19.00  17.00   0.60   30.00    --  -25.00 -40.00  10.00   60
 14  \w    -19.00  17.00   0.60   30.00    --  -25.00 -40.00-170.00   60
 15  \w    -33.00  21.60   0.60   30.00    --  -25.00   0.00 180.00   91
 16  \w    -33.00  21.60   0.60   30.00    --  -25.00   0.00   0.00   91
;
_diffrn_measurement_device       'four-circle diffractometer'
_diffrn_measurement_device_type  'Xcalibur, Sapphire2, large Be window'
_diffrn_measurement_method       '\w scans'
_diffrn_orient_matrix_type
'CrysAlisPro convention (1999,Acta A55,543-557)'
_diffrn_orient_matrix_UB_11      0.0601296000
_diffrn_orient_matrix_UB_12      -0.0151668000
_diffrn_orient_matrix_UB_13      -0.0408704000
_diffrn_orient_matrix_UB_21      0.1269064000
_diffrn_orient_matrix_UB_22      0.0044045000
_diffrn_orient_matrix_UB_23      0.0294248000
_diffrn_orient_matrix_UB_31      -0.0051851000
_diffrn_orient_matrix_UB_32      -0.0675387000
_diffrn_orient_matrix_UB_33      0.0111422000
_diffrn_radiation_monochromator  graphite
_diffrn_radiation_probe          x-ray
_diffrn_radiation_type           MoK\a
_diffrn_radiation_wavelength     0.71073
_diffrn_reflns_av_R_equivalents  0.0711
_diffrn_reflns_av_unetI/netI     0.0399
_diffrn_reflns_Laue_measured_fraction_full 0.349
_diffrn_reflns_Laue_measured_fraction_max 0.349
_diffrn_reflns_limit_h_max       5
_diffrn_reflns_limit_h_min       -5
_diffrn_reflns_limit_k_max       12
_diffrn_reflns_limit_k_min       -12
_diffrn_reflns_limit_l_max       9
_diffrn_reflns_limit_l_min       -9
_diffrn_reflns_number            3976
_diffrn_reflns_point_group_measured_fraction_full 0.349
_diffrn_reflns_point_group_measured_fraction_max 0.349
_diffrn_reflns_theta_full        25.049
_diffrn_reflns_theta_max         25.049
_diffrn_reflns_theta_min         3.986
_diffrn_source                   'fine-focus sealed X-ray tube'
_diffrn_source_type              'Enhance (Mo) X-ray Source'
_exptl_absorpt_coefficient_mu    0.137
_exptl_absorpt_correction_T_max  1.00000
_exptl_absorpt_correction_T_min  0.35307
_exptl_absorpt_correction_type   multi-scan
_exptl_absorpt_process_details
;
CrysAlisPro 1.171.39.46 (Rigaku Oxford Diffraction, 2018)
Empirical absorption correction using spherical harmonics,
 implemented in SCALE3 ABSPACK scaling algorithm.
;
_exptl_crystal_colour            colourless
_exptl_crystal_density_diffrn    1.597
_exptl_crystal_description       prism
_exptl_crystal_F_000             360
_refine_diff_density_max         0.153
_refine_diff_density_min         -0.203
_refine_diff_density_rms         0.042
_refine_ls_extinction_method     none
_refine_ls_goodness_of_fit_ref   1.050
_refine_ls_hydrogen_treatment    constr
_refine_ls_matrix_type           full
_refine_ls_number_parameters     109
_refine_ls_number_reflns         445
_refine_ls_number_restraints     0
_refine_ls_restrained_S_all      1.050
_refine_ls_R_factor_all          0.0954
_refine_ls_R_factor_gt           0.0623
_refine_ls_shift/su_max          0.000
_refine_ls_shift/su_mean         0.000
_refine_ls_structure_factor_coef Fsqd
_refine_ls_weighting_details
'w=1/[\s^2^(Fo^2^)+(0.1077P)^2^+0.7671P] where P=(Fo^2^+2Fc^2^)/3'
_refine_ls_weighting_scheme      calc
_refine_ls_wR_factor_gt          0.1544
_refine_ls_wR_factor_ref         0.1841
_reflns_Friedel_coverage         0.000
_reflns_number_gt                305
_reflns_number_total             445
_reflns_threshold_expression     'I > 2\s(I)'
_cod_data_source_file            xk5086sup1.cif
_cod_data_source_block           0.19GPa
_cod_database_code               2108910
_shelx_shelxl_version_number     2018/3
_chemical_oxdiff_formula         C4N4NO3H7
_shelx_space_group_comment
;
The symmetry employed for this shelxl refinement is uniquely defined
by the following loop, which should always be used as a source of
symmetry information in preference to the above space-group names.
They are only intended as comments.
;
_reflns_odcompleteness_completeness 34.34
_reflns_odcompleteness_iscentric 1
_reflns_odcompleteness_theta     25.00
_olex2_refinement_description
;
1. Fixed Uiso
 At 1.2 times of:
  All C(H) groups, All N(H,H) groups
2.a Aromatic/amide H refined with riding coordinates:
 C1(H1), C2(H2), C3(H3)
2.b X=CH2 refined with riding coordinates:
 N3(H3A,H3B), N4(H4A,H4B)
;
_shelx_res_file
;
TITL instrument in P21/c #14
    instrument.res
    created by SHELXL-2018/3 at 16:07:33 on 09-Jul-2021
REM reset to P21/c #14
CELL 0.71073 5.12163 10.223602 13.951512 90 99.7016 90
ZERR 4 0.001244 0.001077 0.009913 0 0.046 0
LATT 1
SYMM -X,0.5+Y,0.5-Z
SFAC C H N O
UNIT 16 28 20 12

L.S. 99
PLAN  20
BOND
fmap 2 53
ACTA
OMIT 1 0 4
OMIT 3 3 7
OMIT 2 4 8
OMIT 2 1 5
OMIT 3 0 8
REM <olex2.extras>
REM <HklSrc "%.\\instrument.hkl">
REM </olex2.extras>

WGHT    0.107700    0.767100
FVAR       2.31615
C1    1    0.108656    0.788456    0.537409    11.00000    0.05723    0.04652 =
         0.11705    0.00137   -0.01045   -0.00052
AFIX  43
H1    2   -0.037038    0.827790    0.499529    11.00000   -1.20000
AFIX   0
C2    1    0.324407    0.857115    0.590026    11.00000    0.05514    0.04639 =
         0.10365   -0.01140    0.01220   -0.00235
AFIX  43
H2    2    0.344263    0.947403    0.595041    11.00000   -1.20000
AFIX   0
C3    1    0.494845    0.766557    0.631295    11.00000    0.05482    0.04852 =
         0.10537   -0.01328   -0.01607   -0.01092
AFIX  43
H3    2    0.658372    0.781270    0.670149    11.00000   -1.20000
AFIX   0
C4    1    0.476983    0.522927    0.630192    11.00000    0.04127    0.04670 =
         0.08114    0.00280   -0.00211   -0.00270
N1    3    0.380649    0.646845    0.604962    11.00000    0.03276    0.04715 =
         0.05309    0.00197    0.00462   -0.00194
N2    3    0.139866    0.661417    0.548775    11.00000    0.04708    0.04205 =
         0.12987    0.00078   -0.02020    0.00054
N3    3    0.338885    0.424031    0.591597    11.00000    0.05120    0.04283 =
         0.10445    0.00582   -0.02010    0.00021
AFIX  93
H3A   2    0.400260    0.345943    0.601061    11.00000   -1.20000
H3B   2    0.185994    0.436582    0.556557    11.00000   -1.20000
AFIX   0
N4    3    0.707911    0.508724    0.683417    11.00000    0.04613    0.06333 =
         0.10798   -0.00338   -0.01989    0.00465
AFIX  93
H4A   2    0.774525    0.431836    0.694183    11.00000   -1.20000
H4B   2    0.794732    0.576175    0.708014    11.00000   -1.20000
AFIX   0
N5    3    0.246097    0.647987    0.826403    11.00000    0.05361    0.05316 =
         0.09889   -0.00002   -0.01410   -0.00042
O1    4    0.484584    0.673442    0.856857    11.00000    0.04532    0.05020 =
         0.15186   -0.00682   -0.02880   -0.00313
O2    4    0.167095    0.535000    0.823706    11.00000    0.06404    0.05586 =
         0.13876   -0.00327   -0.02137   -0.01451
O3    4    0.088396    0.737811    0.793938    11.00000    0.05881    0.06573 =
         0.11922    0.00940   -0.01738    0.00549
HKLF 4




REM  instrument in P21/c #14
REM wR2 = 0.1841, GooF = S = 1.050, Restrained GooF = 1.050 for all data
REM R1 = 0.0623 for 305 Fo > 4sig(Fo) and 0.0954 for all 445 data
REM 109 parameters refined using 0 restraints

END

WGHT      0.1071      0.7982

REM Highest difference peak  0.153,  deepest hole -0.203,  1-sigma level  0.042
Q1    1   0.6724  0.7412  0.7330  11.00000  0.05    0.15
Q2    1   0.1606  0.4255  0.5835  11.00000  0.05    0.14
Q3    1   0.7829  0.6834  0.6048  11.00000  0.05    0.13
Q4    1   0.3516  0.7613  0.8981  11.00000  0.05    0.12
Q5    1  -0.1418  0.5092  0.8369  11.00000  0.05    0.12
Q6    1   0.1590  0.6566  0.5024  11.00000  0.05    0.11
Q7    1   0.9512  0.7380  0.6367  11.00000  0.05    0.11
Q8    1   0.8237  0.7806  0.6439  11.00000  0.05    0.11
Q9    1   0.9204  0.7373  0.6575  11.00000  0.05    0.10
Q10   1   0.1286  0.6486  0.5207  11.00000  0.05    0.10
Q11   1   0.1986  0.4235  0.8384  11.00000  0.05    0.10
Q12   1   0.5629  0.5909  0.9623  11.00000  0.05    0.10
Q13   1   0.5263  0.5941  0.9803  11.00000  0.05    0.10
Q14   1  -0.1077  0.7890  0.7983  11.00000  0.05    0.10
Q15   1   0.2315  0.4290  0.8213  11.00000  0.05    0.10
Q16   1   0.2567  0.7962  0.7208  11.00000  0.05    0.10
Q17   1   0.3220  0.2987  0.5178  11.00000  0.05    0.10
Q18   1   0.8863  0.7276  0.6832  11.00000  0.05    0.10
Q19   1   0.1029  0.3248  0.5414  11.00000  0.05    0.10
Q20   1   0.9586  0.4821  0.7546  11.00000  0.05    0.09
;
_shelx_res_checksum              23914
_shelx_hkl_file
;
   0   2   0 3397.19 104.793   9
   0  -2   0 3359.33 104.032   7
   0  -2   0 4033.04 105.050   3
   0  -2   0 3441.31 100.997   5
   0  -2   0 3129.38 96.2268   6
   0  -2   0 3414.78 104.475   8
   0   2   0 3489.00 98.6176  12
   0  -2   1 11637.8 119.848   3
   0   2  -1 11634.7 123.711  14
   0  -2   1 11688.0 172.397   6
   0  -2   1 11603.3 188.520   5
   0  -2   1 11717.9 192.305   7
   0   2  -1 11642.3 176.005  11
   0  -2   1 11641.7 155.840   4
   0   2  -1 11591.3 152.656  13
   0  -2   1 11703.8 191.827   8
   0  -2   2 2028.02 94.3446   5
   0  -2   2 2022.50 76.6490   6
   0  -2   2 2121.58 90.9359   8
   0  -2   2 2025.91 90.9676   7
   0  -2   2 1945.10 84.5096   4
   0   2  -2 2100.82 90.7316  10
   0  -3   0 14.2330 9.49490   7
   0  -3   0 3.20445 8.46969   5
   0  -3   0-1.77607 6.65742   6
   0   3   0-8.25130 7.40954  12
   0   3   0 7.08137 7.41860   9
   0  -3   0 0.70398 7.60224   8
   0  -3   0 0.04908 4.38355   4
   0  -3  -1 3271.66 150.875   8
   0  -3   1 3868.64 92.5486   3
   0   3  -1 3858.24 126.834  12
   0  -3   1 3800.54 130.608   5
   0  -3   1 3879.72 134.245   8
   0   3   1 3478.75 143.315   9
   0   3  -1 4066.15 94.6426  14
   0  -3   1 3842.19 102.170   4
   0  -3  -1 3374.26 157.808   7
   0  -3   1 3795.98 124.081   6
   0  -3   1 3761.65 134.033   7
   0   3  -1 4138.76 107.090  13
   0  -3   2 1500.79 78.4717   6
   0  -3   2 1627.76 44.3561  15
   0  -3   2 1599.89 43.5931   2
   0   3  -2 1521.06 88.8337  10
   0  -3   2 1526.47 92.6018   5
   0  -3   2 1557.64 53.9932   3
   0   3  -2 1529.39 79.3139  11
   0   3  -2 1631.29 46.3368   1
   0   3  -2 1575.98 45.4963  16
   0  -3   2 1664.04 82.5923   4
   0  -3   2 1550.06 88.9721   8
   0  -3   2 1513.64 88.5199   7
   0  -3   3 10377.0 259.463   5
   0   3  -3 10121.2 244.211  10
   0  -3   3 10145.1 250.021   7
   0  -3   3 10554.9 254.332   8
   0  -3   3 10423.9 216.804   6
   0   4   0 925.319 72.0244  12
   0  -4   0 960.329 77.3081   5
   0  -4   0 1015.53 59.9239   4
   0  -4   0 952.037 81.1987   8
   0  -4   0 994.281 84.3878   7
   0   4   0 990.512 83.0499   9
   0  -4   0 1037.73 83.8137   6
   0  -4   1 976.628 79.8413   8
   0  -4   1 927.178 56.8917   4
   0  -4   1 1130.96 66.9927   3
   0   4  -1 1074.23 58.7251  14
   0  -4  -1 360.874 59.4015   6
   0   4  -1 1032.36 59.8024  13
   0   4   1 972.210 87.7474   9
   0  -4   1 952.094 75.3002   5
   0   4  -1 1010.65 81.6059   9
   0  -4  -1 931.554 90.1489   8
   0  -4   1 936.852 79.0841   7
   0  -4   1 929.294 72.5787   6
   0   4  -1 989.353 75.6563  12
   0  -4  -1 847.632 80.6255   5
   0  -4  -1 960.752 92.0855   7
   0  -4   2 6723.28 209.084   5
   0   4  -2 7042.40 171.258  13
   0   4  -2 7173.42 198.511  11
   0  -4   2 6914.84 193.880   6
   0  -4   2 6741.22 213.059   7
   0   4  -2 6956.09 217.528  10
   0  -4   2 6908.65 134.453   3
   0  -4   2 6936.65 214.145   8
   0  -4   2 7099.68 180.399   4
   0   4  -3 1778.18 59.8608  16
   0   4  -3 1703.22 111.400  10
   0  -4   3 1722.40 116.422   5
   0  -4   3 1772.90 67.5659   3
   0  -4   3 1757.03 57.6734  15
   0   4  -3 1682.15 98.2079  11
   0  -4   3 1654.43 99.8284   4
   0  -4   3 1793.19 100.565   6
   0  -4   3 1784.62 115.402   8
   0  -4   3 1764.79 115.637   7
   0  -4   4 654.032 74.7308   8
   0  -4   4 643.571 76.5247   5
   0  -4   4 674.344 65.0287   6
   0  -4   4 621.419 71.2970   7
   0   4  -4 690.075 78.6039  10
   0  -5   0 23.6056 21.9329   8
   0   5   0 13.9153 23.0163   9
   0   5   0-2.03652 18.6463  12
   0  -5   0 22.3873 26.1715   7
   0  -5   0 27.1748 18.7208   4
   0  -5   0 15.8153 17.6330   6
   0  -5   0 14.7535 23.0304   5
   0  -5   1 1722.67 86.6044   4
   0  -5   1 1652.81 110.383   5
   0   5   1 1577.55 121.447   9
   0   5  -1 1757.65 86.9001  14
   0  -5  -1 1562.29 122.393   5
   0  -5   1 1636.71 110.693   6
   0  -5  -1 1573.91 133.697   7
   0   5  -1 1781.65 115.286  12
   0  -5  -1 1421.76 126.931   8
   0   5  -1 1815.52 125.154   9
   0  -5   1 1682.25 118.846   8
   0  -5   1 1660.62 117.010   7
   0  -5   2 653.702 66.6417   6
   0  -5   2 668.121 73.6733   5
   0  -5   2 670.588 59.5453   4
   0   5  -2 675.066 76.6139  10
   0   5  -2 671.775 72.1402  12
   0   5  -2 687.409 70.6390  11
   0   5  -2 647.570 58.1644  13
   0  -5   2 724.555 52.5824   3
   0   5  -2 612.901 42.7459  14
   0  -5   2 648.622 75.3374   7
   0  -5   2 660.999 74.6803   8
   0   5  -3 22.6049 15.0810  11
   0  -5   3 36.0027 21.6932   7
   0  -5   3 55.0978 23.9291   4
   0   5  -3 67.1188 22.3263  13
   0   5  -3 35.8725 20.4183  10
   0  -5   3 44.0662 21.7822   5
   0  -5   3 54.6052 25.6614   8
   0  -5   3 52.4932 16.4518   3
   0  -5   3 84.3858 30.4979   6
   0  -5   4 2346.14 152.289   7
   0  -5   4 2325.00 76.0250  15
   0   5  -4 2253.41 75.6749  16
   0  -5   4 2446.77 89.1800   3
   0   5  -4 2290.97 126.067  13
   0  -5   4 2178.20 148.251   5
   0  -5   4 2310.24 130.389   6
   0  -5   4 2334.94 151.859   8
   0   5  -4 2216.54 148.961  10
   0   5  -5 21.2265 29.7711  10
   0  -5   5 14.0001 16.6069   8
   0  -5   5 19.3182 24.2596   7
   0  -5   5 27.2522 20.2100   5
   0  -5   5 39.6467 26.5378   6
   0  -6   0 4925.44 245.680   6
   0  -6   0 4649.59 228.576   8
   0   6   0 4594.80 226.004   9
   0  -6   0 4789.76 232.797   7
   0  -6   0 4657.13 214.934   5
   0   6   0 4654.14 168.854  14
   0  -6   0 4816.73 161.671   4
   0  -6  -1 324.688 66.1198   7
   0  -6   1 452.264 67.4258   5
   0  -6   1 405.748 65.8588   7
   0  -6  -1 332.751 72.5649   8
   0  -6  -1 293.079 62.9868   5
   0  -6   1 421.376 67.0094   8
   0   6   1 325.101 61.6954   9
   0   6  -1 459.275 47.6148  14
   0   6  -1 424.461 64.6099  12
   0  -6   1 502.823 72.2600   6
   0  -6   1 484.734 51.0725   4
   0   6  -1 493.224 74.9868   9
   0   6  -2 74.5043 30.1299  10
   0   6  -2 35.2934 24.6783  11
   0  -6   2 38.2237 21.3083   3
   0   6  -2 65.3248 29.2399  12
   0  -6   2 50.3537 19.1049   4
   0   6  -2 48.6843 21.5316  13
   0   6  -2 69.5248 19.7740  14
   0  -6   2 46.1682 20.3833   5
   0  -6   2 44.6285 29.7188   8
   0   6  -2 52.0407 26.6015   9
   0  -6   2 24.5776 20.3265   7
   0  -6   2 56.0537 27.5848   6
   0  -6   3 833.328 94.4178   5
   0   6  -3 869.692 87.9981  11
   0  -6   3 839.098 86.8952   6
   0  -6   3 764.372 90.5100   7
   0   6  -3 824.923 89.1843  12
   0   6  -3 763.108 93.0070  10
   0  -6   3 863.911 59.9847   3
   0  -6   3 887.145 81.2616   4
   0  -6   3 797.749 92.6440   8
   0   6  -3 905.553 77.0173  13
   0  -6   4 921.464 103.170   5
   0  -6   4 1029.73 109.971   7
   0  -6   4 999.895 107.756   8
   0   6  -4 989.425 86.8541  13
   0   6  -4 1020.24 108.130  10
   0  -6   4 939.585 57.5856   3
   0  -6   4 1017.71 96.6865   6
   0   6  -5 343.121 69.6195  10
   0   6  -5 352.395 56.5815  13
   0  -6   5 362.244 70.3922   8
   0  -6   5 317.877 65.1327   5
   0  -6   5 357.032 36.2285   3
   0  -6   5 444.771 38.4653  15
   0  -6   5 408.465 74.2194   7
   0  -6   5 335.546 56.5267   6
   0   7   0 33.0409 30.2536   9
   0  -7   0 12.4726 21.7242   7
   0  -7   0-5.56756 27.2775   5
   0  -7   0-0.62003 16.9778   4
   0   7   0-5.40984 16.2775  14
   0  -7   0 21.3253 20.6849   6
   0  -7   0-13.6502 25.3607   8
   0  -7  -1 138.547 48.1196   5
   0  -7  -1 92.9633 42.0638   8
   0   7  -1 357.532 64.9602  11
   0   7  -1 435.857 68.7477  12
   0  -7   1 415.018 78.9375   8
   0  -7   1 341.829 64.1644   5
   0  -7   1 445.551 54.2219   4
   0  -7   1 420.678 77.9088   6
   0   7  -1 446.689 77.6264   9
   0   7  -1 413.579 50.7981  14
   0  -7   1 395.931 77.3315   7
   0  -7   2 53.3559 22.5075   7
   0   7  -2 84.4587 43.3926   9
   0   7  -2 73.5075 26.6326  12
   0   7  -2 53.2898 16.3868  14
   0  -7   2 99.4816 36.8510   5
   0  -7   2 124.160 32.3262   4
   0  -7   2 79.1497 32.9334   6
   0   7  -2 93.0693 49.8379  10
   0   7  -2 149.385 48.0170  11
   0  -7   2 61.5324 27.9722   8
   0  -7   3-21.0820 31.6799   8
   0   7  -3-3.58390 28.6730  10
   0  -7   3 12.2969 21.7701   5
   0  -7   3-2.04021 19.0830   6
   0   7  -3-23.7845 18.9106  13
   0   7  -3-22.4659 29.6489  11
   0   7  -3 42.4386 25.3367  12
   0   7  -3 11.3474 23.9636   9
   0  -7   3-12.6619 25.2927   7
   0  -7   3 1.51538 21.9010   4
   0   7  -4 610.230 97.0536  10
   0   7  -4 573.526 81.0457  11
   0  -7   4 585.186 91.3261   8
   0   7  -4 540.379 82.0319  12
   0   7  -4 612.631 72.2397  13
   0  -7   4 515.808 84.3616   7
   0  -7   4 527.882 77.5497   6
   0  -7   4 607.400 91.3686   5
   0  -7   5 165.855 51.6309   5
   0  -7   5 119.501 40.4367   6
   0   7  -5 115.366 34.7297  13
   0  -7   5 135.511 50.9383   7
   0  -7   5 140.957 53.0502   8
   0   7  -5 180.672 56.7701  10
   0  -7   6 217.553 49.8814   6
   0  -7   6 280.369 68.5827   7
   0  -7   6 295.355 75.9108   8
   0  -7   6 71.4209 28.8987   5
   0   7  -6 240.258 48.9890  13
   0   8   0 128.970 37.9385  14
   0  -8   0 194.286 60.4327   7
   0  -8   0 152.313 51.5395   5
   0  -8   0 188.893 66.2769   8
   0   8   0 201.194 67.0767   9
   0  -8   0 109.890 22.2169   4
   0  -8   1 3045.24 211.515   5
   0  -8   1 2752.85 220.145   6
   0   8  -1 2985.02 199.478  11
   0   8  -1 2522.28 200.988   9
   0  -8   1 3026.13 220.686   8
   0  -8   1 3058.61 221.937   7
   0  -8   1 3180.76 162.584   4
   0  -8   2 447.272 80.1562   5
   0   8  -2 406.069 78.8496  10
   0  -8   2 397.849 79.5959   7
   0   8  -2 389.464 72.2746  12
   0   8  -2 382.354 78.6426   9
   0  -8   2 480.527 69.8787   4
   0  -8   2 393.359 80.6731   8
   0  -8   2 427.779 80.9308   6
   0   8  -2 486.473 80.5168  11
   0  -8   3 1442.84 124.640   4
   0   8  -3 1409.83 152.571   9
   0  -8   3 1497.13 152.399   5
   0   8  -3 1647.81 142.790  11
   0   8  -3 1515.23 144.692  12
   0  -8   3 1574.76 159.166   7
   0  -8   3 1649.82 161.825   8
   0   8  -3 1501.42 157.109  10
   0  -8   3 1499.19 142.928   6
   0  -8   4 62.0120 47.2149   7
   0   8  -4 59.5001 28.7915  13
   0   8  -4 53.6675 34.3376  10
   0   8  -4 71.8519 49.0369   9
   0  -8   4 7.61139 36.9329   6
   0  -8   4 1.37864 28.0502   8
   0  -8   4 37.2529 31.4254   5
   0   8  -4 32.8212 36.2189  11
   0   8  -4 48.7613 25.0092  12
   0   8  -5 381.376 81.4362  10
   0   8  -5 439.239 82.0605  12
   0  -8   5 373.688 84.7065   7
   0  -8   5 350.784 77.1549   5
   0  -8   5 466.248 89.0279   8
   0  -8   5 364.871 64.6074   6
   0   8  -5 417.677 72.0714  13
   0   8  -5 367.169 80.0821   9
   0  -8   6 24.3071 26.1632   8
   0  -8   6-0.43708 20.9252   6
   0   8  -6 76.8082 44.9996  13
   0   8  -6 22.3657 30.0050  12
   0  -8   6 33.6034 19.7572   5
   0  -8   6 59.8539 31.8130   7
   0   8  -6-8.80851 28.2664  10
   0  -9   0-9.22796 35.7116   7
   0  -9   0 19.6741 41.3167   8
   0   9   0 20.0139 22.2018   9
   0  -9   1 183.283 65.6334   5
   0   9  -1 181.987 63.6193  11
   0   9  -1 182.266 61.7669   9
   0  -9   1 224.880 68.1264   7
   0  -9   1 18.8934 37.4611   6
   0  -9   1 184.417 72.9704   8
   0  -9   2 690.768 121.760   7
   0   9  -2 583.497 105.912   9
   0  -9   2 661.666 120.441   6
   0   9  -2 638.869 97.3784  12
   0   9  -2 722.013 114.939  10
   0  -9   2 702.149 113.080   5
   0   9  -2 651.101 95.2720  11
   0  -9   2 640.904 111.770   8
   0  -9   3 506.261 98.7608   8
   0  -9   3 539.732 97.3668   5
   0   9  -3 470.102 82.9883  11
   0   9  -3 523.075 89.4858  12
   0   9  -3 538.684 101.505   9
   0  -9   3 498.520 98.9250   7
   0   9  -3 505.798 102.430  10
   0  -9   3 611.390 110.226   6
   0   9  -4 689.674 112.229  12
   0  -9   4 747.808 122.086   5
   0  -9   4 807.751 128.803   7
   0  -9   4 755.659 120.556   8
   0   9  -4 753.706 106.910  11
   0   9  -4 839.671 126.558   9
   0   9  -4 722.979 122.911  10
   0  -9   4 791.141 113.776   6
   0   9  -5 5.65194 31.3994  12
   0   9  -5 109.189 56.5539   9
   0  -9   5-24.0154 52.3857   7
   0  -9   5 101.280 50.7465   5
   0  -9   5 31.3665 29.5968   6
   0  -9   5 135.333 73.7117   8
   0   9  -5 49.9801 43.2605  10
   0  -9   6 201.929 57.4317   6
   0   9  -6 694.474 123.202  10
   0  -9   6 248.846 66.8840   5
   0  -9   6 670.356 122.665   8
   0   9  -6 484.558 105.603   9
   0  -9   6 532.601 107.420   7
   0   9  -6 572.209 114.250  12
   0 -10   1 31.6511 49.2508   8
   0  10  -1 53.4537 36.6802  11
   0 -10   1 22.5325 44.1268   5
   0  10  -1 126.794 63.9516  10
   0 -10   1 85.3239 68.2404   7
   0  10  -1 142.661 68.1125   9
   0  10  -2 25.7057 43.9579  10
   0 -10   2 9.31196 37.5843   6
   0 -10   2-6.13727 45.7763   7
   0  10  -2-0.20353 39.3759   9
   0 -10   2-19.2365 33.6657   5
   0  10  -2-63.6124 41.3124  11
   0 -10   2-64.7418 55.8455   8
   0  10  -3-34.5317 62.4217  10
   0 -10   3 56.8585 56.4988   7
   0  10  -3 39.6864 39.7540  12
   0 -10   3 90.1024 68.4232   8
   0  10  -3 29.0622 50.8898   9
   0  10  -3 32.9579 35.8030  11
   0 -10   3 105.335 58.2070   5
   0 -10   3 69.5332 32.1609   6
   0 -10   4 219.290 63.1447   6
   0  10  -4 261.973 72.1033  11
   0  10  -4 217.968 73.6222   9
   0  10  -4 225.288 61.5718  12
   0  10  -4 256.925 88.9658  10
   0 -10   4 192.835 75.8083   8
   0 -10   4 232.818 73.7464   5
   0 -10   4 193.804 70.4623   7
   0 -10   5 32.0533 44.8002   7
   0  10  -5-4.74564 35.6461  12
   0 -10   5 19.7551 45.2718   6
   0  10  -5-29.3154 66.6132   9
   0 -10   5 21.6819 33.4067   5
   0  10  -5 93.3539 59.7771  10
   0 -10   5-37.8744 62.5428   8
   0 -10   6 30.3334 25.2803   5
   0  10  -6-78.2474 55.7604   9
   0  10  -6 8.50909 42.4486  12
   0 -10   6-68.3274 50.1151   7
   0  10  -6 20.4022 51.6277  10
   0 -10   6-97.3871 76.1869   8
   0 -11   2 5.86120 43.3897   5
   0 -11   2 45.8543 49.4709   8
   0  11  -2 104.132 75.8345  10
   0  11  -2 36.7607 43.2424  11
   0  11  -2 102.964 53.1349   9
   0 -11   2 90.0514 58.6283   7
   0  11  -3-30.2852 47.3441   9
   0  11  -3 1.00129 32.7548  11
   0 -11   3 8.17654 41.7474   5
   0 -11   3 96.5339 48.8661   8
   0  11  -4-30.0415 41.1496   9
   0  11  -4 13.2794 35.9198  12
   0 -11   4-46.2932 59.5271   5
   0 -11   4 70.4747 56.6010   6
   0 -11   4 43.4793 38.6480   7
   0  11  -4 83.8243 42.6071  10
   0 -11   4-23.1283 77.2509   8
   0 -11   5 51.4855 52.7426   5
   0  11  -5 70.5741 48.3748  12
   0  11  -5 123.016 100.247  10
   0 -11   5 63.0979 54.8861   8
   0  11  -5 40.6734 40.5796   9
   0 -11   5 133.698 70.8591   7
   0  11  -6 43.7811 58.5557  12
   0 -11   6 33.7024 73.3421   7
   0  11  -6-20.7186 64.5187  10
   0  11  -6-14.8439 46.2934   9
   0 -11   6-19.0321 59.3837   8
   0 -12   2 89.1647 81.8525   8
   0  12  -2 16.6569 53.4872  10
   1   0   0 8943.96 170.201  15
  -1   0   0 9147.34 170.825  16
   1   0   1 5.16270 5.22230   5
  -1   0  -1 12.1733 6.21676   6
   1   0   1 9.17899 6.05312  11
   1   0   1 15.4990 11.1135   1
  -1   0  -1 13.7558 11.4094   2
   1   0   1 15.5948 7.52997   4
  -1   0  -1 10.8368 8.41654  13
   1   0   1 21.7783 11.2230  14
  -1   0  -1 15.1608 8.99515  16
  -1   0  -1 13.6359 9.00958   3
   1   0   1 14.9603 11.7339  15
  -1   0  -1 12.6603 7.29476  12
  -1   0  -2 82.9920 19.1500  16
   1   0   2 99.8929 17.0615   5
  -1   0  -2 86.0060 20.5812   2
  -1   0  -2 97.7613 16.1840   6
   1   0   2 82.7752 19.2844  15
   1   0   2 86.6521 21.9413   1
   1   0   2 86.8039 20.3176   4
  -1   0  -2 88.0991 18.9659   3
  -1   0  -3 1.85208 13.2087   3
   1   0   3 2.25587 8.57176  15
   1   0   3-5.12210 8.58919   1
   1   0   3 3.90748 10.1530   4
  -1   0  -3 9.65017 12.4354  16
  -1   0  -3 1.90610 12.4579   2
   1   0   4 1903.94 125.532  15
   1   0   4 1699.46 126.886   1
  -1  -1   0 28726.8 305.122  16
   1   1   0 27690.2 322.392  14
  -1  -1   0 28588.3 300.948   2
  -1  -1   0 28357.6 322.679   3
   1   1   0 28753.2 306.323  11
  -1  -1   0 28676.4 292.068   6
   1   1   0 28670.9 297.746   1
   1   1   0 28867.5 303.930  15
  -1  -1  -1 8019.26 168.751  16
  -1   1  -1 8663.38 173.740  16
   1   1   1 7930.33 175.495  14
   1   1   1 8326.52 109.482   7
  -1  -1  -1 8482.00 111.688   8
  -1   1  -1 8510.82 137.466   3
  -1   1  -1 8655.22 187.638  13
   1   1   1 8458.33 111.952  10
  -1   1  -1 8660.31 175.682   2
   1  -1   1 8353.64 140.272  14
   1   1   1 8137.81 171.164   1
  -1  -1  -1 8140.49 173.727   3
   1  -1   1 8263.75 173.760   1
   1   1   1 8094.80 157.850  11
   1  -1   1 8636.90 186.435   4
   1   1   1 8184.83 140.271   4
  -1  -1  -1 8208.01 105.761   7
  -1  -1  -1 8147.19 140.128  13
   1  -1   1 8244.32 177.288   5
   1   1   1 8120.48 105.770   8
  -1  -1  -1 8171.46 155.115   6
  -1  -1  -1 7831.27 166.554   2
  -1   1  -1 8386.12 168.803  12
   1   1   1 8195.03 170.919  15
   1  -1   1 8707.19 134.357   8
   1  -1   1 8210.90 170.800  15
   1  -1   2 470.239 42.3603   5
   1   1   2 478.733 26.3969   7
   1   1   2 470.599 47.1828  15
  -1  -1  -2 468.850 46.8550   3
   1  -1   2 481.114 45.6303   1
  -1   1  -2 481.106 46.9703  13
   1  -1   2 479.000 47.8508   4
  -1  -1  -2 511.614 43.6898   6
  -1   1  -2 472.827 30.1491   9
  -1  -1  -2 452.759 45.4019  16
   1  -1   2 492.772 29.9061   8
   1  -1   2 458.877 43.9581  15
  -1   1  -2 493.285 30.5295  10
  -1  -1  -2 480.544 46.5686   2
  -1  -1  -2 448.855 25.3556   8
   1  -1   2 455.997 30.7190   7
  -1   1  -2 494.726 36.2303   3
   1   1   2 520.699 44.5483   4
  -1   1  -2 470.578 43.8828  16
  -1  -1  -2 524.981 28.9565   5
   1   1   2 457.021 47.8934   1
   1  -1   2 477.985 35.8330  14
  -1   1  -2 489.839 44.3452   2
  -1  -1  -3-7.25788 17.2788  16
   1  -1   3 9.52221 15.2982   1
  -1   1  -3 1.66294 9.26221   2
  -1  -1  -3-2.92382 12.2796   3
   1   1   3 8.51412 12.0811   1
   1   1   3-3.71200 12.4175  15
  -1  -1  -3-1.06581 11.5243   2
   1  -1   3-4.68665 9.08926   5
  -1   1  -3-3.07321 10.7794  16
   1  -1   3 1.91163 12.3472   4
   1  -1   3-9.26444 8.17014   7
   1  -1   3 1.13398 9.35393  15
  -1   1  -4 2649.40 145.183  16
  -1   1  -4 1893.72 127.257   2
   1  -1   4 2463.51 129.985  15
   1  -1   4 2015.71 130.358   1
   1  -1   4 2241.49 124.875   4
  -1  -2   1 1423.89 81.4982   6
   1   2  -1 1318.69 80.3816  11
  -1  -2   1 1417.93 78.7859   3
   1   2  -1 1411.00 81.2266  14
  -1  -2   1 1481.78 80.7452   7
  -1  -2   0 1534.02 69.3171   7
   1   2   0 1570.26 71.3947  15
   1   2   0 1570.39 69.3978   1
   1   2   0 1536.29 83.3974  14
   1   2   0 1582.18 74.1906  10
   1   2   0 1594.74 48.1649   5
  -1  -2   0 1673.09 74.8231  16
   1   2   0 1493.08 80.3577  11
  -1  -2   0 1531.73 80.2525   6
  -1  -2   0 1598.40 74.5604   8
  -1  -2   0 1472.09 79.1575   3
  -1  -2   0 1544.96 68.8534   2
   1   2   1 3239.38 111.795   1
  -1   2  -1 3117.06 122.976  12
   1  -2   1 3494.21 132.712   5
  -1  -2  -1 3131.61 106.982  16
  -1   2  -1 3154.96 106.880  16
   1  -2   1 3204.28 106.452   1
   1  -2   1 3348.67 127.420   4
  -1  -2  -1 3180.93 73.2053  13
  -1  -2  -1 3378.63 100.571   7
  -1   2  -1 3294.78 108.677   2
   1   2   1 3264.10 109.506  15
   1   2   1 3242.99 79.1403   4
  -1   2  -1 3426.04 122.409   9
  -1   2  -1 3432.94 128.105  13
   1  -2   1 3514.31 130.503   7
   1   2   1 3361.98 126.282  14
   1   2   1 3447.70 103.198   9
  -1  -2  -1 3167.51 94.3778   8
  -1  -2  -1 3223.44 118.273   6
   1  -2   1 3581.85 117.228   8
  -1  -2  -1 3131.07 106.713   2
   1  -2   1 3220.57 106.940  15
  -1  -2  -1 3156.96 120.754   3
  -1   2  -2 607.541 56.3973  13
   1  -2   2 579.963 31.3120  14
   1   2   2 591.740 54.5297  15
  -1  -2  -2 550.173 52.0700  16
   1  -2   2 594.217 48.0548  15
   1  -2   2 555.127 45.3828   7
   1  -2   2 558.844 53.8025   5
  -1   2  -2 528.593 51.4568  12
  -1   2  -2 525.674 45.6806  16
  -1  -2  -2 551.822 55.7503   3
  -1  -2  -2 655.895 60.0878   2
   1  -2   2 550.414 47.6193   1
  -1  -2  -2 576.530 56.3346   6
  -1   2  -2 536.380 43.9141   9
   1  -2   2 572.689 55.6387   4
   1   2   2 654.738 61.2227   1
   1  -2   2 530.738 42.9810   8
  -1  -2  -2 559.699 41.8359   8
  -1   2  -2 577.338 31.8478   3
  -1   2  -2 564.416 47.2444   2
  -1   2  -3 3242.84 111.934  10
   1   2   3 3321.84 158.961  15
  -1  -2  -3 2828.07 155.723  16
  -1   2  -3 3286.68 126.136   2
  -1  -2  -3 2956.70 155.384   3
   1  -2   3 3174.53 109.873   7
   1  -2   3 3240.41 125.311  15
   1  -2   3 3322.05 138.938   5
   1  -2   3 3117.14 139.667   4
  -1   2  -3 3270.59 125.872  16
  -1   2  -3 3340.50 142.829  13
   1   2   3 2106.76 137.215   1
   1  -2   3 3276.59 111.834   8
   1  -2   3 3265.43 130.890   1
   1  -2   4 5756.71 209.139   4
   1  -2   4 6024.60 193.096  15
   1  -2   4 5700.20 159.120   7
  -1   2  -4 6226.44 201.169  16
   1  -2   4 6079.54 205.468   5
   1  -2   4 5871.26 210.658   1
  -1   2  -4 6126.83 219.521   2
   1  -2   5 822.860 78.4293  15
   1  -2   5 413.256 43.7156   7
   1  -2   5 357.682 55.1183   5
  -1   2  -5 484.843 70.1650  16
   1  -2   5 855.568 86.1423   4
   1   3  -2 448.764 55.3500  10
  -1  -3   2 757.477 71.4094   7
  -1  -3   2 527.665 61.7323   8
  -1  -3   2 764.471 71.2450   6
   1   3  -1 11915.3 253.709  10
  -1  -3   1 11921.5 261.459   6
  -1  -3   1 11711.0 240.055   3
   1   3  -1 11856.3 245.625  14
  -1  -3   1 11602.0 180.932   2
  -1  -3   1 12039.4 252.223   7
   1   3  -1 11625.7 258.732  11
   1   3  -1 11849.0 180.694   1
  -1  -3   1 11978.5 256.879   8
   1   3   0 191.724 25.9561  15
  -1  -3   0 171.377 24.3323  16
   1   3   0 161.390 22.9517   1
   1   3   0 147.044 27.4396  10
   1   3   0 155.870 19.9565  12
  -1  -3   0 161.552 22.5483   2
  -1  -3   0 180.236 24.1283   5
  -1  -3   0 156.787 27.2652   8
   1   3   0 152.979 29.1609  11
  -1  -3   0 172.283 32.7057   6
  -1  -3   0 172.647 30.4295   3
   1   3   0 166.919 30.4329  14
  -1  -3   0 163.255 28.1727   7
   1   3   1 19.3244 14.3382   9
   1  -3   1 23.0922 11.5552   8
  -1  -3  -1 35.0990 15.8465   2
  -1  -3  -1 26.1741 11.7773   8
   1   3   1 34.9063 11.5291  15
  -1  -3  -1 28.3737 15.3542   6
  -1   3  -1 21.5891 13.4705  13
  -1  -3  -1 25.6206 11.5452  16
  -1   3  -1 11.7845 10.0964  12
  -1  -3  -1 23.7765 11.8225   3
   1  -3   1 20.8822 12.2217   7
   1   3   1 33.1919 14.6459  14
   1  -3   1 14.5969 10.9431   5
  -1  -3  -1 18.6326 6.46128   5
   1  -3   1 28.8950 11.8527   1
  -1   3  -1 27.5174 10.0920   2
  -1   3  -1 20.7651 13.5996   9
   1  -3   1 14.2827 15.2781   4
   1   3   1 29.4688 14.9165   1
  -1  -3  -1 16.0329 12.7096   7
  -1  -3  -2 6.64538 14.6189   6
   1  -3   2 7.23476 12.4157   7
   1   3   2-1.25146 11.6500  15
  -1  -3  -2 19.6284 13.2631  16
  -1  -3  -2 15.1867 6.16243   5
   1  -3   2 9.05525 9.06270  15
  -1  -3  -2 4.98253 11.6356   2
  -1   3  -2 3.11293 8.89074  12
  -1   3  -2 17.6222 18.6243  13
  -1   3  -2 19.9619 15.2021   2
   1  -3   2 3.12853 12.8865   4
   1  -3   2 17.3138 9.58615   1
  -1   3  -2 6.37271 8.86876  16
   1   3   2 14.7281 9.87180   9
   1  -3   2 9.14434 12.5086   8
  -1  -3  -2 12.3559 10.5599   8
  -1   3  -2 16.5635 9.51309   9
   1  -3   2 10.2413 9.21733   5
  -1  -3  -2 8.54861 11.8155   3
   1   3   2 4.77852 9.78537   1
  -1  -3  -2 28.7834 20.4940   7
   1  -3   3 4379.74 108.336   6
  -1   3  -3 4067.11 166.799  13
   1   3   3 2639.41 148.410  15
   1  -3   3 3972.32 145.159   8
  -1   3  -3 3807.21 160.271  12
   1  -3   3 3970.52 148.467   7
  -1  -3  -3 2446.14 158.365   3
   1  -3   3 4091.70 144.097   1
  -1   3  -3 4186.79 140.384   2
  -1   3  -3 4131.66 148.640  10
   1  -3   3 4154.35 138.578  15
   1  -3   3 3975.99 166.601   4
  -1   3  -3 4128.51 138.649  16
   1  -3   3 3942.46 170.729   5
  -1   3  -4 1694.32 119.269  13
   1  -3   4 1577.07 95.9521  15
   1  -3   4 1552.17 60.2963   6
   1  -3   4 1621.60 100.193   8
  -1   3  -4 1586.00 96.3168  16
   1  -3   4 1628.60 99.5779   7
   1  -3   4 1543.65 113.220   4
   1  -3   4 1665.85 118.298   5
  -1   3  -4 1746.29 103.400  10
  -1   3  -4 1695.10 116.771   2
   1  -3   4 1731.79 118.039   1
   1  -3   5 22.6609 7.71470   6
   1  -3   5 28.5633 19.8750  15
   1  -3   5 39.7509 21.7094   7
   1  -3   5 27.7233 20.7721   5
  -1   3  -5 16.2670 14.5175  16
   1  -3   5 46.0991 23.0981   4
  -1  -4   3 185.283 43.7669   6
  -1  -4   3 146.695 41.9029   7
  -1  -4   3 162.878 46.2008   8
  -1  -4   2 7971.68 247.434   7
  -1  -4   2 7488.36 208.060   3
   1   4  -2 7429.88 235.246  10
  -1  -4   2 7443.38 237.080   6
  -1  -4   2 7491.95 141.138   2
   1   4  -2 7684.92 240.218  11
  -1  -4   2 7937.12 248.505   8
   1   4  -1 3948.66 156.864  14
  -1  -4   1 3741.59 146.327   3
  -1  -4   1 3689.64 160.582   6
   1   4  -1 3821.27 164.870  11
   1   4  -1 3639.43 158.139  10
  -1  -4   1 3889.14 160.309   7
   1   4  -1 3707.51 97.7652   1
  -1  -4   1 3746.75 157.816   8
  -1  -4   1 4109.60 152.126   5
  -1  -4   1 3725.31 97.7403   2
  -1  -4   0 1302.38 76.5016   5
   1   4   0 1306.38 66.9608  15
  -1  -4   0 1167.85 84.1543   3
  -1  -4   0 1266.05 65.9839  16
   1   4   0 1259.03 89.2250  14
   1   4   0 1296.29 71.0430  12
   1   4   0 1186.35 95.3191  11
  -1  -4   0 1210.24 88.8907   7
   1  -4   0 668.818 76.0712   5
  -1  -4   0 1185.91 91.0477   6
  -1  -4   0 1374.86 71.8405   2
  -1  -4   0 1173.49 86.6071   8
   1   4   0 1327.88 71.0427   1
   1   4   1 121.053 24.7919  15
  -1  -4  -1 91.9851 27.1253   3
   1  -4   1 111.280 31.0608   8
  -1   4  -1 118.906 20.7599   2
  -1  -4  -1 127.736 27.7467   7
  -1  -4  -1 45.0282 18.2865   2
  -1  -4  -1 96.4907 28.2310   6
  -1   4  -1 88.9768 28.3369  12
   1  -4   1 84.8957 16.2309   1
  -1  -4  -1 112.047 28.4268   8
   1  -4   1 100.154 31.1098   7
  -1   4  -1 87.1831 23.3425  13
  -1  -4  -1 103.502 20.5058  16
   1   4   1 110.255 24.0540   1
   1   4   1 130.944 33.3938   9
  -1   4  -1 98.3168 24.2655   9
   1   4   1 113.000 26.9490  14
   1  -4   1 119.597 30.8702   4
  -1  -4  -1 109.875 19.7917   5
   1  -4   1 95.8449 28.4732   5
   1  -4   2 3305.93 170.537   5
  -1   4  -2 3307.98 164.701  12
   1  -4   2 3451.32 158.279   7
  -1  -4  -2 3491.42 140.366  16
  -1  -4  -2 3858.46 120.772   5
   1  -4   2 3491.48 118.333   1
  -1  -4  -2 3700.40 181.542   3
   1  -4   2 3486.44 158.470   4
  -1  -4  -2 3445.46 154.279   8
  -1   4  -2 3487.22 158.211   9
   1   4   2 3745.38 169.308   9
  -1  -4  -2 3731.85 182.219   6
   1  -4   2 3474.69 156.117   8
  -1  -4  -2 3657.16 179.960   7
  -1   4  -2 3572.02 117.316   2
   1   4   2 3626.18 141.940  15
  -1   4  -2 3457.67 154.903  13
  -1  -4  -3 128.588 38.0356   8
   1  -4   3 737.086 81.6518   5
   1  -4   3 821.382 77.7636   7
   1  -4   3 923.683 69.4563   6
  -1   4  -3 807.615 59.8596  16
  -1  -4  -3 185.405 45.6933   6
  -1   4  -3 772.348 75.6510  13
   1  -4   3 827.168 66.2424   1
  -1   4  -3 794.717 77.3559  10
   1  -4   3 791.265 60.7139  15
  -1   4  -3 785.920 52.9526  11
  -1   4  -3 725.522 76.9737  12
   1  -4   3 772.776 74.3456   8
  -1   4  -3 753.523 60.3203   2
   1  -4   3 823.802 80.5982   4
   1  -4   4 53.5527 20.8310  15
   1  -4   4 49.2719 19.5475   7
   1  -4   4 61.6017 15.3791   6
  -1   4  -4 65.3383 20.0118  16
  -1   4  -4 74.6044 32.8413  13
   1  -4   4 52.2508 23.6280   1
   1  -4   4 54.0999 29.5905   4
  -1   4  -4 50.0569 22.2264  10
   1  -4   4 63.2698 29.1735   5
  -1   4  -4 54.5300 24.2498   2
   1  -4   4 48.7078 17.0504   8
  -1   4  -5-0.91882 16.8733  13
   1  -4   5-13.1505 15.3320   5
  -1   4  -5-2.22845 12.5482  16
   1  -4   5 12.6078 18.0192  15
   1  -4   5 1.54276 11.9077   6
   1  -4   5 33.6429 24.5895   4
  -1   4  -5-16.5861 20.8878  10
   1  -4   5 5.78156 17.5669   8
   1  -4   5-39.8376 24.6414   7
   1  -4   6-1.05909 10.1846   6
   1  -4   6-14.6266 18.7264   5
   1  -4   6-0.60481 13.3943  15
  -1   4  -6-3.82211 13.1269  16
   1  -4   6 17.5679 17.9914   4
   1  -4   6-1.40117 14.9922   7
  -1  -5   3 472.346 55.9658   3
  -1  -5   3 459.529 68.3894   6
  -1  -5   3 504.022 72.5020   7
   1   5  -3 419.449 67.6238  10
  -1  -5   3 439.143 69.7700   8
   1   5  -2 215.613 23.0981  13
  -1  -5   2 224.334 39.4539   3
  -1  -5   2 272.094 52.4961   7
   1   5  -2 212.008 21.1887   1
   1   5  -2 227.514 42.3537  14
  -1  -5   2 211.536 44.9903   8
   1   5  -2 241.575 52.8011  11
  -1  -5   2 174.501 38.9738   5
   1   5  -2 234.055 47.4561  10
  -1  -5   2 253.136 23.3426   2
  -1  -5   2 250.977 50.6882   6
   1   5  -1 57.6384 15.6908   1
  -1  -5   1 102.146 17.3224   2
   1   5  -1 74.2188 21.2818  12
  -1  -5   1 45.6148 24.2351   6
  -1  -5   1 73.1133 24.2212   5
   1   5  -1 60.8486 25.7765  11
  -1  -5   1 51.0862 21.9616   7
   1   5  -1 86.5989 24.2796  14
  -1  -5   1 66.3139 22.6936   3
   1   5  -1 33.3717 23.9872  10
  -1  -5   1 72.7635 26.0840   8
  -1  -5   0 3333.28 164.989   7
  -1  -5   0 2973.59 151.088   8
  -1  -5   0 3541.50 142.274   5
   1   5   0 3361.40 174.598  11
  -1  -5   0 3253.81 152.866   3
   1   5   0 3655.78 165.434  14
   1   5   0 3486.99 171.440   9
  -1  -5   0 3549.71 110.243  16
   1   5   0 3388.81 105.871  15
   1   5   0 3432.64 134.942  12
  -1  -5   0 3268.20 168.105   6
  -1  -5  -1 51.3670 24.6325   8
  -1   5  -1 34.7801 13.9796   2
   1  -5   1 67.4556 30.2776   7
  -1  -5  -1 48.3006 30.8300   6
  -1  -5  -1 48.1560 21.4538   7
   1   5   1 43.9834 25.2415  14
  -1  -5  -1 54.1168 13.5992  16
   1  -5   1 23.4644 21.9753   8
  -1   5  -1 42.1396 26.6366  12
   1  -5   1 45.6286 22.6083   4
  -1  -5  -1 68.0542 27.3405   3
   1   5   1 50.8803 30.9914   9
  -1  -5  -1 72.8468 21.5322   5
  -1   5  -1 41.9360 30.3973   9
   1  -5   1 74.8680 31.7297   5
   1  -5   1 52.6724 16.2190   1
   1   5   1 53.8981 18.9674  15
   1  -5   2 7083.39 258.587   7
  -1  -5  -2 7444.71 210.480  16
   1  -5   2 7253.45 170.180   1
  -1   5  -2 6792.86 225.074  13
   1  -5   2 7028.06 267.839   5
   1  -5   2 6702.71 236.795   4
  -1   5  -2 7145.76 259.915   9
   1   5   2 7149.10 203.842  15
  -1  -5  -2 7442.91 198.442   5
  -1  -5  -2 6498.52 272.009   3
  -1   5  -2 7176.48 165.128   2
  -1  -5  -2 7494.06 287.554   6
   1   5   2 6949.13 257.631   9
   1  -5   2 6950.88 249.421   8
  -1  -5  -2 7141.96 253.485   8
  -1  -5  -2 6667.40 273.998   7
  -1   5  -3-5.39520 21.8146  12
   1  -5   3 21.2425 15.9033   4
   1  -5   3 42.1626 28.9804   7
  -1   5  -3 5.35696 15.5672   2
  -1   5  -3 16.5621 16.4300  13
  -1   5  -3 16.0135 9.40045  16
  -1  -5  -3 17.1665 21.1217   6
  -1   5  -3 16.6988 17.8438   9
  -1   5  -3 21.3361 10.9840  11
   1  -5   3 30.6305 20.6595   5
   1  -5   3 25.9439 21.2841   6
  -1   5  -3 47.0983 22.0018  10
  -1  -5  -3 8.61302 35.0371   8
   1  -5   3 42.6549 23.3117   1
   1  -5   3 19.5744 14.2358   8
   1  -5   4 6213.24 267.791   5
   1  -5   4 6162.82 182.414  15
   1  -5   4 6661.90 199.852   6
  -1   5  -4 6188.01 240.613  10
   1  -5   4 6086.86 242.279   7
   1  -5   4 6185.15 242.571   8
   1  -5   4 5961.47 243.736   4
  -1   5  -5 164.543 71.1942  13
   1  -5   5 466.917 54.9773  15
  -1   5  -5 200.818 54.1507  16
   1  -5   5 424.068 69.1516   4
  -1   5  -5 449.211 68.4671  10
   1  -5   5 432.066 68.1761   7
   1  -5   5 464.533 80.1022   5
   1  -5   5 481.283 72.3427   8
   1  -5   5 456.060 50.8274   6
   1  -5   6 319.125 69.1268   5
  -1   5  -6 81.1818 52.3574  16
  -1   5  -6 124.629 70.8887  13
   1  -5   6 214.282 53.1793   4
   1  -5   6 291.141 38.1148   6
   1  -5   6 332.399 49.3775  15
   1  -5   6 288.698 57.9153   7
  -1   5  -7 1.76776 16.4458  16
   1  -5   7 40.0910 27.7479  15
  -1   5  -7-3.33313 24.2456  13
   1  -5   7 34.8568 15.3803   6
   1  -5   7 19.5402 12.9803   5
   1  -5   7 29.9302 27.3201   7
  -1  -6   4 2327.47 176.786   7
  -1  -6   4 2250.31 162.680   6
  -1  -6   4 2135.39 167.753   8
   1   6  -4 1860.65 153.939  10
  -1  -6   4 2226.32 134.188   3
  -1  -6   3 399.442 68.1640   6
   1   6  -3 367.574 39.3421  13
  -1  -6   3 397.629 70.5986   7
   1   6  -3 368.206 63.8750  11
  -1  -6   3 71.8160 24.5253   5
  -1  -6   3 380.106 52.4211   3
   1   6  -3 334.791 66.3558  10
  -1  -6   3 347.977 63.4017   8
   1   6  -2 363.351 55.1276  12
   1   6  -2 330.688 50.3535  14
  -1  -6   2 397.413 63.8937   5
   1   6  -2 327.382 58.4594  11
  -1  -6   2 330.259 60.2290   6
  -1  -6   2 385.387 54.5623   3
   1   6  -2 363.558 63.9319  10
  -1  -6   2 354.932 62.1921   7
  -1  -6   2 305.052 59.9554   8
  -1  -6   1 1274.81 104.913   5
   1   6  -1 1245.14 115.442  11
  -1  -6   1 1166.62 108.978   6
  -1  -6   1 1196.63 98.4172   3
   1   6  -1 1223.93 94.2644  12
   1   6  -1 1247.72 114.459   9
  -1  -6   1 1138.05 107.748   8
   1   6  -1 1247.00 113.775  10
  -1  -6   1 1185.97 110.943   7
   1   6  -1 1262.68 102.261  14
   1   6   0 1028.49 53.5626  15
  -1  -6   0 1282.65 116.962   7
  -1  -6   0 1053.10 107.482   6
  -1  -6   0 1239.45 105.781   3
  -1  -6   0 1348.39 99.7911   5
   1   6   0 1235.76 91.5935  12
   1   6   0 1371.82 111.583  14
  -1  -6   0 1231.06 109.971   8
  -1  -6   0 848.801 50.6171  16
   1   6   0 1251.97 115.713   9
   1   6   0 1279.70 120.637  11
  -1  -6  -1 64.5275 31.8807   7
  -1   6  -1 91.7003 20.9396   2
   1   6   1 100.171 25.4883  15
  -1  -6  -1 87.0332 35.1602   3
  -1  -6  -1 79.5498 26.8667   5
   1  -6   1 78.4502 31.2313   4
   1   6   1 85.8925 27.1377  14
  -1  -6  -1 90.9882 36.2654   6
  -1   6  -1 60.2365 27.4395   9
   1  -6   1 51.5909 28.6409   7
   1   6   1 71.0434 30.3967   9
   1  -6   1 57.8764 33.7202   8
  -1  -6  -1 97.8482 22.3924  16
  -1  -6  -1 53.8823 30.4363   8
   1  -6   1 156.966 47.5864   5
   1  -6   1 111.014 22.5434   1
  -1  -6  -2 1120.22 125.234   7
   1  -6   2 1653.39 140.125   7
  -1  -6  -2 1653.84 149.079   6
   1  -6   2 1635.91 141.877   5
  -1   6  -2 1511.07 75.1179   2
   1  -6   2 1715.19 85.3175   1
   1   6   2 1653.49 100.515  15
  -1  -6  -2 1688.76 109.480   5
  -1   6  -2 1652.63 138.582   9
   1   6   2 1363.59 125.422   9
  -1  -6  -2 1537.36 97.6447  16
   1  -6   2 1657.48 128.128   4
   1  -6   2 1629.04 134.638   8
  -1  -6  -2 1629.11 139.235   8
   1   6   2 1602.45 132.254  14
  -1   6  -2 1533.15 130.568  12
  -1   6  -3 53.3587 21.0553   2
  -1   6  -3 22.1206 24.6843  10
  -1   6  -3 14.9828 22.8621   9
   1  -6   3 30.6460 23.9343   7
   1  -6   3 25.4634 19.6926   4
  -1   6  -3-15.2971 21.0965  13
  -1   6  -3 66.1946 38.9205  12
   1  -6   3 20.7294 18.9744   6
   1  -6   3-2.67283 17.9679   1
  -1   6  -3 11.0331 16.4066  11
   1  -6   3 9.79907 25.5487   5
   1  -6   3 22.6262 24.6607   8
   1  -6   4 101.302 40.1372   7
  -1   6  -4 97.3031 25.7122  10
   1  -6   4 178.739 41.4343   6
  -1   6  -4 16.1202 15.2233  16
  -1   6  -4 47.0324 47.3042  12
   1  -6   4 126.574 44.5211   5
  -1   6  -4 60.8101 27.7696  11
  -1   6  -4 22.0585 45.9726  13
  -1   6  -4 71.6291 42.7085   9
   1  -6   4 133.296 47.5831   4
   1  -6   4 100.318 37.8710   8
   1  -6   5 361.121 69.3605   7
  -1   6  -5 111.773 77.7513  12
   1  -6   5 335.275 74.0910   5
   1  -6   5 346.548 52.3009   6
   1  -6   5 268.671 58.1699   4
  -1   6  -5 112.592 43.9762  16
  -1   6  -5 76.8663 67.1288  13
  -1   6  -5 179.399 62.9085   9
  -1   6  -5 390.274 71.5432  10
   1  -6   5 352.065 49.0387  15
   1  -6   5 353.323 67.9243   8
   1  -6   6 126.772 46.0495   5
  -1   6  -6 2.97328 37.0207  13
   1  -6   6 111.459 36.9875   4
  -1   6  -6 15.6992 40.1283  12
  -1   6  -6 158.149 51.7087  10
   1  -6   6 134.870 41.9650   7
   1  -6   6 142.915 40.3015  15
   1  -6   6 121.452 42.2157   8
   1  -6   6 132.119 32.3161   6
   1  -6   7 17.4460 21.8617   7
  -1   6  -7 0.62899 29.5379  13
   1  -6   7 73.7262 38.9399   5
   1  -6   7 20.1613 20.4723  15
  -1  -7   4 68.7067 42.4702   7
  -1  -7   4 85.2260 42.7890   6
  -1  -7   4 33.4593 24.9778   3
  -1  -7   4 19.8929 24.1743   8
   1   7  -4-6.40326 35.4711  10
  -1  -7   3 449.123 81.5581   7
  -1  -7   3 461.126 79.1807   6
   1   7  -3 463.170 70.5785  12
   1   7  -3 538.030 87.7394  10
   1   7  -3 427.464 78.3003  11
  -1  -7   3 440.310 62.2518   3
  -1  -7   3 464.632 82.1655   8
  -1  -7   3 269.519 58.6569   5
   1   7  -2 63.4205 29.5000  14
  -1  -7   2 89.5587 39.3013   6
  -1  -7   2 96.6030 35.5536   5
   1   7  -2 50.0898 28.2996  12
   1   7  -2 41.6603 28.6342  10
   1   7  -2 36.0087 30.6341  11
  -1  -7   2 56.6645 27.5090   3
   1   7  -2 105.063 53.7293   9
  -1  -7   2 62.8064 33.5370   7
  -1  -7   2 22.4481 27.7812   8
   1   7  -1 7.35098 23.5595  11
  -1  -7   1 92.0810 25.6222   5
  -1  -7   1 47.2963 33.7152   6
  -1  -7   1 87.0489 35.9368   7
   1   7  -1 81.8200 35.2353  10
   1   7  -1 40.2304 28.6295   9
  -1  -7   1 144.650 43.7871   3
   1   7  -1 57.6851 26.5158  12
  -1  -7   1 32.3030 19.8332   8
   1   7  -1 109.181 34.3213  14
  -1  -7   0 633.726 90.5394   6
   1   7   0 694.914 84.6116  14
  -1  -7   0 721.792 96.6450   7
  -1  -7   0 706.977 93.9137   8
  -1  -7   0 676.726 79.3358   5
   1   7   0 705.497 96.6538  11
   1   7   0 680.985 93.7183   9
  -1  -7   0 812.883 99.6552   3
  -1  -7  -1 98.8149 39.5639   3
   1  -7   1 122.817 44.7051   8
  -1  -7  -1 109.866 47.6076   6
   1  -7   1 141.606 42.3163   4
   1   7   1 95.2210 38.4098  14
  -1  -7  -1 151.125 29.2721  16
  -1  -7  -1 115.754 40.6374   8
  -1  -7  -1 141.110 43.9729   7
  -1  -7  -1 153.928 38.9023   5
   1   7   1 92.1405 40.2610   9
   1  -7   1 116.770 45.7790   5
  -1   7  -1 102.872 44.5615   9
   1  -7   1 62.5271 26.4598   7
  -1  -7  -2 330.348 77.2229   6
   1  -7   2 482.310 83.9488   8
  -1   7  -2 466.654 67.4891  11
   1   7   2 324.698 41.5173  15
   1   7   2 510.493 79.2059  14
  -1   7  -2 465.506 81.4033   9
   1  -7   2 447.707 84.9602   5
  -1  -7  -2 238.589 51.3233   5
   1  -7   2 501.775 79.8244   4
  -1  -7  -2 359.833 49.2243  16
  -1  -7  -2 341.361 72.3578   8
   1  -7   2 467.930 85.0506   7
  -1   7  -2 378.495 72.9080  12
  -1   7  -3 78.4290 63.3990  12
  -1   7  -3 262.367 55.6409  10
   1  -7   3 325.712 73.3726   7
  -1   7  -3 274.081 47.8919  11
  -1   7  -3 275.624 69.0103   9
  -1   7  -3 200.075 42.6171  13
   1  -7   3 312.159 58.2716   4
   1  -7   3 281.694 69.2677   5
   1  -7   3 260.518 58.0223   8
   1  -7   4 192.266 52.5790   4
  -1   7  -4 219.583 41.0718  11
  -1   7  -4 49.6972 46.2898   9
  -1   7  -4 240.131 57.0194  13
   1  -7   4 178.980 47.5743   6
  -1   7  -4 202.625 60.6922  12
   1  -7   4 152.960 46.6867   7
  -1   7  -4 197.889 59.7217  10
   1  -7   4 233.165 73.8041   5
   1  -7   4 172.720 49.2295   8
   1  -7   5 216.227 66.1273   7
  -1   7  -5 203.307 51.7852  13
   1  -7   5 142.470 47.3760   6
  -1   7  -5 115.869 52.2264  10
  -1   7  -5 48.2780 60.7566  12
   1  -7   5 187.308 64.3760   5
  -1   7  -5 159.394 72.0191   9
   1  -7   5 185.642 50.3064   8
   1  -7   5 182.747 57.2159   4
  -1   7  -6 14.3312 32.8458  12
  -1   7  -6 13.2376 49.0136  13
   1  -7   6 148.956 50.9752   8
   1  -7   6 23.6393 20.4425   4
  -1   7  -6 48.7146 43.0459  10
   1  -7   6 120.946 50.6290   7
  -1   7  -6 17.4667 49.5256   9
   1  -7   6 10.9914 28.6976   5
  -1   7  -7 194.570 105.275  13
  -1   7  -7 127.629 105.109  12
   1  -7   7 525.337 86.5636   7
   1  -7   7 716.309 116.715   5
  -1  -8   5 988.324 136.429   8
  -1  -8   5 814.995 109.087   6
  -1  -8   5 893.201 126.344   7
  -1  -8   4 153.945 52.4083   6
  -1  -8   4 89.9182 59.2855   7
   1   8  -4 327.175 87.7376  10
   1   8  -4 162.890 54.1543  12
  -1  -8   4 158.973 37.2354   3
  -1  -8   4 123.507 57.7853   8
  -1  -8   3 1154.22 136.234   7
  -1  -8   3 1121.31 131.340   6
  -1  -8   3 1071.01 100.975   3
  -1  -8   3 916.297 115.045   5
   1   8  -3 1219.48 121.492  12
   1   8  -3 1191.01 134.042  11
  -1  -8   3 1099.24 130.662   8
   1   8  -3 1157.70 133.926  10
   1   8  -3 1165.13 135.888   9
  -1  -8   2 440.593 67.7503   3
   1   8  -2 373.592 66.3263  12
   1   8  -2 425.856 81.3614  11
   1   8  -2 388.108 59.4136  14
  -1  -8   2 410.180 77.3834   7
   1   8  -2 409.714 87.7768  10
  -1  -8   2 450.768 79.3480   5
   1   8  -2 444.758 87.9679   9
  -1  -8   2 447.961 88.8854   6
  -1  -8   2 398.275 77.3737   8
  -1  -8   1 826.935 111.085   8
   1   8  -1 907.571 96.9980  14
  -1  -8   1 1100.97 115.268   3
  -1  -8   1 887.781 116.732   6
   1   8  -1 994.873 100.990  12
  -1  -8   1 1010.94 114.244   5
   1   8  -1 999.431 133.645  11
   1   8  -1 1010.55 127.814  10
   1   8  -1 940.350 119.385   9
  -1  -8   1 977.700 119.307   7
  -1  -8   0 15.3579 33.3549   7
  -1  -8   0-34.5781 47.1650   6
  -1  -8   0-10.5346 27.6875   3
   1   8   0 40.6564 31.9167  11
   1   8   0 10.3659 26.0224  10
  -1  -8   0 18.2613 21.2477   5
   1   8   0-0.10584 26.6852  14
   1   8   0-0.43019 30.6461   9
  -1  -8   0 26.4777 31.1790   8
   1   8   1 123.840 50.6484  11
  -1  -8  -1 137.138 64.9499   7
  -1  -8  -1 155.285 62.6936   6
   1  -8   1 82.8493 43.3706   8
   1  -8   1 74.7103 26.3859   4
  -1  -8  -1 190.610 59.9133   8
   1   8   1 167.337 42.0460  14
  -1  -8  -1 136.899 44.2813   5
   1   8   1 180.455 59.3441   9
   1  -8   1 40.0441 26.3421   5
  -1   8  -2 3.26346 35.3454  12
   1   8   2 0.80206 34.3476  14
  -1  -8  -2-21.0271 42.0948   6
  -1  -8  -2-3.63199 35.2427   8
   1  -8   2 12.7990 26.4894   4
   1  -8   2-12.9633 37.5438   7
  -1   8  -2-19.5206 32.2626  11
   1  -8   2-17.7965 27.6528   8
  -1  -8  -2-40.2424 35.4845   5
  -1   8  -2 8.09014 29.5045   9
   1  -8   2-30.0012 55.9355   5
  -1   8  -3 574.938 108.545  10
  -1   8  -3 365.841 79.9044  12
   1  -8   3 523.747 105.498   7
  -1   8  -3 462.776 74.0000  11
   1  -8   3 503.336 87.3150   4
   1  -8   3 497.345 99.0796   5
  -1   8  -3 362.954 98.9325   9
   1  -8   3 503.623 96.9588   8
   1  -8   4 67.0128 44.7996   7
  -1   8  -4-5.70673 31.7251  12
  -1   8  -4 3.34457 25.5350  13
  -1   8  -4 66.3248 45.7807  10
   1  -8   4-21.3571 56.8040   5
  -1   8  -4 25.0054 55.5520   9
   1  -8   4 85.4020 45.5017   4
   1  -8   4 50.0067 42.7917   8
   1  -8   5 22.6458 27.4937   7
  -1   8  -5 7.79930 41.6609   9
  -1   8  -5 101.434 41.3297  13
  -1   8  -5 33.3185 41.1066  10
  -1   8  -5 27.9321 33.7453  12
   1  -8   5 22.1682 37.0276   4
   1  -8   5 94.6405 48.2029   5
   1  -8   5 129.273 61.0686   8
   1  -8   6 208.763 62.8042   7
  -1   8  -6 192.766 65.8985  13
  -1   8  -6 17.6979 68.8518  12
   1  -8   6 164.589 53.5496   5
  -1   8  -6 25.8835 63.7534   9
   1  -8   6 238.744 70.8191   8
  -1   8  -6 244.891 72.9437  10
   1  -8   6 94.5930 38.4388   4
   1  -8   7 158.322 59.0368   7
  -1   8  -7 9.02323 50.5308   9
  -1   8  -7 30.3801 57.4967  13
  -1   8  -7 59.0714 35.5822  12
   1  -8   7 161.848 62.5586   5
   1  -8   7 94.8792 47.9155   8
  -1  -9   5 168.559 79.2646   7
   1   9  -5 42.7765 26.5411  12
  -1  -9   5 26.8651 34.1601   8
  -1  -9   5 52.9622 31.5393   6
   1   9  -5 83.4124 44.8380  10
  -1  -9   4 339.165 87.0494   8
   1   9  -4 364.728 81.1140  12
  -1  -9   4 276.126 68.2499   6
  -1  -9   4 427.263 100.207   7
   1   9  -4 285.208 86.0325  10
   1   9  -4 356.203 87.2214   9
  -1  -9   3 159.697 58.2548   6
   1   9  -3 173.654 56.0988  12
  -1  -9   3 125.810 51.8075   5
   1   9  -3 231.774 71.6467  11
  -1  -9   3 142.970 63.7750   7
   1   9  -3 111.717 45.4207  10
   1   9  -3 192.155 61.6214   9
  -1  -9   3 172.078 60.7106   8
  -1  -9   2 1130.61 141.640   6
   1   9  -2 1155.68 146.485  10
   1   9  -2 1172.04 126.158  12
  -1  -9   2 1144.06 146.509   7
  -1  -9   2 1306.76 148.103   5
   1   9  -2 1176.93 145.115  11
   1   9  -2 1238.70 151.846   9
  -1  -9   2 1221.31 148.919   8
  -1  -9   1 823.569 129.127   6
  -1  -9   1 752.069 122.526   7
  -1  -9   1 809.348 115.839   5
   1   9  -1 740.751 124.299  11
   1   9  -1 710.137 115.845  10
   1   9  -1 722.028 115.666   9
  -1  -9   1 759.128 117.253   8
  -1  -9   0 1408.06 168.535   6
   1   9   0 1423.31 162.853  11
   1   9   0 1388.16 155.934  10
  -1  -9   0 1500.82 169.040   7
   1   9   0 1317.10 160.183   9
  -1  -9   0 1048.84 133.603   5
  -1  -9   0 1461.76 164.721   8
   1   9   0 1244.58 120.756  14
   1   9   1-10.5497 26.7773  14
  -1  -9  -1-11.4000 38.8067   6
  -1  -9  -1-71.2923 57.3224   5
   1   9   1-52.6439 36.6123  11
  -1  -9  -1 22.6354 34.4097   7
   1   9   1-55.0674 49.7821   9
  -1  -9  -1-41.4609 47.7399   8
   1  -9   2 1052.55 156.026   7
   1  -9   2 1183.62 145.516   4
  -1   9  -2 1072.29 113.179  11
   1  -9   2 1500.71 178.004   5
  -1   9  -2 1215.80 153.651   9
   1  -9   2 1316.53 161.734   8
  -1   9  -3 149.357 54.1187  12
   1  -9   3 136.640 53.3280   4
  -1   9  -3 141.588 42.7731  11
   1  -9   3 219.772 75.1343   7
  -1   9  -3 110.704 50.8518   9
  -1   9  -3 88.1924 50.1703  10
   1  -9   3 179.091 76.7082   5
   1  -9   3 182.344 59.8026   8
   1  -9   4 244.745 80.7879   7
   1  -9   4 286.525 84.3866   4
  -1   9  -4 47.1687 66.0321  12
  -1   9  -4 200.434 73.7889  10
   1  -9   4 113.403 50.3655   5
  -1   9  -4 36.5757 67.2418   9
   1  -9   4 255.324 77.6791   8
   1  -9   5 22.6784 46.8897   7
  -1   9  -5 44.8007 33.0043  13
  -1   9  -5-12.1433 41.8261  12
  -1   9  -5 73.5382 50.6762  10
   1  -9   5 83.4020 55.3694   5
  -1   9  -5 67.4930 57.1542   9
   1  -9   5 18.3859 39.5130   8
   1  -9   5 64.4250 53.9195   4
   1  -9   6 74.6906 39.3283   7
  -1   9  -6 17.6967 37.2078  12
  -1   9  -6 71.9341 50.2097  13
   1  -9   6-21.9053 51.3815   5
  -1   9  -6 49.1544 57.1154  10
  -1   9  -6 107.617 62.7563   9
   1  -9   6 46.2288 48.5084   8
   1  -9   7 206.783 67.3604   7
  -1   9  -7-20.7615 42.0364  13
  -1   9  -7 4.40863 36.9002   9
  -1   9  -7 49.1865 53.4894  12
   1  -9   7 92.3715 31.9271   8
   1  -9   7 232.084 83.4076   5
  -1 -10   5-33.0353 51.9813   7
  -1 -10   5-39.1141 39.6275   6
   1  10  -5-57.9498 30.8880  12
   1  10  -5-52.8042 36.0152  10
   1  10  -5 100.610 58.9934   9
  -1 -10   5-51.2938 43.9334   8
  -1 -10   4 447.848 103.207   7
  -1 -10   4 429.890 100.468   6
   1  10  -4 538.284 105.084  12
   1  10  -4 472.095 108.812  10
   1  10  -4 589.672 126.909   9
  -1 -10   4 466.372 107.689   8
  -1 -10   3 155.851 61.1659   7
   1  10  -3 77.1972 41.8975  12
  -1 -10   3 32.9054 36.9243   6
   1  10  -3 141.910 69.3025  11
  -1 -10   3 63.9662 34.3097   5
   1  10  -3 48.1612 38.6014  10
   1  10  -3 162.456 72.9547   9
  -1 -10   3 99.7702 53.6050   8
   1  10  -2 53.4059 54.3833  11
  -1 -10   2-9.26586 37.5156   6
   1  10  -2 101.295 44.6592   9
  -1 -10   2-26.4917 33.8279   7
   1  10  -2-25.0270 42.9003  10
  -1 -10   2 39.8745 46.3015   5
  -1 -10   2-38.4632 45.0291   8
  -1 -10   1 194.546 67.1111   7
  -1 -10   1 151.911 73.6276   6
   1  10  -1 200.442 70.0309  11
   1  10  -1 80.4507 54.5157  10
  -1 -10   1 76.5657 53.9552   5
   1  10  -1 78.6287 39.3701   9
  -1 -10   1 151.576 62.6875   8
  -1 -10   0 40.3110 48.3904   6
   1  10   0-64.6143 61.4782  11
   1  10   0-20.8703 44.8290  10
   1  10   0-46.6084 52.7589   9
  -1 -10   0-51.9995 50.4334   7
  -1 -10   0-40.2125 60.3658   8
   1  10   1 42.6732 50.1851  11
   1  10   1 35.7167 54.5295  10
  -1 -10  -1 32.8236 66.9696   8
  -1  10  -2 22.0256 40.3536  10
   1 -10   2-31.0315 59.3249   5
   1 -10   2 121.279 66.7893   8
   1 -10   3-67.6091 74.5970   7
  -1  10  -3-9.78539 39.3867  10
   1 -10   3 58.2814 70.4545   5
  -1  10  -3 37.8621 45.1998   9
   1 -10   3 65.9167 53.7688   8
   1 -10   4 44.2637 46.8252   7
  -1  10  -4-34.4768 54.2422  10
   1 -10   4 33.5660 46.8354   8
  -1  10  -4 9.30783 46.4721  12
   1 -10   4 51.0356 42.1041   5
  -1  10  -4 96.9722 65.8380   9
   1 -10   5 516.305 118.945   5
  -1  10  -5 637.650 126.774  10
  -1  10  -5 630.301 128.377   9
   1 -10   5 565.493 126.112   8
   1 -10   5 608.894 133.772   7
  -1  10  -6 43.8763 80.9052  12
   1 -10   6 34.1353 57.2324   7
   1 -10   6 83.8981 54.2162   5
  -1  10  -6 37.8140 38.0691  10
  -1  10  -6 160.845 57.5210   9
   1 -10   6 142.164 71.3397   8
  -1  10  -7 6.55753 49.3711  12
   1 -10   7-17.4409 49.2142   8
   1 -10   7-20.8930 42.5926   5
   1 -10   7 1.45510 41.0138   7
  -1  10  -7 76.1958 58.9272  10
  -1  10  -7 61.7256 47.7834   9
  -1 -11   5 122.714 79.5285   7
   1  11  -5 127.971 50.5619  10
   1  11  -5 204.400 96.3391   9
  -1 -11   5 102.282 47.7251   8
   1  11  -4-52.4739 51.1086  12
  -1 -11   4 11.2449 59.7416   7
  -1 -11   4-19.3622 53.0298   6
   1  11  -4-26.2756 45.4722  10
   1  11  -4 11.7665 53.3174   9
  -1 -11   4-32.8130 38.7594   8
   1  11  -3 115.301 58.3970  10
  -1 -11   3 59.4837 65.7391   7
   1  11  -3-2.10595 42.0864  11
  -1 -11   3 92.4339 68.1138   6
  -1 -11   3 27.2771 36.3396   5
   1  11  -3-31.8278 57.0026   9
  -1 -11   3 185.901 174.208   8
  -1 -11   2 141.846 66.6350   7
   1  11  -2 15.6927 37.6020  11
   1  11  -2 73.0648 61.4592  10
   1  11  -2-14.3799 37.0088   9
  -1 -11   2 51.4294 58.2572   8
  -1 -11   2 14.4469 41.1266   6
  -1 -11   1 61.2994 58.9553   7
  -1 -11   1 103.023 98.4244   6
   1  11  -1 79.4239 60.2254  11
   1  11  -1 34.2272 63.3313  10
   1  11  -1 2.72139 39.2882   9
  -1 -11   1-0.26326 49.8945   8
  -1 -11   0-9.45049 62.6076   7
   1  11   0-43.6992 42.9743  11
   1  11   0 82.3591 74.0470  10
  -1 -11   0-25.5079 57.7717   8
  -1  11  -3 102.722 60.5900  10
   1 -11   3 44.1135 51.6582   5
   1 -11   3 24.2183 56.5145   8
  -1  11  -4-29.7604 59.9724  10
   1 -11   4 82.4060 51.5673   5
  -1  11  -4-33.5927 65.8156   9
   1 -11   4 40.6265 50.7463   8
   1 -11   4 56.7218 69.9460   7
   1 -11   5 122.856 79.3289   7
  -1  11  -5 16.7943 60.1850  12
  -1  11  -5 96.8425 64.0359  10
  -1  11  -5 103.212 70.2260   9
   1 -11   5-56.1969 68.9846   5
   1 -11   5-65.2537 56.9838   8
   1 -11   6 36.2014 47.4577   7
  -1  11  -6 7.58827 41.5486  12
  -1  11  -6 60.5282 81.1811   9
   1 -11   6 132.421 65.6484   8
   1 -11   6-80.0223 68.8195   5
  -1 -12   1-5.00543 60.6456   7
   1  12  -1 132.800 68.8184  11
   1  12  -1 68.8079 53.4325   9
  -1 -12   1 84.6725 72.7353   8
  -2   0  -1 14.3272 10.5407  16
   2   0   1-6.13636 19.0979  15
   2   0   1 14.0882 10.2570   4
   2   0   1 6.77963 10.1403  14
  -2   0  -1 7.74561 9.49885  13
  -2   0  -1-3.14005 7.68270   6
   2   0   1 17.4486 13.3922   1
  -2   0  -1 1.22089 15.1719   2
  -2   0  -1 9.88593 11.1752   3
   2   0   1 6.51325 6.91461   5
   2   0   2 10644.6 256.825  14
  -2   0  -2 10726.0 276.174  16
  -2   0  -2 10831.4 258.963   3
  -2   0  -2 10591.7 187.554   6
   2   0   2 10646.7 275.259  15
  -2   0  -2 10356.8 260.196  13
   2   0   2 10548.3 276.978   1
   2   0   2 10412.2 200.651   5
   2   0   2 10300.5 258.984   4
  -2   0  -2 10869.2 278.824   2
  -2   0  -3 43.2079 30.0330  13
  -2   0  -3 67.5066 22.0001   6
   2   0   3 24.2174 15.1329  11
   2   0   3 67.9683 32.6315  15
   2   0   3 24.3937 25.1553   1
  -2   0  -3 41.6908 19.7502  12
   2   0   3 38.9239 27.0658  14
  -2   0  -3 49.2136 34.1301   2
  -2   0  -3 43.6985 23.6728  16
  -2   0  -3 27.4580 24.2020   3
   2   0   3 15.0321 17.1759   4
   2   0   3 12.8818 13.0444   5
   2   0   4 4702.24 209.603  15
  -2   0  -4 4629.58 200.693  13
   2   0   4 4754.90 194.482  14
  -2   0  -4 4703.33 155.187  12
   2   0   4 4753.50 132.937  11
   2   0   4 4124.54 148.918   5
  -2   0  -4 5116.60 204.226   3
   2   0   4 4664.47 201.356   4
  -2   0  -4 4596.21 201.463   2
   2   0   4 4537.31 212.278   1
  -2   0  -4 4879.31 212.605  16
  -2   0  -5-26.0229 24.0847  16
  -2   0  -5-5.27950 15.9532   3
   2   0   5-11.7210 17.8205   4
  -2   0  -5-24.5861 23.7754   2
  -2   0  -5 5.09464 22.3784  13
   2   0   5 23.4190 28.7409  15
   2   0   5 13.0130 25.1028   1
   2   0   5 2.20517 25.0098  14
   2   0   6 1631.25 142.882  15
  -2   0  -6 1200.95 134.850   2
   2   0   6 1656.27 158.096   1
  -2   0  -6 1301.69 142.111  16
  -2  -1   0 3457.35 151.969  16
   2   1   0 3850.05 159.317  15
  -2  -1   0 3868.89 157.536   2
   2   1   0 3961.47 164.448  14
  -2  -1   0 4034.69 163.376   3
   2   1   0 3842.38 157.648   1
   2   1   0 3330.39 125.760   4
  -2  -1  -1 538.682 60.9958   2
  -2   1  -1 485.802 56.7232   2
   2  -1   1 514.010 61.6193  15
  -2   1  -1 496.713 57.8896  13
  -2   1  -1 538.573 53.5322   3
   2   1   1 578.982 62.8589  14
  -2  -1  -1 597.905 63.2636   3
   2   1   1 503.230 58.6574   1
   2  -1   1 506.337 59.0904   1
  -2  -1  -1 544.230 62.4009  16
  -2  -1  -1 581.544 53.8392   6
   2   1   1 538.776 37.1953   5
   2  -1   1 472.665 52.3020   5
   2   1   1 571.726 63.7405  15
  -2  -1  -1 509.853 53.4029  13
  -2  -1  -1 594.026 35.7076   7
   2   1   1 542.336 54.6135   4
   2  -1   1 495.356 57.9424   4
  -2   1  -1 536.685 62.9810  16
  -2   1  -2-19.7408 22.4727  13
   2  -1   2-21.6254 22.6237  15
   2   1   2-16.3723 17.9656  15
   2  -1   2 14.4231 15.2239   1
   2   1   2 9.33258 9.60779   4
   2   1   2 12.8562 12.7729  14
  -2  -1  -2 3.96538 14.4498  16
  -2  -1  -2 14.4309 17.4674  13
   2  -1   2 3.83066 5.65106   8
  -2  -1  -2-3.63642 10.2749   6
  -2   1  -2-0.43219 6.82156   6
   2  -1   2-16.1666 14.4413   4
   2   1   2-29.2370 18.2150  11
   2  -1   2-9.16818 12.2824  14
  -2  -1  -2-23.4766 20.0365   2
   2   1   2 8.68846 10.4776   1
  -2   1  -2-1.23588 13.9286  16
  -2   1  -2-7.60072 18.0219   2
  -2  -1  -2 6.46481 12.5788   3
   2   1   2-3.21665 7.61708   5
  -2   1  -2 4.27492 9.97439   3
   2  -1   2-10.1006 11.7728   5
   2   1   3 586.489 72.4824   1
   2   1   3 613.233 70.3382  14
   2  -1   3 611.299 72.6697   1
  -2   1  -3 544.683 68.0853  16
   2   1   3 677.606 77.5195  15
  -2  -1  -3 695.225 62.8623   6
  -2  -1  -3 648.288 71.1653   3
  -2  -1  -3 661.434 67.5319  13
  -2   1  -3 564.175 68.8469  13
  -2   1  -3 707.499 65.7745   3
   2  -1   3 621.265 62.9477   5
  -2   1  -3 642.098 63.3198  12
  -2  -1  -3 714.100 49.9951  12
   2  -1   3 645.965 63.4968  14
   2   1   3 664.549 60.1024  11
   2  -1   3 619.682 70.0254  15
  -2  -1  -3 559.406 70.9790  16
   2  -1   3 476.481 31.0654   8
   2   1   3 675.780 68.4513   4
   2  -1   3 665.383 76.9888   4
  -2  -1  -3 529.581 66.8047   2
  -2   1  -3 630.910 70.2347   2
  -2  -1  -4 2795.07 165.711  16
   2   1   4 2933.66 164.729  14
   2   1   4 2939.08 169.165  15
   2  -1   4 2707.90 156.368  15
  -2  -1  -4 2676.75 148.267  13
  -2   1  -4 2759.46 157.763  13
   2  -1   4 2858.77 138.448  14
  -2   1  -4 2827.81 135.500  12
  -2   1  -4 2743.82 160.426  16
   2  -1   4 2812.30 137.261   5
   2  -1   4 2710.27 158.627   1
   2   1   4 2730.01 147.642   4
  -2   1  -4 2977.34 149.688   3
  -2  -1  -4 2642.19 156.457   2
  -2  -1  -4 2687.60 101.005  12
   2  -1   4 2648.17 156.940   4
  -2  -1  -4 2973.12 165.058   3
  -2   1  -4 2677.72 154.959   2
   2   1   4 2739.53 167.162   1
  -2  -1  -5 68.1278 28.9680  16
  -2   1  -5 124.062 46.8740  16
   2  -1   5 101.607 39.5253   1
   2  -1   5 32.9385 22.7825  15
   2  -1   5 70.2147 15.7646   7
   2  -1   5 65.6371 26.1634  14
   2   1   5 84.0650 40.8164  15
  -2   1  -5 74.0360 31.3616   2
  -2  -1  -5 26.0879 24.7698   3
  -2   1  -5 126.758 41.5975  13
   2  -1   5 34.5615 24.3576   4
  -2   1  -5 52.6446 15.5382   9
   2  -1   5 54.3660 11.3482  11
   2  -1   5 77.8514 28.1024   5
   2   1   5 111.066 44.3767   1
  -2  -1  -5 44.9294 28.9946   2
  -2  -1  -6 32.6040 41.0010  16
  -2   1  -6-2.78663 20.4271  16
  -2  -1  -6-40.0510 33.5189   2
   2  -1   6 43.8902 35.6639  15
   2  -1   6 40.6510 23.0647   4
   2  -1   6 47.1673 13.7018   7
   2  -1   6 26.8768 29.1337   1
  -2   1  -6 7.33941 29.7213   2
   2   1   6-6.99211 19.2789   1
   2   1   6 12.4120 22.5279  15
  -2   1  -6 80.7988 41.4521  13
  -2  -2   0 8387.06 233.457   2
  -2  -2   0 8234.27 227.880   6
  -2  -2   0 8710.16 251.881   3
   2   2   0 8320.19 247.647  14
  -2  -2   0 8745.24 196.096   7
   2   2   0 8221.19 234.329  15
  -2  -2   0 8011.22 232.377  16
   2   2   0 8624.63 187.476   4
   2   2   0 8430.13 232.699   1
  -2  -2  -1 1240.84 95.7547   3
  -2  -2  -1 1312.82 88.4683   6
   2   2   1 1284.66 98.2536  14
   2   2   1 1322.80 96.5996  15
  -2  -2  -1 1128.19 69.4170  13
  -2   2  -1 1102.55 89.8647  13
  -2   2  -1 785.486 57.1872   3
  -2  -2  -1 1313.59 97.1184  16
   2   2   1 1249.90 90.1747  11
   2  -2   1 1133.10 85.1470   5
  -2  -2  -1 1183.87 60.5797   7
  -2  -2  -1 1169.47 87.2730   2
  -2   2  -1 1149.34 84.2075   2
   2  -2   1 1188.02 86.2484   1
   2   2   1 1244.61 72.9283   4
   2  -2   1 1129.30 90.6344   4
   2   2   1 1189.08 89.2244   1
   2   2   2 3767.54 169.473  15
  -2   2  -2 3711.59 164.917  16
  -2   2  -2 3794.07 166.472   2
   2   2   2 3597.43 170.566  14
   2   2   2 3694.53 165.927   1
   2  -2   2 3472.38 162.490   1
  -2   2  -2 3424.78 152.465  12
  -2  -2  -2 3771.83 104.784   7
  -2  -2  -2 3779.05 140.053  13
  -2   2  -2 3618.37 174.291  13
  -2  -2  -2 3569.88 172.384   3
  -2  -2  -2 3859.81 155.226   6
   2   2   2 3807.16 158.275  11
   2  -2   2 3737.50 162.949   5
   2   2   2 3800.36 107.639   9
   2  -2   2 3611.72 162.719  15
   2  -2   2 3672.69 118.602   8
   2   2   2 3819.00 140.763   4
  -2  -2  -2 3711.75 163.321   2
   2  -2   2 3649.75 172.094   4
  -2   2  -2 3915.13 131.841   3
  -2  -2  -2 3533.08 165.437  16
   2   2   3 3932.47 181.912  15
   2  -2   3 4037.14 176.625  15
   2   2   3 3806.78 186.232  14
   2  -2   3 4033.74 143.227  14
  -2  -2  -3 4152.00 169.706   6
   2   2   3 4086.12 188.789   1
  -2  -2  -3 3870.19 181.763   3
  -2  -2  -3 3902.18 149.692  13
  -2   2  -3 3871.53 185.399  13
  -2   2  -3 3845.78 167.375  12
   2   2   3 3934.23 166.980  11
   2  -2   3 3997.50 174.411   5
  -2   2  -3 3919.60 118.655  10
   2   2   3 3696.56 93.8982  10
  -2   2  -3 4024.71 141.242   3
   2  -2   3 3929.37 179.166   1
  -2  -2  -3 3533.70 95.7674   8
   2  -2   3 3972.26 117.671   8
   2   2   3 4018.02 160.553   4
  -2  -2  -3 3841.01 176.099   2
   2  -2   3 4013.51 190.377   4
  -2   2  -3 4000.50 175.838   2
  -2  -2  -3 3841.45 178.380  16
  -2   2  -3 3953.94 177.344  16
   2  -2   4 2516.39 154.365   1
   2   2   4 2744.77 167.903  15
   2   2   4 2821.33 171.645  14
  -2   2  -4 2673.58 163.483  13
  -2  -2  -4 2670.71 79.7714  12
   2  -2   4 2527.24 118.452  14
  -2  -2  -4 2567.01 166.811   3
  -2  -2  -4 2835.13 147.569  13
  -2   2  -4 2544.64 144.038  12
  -2   2  -4 2584.09 150.884  16
   2  -2   4 2557.92 145.941   5
  -2  -2  -4 2700.30 167.479  16
  -2   2  -4 3112.36 146.146   3
   2  -2   4 3104.40 130.563   7
   2  -2   4 2520.23 148.445  15
  -2  -2  -4 1541.37 131.089   6
   2  -2   4 2065.09 95.4643   8
  -2  -2  -4 2780.61 168.125   2
  -2  -2  -4 2793.25 85.5930   8
   2  -2   4 2663.57 163.032   4
  -2   2  -4 2723.19 154.233   2
   2   2   4 2803.68 176.394   1
  -2  -2  -5 392.257 80.6143  16
   2  -2   5 418.874 65.6003  15
  -2  -2  -5 372.403 71.1964   2
   2  -2   5 443.068 73.7594   1
   2  -2   5 392.831 68.3679   4
   2   2   5 472.095 77.8411  15
   2  -2   5 447.794 48.6852   7
   2  -2   5 473.496 55.8499  14
  -2   2  -5 429.099 71.5924   2
  -2   2  -5 491.009 68.7044  12
  -2  -2  -5 276.987 70.8805   3
   2  -2   5 408.412 64.6988   5
  -2   2  -5 460.012 69.8041  16
   2   2   5 446.315 78.4106   1
  -2   2  -5 417.178 72.8684  13
  -2  -2  -5 342.878 36.7748   8
   2  -2   6 646.075 71.5703  14
   2  -2   6 663.482 92.2580  15
   2  -2   6 689.063 62.6348   7
   2  -2   6 367.953 60.6025   5
  -2   2  -6 761.421 100.226  13
  -2   2  -6 719.705 100.864   2
   2  -2   6 637.716 89.9262   4
   2  -2   6 681.646 99.3735   1
  -2   2  -6 798.689 99.7232  16
   2  -2   7 1087.53 115.200  15
   2  -2   7 1198.28 80.2739   7
  -2   2  -7 717.550 106.005  13
   2  -2   7 927.100 110.547   4
  -2   2  -7 692.568 101.813  16
   2   3  -1 3075.68 163.103  14
  -2  -3   1 2925.39 155.299   6
   2   3  -1 3010.90 140.624   1
  -2  -3   1 2858.91 154.146   3
  -2  -3   1 2764.89 133.720   2
   2   3   0 469.094 55.6691   1
  -2  -3   0 385.238 56.8512   3
   2   3   0 471.519 60.0220  15
   2   3   0 504.728 67.2511  14
  -2  -3   0 498.449 62.7175   6
   2   3   0 422.187 60.3391  11
  -2  -3   0 441.380 57.2333  16
   2   3   0 433.071 37.0472   4
  -2  -3   0 468.511 50.9354   7
  -2  -3   0 462.930 55.9135   2
   2   3   1 67.5414 15.7878   4
   2   3   1 41.7200 15.5437   1
  -2  -3  -1 60.4758 18.4806   7
   2  -3   1 26.7615 16.9700   4
   2   3   1 68.3870 24.3253  14
  -2   3  -1 48.4604 11.9480  13
  -2  -3  -1 47.7321 18.8381  16
   2   3   1 89.1261 29.5014  15
   2  -3   1 63.8978 18.5418   1
  -2  -3  -1 65.9941 23.6673   6
   2   3   1 52.3716 20.6180  11
  -2  -3  -1 71.3146 21.1638   2
   2   3   1 62.6022 16.3965  10
  -2  -3  -1 38.5542 19.9613   3
  -2   3  -1 27.7050 9.34624   2
   2  -3   1 69.2950 24.2031   5
  -2  -3  -1 68.3769 18.6692   8
  -2   3  -2 524.745 63.0396  16
   2   3   2 550.354 66.8565  15
  -2   3  -2 533.102 69.8784  13
   2  -3   2 525.545 63.4995  15
   2   3   2 541.923 70.5445  14
  -2  -3  -2 567.963 67.2850   6
  -2  -3  -2 541.302 65.5785  16
  -2  -3  -2 563.145 71.3284   3
   2  -3   2 513.596 61.4518   1
  -2   3  -2 588.730 46.0913   3
  -2   3  -2 486.884 63.6940  12
   2   3   2 543.810 67.1171  11
   2  -3   2 531.198 69.3761   5
   2   3   2 610.045 54.9068  10
  -2  -3  -2 568.826 49.8734  13
  -2  -3  -2 624.188 55.6371   7
   2   3   2 528.344 64.1689   1
   2   3   2 602.009 53.4194   9
  -2   3  -2 572.840 63.8604   2
  -2  -3  -2 650.171 57.6311   8
   2   3   2 579.785 52.2602   4
   2  -3   2 532.496 55.0016   8
  -2  -3  -2 573.891 67.0131   2
   2  -3   2 520.447 69.0778   4
  -2   3  -3 0.82722 14.6279  16
   2  -3   3-28.3488 19.9338   4
  -2   3  -3-13.2230 17.8811  13
   2   3   3 19.6872 24.8581   1
  -2  -3  -3 5.01407 9.94799  13
  -2  -3  -3-12.9950 21.1849   2
  -2   3  -3-17.4387 15.7111   3
  -2  -3  -3-6.95111 17.7019  16
   2   3   3 15.7810 32.6063  14
  -2   3  -3 3.12565 16.0215  12
   2   3   3-16.9246 27.2911  11
  -2  -3  -3 31.4373 23.7586   3
   2   3   3 4.90114 13.4847  10
   2   3   3-16.6200 20.2578  15
  -2   3  -3 16.0478 22.8896   2
   2  -3   3-14.5347 25.9867  15
   2  -3   3-20.0864 15.9294   1
   2  -3   3 4.88188 12.9013   5
  -2  -3  -3 6.02620 8.68869   8
   2  -3   3-13.3478 15.7390   8
  -2  -3  -3 12.9095 17.0092   6
   2  -3   4 1622.52 124.225   1
  -2  -3  -4 1471.60 136.970   6
   2   3   4 1691.86 133.782  15
   2  -3   4 1814.69 91.6368  14
   2   3   4 1760.73 145.671  14
  -2  -3  -4 1671.81 139.591   3
   2  -3   4 1535.58 115.971  15
  -2  -3  -4 1871.82 149.283   2
   2  -3   4 1672.63 129.835   5
  -2   3  -4 1650.24 96.2914  10
   2  -3   4 1973.63 122.875   7
   2  -3   4 1624.98 94.4191   8
  -2  -3  -4 1809.00 94.1859   8
   2   3   4 1849.32 150.710   1
   2  -3   4 1518.19 133.199   4
  -2   3  -4 1636.87 120.546   2
  -2  -3  -4 1649.83 135.528  16
  -2   3  -4 1658.02 120.875  16
  -2  -3  -5 99.8173 41.7548  16
  -2   3  -5 127.950 39.4478  16
   2  -3   5 79.3567 28.3392   4
   2  -3   5 117.356 42.3510  15
   2  -3   5 93.6739 24.8116   7
   2  -3   5 136.403 29.0774  14
   2  -3   5 117.564 42.7328   1
  -2  -3  -5-10.6704 15.6782   2
  -2   3  -5 136.081 42.4406   2
   2   3   5 56.5071 32.2418   1
  -2  -3  -5 58.5981 40.2896   3
  -2   3  -5 82.0071 44.2274  12
   2   3   5 91.8792 39.9125  15
  -2   3  -5 103.208 28.0641  13
   2  -3   5 107.702 34.1556   5
  -2  -3  -5 47.5543 18.5650   8
  -2   3  -5 56.6221 28.4008   9
  -2   3  -6 190.857 48.3270  16
   2  -3   6 225.425 59.3912   4
   2  -3   6 215.773 54.4148  15
  -2   3  -6 146.264 54.8632   2
   2  -3   6 147.437 34.5548   7
   2  -3   6 160.204 31.2798  14
  -2   3  -6 183.322 54.8228  13
  -2   3  -6 31.6103 43.6309  12
   2  -3   6 188.278 54.9564   1
   2  -3   6 189.440 51.2065   5
  -2   3  -6 116.962 42.9572   9
   2  -3   7 764.010 71.7274  14
   2  -3   7 644.545 70.1850   7
  -2   3  -7 180.213 108.886  13
   2  -3   7 759.743 94.7583  15
   2  -3   7 131.351 36.8247   5
   2  -3   7 653.031 96.1195   4
  -2   3  -7 84.8562 96.6791  16
  -2  -4   1 158.787 37.4757   6
  -2  -4   1 163.293 39.8676   7
   2   4  -1 185.068 41.9173  11
   2   4  -1 166.154 33.4736   1
   2   4  -1 179.760 42.8013  14
  -2  -4   1 146.770 30.8761   2
  -2  -4   1 149.329 39.4659   3
   2   4  -1 189.894 20.9567   4
  -2  -4   0 1284.40 96.3885  16
   2   4   0 1298.91 95.6459  15
   2   4   0 1341.21 92.1404   1
  -2  -4   0 1412.81 113.570   6
   2   4   0 1344.84 112.127  14
  -2  -4   0 1361.73 111.748   3
   2   4   0 1288.60 110.598  11
   2   4   0 1387.71 105.063  10
  -2  -4   0 1449.88 108.896   8
   2   4   0 1437.53 53.6052   4
  -2  -4   0 1389.41 94.7770   2
  -2  -4   0 1308.09 93.7892   7
   2   4   1 27.7394 14.2367  15
  -2  -4  -1 44.6401 19.2511   7
   2   4   1 19.8542 14.1523   1
  -2  -4  -1 23.4288 17.9219   6
  -2  -4  -1 36.4847 13.0560  16
   2   4   1 18.0248 17.0174  11
   2   4   1 33.8631 26.2953  14
  -2  -4  -1 17.0797 13.8517   2
   2   4   1 13.4657 15.6008  10
  -2  -4  -1 56.4228 27.0901   3
   2   4   1 18.8556 14.3221   9
  -2  -4  -1 45.3874 25.6673   8
   2  -4   2 54.4269 24.9551   4
   2   4   2 93.0634 36.5605  14
  -2  -4  -2 87.6953 31.2187  16
   2  -4   2 96.8738 29.9542   1
  -2  -4  -2 120.603 23.4957  13
  -2  -4  -2 54.1886 20.7361   2
  -2   4  -2 18.4574 34.2830  13
   2  -4   2 61.6783 25.0901   8
  -2  -4  -2 94.8175 33.5022   6
   2   4   2 102.503 31.1421  15
   2   4   2 93.0789 29.0688   1
  -2   4  -2 16.1928 20.7638  12
   2   4   2 40.9228 19.9686  11
  -2  -4  -2 94.2993 27.8564   7
   2   4   2 74.2790 28.0979  10
  -2  -4  -2 80.6991 30.8304   3
  -2   4  -2 111.225 30.6918   2
   2   4   2 52.5440 15.8556   9
  -2   4  -2 68.4315 13.0933   3
   2  -4   2 80.2540 34.2892   5
  -2  -4  -2 75.5413 23.3598   8
   2  -4   3 286.386 64.0219   7
   2   4   3 535.366 72.2826  15
   2  -4   3 540.591 67.4823  15
   2   4   3 556.842 83.0755  14
   2  -4   3 472.011 72.6624   4
  -2  -4  -3 588.161 82.3379   6
  -2   4  -3 410.527 35.2542   3
  -2  -4  -3 519.306 78.3922   3
   2  -4   3 515.729 67.2015   1
  -2  -4  -3 538.092 50.3335  13
  -2   4  -3 137.601 71.7452  13
  -2   4  -3 248.178 72.4002  12
  -2   4  -3 431.530 26.0639  11
   2  -4   3 479.638 74.8054   5
  -2  -4  -3 700.749 88.9866   2
  -2  -4  -3 570.738 62.6448   8
   2  -4   3 460.001 58.3635   8
   2   4   3 600.729 83.5125   1
  -2   4  -3 501.596 63.7387   2
  -2  -4  -3 554.168 74.4118  16
  -2   4  -3 200.019 63.1999  16
   2  -4   4 2471.89 147.420  15
   2   4   4 2818.44 177.019  15
   2   4   4 2829.29 194.274  14
  -2  -4  -4 2825.56 197.295   3
   2  -4   4 3020.59 174.928   7
   2  -4   4 2593.50 172.887   5
   2  -4   4 2691.90 160.472   1
  -2   4  -4 2604.41 138.085  10
   2   4   4 1667.69 156.040   1
   2  -4   4 2369.51 132.046   8
  -2  -4  -4 2767.42 142.156   8
  -2  -4  -4 2170.52 176.041   6
  -2   4  -4 2746.26 156.004   2
   2  -4   4 2497.05 175.982   4
  -2  -4  -4 2889.86 183.937  16
  -2  -4  -5 6.63769 40.2262  16
   2  -4   5 39.3517 29.7476   4
   2   4   5 0.81238 25.5397  15
   2  -4   5 38.7927 28.2608  15
  -2   4  -5 12.8736 31.2894  16
   2  -4   5 6.99353 23.5793   7
  -2   4  -5-2.69001 21.4771   2
  -2   4  -5-8.51661 24.0838  13
  -2   4  -5-2.58563 30.9840  12
  -2   4  -5 17.0692 22.8364  10
   2  -4   5 77.0976 43.9050   5
  -2   4  -5-10.8871 25.9268   9
   2  -4   5 38.0596 25.7686   8
   2  -4   5 2.99289 22.1814   1
  -2  -4  -5-18.6482 28.7259   8
  -2   4  -6 8.63245 44.7340  16
   2  -4   6 191.620 45.5398   7
   2  -4   6 171.333 47.3491   4
   2  -4   6 154.740 42.8182  15
  -2   4  -6 26.2747 53.0195  12
  -2   4  -6 35.5401 61.3863  13
  -2   4  -6 219.503 68.1446   2
   2  -4   6 200.117 61.9160   1
   2  -4   6 192.024 56.2360   5
  -2   4  -6 129.008 53.7539   9
   2  -4   7 192.707 43.7424   7
   2  -4   7 187.698 51.6846  15
  -2   4  -7 34.3333 56.6405  16
  -2   4  -7 32.2852 60.6246  13
  -2   4  -7 60.2303 60.9465  12
   2  -4   7 179.090 51.2244   5
  -2   4  -7 75.8055 51.5242   9
   2  -4   7 238.257 61.4420   4
  -2   4  -8 4.58539 21.9332  16
  -2   4  -8 10.8195 40.9902  13
  -2  -5   2 3769.05 154.659   2
  -2  -5   2 3793.24 213.778   6
   2   5  -2 3785.29 153.611   1
  -2  -5   2 3726.12 199.506   3
  -2  -5   2 3942.67 203.337   7
  -2  -5   1 72.1564 27.4719   7
   2   5  -1 102.916 26.1498  14
  -2  -5   1 104.995 34.9667   6
   2   5  -1 95.4155 40.9213  11
   2   5  -1 78.6110 23.6211   1
   2   5  -1 96.8605 35.1779  10
  -2  -5   1 105.542 30.4014   2
  -2  -5   1 48.2639 23.2265   3
  -2  -5   1 66.8095 28.9305   8
  -2  -5   0 4317.32 173.695  16
  -2  -5   0 4535.66 195.229   7
   2   5   0 4708.39 176.661   1
   2   5   0 4452.09 174.684  15
   2   5   0 4823.80 225.202  14
  -2  -5   0 4663.09 221.758   6
  -2  -5   0 4445.30 210.904   3
   2   5   0 4638.37 131.596  12
   2   5   0 4423.07 218.452  11
   2   5   0 4651.94 209.730  10
  -2  -5   0 4934.91 221.589   8
  -2  -5   0 4610.19 175.557   2
   2   5   1 1088.47 86.4785  15
  -2  -5  -1 1016.45 103.220   6
  -2  -5  -1 1062.98 107.044   3
   2   5   1 1224.46 115.256  14
  -2  -5  -1 1144.09 99.3509   7
   2   5   1 1098.35 110.970  11
   2   5   1 1204.51 105.329  10
   2   5   1 1231.59 103.728   9
  -2  -5  -1 1280.30 107.755   8
  -2  -5  -1 1250.65 102.433   2
   2   5   1 1296.38 103.090   1
  -2  -5  -1 1303.66 103.702  16
  -2  -5  -2 185.791 43.0929   7
   2   5   2 148.230 31.2659  10
  -2  -5  -2 221.244 48.4568   2
   2  -5   2 161.753 43.1008   4
   2   5   2 163.311 51.4559  14
  -2   5  -2 28.9397 38.8869  13
  -2  -5  -2 163.793 42.5901   6
   2   5   2 176.106 44.9589  15
   2   5   2 119.089 39.7388  11
  -2  -5  -2 141.760 45.4750   3
  -2  -5  -2 139.578 37.7228  16
  -2   5  -2 112.297 30.4630   2
   2   5   2 176.332 45.0588   9
   2  -5   2 149.199 44.5423   5
   2   5   2 200.090 44.9947   1
  -2  -5  -2 157.909 40.0502   8
   2  -5   2 142.841 40.5888   8
   2  -5   2 171.694 38.0107   1
   2  -5   3 225.974 58.4806   7
   2   5   3 410.121 65.4036  15
   2  -5   3 392.888 72.4858   4
  -2   5  -3 197.317 69.9144  12
   2   5   3 379.273 73.4907  14
  -2  -5  -3 418.396 41.1991  13
  -2  -5  -3 355.137 67.9709   6
  -2  -5  -3 31.7824 23.5980   2
  -2   5  -3 102.259 64.5759  13
  -2  -5  -3 442.229 67.8465  16
   2   5   3 231.763 56.7522   1
  -2  -5  -3 339.934 70.4789   3
   2  -5   3 337.334 60.2688   1
  -2   5  -3 333.545 56.1740   2
   2  -5   3 345.443 71.4241   5
  -2  -5  -3 422.714 64.4188   8
   2  -5   3 320.085 53.6075   8
  -2  -5  -4 39.9529 32.4971  16
   2  -5   4-14.9115 33.2334   4
  -2   5  -4-6.54608 23.0753  16
   2  -5   4 11.5659 23.1734   7
   2   5   4 14.1609 20.3645  15
   2  -5   4 8.08681 25.0831  15
   2   5   4 34.9634 37.4314  14
  -2  -5  -4 30.2807 19.5390  13
  -2  -5  -4 19.6298 31.8816   6
  -2   5  -4-6.62954 24.2000  13
  -2  -5  -4 57.0475 38.0759   3
  -2   5  -4 1.95950 21.5805  12
  -2   5  -4 3.57163 31.2796   2
   2  -5   4 12.7950 21.6324   1
   2  -5   4 4.82461 21.9898   5
  -2   5  -4 22.6504 34.9693   9
  -2   5  -4 47.2172 23.7512  10
   2  -5   4 30.2886 26.6754   8
  -2  -5  -4 14.2654 20.9700   8
   2  -5   5 295.630 102.741   4
   2  -5   5 55.9808 39.6173   7
  -2   5  -5 105.254 36.3048   2
   2  -5   5 237.917 87.6372   5
   2  -5   5 240.593 72.8011   1
   2  -5   5 138.902 48.3574   8
   2  -5   6 1417.90 133.413   7
   2  -5   6 1422.04 125.080  15
   2  -5   6 1340.47 149.218   5
  -2   5  -6 1079.02 106.193  10
   2  -5   6 1125.40 113.528   8
   2  -5   6 1036.41 134.544   1
   2  -5   6 1360.21 149.136   4
   2  -5   7 24.4345 30.3190   4
  -2   5  -7-3.94996 24.8848  16
   2  -5   7-17.0022 27.7064   7
  -2   5  -7 1.38512 39.4928  13
  -2   5  -7-11.9606 37.4706  12
   2  -5   7 65.6236 51.4057   5
  -2   5  -7 0.91304 46.5941   9
   2  -5   7-60.0640 33.5695  15
  -2   5  -8-11.1334 34.3920  16
   2  -5   8-33.1527 33.0200   7
  -2   5  -8 7.40739 31.7664  13
   2  -5   8 6.14362 28.5684  15
  -2   5  -8 0.97085 38.5674  12
   2  -5   8 3.57622 24.5627   5
   2  -5   8-18.5332 27.7783   4
   2   6  -2 845.147 70.4178   1
  -2  -6   2 836.845 100.410   7
  -2  -6   2 831.347 105.867   6
  -2  -6   2 886.175 100.877   3
   2   6  -2 692.086 97.0251  11
   2   6  -2 510.872 84.2171  10
  -2  -6   2 542.365 84.3889   8
  -2  -6   2 885.530 71.9655   2
  -2  -6   1 443.902 69.8008   7
   2   6  -1 442.420 53.5377   1
   2   6  -1 464.251 77.8645  14
   2   6  -1 433.356 52.5000  12
  -2  -6   1 462.680 78.0129   6
   2   6  -1 439.118 77.4197  11
   2   6  -1 466.740 76.7616  10
  -2  -6   1 407.728 66.8183   3
  -2  -6   1 459.004 54.7081   2
  -2  -6   1 503.537 80.8226   8
  -2  -6   0 185.630 43.3637   7
   2   6   0 155.982 28.9742  12
   2   6   0 164.908 38.6299   1
   2   6   0 144.413 41.5597  14
  -2  -6   0 160.811 37.3690   2
  -2  -6   0 157.473 47.6404   6
   2   6   0 87.1836 39.2753  11
   2   6   0 159.248 49.8179  10
  -2  -6   0 113.126 42.0263   3
   2   6   0 199.345 51.4582   9
  -2  -6   0 127.077 37.2400   8
  -2  -6  -1 174.217 42.1104  16
  -2  -6  -1 120.734 36.4261   7
   2   6   1 154.489 40.8973  15
  -2  -6  -1 147.226 38.4213   2
   2   6   1 118.261 38.1570  14
  -2  -6  -1 108.599 40.7231   6
   2   6   1 99.7374 40.3703  11
  -2  -6  -1 76.9247 29.7852   3
   2   6   1 134.379 38.4230  10
   2   6   1 137.719 37.1832   1
   2   6   1 144.549 48.2495   9
  -2  -6  -1 149.772 45.4127   8
  -2  -6  -2-4.70603 19.8289  16
   2   6   2 48.1114 32.4939  15
   2  -6   2-6.24475 22.1104   4
   2   6   2 35.7704 33.7134  14
  -2  -6  -2 4.91215 32.0163   6
   2   6   2-14.8591 29.3838  11
  -2  -6  -2-11.6196 21.3401   3
   2   6   2 3.18748 21.9414  10
  -2  -6  -2 50.3164 19.8934   7
  -2   6  -2-26.7229 22.8909   2
   2  -6   2 14.5919 16.0015   1
   2   6   2 7.05297 20.3088   9
   2  -6   2-19.6955 28.3153   5
  -2  -6  -2-28.8216 26.1776   8
   2  -6   2-19.2674 18.7842   8
  -2  -6  -3 3.80099 21.1480  16
   2  -6   3 17.0827 30.0226   4
   2   6   3 46.4973 49.1306  14
  -2  -6  -3 10.5407 32.1083   6
   2   6   3 23.3065 32.6197  15
  -2   6  -3 2.78096 23.3944  13
   2  -6   3-13.2081 22.2758   1
  -2  -6  -3 1.47705 36.4869   3
  -2   6  -3 1.76181 30.6383  12
   2   6   3-22.2582 28.9921  11
  -2   6  -3-2.08987 16.4851   2
   2  -6   3-13.1645 28.4182   5
  -2  -6  -3 31.0969 24.8402   8
   2  -6   3-0.92458 19.9041   8
  -2  -6  -4 63.7729 33.6204  16
   2  -6   4 115.726 41.8675   7
   2   6   4 1.95783 30.3376  15
   2  -6   4 134.532 52.4250   4
   2   6   4 29.1416 45.2117  14
  -2  -6  -4 8.94125 22.5880   8
  -2  -6  -4 15.3562 46.9416   6
   2  -6   4 55.2299 24.5281   1
  -2   6  -4 9.37899 30.0396  13
  -2  -6  -4 5.60789 26.5556   3
  -2   6  -4 28.2699 23.4704   2
  -2   6  -4 15.7846 30.8368  12
  -2   6  -4 86.1782 43.6614  10
   2  -6   4 28.2229 29.9949   5
  -2   6  -4 21.2566 50.0050   9
   2  -6   4 69.9074 33.4990   8
   2  -6   5 809.194 89.4052  15
  -2   6  -5 111.940 103.998  13
   2  -6   5 918.115 123.571   7
  -2   6  -5 167.961 103.770  12
   2  -6   5 777.632 118.418   5
  -2   6  -5 800.356 100.010  10
  -2   6  -5 611.212 120.408   9
  -2   6  -5 912.751 109.411   2
   2  -6   5 732.971 94.0427   8
   2  -6   5 1100.32 134.728   1
   2  -6   5 805.357 115.692   4
   2  -6   6 1568.42 152.078   7
   2  -6   6 1633.06 134.540  15
   2  -6   6 1514.29 164.546   5
  -2   6  -6 1472.79 136.517  10
   2  -6   6 1388.66 133.835   8
   2  -6   6 1577.38 167.200   4
   2  -6   7-14.5889 47.8381   4
   2  -6   7-6.23670 27.5701  15
   2  -6   7 90.5870 38.3928   7
  -2   6  -7 54.1213 58.0041  13
  -2   6  -7 41.0365 40.5444  12
   2  -6   7 51.2370 49.6512   5
  -2   6  -7 80.5672 47.4565   9
   2  -6   8 58.1656 45.3505   7
  -2   6  -8 60.5553 105.807  12
   2  -6   8 246.633 74.2345   5
   2  -6   8 83.4365 42.3717  15
  -2   6  -8 121.890 89.2238   9
  -2   6  -8 25.6905 94.1172  13
   2  -6   8 164.552 67.2471   4
  -2  -7   3 5.54612 33.5653   7
  -2  -7   3 16.6884 29.2074   6
  -2  -7   3 15.1501 33.0861   3
  -2  -7   2 211.082 61.7779   7
   2   7  -2 249.668 49.3758  12
  -2  -7   2 172.595 51.5652   6
   2   7  -2 144.168 80.7901  11
   2   7  -2 148.663 66.5809  10
  -2  -7   2 240.698 55.9950   3
  -2  -7   2 198.178 62.3150   8
  -2  -7   1 671.890 97.0869   7
   2   7  -1 710.059 100.727  14
  -2  -7   1 647.906 89.3560   3
  -2  -7   1 684.691 101.648   6
   2   7  -1 674.056 99.6268  11
   2   7  -1 672.506 98.3430  10
   2   7  -1 658.470 98.6711   9
  -2  -7   1 682.820 99.0857   8
  -2  -7   0-10.2400 27.6275   7
   2   7   0 68.5690 42.5089  14
  -2  -7   0-16.1146 36.4246   6
   2   7   0-24.6265 33.8954  11
  -2  -7   0 16.8172 26.3249   3
   2   7   0-58.0005 35.8313  10
   2   7   0 43.1523 38.4965   9
  -2  -7   0-0.38057 32.0254   8
  -2  -7  -1 300.610 56.2817  16
  -2  -7  -1 294.571 62.0211   7
   2   7   1 264.468 61.3771  14
  -2  -7  -1 260.424 63.6169   6
   2   7   1 310.249 73.1269  11
  -2  -7  -1 263.305 63.4598   3
   2   7   1 263.824 68.8110  10
   2   7   1 301.652 61.7321   9
  -2  -7  -1 281.698 65.3142   8
   2  -7   2-13.0837 20.2264   1
  -2  -7  -2 38.6732 30.5830   7
   2   7   2 1.05226 18.9981  15
  -2  -7  -2 9.46135 27.3046  16
   2  -7   2-37.5747 34.1453   4
   2   7   2-25.0329 38.6888  14
  -2  -7  -2-19.0655 33.4435   6
  -2  -7  -2 31.9331 45.9563   3
   2   7   2 15.2018 30.4075  11
   2   7   2 30.3586 25.9753  10
   2   7   2 51.6846 47.5986   9
   2  -7   2-12.3532 34.6117   5
  -2  -7  -2-35.0573 35.4022   8
   2  -7   2 17.2825 26.6757   8
   2   7   3 999.039 105.919  15
  -2  -7  -3 695.892 119.863   3
   2   7   3 1051.51 135.467  11
  -2  -7  -3 1144.97 153.541   6
   2  -7   3 1145.11 144.201   5
  -2  -7  -3 777.819 113.315   8
   2  -7   3 1070.84 116.609   8
   2  -7   3 1130.70 130.899   4
   2   7   3 1119.12 139.735  14
  -2  -7  -3 1060.75 114.734  16
   2  -7   4-58.4500 49.9830   4
   2  -7   4-60.2602 49.8380   7
  -2   7  -4-0.92986 32.9566  12
  -2   7  -4 35.6246 31.6678  10
   2  -7   4 2.01753 35.3007   5
  -2   7  -4 8.93073 26.2946   9
  -2   7  -4 22.4140 21.2758  13
   2  -7   4-25.3962 23.9606   8
   2  -7   5 852.590 126.976   7
  -2   7  -5 184.194 115.884  13
  -2   7  -5 152.499 116.013  12
   2  -7   5 822.678 130.110   5
  -2   7  -5 645.956 99.4105  10
  -2   7  -5 633.544 136.240   9
   2  -7   5 821.179 126.832   4
   2  -7   5 611.414 90.2931   8
   2  -7   6 335.896 88.2705   4
   2  -7   6 246.848 60.8426   7
  -2   7  -6 44.0393 71.6752  13
  -2   7  -6 91.0140 89.1159  12
  -2   7  -6 255.130 58.7927  10
   2  -7   6 293.694 81.9385   5
  -2   7  -6 238.002 94.7110   9
   2  -7   6 301.666 75.8415   8
   2  -7   7 285.372 82.4537   4
  -2   7  -7 40.5722 76.9870  13
  -2   7  -7 50.3839 61.5431  12
   2  -7   7 215.802 69.6451   7
   2  -7   7 201.004 71.2124   5
  -2   7  -7 47.0232 41.8656   9
   2  -7   7 104.269 38.8904   8
  -2   7  -8 24.6415 81.2686  13
  -2   7  -8 15.7005 79.6683  12
   2  -7   8 243.994 75.5811   5
   2  -7   8 64.0725 25.3543   4
   2   8  -3-13.0378 33.5255  12
  -2  -8   3-15.4618 38.2223   6
  -2  -8   3-20.8085 35.1782   3
  -2  -8   3-24.9769 24.0221   8
  -2  -8   3-16.8750 37.6478   7
  -2  -8   2-35.5193 35.7055   7
  -2  -8   2 13.2708 39.3302   6
   2   8  -2-58.9143 50.7843  11
  -2  -8   2-64.4274 48.9167   3
   2   8  -2 1.24611 27.3814  10
   2   8  -2 34.9308 44.8454   9
  -2  -8   2 0.31926 25.2906   8
   2   8  -1 151.177 53.5350  14
  -2  -8   1 140.600 55.1487   7
  -2  -8   1 84.6080 32.0914   6
   2   8  -1 15.9114 32.5804  11
  -2  -8   1 64.4557 39.5301   3
   2   8  -1 100.952 50.2285  10
   2   8  -1 66.7567 31.1939   9
  -2  -8   1 154.872 57.8850   8
  -2  -8   0 14.8174 29.7738   7
   2   8   0-13.7607 47.4439  14
  -2  -8   0 37.4711 31.3304   6
   2   8   0-2.84059 32.4276  11
  -2  -8   0 52.0728 42.9664   3
   2   8   0 55.1189 31.5785  10
   2   8   0 22.9692 35.3212   9
  -2  -8   0-0.45167 22.3300   8
  -2  -8  -1 30.0872 50.8041   7
   2   8   1-17.0837 40.2744  14
  -2  -8  -1 0.84520 32.2189   6
  -2  -8  -1-13.8060 31.4813   3
   2   8   1 77.3688 54.2835  11
   2   8   1 13.9573 32.9789  10
   2   8   1 12.1852 31.6670   9
  -2  -8  -1 17.2225 28.3325   8
  -2  -8  -2 64.9956 31.3707   7
   2   8   2 112.586 57.5255  14
  -2  -8  -2 58.0717 47.4407   6
  -2  -8  -2 56.5411 46.9836   3
   2   8   2 63.4748 39.7626  11
   2   8   2 73.2450 49.1543  10
   2   8   2 47.1485 28.6263   9
  -2  -8  -2 97.8354 48.6084   8
   2   8   3 918.025 135.503  14
  -2  -8  -3 850.214 142.466   6
   2   8   3 1051.11 150.744  11
   2  -8   3 1226.91 154.519   5
   2   8   3 639.846 93.2649  10
   2  -8   3 1234.64 137.646   8
   2  -8   3 1213.44 144.214   4
   2  -8   4 83.1909 51.1159   7
  -2   8  -4-2.82667 19.2871  13
  -2   8  -4 11.3155 28.4757  12
   2  -8   4 82.1386 57.0386   4
  -2   8  -4 3.11230 33.6031  10
   2  -8   4 12.6056 40.2007   5
   2  -8   4-30.9341 30.0987   8
   2  -8   5 26.4638 35.5230   4
   2  -8   5-56.4125 49.7307   7
  -2   8  -5 8.30939 38.2425  13
  -2   8  -5-16.9437 40.1984  12
  -2   8  -5 45.6204 40.9171  10
   2  -8   5 42.0240 37.1311   5
  -2   8  -5 3.65868 56.3541   9
   2  -8   5 60.0728 40.6974   8
   2  -8   6-15.0219 41.5422   4
   2  -8   6 4.67324 41.2055   7
  -2   8  -6-12.0625 48.2545  13
  -2   8  -6 29.7218 63.3120  12
  -2   8  -6-42.6289 45.7519  10
   2  -8   6 64.0758 52.1716   5
  -2   8  -6 63.7965 61.5704   9
   2  -8   6 27.2408 29.3458   8
   2  -8   7 589.811 109.068   7
  -2   8  -7 79.7000 113.144  13
  -2   8  -7 164.029 125.492  12
   2  -8   7 687.486 132.446   5
  -2   8  -7 520.578 93.0255  10
  -2   8  -7 131.705 97.3756   9
   2  -8   7 401.011 74.4662   8
   2  -8   7 638.218 115.644   4
  -2   8  -8 1.95309 39.3511  13
  -2   8  -8 7.13209 51.3598  12
   2  -8   8-46.1094 72.3029   5
  -2  -9   3 22.0933 53.9453   7
  -2  -9   3 15.0208 41.8772   6
  -2  -9   3 14.7205 26.7955   3
   2   9  -3 25.4373 38.1610  10
   2   9  -3-7.96582 31.0521   9
  -2  -9   3 42.1818 45.6483   8
  -2  -9   2 903.890 131.435   7
  -2  -9   2 868.395 120.948   3
  -2  -9   2 733.993 126.284   6
   2   9  -2 849.935 133.624  11
   2   9  -2 819.783 132.133  10
   2   9  -2 815.412 121.872   9
  -2  -9   2 751.686 125.629   8
  -2  -9   1 57.1925 44.7867   7
   2   9  -1 58.8610 44.2838  14
  -2  -9   1-15.7650 30.6727   6
  -2  -9   1 34.9137 39.4991   3
   2   9  -1-40.3833 52.4068  11
   2   9  -1 37.2785 37.5615  10
   2   9  -1 38.3579 41.9085   9
  -2  -9   1 13.5828 28.6688   8
  -2  -9   0 117.441 57.6923   7
   2   9   0 50.2769 37.3280  14
  -2  -9   0 79.8160 49.6388   6
  -2  -9   0 78.6578 48.1147   3
   2   9   0 42.8003 51.5591  11
   2   9   0 38.8476 51.2275  10
   2   9   0 110.545 61.3211   9
  -2  -9   0 24.8772 41.0990   8
  -2  -9  -1 56.0894 55.0026   7
   2   9   1 91.4354 51.3853  14
  -2  -9  -1 9.42656 45.6901   6
  -2  -9  -1 24.4243 30.0297   3
   2   9   1 66.3655 47.5714  11
   2   9   1-10.9723 49.4917  10
   2   9   1 20.4667 48.5350   9
  -2  -9  -1 51.7832 54.5690   8
  -2  -9  -2 29.2027 52.1558   6
   2   9   2 56.2400 34.4546  14
   2   9   2 9.98126 49.1253  11
   2   9   2 59.0705 49.7523  10
  -2  -9  -2 5.53097 42.7392   8
  -2   9  -3 58.9016 32.2737  10
   2  -9   3 101.038 52.8575   5
   2  -9   3 95.2973 45.0333   8
   2  -9   4 32.3242 44.8179   4
  -2   9  -4 71.7337 32.3275  10
   2  -9   4 23.6780 35.2574   5
   2  -9   4 6.48271 43.3110   8
   2  -9   5 8.08983 62.0646   4
   2  -9   5 27.4426 41.3847   7
  -2   9  -5 2.68074 27.7283  13
  -2   9  -5-13.6171 72.4159  12
  -2   9  -5 20.0175 28.8546  10
   2  -9   5-39.4655 53.8385   5
  -2   9  -5-15.8546 44.7470   9
   2  -9   5-35.8669 50.0934   8
   2  -9   6 159.065 70.5188   4
   2  -9   6 89.1195 63.9298   7
  -2   9  -6 0.99708 34.6814  13
  -2   9  -6 7.60932 51.8785  12
  -2   9  -6 33.8036 37.1931  10
   2  -9   6 35.2112 41.8234   5
  -2   9  -6-20.6293 42.9324   9
   2  -9   6 99.7772 53.2934   8
   2  -9   7 255.231 82.6866   7
  -2   9  -7 17.6321 91.1616  13
  -2   9  -7 37.6865 75.8676  12
   2  -9   7 277.331 91.0887   5
  -2   9  -7 284.529 83.5560  10
  -2   9  -7 57.5708 36.4186   9
   2  -9   7 285.723 69.0595   8
   2  -9   7 298.394 87.0110   4
  -2   9  -8 3.53755 48.8082  13
  -2   9  -8-16.0101 52.0923  12
   2  -9   8 45.2978 65.3577   5
  -2 -10   3 18.8890 48.0553   7
  -2 -10   3 79.3858 63.3343   6
   2  10  -3 5.94901 46.3114  10
   2  10  -3 25.0643 46.6258   9
  -2 -10   3 5.35741 33.2570   8
  -2 -10   2 281.670 82.3582   6
  -2 -10   2 364.655 95.9909   7
   2  10  -2 215.989 78.7491  11
   2  10  -2 314.012 101.813  10
   2  10  -2 412.283 103.503   9
  -2 -10   2 388.543 98.6144   8
  -2 -10   1-6.24820 43.2664   7
  -2 -10   1 0.66337 50.9981   6
  -2 -10   1 9.80262 48.4148   3
   2  10  -1-33.0204 54.1789  11
   2  10  -1-18.7263 58.3037  10
   2  10  -1 0.79446 32.7737   9
  -2 -10   1 41.6937 53.8417   8
  -2 -10   0 41.2481 39.2144   7
   2  10   0-64.2771 61.7800  14
  -2 -10   0-19.0134 44.6472   6
  -2 -10   0 16.8129 59.5128   3
   2  10   0-6.14332 42.7666  11
   2  10   0-15.8229 35.4486  10
   2  10   0-35.2552 67.7201   9
  -2 -10   0 17.0096 36.5980   8
  -2 -10  -1 441.251 108.346   7
   2  10   1 538.509 113.178  14
  -2 -10  -1 685.736 140.864   6
   2  10   1 626.297 134.904  11
   2  10   1 614.930 121.157  10
   2  10   1 420.671 88.6632   9
  -2 -10  -1 358.137 104.613   8
  -2 -10  -2 24.4846 35.8539   6
   2  10   2 120.653 71.9466  11
  -2  10  -4-20.2189 28.6431  10
   2 -10   4 69.3360 44.4253   5
   2 -10   4-4.75068 38.1222   8
   2 -10   5 63.8343 52.1118   4
  -2  10  -5 1.53514 39.7931  10
   2 -10   5 111.616 77.0770   5
   2 -10   5 50.1250 53.8076   8
   2 -10   6 5.74032 57.0163   4
   2 -10   6 99.9748 97.6243   7
  -2  10  -6-27.4803 66.2108  12
  -2  10  -6-2.15859 41.9877  10
   2 -10   6 31.6903 61.9940   5
  -2  10  -6 10.7557 77.4177   9
   2 -10   6-44.5098 44.7506   8
  -2 -11   3 134.849 89.8955   7
  -2 -11   3 47.9135 48.2510   6
   2  11  -3-29.8945 64.8787  10
   2  11  -3 92.2076 68.3783   9
  -2 -11   3 46.8577 36.3837   8
  -2 -11   2-30.4797 44.2892   7
  -2 -11   2 5.07353 55.9085   6
   2  11  -2 123.632 95.7993  11
   2  11  -2 32.5231 47.3273  10
   2  11  -2 8.55642 45.6401   9
  -2 -11   2-84.4917 63.4440   8
  -2 -11   1 253.683 97.1455   7
  -2 -11   1 181.349 92.9054   6
   2  11  -1 88.2509 49.9433  11
   2  11  -1 81.3828 41.7307  10
   2  11  -1 137.498 71.1292   9
  -2 -11   1 211.618 89.8779   8
  -2 -11   0 35.4628 49.1861   7
  -2 -11   0 52.1339 77.0757   6
   2  11   0 104.636 84.3523  11
   2  11   0 15.0533 56.1911  10
   2  11   0 44.6584 43.2514   9
  -2 -11   0-130.514 82.7841   8
  -2 -11  -1 59.0761 72.3350   6
   2  11   1 5.87687 42.7343  11
   2  11   1-48.5243 62.0329  10
  -2 -11  -1 11.6084 42.7453   8
  -3   0  -1-19.7813 30.3638  16
   3   0   1-32.0285 39.7925  15
   3   0   1-19.2043 26.1750   4
   3   0   1 2.11983 18.3869   1
  -3   0  -1-42.4467 32.4350   2
  -3   0  -1-3.39107 18.0578   3
   3   0   2 1176.79 113.139  15
   3   0   2 1270.14 112.737  14
   3   0   2 1210.04 115.075   1
  -3   0  -2 1164.27 77.2153   6
  -3   0  -2 985.692 93.9111  13
  -3   0  -2 1185.13 106.112   3
  -3   0  -2 1129.02 111.440  16
   3   0   2 1149.51 81.4973   5
   3   0   2 1254.27 111.050   4
  -3   0  -2 1080.37 108.727   2
  -3   0  -3 0.10988 22.8018  16
   3   0   3 26.1274 25.1941  15
   3   0   3-2.08809 26.6083  14
   3   0   3-12.1024 24.3773   4
  -3   0  -3-9.79395 27.1532  13
  -3   0  -3 5.35859 13.9039   6
  -3   0  -3 13.3868 22.4684   2
  -3   0  -3 28.9748 28.9120   3
   3   0   3 3.50491 17.7440   5
   3   0   3 5.04040 23.0714   1
  -3   0  -4 12.5198 30.3898  16
   3   0   4 50.5533 32.0927   4
   3   0   4 40.6077 35.2713  15
   3   0   4-3.89711 23.7743   1
   3   0   4 7.40834 22.1274  14
  -3   0  -4 21.0571 17.3934   6
  -3   0  -4-40.8918 34.1066  13
  -3   0  -4-21.1599 32.1443   2
  -3   0  -4 27.9841 24.7865   3
   3   0   4 55.5553 26.1886   5
  -3   0  -5 17.9684 24.8289  16
   3   0   5-39.1356 22.1623   4
   3   0   5-32.6743 37.6079  15
   3   0   5 36.3244 28.0338  14
  -3   0  -5 6.78604 23.2246  13
  -3   0  -5 11.2454 31.1334   2
  -3   0  -5 14.9319 27.1951   3
   3   0   5-15.5912 23.2019   5
   3   0   5 5.04471 26.1402   1
  -3   0  -6 2321.84 202.924  16
   3   0   6 2158.86 169.889  14
  -3   0  -6 1457.62 161.718   3
  -3   0  -6 2213.34 188.470  13
  -3   0  -6 1749.95 139.770  12
   3   0   6 1940.49 178.449  15
  -3   0  -6 2301.30 194.792   2
   3   0   6 1865.57 161.037   4
   3   0   6 2076.01 191.989   1
  -3   0  -7 47.7668 56.5360  16
   3   0   7 34.8745 42.1883  15
  -3   0  -7 97.6465 56.4558   2
   3   0   7 81.0010 45.4133  14
  -3   0  -7 17.9030 29.1061  12
   3   0   7-12.7430 32.4027   1
   3   0   7 0.13332 19.2402   4
  -3   0  -7 32.3688 60.1673  13
   3   0   8 135.521 63.7003  15
  -3   0  -8 82.3615 70.5533  13
  -3   0  -8-29.6450 36.6261  16
   3   0   8 209.058 71.4411  14
   3   1   1 4.13543 24.5808  15
   3   1   1 41.7376 24.4828   4
  -3  -1  -1 35.4147 20.8822  16
   3   1   1-13.9725 20.6977  14
  -3  -1  -1 13.0221 14.6919   6
  -3  -1  -1 34.2855 17.7452   2
  -3  -1  -1 37.1102 28.6296   3
   3   1   1 11.5840 9.31748   5
   3   1   1 10.9617 18.6589   1
  -3  -1  -2 250.970 54.2625  16
   3  -1   2 478.940 83.3783  15
   3   1   2 342.404 65.7145  15
   3   1   2 323.253 53.1463   4
   3  -1   2 476.574 74.6282   1
   3   1   2 337.683 61.0615  14
  -3  -1  -2 239.066 45.8097  13
  -3  -1  -2 299.934 46.2179   6
   3   1   2 294.704 35.8632   5
   3  -1   2 418.312 61.5201   5
   3   1   2 295.494 62.2547   1
  -3  -1  -2 293.238 55.5773   2
  -3  -1  -2 323.605 59.4447   3
   3  -1   2 435.945 73.4822   4
  -3   1  -2 565.364 86.1237   2
   3   1   3 3074.60 188.940  15
   3  -1   3 2999.80 185.218  15
   3  -1   3 3093.29 186.744   1
   3   1   3 3291.12 192.457  14
   3   1   3 3198.65 195.775   1
  -3   1  -3 2757.92 94.1068   6
  -3  -1  -3 3085.37 141.651   6
  -3  -1  -3 3019.84 168.694  13
  -3   1  -3 2962.48 178.828  13
  -3  -1  -3 3071.70 182.757   3
  -3   1  -3 2952.99 158.576   3
  -3   1  -3 3003.67 189.160  16
   3   1   3 3316.63 122.986   5
   3  -1   3 3113.38 154.686   5
   3  -1   3 3286.10 177.329  14
   3   1   3 3090.22 170.836   4
   3  -1   3 3045.80 183.559   4
  -3  -1  -3 2919.39 182.010   2
  -3   1  -3 3079.47 183.381   2
  -3  -1  -3 2975.94 184.848  16
  -3  -1  -4 461.068 78.3332  16
  -3   1  -4 443.014 77.7153  16
   3   1   4 467.096 73.8668   4
   3   1   4 490.906 85.3454  15
   3   1   4 456.608 76.6419   1
   3  -1   4 481.670 82.1564  15
   3  -1   4 422.606 71.4020   4
  -3  -1  -4 454.369 56.3937   6
   3   1   4 508.415 82.6074  14
   3  -1   4 489.374 70.8064  14
   3  -1   4 492.006 82.2857   1
  -3  -1  -4 407.795 70.3847  13
  -3   1  -4 397.012 77.0742  13
  -3  -1  -4 419.026 74.9764   2
   3  -1   4 474.207 64.1859   5
  -3   1  -4 475.303 78.0577   2
  -3  -1  -4 450.772 74.2963   3
  -3   1  -4 405.824 63.1434   3
  -3  -1  -5 226.043 62.4155  16
  -3   1  -5 172.061 59.2990  16
   3  -1   5 241.290 55.5437   4
   3   1   5 297.729 74.8642  15
   3  -1   5 358.857 80.6004  15
   3   1   5 275.641 69.1591  14
   3  -1   5 254.658 61.7274  14
  -3  -1  -5 252.618 58.6014  13
  -3   1  -5 269.202 65.8428  13
   3   1   5 257.212 69.4922   1
  -3  -1  -5 243.025 62.5486   2
  -3   1  -5 270.223 71.2356   2
  -3   1  -5 239.381 51.4819  12
  -3   1  -5 244.086 50.1029   3
  -3  -1  -5 274.591 63.7147   3
   3   1   5 242.773 41.8128  11
   3   1   5 199.326 46.8223   4
   3  -1   5 283.780 52.6677   5
   3  -1   5 169.707 56.7346   1
  -3  -1  -6 792.944 119.349  16
  -3   1  -6 662.450 105.435  16
   3  -1   6 744.989 114.941   1
   3   1   6 638.913 109.795  15
   3  -1   6 673.547 101.295  15
   3  -1   6 686.295 91.3873  14
   3   1   6 707.120 102.393  14
  -3  -1  -6 789.436 115.027  13
  -3   1  -6 801.333 121.435  13
  -3   1  -6 679.868 105.908   2
  -3   1  -6 239.615 70.0495   3
  -3   1  -6 720.692 94.3432  12
  -3  -1  -6 518.065 100.010   3
   3   1   6 368.576 48.6424  11
   3  -1   6 215.452 50.4603   5
  -3  -1  -6 800.044 124.887   2
   3  -1   6 683.467 102.187   4
   3   1   6 631.065 109.771   1
   3   1   6 297.455 57.0850   4
  -3  -1  -7 51.0079 53.8947  16
  -3  -1  -7 69.3495 58.3878   2
   3   1   7 47.6198 40.3644  15
   3  -1   7 151.268 71.7115  15
  -3   1  -7 19.0515 38.2785  16
  -3   1  -7-1.12672 39.4518   2
   3   1   7 95.4858 47.3254  14
   3  -1   7 4.84186 32.8712  14
  -3  -1  -7-45.4984 42.2255  13
  -3   1  -7 90.4374 57.9825  13
  -3   1  -7 54.4456 47.8810  12
   3   1   7 62.9581 52.5225   1
   3  -1   7 83.9588 57.1784   1
   3  -1   7 29.7036 23.8470   4
  -3   1  -8-70.5725 62.1763  16
  -3   1  -8 32.2390 42.3439   2
   3  -1   8-9.76108 42.0522  15
   3  -1   8-37.3563 39.2332  14
  -3   1  -8-32.7456 70.4810  13
   3  -1   8-12.7074 23.6174   1
  -3   1  -8-12.2655 36.0798  12
  -3  -2  -1 289.046 33.3528   7
   3   2   1 265.068 58.4289  15
   3   2   1 279.020 57.5507   1
   3   2   1 287.191 48.1015   4
   3   2   1 258.057 54.7368  14
  -3  -2  -1 290.769 51.0448   6
   3   2   1 277.637 28.3241   5
  -3  -2  -1 241.901 55.1684  16
  -3  -2  -1 292.555 61.5348   2
  -3  -2  -1 269.238 56.0112   3
   3  -2   2 43.9194 15.7732   8
  -3  -2  -2 91.8983 40.1514  16
  -3   2  -2 62.1810 28.8997  16
  -3  -2  -2 35.3276 10.5214   7
   3   2   2 53.1897 33.4671  15
   3   2   2 67.6656 24.4757   4
   3  -2   2 39.6548 30.6724  15
   3   2   2 46.7122 33.7208   1
   3   2   2 10.5201 26.3161  14
  -3   2  -2 24.1228 18.0712  13
  -3  -2  -2-13.5607 27.6695  13
   3  -2   2 41.5701 26.8826   1
  -3  -2  -2 66.2829 24.4467   6
   3  -2   2 38.9647 21.3903   4
  -3  -2  -2 43.0232 30.3290   2
  -3  -2  -2 41.2993 31.0348   3
  -3   2  -2 43.9872 28.1448   2
  -3   2  -2 44.4367 22.4846   3
   3  -2   2 32.7982 22.3560   5
   3   2   3 1869.65 146.888   1
   3   2   3 1798.48 146.315  15
   3  -2   3 1917.13 148.279  15
   3  -2   3 1727.07 141.203   1
   3   2   3 1897.19 153.333  14
  -3  -2  -3 1890.80 125.393   6
  -3  -2  -3 1914.94 131.747  13
  -3   2  -3 1721.25 142.013  13
  -3  -2  -3 1801.88 146.669   3
  -3   2  -3 1781.94 114.955   3
   3   2   3 1830.56 129.777  11
   3  -2   3 1778.42 126.871   5
   3   2   3 1992.17 135.100   4
  -3  -2  -3 1823.89 144.791   2
   3  -2   3 1847.40 148.634   4
  -3   2  -3 1943.15 147.452   2
  -3  -2  -3 1748.72 144.421  16
  -3   2  -3 1855.37 145.236  16
   3   2   4 1308.31 131.555  15
   3  -2   4 1278.16 128.702  15
   3  -2   4 1302.73 128.122   1
   3   2   4 1431.03 137.002  14
   3  -2   4 1405.27 115.023  14
  -3  -2  -4 1401.04 115.797   6
  -3  -2  -4 1235.18 126.050   3
  -3   2  -4 1206.57 101.799   3
  -3  -2  -4 1385.40 120.360  13
  -3   2  -4 1210.91 124.533  13
   3   2   4 1313.53 108.793  11
   3  -2   4 1301.45 117.843   5
   3   2   4 1341.59 117.166   4
  -3  -2  -4 1177.20 125.624   2
   3  -2   4 1390.62 137.925   4
  -3   2  -4 1300.42 126.685   2
   3   2   4 1289.90 132.581   1
  -3  -2  -4 1182.97 129.468  16
  -3   2  -4 1279.55 131.783  16
  -3  -2  -5-21.9545 33.2092  16
  -3   2  -5 35.0482 23.7224  16
   3  -2   5-19.4166 30.0140   4
   3   2   5-18.4412 40.0277  15
   3  -2   5-9.58359 35.3580  15
   3   2   5-1.91209 27.7195   1
   3   2   5 1.25628 27.1123  14
   3  -2   5-35.8901 33.3078  14
  -3  -2  -5-22.8697 32.5645   2
  -3  -2  -5-26.0069 21.8336  13
  -3   2  -5-40.6789 40.0722  13
  -3   2  -5-20.0384 23.2553  12
  -3   2  -5-0.90702 26.2096   2
  -3   2  -5-3.21468 19.1710   3
  -3  -2  -5 17.3204 33.6986   3
   3   2   5 22.1672 19.8368  11
   3  -2   5 15.2303 21.7573   5
   3  -2   5 23.1635 27.7871   1
   3   2   5 12.1626 18.8044   4
  -3  -2  -6 103.368 59.2271  16
  -3   2  -6 99.1800 35.9785  16
   3  -2   6 32.0680 34.7333   4
   3   2   6 27.0403 33.0826  15
   3  -2   6 79.1925 52.3538  15
  -3  -2  -6 183.723 65.2343   2
   3  -2   6 61.2498 42.1834   1
   3   2   6 31.9389 47.2635  14
   3  -2   6 56.1677 33.5260  14
  -3   2  -6 46.4385 37.2323   2
  -3  -2  -6 54.3215 32.5015  13
  -3   2  -6 85.6142 36.9106  13
  -3  -2  -6 96.5898 65.6911   3
  -3   2  -6 20.3893 32.8077  12
   3   2   6 53.5548 29.3600  11
   3  -2   6 37.2203 29.6672   5
   3   2   6 116.694 66.7447   1
  -3  -2  -7-8.99474 48.1634  16
   3  -2   7 42.9622 39.4815   4
  -3   2  -7 37.7729 34.0174  16
  -3  -2  -7-29.5034 25.3739   2
   3   2   7-7.59338 58.3087  15
   3  -2   7 31.1306 35.4840  15
  -3   2  -7 38.3866 42.4149   2
   3   2   7-3.03779 47.7277  14
   3  -2   7 41.1370 22.5019  14
  -3  -2  -7-7.66320 35.9415  13
  -3   2  -7 66.5019 41.6802  13
  -3   2  -7 24.9795 39.0803  12
   3   2   7 12.1060 34.7211   1
   3   2   7-5.85552 26.9718  11
   3  -2   7 32.9706 33.9915   1
  -3   2  -8 23.1132 34.2706  16
  -3   2  -8 31.5017 37.5112   2
   3  -2   8 79.4706 51.3546  15
   3  -2   8 94.7140 40.1912  14
  -3   2  -8 87.3498 60.6949  13
   3  -2   8 37.5655 38.8446   1
  -3   2  -8 52.4793 49.1302  12
   3  -2   8 43.5511 33.9373   4
  -3  -3   0 617.830 65.0885   7
   3   3   0 783.017 99.5497  14
   3   3   0 780.747 90.5209   1
  -3  -3   0 699.206 86.4177   6
  -3  -3   0 625.762 89.4303   3
   3   3   0 760.525 70.5395   4
  -3  -3   0 665.933 85.7555   2
  -3  -3  -1 33.8491 28.7695  16
   3   3   1 70.4452 39.6980  15
   3   3   1 87.0022 24.8106   4
  -3  -3  -1 37.5236 16.3475   7
   3   3   1 72.9024 30.2099  14
  -3  -3  -1 84.5354 34.0878   6
   3   3   1 64.5274 31.8554   1
  -3  -3  -1 76.9197 32.3460   2
  -3  -3  -1 36.0492 30.5055   3
  -3  -3  -2 355.062 39.9581   7
   3   3   2 397.844 55.0356   4
   3   3   2 462.269 74.9007  15
   3  -3   2 293.203 59.1921   4
   3   3   2 353.825 69.0994  14
  -3  -3  -2 393.631 71.5207  16
  -3   3  -2 300.298 42.0259   3
  -3   3  -2 258.507 53.5596  13
  -3  -3  -2 353.536 58.8271   6
   3   3   2 428.076 69.7662  11
   3   3   2 408.649 69.8174   1
  -3  -3  -2 422.997 71.9710   2
   3   3   2 343.925 38.1761   9
  -3  -3  -2 432.587 75.5723   3
   3  -3   2 273.157 55.4458   1
  -3   3  -2 315.107 57.5073   2
   3  -3   2 236.479 48.1485   5
  -3   3  -3 884.460 101.644  16
   3   3   3 815.170 101.876   1
   3   3   3 848.484 100.503  15
   3  -3   3 820.896 99.3251  15
   3   3   3 873.665 108.430  14
   3  -3   3 857.021 99.9982   1
  -3  -3  -3 871.260 94.4730   6
  -3  -3  -3 831.238 105.203   3
  -3  -3  -3 891.402 86.3091  13
  -3   3  -3 855.366 101.410  13
  -3   3  -3 802.628 70.9206   3
   3   3   3 942.192 105.498  11
   3  -3   3 781.317 93.8684   5
   3   3   3 917.450 91.0761   4
   3  -3   3 801.379 63.7041   8
  -3  -3  -3 750.365 94.5775   2
   3  -3   3 726.044 97.8235   4
  -3   3  -3 733.199 88.0913   2
  -3  -3  -3 785.725 104.165  16
  -3  -3  -4 504.680 87.6445  16
  -3   3  -4 527.238 82.5815  16
   3   3   4 485.499 85.4245  15
   3  -3   4 541.294 87.2089  15
   3  -3   4 556.045 90.6893   4
   3   3   4 511.814 88.3351  14
  -3  -3  -4 587.535 93.0131   3
  -3   3  -4 478.612 59.7740   3
  -3  -3  -4 546.071 75.4313  13
   3   3   4 525.891 86.9426   1
  -3  -3  -4 518.164 79.9961   6
  -3  -3  -4 555.605 87.8527   2
  -3   3  -4 499.732 83.3339  13
   3  -3   4 471.376 79.9345   1
   3   3   4 499.639 73.7046  11
   3  -3   4 514.548 77.7148   5
  -3   3  -4 487.778 77.2401   2
   3   3   4 233.884 47.6303   4
   3   3   5 1687.76 167.126  15
   3  -3   5 1765.58 154.381  15
   3   3   5 1864.79 180.862  14
  -3  -3  -5 1791.58 174.222   3
  -3  -3  -5 1867.60 145.854  13
  -3   3  -5 1645.65 157.510  13
  -3   3  -5 1689.02 152.544  12
   3   3   5 1821.17 150.147  11
   3  -3   5 1668.46 145.505   5
  -3  -3  -5 1940.07 178.112   2
  -3   3  -5 1749.58 154.419   2
   3  -3   5 1615.62 160.253   4
   3   3   5 1765.53 172.793   1
  -3  -3  -5 1816.91 172.944  16
   3  -3   5 1638.30 156.037   1
  -3  -3  -6-29.7977 45.3650  16
   3  -3   6 71.1061 54.1275   4
  -3  -3  -6 33.6065 46.2615   2
   3   3   6-8.89028 37.9983  15
   3  -3   6 15.2442 39.7721  15
   3  -3   6 79.0998 52.7544   1
   3   3   6 23.7311 41.8380  14
  -3  -3  -6-4.77352 35.2018  13
  -3   3  -6 70.3486 56.1755   2
  -3   3  -6 18.9029 35.8272  13
  -3   3  -6 50.2436 24.2147  16
  -3  -3  -6 49.3121 50.7820   3
  -3   3  -6 23.8845 37.5077  12
   3   3   6 37.1925 28.2590  11
   3   3   6 31.0670 31.7706   1
   3  -3   6 4.68951 26.1762   5
   3  -3   7 2753.86 212.608  15
  -3   3  -7 3117.50 253.111  13
  -3   3  -7 3748.50 264.234  12
   3  -3   7 2358.54 183.071   5
  -3   3  -7 3477.62 267.876   2
   3  -3   7 2887.16 231.604   4
   3  -3   7 3290.48 266.952   1
  -3   3  -7 3084.70 225.882  16
  -3   3  -8 366.048 81.9540  16
  -3   3  -8 31.3289 41.7930   2
   3  -3   8 408.488 86.7001  15
  -3   3  -8 342.710 94.6387  13
   3  -3   8 172.392 83.4848   1
  -3   3  -8 91.8261 36.5684  12
   3  -3   8 429.709 95.2547   4
  -3  -4   0 1144.38 93.7243   7
   3   4   0 1127.44 122.503  14
   3   4   0 1131.80 110.520   1
  -3  -4   0 1169.67 120.883   6
  -3  -4   0 1119.18 120.905   3
   3   4   0 1185.65 78.1834   4
  -3  -4   0 1067.24 107.024   2
  -3  -4  -1 103.904 35.4185  16
   3   4   1 120.961 29.1707   4
   3   4   1 120.819 39.7559  15
  -3  -4  -1 123.655 31.4716   7
   3   4   1 59.1549 23.4370  14
  -3  -4  -1 115.938 40.1327   6
   3   4   1 174.636 49.3485  11
  -3  -4  -1 91.7117 37.3652   2
  -3  -4  -1 70.9994 29.9814   3
   3   4   1 54.0340 26.2787   1
  -3  -4  -2 115.848 39.4735  16
   3   4   2 68.5301 31.1808   1
  -3  -4  -2 102.179 25.8365   7
   3   4   2 82.1299 33.8349  14
   3   4   2 88.7530 35.2598  15
  -3  -4  -2 64.5202 33.5003   6
  -3  -4  -2 102.913 38.2048   2
   3   4   2 30.6093 22.8650  11
  -3  -4  -2 52.6362 30.7819   3
   3   4   2 95.4516 28.3162   9
   3   4   2 82.4199 27.2498   4
  -3  -4  -3 59.1631 34.7869  16
   3   4   3 62.9378 34.9506  15
   3  -4   3 0.12257 24.0310   4
   3   4   3 58.9422 38.9780  14
  -3  -4  -3 44.2461 24.5807  13
  -3   4  -3 7.97462 31.6117  13
  -3  -4  -3 64.0552 37.0006   6
  -3  -4  -3 70.2536 37.3386   2
   3  -4   3 59.0954 31.5433   1
   3   4   3 10.9769 24.3398  11
   3   4   3 53.4643 29.8887   1
  -3  -4  -3 8.04911 26.9869   3
  -3   4  -3-17.8765 30.6230   2
   3  -4   3 76.3867 29.8185   5
   3  -4   3 46.0897 19.7738   8
  -3  -4  -4 365.983 75.1113  16
   3  -4   4 1129.98 130.695   1
   3   4   4 488.719 90.1756  15
   3  -4   4 456.666 89.3660  15
   3   4   4 339.389 75.8112  14
  -3  -4  -4 447.028 82.1517   2
   3   4   4 445.538 89.9539   1
  -3  -4  -4 387.178 77.0080   6
  -3  -4  -4 379.518 58.2164  13
   3   4   4 416.549 78.4273  11
   3  -4   4 1123.95 134.713   5
  -3  -4  -4 408.928 81.4707   3
  -3   4  -4 342.771 66.1212   2
   3  -4   4 1192.36 144.361   4
  -3   4  -4 29.6440 90.9740  16
  -3  -4  -5 127.840 55.3259  16
  -3  -4  -5 98.7984 58.6147   2
  -3   4  -5 27.6623 41.7369  16
   3   4   5 77.1043 49.2359  15
   3  -4   5 109.749 64.8231   4
   3  -4   5 45.6430 37.0977  15
   3   4   5 62.8519 45.9080  14
  -3  -4  -5 97.3410 48.8096   6
  -3  -4  -5 45.7796 27.8927  13
  -3   4  -5 17.8799 55.1727  13
  -3   4  -5 101.141 53.1388   2
  -3   4  -5 31.3162 43.1119  12
  -3  -4  -5 69.5741 48.4216   3
   3   4   5 162.711 62.2328  11
   3   4   5 73.0607 47.8568   1
   3  -4   5 49.0595 36.5188   5
   3  -4   5 83.5276 50.5615   1
  -3  -4  -6 99.3569 39.3641  16
  -3   4  -6 32.1114 72.5939  16
   3  -4   6 308.148 76.4765   4
   3  -4   6 409.304 94.0767   1
   3   4   6 215.092 66.2602  15
   3  -4   6 246.133 69.7879  15
   3   4   6 271.041 89.1822  14
  -3   4  -6 336.664 79.2583   2
  -3  -4  -6 30.3309 31.7131  13
  -3   4  -6 341.526 78.6303  13
  -3  -4  -6 28.3828 46.8473   3
  -3   4  -6 32.0009 77.0722  12
   3   4   6 186.001 60.0848  11
   3  -4   6 313.641 75.0644   5
  -3   4  -7 339.462 76.6272  16
   3  -4   7 236.865 63.3993   4
   3  -4   7 325.474 79.4471  15
  -3   4  -7 309.282 80.1001   2
  -3   4  -7 42.3040 82.7636  13
  -3   4  -7 93.0354 99.3638  12
   3  -4   7 154.338 54.9764   5
   3  -4   7 313.867 90.4620   1
   3  -4   8 598.066 99.5687  15
  -3   4  -8 559.089 103.295  16
  -3   4  -8 66.5369 41.6144   2
  -3   4  -8 107.973 128.491  13
  -3   4  -8 143.532 121.034  12
   3  -4   8 203.521 61.8471   5
   3  -4   8 745.132 132.093   4
  -3   4  -9 9.31375 68.7179  13
  -3  -5   1 254.315 49.7496   7
  -3  -5   1 294.368 67.1923   6
  -3  -5   1 212.347 52.2013   2
  -3  -5   1 288.607 72.7426   3
   3   5  -1 251.320 51.2264   1
  -3  -5   0 302.567 53.9956   7
   3   5   0 276.989 68.4956  14
  -3  -5   0 319.617 65.8889   6
  -3  -5   0 300.649 61.8875   2
  -3  -5   0 308.374 68.2055   3
   3   5   0 250.328 54.0969   1
  -3  -5  -1 19.7170 23.6275  16
   3   5   1 80.9003 33.6762  15
  -3  -5  -1 108.262 35.5808   7
   3   5   1 51.3718 26.5470   1
   3   5   1 117.001 47.9822  14
  -3  -5  -1 75.2093 32.5281   6
  -3  -5  -1 38.5570 23.4681   2
   3   5   1 79.9420 39.6497  11
  -3  -5  -1 102.409 43.3005   3
   3   5   1 46.3858 23.6672   9
  -3  -5  -2 2952.58 157.421   7
   3   5   2 2800.25 184.656  15
   3   5   2 2878.37 208.592  14
  -3  -5  -2 2803.00 192.532   6
  -3  -5  -2 2806.16 202.599   3
   3   5   2 2908.32 203.926  11
   3   5   2 2842.84 156.202   9
  -3  -5  -2 3046.38 192.105   2
   3   5   2 3053.99 193.746   1
  -3  -5  -2 2856.40 189.279  16
   3   5   3 142.874 53.4734   1
   3   5   3 104.128 33.9472  15
   3  -5   3 94.9316 35.6448   1
   3  -5   3 102.972 44.4154   4
   3   5   3 122.076 50.8019  14
  -3  -5  -3 171.305 60.8430   2
  -3  -5  -3 104.989 50.5493   6
  -3   5  -3 1.66069 40.5833  13
  -3  -5  -3 117.713 46.0154  16
   3   5   3 135.881 50.6094  11
  -3  -5  -3 130.907 52.3128   3
  -3   5  -3 84.1267 37.1704   2
   3  -5   3 57.8990 29.9584   5
   3  -5   3 81.3311 32.0113   8
  -3  -5  -4 39.1274 25.3403  16
   3   5   4-21.2866 29.0243  15
   3  -5   4 16.9728 30.7650   4
  -3  -5  -4-33.6324 56.0316   2
   3   5   4-6.61337 33.3179  14
   3  -5   4 17.0581 33.4592   1
  -3  -5  -4-3.34194 30.5708   6
  -3   5  -4-10.4326 30.4337  13
  -3  -5  -4-3.27240 30.9117   3
   3   5   4 74.6685 49.0938  11
  -3   5  -4 12.7628 23.0717   2
   3   5   4 24.5472 28.6875   1
   3  -5   4-18.9831 27.8533   5
  -3  -5  -5 713.952 119.217  16
  -3  -5  -5-16.7385 48.3467   2
  -3   5  -5 118.145 87.9178  16
   3   5   5 705.963 108.999  15
   3  -5   5 688.918 115.060   4
   3  -5   5 718.333 99.7215  15
   3   5   5 697.727 122.660  14
  -3   5  -5 88.0282 116.783  13
  -3   5  -5 202.819 114.167  12
   3   5   5 300.499 76.2368   1
  -3   5  -5 658.979 93.6313   2
  -3  -5  -5 515.085 102.304   3
   3   5   5 664.159 109.674  11
   3  -5   5 711.298 107.812   5
   3  -5   5 837.180 118.738   1
   3   5   6 1174.98 160.292  15
   3  -5   6 2991.84 211.786  15
   3   5   6 1349.67 177.567  14
   3  -5   6 2991.52 228.808   5
  -3   5  -6 3274.68 231.114   2
   3  -5   6 3081.39 246.172   4
   3  -5   6 3654.12 269.649   1
   3  -5   7 39.4561 52.4090   4
  -3   5  -7 3.23797 36.8855  16
  -3   5  -7 34.0953 52.4738   2
   3  -5   7 93.8971 67.0982  15
  -3   5  -7 19.2461 37.8901  13
  -3   5  -7 19.1808 41.1426  12
   3  -5   7-26.4424 52.1247   1
   3  -5   7 15.8868 33.9179   5
  -3   5  -8-4.01908 34.3087  16
   3  -5   8 47.5217 34.7252  15
  -3   5  -8 6.72734 56.4718  13
  -3   5  -8 4.77902 44.6218  12
   3  -5   8-15.3447 29.3775   5
   3  -5   8-14.9984 42.4418   4
  -3   5  -9-50.9979 36.1495  13
  -3   5  -9 19.1984 62.9863  12
   3  -5   9-26.4474 32.4991   4
  -3  -6   1 82.3130 36.8218   7
   3   6  -1-1.66657 36.6730  14
  -3  -6   1 23.1622 30.9510   6
  -3  -6   1 34.9290 28.5772   2
  -3  -6   1 17.6349 36.2638   3
   3   6  -1 27.0046 21.1873   1
   3   6   0 195.949 49.2871   1
  -3  -6   0 180.599 45.3000   7
   3   6   0 251.667 67.6840  14
  -3  -6   0 148.854 56.8548   6
  -3  -6   0 200.180 54.8414   2
   3   6   0 236.525 71.5250  11
  -3  -6   0 258.797 72.2037   3
   3   6   0 210.883 54.8696   9
  -3  -6  -1 878.435 106.107  16
  -3  -6  -1 967.452 103.790   7
   3   6   1 852.777 104.577  15
   3   6   1 952.280 124.341  14
  -3  -6  -1 929.149 124.078   6
  -3  -6  -1 959.585 124.352   3
   3   6   1 946.492 127.285  11
   3   6   1 908.957 105.300   9
  -3  -6  -1 960.282 113.325   2
   3   6   1 972.823 113.602   1
  -3  -6  -2 1204.77 117.391   7
   3   6   2 1156.91 120.706  15
   3   6   2 1185.02 142.428  14
  -3  -6  -2 1255.61 139.160   6
  -3  -6  -2 1086.70 132.922   3
   3   6   2 1372.75 157.173  11
   3   6   2 613.528 84.6417  10
   3   6   2 1247.81 120.547   9
  -3  -6  -2 1557.19 155.796   2
  -3  -6  -2 402.288 79.3997   8
   3   6   2 1366.97 141.782   1
  -3  -6  -2 1327.34 133.284  16
  -3  -6  -3 48.3442 40.6911  16
   3   6   3 90.8015 45.3052  15
  -3  -6  -3 18.1317 30.6901   2
   3  -6   3 17.0260 23.6759   4
   3   6   3 22.4370 30.9681  14
  -3  -6  -3 63.3976 44.4467   6
   3   6   3 38.4751 44.7254  11
  -3  -6  -3 25.8906 31.6082   3
   3   6   3 121.481 49.8685   1
  -3  -6  -4 26.0366 51.8197   2
   3  -6   4 455.932 82.0330   1
   3   6   4 451.438 89.4988  15
   3  -6   4 447.831 90.7815   4
  -3  -6  -4 507.450 93.5081  16
   3   6   4 494.447 103.022  14
  -3  -6  -4 465.348 102.183   6
   3   6   4 222.389 67.7365   1
  -3   6  -4 71.7264 81.2889  13
  -3  -6  -4 564.940 111.647   3
   3   6   4 589.968 107.921  11
  -3   6  -4 307.078 60.5889   2
   3  -6   4 394.677 81.5117   5
  -3  -6  -5 63.1067 49.4920  16
   3   6   5 207.510 71.5098  15
   3  -6   5 81.0315 40.6227   4
   3   6   5 125.832 45.2672  14
  -3   6  -5 17.3383 58.0946  13
   3  -6   5 254.912 69.4285   1
  -3   6  -5 116.490 36.0590   2
  -3  -6  -5 62.5384 56.8986   3
  -3   6  -5 24.9942 69.6998  12
   3   6   5 92.1452 49.4411  11
   3  -6   5 183.189 57.2229   5
  -3   6  -6 21.6955 39.9440  16
   3  -6   6 77.6017 61.5144   4
   3  -6   6 152.575 58.4329  15
  -3   6  -6 122.159 46.1499   2
  -3   6  -6 7.54420 53.1099  13
  -3   6  -6 22.2343 71.4805  12
   3  -6   6 117.615 53.9304   5
   3  -6   7 21.1663 36.2941   4
   3  -6   7-10.6985 48.1000  15
  -3   6  -7-50.5464 41.0117  13
  -3   6  -7-9.47808 62.9072  12
   3  -6   7 43.3524 33.3764   1
   3  -6   7 34.5276 36.3395   5
   3  -6   8-49.4141 56.0303  15
  -3   6  -8-30.0404 50.7822  13
  -3   6  -8-26.2513 71.8874  12
   3  -6   8-17.3926 29.9481   5
   3  -6   8 22.4652 33.9845   4
  -3   6  -9-3.17201 36.4408  13
  -3   6  -9 10.2900 47.7697  12
   3  -6   9 24.1232 44.4070   4
  -3  -7   1 365.430 77.5527   7
   3   7  -1 368.183 80.3123  14
  -3  -7   1 408.014 95.6828   6
  -3  -7   1 425.976 92.7121   3
  -3  -7   0 38.9475 34.4526   7
   3   7   0 28.5676 46.0078  14
  -3  -7   0 31.7886 31.5567   2
  -3  -7   0 35.8604 30.3084   6
   3   7   0 87.7317 51.5393  11
  -3  -7   0 71.7353 53.4370   3
   3   7   0-8.53535 24.0646   9
  -3  -7  -1 300.013 66.0106   7
  -3  -7  -1 376.229 74.1433   2
   3   7   1 344.208 88.8519  14
  -3  -7  -1 271.802 78.9913   6
   3   7   1 193.531 73.9172  11
  -3  -7  -1 271.782 73.9272   3
   3   7   1 240.562 63.1412   9
  -3  -7  -1 190.608 68.0454   8
   3   7   2 721.298 101.902  15
  -3  -7  -2 453.508 103.572   2
   3   7   2 876.063 127.900  14
  -3  -7  -2 612.895 114.538   6
   3   7   2 712.049 120.584  11
  -3  -7  -2 743.914 112.797   3
   3   7   2 592.990 100.745  10
   3   7   2 721.675 110.476   1
  -3  -7  -2 427.917 94.6460   8
  -3  -7  -2 935.491 121.639  16
   3   7   3 743.038 104.759  15
   3   7   3 757.733 127.380  14
  -3  -7  -3 774.045 137.877   6
  -3  -7  -3 749.867 129.686   3
   3   7   3 882.056 135.111  11
  -3  -7  -3 826.858 118.546  16
  -3  -7  -4 381.490 90.1570  16
   3   7   4 683.711 110.140  15
   3  -7   4 583.246 105.565   4
   3   7   4 687.301 123.991  14
  -3  -7  -4 692.769 133.526   6
  -3  -7  -4 572.686 117.124   3
   3   7   4 640.125 125.576  11
  -3   7  -4 397.447 78.8676  10
   3  -7   4 620.717 107.820   5
   3  -7   5 142.301 83.1973   4
   3   7   5-12.9963 56.9717  14
  -3   7  -5 136.398 98.3996  13
   3   7   5 106.290 71.2001  11
   3  -7   5 72.2435 64.9548   5
   3  -7   6 86.9988 61.2815   4
  -3   7  -6 1.10524 70.6705  13
  -3   7  -6 0.61437 38.5773  12
   3  -7   6 117.009 47.5502   5
  -3   7  -7 16.6569 49.6767  13
  -3   7  -7 7.80491 70.4538  12
   3  -7   7-13.4891 35.8876   4
   3  -7   7 172.450 80.4325   5
  -3   7  -8 47.1501 49.8689  13
  -3   7  -8-8.47300 53.1712  12
   3  -7   8 65.1771 31.9533   5
   3  -7   8 146.650 87.9221   4
  -3   7  -9 16.8152 42.6093  13
  -3   7  -9 21.1999 43.3365  12
   3  -7   9 51.0572 36.7970   5
   3  -7   9 23.8701 56.2699   4
  -3  -8   1 1302.38 149.603   7
  -3  -8   1 1502.07 174.428   6
  -3  -8   1 1323.09 157.614   3
   3   8  -1 1294.40 148.886   9
  -3  -8   0 132.950 56.3361   7
   3   8   0 13.4998 48.2451  14
  -3  -8   0 94.9292 53.3233   6
   3   8   0 151.999 67.6846  11
  -3  -8   0 85.2386 52.8169   3
   3   8   0 79.7636 48.0938   9
  -3  -8  -1-34.5246 40.0416   7
   3   8   1 32.4510 57.0326  14
  -3  -8  -1-11.5782 41.0588   6
   3   8   1-57.1308 58.5394  11
  -3  -8  -1 23.1245 36.2715   3
   3   8   1-7.29347 52.6531  10
   3   8   1-4.11068 34.9464   9
  -3  -8  -1-28.8633 35.6561   8
   3   8   2 5.36341 47.0364  14
  -3  -8  -2 65.1808 60.9536   6
  -3  -8  -2 91.8453 55.0460   3
   3   8   2-8.75080 45.4232  11
   3   8   2 34.3981 41.9347  10
  -3  -8  -2 7.43010 45.5142   8
   3   8   3 403.971 106.972  14
  -3  -8  -3 392.265 107.726   6
  -3  -8  -3 364.153 99.1977   3
   3   8   3 272.563 86.9823  11
   3   8   4-3.81481 55.9494  14
  -3  -8  -4 80.0523 57.4122   6
  -3  -8  -4 21.0793 50.5920   3
   3   8   4-34.6834 62.2153  11
   3  -8   5 262.500 84.1537   4
   3  -8   5 122.236 58.8873   5
   3  -8   6 64.1324 55.9721   4
  -3   8  -6 12.3095 36.1141  13
   3  -8   6 94.6565 59.4815   5
   3  -8   7 233.339 92.0896   4
  -3   8  -7 3.26222 44.1421  13
  -3   8  -7 25.6907 93.3990  12
   3  -8   7 144.952 68.0050   5
  -3  -9   2 115.825 79.6047   6
  -3  -9   1-28.5223 48.4612   7
  -3  -9   1 80.4204 65.7943   6
  -3  -9   1-61.4559 65.0923   3
   3   9  -1 15.3782 36.0418   9
  -3  -9   0 0.55396 43.8663   7
   3   9   0-39.1021 55.6275  14
  -3  -9   0 62.6331 51.5561   6
   3   9   0 49.8928 45.1520  11
  -3  -9   0 69.0968 66.1826   3
   3   9   0-7.99944 46.6820   9
  -3  -9   0-63.5234 73.3279   8
  -3  -9  -1-22.8736 33.0268   7
   3   9   1-44.8451 50.1709  14
  -3  -9  -1-63.1654 53.1539   6
  -3  -9  -1 54.6632 71.2356   3
   3   9   1 36.0086 56.6069  11
   3   9   1-2.66227 45.9240  10
   3   9   1-41.2222 41.0015   9
  -3  -9  -1 10.8949 50.1030   8
   3   9   2 20.8207 45.5473  14
  -3  -9  -2 50.9481 57.9396   6
  -3  -9  -2 24.8241 42.3041   3
   3   9   2 63.5199 50.1403  11
   3   9   2 101.553 37.4000  10
   3   9   3 339.869 87.8872  14
  -3  -9  -3 374.227 103.741   6
  -3  -9  -3 162.028 86.3942   3
   3   9   3 485.425 121.037  11
   3  -9   6 132.541 74.6008   4
   3  -9   6-0.96758 52.3532   5
  -3 -10   2 8.33049 61.3464   6
  -3 -10   1 82.4613 42.1355   7
  -3 -10   1 58.1324 64.7832   6
  -3 -10   1 93.0232 57.2291   3
   3  10  -1 34.5012 37.9477   9
  -3 -10   0 16.3252 57.0950   7
   3  10   0 46.6665 34.6861  14
  -3 -10   0 87.5730 80.9481   6
  -3 -10   0 3.28292 40.3760   3
   3  10   0 16.7761 59.6784  11
   3  10   0-12.4008 33.4916   9
  -3 -10   0 0.96311 39.6268   8
   3  10   1 57.8837 64.1612  14
  -3 -10  -1-10.2226 57.7999   6
  -3 -10  -1-70.1302 72.0130   3
   3  10   1 36.1161 54.2887  11
   3  10   1 55.1799 43.5716  10
   3  10   2-7.28939 52.0119  14
  -3 -10  -2 44.6713 50.3480   6
  -3 -10  -2 63.0849 55.1922   3
   3  10   2-20.6573 58.4644  11
  -3 -10  -3-47.9232 81.2248   6
   3  10   3 77.8216 76.2955  11
  -4   0  -3-82.8140 48.8600  16
   4   0   3-58.6500 41.9821  15
   4   0   3 0.65984 25.3828   4
  -4   0  -3-23.0312 36.4102   2
  -4   0  -3 27.0684 22.8890   3
   4   0   3-65.9690 44.3184   1
   4   0   4 1283.47 149.628   1
   4   0   4 1240.62 145.427  15
   4   0   4 1432.86 145.520  14
  -4   0  -4 1208.17 125.397   3
  -4   0  -4 1189.86 126.708  13
   4   0   4 1387.25 148.258   4
  -4   0  -4 1356.48 148.568   2
  -4   0  -4 1279.96 150.319  16
  -4   0  -5-65.5514 63.2585  16
   4   0   5 27.1583 35.2231   4
   4   0   5-27.0851 40.2230  15
   4   0   5 49.8240 43.0143  14
  -4   0  -5 28.5925 26.8560  13
  -4   0  -5-5.82578 35.0567   2
  -4   0  -5 8.26927 29.0886   3
   4   0   5-54.3137 40.4590   1
   4   0   6 1922.01 203.402  15
   4   0   6 1868.78 172.042  14
  -4   0  -6 1791.00 176.141   3
  -4   0  -6 1924.51 192.246  13
  -4   0  -6 1936.70 199.684   2
   4   0   6 1861.54 182.494   4
   4   0   6 1855.05 206.618   1
  -4   0  -6 1913.81 193.331  16
  -4   0  -7-4.17984 56.3107  16
   4   0   7 19.1326 54.2582  15
  -4   0  -7 79.7971 72.0860   2
   4   0   7 102.712 61.1232  14
  -4   0  -7 55.9281 52.6072  13
   4   0   7 13.4372 43.1079   1
   4   0   7-7.66894 30.1464   4
  -4   0  -8 74.3831 65.3332  16
  -4   0  -8 164.798 75.7273   2
   4   0   8 113.566 54.3540  15
   4   0   8 154.712 65.3745  14
  -4   0  -8-2.30038 87.1872  13
   4   0   8 206.829 100.494   1
  -4  -1  -2 468.635 87.1499  16
   4   1   2 559.818 95.3514  15
   4   1   2 648.585 106.598   1
  -4  -1  -2 537.388 67.5551   6
  -4  -1  -2 506.459 89.4086   2
  -4  -1  -2 546.945 89.2618   3
   4   1   2 721.199 96.8539   4
  -4  -1  -3-49.2805 47.5976  16
  -4   1  -3-14.0990 29.8891  16
   4   1   3-23.4239 30.2844   4
   4   1   3-119.987 63.3407  15
   4  -1   3 21.7252 30.0466   4
   4  -1   3-35.3219 38.1145  15
   4   1   3-61.3795 51.7866  14
   4  -1   3-19.3141 38.2953   1
  -4  -1  -3-53.8841 57.4261   2
   4   1   3-21.1605 27.7495   1
  -4   1  -3-27.6908 31.3641   2
  -4  -1  -3-91.9007 52.1925   3
  -4   1  -3-29.3338 25.1966   3
  -4  -1  -4-12.7858 38.1932  16
  -4   1  -4-54.6076 49.8578  16
   4   1   4 62.6831 45.0442   4
   4   1   4-53.1030 45.9880   1
   4  -1   4 62.3515 44.5355   4
   4   1   4-86.6578 61.9135  15
   4  -1   4-33.3406 43.4251  15
   4   1   4 22.8065 35.3344  14
  -4  -1  -4 28.2982 26.0350  13
  -4   1  -4-48.7390 30.5271  13
   4  -1   4-23.9742 48.8965   1
  -4  -1  -4-3.38654 29.2502   2
  -4   1  -4 43.4906 44.9759   2
  -4  -1  -4 36.3588 35.7503   3
  -4   1  -4-10.0202 23.3826   3
  -4  -1  -5-1.96417 37.0876  16
  -4   1  -5-9.63949 27.2976  16
   4   1   5-26.0022 38.4285   4
   4  -1   5-3.43869 39.7806   4
   4   1   5-52.9461 80.3018  15
   4  -1   5 37.3493 48.5591  15
   4   1   5-4.75931 38.1787  14
   4  -1   5-66.4708 52.1080  14
  -4  -1  -5 23.9651 30.0460  13
  -4   1  -5 27.4381 28.8436  13
  -4  -1  -5-4.04591 38.4994   2
  -4   1  -5 40.4755 40.2451   2
  -4   1  -5 35.3913 29.8460   3
  -4  -1  -5 2.83885 36.3032   3
   4   1   5-30.0865 49.4680   1
   4  -1   5-54.5004 47.3632   1
  -4  -1  -6 95.0728 52.0284  16
  -4   1  -6 12.2508 37.1556  16
   4  -1   6 75.4911 45.2833   4
   4   1   6 117.062 68.7324  15
   4  -1   6 87.4829 52.7636  15
   4   1   6 4.09067 46.6783   1
   4   1   6 36.7763 38.8124  14
   4  -1   6 24.9996 32.3783  14
  -4  -1  -6 57.8519 38.8490   2
  -4  -1  -6 114.594 49.1656  13
  -4   1  -6 38.6533 44.8429  13
  -4   1  -6 38.6068 33.6244   2
   4  -1   6 101.377 58.9879   1
  -4   1  -6 83.6890 50.2343   3
  -4  -1  -6 200.950 81.3677   3
   4   1   6 116.206 45.5152   4
   4  -1   7 238.156 74.7382   4
  -4   1  -7 338.530 94.0067  16
   4   1   7 380.541 92.6671  15
   4  -1   7 311.906 83.7391  15
  -4  -1  -7 462.338 116.930   2
  -4   1  -7 328.932 84.9504   2
   4   1   7 390.408 89.2981  14
   4  -1   7 375.947 81.5808  14
  -4  -1  -7 272.183 93.5866  13
  -4   1  -7 371.611 103.553  13
  -4  -1  -7 135.248 75.4836   3
  -4  -1  -7 335.993 94.8672  16
   4   1   7 264.143 79.2459   1
   4  -1   7 529.339 116.086   1
  -4  -1  -8 184.067 95.8684  16
  -4   1  -8 496.210 126.097  16
  -4  -1  -8 223.325 80.7157   2
   4   1   8 327.530 94.9591  15
   4  -1   8 423.665 92.8700  15
  -4   1  -8 374.727 97.5044   2
   4   1   8 227.584 71.6961  14
  -4  -1  -8 83.9277 52.0592  13
  -4   1  -8 353.326 109.744  13
   4   1   8 394.748 127.085   1
   4  -1   8 461.237 121.744   1
   4  -1   8 257.845 73.8151   4
  -4   1  -9 21.8680 48.2170  16
  -4   1  -9 6.17250 50.7954   2
   4  -1   9-3.49542 52.7676  15
  -4   1  -9-49.6688 56.4755  13
  -4  -2  -2 9.74250 26.8608  16
   4   2   2 15.1670 22.8069   4
   4   2   2-32.2333 27.3936  15
   4   2   2 76.6246 60.8066  14
   4   2   2-48.0985 48.8899   1
  -4  -2  -2-49.6230 32.0746   6
  -4  -2  -2 33.5164 38.1878   2
  -4  -2  -2 50.0578 44.0412   3
  -4  -2  -3 56.8587 39.3926  16
   4   2   3 90.8240 43.1762   4
   4   2   3 112.832 57.9901  15
   4   2   3 35.8130 41.8813  14
   4  -2   3 39.6922 28.1577   1
  -4  -2  -3 67.1555 28.4890   6
   4   2   3 121.584 50.9267   1
  -4  -2  -3 119.271 60.9951   2
  -4  -2  -3 105.422 61.0234   3
  -4   2  -3 136.992 43.1818   2
  -4  -2  -4 366.872 84.4332  16
  -4   2  -4 307.202 80.5516  16
   4   2   4 489.242 89.6641   4
   4   2   4 359.462 82.1239  15
   4  -2   4 373.382 83.8754   4
   4  -2   4 388.692 89.5149  15
   4   2   4 415.948 85.3339  14
  -4  -2  -4 348.851 68.2430  13
  -4   2  -4 239.260 71.3479  13
  -4  -2  -4 413.084 88.9657   2
   4  -2   4 372.499 82.1751   1
  -4   2  -4 364.657 77.3588   2
  -4  -2  -4 347.551 83.2034   3
  -4   2  -4 288.331 53.5117   3
   4  -2   4 268.088 61.3145   5
   4   2   4 280.407 75.9730   1
   4   2   5-1.70268 30.8439   4
  -4  -2  -5-4.20521 42.2329  16
  -4   2  -5 22.0601 40.7738  16
   4  -2   5 8.29820 37.1037   4
   4   2   5 17.4382 34.0343  15
   4  -2   5-7.88261 40.9773  15
   4   2   5-48.9780 44.5795  14
  -4  -2  -5-19.2297 44.3527  13
  -4   2  -5 69.7339 46.8287  13
  -4  -2  -5 12.9925 42.9401   2
   4   2   5 18.0618 36.4175   1
  -4   2  -5 33.1387 50.9159   2
  -4  -2  -5 27.5682 35.1770   3
   4  -2   5 41.6603 46.3523   1
  -4  -2  -6 138.662 77.2153  16
  -4   2  -6 123.543 60.3348  16
   4  -2   6 193.215 65.3872   4
   4   2   6 178.462 76.1907  15
   4  -2   6 149.232 61.0628  15
   4   2   6 193.410 77.6768  14
  -4  -2  -6 224.085 84.9501   2
  -4  -2  -6 101.979 46.7286  13
  -4   2  -6 199.308 79.0033  13
  -4   2  -6 194.383 64.6268   2
  -4  -2  -6 129.478 65.9279   3
   4  -2   6 75.3234 41.0683   1
   4   2   6 128.282 70.9923   1
  -4  -2  -7 404.151 119.465  16
   4  -2   7 436.924 100.221   4
  -4   2  -7 324.682 88.8412  16
   4   2   7 313.369 92.4565  15
   4  -2   7 308.559 83.8307  15
  -4  -2  -7 233.769 79.3946   2
   4   2   7 281.861 84.0959  14
  -4   2  -7 312.797 83.4660   2
  -4  -2  -7 157.625 80.6232  13
  -4   2  -7 394.165 97.7844  13
  -4  -2  -7 13.1780 44.1236   3
   4   2   7 274.183 87.0930   1
   4  -2   7 326.907 94.5582   1
  -4  -2  -8 1.79842 74.3409  16
  -4   2  -8-11.6184 67.0849  16
  -4  -2  -8 11.7971 47.7374   2
   4   2   8-34.0997 72.0234  15
   4  -2   8 11.0774 44.3392  15
  -4   2  -8 126.114 74.7627   2
   4   2   8-62.7376 69.2634  14
  -4   2  -8-1.61185 49.4198  13
   4   2   8 109.693 63.2888   1
   4  -2   8-13.9352 38.0022   1
   4  -2   8 62.4276 38.9241   4
  -4   2  -9 61.0737 46.7563  16
  -4   2  -9-72.7548 62.8841   2
   4  -2   9 76.4886 51.7427  15
  -4   2  -9 41.7188 85.6683  13
  -4  -3  -2 58.1874 41.0448  16
   4   3   2 32.5428 35.9897  15
   4   3   2-7.64550 28.2514  14
  -4  -3  -2 12.7089 22.6184   6
  -4  -3  -2 84.8514 49.7410   2
   4   3   2 8.96387 30.4289   1
  -4  -3  -2-8.13827 34.4661   3
   4   3   3 2465.49 207.916   1
   4   3   3 2236.58 190.439  15
   4   3   3 2400.85 206.059  14
  -4  -3  -3 2371.76 165.746   6
  -4  -3  -3 2506.03 203.565   3
  -4  -3  -3 2442.80 197.780   2
  -4  -3  -3 2327.56 197.117  16
  -4  -3  -4 139.554 52.8950  16
   4   3   4 106.731 56.7394  15
   4  -3   4 87.1407 40.4124   4
   4   3   4 76.1363 36.8485  14
  -4  -3  -4 110.384 39.9113   6
  -4   3  -4 85.4056 39.4830  13
  -4  -3  -4 60.8293 31.1624  13
  -4  -3  -4 154.853 67.3347   2
   4  -3   4 64.3469 40.7338   1
  -4  -3  -4 193.477 60.7168   3
  -4   3  -4 65.9263 31.4096   2
   4   3   4 90.3482 47.2014   1
   4  -3   4 114.322 42.0950   5
   4  -3   5 231.205 69.9620   1
  -4  -3  -5 228.486 77.3729  16
  -4   3  -5 198.890 63.1007  16
   4  -3   5 341.175 88.4409   4
   4   3   5 306.063 85.3092  15
   4  -3   5 298.579 76.3979  15
   4   3   5 345.041 96.7508   1
   4   3   5 258.000 77.8735  14
  -4  -3  -5 239.251 68.1135   2
  -4  -3  -5 299.145 71.6202  13
  -4   3  -5 270.755 68.0183  13
  -4   3  -5 240.230 66.0140   2
  -4  -3  -5 382.045 101.022   3
   4  -3   5 274.486 69.5013   5
  -4  -3  -6 108.440 45.1322  16
  -4   3  -6 7.24855 39.7959  16
   4  -3   6 3.68191 45.7175   4
   4   3   6 99.0534 78.7593  15
   4  -3   6 48.1294 38.6033  15
  -4  -3  -6-28.0937 54.1153   2
   4   3   6 47.9538 55.1258  14
  -4   3  -6 23.6733 38.8626  13
  -4   3  -6-34.0171 36.2328   2
  -4  -3  -6-42.0063 50.4861   3
   4  -3   6 7.82071 34.7604   1
   4  -3   6 27.8798 36.0250   5
   4   3   6 1.56697 47.4564   1
  -4  -3  -7 357.403 119.987  16
   4  -3   7 472.165 109.042   4
  -4   3  -7 517.208 113.118  16
  -4  -3  -7 409.986 129.228   2
   4   3   7 968.894 180.589  15
   4  -3   7 365.710 81.3756  15
   4   3   7 791.170 164.034  14
  -4   3  -7 480.741 110.549   2
  -4   3  -7 348.345 84.2767  13
   4   3   7 520.103 129.535   1
   4  -3   7 538.599 118.293   1
   4  -3   8 80.0207 45.5693   4
  -4   3  -8 152.337 70.0345  16
   4  -3   8 72.2467 65.4520  15
  -4   3  -8 120.314 84.5824   2
  -4   3  -8 19.6830 68.7343  13
   4  -3   8 198.230 87.4851   1
  -4   3  -9-19.8762 48.9510  16
  -4   3  -9 19.1267 64.9214   2
   4  -3   9 21.4428 50.5623  15
  -4   3  -9 196.426 126.615  13
   4  -3   9 104.375 44.0791   4
   4   4   1 4.78866 26.3501  14
  -4  -4  -1-36.8351 68.6438   6
  -4  -4  -1 27.8377 29.0487   2
  -4  -4  -1 10.3009 30.2632   3
   4   4   1 15.8877 28.3795   1
  -4  -4  -2 623.539 99.6981  16
   4   4   2 777.520 121.088   1
   4   4   2 818.109 118.657  15
   4   4   2 867.972 127.457  14
  -4  -4  -2 726.820 102.400   6
  -4  -4  -2 700.563 105.608   2
  -4  -4  -2 717.525 116.623   3
  -4  -4  -3 224.843 72.6099  16
   4   4   3 281.193 72.7783  15
   4   4   3 339.183 81.9996  14
  -4  -4  -3 265.524 66.5226   6
  -4  -4  -3 346.803 80.3756   2
  -4  -4  -3 295.328 78.1881   3
   4   4   3 242.854 69.8211   1
  -4  -4  -4 614.647 107.022  16
   4   4   4 737.086 118.612  15
   4  -4   4 399.893 81.7243   4
   4   4   4 635.442 115.550  14
   4   4   4 630.542 110.280   1
  -4  -4  -4 730.755 121.979   2
  -4  -4  -4 564.278 95.0010   6
  -4  -4  -4 603.322 113.351   3
  -4   4  -4 324.471 67.0969   2
  -4  -4  -5 729.827 127.538  16
   4  -4   5 522.533 102.758   4
   4   4   5 660.860 119.258  15
  -4  -4  -5 652.077 120.141   2
   4   4   5 698.898 125.847  14
  -4   4  -5 502.365 89.2099   2
  -4  -4  -5 613.460 120.867   3
   4   4   5 515.666 94.4314  11
   4  -4   5 486.686 87.9725   5
   4   4   5 713.624 134.198   1
   4  -4   5 541.006 97.5573   1
  -4  -4  -6 268.897 90.4989  16
  -4   4  -6 214.081 69.3847  16
   4  -4   6 178.803 71.2887   4
  -4  -4  -6 68.9048 59.6833   2
   4   4   6 168.204 65.5699  15
   4  -4   6 138.835 69.1238  15
   4   4   6 290.739 113.210  14
  -4   4  -6 15.1349 68.8380  13
  -4   4  -6 118.413 62.8857   2
   4  -4   6 146.384 55.6401   1
  -4  -4  -6 101.834 74.9652   3
   4   4   6 98.4563 50.7397   1
   4  -4   6 122.270 49.5100   5
  -4  -4  -7 118.330 83.4611  16
   4  -4   7 471.322 103.374   4
  -4   4  -7 382.475 93.6866  16
   4   4   7 219.126 90.3396  15
   4  -4   7 397.506 96.3325  15
   4   4   7 238.145 107.547  14
  -4   4  -7 534.146 114.162   2
  -4   4  -7 37.3822 83.6347  13
   4  -4   7 427.329 96.1011   5
   4  -4   7 497.546 125.473   1
   4  -4   8-7.30077 45.7293   4
  -4   4  -8 37.3233 35.2652  16
  -4   4  -8 65.3827 41.0330   2
   4  -4   8-3.27780 51.7661  15
  -4   4  -8-108.771 72.1210  13
   4  -4   8 31.1555 44.6361   1
  -4   4  -9 95.9531 74.5786  16
   4  -4   9 94.8711 48.2402  15
  -4   4  -9 99.6782 74.6241  13
   4  -4   9 23.8451 42.0650   4
   4   5   1 512.038 106.289  14
   4   5   1 467.186 90.0127   1
  -4  -5  -1 386.261 84.8871   6
  -4  -5  -1 388.651 86.8481   2
  -4  -5  -1 471.523 96.0261   3
  -4  -5  -2 1818.79 173.753  16
   4   5   2 2430.24 203.640   1
   4   5   2 2242.84 192.188  15
   4   5   2 2246.21 208.069  14
  -4  -5  -2 2059.44 187.676   6
  -4  -5  -2 2321.01 207.354   3
  -4  -5  -2 2194.85 189.737   2
  -4  -5  -3 95.4007 59.6517  16
   4   5   3 65.5327 48.6995  15
   4   5   3-61.9456 49.2638  14
  -4  -5  -3-6.91184 49.4492   2
  -4  -5  -3 29.8399 40.6154   6
   4   5   3 35.3242 36.3823   1
  -4  -5  -4 13.4534 44.2416  16
   4   5   4 34.5486 34.7083  15
  -4  -5  -4 87.8965 57.2067   2
   4   5   4 71.0072 57.9194  14
  -4  -5  -4-35.5409 47.9575   6
  -4  -5  -4-35.2767 43.4568   3
   4   5   4-12.3339 44.5818  11
   4   5   4-24.8113 44.0848   1
  -4  -5  -5 37.5371 45.2731  16
   4  -5   5 65.0064 44.4032   4
   4   5   5 31.6216 56.5329  15
  -4  -5  -5 122.436 60.9753   2
   4   5   5-25.2883 44.0084  14
  -4  -5  -5 132.585 64.5560   6
  -4   5  -5 17.1175 56.5349  13
  -4   5  -5 22.7420 25.2226   2
  -4  -5  -5 47.3847 62.8588   3
   4   5   5 24.4910 42.0867  11
   4   5   5-35.9007 58.1066   1
   4  -5   5-56.7713 38.6770   5
   4  -5   5-17.2680 49.7116   1
  -4  -5  -6 97.3634 82.6708  16
  -4  -5  -6 54.9655 67.3828   2
   4  -5   6 19.4681 47.6915   4
   4   5   6 13.5596 58.7309  15
   4   5   6 86.1628 76.8939  14
   4  -5   6 50.7493 58.7316   1
  -4   5  -6 19.9933 38.0929   2
  -4   5  -6-0.78741 42.1103  13
  -4  -5  -6 48.9998 54.5187   3
   4   5   6-39.9792 36.1950   1
   4  -5   6 25.2111 42.5164   5
   4  -5   7-43.7235 61.1767   4
  -4   5  -7-12.7393 50.5521  16
   4  -5   7-9.80441 39.8140  15
  -4   5  -7 66.9506 62.9711   2
  -4   5  -7 128.554 71.2539  13
   4  -5   7 14.0452 32.1591   5
   4  -5   7 19.6908 48.1595   1
   4  -5   8 54.1686 61.1413   4
  -4   5  -8 118.133 57.7773  16
  -4   5  -8 34.5039 79.6877   2
   4  -5   8-130.852 95.6506  15
  -4   5  -8-104.071 51.9964  13
   4  -5   8 58.5053 50.8787   1
   4  -5   8 3.85192 25.7568   5
   4   6   1 79.2919 55.5615  14
  -4  -6  -1 37.9207 38.5200   6
  -4  -6  -1-51.5309 58.7100   2
  -4  -6  -1 19.9062 41.0161   3
   4   6   1 7.16326 32.2051   1
   4   6   2 94.0174 50.3157  14
  -4  -6  -2 218.276 74.3078   2
  -4  -6  -2 108.576 56.0727   6
   4   6   2 190.189 61.9792   1
  -4  -6  -2 103.204 49.8447   3
   4   6   3 10.9156 37.2804   1
  -4  -6  -3 16.4853 40.9962  16
   4   6   3 71.2469 62.6699  15
  -4  -6  -3 60.2045 47.0145   2
   4   6   3 94.7219 71.1205  14
  -4  -6  -3 99.4587 57.5479   6
  -4  -6  -3 70.3804 46.5278   3
  -4  -6  -4 194.523 76.0303  16
   4   6   4 129.600 70.2667  15
  -4  -6  -4 29.2245 46.9954   2
   4   6   4-61.7592 51.7277  14
  -4  -6  -4 71.0735 57.6765   6
  -4  -6  -4-58.9612 57.5051   3
   4   6   4 12.2420 60.7360  11
   4   6   4 86.2535 62.4559   1
  -4  -6  -5-119.080 59.4563  16
  -4  -6  -5 87.8993 150.807   2
   4   6   5 19.5931 53.1817  15
   4   6   5-27.3753 70.0542  14
  -4  -6  -5-32.0302 40.7317   6
   4   6   5 1.03182 33.1454   1
  -4  -6  -5 95.3071 72.3609   3
   4   6   5 2.27920 64.2694  11
  -4  -6  -6 144.489 76.1153  16
   4  -6   6 131.363 67.1983   4
   4   6   6 106.197 55.8904  15
   4   6   6 130.332 88.6177  14
  -4  -6  -6-36.3687 39.7226   3
   4  -6   6 100.617 54.4604   5
   4  -6   7 56.0055 46.4788   4
  -4   6  -7-14.0149 56.6489  13
   4  -6   7-5.14260 28.3148   5
   4  -6   7 62.3510 69.0224   1
   4   7   1 72.6034 45.0414  14
  -4  -7  -1 4.67493 33.3228   6
  -4  -7  -1 103.227 57.7351   3
  -4  -7  -2 14.1428 55.6952   2
   4   7   2 41.1600 52.0231  14
  -4  -7  -2-30.3775 45.8432   6
  -4  -7  -2 38.3123 38.7957   3
  -4  -7  -3 27.2579 34.3484  16
  -4  -7  -3 50.4916 54.0393   2
   4   7   3 4.65156 53.4868  15
   4   7   3-50.2460 123.824  14
  -4  -7  -3 66.3218 54.5550   6
  -4  -7  -3 65.2626 54.0504   3
   4   7   3-91.4395 61.4738  11
  -4  -7  -4-18.4944 162.695   2
  -4  -7  -4 111.092 68.2024  16
   4   7   4-24.4651 59.6845  15
   4   7   4 95.5837 85.7303  14
   4   7   4-32.3669 49.1392   1
   4   7   4 94.9177 93.7778  11
  -4  -7  -5 106.186 75.0324  16
   4   7   5-53.2604 70.8763  15
   4   7   5-114.739 117.115  14
  -4  -7  -5 25.9433 40.2090   3
   4   7   5-20.4788 55.1170  11
   4  -7   6 65.3712 72.2254   4
   4   8   1 107.717 68.4790  14
  -4  -8  -1 120.520 69.3595   6
  -4  -8  -1 78.6466 54.0236   3
   4   8   2 158.135 73.5742  14
  -4  -8  -2 122.884 64.7080   6
  -4  -8  -2 167.656 68.3433   3
   4   8   3 145.292 86.8953  14
  -4  -8  -3 112.856 93.6405   6
  -4  -8  -3 161.331 95.2861   3
   4   8   3 291.415 120.904  11
   4   8   4-126.394 98.6582  14
  -4  -8  -4 139.851 91.8632   6
  -4  -8  -4-43.6526 70.0193   3
   4   8   4 54.0607 76.0224  11
  -5   0  -5 52.2525 65.0229  16
   5   0   5 56.1693 84.1061  15
  -5   0  -5-8.55171 36.8010   2
   5   0   5-39.2733 39.8557   1
   5   0   6 108.525 48.2612   4
   5   0   6-118.417 70.2476  15
   5   0   6 73.8543 61.5207   1
  -5   0  -6-41.2828 49.4362   2
  -5   0  -6 13.4673 28.8831  13
  -5   0  -6-25.4378 33.2277   3
  -5   0  -7 7.01018 51.5499  16
   5   0   7-23.4564 56.4373  15
  -5   0  -7 104.346 86.5109   2
   5   0   7-82.7880 70.6233  14
  -5   0  -7-77.5106 60.2682  13
   5   0   7 129.597 94.6375   1
   5   0   7-22.2168 54.6156   4
   5   1   4 191.132 76.3729   1
  -5  -1  -4 231.553 65.9690   2
  -5  -1  -5 2.46471 38.3265  16
  -5   1  -5-4.07737 39.7316  16
  -5  -1  -5 74.7597 51.1719   2
  -5   1  -5 25.5880 36.6764   2
  -5  -1  -5 39.4345 37.8270   3
   5   1   5 24.9960 48.4218   1
   5  -1   5 2.22562 40.0947   1
   5   1   6-26.2612 34.8940   4
   5  -1   6 44.4769 45.4683   4
  -5  -1  -6-50.5727 57.0347  16
  -5   1  -6 77.7384 71.6113  16
   5   1   6 65.0051 55.2422  15
   5  -1   6-58.9900 71.4678  15
   5   1   6-31.1292 63.1111   1
   5   1   6 0.43766 62.3402  14
  -5  -1  -6-83.6177 59.5079   2
  -5   1  -6-19.2103 54.2105   2
  -5   1  -6 35.8009 46.9940  13
  -5  -1  -6 51.6402 43.3935  13
   5  -1   6-5.96294 44.9850   1
  -5  -1  -6 119.756 57.1005   3
   5  -1   7 182.992 81.1177   4
  -5  -1  -7 26.4073 70.3735  16
  -5   1  -7 154.312 86.1865  16
   5   1   7-160.277 91.6181  15
   5  -1   7 16.7283 74.8472  15
   5   1   7-36.8426 73.9793  14
  -5  -1  -7 19.1879 53.3782  13
  -5   1  -7 15.3883 43.0948  13
  -5  -1  -7 60.6236 60.4807   3
   5   1   7 0.21122 50.3732   4
  -5  -2  -4-0.20140 43.8274  16
   5   2   4 122.475 57.5968  15
  -5  -2  -4 107.546 64.8819   2
  -5  -2  -4 16.8995 28.2152   3
   5   2   4 46.3102 47.0893   1
  -5  -2  -5 5.50052 42.5567  16
   5   2   5-32.1119 57.1133  15
   5   2   5 28.3004 43.0897  14
  -5  -2  -5-59.3950 50.7739   2
  -5  -2  -5-5.41865 44.3760   3
   5   2   5 27.4543 57.4583   1
  -5  -2  -6 8.00896 53.8364  16
   5   2   6-65.3333 49.6735   1
  -5   2  -6-43.9946 51.9550  16
   5  -2   6-43.3085 55.6445   4
   5   2   6 0.75529 61.4069  15
   5  -2   6 50.3540 44.2745  15
   5   2   6-14.6928 62.6932  14
  -5  -2  -6 87.1494 88.4669   2
  -5   2  -6 48.8851 36.8802  13
  -5   2  -6 136.363 60.4367   2
  -5  -2  -6 44.5831 52.3714   3
   5  -2   6-22.8453 36.5617   1
  -5  -3  -4 3.09148 33.7744  16
   5   3   4-26.1057 59.7806  15
   5   3   4 179.531 84.4943  14
  -5  -3  -4 58.2556 47.4407   2
  -5  -3  -4 9.30208 41.9062   3
   5   3   4 73.9021 48.2198   1
  -5  -3  -5 49.6019 62.5378  16
   5   3   5 44.2432 45.1925  15
   5   3   5 103.861 64.0790   1
   5   3   5 30.6340 72.4227  14
  -5  -3  -5-2.64111 62.4518   2
  -5  -3  -5 54.8499 54.6855   3
  -5  -3  -6-8.90986 78.5851  16
   5   3   6 74.1398 61.9268  15
  -5  -3  -6 208.530 101.010   2
   5   3   6 164.140 69.6237  14
  -5  -3  -6 114.706 65.2397   3
   5   3   6 174.953 98.0295   1
  -5  -4  -4 52.9784 54.2212  16
   5   4   4-46.2463 67.5901  15
   5   4   4 44.3604 45.0926  14
  -5  -4  -4 5.84486 60.0398   2
   5   4   4-52.1868 60.5159   1
  -5  -4  -4 12.8529 39.1294   3
   5   4   5-10.1521 51.5234   1
  -5  -4  -5 42.1908 52.4817  16
   5   4   5 44.9816 70.0644  15
  -5  -4  -5 103.248 74.9570   2
   5   4   5 58.8946 61.0354  14
  -5  -4  -5 94.8983 62.2524   3
   5   5   3-84.6146 59.7661  14
  -5  -5  -3 63.0534 47.6452   3
   5   5   4 36.9955 46.7560   1
   5   5   4 37.7783 65.2130  15
   5   5   4 75.6231 51.0744  14
  -5  -5  -4-27.2552 56.0569   2
  -5  -5  -4-77.4523 57.7053   3
   0   0   0    0.00    0.00   0

TITL instrument in P2(1)/c
REM P2(1)/c (#14 in standard setting)
CELL 0.71073   5.121630  10.223602  13.951512  90.0000  99.7016  90.0000
ZERR    4.00   0.001244   0.001077   0.009913   0.0000   0.0460   0.0000
LATT  1
SYMM -x, y+1/2,-z+1/2
SFAC C H N O
UNIT 16.00 28.00 20.00 12.00
TREF
HKLF 4
END
;
_shelx_hkl_checksum              68064
_olex2_submission_special_instructions 'No special instructions were received'
_oxdiff_exptl_absorpt_empirical_details
;
Empirical correction (ABSPACK) includes:
- Absorption correction using spherical harmonics
- Frame scaling
;
_oxdiff_exptl_absorpt_empirical_full_max 2.031
_oxdiff_exptl_absorpt_empirical_full_min 0.690
loop_
_space_group_symop_operation_xyz
'x, y, z'
'-x, y+1/2, -z+1/2'
'-x, -y, -z'
'x, -y-1/2, z-1/2'
loop_
_atom_site_label
_atom_site_type_symbol
_atom_site_fract_x
_atom_site_fract_y
_atom_site_fract_z
_atom_site_U_iso_or_equiv
_atom_site_adp_type
_atom_site_occupancy
_atom_site_site_symmetry_order
_atom_site_calc_flag
_atom_site_refinement_flags_posn
_atom_site_refinement_flags_adp
_atom_site_refinement_flags_occupancy
_atom_site_disorder_assembly
_atom_site_disorder_group
C1 C 0.1087(19) 0.7885(6) 0.5374(11) 0.077(11) Uani 1 1 d . . . . .
H1 H -0.037038 0.827790 0.499529 0.092 Uiso 1 1 calc R . . . .
C2 C 0.324(2) 0.8571(6) 0.5900(13) 0.069(12) Uani 1 1 d . . . . .
H2 H 0.344263 0.947403 0.595041 0.082 Uiso 1 1 calc R . . . .
C3 C 0.495(2) 0.7666(5) 0.6313(12) 0.073(11) Uani 1 1 d . . . . .
H3 H 0.658372 0.781270 0.670149 0.088 Uiso 1 1 calc R . . . .
C4 C 0.477(2) 0.5229(5) 0.6302(12) 0.058(12) Uani 1 1 d . . . . .
N1 N 0.3806(16) 0.6468(4) 0.6050(9) 0.045(10) Uani 1 1 d . . . . .
N2 N 0.1399(15) 0.6614(4) 0.5488(9) 0.077(9) Uani 1 1 d . . . . .
N3 N 0.3389(15) 0.4240(5) 0.5916(9) 0.070(8) Uani 1 1 d . . . . .
H3A H 0.400260 0.345943 0.601061 0.084 Uiso 1 1 calc R . . . .
H3B H 0.185994 0.436582 0.556557 0.084 Uiso 1 1 calc R . . . .
N4 N 0.7079(16) 0.5087(5) 0.6834(10) 0.076(9) Uani 1 1 d . . . . .
H4A H 0.774525 0.431836 0.694183 0.092 Uiso 1 1 calc R . . . .
H4B H 0.794732 0.576175 0.708014 0.092 Uiso 1 1 calc R . . . .
N5 N 0.2461(17) 0.6480(5) 0.8264(10) 0.072(11) Uani 1 1 d . . . . .
O1 O 0.4846(12) 0.6734(4) 0.8569(8) 0.088(8) Uani 1 1 d . . . . .
O2 O 0.1671(13) 0.5350(4) 0.8237(8) 0.091(10) Uani 1 1 d . . . . .
O3 O 0.0884(14) 0.7378(4) 0.7939(9) 0.085(10) Uani 1 1 d . . . . .
loop_
_atom_site_aniso_label
_atom_site_aniso_U_11
_atom_site_aniso_U_22
_atom_site_aniso_U_33
_atom_site_aniso_U_23
_atom_site_aniso_U_13
_atom_site_aniso_U_12
C1 0.057(9) 0.047(4) 0.12(2) 0.001(5) -0.010(14) -0.001(3)
C2 0.055(10) 0.046(4) 0.10(3) -0.011(5) 0.012(15) -0.002(3)
C3 0.055(9) 0.049(4) 0.11(2) -0.013(5) -0.016(14) -0.011(3)
C4 0.041(9) 0.047(4) 0.08(3) 0.003(5) -0.002(15) -0.003(3)
N1 0.033(7) 0.047(3) 0.05(2) 0.002(4) 0.005(12) -0.002(2)
N2 0.047(7) 0.042(3) 0.13(2) 0.001(4) -0.020(11) 0.001(2)
N3 0.051(7) 0.043(3) 0.104(18) 0.006(4) -0.020(10) 0.000(3)
N4 0.046(8) 0.063(4) 0.11(2) -0.003(4) -0.020(12) 0.005(3)
N5 0.054(8) 0.053(4) 0.10(2) 0.000(4) -0.014(13) 0.000(3)
O1 0.045(5) 0.050(3) 0.152(17) -0.007(4) -0.029(9) -0.003(2)
O2 0.064(8) 0.056(3) 0.14(2) -0.003(4) -0.021(13) -0.015(3)
O3 0.059(7) 0.066(3) 0.12(2) 0.009(4) -0.017(12) 0.005(3)
loop_
_atom_type_symbol
_atom_type_description
_atom_type_scat_dispersion_real
_atom_type_scat_dispersion_imag
_atom_type_scat_source
C C 0.0033 0.0016 'International Tables Vol C Tables 4.2.6.8 and 6.1.1.4'
H H 0.0000 0.0000 'International Tables Vol C Tables 4.2.6.8 and 6.1.1.4'
N N 0.0061 0.0033 'International Tables Vol C Tables 4.2.6.8 and 6.1.1.4'
O O 0.0106 0.0060 'International Tables Vol C Tables 4.2.6.8 and 6.1.1.4'
loop_
_geom_angle_atom_site_label_1
_geom_angle_atom_site_label_2
_geom_angle_atom_site_label_3
_geom_angle
_geom_angle_site_symmetry_1
_geom_angle_site_symmetry_3
_geom_angle_publ_flag
N2 C1 C2 111.2(6) . . ?
C3 C2 C1 106.1(5) . . ?
C2 C3 N1 106.5(6) . . ?
N3 C4 N1 117.5(6) . . ?
N4 C4 N1 120.1(5) . . ?
N4 C4 N3 122.1(6) . . ?
C3 N1 C4 128.9(5) . . ?
N2 N1 C3 111.1(4) . . ?
N2 N1 C4 120.0(5) . . ?
C1 N2 N1 105.0(4) . . ?
O1 N5 O3 120.1(6) . . ?
O2 N5 O1 120.4(5) . . ?
O2 N5 O3 119.4(6) . . ?
loop_
_geom_bond_atom_site_label_1
_geom_bond_atom_site_label_2
_geom_bond_distance
_geom_bond_site_symmetry_2
_geom_bond_publ_flag
C1 C2 1.407(10) . ?
C1 N2 1.315(8) . ?
C2 C3 1.335(9) . ?
C3 N1 1.379(7) . ?
C4 N1 1.383(8) . ?
C4 N3 1.298(8) . ?
C4 N4 1.294(7) . ?
N1 N2 1.353(7) . ?
N5 O1 1.251(8) . ?
N5 O2 1.222(6) . ?
N5 O3 1.256(6) . ?

_cod_database_fobs_code 2108910
