#------------------------------------------------------------------------------
#$Date: 2018-06-26 18:29:20 +0300 (Tue, 26 Jun 2018) $
#$Revision: 208648 $
#$URL: file:///home/coder/svn-repositories/cod/cif/2/10/82/2108257.cif $
#------------------------------------------------------------------------------
#
# This file is available in the Crystallography Open Database (COD),
# http://www.crystallography.net/. The original data for this entry
# were provided by IUCr Journals, http://journals.iucr.org/.
#
# The file may be used within the scientific community so long as
# proper attribution is given to the journal article from which the
# data were obtained.
#
data_2108257
loop_
_publ_author_name
'Zacharias, Savannah C.'
'Ramon, Ga\"elle'
'Bourne, Susan A.'
_publ_section_title
;
 Control of crystal structure using temperature and time
;
_journal_coeditor_code           LO5021SUP1
_journal_issue                   4
_journal_name_full               'Acta Crystallographica Section B'
_journal_page_first
;
;
_journal_paper_doi               10.1107/S2052520618007795
_journal_volume                  74
_journal_year                    2018
_chemical_formula_moiety         'C14 H15 Fe N2 O7'
_chemical_formula_sum            'C14 H15 Fe N2 O7'
_chemical_formula_weight         379.13
_space_group_crystal_system      triclinic
_space_group_IT_number           2
_space_group_name_Hall           '-P 1'
_space_group_name_H-M_alt        'P -1'
_symmetry_space_group_name_Hall  '-P 1'
_symmetry_space_group_name_H-M   'P -1'
_atom_sites_solution_hydrogens   mixed
_audit_creation_method           SHELXL-2017/1
_cell_angle_alpha                93.169(5)
_cell_angle_beta                 100.097(4)
_cell_angle_gamma                99.996(4)
_cell_formula_units_Z            2
_cell_length_a                   8.6448(17)
_cell_length_b                   9.0260(18)
_cell_length_c                   10.773(2)
_cell_measurement_reflns_used    22935
_cell_measurement_temperature    173(2)
_cell_measurement_theta_max      28.515
_cell_measurement_theta_min      1.928
_cell_volume                     811.8(3)
_computing_structure_refinement  'SHELXL-2017/1 (Sheldrick, 2017)'
_diffrn_ambient_temperature      173(2)
_diffrn_measured_fraction_theta_full 0.996
_diffrn_measured_fraction_theta_max 0.988
_diffrn_measurement_device_type  'CCD detector'
_diffrn_measurement_method       '\f and \w scans'
_diffrn_radiation_type           MoK\a
_diffrn_radiation_wavelength     0.71073
_diffrn_reflns_av_R_equivalents  0.0402
_diffrn_reflns_av_unetI/netI     0.0296
_diffrn_reflns_Laue_measured_fraction_full 0.996
_diffrn_reflns_Laue_measured_fraction_max 0.988
_diffrn_reflns_limit_h_max       11
_diffrn_reflns_limit_h_min       -11
_diffrn_reflns_limit_k_max       12
_diffrn_reflns_limit_k_min       -12
_diffrn_reflns_limit_l_max       14
_diffrn_reflns_limit_l_min       -14
_diffrn_reflns_number            22935
_diffrn_reflns_point_group_measured_fraction_full 0.996
_diffrn_reflns_point_group_measured_fraction_max 0.988
_diffrn_reflns_theta_full        25.242
_diffrn_reflns_theta_max         28.515
_diffrn_reflns_theta_min         1.928
_exptl_absorpt_coefficient_mu    0.967
_exptl_absorpt_correction_T_max  1
_exptl_absorpt_correction_T_min  0.905
_exptl_absorpt_correction_type   multi-scan
_exptl_absorpt_process_details
; G. M. Sheldrick, SADABS, Version 2.05, University of Gottingen, 
Germany, 2007
;
_exptl_crystal_colour            red
_exptl_crystal_density_diffrn    1.551
_exptl_crystal_description       block
_exptl_crystal_F_000             390
_exptl_crystal_size_max          0.220
_exptl_crystal_size_mid          0.190
_exptl_crystal_size_min          0.190
_refine_diff_density_max         0.457
_refine_diff_density_min         -0.470
_refine_diff_density_rms         0.055
_refine_ls_extinction_coef       0.0066(10)
_refine_ls_extinction_expression Fc^*^=kFc[1+0.001xFc^2^\l^3^/sin(2\q)]^-1/4^
_refine_ls_extinction_method     'SHELXL-2017/1 (Sheldrick 2017)'
_refine_ls_goodness_of_fit_ref   1.049
_refine_ls_hydrogen_treatment    constr
_refine_ls_matrix_type           full
_refine_ls_number_parameters     222
_refine_ls_number_reflns         4072
_refine_ls_number_restraints     0
_refine_ls_restrained_S_all      1.049
_refine_ls_R_factor_all          0.0358
_refine_ls_R_factor_gt           0.0299
_refine_ls_shift/su_max          0.001
_refine_ls_shift/su_mean         0.000
_refine_ls_structure_factor_coef Fsqd
_refine_ls_weighting_details
'w=1/[\s^2^(Fo^2^)+(0.0312P)^2^+0.3567P] where P=(Fo^2^+2Fc^2^)/3'
_refine_ls_weighting_scheme      calc
_refine_ls_wR_factor_gt          0.0718
_refine_ls_wR_factor_ref         0.0752
_reflns_Friedel_coverage         0.000
_reflns_number_gt                3573
_reflns_number_total             4072
_reflns_threshold_expression     'I > 2\s(I)'
_cod_data_source_file            lo5021sup1.cif
_cod_data_source_block           I
_cod_database_code               2108257
_shelx_shelxl_version_number     2017/1
_shelx_space_group_comment
;
The symmetry employed for this shelxl refinement is uniquely defined
by the following loop, which should always be used as a source of
symmetry information in preference to the above space-group names.
They are only intended as comments.
;
_shelx_estimated_absorpt_t_min   0.815
_shelx_estimated_absorpt_t_max   0.838
_shelx_res_file
;
TITL I
    C:\PhD\STRUCT~2\FE3_AC~1\COMPLE~1\Complex1.res
    created by SHELXL-2017/1 at 13:19:52 on 12-Dec-2017
CELL 0.71073 8.6448 9.0260 10.7727 93.169 100.097 99.996
ZERR 2.0000 0.0017 0.0018 0.0022 0.005 0.004 0.004
LATT 1
SFAC C H FE N O
UNIT 28 30 2 4 14
BOND
BOND $H
CONF
OMIT -2 -2 1
OMIT -3 -1 4
OMIT 4 0 2
OMIT 3 -3 2
OMIT -2 4 0
OMIT -1 1 6
OMIT 0 2 2
OMIT -3 1 0
OMIT -3 0 3
OMIT -2 -1 4
OMIT -1 3 1
ACTA
FMAP 2 1 53
GRID
PLAN 20 0 0
MERG 2
MORE -1
SIZE 0.19 0.19 0.22
TEMP -100
L.S. 10
WGHT    0.031200    0.356700
EXTI    0.006606
FVAR       0.22480
FE1   3    0.463204    0.208314    0.774910    11.00000    0.01999    0.01986 =
         0.01880    0.00173    0.00730    0.00816
O2    5    0.447185    0.212245    0.584675    11.00000    0.02307    0.02700 =
         0.02032    0.00502    0.00684    0.01192
O1    5    0.556692    0.170600    0.416396    11.00000    0.02870    0.02737 =
         0.01741    0.00238    0.00586    0.00863
O4    5    0.788167    0.088803    1.056925    11.00000    0.02437    0.04573 =
         0.01880    0.00799    0.00469    0.00884
O3    5    0.573008    0.160498    0.946916    11.00000    0.02317    0.02587 =
         0.01785    0.00132    0.00671    0.00769
O5    5    0.279367    0.285580    0.809933    11.00000    0.02678    0.02426 =
         0.03610    0.00199    0.01334    0.01161
O6    5    0.586140    0.420015    0.801709    11.00000    0.02909    0.02090 =
         0.03243    0.00116    0.01000    0.00542
O7    5    0.325816   -0.001859    0.743594    11.00000    0.02236    0.02371 =
         0.01960    0.00131    0.00758    0.00661
AFIX   7
H7A   2    0.323859   -0.035590    0.827234    11.00000   -1.50000
H7B   2    0.377045   -0.056918    0.709311    11.00000   -1.50000
AFIX   0
N1    4    0.666418    0.135762    0.738831    11.00000    0.01779    0.01811 =
         0.01663    0.00087    0.00544    0.00450
C1    1    0.556648    0.172879    0.530579    11.00000    0.02135    0.01645 =
         0.01959    0.00194    0.00508    0.00381
C2    1    0.691618    0.127293    0.620897    11.00000    0.01970    0.01804 =
         0.01792    0.00122    0.00513    0.00334
C3    1    0.825459    0.078320    0.592901    11.00000    0.02185    0.03188 =
         0.02073    0.00029    0.00855    0.00782
AFIX  43
H3    2    0.843942    0.071889    0.508570    11.00000   -1.20000
AFIX   0
C4    1    0.932055    0.038814    0.692101    11.00000    0.02106    0.03978 =
         0.02762    0.00052    0.00854    0.01291
AFIX  43
H4    2    1.025737    0.005823    0.675906    11.00000   -1.20000
AFIX   0
C5    1    0.902678    0.047184    0.815287    11.00000    0.02070    0.03154 =
         0.02376    0.00381    0.00361    0.00901
AFIX  43
H5    2    0.974330    0.019291    0.883533    11.00000   -1.20000
AFIX   0
C6    1    0.766196    0.097281    0.834792    11.00000    0.01934    0.01911 =
         0.01893    0.00187    0.00534    0.00275
C7    1    0.706935    0.115887    0.957661    11.00000    0.02082    0.02079 =
         0.01916    0.00211    0.00537    0.00207
C8    1    0.098354    0.440286    0.852264    11.00000    0.04270    0.04017 =
         0.06918    0.00658    0.02679    0.02500
AFIX 137
H8A   2    0.019721    0.400577    0.775468    11.00000   -1.50000
H8B   2    0.097010    0.547540    0.870761    11.00000   -1.50000
H8C   2    0.071515    0.384460    0.923453    11.00000   -1.50000
AFIX   0
C9    1    0.261550    0.422380    0.832567    11.00000    0.03511    0.02945 =
         0.02568    0.00194    0.01059    0.01732
C10   1    0.380816    0.547803    0.840283    11.00000    0.04170    0.02333 =
         0.03519   -0.00178    0.00919    0.01472
AFIX  43
H10   2    0.355024    0.644326    0.856212    11.00000   -1.20000
AFIX   0
C11   1    0.537324    0.541371    0.826069    11.00000    0.03727    0.02211 =
         0.01727    0.00117    0.00364    0.00697
C12   1    0.656494    0.685797    0.838420    11.00000    0.04567    0.02304 =
         0.03476    0.00001    0.00420    0.00193
AFIX 137
H12A  2    0.764601    0.663206    0.847905    11.00000   -1.50000
H12B  2    0.648391    0.749268    0.912942    11.00000   -1.50000
H12C  2    0.634437    0.739382    0.762492    11.00000   -1.50000
AFIX   0
N2    4    1.027031    0.697677    0.611654    11.00000    0.06352    0.04705 =
         0.08843    0.00065    0.02980   -0.00174
C13   1    0.905091    0.625268    0.576104    11.00000    0.05391    0.03138 =
         0.04918    0.00897    0.02391    0.01149
C14   1    0.748056    0.532079    0.532535    11.00000    0.04723    0.03777 =
         0.05264    0.01148    0.01247    0.01369
AFIX 137
H14C  2    0.753237    0.457745    0.464270    11.00000   -1.50000
H14A  2    0.671642    0.596036    0.501002    11.00000   -1.50000
H14B  2    0.713274    0.479543    0.602921    11.00000   -1.50000
AFIX   0
HKLF 4




REM  I
REM R1 =  0.0299 for    3573 Fo > 4sig(Fo)  and  0.0358 for all    4072 data
REM    222 parameters refined using      0 restraints

END

WGHT      0.0312      0.3567

REM Highest difference peak  0.457,  deepest hole -0.470,  1-sigma level  0.055
Q1    1   0.7379  0.1088  0.8986  11.00000  0.05    0.46
Q2    1   0.6254  0.1403  0.5756  11.00000  0.05    0.36
Q3    1   0.2676 -0.0507  0.7879  11.00000  0.05    0.35
Q4    1   0.5928  0.6161  0.8202  11.00000  0.05    0.26
Q5    1   0.6822  0.1111  0.6798  11.00000  0.05    0.26
Q6    1   0.3097 -0.0830  0.6861  11.00000  0.05    0.26
Q7    1   0.7673  0.1212  0.6134  11.00000  0.05    0.26
Q8    1   0.8212  0.0562  0.8276  11.00000  0.05    0.25
Q9    1   0.4673  0.5429  0.8572  11.00000  0.05    0.25
Q10   1   0.3353  0.4819  0.8451  11.00000  0.05    0.25
Q11   1   0.7229  0.1141  0.7847  11.00000  0.05    0.24
Q12   1   0.5645  0.1799  0.8747  11.00000  0.05    0.24
Q13   1   0.4569  0.1856  0.6555  11.00000  0.05    0.23
Q14   1   0.9246  0.0114  0.8395  11.00000  0.05    0.23
Q15   1   0.7629  0.1416  1.0037  11.00000  0.05    0.23
Q16   1   0.9198  0.0543  0.7580  11.00000  0.05    0.22
Q17   1   0.8656  0.0382  0.6426  11.00000  0.05    0.21
Q18   1   0.1782  0.4363  0.8284  11.00000  0.05    0.21
Q19   1   1.0724  0.7204  0.6139  11.00000  0.05    0.20
Q20   1   0.6559  0.1583  0.9586  11.00000  0.05    0.19
;
_shelx_res_checksum              76205
_shelx_hkl_file
;
  -1   0   0  427.63   13.03
  -1   0   0  452.52   13.07
  -1   0   0  448.15   12.39
  -1   0   0  449.73   12.30
  -1   0   0  435.82   12.37
   1   0   0  439.61   12.93
   1   0   0  455.29   12.48
   1   0   0  468.76   12.97
  -2   0   0   33.85    1.13
  -2   0   0   34.42    1.15
  -2   0   0   34.57    1.04
  -2   0   0   33.30    1.00
  -2   0   0   32.34    0.99
   2   0   0   35.79    1.07
   2   0   0   35.03    1.07
   2   0   0   34.04    1.12
   2   0   0   34.89    1.19
  -3   0   0    2.12    0.25
  -3   0   0    1.83    0.22
  -3   0   0    1.98    0.19
  -3   0   0    2.06    0.34
   3   0   0    1.95    0.20
   3   0   0    2.27    0.30
   3   0   0    2.19    0.20
   3   0   0    1.75    0.20
   3   0   0    1.99    0.22
  -4   0   0   35.35    1.52
  -4   0   0   34.83    1.30
  -4   0   0   34.75    1.19
   4   0   0   33.84    1.21
   4   0   0   34.85    1.17
   4   0   0   34.02    1.21
   4   0   0   35.14    1.40
  -5   0   0   20.21    0.86
  -5   0   0   20.49    0.95
  -5   0   0   21.97    1.00
   5   0   0   20.76    0.88
   5   0   0   20.31    0.85
   5   0   0   20.21    0.87
  -6   0   0   10.32    0.61
  -6   0   0   10.05    0.67
   6   0   0   12.01    0.65
   6   0   0   11.60    0.65
   6   0   0   10.97    0.62
  -7   0   0    6.07    0.63
  -7   0   0    4.79    0.52
   7   0   0    4.88    0.54
   7   0   0    5.72    0.57
  -8   0   0   26.90    1.32
  -8   0   0   23.80    1.19
   8   0   0   21.98    1.15
  -9   0   0   18.56    1.14
  -9   0   0   17.19    1.06
   9   0   0   19.00    1.08
 -10   0   0    4.13    0.64
 -10   0   0    5.61    0.75
  10   0   0    5.07    0.67
 -11   0   0    7.64    0.90
  11   0   0    6.41    0.83
  11  -1   0    1.91    0.50
 -11   1   0    2.58    0.61
 -11   1   0    2.12    0.57
  10  -1   0   17.14    1.17
 -10   1   0   19.15    1.24
 -10   1   0   17.68    1.26
   9  -1   0   46.43    2.04
  -9   1   0   48.75    2.06
  -9   1   0   44.74    2.16
   8  -1   0   65.74    2.45
   8  -1   0   60.99    2.43
  -8   1   0   66.54    2.65
  -8   1   0   63.01    2.45
   7  -1   0    5.44    0.61
   7  -1   0    5.36    0.60
  -7   1   0    4.46    0.53
  -7   1   0    4.51    0.61
   6  -1   0   13.56    0.79
   6  -1   0   15.16    0.81
   6  -1   0   15.30    0.80
  -6   1   0   15.26    0.82
  -6   1   0   13.92    0.54
  -6   1   0   13.36    0.86
  -6   1   0   13.89    0.54
   5  -1   0   10.94    0.64
   5  -1   0   12.34    0.68
   5  -1   0   12.87    0.69
  -5   1   0   12.00    0.74
  -5   1   0   12.75    0.56
  -5   1   0   11.82    0.67
  -5   1   0   11.29    0.53
   4  -1   0    0.35    0.14
   4  -1   0    0.14    0.12
   4  -1   0    0.27    0.15
   4  -1   0    0.07    0.11
  -4   1   0    0.41    0.15
  -4   1   0    0.19    0.10
  -4   1   0    0.55    0.14
  -4   1   0    0.25    0.10
  -4   1   0    0.22    0.15
   3  -1   0    0.76    0.17
   3  -1   0    0.38    0.14
   3  -1   0    0.46    0.14
  -3   1   0    0.42    0.12
  -3   1   0    0.40    0.11
  -3   1   0    0.42    0.13
  -3   1   0    0.56    0.17
  -3   1   0    0.57    0.13
  -3   1   0    0.43    0.13
   2  -1   0    7.47    0.43
   2  -1   0    7.48    0.40
   2  -1   0    7.80    0.40
  -2   1   0    7.07    0.40
  -2   1   0    7.62    0.43
  -2   1   0    7.10    0.39
  -2   1   0    7.15    0.38
  -2   1   0    8.39    0.41
  -2   1   0    7.60    0.39
   1  -1   0   22.41    0.75
   1  -1   0   20.70    0.79
   1  -1   0   20.52    0.74
  -1   1   0   21.54    0.80
  -1   1   0   21.59    0.75
  -1   1   0   20.67    0.74
  -1   1   0   20.81    0.81
  -1   1   0   20.87    0.74
   0  -1   0   88.26    2.51
   0  -1   0   87.64    2.61
   0  -1   0   84.74    2.48
   0  -1   0   88.22    2.47
   0  -1   0   87.76    2.60
   0   1   0   88.25    2.61
   0   1   0   86.29    2.49
  -1  -1   0    0.00    0.10
  -1  -1   0    0.13    0.12
  -1  -1   0    0.16    0.06
  -2  -1   0    1.39    0.10
  -2  -1   0    1.46    0.13
  -2  -1   0    1.90    0.31
  -2  -1   0    1.66    0.25
   2   1   0    1.37    0.22
  -3  -1   0    9.03    0.39
  -3  -1   0    9.07    0.64
  -3  -1   0    9.47    0.42
   3   1   0    9.06    0.34
   3   1   0   10.26    0.57
   3   1   0    9.26    0.34
  -4  -1   0   11.65    0.51
  -4  -1   0   10.86    0.53
  -4  -1   0   10.13    0.42
  -4  -1   0   10.81    0.79
   4   1   0   10.25    0.65
   4   1   0   11.44    0.46
   4   1   0   10.07    0.44
  -5  -1   0   33.77    1.26
  -5  -1   0   32.97    1.16
  -5  -1   0   34.73    1.32
  -5  -1   0   33.88    1.69
   5   1   0   33.34    1.46
   5   1   0   33.97    1.12
   5   1   0   36.49    1.21
   5   1   0   34.32    1.19
  -6  -1   0   77.12    3.16
  -6  -1   0   74.38    2.44
  -6  -1   0   77.67    2.61
   6   1   0   75.88    2.47
   6   1   0   82.16    2.51
   6   1   0   79.20    2.44
   6   1   0   77.82    2.83
  -7  -1   0   11.30    0.65
  -7  -1   0   11.48    0.69
   7   1   0   10.56    0.63
   7   1   0   11.69    0.67
  -8  -1   0    0.11    0.14
  -8  -1   0    0.01    0.18
   8   1   0    0.17    0.14
  -9  -1   0    3.62    0.50
  -9  -1   0    2.51    0.43
   9   1   0    3.11    0.46
 -10  -1   0   10.37    0.95
  10   1   0    8.35    0.83
  11  -2   0    0.37    0.33
 -11   2   0    1.17    0.48
 -11   2   0    0.94    0.45
  10  -2   0    1.81    0.48
  10  -2   0    0.87    0.39
 -10   2   0    2.05    0.53
 -10   2   0    1.33    0.52
   9  -2   0    1.45    0.41
   9  -2   0    1.15    0.38
  -9   2   0    0.51    0.31
  -9   2   0    1.94    0.54
   8  -2   0    4.03    0.62
   8  -2   0    4.15    0.64
  -8   2   0    3.59    0.25
  -8   2   0    3.58    0.26
  -8   2   0    4.62    0.71
  -8   2   0    4.55    0.62
   7  -2   0    4.85    0.62
   7  -2   0    6.45    0.71
  -7   2   0    5.38    0.40
  -7   2   0    6.00    0.43
  -7   2   0    5.66    0.75
  -7   2   0    5.85    0.68
   6  -2   0    1.32    0.32
   6  -2   0    1.27    0.30
  -6   2   0    1.21    0.25
  -6   2   0    1.62    0.27
  -6   2   0    1.69    0.37
  -6   2   0    2.30    0.40
  -6   2   0    1.08    0.21
   5  -2   0    1.14    0.29
   5  -2   0    0.91    0.25
  -5   2   0    1.02    0.23
  -5   2   0    0.69    0.20
  -5   2   0    0.74    0.26
  -5   2   0    0.86    0.22
  -5   2   0    1.12    0.26
  -5   2   0    1.19    0.23
   4  -2   0  132.41    4.08
   4  -2   0  132.85    4.11
   4  -2   0  135.45    4.30
  -4   2   0  127.97    4.31
  -4   2   0  135.49    4.04
  -4   2   0  133.25    4.02
  -4   2   0  131.27    4.05
  -4   2   0  130.49    4.06
  -4   2   0  129.76    4.45
   3  -2   0  114.33    3.39
   3  -2   0  108.29    3.39
   3  -2   0  108.12    3.55
  -3   2   0  110.56    3.72
  -3   2   0  108.14    3.34
  -3   2   0  104.26    3.34
  -3   2   0  112.89    3.59
  -3   2   0  105.97    3.37
  -3   2   0  109.35    3.35
   2  -2   0  231.33    6.90
   2  -2   0  230.81    6.59
   2  -2   0  225.43    6.61
  -2   2   0  237.42    6.62
  -2   2   0  224.16    6.60
  -2   2   0  222.10    7.36
  -2   2   0  228.27    6.53
  -2   2   0  228.28    6.59
  -2   2   0  230.80    6.91
   1  -2   0   29.19    1.03
   1  -2   0   25.14    1.07
   1  -2   0   28.58    1.03
  -1   2   0   28.10    1.13
  -1   2   0   29.04    1.04
  -1   2   0   30.74    1.04
  -1   2   0   29.42    1.04
  -1   2   0   30.08    1.12
   0  -2   0    1.07    0.21
   0  -2   0    0.81    0.13
   0  -2   0    0.91    0.16
   0  -2   0    0.95    0.19
   0  -2   0    0.93    0.15
   0  -2   0    1.02    0.14
   0  -2   0    0.71    0.13
   0   2   0    0.97    0.14
   0   2   0    1.12    0.18
   0   2   0    1.20    0.16
   0   2   0    0.84    0.14
  -1  -2   0  895.01   26.70
  -1  -2   0  953.61   27.48
  -1  -2   0  947.39   26.00
  -1  -2   0  906.59   26.00
  -1  -2   0  961.37   26.15
   1   2   0  910.40   26.30
   1   2   0  973.44   25.79
   1   2   0 1000.00   26.42
   1   2   0  971.13   27.39
  -2  -2   0  107.49    3.43
  -2  -2   0  109.42    3.61
  -2  -2   0  109.58    3.26
   2   2   0  111.93    3.07
   2   2   0  110.88    3.17
   2   2   0  110.75    3.06
  -3  -2   0    0.23    0.19
  -3  -2   0    0.29    0.08
  -3  -2   0    0.37    0.18
   3   2   0    0.17    0.15
  -4  -2   0    1.31    0.37
  -4  -2   0    1.52    0.17
  -4  -2   0    1.90    0.15
   4   2   0    1.83    0.13
   4   2   0    1.74    0.34
   4   2   0    1.59    0.12
  -5  -2   0    0.73    0.16
  -5  -2   0    0.65    0.11
  -5  -2   0    0.18    0.25
  -5  -2   0    1.06    0.15
   5   2   0    0.81    0.13
   5   2   0    0.87    0.13
   5   2   0    1.34    0.33
  -6  -2   0    2.72    0.27
  -6  -2   0    1.78    0.22
  -6  -2   0    1.94    0.54
   6   2   0    2.26    0.45
   6   2   0    2.86    0.29
   6   2   0    1.59    0.22
  -7  -2   0   15.85    1.63
  -7  -2   0   14.78    0.67
  -7  -2   0   12.50    0.65
   7   2   0   13.05    0.65
   7   2   0   13.76    0.67
  -8  -2   0    1.97    0.33
  -8  -2   0    1.59    0.29
   8   2   0    1.32    0.26
  -9  -2   0   16.57    0.90
   9   2   0   14.69    0.84
 -10  -2   0   12.14    0.84
  10   2   0   13.22    0.83
  11  -3   0    7.04    1.05
  11  -3   0    7.32    1.07
 -11   3   0    6.65    1.08
 -11   3   0    8.34    1.11
  10  -3   0   10.60    1.19
  10  -3   0   12.67    1.28
 -10   3   0   15.99    1.45
 -10   3   0   14.75    1.54
   9  -3   0   10.89    1.11
   9  -3   0   11.42    1.15
  -9   3   0   10.59    1.24
  -9   3   0    9.58    0.58
  -9   3   0   11.44    0.63
  -9   3   0   12.79    1.22
   8  -3   0   23.37    1.36
   8  -3   0   23.47    1.37
  -8   3   0   24.07    1.14
  -8   3   0   24.59    1.14
  -8   3   0   24.43    1.54
  -8   3   0   26.82    1.44
   7  -3   0   65.93    2.50
   7  -3   0   62.30    2.51
  -7   3   0   65.29    2.54
  -7   3   0   66.26    2.33
  -7   3   0   58.82    2.67
  -7   3   0   60.58    2.28
   6  -3   0   26.53    1.36
   6  -3   0   27.15    1.35
  -6   3   0   28.98    1.29
  -6   3   0   30.72    1.56
  -6   3   0   28.96    1.24
  -6   3   0   27.08    1.37
  -6   3   0   29.98    1.37
  -6   3   0   27.85    1.31
   5  -3   0   25.23    1.20
   5  -3   0   24.60    1.22
  -5   3   0   23.78    1.14
  -5   3   0   23.34    1.20
  -5   3   0   27.41    1.36
  -5   3   0   25.91    1.15
  -5   3   0   23.37    1.19
  -5   3   0   25.65    1.19
   4  -3   0    3.68    0.48
   4  -3   0    3.26    0.48
   4  -3   0    3.35    0.45
  -4   3   0    3.40    0.50
  -4   3   0    2.81    0.41
  -4   3   0    3.11    0.44
  -4   3   0    3.22    0.42
  -4   3   0    3.14    0.42
  -4   3   0    3.79    0.47
   3  -3   0   50.16    1.83
   3  -3   0   50.40    1.94
   3  -3   0   50.21    1.84
  -3   3   0   53.33    1.86
  -3   3   0   49.51    1.84
  -3   3   0   50.47    1.83
  -3   3   0   47.97    1.97
  -3   3   0   52.79    1.99
  -3   3   0   47.85    1.80
   2  -3   0    0.06    0.11
   2  -3   0    0.11    0.13
   2  -3   0    0.16    0.14
  -2   3   0    0.26    0.15
  -2   3   0    0.07    0.12
  -2   3   0    0.11    0.15
  -2   3   0    0.04    0.13
  -2   3   0   -0.02    0.11
  -2   3   0   -0.12    0.09
   1  -3   0   39.81    1.42
   1  -3   0   40.12    1.42
   1  -3   0   39.69    1.42
   1  -3   0   39.26    1.51
  -1   3   0   43.47    1.47
  -1   3   0   39.35    1.44
  -1   3   0   40.37    1.55
   0  -3   0  160.87    4.53
   0  -3   0  151.15    4.53
   0  -3   0  158.35    4.78
   0  -3   0  153.44    4.53
   0  -3   0  154.70    4.55
   0  -3   0  161.06    4.67
   0  -3   0  153.82    4.78
   0   3   0  158.33    4.82
   0   3   0  152.15    4.58
   0   3   0  157.56    4.46
   0   3   0  156.84    4.56
  -1  -3   0  880.95   26.11
  -1  -3   0  941.60   25.49
  -1  -3   0  957.54   25.35
  -1  -3   0  907.98   26.64
  -1  -3   0  903.45   25.43
  -1  -3   0  901.62   25.43
   1   3   0  922.09   24.84
   1   3   0  896.29   25.82
   1   3   0  961.03   27.01
   1   3   0  942.38   25.60
   1   3   0  908.35   25.55
  -2  -3   0  223.67    6.22
  -2  -3   0  223.84    6.65
  -2  -3   0  223.92    6.95
  -2  -3   0  228.15    6.62
   2   3   0  223.11    6.32
   2   3   0  224.03    6.28
   2   3   0  223.56    6.33
  -3  -3   0  130.61    4.46
  -3  -3   0  125.19    4.19
  -3  -3   0  132.10    3.87
   3   3   0  130.73    3.68
   3   3   0  131.66    4.26
   3   3   0  130.56    3.68
   3   3   0  128.89    3.80
  -4  -3   0   73.05    2.22
  -4  -3   0   76.45    2.21
  -4  -3   0   71.76    2.97
   4   3   0   76.04    2.38
   4   3   0   74.45    2.15
   4   3   0   75.31    2.15
   4   3   0   75.71    2.75
  -5  -3   0   10.52    1.17
   5   3   0   10.25    0.92
   5   3   0    8.76    0.37
   5   3   0    9.01    0.37
  -6  -3   0    0.91    0.13
  -6  -3   0    0.97    0.44
   6   3   0    0.99    0.15
   6   3   0    1.10    0.16
  -7  -3   0    0.83    0.44
  -7  -3   0    0.35    0.12
  -7  -3   0    0.50    0.13
   7   3   0    0.22    0.10
   7   3   0    0.61    0.15
  -8  -3   0    0.01    0.10
  -8  -3   0    0.10    0.12
  -8  -3   0    0.33    0.44
   8   3   0    0.04    0.11
  -9  -3   0    4.41    0.48
   9   3   0    4.92    0.49
 -10  -3   0    1.54    0.33
  10   3   0    0.52    0.21
  11  -4   0    0.18    0.32
  11  -4   0    0.03    0.28
 -11   4   0    0.12    0.35
 -11   4   0    0.39    0.42
  10  -4   0    1.31    0.47
  10  -4   0    0.81    0.42
 -10   4   0    1.47    0.56
 -10   4   0    1.69    0.32
 -10   4   0    1.14    0.28
 -10   4   0    2.65    0.63
   9  -4   0   11.25    1.21
   9  -4   0    8.41    1.04
  -9   4   0    8.50    1.16
  -9   4   0    9.34    1.11
  -9   4   0    9.28    0.86
   8  -4   0   34.42    1.83
   8  -4   0   34.69    1.82
  -8   4   0   35.66    1.65
  -8   4   0   43.14    2.17
  -8   4   0   36.07    1.85
   7  -4   0   20.38    1.26
   7  -4   0   23.20    1.32
  -7   4   0   20.45    1.20
  -7   4   0   21.02    1.19
  -7   4   0   22.07    1.29
  -7   4   0   20.99    1.41
  -7   4   0   21.83    1.13
   6  -4   0   23.78    1.30
   6  -4   0   20.50    1.24
  -6   4   0   24.21    1.45
  -6   4   0   24.32    1.31
  -6   4   0   24.85    1.31
  -6   4   0   24.16    1.27
  -6   4   0   22.99    1.20
   5  -4   0   87.99    3.10
   5  -4   0   87.23    3.12
  -5   4   0   89.93    3.33
  -5   4   0   85.41    3.33
  -5   4   0   84.25    3.02
  -5   4   0   89.89    3.10
  -5   4   0   84.64    3.02
  -5   4   0   84.81    3.08
   4  -4   0   28.05    1.33
   4  -4   0   26.67    1.30
   4  -4   0   29.40    1.43
  -4   4   0   28.91    1.40
  -4   4   0   26.73    1.31
  -4   4   0   26.30    1.28
  -4   4   0   30.55    1.35
  -4   4   0   28.57    1.46
  -4   4   0   26.77    1.29
   3  -4   0    5.14    0.57
   3  -4   0    4.42    0.57
   3  -4   0    4.88    0.56
  -3   4   0    4.53    0.55
  -3   4   0    7.35    0.70
  -3   4   0    5.16    0.56
  -3   4   0    4.88    0.56
  -3   4   0    3.85    0.55
  -3   4   0    5.98    0.63
   2  -4   0    8.01    0.50
   2  -4   0    9.24    0.61
   2  -4   0    7.72    0.61
   2  -4   0    7.78    0.55
  -2   4   0    7.92    0.57
  -2   4   0    9.32    0.64
  -2   4   0    7.98    0.57
  -2   4   0    8.16    0.64
  -2   4   0    9.35    0.63
  -2   4   0    7.44    0.56
   1  -4   0   40.84    1.47
   1  -4   0   39.81    1.59
   1  -4   0   39.58    1.51
   1  -4   0   37.10    1.45
   1  -4   0   38.86    1.48
   1  -4   0   40.12    1.58
  -1   4   0   38.02    1.49
  -1   4   0   38.58    1.49
  -1   4   0   38.73    1.62
   0  -4   0   -0.12    0.07
   0  -4   0    0.03    0.09
   0  -4   0   -0.04    0.12
   0  -4   0    0.00    0.09
   0  -4   0    0.17    0.12
   0  -4   0   -0.06    0.15
   0   4   0   -0.11    0.11
   0   4   0   -0.05    0.10
   0   4   0    0.04    0.09
  -1  -4   0    0.92    0.19
  -1  -4   0    0.65    0.12
  -1  -4   0    0.79    0.13
  -1  -4   0    0.85    0.26
  -1  -4   0    1.50    0.38
   1   4   0    0.72    0.19
   1   4   0    0.96    0.19
   1   4   0    0.77    0.18
   1   4   0    1.06    0.21
   1   4   0    1.02    0.23
  -2  -4   0  147.03    4.20
  -2  -4   0  142.00    4.60
  -2  -4   0  140.28    4.85
  -2  -4   0  144.01    4.46
   2   4   0  147.99    4.21
   2   4   0  147.55    4.27
   2   4   0  149.65    4.26
   2   4   0  141.45    4.45
   2   4   0  141.60    4.25
  -3  -4   0    0.62    0.30
  -3  -4   0    1.03    0.15
  -3  -4   0    1.31    0.19
  -3  -4   0    1.99    0.48
   3   4   0    1.06    0.21
   3   4   0    1.51    0.19
   3   4   0    1.31    0.14
   3   4   0    1.39    0.18
  -4  -4   0    0.03    0.21
  -4  -4   0    0.09    0.06
  -4  -4   0    0.02    0.06
  -4  -4   0    0.03    0.17
   4   4   0    0.06    0.06
   4   4   0    0.20    0.08
   4   4   0    0.12    0.12
   4   4   0    0.05    0.17
  -5  -4   0   10.58    1.26
  -5  -4   0    8.78    0.35
   5   4   0    8.43    0.38
   5   4   0    8.49    0.38
   5   4   0    8.92    0.57
   5   4   0    7.31    0.88
   5   4   0    9.85    0.40
  -6  -4   0    2.51    0.71
  -6  -4   0    2.56    0.18
  -6  -4   0    2.60    0.18
   6   4   0    2.51    0.22
   6   4   0    2.92    0.41
   6   4   0    2.50    0.22
  -7  -4   0    4.57    0.99
  -7  -4   0    5.39    0.32
  -7  -4   0    4.91    0.32
   7   4   0    5.74    0.32
   7   4   0    5.44    0.31
  -8  -4   0    8.45    0.49
  -8  -4   0    9.24    0.51
  -8  -4   0   11.73    1.67
   8   4   0    8.30    0.45
   8   4   0    9.68    0.47
  -9  -4   0    6.66    1.33
  -9  -4   0    3.56    0.41
  -9  -4   0    5.18    0.47
   9   4   0    3.87    0.36
  11  -5   0    2.70    0.75
  11  -5   0    3.83    0.81
 -11   5   0    3.80    0.53
 -11   5   0    5.06    1.05
  10  -5   0    4.79    0.88
  10  -5   0    5.59    0.95
 -10   5   0    4.69    0.95
 -10   5   0    4.08    0.61
 -10   5   0    5.13    0.91
   9  -5   0   19.76    1.40
   9  -5   0   18.41    1.36
  -9   5   0   15.75    1.52
  -9   5   0   18.31    1.19
  -9   5   0   21.32    1.64
   8  -5   0   12.58    1.26
   8  -5   0   11.04    1.17
  -8   5   0   12.63    0.97
  -8   5   0   11.93    1.38
  -8   5   0   11.53    1.21
  -8   5   0   12.41    1.14
   7  -5   0   21.96    1.38
   7  -5   0   23.00    1.40
  -7   5   0   21.77    1.35
  -7   5   0   23.27    1.42
  -7   5   0   22.61    1.54
  -7   5   0   24.24    1.37
  -7   5   0   23.55    1.30
   6  -5   0   60.04    2.47
   6  -5   0   58.22    2.49
  -6   5   0   56.33    2.67
  -6   5   0   58.57    2.47
  -6   5   0   61.31    2.42
  -6   5   0   62.73    2.63
  -6   5   0   58.30    2.44
   5  -5   0    7.19    0.82
   5  -5   0    6.60    0.78
  -5   5   0    8.32    0.90
  -5   5   0    9.02    0.91
  -5   5   0    9.72    0.96
  -5   5   0    7.72    0.81
  -5   5   0    8.17    0.96
   4  -5   0    6.28    0.73
   4  -5   0    6.51    0.70
  -4   5   0    6.44    0.76
  -4   5   0    6.16    0.71
  -4   5   0    9.12    0.87
  -4   5   0    6.97    0.84
  -4   5   0    5.97    0.69
  -4   5   0    7.15    0.80
   3  -5   0   43.13    1.84
   3  -5   0   47.43    1.68
   3  -5   0   44.98    1.84
  -3   5   0   47.97    2.04
  -3   5   0   41.13    1.82
  -3   5   0   43.34    2.00
  -3   5   0   45.09    1.86
  -3   5   0   43.08    1.82
  -3   5   0   47.32    1.91
   2  -5   0   57.78    2.18
   2  -5   0   60.77    2.15
   2  -5   0   62.31    2.22
  -2   5   0   59.59    2.20
  -2   5   0   59.71    2.42
  -2   5   0   59.10    2.23
  -2   5   0   58.00    2.24
  -2   5   0   61.22    2.43
  -2   5   0   57.41    2.21
   1  -5   0   59.36    2.13
   1  -5   0   60.23    2.27
   1  -5   0   62.90    2.18
   1  -5   0   59.40    2.15
   1  -5   0   62.04    2.27
  -1   5   0   59.12    2.20
  -1   5   0   59.92    2.36
  -1   5   0   61.71    2.21
   0  -5   0   34.81    1.32
   0  -5   0   31.32    1.36
   0  -5   0   35.28    1.59
   0  -5   0   36.45    1.54
   0  -5   0   34.92    1.28
   0  -5   0   33.38    1.29
   0   5   0   32.67    1.37
   0   5   0   36.17    1.53
   0   5   0   33.86    1.38
  -1  -5   0  161.58    5.08
  -1  -5   0  162.13    5.33
  -1  -5   0  158.39    4.81
  -1  -5   0  157.66    4.60
  -1  -5   0  161.03    4.61
   1   5   0  161.96    4.84
   1   5   0  160.62    5.12
   1   5   0  159.83    4.85
   1   5   0  156.73    4.84
   1   5   0  164.06    4.77
  -2  -5   0  300.91    8.70
  -2  -5   0  296.94    9.53
  -2  -5   0  317.65    9.16
  -2  -5   0  308.47    9.18
   2   5   0  307.67    8.79
   2   5   0  309.82    8.66
   2   5   0  308.60    8.81
   2   5   0  295.57    9.28
   2   5   0  307.92    8.74
  -3  -5   0   35.86    1.29
  -3  -5   0   37.06    1.95
  -3  -5   0   36.18    1.74
   3   5   0   35.54    1.30
   3   5   0   35.50    1.39
   3   5   0   36.43    1.27
   3   5   0   35.69    1.31
  -4  -5   0    3.95    0.67
  -4  -5   0    3.39    0.72
  -4  -5   0    4.74    0.31
   4   5   0    4.36    0.32
   4   5   0    4.14    0.36
   4   5   0    4.68    0.72
   4   5   0    4.87    0.50
  -5  -5   0   18.24    1.78
  -5  -5   0   21.17    0.80
   5   5   0   20.60    0.81
   5   5   0   20.95    1.02
   5   5   0   23.37    0.84
   5   5   0   22.77    1.41
  -6  -5   0    7.58    0.40
  -6  -5   0    7.18    1.21
  -6  -5   0    7.40    0.40
   6   5   0    7.51    0.39
   6   5   0    8.43    0.40
  -7  -5   0    1.56    0.21
  -7  -5   0    1.73    0.21
  -7  -5   0    0.85    0.54
   7   5   0    1.52    0.18
   7   5   0    1.33    0.18
  -8  -5   0    1.13    0.20
  -8  -5   0    0.45    0.51
  -8  -5   0    0.93    0.20
   8   5   0    0.99    0.14
   8   5   0    0.96    0.14
  -9  -5   0    1.33    0.23
  -9  -5   0    1.12    0.74
  -9  -5   0    0.87    0.21
  10  -6   0    2.61    0.72
  10  -6   0    2.69    0.68
 -10   6   0    4.08    0.71
 -10   6   0    3.66    0.91
   9  -6   0   23.21    1.59
   9  -6   0   17.09    1.68
  -9   6   0   20.19    1.34
  -9   6   0   17.96    1.90
  -9   6   0   20.23    1.36
   8  -6   0   30.73    1.78
   8  -6   0   28.12    1.71
  -8   6   0   27.79    1.53
  -8   6   0   24.37    1.58
  -8   6   0   28.50    1.93
  -8   6   0   26.84    1.60
   7  -6   0   43.16    2.15
   7  -6   0   45.92    2.22
  -7   6   0   46.15    2.10
  -7   6   0   45.18    2.24
  -7   6   0   43.79    2.13
  -7   6   0   39.75    2.35
   6  -6   0    5.35    0.77
   6  -6   0    6.28    0.84
  -6   6   0    5.10    0.74
  -6   6   0    6.56    0.90
  -6   6   0    5.07    0.87
  -6   6   0    5.47    0.81
   5  -6   0    3.78    0.62
   5  -6   0    6.19    0.81
  -5   6   0    6.04    0.89
  -5   6   0    7.39    0.86
  -5   6   0    6.00    0.81
  -5   6   0    7.54    0.92
   4  -6   0   38.82    1.82
   4  -6   0   38.22    1.80
   4  -6   0   39.56    1.57
  -4   6   0   39.77    1.84
  -4   6   0   38.15    1.79
  -4   6   0   40.95    1.96
  -4   6   0   38.17    1.83
  -4   6   0   39.09    2.02
   3  -6   0   55.83    2.20
   3  -6   0   55.87    2.23
   3  -6   0   50.10    2.14
   3  -6   0   55.24    2.05
  -3   6   0   54.16    2.39
  -3   6   0   53.49    2.22
  -3   6   0   51.45    2.18
  -3   6   0   51.90    2.39
   2  -6   0    4.03    0.64
   2  -6   0    3.77    0.59
   2  -6   0    3.31    0.51
   2  -6   0    4.34    0.58
   2  -6   0    2.80    0.48
   2  -6   0    4.32    0.57
  -2   6   0    4.24    0.59
  -2   6   0    4.92    0.73
  -2   6   0    3.38    0.55
  -2   6   0    3.76    0.61
   1  -6   0    2.21    0.36
   1  -6   0    1.96    0.41
   1  -6   0    1.99    0.37
   1  -6   0    2.33    0.46
   1  -6   0    1.73    0.32
  -1   6   0    1.87    0.39
  -1   6   0    1.99    0.43
  -1   6   0    2.23    0.40
   0  -6   0    0.09    0.14
   0  -6   0   -0.03    0.10
   0  -6   0    0.41    0.26
   0  -6   0   -0.01    0.10
   0  -6   0    0.11    0.11
   0  -6   0   -0.08    0.13
   0   6   0    0.08    0.13
   0   6   0    0.09    0.14
   0   6   0    0.02    0.16
  -1  -6   0   24.51    1.46
  -1  -6   0   26.15    1.37
  -1  -6   0   25.98    0.94
  -1  -6   0   24.40    1.17
  -1  -6   0   25.58    0.94
   1   6   0   27.49    1.20
   1   6   0   25.41    1.16
   1   6   0   25.52    1.15
  -2  -6   0   53.99    2.36
  -2  -6   0   56.76    2.05
  -2  -6   0   57.39    2.62
   2   6   0   55.64    2.05
   2   6   0   59.12    2.05
   2   6   0   57.66    2.07
   2   6   0   59.21    2.07
  -3  -6   0    1.79    0.53
  -3  -6   0    1.19    0.41
  -3  -6   0    1.97    0.30
   3   6   0    1.93    0.35
   3   6   0    1.49    0.27
   3   6   0    1.69    0.28
  -4  -6   0    6.19    0.45
  -4  -6   0    7.96    1.04
  -4  -6   0    4.64    0.91
   4   6   0    8.52    1.04
   4   6   0    6.09    0.45
   4   6   0    7.48    0.67
   4   6   0    6.02    0.45
  -5  -6   0   11.13    1.44
  -5  -6   0   12.84    0.65
   5   6   0   12.07    0.63
   5   6   0   13.14    0.64
  -6  -6   0   10.67    1.56
  -6  -6   0   12.66    0.63
  -6  -6   0   13.29    0.64
   6   6   0   13.26    0.60
   6   6   0   13.07    0.62
  -7  -6   0    7.05    0.43
  -7  -6   0    6.93    0.43
  -7  -6   0    4.60    1.08
   7   6   0    7.09    0.37
   7   6   0    6.78    0.38
  -8  -6   0    0.22    0.13
  -8  -6   0   -0.05    0.41
  -8  -6   0    0.52    0.16
  10  -7   0    4.90    0.94
 -10   7   0    3.32    0.74
 -10   7   0    3.50    0.95
   9  -7   0    0.10    0.33
  -9   7   0    0.00    0.34
  -9   7   0    0.10    0.28
  -9   7   0    0.31    0.29
   8  -7   0    0.76    0.39
  -8   7   0    0.68    0.37
  -8   7   0    0.37    0.35
  -8   7   0    0.63    0.47
  -8   7   0    0.54    0.38
   7  -7   0    9.80    1.18
  -7   7   0   10.12    1.17
  -7   7   0   10.45    1.22
  -7   7   0   10.32    1.15
  -7   7   0    8.57    1.26
   6  -7   0    3.14    0.65
  -6   7   0    4.13    0.73
  -6   7   0    2.71    0.69
  -6   7   0    3.29    0.63
   5  -7   0    0.29    0.24
  -5   7   0    0.10    0.20
  -5   7   0    0.42    0.36
  -5   7   0   -0.01    0.21
   4  -7   0   13.89    0.85
   4  -7   0   13.04    1.20
   4  -7   0   13.90    1.03
  -4   7   0   13.37    1.21
  -4   7   0   15.42    1.47
  -4   7   0   13.74    1.26
   3  -7   0   20.46    1.14
   3  -7   0   19.94    1.21
   3  -7   0   22.70    1.29
  -3   7   0   18.93    1.22
  -3   7   0   22.40    1.43
  -3   7   0   20.61    1.26
   2  -7   0   47.21    2.01
   2  -7   0   45.59    1.91
   2  -7   0   48.11    1.97
   2  -7   0   44.67    2.03
  -2   7   0   40.28    1.93
  -2   7   0   49.17    2.23
  -2   7   0   41.20    1.95
   1  -7   0   13.51    0.81
   1  -7   0   14.65    1.03
   1  -7   0   14.19    1.01
   1  -7   0   13.93    0.85
   1  -7   0   13.16    0.86
  -1   7   0   14.02    0.94
  -1   7   0   11.69    0.88
  -1   7   0   13.58    1.03
   0  -7   0    0.27    0.24
   0  -7   0   -0.15    0.22
   0  -7   0    0.16    0.16
   0  -7   0    0.14    0.13
   0   7   0    0.18    0.20
   0   7   0    0.02    0.17
  -1  -7   0    0.08    0.08
  -1  -7   0    0.14    0.30
  -1  -7   0    0.05    0.23
  -1  -7   0    0.23    0.10
   1   7   0    0.23    0.19
   1   7   0    0.19    0.18
  -2  -7   0   13.75    1.27
  -2  -7   0   12.55    1.40
   2   7   0   13.35    0.83
   2   7   0   14.59    0.85
   2   7   0   12.48    0.80
  -3  -7   0   97.26    3.34
  -3  -7   0  100.67    4.20
  -3  -7   0   99.16    3.79
   3   7   0   97.98    3.28
   3   7   0  100.44    3.32
  -4  -7   0    4.99    0.55
  -4  -7   0    5.73    1.05
  -4  -7   0    5.78    0.92
   4   7   0    4.69    0.51
   4   7   0    4.89    0.87
  -5  -7   0   -0.16    0.27
  -5  -7   0   -0.07    0.13
   5   7   0    0.09    0.13
  -6  -7   0    0.00    0.38
  -6  -7   0    0.23    0.14
  -6  -7   0    0.31    0.18
   6   7   0    0.15    0.12
  -7  -7   0   -0.06    0.51
  -7  -7   0   -0.05    0.12
  -7  -7   0   -0.11    0.12
   7   7   0    0.06    0.10
   9  -8   0    1.72    0.60
  -9   8   0    3.22    0.78
  -9   8   0    4.25    0.84
  -9   8   0    3.38    0.96
   8  -8   0   13.66    1.51
  -8   8   0   12.78    1.36
  -8   8   0   15.21    1.86
  -8   8   0   17.39    1.43
   7  -8   0   23.51    1.62
  -7   8   0   24.50    1.86
  -7   8   0   22.15    1.63
  -7   8   0   22.39    1.53
   6  -8   0   53.88    2.60
  -6   8   0   57.46    2.96
  -6   8   0   54.21    2.56
   5  -8   0   43.32    2.18
  -5   8   0   48.82    2.55
  -5   8   0   40.72    2.13
   4  -8   0   14.24    1.32
   4  -8   0   13.92    1.31
  -4   8   0   12.26    1.23
  -4   8   0   12.31    1.25
  -4   8   0   10.88    1.31
   3  -8   0   15.50    1.08
   3  -8   0   14.99    1.09
   3  -8   0   14.35    1.33
   3  -8   0   13.03    0.99
  -3   8   0   16.37    1.56
  -3   8   0   14.27    1.30
  -3   8   0   15.68    1.12
   2  -8   0    0.99    0.37
   2  -8   0    0.79    0.31
   2  -8   0    0.82    0.31
   2  -8   0    0.81    0.38
  -2   8   0    1.43    0.41
  -2   8   0    0.99    0.36
  -2   8   0    0.40    0.31
   1  -8   0    6.42    0.70
   1  -8   0    6.72    0.70
   1  -8   0    6.94    0.94
   1  -8   0    8.07    0.94
  -1   8   0    7.36    0.88
  -1   8   0    5.88    0.78
   0  -8   0   19.26    1.29
   0  -8   0   20.22    1.00
   0  -8   0   18.22    0.97
   0  -8   0   19.40    1.40
   0   8   0   21.09    1.20
   0   8   0   20.26    1.21
  -1  -8   0   10.73    1.10
  -1  -8   0    9.06    1.18
  -1  -8   0    9.04    0.39
  -1  -8   0    9.65    0.41
   1   8   0    8.32    0.83
   1   8   0    8.92    0.90
  -2  -8   0   51.48    2.42
  -2  -8   0   49.94    2.70
   2   8   0   52.23    2.11
   2   8   0   52.59    2.14
  -3  -8   0   83.21    3.39
  -3  -8   0   78.97    3.75
   3   8   0   78.02    2.86
  -4  -8   0   11.83    1.58
  -4  -8   0   17.41    1.64
   4   8   0   15.96    1.66
   4   8   0   15.08    0.88
  -5  -8   0    2.55    0.92
   5   8   0    3.37    0.46
  -6  -8   0    2.12    0.84
  -6  -8   0    2.94    0.43
   6   8   0    2.39    0.36
   9  -9   0    0.43    0.43
  -9   9   0   -0.49    0.31
  -9   9   0   -0.03    0.35
  -9   9   0    0.24    0.39
   8  -9   0    5.33    0.99
  -8   9   0    4.25    0.91
  -8   9   0    4.63    1.11
  -8   9   0    5.12    0.93
   7  -9   0   15.22    1.64
  -7   9   0   15.93    1.62
  -7   9   0   13.25    1.77
   6  -9   0   27.13    1.78
  -6   9   0   29.80    1.82
  -6   9   0   27.86    2.05
   5  -9   0    7.83    1.04
  -5   9   0    7.68    1.04
  -5   9   0    5.93    1.06
   4  -9   0    0.38    0.32
   4  -9   0    0.49    0.33
  -4   9   0    0.43    0.38
  -4   9   0    0.21    0.29
   3  -9   0    4.02    0.68
   3  -9   0    4.62    0.71
   3  -9   0    3.87    0.67
  -3   9   0    3.00    0.61
  -3   9   0    5.07    0.82
   2  -9   0    9.39    0.95
   2  -9   0   10.05    1.00
   2  -9   0   10.11    1.15
  -2   9   0    8.72    1.00
  -2   9   0    8.91    1.03
   1  -9   0   19.54    1.16
   1  -9   0   22.18    1.50
  -1   9   0   21.53    1.34
  -1   9   0   20.41    1.34
   0  -9   0   11.41    1.23
   0  -9   0   12.20    0.74
   0  -9   0   10.62    0.71
   0  -9   0   12.50    1.43
   0   9   0   10.39    1.03
   0   9   0   11.51    1.14
  -1  -9   0    5.50    1.06
  -1  -9   0    4.25    0.80
   1   9   0    4.85    0.70
   1   9   0    3.12    0.57
  -2  -9   0    4.44    0.84
  -2  -9   0    4.26    0.93
   2   9   0    4.63    0.70
   2   9   0    2.77    0.51
  -3  -9   0    0.13    0.33
  -3  -9   0    0.62    0.47
   3   9   0    0.55    0.25
  -4  -9   0    4.53    1.07
  -4  -9   0    4.77    0.89
   4   9   0    3.37    0.52
  -5  -9   0    0.64    0.59
  -5  -9   0    0.70    0.29
   5   9   0    0.18    0.19
   8 -10   0    7.68    1.23
   7 -10   0    4.33    0.91
  -7  10   0    7.02    1.31
  -7  10   0    5.25    0.98
   6 -10   0   -0.09    0.31
  -6  10   0    0.09    0.29
  -6  10   0   -0.38    0.35
   5 -10   0    1.91    0.57
  -5  10   0    2.11    0.76
  -5  10   0    2.39    0.66
   4 -10   0    1.03    0.48
   4 -10   0    0.77    0.43
  -4  10   0    0.74    0.43
   3 -10   0    0.10    0.29
  -3  10   0    0.04    0.30
  -3  10   0    0.26    0.28
   2 -10   0   -0.11    0.27
   2 -10   0    0.08    0.22
  -2  10   0    0.21    0.25
  -2  10   0   -0.08    0.26
   1 -10   0    8.42    0.87
   1 -10   0    9.09    1.27
  -1  10   0    8.27    1.04
  -1  10   0    6.86    0.95
   0 -10   0    7.92    0.58
   0 -10   0    6.76    1.14
   0 -10   0    8.44    0.59
   0  10   0    9.10    1.07
   0  10   0    8.65    1.04
  -1 -10   0    3.53    0.90
   1  10   0    3.40    0.68
   1  10   0    4.51    0.73
  -2 -10   0    0.49    0.55
   2  10   0    0.14    0.26
  -3 -10   0    5.48    1.24
   3  10   0    5.19    0.72
  -4 -10   0   19.53    2.08
  -4 -10   0   21.09    2.43
   4  10   0   20.66    1.24
   6 -11   0   13.57    1.55
  -6  11   0   12.51    1.52
   5 -11   0   16.40    1.65
  -5  11   0   16.54    1.73
   4 -11   0   17.92    1.68
  -4  11   0   19.56    1.87
   3 -11   0    6.60    0.93
  -3  11   0    6.98    1.10
  -3  11   0    7.77    1.12
   2 -11   0   10.41    1.12
  -2  11   0   10.99    1.35
  -2  11   0    8.82    1.18
   1 -11   0    0.96    0.32
   1 -11   0    1.19    0.62
  -1  11   0    1.05    0.46
  -1  11   0    1.95    0.60
   0 -11   0   -0.03    0.11
   0 -11   0   -0.03    0.38
   0 -11   0    0.02    0.11
   0  11   0   -0.29    0.25
   0  11   0   -0.02    0.30
  -1 -11   0    0.09    0.36
   1  11   0    0.46    0.37
   1  11   0    0.79    0.41
  -2 -11   0    1.91    0.84
   2  11   0    1.58    0.46
   3 -12   0    1.07    0.51
   2 -12   0    1.64    0.47
  -2  12   0    1.57    0.65
  -2  12   0    1.66    0.62
   1 -12   0    1.28    0.35
  -1  12  -1   -0.13    0.31
  -1  12  -1   -0.04    0.27
   1 -12   1   -0.21    0.17
  -2  12  -1    1.73    0.60
  -2  12  -1    0.48    0.39
   2 -12   1    1.68    0.48
  -3  12  -1    1.20    0.62
   3 -12   1    0.43    0.40
   2  11  -1    0.56    0.33
  -2 -11   1    0.21    0.49
   1  11  -1    3.22    0.66
   1  11  -1    3.03    0.68
  -1 -11   1    3.47    0.96
   0  11  -1    2.87    0.68
   0  11  -1    5.59    0.89
   0 -11   1    5.52    1.11
   0 -11   1    5.21    0.38
   0 -11   1    5.04    0.37
  -1  11  -1   11.32    1.31
  -1  11  -1   12.99    1.36
   1 -11   1   10.67    0.97
  -2  11  -1   12.55    1.44
  -2  11  -1   13.96    1.41
   2 -11   1   12.27    1.16
  -3  11  -1    8.38    1.16
  -3  11  -1    8.29    1.17
   3 -11   1    7.34    1.00
  -4  11  -1    0.69    0.41
   4 -11   1    0.03    0.32
  -5  11  -1    0.27    0.36
   5 -11   1    1.05    0.51
  -6  11  -1    0.53    0.39
   6 -11   1    0.16    0.38
   4  10  -1    0.15    0.24
  -4 -10   1    0.08    0.39
  -4 -10   1    0.22    0.41
   3  10  -1    0.33    0.28
  -3 -10   1   -0.01    0.35
  -3 -10   1    0.19    0.49
   2  10  -1    3.42    0.60
  -2 -10   1    3.83    0.94
  -2 -10   1    3.05    0.76
   1  10  -1   -0.17    0.23
   1  10  -1    0.37    0.27
  -1 -10   1   -0.26    0.27
  -1 -10   1    0.20    0.36
   0  10  -1    7.48    0.98
   0  10  -1    8.65    1.02
   0 -10   1    7.99    0.58
   0 -10   1    8.26    0.58
   0 -10   1    8.23    1.18
   0 -10   1    7.58    1.18
  -1  10  -1   10.62    1.20
  -1  10  -1   11.41    1.23
   1 -10   1   12.02    1.38
   1 -10   1   10.60    0.97
  -2  10  -1   16.02    1.51
  -2  10  -1   18.79    1.37
   2 -10   1   15.17    1.11
  -3  10  -1    6.51    0.96
  -3  10  -1    5.48    0.91
   3 -10   1    6.86    0.94
  -4  10  -1    0.02    0.29
   4 -10   1    0.29    0.36
   4 -10   1    0.23    0.31
  -5  10  -1    8.87    1.19
  -5  10  -1   10.79    1.56
   5 -10   1    9.03    1.15
  -6  10  -1    3.60    0.84
  -6  10  -1    3.17    0.91
   6 -10   1    3.21    0.74
  -7  10  -1    4.23    0.86
  -7  10  -1    4.91    1.11
   7 -10   1    4.31    0.92
   6   9  -1    0.03    0.16
  -6  -9   1    0.25    0.58
   5   9  -1    0.85    0.30
  -5  -9   1    0.90    0.64
  -5  -9   1    0.00    0.39
   4   9  -1   10.35    0.92
  -4  -9   1   11.37    1.42
  -4  -9   1    9.67    1.55
   3   9  -1   26.17    1.38
   3   9  -1   27.82    1.48
  -3  -9   1   30.16    2.14
  -3  -9   1   25.76    1.80
   2   9  -1    7.40    0.85
   2   9  -1    7.35    0.84
  -2  -9   1    8.84    1.17
  -2  -9   1    9.54    1.38
   1   9  -1   12.53    1.15
   1   9  -1    9.36    0.98
  -1  -9   1    9.77    1.33
  -1  -9   1   10.53    1.25
   0   9  -1   22.17    1.39
   0   9  -1   23.82    1.42
   0  -9   1   25.32    1.63
   0  -9   1   24.03    1.67
   0  -9   1   23.69    1.12
   0  -9   1   25.23    1.15
  -1   9  -1   12.64    1.22
  -1   9  -1   15.12    1.12
   1  -9   1   15.11    1.45
   1  -9   1   14.57    1.46
   1  -9   1   13.85    0.93
  -2   9  -1    4.75    0.75
  -2   9  -1    3.87    0.70
   2  -9   1    3.72    0.61
   2  -9   1    3.81    0.71
   2  -9   1    4.86    0.87
   2  -9   1    2.92    0.54
  -3   9  -1    1.50    0.48
  -3   9  -1    0.55    0.34
   3  -9   1    1.36    0.49
   3  -9   1    1.43    0.43
   3  -9   1    0.53    0.38
  -4   9  -1    0.41    0.39
  -4   9  -1    0.99    0.41
   4  -9   1    0.34    0.32
   4  -9   1    0.94    0.40
   4  -9   1    2.43    0.68
  -5   9  -1    0.46    0.42
  -5   9  -1    0.39    0.31
   5  -9   1    0.39    0.34
  -6   9  -1    6.12    1.13
  -6   9  -1    6.12    0.92
   6  -9   1    4.47    0.87
  -7   9  -1    7.83    1.12
  -7   9  -1    5.31    1.16
   7  -9   1    8.70    1.19
  -8   9  -1    7.08    1.13
  -8   9  -1    6.51    1.30
  -8   9  -1    6.91    1.16
   8  -9   1    7.51    1.19
   7   8  -1    2.03    0.26
  -7  -8   1    2.65    0.37
  -7  -8   1    2.36    0.95
   6   8  -1    0.14    0.15
  -6  -8   1   -0.23    0.39
   5   8  -1    0.92    0.25
  -5  -8   1    0.50    0.55
  -5  -8   1    0.31    0.41
  -4  -8   1    2.46    0.68
  -4  -8   1    3.28    0.90
   3   8  -1    3.70    0.57
   3   8  -1    3.06    0.48
  -3  -8   1    2.79    0.80
  -3  -8   1    3.41    0.73
   2   8  -1    5.92    0.68
   2   8  -1    8.82    0.87
   2   8  -1    9.78    0.93
  -2  -8   1    7.77    1.14
  -2  -8   1    8.32    1.07
   1   8  -1   12.01    0.86
   1   8  -1   10.03    0.92
  -1  -8   1   13.89    1.36
  -1  -8   1   10.98    0.45
  -1  -8   1   10.94    0.46
  -1  -8   1   10.04    1.25
   0   8  -1    0.31    0.19
   0   8  -1    0.68    0.29
   0  -8   1    0.28    0.18
   0  -8   1    0.26    0.31
   0  -8   1   -0.04    0.25
   0  -8   1    0.37    0.20
  -1   8  -1    5.42    0.74
  -1   8  -1    4.69    0.66
   1  -8   1    6.01    0.92
   1  -8   1    6.04    0.65
   1  -8   1    6.14    0.85
   1  -8   1    4.94    0.60
  -2   8  -1   21.38    1.43
  -2   8  -1   21.53    1.31
  -2   8  -1   18.83    1.23
   2  -8   1   20.34    1.25
   2  -8   1   21.20    1.21
   2  -8   1   18.47    1.18
   2  -8   1   19.23    1.37
  -3   8  -1   48.96    2.41
  -3   8  -1   44.30    2.12
  -3   8  -1   44.81    2.12
   3  -8   1   44.06    2.04
   3  -8   1   39.45    2.21
   3  -8   1   45.92    2.11
  -4   8  -1   24.63    1.53
  -4   8  -1   24.67    1.70
  -4   8  -1   22.94    1.47
   4  -8   1   24.28    1.48
   4  -8   1   26.21    1.52
  -5   8  -1    0.14    0.23
  -5   8  -1    0.03    0.34
   5  -8   1    0.03    0.24
  -6   8  -1   16.65    1.78
  -6   8  -1   20.58    1.42
   6  -8   1   19.34    1.40
  -7   8  -1    0.65    0.46
  -7   8  -1    0.00    0.30
  -7   8  -1   -0.27    0.28
   7  -8   1    0.21    0.33
  -8   8  -1    0.05    0.34
  -8   8  -1   -0.08    0.31
  -8   8  -1    0.31    0.44
   8  -8   1    0.08    0.36
  -9   8  -1    0.35    0.38
  -9   8  -1   -0.05    0.35
  -9   8  -1    0.16    0.41
   9  -8   1   -0.27    0.27
  -8  -7   1    0.69    0.16
  -8  -7   1    1.83    0.85
  -8  -7   1    1.11    0.19
   7   7  -1    7.69    0.37
  -7  -7   1    7.70    0.47
  -7  -7   1    7.44    0.46
  -7  -7   1    6.55    1.37
   6   7  -1    4.25    0.39
  -6  -7   1    4.11    1.02
  -6  -7   1    4.32    0.43
   5   7  -1    4.09    0.44
  -5  -7   1    4.96    0.92
  -5  -7   1    4.15    0.95
  -5  -7   1    4.62    0.47
   4   7  -1   17.57    0.89
   4   7  -1   18.36    1.05
  -4  -7   1   15.50    1.73
  -4  -7   1   19.90    0.95
  -4  -7   1   16.89    1.57
   3   7  -1   20.90    1.02
   3   7  -1   19.10    1.09
  -3  -7   1   20.50    1.41
  -3  -7   1   21.94    1.61
  -3  -7   1   21.35    1.05
   2   7  -1   34.80    1.45
   2   7  -1   33.12    1.49
   2   7  -1   30.12    1.40
  -2  -7   1   33.79    1.96
  -2  -7   1   34.61    1.80
   1   7  -1   10.40    0.74
   1   7  -1    8.39    0.77
   1   7  -1   10.87    0.74
  -1  -7   1    9.41    0.47
  -1  -7   1   10.02    0.47
  -1  -7   1    8.75    1.08
  -1  -7   1    9.13    1.06
   0   7  -1    7.83    0.79
   0   7  -1    7.96    0.80
   0  -7   1    6.52    0.87
   0  -7   1    7.60    0.55
   0  -7   1    7.45    0.55
   0  -7   1    8.75    1.01
  -1   7  -1    0.43    0.26
  -1   7  -1    0.47    0.24
  -1   7  -1    0.26    0.19
   1  -7   1    0.34    0.21
   1  -7   1    0.29    0.20
   1  -7   1    0.36    0.26
   1  -7   1    0.38    0.28
   1  -7   1    0.55    0.21
  -2   7  -1    3.84    0.63
  -2   7  -1    3.90    0.66
  -2   7  -1    4.19    0.62
   2  -7   1    4.06    0.72
   2  -7   1    4.89    0.63
   2  -7   1    3.65    0.55
   2  -7   1    4.02    0.64
   2  -7   1    3.85    0.60
  -3   7  -1    3.77    0.62
  -3   7  -1    2.62    0.58
  -3   7  -1    3.19    0.57
   3  -7   1    4.06    0.54
   3  -7   1    3.71    0.62
   3  -7   1    3.52    0.57
   3  -7   1    3.33    0.63
  -4   7  -1   17.09    1.16
  -4   7  -1   16.91    1.30
  -4   7  -1   18.00    1.19
   4  -7   1   18.34    1.30
   4  -7   1   17.73    1.18
  -5   7  -1    1.08    0.42
  -5   7  -1    0.11    0.22
  -5   7  -1    0.51    0.33
   5  -7   1    0.14    0.24
  -6   7  -1    3.98    0.82
  -6   7  -1    5.41    0.81
  -6   7  -1    6.26    0.92
   6  -7   1    4.94    0.79
  -7   7  -1    3.46    0.74
  -7   7  -1    3.71    0.71
  -7   7  -1    3.00    0.74
  -7   7  -1    2.98    0.64
   7  -7   1    3.09    0.68
  -8   7  -1    6.68    0.96
  -8   7  -1   10.18    1.20
  -8   7  -1    7.29    0.97
  -8   7  -1    5.92    1.07
   8  -7   1    8.54    1.14
  -9   7  -1    8.44    1.36
  -9   7  -1    9.06    1.13
  -9   7  -1    9.74    1.16
   9  -7   1    6.88    1.08
 -10   7  -1    0.31    0.31
 -10   7  -1   -0.30    0.27
 -10   7  -1   -0.33    0.43
  10  -7   1   -0.23    0.32
  -8  -6   1   -0.12    0.45
  -7  -6   1    0.20    0.10
  -7  -6   1    0.03    0.44
  -7  -6   1    0.14    0.10
   6   6  -1    0.12    0.09
   6   6  -1    0.20    0.10
  -6  -6   1    0.17    0.46
  -6  -6   1    0.35    0.14
   5   6  -1    0.06    0.09
   5   6  -1   -0.08    0.15
   5   6  -1    0.01    0.09
  -5  -6   1    0.16    0.35
  -5  -6   1    0.02    0.22
  -5  -6   1    0.05    0.10
   4   6  -1    2.56    0.42
   4   6  -1    2.26    0.30
   4   6  -1    1.94    0.28
  -4  -6   1    1.51    0.47
  -4  -6   1    1.91    0.65
  -4  -6   1    1.85    0.28
   3   6  -1   29.35    1.22
   3   6  -1   31.07    1.36
   3   6  -1   31.73    1.26
  -3  -6   1   31.26    1.87
  -3  -6   1   31.02    1.24
  -3  -6   1   30.86    1.69
   2   6  -1   42.64    1.61
   2   6  -1   44.06    1.61
   2   6  -1   42.21    1.61
   2   6  -1   42.09    1.67
  -2  -6   1   41.59    1.60
  -2  -6   1   40.73    1.97
  -2  -6   1   37.25    2.05
   1   6  -1   24.37    1.16
   1   6  -1   26.05    1.17
   1   6  -1   26.25    1.18
  -1  -6   1   26.24    1.18
  -1  -6   1   24.06    1.40
  -1  -6   1   25.51    0.93
  -1  -6   1   24.71    0.92
  -1  -6   1   26.78    1.52
   0   6  -1   81.15    2.77
   0   6  -1   79.31    2.75
   0   6  -1   78.77    2.93
   0  -6   1   80.09    2.62
   0  -6   1   77.55    2.54
   0  -6   1   75.91    2.88
   0  -6   1   74.81    2.60
   0  -6   1   81.59    3.04
   0  -6   1   80.89    3.02
   0  -6   1   77.11    2.74
  -1   6  -1   39.81    1.83
  -1   6  -1   42.73    1.74
  -1   6  -1   39.76    1.70
   1  -6   1   39.05    1.74
   1  -6   1   40.72    1.81
   1  -6   1   43.01    1.64
   1  -6   1   39.41    1.63
   1  -6   1   37.22    1.83
   1  -6   1   37.23    1.62
  -2   6  -1  120.71    4.36
  -2   6  -1  118.27    4.09
  -2   6  -1  119.82    4.10
   2  -6   1  127.40    4.14
   2  -6   1  122.69    4.11
   2  -6   1  123.39    4.02
   2  -6   1  126.28    4.06
   2  -6   1  126.21    4.08
   2  -6   1  118.91    4.31
  -3   6  -1   43.67    1.89
  -3   6  -1   43.82    1.89
  -3   6  -1   44.73    2.06
  -3   6  -1   39.86    2.00
   3  -6   1   42.18    1.86
   3  -6   1   44.46    1.67
   3  -6   1   38.97    1.95
   3  -6   1   39.81    1.81
  -4   6  -1   56.21    2.29
  -4   6  -1   50.27    2.19
  -4   6  -1   51.32    2.21
  -4   6  -1   52.69    2.39
  -4   6  -1   48.26    2.36
   4  -6   1   54.77    2.27
   4  -6   1   50.04    2.18
   4  -6   1   49.90    2.33
   4  -6   1   54.22    1.86
  -5   6  -1    0.72    0.32
  -5   6  -1    0.91    0.36
  -5   6  -1    0.38    0.26
  -5   6  -1   -0.03    0.21
   5  -6   1    0.53    0.29
   5  -6   1    0.50    0.31
   5  -6   1    0.45    0.30
  -6   6  -1    6.13    0.81
  -6   6  -1    4.57    0.82
  -6   6  -1    6.20    0.84
  -6   6  -1    5.34    0.73
   6  -6   1    4.49    0.71
   6  -6   1    4.86    0.77
  -7   6  -1    2.69    0.56
  -7   6  -1    3.48    0.64
  -7   6  -1    3.14    0.73
  -7   6  -1    3.67    0.67
   7  -6   1    2.87    0.59
   7  -6   1    2.51    0.61
  -8   6  -1    3.33    0.80
  -8   6  -1    2.74    0.56
  -8   6  -1    2.90    0.62
  -8   6  -1    1.87    0.53
   8  -6   1    1.84    0.54
   8  -6   1    2.48    0.61
  -9   6  -1    4.65    0.78
  -9   6  -1    6.23    0.88
  -9   6  -1    5.39    1.04
   9  -6   1    6.27    1.03
   9  -6   1    5.40    0.93
 -10   6  -1    7.54    1.28
 -10   6  -1    6.03    0.85
  10  -6   1    7.35    1.14
  10  -6   1    7.13    1.10
  -9  -5   1    6.50    0.35
  -8  -5   1   12.22    1.76
  -7  -5   1   14.73    1.84
   6   5  -1   45.58    1.88
  -6  -5   1   52.82    2.81
   5   5  -1    0.93    0.14
   5   5  -1    0.95    0.26
   5   5  -1    1.21    0.16
  -5  -5   1    1.17    0.55
  -5  -5   1    1.09    0.15
  -5  -5   1    1.69    0.52
   4   5  -1    2.20    0.48
   4   5  -1    2.23    0.37
   4   5  -1    1.82    0.22
   4   5  -1    1.75    0.22
  -4  -5   1    1.76    0.21
  -4  -5   1    1.57    0.46
  -4  -5   1    0.88    0.43
  -4  -5   1    1.74    0.21
   3   5  -1    0.76    0.17
   3   5  -1    0.68    0.16
   3   5  -1    0.98    0.18
   3   5  -1    0.85    0.24
  -3  -5   1    0.72    0.36
  -3  -5   1    0.77    0.16
  -3  -5   1    0.60    0.15
  -3  -5   1    0.88    0.18
  -3  -5   1    0.78    0.32
   2   5  -1    2.93    0.34
   2   5  -1    2.63    0.32
   2   5  -1    2.89    0.37
   2   5  -1    3.05    0.39
   2   5  -1    3.91    0.39
  -2  -5   1    2.89    0.52
  -2  -5   1    3.19    0.36
  -2  -5   1    4.86    0.74
  -2  -5   1    3.44    0.39
   1   5  -1   14.11    0.76
   1   5  -1   15.44    0.76
   1   5  -1   13.21    0.72
   1   5  -1   14.18    0.73
   1   5  -1   12.08    0.75
  -1  -5   1   14.23    0.98
  -1  -5   1   16.27    1.01
  -1  -5   1   14.69    0.79
  -1  -5   1   14.10    0.73
  -1  -5   1   15.46    0.60
  -1  -5   1   13.60    0.57
   0   5  -1   36.35    1.43
   0   5  -1   36.73    1.56
   0   5  -1   35.87    1.44
   0   5  -1   36.72    1.45
   0  -5   1   37.10    1.55
   0  -5   1   38.09    1.70
   0  -5   1   37.07    1.38
   0  -5   1   36.23    1.44
   0  -5   1   34.16    1.59
   0  -5   1   35.13    1.36
   0  -5   1   36.82    1.34
  -1   5  -1   15.22    0.87
  -1   5  -1   17.21    0.98
  -1   5  -1   18.13    0.92
   1  -5   1   15.84    0.86
   1  -5   1   17.98    0.88
   1  -5   1   15.80    0.85
   1  -5   1   15.77    0.88
   1  -5   1   15.67    0.94
   1  -5   1   17.07    1.06
  -2   5  -1   19.77    1.05
  -2   5  -1   19.11    1.00
  -2   5  -1   21.18    1.14
  -2   5  -1   19.00    1.04
  -2   5  -1   17.29    1.07
  -2   5  -1   19.83    1.04
   2  -5   1   18.96    1.00
   2  -5   1   19.65    1.03
   2  -5   1   20.12    1.12
   2  -5   1   20.56    0.94
  -3   5  -1   41.51    1.79
  -3   5  -1   40.88    1.79
  -3   5  -1   41.62    1.95
  -3   5  -1   44.70    1.99
  -3   5  -1   41.13    1.76
  -3   5  -1   43.07    1.83
   3  -5   1   44.36    1.96
   3  -5   1   44.51    1.83
   3  -5   1   43.45    1.79
   3  -5   1   44.20    1.55
  -4   5  -1   15.64    0.98
  -4   5  -1   16.58    1.11
  -4   5  -1   14.80    0.96
  -4   5  -1   14.76    1.01
  -4   5  -1   17.11    1.01
  -4   5  -1   15.31    1.00
   4  -5   1   15.66    0.69
   4  -5   1   17.48    1.11
   4  -5   1   15.77    0.99
   4  -5   1   14.34    0.94
  -5   5  -1   23.64    1.32
  -5   5  -1   22.40    1.27
  -5   5  -1   22.13    1.40
  -5   5  -1   21.37    1.23
  -5   5  -1   24.25    1.36
   5  -5   1   25.80    1.45
   5  -5   1   24.32    1.33
   5  -5   1   24.52    1.33
  -6   5  -1    4.73    0.69
  -6   5  -1    4.54    0.74
  -6   5  -1    3.33    0.58
  -6   5  -1    5.32    0.70
  -6   5  -1    4.14    0.65
   6  -5   1    3.27    0.58
   6  -5   1    5.67    0.80
   6  -5   1    5.10    0.73
  -7   5  -1   31.47    1.70
  -7   5  -1   31.68    1.87
  -7   5  -1   31.30    1.57
  -7   5  -1   32.62    1.66
  -7   5  -1   30.94    1.67
   7  -5   1   27.44    1.64
   7  -5   1   35.93    1.79
  -8   5  -1   12.79    1.31
  -8   5  -1   11.49    1.13
  -8   5  -1   12.99    0.99
  -8   5  -1   10.32    1.29
   8  -5   1   13.41    1.33
   8  -5   1   12.62    1.27
  -9   5  -1    3.45    0.58
  -9   5  -1    2.56    0.63
  -9   5  -1    3.64    0.81
  -9   5  -1    3.35    0.56
   9  -5   1    2.82    0.65
   9  -5   1    3.70    0.73
 -10   5  -1    4.00    0.93
 -10   5  -1    2.63    0.69
 -10   5  -1    2.84    0.52
  10  -5   1    2.74    0.71
  10  -5   1    1.97    0.60
  -9  -4   1    2.45    0.30
  -9  -4   1    2.48    0.30
  -8  -4   1    1.77    0.21
  -8  -4   1    0.79    0.54
  -8  -4   1    1.84    0.21
   7   4  -1    3.85    0.53
  -7  -4   1    3.36    0.86
   6   4  -1   13.60    0.80
  -6  -4   1    8.64    1.25
   5   4  -1    1.55    0.30
   5   4  -1    1.13    0.35
  -5  -4   1    1.38    0.51
  -5  -4   1    2.00    0.50
   4   4  -1    0.38    0.16
   4   4  -1    0.47    0.09
   4   4  -1    0.39    0.09
   4   4  -1    0.65    0.26
  -4  -4   1    0.53    0.29
  -4  -4   1    0.07    0.24
   3   4  -1   20.98    0.94
   3   4  -1   21.43    0.77
   3   4  -1   21.66    0.78
  -3  -4   1   21.31    0.73
  -3  -4   1   19.45    1.18
  -3  -4   1   22.12    1.33
  -3  -4   1   21.97    0.74
  -3  -4   1   21.54    0.81
   2   4  -1  229.29    6.72
   2   4  -1  229.24    6.70
   2   4  -1  242.26    6.67
   2   4  -1  234.99    7.05
   2   4  -1  235.19    6.73
  -2  -4   1  234.09    7.01
  -2  -4   1  238.86    7.02
  -2  -4   1  234.84    7.42
  -2  -4   1  237.42    7.15
  -2  -4   1  230.88    6.64
  -2  -4   1  241.85    6.65
   1   4  -1  235.29    6.88
   1   4  -1  217.58    6.56
   1   4  -1  228.36    6.53
   1   4  -1  227.80    6.48
   1   4  -1  229.54    6.58
  -1  -4   1  220.10    7.01
  -1  -4   1  228.40    6.39
  -1  -4   1  231.36    6.87
  -1  -4   1  231.13    6.86
  -1  -4   1  219.36    6.37
  -1  -4   1  229.99    6.51
  -1  -4   1  225.52    6.50
   0   4  -1   38.98    1.44
   0   4  -1   40.66    1.44
   0   4  -1   40.00    1.45
   0   4  -1   39.57    1.54
   0  -4   1   37.84    1.38
   0  -4   1   40.20    1.59
   0  -4   1   38.86    1.36
   0  -4   1   40.79    1.67
   0  -4   1   40.06    1.44
   0  -4   1   38.25    1.38
   0  -4   1   34.99    1.51
  -1   4  -1    0.14    0.12
  -1   4  -1    0.17    0.13
  -1   4  -1   -0.05    0.11
   1  -4   1    0.10    0.12
   1  -4   1    0.00    0.10
   1  -4   1    0.18    0.13
   1  -4   1    0.39    0.19
  -2   4  -1    0.15    0.15
  -2   4  -1    0.09    0.14
  -2   4  -1   -0.08    0.10
  -2   4  -1    0.20    0.17
  -2   4  -1    0.05    0.11
  -2   4  -1   -0.07    0.10
   2  -4   1   -0.09    0.12
   2  -4   1    0.31    0.16
   2  -4   1    0.27    0.17
   2  -4   1    0.08    0.09
  -3   4  -1    0.34    0.19
  -3   4  -1    1.17    0.30
  -3   4  -1    0.59    0.23
  -3   4  -1    0.48    0.20
  -3   4  -1    0.39    0.19
  -3   4  -1    0.59    0.23
   3  -4   1    0.84    0.27
   3  -4   1    1.21    0.29
   3  -4   1    0.59    0.22
   3  -4   1    0.54    0.13
  -4   4  -1    2.33    0.42
  -4   4  -1    1.59    0.39
  -4   4  -1    2.67    0.45
  -4   4  -1    1.99    0.40
  -4   4  -1    1.24    0.33
  -4   4  -1    2.18    0.39
   4  -4   1    2.29    0.42
   4  -4   1    1.97    0.38
   4  -4   1    1.80    0.39
  -5   4  -1    9.80    0.75
  -5   4  -1   10.56    0.77
  -5   4  -1   11.37    0.99
  -5   4  -1    8.44    0.81
  -5   4  -1   10.34    0.93
  -5   4  -1   10.03    0.99
   5  -4   1    9.63    0.96
   5  -4   1    8.09    0.81
   5  -4   1   11.22    0.81
  -6   4  -1    0.47    0.24
  -6   4  -1    0.50    0.21
  -6   4  -1    0.33    0.27
  -6   4  -1    0.06    0.15
  -6   4  -1    0.36    0.23
   6  -4   1    0.21    0.21
   6  -4   1    0.01    0.20
   6  -4   1    0.37    0.23
  -7   4  -1   14.30    0.98
  -7   4  -1   14.97    0.93
  -7   4  -1   14.76    0.98
  -7   4  -1   17.24    1.23
  -7   4  -1   15.56    1.10
   7  -4   1   14.88    1.05
   7  -4   1   16.71    1.12
  -8   4  -1    0.55    0.38
  -8   4  -1    0.42    0.25
  -8   4  -1    0.14    0.19
  -8   4  -1    0.12    0.27
   8  -4   1    0.44    0.29
   8  -4   1    0.14    0.25
  -9   4  -1    9.55    1.23
  -9   4  -1    8.71    0.82
  -9   4  -1    8.20    1.02
   9  -4   1    8.40    1.06
   9  -4   1    8.60    1.05
 -10   4  -1    1.51    0.59
 -10   4  -1    1.92    0.35
 -10   4  -1    1.97    0.34
 -10   4  -1    1.91    0.60
  10  -4   1    1.85    0.57
  10  -4   1    1.74    0.54
 -11   4  -1    0.86    0.52
 -11   4  -1    1.59    0.60
  11  -4   1    0.36    0.40
  11  -4   1    1.12    0.52
  10   3  -1   13.38    0.72
 -10  -3   1   13.66    0.79
   9   3  -1    8.94    0.53
  -9  -3   1    9.16    0.58
   8   3  -1   13.18    0.59
   8   3  -1   12.96    0.60
  -8  -3   1   12.46    0.61
   7   3  -1    0.89    0.15
   7   3  -1    0.87    0.15
  -7  -3   1    0.73    0.13
  -7  -3   1    0.39    0.39
   6   3  -1    0.04    0.05
   6   3  -1    0.00    0.05
  -6  -3   1    0.00    0.24
   5   3  -1   12.47    0.78
  -5  -3   1   15.42    1.42
   4   3  -1    0.55    0.23
  -4  -3   1    0.23    0.28
  -4  -3   1    0.59    0.26
   3   3  -1    0.05    0.10
   3   3  -1   -0.04    0.03
   3   3  -1    0.00    0.03
  -3  -3   1   -0.02    0.04
  -3  -3   1   -0.21    0.15
  -3  -3   1    0.08    0.17
   2   3  -1   20.69    0.70
   2   3  -1   20.45    0.84
   2   3  -1   21.09    0.71
  -2  -3   1   21.07    0.77
  -2  -3   1   19.71    0.76
  -2  -3   1   20.04    0.67
  -2  -3   1   20.77    1.05
  -2  -3   1   20.11    1.10
  -2  -3   1   19.76    0.67
   1   3  -1  116.25    3.39
   1   3  -1  117.51    3.44
   1   3  -1  119.52    3.60
   1   3  -1  119.51    3.44
   1   3  -1  117.32    3.43
  -1  -3   1  117.58    3.60
  -1  -3   1  111.97    3.29
  -1  -3   1  116.11    3.72
  -1  -3   1  114.34    3.38
  -1  -3   1  117.58    3.40
  -1  -3   1  115.54    3.61
  -1  -3   1  116.30    3.79
  -1  -3   1  115.72    3.30
   0   3  -1    0.09    0.09
   0   3  -1    0.16    0.11
   0   3  -1    0.02    0.09
   0   3  -1    0.16    0.10
   0  -3   1    0.28    0.14
   0  -3   1    0.02    0.09
   0  -3   1    0.09    0.09
   0  -3   1   -0.01    0.08
   0  -3   1   -0.14    0.15
   0  -3   1    0.26    0.12
   0  -3   1    0.19    0.14
  -1   3  -1  248.26    7.47
  -1   3  -1  247.59    7.16
  -1   3  -1  248.56    7.14
   1  -3   1  246.26    7.48
   1  -3   1  247.69    7.14
   1  -3   1  242.49    7.10
  -2   3  -1    4.33    0.46
  -2   3  -1    3.80    0.42
  -2   3  -1    4.54    0.46
  -2   3  -1    5.72    0.56
  -2   3  -1    4.67    0.48
  -2   3  -1    4.73    0.51
   2  -3   1    3.89    0.45
   2  -3   1    5.46    0.56
   2  -3   1    4.31    0.26
   2  -3   1    4.69    0.47
  -3   3  -1  163.35    5.00
  -3   3  -1  163.15    4.96
  -3   3  -1  167.28    5.56
  -3   3  -1  161.88    5.00
  -3   3  -1  161.08    4.98
  -3   3  -1  165.27    5.26
   3  -3   1  165.52    5.00
   3  -3   1  162.98    5.25
   3  -3   1  167.38    5.02
   3  -3   1  155.88    4.96
  -4   3  -1  155.82    5.07
  -4   3  -1  156.38    5.27
  -4   3  -1  153.51    4.77
  -4   3  -1  152.32    4.76
  -4   3  -1  159.65    4.81
  -4   3  -1  148.36    4.76
   4  -3   1  145.24    4.79
   4  -3   1  148.92    4.77
   4  -3   1  162.82    5.10
  -5   3  -1   76.01    2.88
  -5   3  -1   66.96    2.57
  -5   3  -1   76.50    2.60
  -5   3  -1   76.54    2.70
  -5   3  -1   74.03    2.84
  -5   3  -1   74.94    2.65
   5  -3   1   75.06    2.71
   5  -3   1   78.61    2.70
   5  -3   1   76.99    2.87
  -6   3  -1   11.22    0.75
  -6   3  -1   10.81    0.82
  -6   3  -1   11.88    0.73
  -6   3  -1   12.69    0.79
  -6   3  -1   12.46    0.79
  -6   3  -1   12.90    0.94
   6  -3   1   11.18    0.82
   6  -3   1   10.67    0.79
   6  -3   1   11.93    1.07
  -7   3  -1    1.88    0.48
  -7   3  -1    2.10    0.38
  -7   3  -1    1.77    0.41
  -7   3  -1    1.63    0.32
  -7   3  -1    2.29    0.41
   7  -3   1    1.50    0.40
   7  -3   1    1.86    0.44
  -8   3  -1    9.11    0.64
  -8   3  -1    9.46    0.98
  -8   3  -1    8.24    1.02
  -8   3  -1    6.75    0.67
   8  -3   1    8.78    0.94
   8  -3   1    9.24    1.01
  -9   3  -1    0.14    0.14
  -9   3  -1    0.24    0.29
  -9   3  -1   -0.07    0.22
  -9   3  -1    0.21    0.15
   9  -3   1    0.40    0.30
   9  -3   1    0.38    0.28
 -10   3  -1    0.17    0.30
 -10   3  -1    0.11    0.30
  10  -3   1    0.05    0.28
  10  -3   1   -0.21    0.20
 -11   3  -1    0.33    0.38
 -11   3  -1    0.35    0.40
  11  -3   1   -0.05    0.29
  11  -3   1    0.22    0.37
  10   2  -1    0.07    0.14
 -10  -2   1    0.13    0.18
   9   2  -1    2.04    0.35
  -9  -2   1    1.32    0.30
   8   2  -1    1.19    0.25
  -8  -2   1    0.98    0.22
   7   2  -1   13.56    0.65
   7   2  -1   14.90    0.66
  -7  -2   1   13.58    0.63
  -7  -2   1   14.22    0.62
   6   2  -1   61.76    1.89
   6   2  -1   58.77    1.88
  -6  -2   1   59.99    2.78
  -6  -2   1   62.28    1.92
  -6  -2   1   60.83    1.93
  -6  -2   1   59.57    1.83
   5   2  -1  216.69    6.06
   5   2  -1  214.59    6.55
   5   2  -1  217.51    6.06
  -5  -2   1  213.91    6.28
  -5  -2   1  213.75    7.10
  -5  -2   1  219.04    6.28
   4   2  -1   54.62    1.92
  -4  -2   1   55.70    2.33
  -4  -2   1   55.01    2.17
   3   2  -1    3.64    0.37
  -3  -2   1    3.85    0.50
  -3  -2   1    4.14    0.58
  -2  -2   1    8.42    0.61
  -2  -2   1    7.74    0.33
  -2  -2   1    8.60    0.32
  -2  -2   1    7.96    0.57
   1   2  -1   55.31    1.63
   1   2  -1   55.11    1.68
   1   2  -1   55.31    1.71
   1   2  -1   53.54    1.62
  -1  -2   1   53.38    1.59
  -1  -2   1   53.22    1.74
  -1  -2   1   57.43    1.72
  -1  -2   1   52.32    1.89
  -1  -2   1   54.02    1.60
  -1  -2   1   52.23    1.87
   0   2  -1   78.77    2.30
   0   2  -1   78.47    2.32
   0   2  -1   77.22    2.33
   0   2  -1   81.35    2.45
   0  -2   1   77.60    2.32
   0  -2   1   77.04    2.50
   0  -2   1   75.80    2.29
   0  -2   1   76.72    2.42
   0  -2   1   76.23    2.31
   0  -2   1   77.97    2.47
   0  -2   1   72.78    2.31
  -1   2  -1    0.40    0.14
  -1   2  -1    0.52    0.16
  -1   2  -1    0.89    0.19
  -1   2  -1    0.55    0.16
   1  -2   1    0.58    0.15
   1  -2   1    0.26    0.13
   1  -2   1    0.50    0.18
   1  -2   1    0.50    0.15
  -2   2  -1    1.40    0.26
  -2   2  -1    1.67    0.26
  -2   2  -1    1.86    0.28
  -2   2  -1    2.42    0.31
  -2   2  -1    1.86    0.28
   2  -2   1    1.89    0.27
   2  -2   1    2.28    0.30
   2  -2   1    2.31    0.34
  -3   2  -1   17.75    0.80
  -3   2  -1   16.56    0.85
  -3   2  -1   15.25    0.75
  -3   2  -1   16.84    0.79
  -3   2  -1   15.80    0.81
  -3   2  -1   15.44    0.76
   3  -2   1   14.67    0.76
   3  -2   1   15.96    0.85
   3  -2   1   16.15    0.77
  -4   2  -1   40.81    1.66
  -4   2  -1   43.22    1.54
  -4   2  -1   40.45    1.54
  -4   2  -1   39.30    1.57
  -4   2  -1   43.23    1.58
  -4   2  -1   37.31    1.66
   4  -2   1   44.71    1.61
   4  -2   1   43.67    1.62
   4  -2   1   44.03    1.73
  -5   2  -1   64.35    2.42
  -5   2  -1   65.13    2.35
  -5   2  -1   65.43    2.51
  -5   2  -1   65.21    2.27
  -5   2  -1   65.94    2.25
  -5   2  -1   67.51    2.22
   5  -2   1   66.53    2.34
   5  -2   1   72.01    2.53
   5  -2   1   61.89    2.32
  -6   2  -1    2.03    0.30
  -6   2  -1    1.99    0.42
  -6   2  -1    2.06    0.31
  -6   2  -1    2.60    0.32
  -6   2  -1    1.73    0.30
  -6   2  -1    2.84    0.46
   6  -2   1    2.20    0.39
   6  -2   1    2.40    0.41
   6  -2   1    2.47    0.45
  -7   2  -1    0.49    0.18
  -7   2  -1    0.63    0.28
  -7   2  -1    0.53    0.26
  -7   2  -1    0.64    0.18
   7  -2   1    0.73    0.29
   7  -2   1    0.71    0.24
  -8   2  -1   10.96    1.11
  -8   2  -1    9.78    0.97
  -8   2  -1   10.46    0.49
  -8   2  -1    9.91    0.50
   8  -2   1   10.54    0.99
   8  -2   1    9.42    0.95
  -9   2  -1    6.18    0.90
  -9   2  -1    6.94    0.86
   9  -2   1    5.97    0.80
   9  -2   1    7.13    0.87
 -10   2  -1   12.33    1.22
 -10   2  -1   12.14    1.30
  10  -2   1   11.28    1.16
  10  -2   1   11.05    1.18
 -11   2  -1    3.11    0.74
 -11   2  -1    3.23    0.72
  11  -2   1    2.67    0.63
  11   1  -1    6.77    0.78
 -11  -1   1    7.09    0.82
  10   1  -1    5.04    0.62
 -10  -1   1    6.10    0.70
   9   1  -1    6.98    0.68
  -9  -1   1    6.88    0.67
   8   1  -1   14.49    0.81
  -8  -1   1   14.45    0.82
  -8  -1   1   17.35    0.90
   7   1  -1   55.38    1.90
   7   1  -1   52.96    1.91
  -7  -1   1   57.20    2.03
  -7  -1   1   54.36    1.90
   6   1  -1    6.12    0.38
   6   1  -1    7.04    0.42
   6   1  -1    6.30    0.40
  -6  -1   1    5.99    0.43
  -6  -1   1    4.96    0.36
   5   1  -1   16.54    0.57
   5   1  -1   14.60    0.73
   5   1  -1   14.65    0.62
   5   1  -1   14.63    0.62
  -5  -1   1   14.67    0.59
  -5  -1   1   14.29    0.59
  -5  -1   1   15.19    0.68
  -5  -1   1   14.64    0.69
  -5  -1   1   16.48    1.11
   4   1  -1    3.87    0.22
   4   1  -1    4.27    0.32
   4   1  -1    3.64    0.22
  -4  -1   1    4.40    0.27
  -4  -1   1    3.89    0.20
  -4  -1   1    3.70    0.26
  -4  -1   1    3.90    0.20
  -4  -1   1    4.62    0.63
   3   1  -1   13.78    0.58
   3   1  -1   14.34    0.46
   3   1  -1   13.78    0.46
  -3  -1   1   12.46    0.75
  -3  -1   1   15.72    0.88
  -3  -1   1   14.17    0.51
  -3  -1   1   13.98    0.53
   2   1  -1    0.01    0.06
  -2  -1   1    0.23    0.15
  -2  -1   1    0.07    0.06
  -2  -1   1    0.21    0.15
   1   1  -1  387.50   11.18
   1   1  -1  395.17   10.78
   1   1  -1  374.89   10.71
  -1  -1   1  386.37   10.59
  -1  -1   1  385.01   10.60
  -1  -1   1  395.32   11.28
  -1  -1   1  399.47   10.74
  -1  -1   1  364.49   11.02
   0   1  -1  314.20    9.12
   0   1  -1  319.26    8.55
   0   1  -1  302.36    8.77
   0   1  -1  322.71    8.75
   0  -1   1  316.47    9.16
   0  -1   1  321.68    8.76
   0  -1   1  317.20    9.14
   0  -1   1  306.24    8.68
  -1   1  -1  147.20    4.49
  -1   1  -1  158.62    4.46
  -1   1  -1  156.22    4.51
  -1   1  -1  161.87    4.71
   1  -1   1  156.78    4.74
   1  -1   1  161.64    4.50
   1  -1   1  159.47    4.51
   1  -1   1  154.75    4.47
  -2   1  -1  318.01    8.73
  -2   1  -1  314.03    8.70
  -2   1  -1  301.20    8.76
  -2   1  -1  321.01    9.16
  -2   1  -1  308.83    8.76
  -2   1  -1  290.71    9.80
  -2   1  -1  310.21    8.75
   2  -1   1  319.87    9.19
   2  -1   1  305.86    8.76
   2  -1   1  314.74    8.80
  -3   1  -1   60.78    1.96
  -3   1  -1   61.84    1.99
  -3   1  -1   60.50    2.15
  -3   1  -1   60.15    1.95
  -3   1  -1   62.92    2.02
  -3   1  -1   60.92    2.13
  -3   1  -1   60.49    1.99
   3  -1   1   61.15    2.00
   3  -1   1   62.91    2.16
   3  -1   1   64.19    2.03
  -4   1  -1   38.85    1.47
  -4   1  -1   41.10    1.59
  -4   1  -1   39.81    1.36
  -4   1  -1   41.23    1.41
  -4   1  -1   40.13    1.42
  -4   1  -1   40.46    1.49
   4  -1   1   40.81    1.49
   4  -1   1   39.41    1.58
   4  -1   1   42.62    1.52
   4  -1   1   41.30    1.48
  -5   1  -1   33.68    1.25
  -5   1  -1   36.56    1.43
  -5   1  -1   37.94    1.55
  -5   1  -1   38.90    1.31
  -5   1  -1   35.13    1.29
  -5   1  -1   36.45    1.19
   5  -1   1   37.96    1.53
   5  -1   1   35.94    1.44
   5  -1   1   34.98    1.43
   5  -1   1   36.32    1.42
  -6   1  -1   14.67    0.61
  -6   1  -1   16.30    0.87
  -6   1  -1   14.24    0.89
  -6   1  -1   14.37    0.60
   6  -1   1   14.29    0.83
   6  -1   1   14.42    0.82
  -7   1  -1    5.90    0.70
  -7   1  -1    4.71    0.60
   7  -1   1    6.11    0.65
   7  -1   1    4.33    0.55
  -8   1  -1    2.12    0.47
  -8   1  -1    2.59    0.48
   8  -1   1    2.18    0.42
   8  -1   1    2.44    0.45
  -9   1  -1    0.89    0.34
  -9   1  -1    0.70    0.31
   9  -1   1    1.12    0.35
   9  -1   1    2.36    0.50
 -10   1  -1    4.91    0.80
 -10   1  -1    4.26    0.69
  10  -1   1    4.35    0.68
 -11   1  -1    2.28    0.57
 -11   1  -1    3.60    0.71
  11  -1   1    1.88    0.49
  11   0  -1    5.74    0.76
 -11   0   1    5.65    0.77
  10   0  -1   12.23    0.93
 -10   0   1   16.34    1.10
 -10   0   1   15.11    1.02
   9   0  -1   17.74    1.03
  -9   0   1   16.77    1.03
  -9   0   1   17.12    1.09
   8   0  -1   16.75    0.93
  -8   0   1   17.54    0.95
  -8   0   1   15.89    0.99
   7   0  -1   36.11    1.47
   7   0  -1   37.58    1.46
  -7   0   1   35.75    1.46
  -7   0   1   35.35    1.57
   6   0  -1   22.58    1.01
   6   0  -1   23.48    1.03
   6   0  -1   24.73    1.01
  -6   0   1   25.00    1.03
  -6   0   1   25.22    1.15
   5   0  -1   44.58    1.49
   5   0  -1   44.80    1.53
   5   0  -1   46.05    1.54
  -5   0   1   43.21    1.65
  -5   0   1   42.27    1.63
  -5   0   1   41.86    1.49
   4   0  -1   23.97    0.89
   4   0  -1   23.60    0.89
   4   0  -1   24.54    0.86
  -4   0   1   23.45    0.98
  -4   0   1   22.92    0.87
  -4   0   1   22.12    0.86
  -4   0   1   23.01    0.94
   3   0  -1    0.04    0.07
   3   0  -1    0.09    0.06
   3   0  -1    0.11    0.08
  -3   0   1    0.16    0.09
  -3   0   1    0.06    0.06
  -3   0   1    0.03    0.06
  -3   0   1    0.12    0.11
   2   0  -1    1.41    0.15
   2   0  -1    1.13    0.14
  -2   0   1    1.18    0.11
  -2   0   1    1.10    0.11
  -2   0   1    1.19    0.14
  -2   0   1    1.30    0.13
  -2   0   1    0.98    0.19
  -2   0   1    0.95    0.16
   1   0  -1    9.43    0.38
  -1   0   1   10.84    0.38
  -1   0   1   10.21    0.37
  -1   0   1    9.67    0.36
  -1   0   1   10.40    0.38
  -1   0   1   10.41    0.44
  -1   0   1   10.40    0.42
  -1   0   1   10.12    0.37
   0   0  -1    2.44    0.15
   0   0   1    2.24    0.19
   0   0   1    2.49    0.16
   0   0   1    2.58    0.20
  -1   0  -1    6.47    0.29
  -1   0  -1    6.59    0.29
  -1   0  -1    6.08    0.35
  -1   0  -1    6.66    0.30
  -1   0  -1    5.78    0.29
   1   0   1    7.25    0.30
   1   0   1    6.74    0.30
   1   0   1    6.85    0.36
   1   0   1    7.04    0.42
  -2   0  -1  109.30    3.14
  -2   0  -1  107.32    3.13
  -2   0  -1  101.81    3.37
  -2   0  -1  111.16    3.31
  -2   0  -1  108.91    3.14
  -2   0  -1  115.17    3.16
  -2   0  -1  104.86    3.46
  -2   0  -1  108.76    3.32
   2   0   1  105.93    3.17
   2   0   1  108.49    3.35
   2   0   1  111.68    3.18
   2   0   1  112.55    3.15
  -3   0  -1    4.67    0.30
  -3   0  -1    3.99    0.24
  -3   0  -1    4.81    0.34
  -3   0  -1    4.36    0.42
  -3   0  -1    4.52    0.24
  -3   0  -1    4.56    0.47
   3   0   1    4.55    0.30
   3   0   1    4.57    0.51
   3   0   1    4.23    0.28
   3   0   1    4.07    0.32
   3   0   1    4.53    0.31
  -4   0  -1   24.06    0.76
  -4   0  -1   24.67    0.76
  -4   0  -1   24.86    0.96
  -4   0  -1   23.75    1.16
  -4   0  -1   26.73    1.05
   4   0   1   23.56    1.02
   4   0   1   24.06    0.93
   4   0   1   25.79    1.22
   4   0   1   24.93    0.98
   4   0   1   24.63    0.97
  -5   0  -1   48.97    1.85
  -5   0  -1   53.03    2.10
  -5   0  -1   48.66    1.73
   5   0   1   47.94    1.71
   5   0   1   47.88    1.80
   5   0   1   52.12    2.10
   5   0   1   51.89    1.77
   5   0   1   49.77    1.74
  -6   0  -1   55.09    2.08
  -6   0  -1   54.62    2.35
  -6   0  -1   51.62    1.93
   6   0   1   55.28    1.97
   6   0   1   55.06    2.30
   6   0   1   54.27    1.93
   6   0   1   55.83    1.97
  -7   0  -1   10.46    0.71
  -7   0  -1   10.35    0.71
  -7   0  -1   11.31    0.76
   7   0   1   10.76    0.70
   7   0   1   10.61    0.71
  -8   0  -1    1.05    0.33
  -8   0  -1    1.12    0.31
   8   0   1    0.84    0.28
  -9   0  -1   13.08    0.95
  -9   0  -1   12.45    0.90
   9   0   1    9.78    0.92
 -10   0  -1    1.65    0.45
 -10   0  -1    0.68    0.35
  10   0   1    0.92    0.35
 -11   0  -1    1.98    0.52
  11   0   1    3.23    0.60
  11  -1  -1    0.29    0.28
 -11   1   1    0.61    0.36
 -11   1   1   -0.03    0.28
  10  -1  -1    6.48    0.80
 -10   1   1    5.40    0.81
 -10   1   1    4.90    0.73
   9  -1  -1    4.93    0.67
  -9   1   1    5.79    0.72
  -9   1   1    4.84    0.72
   8  -1  -1    0.05    0.17
   8  -1  -1    0.00    0.16
  -8   1   1   -0.08    0.18
  -8   1   1    0.00    0.15
   7  -1  -1   -0.07    0.11
   7  -1  -1   -0.13    0.15
  -7   1   1   -0.05    0.17
  -7   1   1    0.06    0.14
   6  -1  -1    1.30    0.29
   6  -1  -1    1.89    0.33
   6  -1  -1    1.83    0.32
  -6   1   1    1.42    0.16
  -6   1   1    1.50    0.29
  -6   1   1    1.53    0.15
  -6   1   1    1.39    0.33
   5  -1  -1   33.85    1.25
   5  -1  -1   28.86    1.23
   5  -1  -1   32.50    1.26
  -5   1   1   32.81    1.25
  -5   1   1   30.59    1.08
  -5   1   1   29.60    1.07
  -5   1   1   29.99    1.36
   4  -1  -1  307.80    8.82
   4  -1  -1  310.28    8.76
   4  -1  -1  310.28    8.82
  -4   1   1  311.07    8.62
  -4   1   1  305.00    8.68
  -4   1   1  308.66    8.70
  -4   1   1  305.46    8.71
  -4   1   1  299.87    9.22
   3  -1  -1   52.53    1.70
   3  -1  -1   50.15    1.67
  -3   1   1   49.31    1.64
  -3   1   1   51.94    1.65
  -3   1   1   50.71    1.82
  -3   1   1   49.21    1.66
  -3   1   1   52.41    1.62
   2  -1  -1   37.78    1.29
   2  -1  -1   38.63    1.28
  -2   1   1   39.13    1.28
  -2   1   1   37.76    1.39
  -2   1   1   37.33    1.38
  -2   1   1   37.30    1.27
  -2   1   1   38.45    1.26
   1  -1  -1   15.20    0.59
   1  -1  -1   14.93    0.59
   1  -1  -1   14.69    0.58
  -1   1   1   15.56    0.59
  -1   1   1   15.37    0.58
  -1   1   1   15.85    0.66
  -1   1   1   17.26    0.61
  -1   1   1   13.09    0.62
   0  -1  -1  271.80    7.60
   0  -1  -1  272.91    7.53
   0   1   1  271.31    7.97
   0   1   1  269.93    7.58
   0   1   1  274.51    7.61
  -1  -1  -1  134.23    4.36
  -1  -1  -1  140.25    3.92
  -1  -1  -1  141.72    4.20
  -1  -1  -1  141.75    3.92
  -1  -1  -1  139.00    4.18
  -1  -1  -1  129.35    3.92
  -1  -1  -1  141.69    3.93
   1   1   1  143.13    3.97
   1   1   1  142.45    4.20
   1   1   1  144.71    4.29
   1   1   1  142.53    3.97
  -2  -1  -1   59.22    1.96
  -2  -1  -1   58.56    1.76
  -2  -1  -1   61.28    2.08
  -2  -1  -1   60.76    1.77
   2   1   1   61.17    1.80
   2   1   1   61.06    1.93
   2   1   1   61.18    1.80
   2   1   1   57.88    2.10
  -3  -1  -1   15.54    0.71
  -3  -1  -1   14.93    0.58
  -3  -1  -1   15.12    0.57
  -3  -1  -1   14.87    0.63
  -3  -1  -1   14.18    0.83
   3   1   1   15.96    0.65
   3   1   1   15.23    0.59
   3   1   1   15.92    0.55
   3   1   1   15.39    0.59
   3   1   1   15.25    0.85
  -4  -1  -1    2.78    0.33
  -4  -1  -1    3.10    0.50
  -4  -1  -1    2.61    0.25
  -4  -1  -1    2.48    0.28
   4   1   1    2.70    0.28
   4   1   1    2.45    0.26
   4   1   1    3.20    0.49
   4   1   1    2.70    0.25
   4   1   1    2.61    0.26
  -5  -1  -1    8.33    0.47
  -5  -1  -1    7.94    0.87
  -5  -1  -1    7.67    0.50
  -5  -1  -1    7.61    0.55
   5   1   1    8.31    0.47
   5   1   1    8.71    0.48
   5   1   1    7.84    0.83
   5   1   1    8.52    0.45
  -6  -1  -1    7.56    0.92
  -6  -1  -1    6.15    0.56
  -6  -1  -1    6.62    0.47
  -6  -1  -1    6.24    0.45
   6   1   1    6.49    0.79
   6   1   1    6.27    0.43
   6   1   1    5.28    0.49
   6   1   1    5.99    0.44
  -7  -1  -1    2.64    0.40
  -7  -1  -1    3.08    0.42
  -7  -1  -1    3.13    0.71
  -7  -1  -1    2.03    0.33
   7   1   1    1.80    0.32
  -8  -1  -1    2.86    0.44
  -8  -1  -1    2.75    0.43
   8   1   1    2.25    0.39
  -9  -1  -1    2.45    0.45
  -9  -1  -1    2.74    0.46
   9   1   1    2.50    0.43
 -10  -1  -1    0.08    0.22
  10   1   1    0.01    0.19
  11  -2  -1    2.26    0.57
 -11   2   1    2.67    0.60
 -11   2   1    2.98    0.72
  10  -2  -1   21.86    1.41
  10  -2  -1   25.92    1.49
 -10   2   1   25.82    1.64
 -10   2   1   25.47    1.51
   9  -2  -1   32.93    1.72
   9  -2  -1   35.45    1.75
  -9   2   1   35.31    1.76
  -9   2   1   37.87    1.96
   8  -2  -1   20.69    1.20
   8  -2  -1   21.82    1.22
  -8   2   1   21.76    1.23
  -8   2   1   21.21    1.35
  -8   2   1   21.63    0.76
  -8   2   1   20.85    0.75
   7  -2  -1   15.00    0.96
   7  -2  -1   19.33    1.03
  -7   2   1   15.59    1.08
  -7   2   1   17.36    0.79
  -7   2   1   15.43    0.75
  -7   2   1   16.95    1.00
   6  -2  -1   41.10    1.70
   6  -2  -1   39.19    1.66
  -6   2   1   44.40    1.72
  -6   2   1   41.37    1.46
  -6   2   1   44.64    1.57
  -6   2   1   40.45    1.86
  -6   2   1   40.06    1.52
   5  -2  -1   53.80    2.00
   5  -2  -1   53.66    2.02
  -5   2   1   59.83    1.97
  -5   2   1   55.21    1.88
  -5   2   1   53.85    2.00
  -5   2   1   57.40    2.22
  -5   2   1   52.49    1.90
   4  -2  -1   73.05    2.47
   4  -2  -1   77.11    2.51
  -4   2   1   75.03    2.47
  -4   2   1   77.53    2.46
  -4   2   1   74.38    2.67
  -4   2   1   72.64    2.67
  -4   2   1   68.58    2.40
  -4   2   1   74.32    2.40
   3  -2  -1   94.56    2.91
   3  -2  -1   92.13    2.88
  -3   2   1   90.94    2.87
  -3   2   1   91.98    2.86
  -3   2   1   89.86    3.09
  -3   2   1   87.67    2.85
  -3   2   1   89.69    3.17
  -3   2   1   91.70    2.90
   2  -2  -1   88.86    2.80
   2  -2  -1   94.49    2.82
  -2   2   1   88.34    2.99
  -2   2   1   92.25    3.10
  -2   2   1   91.86    2.79
  -2   2   1   89.10    2.81
  -2   2   1   86.85    2.78
  -2   2   1   88.36    2.81
   1  -2  -1   41.33    1.42
   1  -2  -1   38.96    1.40
   1  -2  -1   41.78    1.42
  -1   2   1   42.48    1.55
  -1   2   1   43.40    1.43
  -1   2   1   41.60    1.41
  -1   2   1   43.92    1.43
  -1   2   1   42.09    1.56
   0  -2  -1  260.10    7.30
   0  -2  -1  250.41    7.35
   0  -2  -1  261.21    7.57
   0  -2  -1  265.03    7.35
   0  -2  -1  261.79    7.22
   0  -2  -1  229.08    8.20
   0  -2  -1  275.08    7.35
   0   2   1  262.06    7.74
   0   2   1  265.41    7.39
   0   2   1  274.30    7.36
  -1  -2  -1   17.12    0.73
  -1  -2  -1   17.20    0.58
  -1  -2  -1   16.40    0.62
  -1  -2  -1   16.38    0.57
  -1  -2  -1   17.00    0.73
  -1  -2  -1   15.26    0.80
   1   2   1   17.86    0.63
   1   2   1   18.06    0.65
   1   2   1   17.33    0.73
   1   2   1   17.30    0.59
   1   2   1   17.33    0.65
  -2  -2  -1   74.26    2.39
  -2  -2  -1   71.88    2.58
  -2  -2  -1   75.11    2.17
   2   2   1   76.22    2.18
   2   2   1   72.79    2.35
   2   2   1   74.78    2.21
   2   2   1   73.69    2.21
   2   2   1   76.72    2.62
   2   2   1   75.23    2.15
  -3  -2  -1  122.28    3.82
  -3  -2  -1  122.12    3.51
  -3  -2  -1  122.57    3.52
  -3  -2  -1  126.27    4.15
   3   2   1  126.24    4.13
   3   2   1  122.24    3.57
   3   2   1  128.01    3.59
  -4  -2  -1   64.40    2.12
  -4  -2  -1   58.46    1.88
  -4  -2  -1   63.22    2.02
  -4  -2  -1   61.93    1.89
  -4  -2  -1   61.51    2.51
   4   2   1   59.82    2.40
   4   2   1   61.46    1.92
   4   2   1   66.50    1.95
   4   2   1   64.34    1.86
  -5  -2  -1   76.66    2.42
  -5  -2  -1   80.07    2.68
  -5  -2  -1   79.45    2.58
  -5  -2  -1   75.89    2.44
  -5  -2  -1   80.71    3.18
   5   2   1   83.09    2.41
   5   2   1   86.03    2.50
   5   2   1   77.62    2.46
   5   2   1   84.58    3.07
  -6  -2  -1   58.12    1.93
  -6  -2  -1   56.27    1.85
  -6  -2  -1   54.42    1.83
  -6  -2  -1   51.68    2.53
   6   2   1   54.56    1.84
   6   2   1   55.18    2.38
   6   2   1   53.95    1.85
  -7  -2  -1   25.23    1.06
  -7  -2  -1   24.58    1.67
  -7  -2  -1   23.62    1.04
  -7  -2  -1   24.50    1.06
   7   2   1   23.56    1.03
  -8  -2  -1    0.93    0.56
  -8  -2  -1    0.32    0.17
  -8  -2  -1    0.57    0.21
   8   2   1    0.08    0.14
  -9  -2  -1    0.23    0.21
   9   2   1    0.58    0.23
 -10  -2  -1    2.89    0.49
  10   2   1    2.24    0.43
  11  -3  -1    1.57    0.52
  11  -3  -1    3.10    0.69
 -11   3   1    1.75    0.63
 -11   3   1    3.03    0.70
  10  -3  -1    6.34    0.92
  10  -3  -1    6.95    0.93
 -10   3   1    6.17    1.00
 -10   3   1    7.13    0.96
   9  -3  -1    4.58    0.71
   9  -3  -1    4.16    0.70
  -9   3   1    4.86    0.46
  -9   3   1    4.19    0.77
  -9   3   1    5.72    0.81
  -9   3   1    4.55    0.44
   8  -3  -1   11.25    1.06
   8  -3  -1    8.82    0.93
  -8   3   1   10.62    1.15
  -8   3   1    8.83    0.62
  -8   3   1   10.88    0.69
  -8   3   1   11.26    1.07
   7  -3  -1    7.24    0.80
   7  -3  -1    6.04    0.74
  -7   3   1    7.78    0.94
  -7   3   1    8.64    0.62
  -7   3   1    8.15    0.61
  -7   3   1    7.02    0.80
   6  -3  -1   34.72    1.59
   6  -3  -1   35.57    1.58
  -6   3   1   37.18    1.80
  -6   3   1   36.36    1.51
  -6   3   1   35.28    1.59
  -6   3   1   35.22    1.43
  -6   3   1   32.09    1.44
   5  -3  -1   22.00    1.09
   5  -3  -1   21.33    1.09
  -5   3   1   22.20    1.07
  -5   3   1   19.44    1.05
  -5   3   1   20.15    0.99
  -5   3   1   21.27    1.03
  -5   3   1   20.00    1.19
  -5   3   1   21.03    1.10
   4  -3  -1  126.68    3.92
   4  -3  -1  115.96    3.90
  -4   3   1  120.98    3.88
  -4   3   1  121.56    3.90
  -4   3   1  122.23    3.86
  -4   3   1  121.04    4.27
  -4   3   1  124.19    4.20
  -4   3   1  123.48    3.87
   3  -3  -1  287.91    7.95
   3  -3  -1  277.58    7.90
  -3   3   1  261.34    7.86
  -3   3   1  276.52    7.85
  -3   3   1  266.98    7.91
  -3   3   1  257.24    8.77
  -3   3   1  264.12    8.31
  -3   3   1  265.27    7.90
   2  -3  -1   14.97    0.77
   2  -3  -1   15.15    0.76
   2  -3  -1   16.13    0.78
  -2   3   1   15.40    0.79
  -2   3   1   15.56    0.87
  -2   3   1   15.76    0.78
  -2   3   1   15.10    0.82
  -2   3   1   15.59    0.78
  -2   3   1   16.39    0.78
   1  -3  -1    3.02    0.33
   1  -3  -1    2.25    0.30
   1  -3  -1    3.04    0.35
  -1   3   1    2.92    0.40
  -1   3   1    2.52    0.31
  -1   3   1    2.24    0.31
   0  -3  -1    2.04    0.27
   0  -3  -1    1.50    0.22
   0  -3  -1    1.05    0.19
   0  -3  -1    1.28    0.27
   0  -3  -1    1.28    0.20
   0  -3  -1    1.82    0.23
   0   3   1    1.61    0.24
   0   3   1    1.95    0.31
   0   3   1    1.19    0.21
  -1  -3  -1  118.54    3.42
  -1  -3  -1  117.09    3.62
  -1  -3  -1  114.91    3.86
  -1  -3  -1  115.62    3.49
  -1  -3  -1  116.41    3.41
   1   3   1  124.54    3.52
   1   3   1  122.67    3.41
   1   3   1  119.39    3.77
   1   3   1  116.23    3.54
   1   3   1  122.64    3.55
  -2  -3  -1  105.20    3.44
  -2  -3  -1  105.93    3.14
  -2  -3  -1  106.80    3.41
  -2  -3  -1  110.43    3.69
   2   3   1  108.69    3.11
   2   3   1  110.39    3.20
   2   3   1  108.60    3.66
   2   3   1  108.24    3.19
   2   3   1  108.23    3.14
   2   3   1  104.40    3.37
  -3  -3  -1    7.26    0.85
  -3  -3  -1    7.18    0.35
  -3  -3  -1    7.61    0.45
   3   3   1    7.58    0.37
   3   3   1    8.14    0.39
   3   3   1    7.13    0.40
   3   3   1    8.30    0.83
   3   3   1    7.11    0.33
  -4  -3  -1    5.62    0.38
  -4  -3  -1    5.43    0.30
  -4  -3  -1    5.48    0.30
  -4  -3  -1    5.27    0.76
   4   3   1    5.37    0.31
   4   3   1    6.32    0.76
   4   3   1    5.20    0.26
   4   3   1    5.43    0.31
   4   3   1    5.43    0.37
  -5  -3  -1    2.41    0.57
  -5  -3  -1    2.87    0.27
  -5  -3  -1    2.34    0.25
  -5  -3  -1    2.31    0.24
   5   3   1    2.28    0.25
   5   3   1    2.34    0.51
   5   3   1    2.53    0.26
  -6  -3  -1    1.74    0.22
  -6  -3  -1    1.24    0.21
  -6  -3  -1    1.70    0.24
  -6  -3  -1    1.47    0.51
   6   3   1    1.73    0.24
   6   3   1    2.53    0.56
   6   3   1    1.77    0.24
  -7  -3  -1    3.31    0.37
  -7  -3  -1    2.59    0.70
  -7  -3  -1    2.71    0.35
   7   3   1    2.99    0.34
   7   3   1    2.81    0.37
  -8  -3  -1    2.56    0.37
  -8  -3  -1    2.53    0.75
  -8  -3  -1    3.24    0.41
   8   3   1    3.13    0.39
  -9  -3  -1    2.33    0.83
  -9  -3  -1    1.56    0.33
   9   3   1    1.97    0.34
 -10  -3  -1    7.09    0.73
  10   3   1    7.69    0.71
  11  -4  -1    3.55    0.79
  11  -4  -1    1.61    0.60
 -11   4   1    2.06    0.69
 -11   4   1    3.72    0.78
  10  -4  -1    3.36    0.73
  10  -4  -1    3.03    0.69
 -10   4   1    1.57    0.52
 -10   4   1    2.35    0.37
 -10   4   1    2.46    0.38
 -10   4   1    1.48    0.56
   9  -4  -1   14.02    1.31
   9  -4  -1   11.26    1.20
  -9   4   1   14.81    0.92
  -9   4   1   15.30    1.53
  -9   4   1   15.46    1.40
   8  -4  -1   30.01    1.62
   8  -4  -1   30.28    1.61
  -8   4   1   27.03    1.57
  -8   4   1   27.89    1.39
  -8   4   1   26.21    1.72
   7  -4  -1   27.07    1.46
   7  -4  -1   27.23    1.45
  -7   4   1   25.25    1.26
  -7   4   1   26.81    1.35
  -7   4   1   25.33    1.37
  -7   4   1   26.88    1.63
  -7   4   1   26.86    1.46
   6  -4  -1   39.92    1.79
   6  -4  -1   35.58    1.71
  -6   4   1   38.36    1.80
  -6   4   1   38.44    1.65
  -6   4   1   35.06    1.90
  -6   4   1   41.58    1.75
  -6   4   1   40.40    1.80
   5  -4  -1   25.13    1.26
   5  -4  -1   23.93    1.25
  -5   4   1   20.53    1.14
  -5   4   1   22.93    1.22
  -5   4   1   24.04    1.24
  -5   4   1   21.26    1.18
  -5   4   1   25.85    1.31
  -5   4   1   23.77    1.20
  -5   4   1   23.89    1.38
   4  -4  -1   15.21    0.90
   4  -4  -1   15.67    0.91
  -4   4   1   14.07    0.86
  -4   4   1   14.54    0.89
  -4   4   1   13.27    0.90
  -4   4   1   13.91    0.99
  -4   4   1   15.51    0.91
  -4   4   1   17.29    0.95
   3  -4  -1    5.90    0.63
   3  -4  -1    4.81    0.56
  -3   4   1    4.52    0.53
  -3   4   1    5.98    0.63
  -3   4   1    6.24    0.62
  -3   4   1    6.91    0.71
  -3   4   1    5.86    0.62
  -3   4   1    5.69    0.67
   2  -4  -1    1.26    0.28
   2  -4  -1    1.45    0.29
   2  -4  -1    1.29    0.28
  -2   4   1    1.48    0.31
  -2   4   1    1.18    0.30
  -2   4   1    0.97    0.25
  -2   4   1    1.19    0.31
  -2   4   1    0.88    0.25
  -2   4   1    1.42    0.29
   1  -4  -1    2.68    0.39
   1  -4  -1    3.52    0.41
   1  -4  -1    3.14    0.40
   1  -4  -1    2.39    0.33
   1  -4  -1    3.34    0.40
  -1   4   1    3.28    0.40
  -1   4   1    2.78    0.43
  -1   4   1    3.63    0.43
   0  -4  -1   76.88    2.53
   0  -4  -1   80.46    2.59
   0  -4  -1   79.19    2.60
   0  -4  -1   78.66    2.54
   0  -4  -1   80.33    2.51
   0  -4  -1   81.44    2.80
   0   4   1   78.20    2.79
   0   4   1   79.90    2.59
   0   4   1   81.70    2.61
  -1  -4  -1  197.37    5.95
  -1  -4  -1  206.08    6.10
  -1  -4  -1  208.77    5.85
  -1  -4  -1  206.18    6.46
  -1  -4  -1  201.95    5.85
   1   4   1  206.80    6.02
   1   4   1  205.17    5.99
   1   4   1  208.11    5.82
   1   4   1  212.30    6.03
   1   4   1  203.73    6.36
  -2  -4  -1   75.01    2.63
  -2  -4  -1   77.12    2.88
  -2  -4  -1   75.07    2.53
  -2  -4  -1   69.09    2.31
   2   4   1   74.47    2.51
   2   4   1   73.97    2.36
   2   4   1   73.51    2.32
   2   4   1   76.08    2.30
   2   4   1   73.98    2.36
  -3  -4  -1    6.84    0.45
  -3  -4  -1    6.35    0.72
  -3  -4  -1    6.59    0.39
  -3  -4  -1    7.02    0.89
   3   4   1    6.67    0.39
   3   4   1    6.61    0.40
   3   4   1    7.35    0.84
   3   4   1    6.93    0.38
   3   4   1    6.32    0.41
  -4  -4  -1   20.28    0.80
  -4  -4  -1   21.11    1.41
  -4  -4  -1   22.24    0.97
  -4  -4  -1   21.47    0.82
   4   4   1   20.37    0.82
   4   4   1   18.30    1.25
   4   4   1   22.19    0.90
   4   4   1   21.51    0.83
  -5  -4  -1    1.85    0.22
  -5  -4  -1    1.88    0.23
  -5  -4  -1    1.65    0.52
  -5  -4  -1    1.75    0.23
   5   4   1    2.17    0.52
   5   4   1    1.66    0.23
   5   4   1    1.91    0.24
  -6  -4  -1   13.51    0.62
  -6  -4  -1   13.59    0.64
  -6  -4  -1   15.60    1.61
   6   4   1   13.08    0.61
   6   4   1   13.62    0.63
  -7  -4  -1    3.91    0.90
  -7  -4  -1    4.24    0.40
  -7  -4  -1    3.94    0.40
   7   4   1    3.62    0.37
  -8  -4  -1    4.07    0.45
  -8  -4  -1    4.57    1.05
  -8  -4  -1    4.79    0.47
   8   4   1    4.99    0.45
  -9  -4  -1    1.29    0.67
  -9  -4  -1    0.94    0.25
   9   4   1    0.75    0.21
  11  -5  -1    1.04    0.54
  11  -5  -1    0.54    0.46
 -11   5   1    0.15    0.43
 -11   5   1    0.81    0.48
 -11   5   1    0.95    0.30
  10  -5  -1    0.33    0.32
  10  -5  -1    0.45    0.40
 -10   5   1    0.27    0.24
 -10   5   1    0.21    0.37
 -10   5   1    0.08    0.30
   9  -5  -1   33.14    1.86
   9  -5  -1   29.20    1.78
  -9   5   1   32.14    2.06
  -9   5   1   28.24    1.54
  -9   5   1   30.91    1.83
   8  -5  -1   48.51    2.30
   8  -5  -1   50.56    2.34
  -8   5   1   45.03    2.10
  -8   5   1   47.36    2.53
  -8   5   1   48.13    2.31
   7  -5  -1   35.35    1.87
   7  -5  -1   36.33    1.89
  -7   5   1   39.40    1.94
  -7   5   1   37.13    1.82
  -7   5   1   40.19    1.96
  -7   5   1   41.76    1.80
  -7   5   1   38.48    2.13
   6  -5  -1   14.41    1.02
   6  -5  -1   13.73    1.01
  -6   5   1   13.14    1.31
  -6   5   1   14.32    0.97
  -6   5   1   13.65    1.00
  -6   5   1   14.63    1.05
  -6   5   1   14.67    1.04
   5  -5  -1   29.98    1.53
   5  -5  -1   30.43    1.53
  -5   5   1   29.40    1.52
  -5   5   1   29.82    1.69
  -5   5   1   30.91    1.51
  -5   5   1   31.99    1.55
   4  -5  -1   23.81    1.28
   4  -5  -1   24.73    1.31
   4  -5  -1   25.67    1.31
  -4   5   1   26.24    1.39
  -4   5   1   27.10    1.34
  -4   5   1   24.04    1.30
  -4   5   1   25.87    1.31
  -4   5   1   21.69    1.37
  -4   5   1   25.34    1.30
   3  -5  -1   21.98    1.13
   3  -5  -1   20.01    1.09
   3  -5  -1   19.86    1.09
  -3   5   1   20.10    1.11
  -3   5   1   20.34    1.10
  -3   5   1   20.96    1.25
  -3   5   1   19.64    1.08
  -3   5   1   20.89    1.19
  -3   5   1   18.88    1.07
   2  -5  -1  128.31    4.03
   2  -5  -1  127.49    4.10
   2  -5  -1  124.95    4.10
   2  -5  -1  121.94    4.10
   2  -5  -1  130.07    4.10
  -2   5   1  130.03    4.13
  -2   5   1  128.69    4.54
  -2   5   1  124.86    4.41
  -2   5   1  127.24    4.12
  -2   5   1  124.55    4.14
  -2   5   1  126.66    4.13
   1  -5  -1    0.93    0.25
   1  -5  -1    1.30    0.29
   1  -5  -1    1.52    0.33
   1  -5  -1    1.04    0.25
   1  -5  -1    1.59    0.35
  -1   5   1    0.81    0.25
  -1   5   1    1.39    0.30
  -1   5   1    1.41    0.36
   0  -5  -1    1.25    0.27
   0  -5  -1    1.22    0.24
   0  -5  -1    1.48    0.25
   0  -5  -1    1.36    0.26
   0  -5  -1    1.58    0.37
   0  -5  -1    2.10    0.38
   0   5   1    0.88    0.25
   0   5   1    1.51    0.35
   0   5   1    1.26    0.27
  -1  -5  -1   61.24    1.89
  -1  -5  -1   57.10    1.87
  -1  -5  -1   60.12    2.09
  -1  -5  -1   60.01    2.22
  -1  -5  -1   59.84    2.47
   1   5   1   61.93    2.11
   1   5   1   58.52    2.08
   1   5   1   55.73    2.24
   1   5   1   61.14    2.09
  -2  -5  -1    6.92    0.74
  -2  -5  -1    7.10    0.92
  -2  -5  -1   10.58    0.66
  -2  -5  -1    7.66    0.51
   2   5   1    8.08    0.50
   2   5   1    7.23    0.50
   2   5   1    6.91    0.50
   2   5   1    7.48    0.50
  -3  -5  -1    0.16    0.10
  -3  -5  -1   -0.02    0.19
  -3  -5  -1   -0.03    0.24
   3   5   1    0.08    0.11
   3   5   1    0.06    0.12
   3   5   1    0.08    0.20
   3   5   1   -0.08    0.08
   3   5   1    0.06    0.12
  -4  -5  -1    9.23    1.17
  -4  -5  -1    8.69    0.51
   4   5   1    8.95    0.55
   4   5   1    8.53    0.51
   4   5   1    8.39    0.49
   4   5   1    7.53    0.94
  -5  -5  -1    3.82    0.38
  -5  -5  -1    4.24    0.39
  -5  -5  -1    4.33    0.87
   5   5   1    3.97    0.37
   5   5   1    3.84    0.38
   5   5   1    4.32    0.77
  -6  -5  -1   19.29    0.84
  -6  -5  -1   17.69    1.88
  -6  -5  -1   17.81    0.81
   6   5   1   18.53    0.80
   6   5   1   19.78    0.83
  -7  -5  -1   16.32    0.77
  -7  -5  -1   15.66    1.88
  -7  -5  -1   16.71    0.79
   7   5   1   17.31    0.75
  -8  -5  -1   11.46    0.66
  -8  -5  -1    9.87    1.57
  -8  -5  -1   12.17    0.68
   8   5   1   11.86    0.59
  -9  -5  -1    1.42    0.78
  -9  -5  -1    1.27    0.27
   9   5   1    1.77    0.26
  10  -6  -1   11.74    1.42
  10  -6  -1   11.50    1.41
 -10   6   1   16.14    1.85
 -10   6   1   14.89    1.31
   9  -6  -1    2.06    0.58
   9  -6  -1    2.35    0.65
  -9   6   1    2.58    0.57
  -9   6   1    3.31    0.84
   8  -6  -1    1.34    0.49
   8  -6  -1    1.02    0.45
  -8   6   1    1.13    0.54
  -8   6   1    1.47    0.45
  -8   6   1    1.30    0.43
  -8   6   1    0.72    0.33
   7  -6  -1    4.24    0.75
   7  -6  -1    2.68    0.60
  -7   6   1    4.46    0.73
  -7   6   1    3.43    0.63
  -7   6   1    4.46    0.68
  -7   6   1    3.81    0.81
   6  -6  -1    7.16    0.89
   6  -6  -1    8.73    1.01
  -6   6   1    7.56    0.95
  -6   6   1    9.08    0.99
  -6   6   1    8.48    1.02
  -6   6   1    8.40    1.13
   5  -6  -1    0.32    0.26
   5  -6  -1    0.70    0.31
  -5   6   1    0.45    0.28
  -5   6   1    0.93    0.38
  -5   6   1    0.17    0.23
  -5   6   1    0.59    0.31
   4  -6  -1    0.11    0.20
   4  -6  -1    0.17    0.17
   4  -6  -1   -0.03    0.16
  -4   6   1    0.08    0.20
  -4   6   1    0.13    0.21
  -4   6   1    0.09    0.20
  -4   6   1    0.09    0.18
  -4   6   1    0.06    0.19
   3  -6  -1   80.66    2.93
   3  -6  -1   82.43    2.95
   3  -6  -1   80.55    2.92
   3  -6  -1   80.01    2.82
  -3   6   1   73.96    2.88
  -3   6   1   74.37    2.90
  -3   6   1   76.97    3.17
  -3   6   1   76.56    3.17
   2  -6  -1  114.57    3.79
   2  -6  -1  113.20    3.83
   2  -6  -1  115.79    3.93
   2  -6  -1  117.14    3.86
   2  -6  -1  117.56    3.89
  -2   6   1  114.68    3.90
  -2   6   1  113.26    4.19
  -2   6   1  114.42    3.90
   1  -6  -1   26.44    1.39
   1  -6  -1   27.40    1.25
   1  -6  -1   27.53    1.28
   1  -6  -1   26.68    1.25
   1  -6  -1   25.09    1.20
  -1   6   1   27.67    1.47
  -1   6   1   26.45    1.30
  -1   6   1   28.72    1.34
   0  -6  -1    7.01    0.87
   0  -6  -1    6.78    0.68
   0  -6  -1    6.69    0.47
   0  -6  -1    7.01    0.72
   0  -6  -1    7.28    0.52
   0  -6  -1    6.66    0.50
   0   6   1    7.68    0.72
   0   6   1    7.03    0.80
   0   6   1    6.72    0.70
  -1  -6  -1   15.88    1.11
  -1  -6  -1   12.26    0.60
  -1  -6  -1   16.82    0.99
  -1  -6  -1   14.38    0.85
  -1  -6  -1   14.98    0.65
   1   6   1   16.09    0.87
   1   6   1   13.18    0.81
  -2  -6  -1   69.00    2.46
  -2  -6  -1   71.53    3.05
  -2  -6  -1   73.49    2.75
   2   6   1   70.02    2.46
   2   6   1   72.35    2.47
   2   6   1   69.49    2.37
  -3  -6  -1    7.43    1.09
  -3  -6  -1    7.87    0.68
  -3  -6  -1    9.81    1.01
   3   6   1    8.30    0.57
   3   6   1    9.66    0.61
   3   6   1    8.26    1.04
   3   6   1    8.41    0.57
  -4  -6  -1    0.81    0.22
  -4  -6  -1    1.12    0.51
   4   6   1    1.11    0.24
   4   6   1    0.89    0.43
  -5  -6  -1    0.51    0.18
  -5  -6  -1    1.13    0.59
  -5  -6  -1    0.54    0.19
   5   6   1    0.36    0.15
   5   6   1    0.35    0.37
  -6  -6  -1    1.07    0.24
  -6  -6  -1    1.14    0.63
  -6  -6  -1    0.81    0.21
   6   6   1    0.85    0.20
  -7  -6  -1    0.12    0.44
  -7  -6  -1    0.00    0.14
  -7  -6  -1    0.00    0.12
   7   6   1    0.02    0.11
  -8  -6  -1    0.16    0.16
  -8  -6  -1    0.14    0.49
   8   6   1    0.15    0.12
  10  -7  -1    0.17    0.36
 -10   7   1    0.15    0.35
 -10   7   1   -0.21    0.45
   9  -7  -1    2.34    0.65
  -9   7   1    2.45    0.78
  -9   7   1    2.80    0.69
  -9   7   1    2.10    0.56
   8  -7  -1   29.29    1.86
  -8   7   1   30.67    1.73
  -8   7   1   30.40    2.12
  -8   7   1   28.45    1.75
  -8   7   1   33.93    1.96
   7  -7  -1   45.32    2.35
  -7   7   1   48.63    2.29
  -7   7   1   50.01    2.52
  -7   7   1   48.43    2.38
  -7   7   1   45.84    2.62
   6  -7  -1   39.10    2.16
  -6   7   1   47.00    2.23
  -6   7   1   51.17    2.47
  -6   7   1   52.07    2.63
   5  -7  -1   14.98    1.12
  -5   7   1   15.77    1.13
  -5   7   1   12.30    1.38
  -5   7   1   16.05    1.21
   4  -7  -1   63.78    2.50
   4  -7  -1   65.29    2.69
   4  -7  -1   66.11    2.69
  -4   7   1   65.77    2.99
  -4   7   1   59.89    2.63
  -4   7   1   69.32    2.76
   3  -7  -1   13.86    0.98
   3  -7  -1   12.12    1.10
   3  -7  -1   12.94    0.93
   3  -7  -1   11.88    0.87
  -3   7   1   12.90    1.17
  -3   7   1   14.03    1.32
  -3   7   1   12.46    0.94
   2  -7  -1    5.15    0.68
   2  -7  -1    6.20    0.71
   2  -7  -1    5.46    0.72
   2  -7  -1    5.27    0.66
  -2   7   1    6.02    0.86
  -2   7   1    4.87    0.69
  -2   7   1    5.82    0.75
   1  -7  -1    2.71    0.45
   1  -7  -1    3.57    0.57
   1  -7  -1    3.48    0.49
   1  -7  -1    4.61    0.72
   1  -7  -1    3.41    0.48
  -1   7   1    4.31    0.70
  -1   7   1    3.72    0.58
  -1   7   1    3.92    0.59
   0  -7  -1    0.23    0.16
   0  -7  -1   -0.03    0.19
   0  -7  -1    0.02    0.12
   0  -7  -1    0.14    0.19
   0   7   1    0.08    0.16
   0   7   1    0.00    0.16
  -1  -7  -1    0.06    0.09
  -1  -7  -1    0.03    0.07
  -1  -7  -1    0.09    0.28
  -1  -7  -1    0.63    0.29
   1   7   1    0.22    0.18
   1   7   1   -0.02    0.16
  -2  -7  -1   30.29    1.58
  -2  -7  -1   26.77    1.75
   2   7   1   28.76    1.35
   2   7   1   28.89    1.35
  -3  -7  -1   34.58    2.13
  -3  -7  -1   38.38    1.91
   3   7   1   32.94    1.47
  -4  -7  -1   11.80    1.51
  -4  -7  -1    9.55    0.68
   4   7   1    9.92    1.27
   4   7   1    9.23    0.64
  -5  -7  -1   14.93    0.85
  -5  -7  -1   14.64    1.78
   5   7   1   14.49    0.80
  -6  -7  -1    2.33    0.38
  -6  -7  -1    0.73    0.56
   6   7   1    2.21    0.33
  -7  -7  -1    6.72    0.61
  -7  -7  -1    6.55    1.37
   7   7   1    6.35    0.46
   9  -8  -1    0.28    0.34
  -9   8   1    0.30    0.39
  -9   8   1   -0.04    0.32
  -9   8   1    0.62    0.55
   8  -8  -1    2.26    0.65
  -8   8   1    2.89    0.64
  -8   8   1    3.55    0.94
  -8   8   1    3.01    0.72
   7  -8  -1    2.87    0.69
  -7   8   1    2.73    0.69
  -7   8   1    2.03    0.54
  -7   8   1    3.23    0.84
   6  -8  -1   12.41    1.38
  -6   8   1   12.24    1.53
  -6   8   1   12.95    1.33
   5  -8  -1   29.87    1.76
  -5   8   1   32.76    1.82
  -5   8   1   33.22    2.08
   4  -8  -1    4.04    0.64
   4  -8  -1    3.74    0.68
   4  -8  -1    5.27    0.78
  -4   8   1    5.68    0.96
  -4   8   1    6.19    0.90
  -4   8   1    4.77    0.76
   3  -8  -1    6.88    0.84
   3  -8  -1    5.80    0.80
   3  -8  -1    6.46    0.85
  -3   8   1    8.07    0.98
  -3   8   1    9.09    1.17
  -3   8   1    5.37    0.78
   2  -8  -1   16.45    1.09
   2  -8  -1   20.25    1.15
   2  -8  -1   17.49    1.22
  -2   8   1   18.50    1.36
  -2   8   1   16.57    1.16
  -2   8   1   19.24    1.23
   1  -8  -1   30.54    1.59
   1  -8  -1   30.56    1.52
   1  -8  -1   29.20    1.43
   1  -8  -1   29.81    1.73
  -1   8   1   30.91    1.60
  -1   8   1   28.87    1.56
   0  -8  -1    3.50    0.46
   0  -8  -1    2.94    0.43
   0  -8  -1    3.20    0.70
   0  -8  -1    3.85    0.61
   0   8   1    2.39    0.50
   0   8   1    3.36    0.58
  -1  -8  -1   -0.19    0.19
  -1  -8  -1    0.30    0.33
  -1  -8  -1    0.07    0.08
  -1  -8  -1    0.05    0.08
   1   8   1   -0.07    0.15
   1   8   1    0.15    0.20
  -2  -8  -1    3.87    0.89
  -2  -8  -1    2.26    0.54
   2   8   1    2.64    0.48
   2   8   1    1.95    0.41
  -3  -8  -1    9.59    1.16
  -3  -8  -1    8.33    1.33
   3   8   1   10.13    0.90
  -4  -8  -1    0.91    0.31
  -4  -8  -1    0.00    0.38
   4   8   1    0.45    0.22
   4   8   1   -0.07    0.38
  -5  -8  -1    1.67    0.38
  -5  -8  -1    1.99    0.75
   5   8   1    1.30    0.31
  -6  -8  -1    0.34    0.20
  -6  -8  -1    0.19    0.47
   6   8   1    0.04    0.13
   9  -9  -1    2.72    0.79
  -9   9   1    3.11    0.77
  -9   9   1    2.93    0.96
  -9   9   1    1.41    0.61
   8  -9  -1    4.36    0.91
  -8   9   1    5.43    1.03
  -8   9   1    5.89    1.23
  -8   9   1    5.18    0.93
   7  -9  -1    9.34    1.25
  -7   9   1   10.01    1.55
  -7   9   1   11.93    1.42
   6  -9  -1   11.74    1.34
  -6   9   1   11.85    1.35
  -6   9   1   11.63    1.56
   5  -9  -1    5.58    0.92
  -5   9   1    3.58    0.75
  -5   9   1    5.18    1.05
   4  -9  -1    0.67    0.35
   4  -9  -1    0.43    0.33
  -4   9   1    0.80    0.48
  -4   9   1    0.32    0.29
   3  -9  -1    1.30    0.43
   3  -9  -1    0.92    0.43
   3  -9  -1    1.28    0.40
  -3   9   1    1.81    0.53
  -3   9   1    0.94    0.41
   2  -9  -1    1.83    0.44
   2  -9  -1    2.54    0.63
  -2   9   1    2.13    0.54
  -2   9   1    2.64    0.59
   1  -9  -1    2.71    0.65
   1  -9  -1    2.41    0.45
  -1   9   1    3.48    0.66
  -1   9   1    2.93    0.62
   0  -9  -1    1.22    0.28
   0  -9  -1    1.66    0.62
   0  -9  -1    1.14    0.28
   0   9   1    0.63    0.35
   0   9   1    1.87    0.50
  -1  -9  -1   13.16    1.57
   1   9   1   15.85    1.09
   1   9   1   13.17    1.00
  -2  -9  -1    3.05    0.80
   2   9   1    3.23    0.56
   2   9   1    3.76    0.63
  -3  -9  -1   23.16    2.36
  -3  -9  -1   29.45    1.76
   3   9   1   25.20    1.94
   3   9   1   22.70    1.32
  -4  -9  -1    5.80    0.75
  -4  -9  -1    5.58    1.21
   4   9   1    5.21    0.67
  -5  -9  -1   -0.11    0.50
  -5  -9  -1    0.47    0.27
   5   9   1    0.37    0.23
   8 -10  -1    1.21    0.56
  -8  10   1    1.46    0.85
  -8  10   1    1.63    0.63
   7 -10  -1   27.63    1.93
  -7  10   1   23.95    2.52
  -7  10   1   25.35    1.82
   6 -10  -1   14.48    1.56
  -6  10   1   17.80    2.03
  -6  10   1   16.57    1.69
   5 -10  -1   24.14    1.63
  -5  10   1   21.10    1.60
   4 -10  -1   19.69    1.41
   4 -10  -1   20.49    1.48
  -4  10   1   20.24    1.52
   3 -10  -1   14.63    1.38
  -3  10   1   11.26    1.28
  -3  10   1   12.01    1.36
   2 -10  -1    8.07    1.14
   2 -10  -1    8.57    0.97
  -2  10   1    9.10    1.14
  -2  10   1    8.51    1.07
   1 -10  -1    9.52    0.92
   1 -10  -1   10.22    1.34
  -1  10   1    8.86    1.08
  -1  10   1    8.94    1.11
   0 -10  -1   10.44    1.44
   0 -10  -1    9.60    0.65
   0 -10  -1   10.50    0.67
   0  10   1    8.90    1.08
   0  10   1   11.79    1.25
  -1 -10  -1    2.19    0.75
   1  10   1    1.41    0.46
   1  10   1    1.06    0.41
  -2 -10  -1    0.82    0.58
   2  10   1    0.68    0.32
  -3 -10  -1    1.49    0.71
  -3 -10  -1    1.40    0.45
   3  10   1    1.41    0.66
   3  10   1    1.39    0.43
  -4 -10  -1    0.36    0.26
  -4 -10  -1    0.63    0.51
   4  10   1    0.59    0.30
   6 -11  -1   -0.11    0.34
  -6  11   1    0.24    0.38
   5 -11  -1   -0.33    0.28
  -5  11   1    0.26    0.36
   4 -11  -1   -0.09    0.29
  -4  11   1   -0.11    0.29
   3 -11  -1    1.97    0.55
  -3  11   1    1.38    0.54
  -3  11   1    0.83    0.48
   2 -11  -1    3.74    0.68
   2 -11  -1    2.87    0.78
  -2  11   1    5.19    0.93
  -2  11   1    2.89    0.74
   1 -11  -1   18.02    1.94
   1 -11  -1   16.91    1.07
  -1  11   1   16.84    1.65
  -1  11   1   18.12    1.67
   0 -11  -1    4.06    0.36
   0 -11  -1    3.54    0.95
   0 -11  -1    2.59    0.30
   0  11   1    2.00    0.57
   0  11   1    3.89    0.81
  -1 -11  -1    0.45    0.60
   1  11   1   -0.28    0.25
   1  11   1    0.33    0.33
  -2 -11  -1    0.08    0.36
  -2 -11  -1   -0.24    0.43
   2  11   1    0.43    0.31
   1 -12   2   11.16    0.82
  -2  12  -2   21.63    1.97
  -2  12  -2   17.24    1.76
   2 -12   2   18.95    1.29
   2  11  -2    0.33    0.28
  -2 -11   2    0.67    0.50
  -2 -11   2   -0.13    0.41
   1  11  -2    0.49    0.32
   1  11  -2    0.80    0.41
  -1 -11   2    0.90    0.57
   0  11  -2    2.17    0.60
   0  11  -2    0.84    0.44
   0 -11   2    1.01    0.55
   0 -11   2    1.63    0.27
   0 -11   2    1.34    0.25
  -1  11  -2    0.61    0.40
  -1  11  -2    0.31    0.33
   1 -11   2    0.45    0.29
  -2  11  -2    6.85    1.04
  -2  11  -2    7.30    1.11
   2 -11   2    7.60    0.92
  -3  11  -2   -0.03    0.24
  -3  11  -2    0.34    0.36
   3 -11   2    0.22    0.35
  -4  11  -2    0.03    0.32
   4 -11   2    0.50    0.42
  -5  11  -2    2.82    0.74
   5 -11   2    3.55    0.78
  -6  11  -2    1.67    0.64
   6 -11   2    4.35    0.93
   4  10  -2    0.28    0.23
  -4 -10   2    1.10    0.67
  -4 -10   2   -0.20    0.32
   3  10  -2    2.44    0.51
  -3 -10   2    2.02    0.79
  -3 -10   2    1.00    0.51
   2  10  -2    2.45    0.53
  -2 -10   2    1.41    0.60
  -2 -10   2    1.07    0.62
   1  10  -2   10.12    1.10
   1  10  -2   10.21    1.15
  -1 -10   2    9.27    1.29
  -1 -10   2    8.21    1.30
   0  10  -2    5.95    0.92
   0  10  -2    5.61    0.82
   0 -10   2    5.29    0.55
   0 -10   2    4.77    0.95
   0 -10   2    3.34    0.78
   0 -10   2    4.54    0.51
  -1  10  -2    8.02    1.03
   1 -10   2    7.85    0.82
   1 -10   2    8.31    1.25
  -2  10  -2    6.51    0.92
  -2  10  -2    5.51    0.88
   2 -10   2    4.89    0.96
   2 -10   2    5.46    0.78
  -3  10  -2   12.69    1.36
  -3  10  -2   12.83    1.35
   3 -10   2   12.79    1.31
   3 -10   2   10.96    1.44
  -4  10  -2   14.78    1.55
   4 -10   2   14.78    1.46
   4 -10   2   15.68    1.55
  -5  10  -2   -0.05    0.28
   5 -10   2   -0.10    0.25
  -6  10  -2    1.06    0.59
  -6  10  -2    1.74    0.59
   6 -10   2    0.67    0.49
  -7  10  -2   -0.21    0.34
  -7  10  -2    0.29    0.48
   7 -10   2   -0.24    0.24
   6   9  -2    0.36    0.19
  -6  -9   2    0.30    0.50
  -6  -9   2    0.02    0.37
   5   9  -2    0.78    0.28
  -5  -9   2    1.24    0.70
  -5  -9   2    3.02    0.83
   4   9  -2    1.47    0.37
   4   9  -2    2.39    0.55
  -4  -9   2    1.60    0.68
  -4  -9   2    2.56    0.87
   3   9  -2   -0.02    0.17
   3   9  -2   -0.09    0.21
  -3  -9   2   -0.15    0.31
  -3  -9   2    0.05    0.40
   2   9  -2    1.11    0.37
   2   9  -2    1.78    0.47
   2   9  -2    1.02    0.33
  -2  -9   2    3.13    0.83
  -2  -9   2    1.78    0.59
   1   9  -2    0.41    0.29
   1   9  -2    0.64    0.29
  -1  -9   2    0.36    0.37
  -1  -9   2    0.20    0.37
   0   9  -2    4.39    0.69
   0   9  -2    5.99    0.81
   0  -9   2    5.21    0.57
   0  -9   2    5.60    0.93
   0  -9   2    4.15    0.84
   0  -9   2    4.71    0.54
  -1   9  -2   23.33    1.44
  -1   9  -2   23.01    1.42
   1  -9   2   24.00    1.55
   1  -9   2   22.30    1.63
   1  -9   2   23.65    1.27
  -2   9  -2   10.03    1.11
  -2   9  -2   11.36    1.21
   2  -9   2   13.15    1.51
   2  -9   2   13.05    1.20
   2  -9   2   12.25    1.12
  -3   9  -2   22.94    1.51
  -3   9  -2   23.31    1.51
   3  -9   2   25.31    1.76
   3  -9   2   22.53    1.41
   3  -9   2   26.46    1.55
  -4   9  -2    0.36    0.37
  -4   9  -2    0.05    0.28
   4  -9   2    0.46    0.33
   4  -9   2    0.37    0.31
  -5   9  -2    0.86    0.41
  -5   9  -2    0.62    0.46
   5  -9   2    0.83    0.42
  -6   9  -2    7.98    1.30
  -6   9  -2   12.33    1.36
   6  -9   2   10.06    1.26
  -7   9  -2    3.70    0.94
  -7   9  -2    4.68    0.90
   7  -9   2    3.91    0.86
  -8   9  -2    2.92    0.73
  -8   9  -2    2.44    0.84
  -8   9  -2    4.26    0.87
   8  -9   2    3.85    0.84
   7   8  -2    8.79    0.47
  -7  -8   2    6.32    1.42
   6   8  -2    0.76    0.21
  -6  -8   2    0.76    0.59
  -6  -8   2    0.97    0.48
   5   8  -2    4.41    0.50
  -5  -8   2    3.96    1.03
  -5  -8   2    4.47    0.92
   4   8  -2    2.61    0.50
   4   8  -2    2.91    0.44
  -4  -8   2    1.79    0.64
  -4  -8   2    2.26    0.75
   3   8  -2   20.76    1.23
   3   8  -2   20.69    1.10
  -3  -8   2   21.29    1.91
  -3  -8   2   18.85    2.01
   2   8  -2    5.93    0.73
   2   8  -2    7.21    0.79
   2   8  -2    5.94    0.69
  -2  -8   2    6.80    1.02
  -2  -8   2    7.12    1.13
   1   8  -2    0.88    0.32
   1   8  -2    0.20    0.22
   1   8  -2    0.16    0.18
  -1  -8   2    0.36    0.12
  -1  -8   2    0.09    0.31
  -1  -8   2    0.17    0.10
  -1  -8   2    0.54    0.38
   0   8  -2    0.56    0.30
   0   8  -2   -0.09    0.18
   0  -8   2    0.25    0.17
   0  -8   2    0.06    0.29
   0  -8   2    0.02    0.14
   0  -8   2    0.31    0.29
   0  -8   2    0.09    0.24
  -1   8  -2    0.32    0.26
  -1   8  -2    0.57    0.32
   1  -8   2    0.30    0.21
   1  -8   2    0.09    0.31
   1  -8   2    0.18    0.19
   1  -8   2    0.06    0.23
   1  -8   2    0.00    0.23
  -2   8  -2    0.80    0.32
  -2   8  -2    0.15    0.28
  -2   8  -2    0.38    0.27
   2  -8   2    0.28    0.31
   2  -8   2    0.21    0.23
   2  -8   2    0.31    0.27
   2  -8   2    0.66    0.32
   2  -8   2    0.15    0.21
  -3   8  -2    4.41    0.74
  -3   8  -2    3.97    0.76
  -3   8  -2    5.06    0.78
   3  -8   2    4.22    0.68
   3  -8   2    4.34    0.71
   3  -8   2    4.19    0.75
  -4   8  -2    0.70    0.35
  -4   8  -2    0.69    0.34
  -4   8  -2    0.29    0.33
   4  -8   2    1.20    0.43
   4  -8   2    0.41    0.34
  -5   8  -2    3.27    0.76
  -5   8  -2    3.67    0.72
   5  -8   2    2.50    0.64
   5  -8   2    4.15    0.75
  -6   8  -2    4.51    0.91
  -6   8  -2    5.67    0.90
   6  -8   2    5.57    0.93
   6  -8   2    6.06    1.00
  -7   8  -2    6.52    1.01
  -7   8  -2    7.01    0.98
  -7   8  -2    6.60    1.15
   7  -8   2    4.66    0.87
  -8   8  -2    2.99    0.85
  -8   8  -2    4.18    0.81
  -8   8  -2    2.74    0.67
   8  -8   2    3.51    0.81
  -9   8  -2   -0.03    0.32
  -9   8  -2    0.44    0.52
  -9   8  -2   -0.01    0.37
   9  -8   2    0.42    0.44
  -8  -7   2    0.98    0.83
  -7  -7   2    4.37    0.39
  -7  -7   2    4.21    1.12
   6   7  -2    2.13    0.28
  -6  -7   2    1.39    0.51
  -6  -7   2    2.45    0.32
  -6  -7   2    2.36    0.79
   5   7  -2    1.31    0.36
   5   7  -2    1.17    0.24
  -5  -7   2    0.93    0.50
  -5  -7   2    0.75    0.57
  -5  -7   2    0.79    0.23
   4   7  -2    5.72    0.68
   4   7  -2    4.23    0.48
  -4  -7   2    5.61    0.93
  -4  -7   2    4.60    0.98
  -4  -7   2    5.27    0.55
   3   7  -2    0.81    0.24
   3   7  -2    0.85    0.30
  -3  -7   2    0.38    0.36
  -3  -7   2    1.11    0.29
  -3  -7   2    1.13    0.45
   2   7  -2    6.19    0.70
   2   7  -2    5.21    0.58
   2   7  -2    6.35    0.67
  -2  -7   2    7.91    1.02
  -2  -7   2    4.70    0.84
   1   7  -2   16.45    0.97
   1   7  -2   15.83    0.93
   1   7  -2   14.29    0.91
  -1  -7   2   15.98    0.99
  -1  -7   2   16.40    1.48
  -1  -7   2   14.88    0.67
  -1  -7   2   15.30    0.66
  -1  -7   2   14.30    1.36
   0   7  -2    0.80    0.27
   0   7  -2    0.63    0.26
   0  -7   2    0.57    0.28
   0  -7   2    0.76    0.37
   0  -7   2    0.37    0.26
   0  -7   2    0.76    0.23
   0  -7   2    0.33    0.19
  -1   7  -2   11.60    1.02
  -1   7  -2    9.72    0.94
  -1   7  -2   11.69    1.10
   1  -7   2    9.68    0.71
   1  -7   2   11.94    1.09
   1  -7   2   10.05    1.02
   1  -7   2   10.16    0.74
   1  -7   2    9.49    0.72
   1  -7   2   10.44    1.18
  -2   7  -2   66.61    2.82
  -2   7  -2   64.08    2.62
  -2   7  -2   66.09    2.64
   2  -7   2   66.22    2.54
   2  -7   2   68.56    2.57
   2  -7   2   67.53    2.97
   2  -7   2   65.37    2.80
  -3   7  -2   82.55    3.18
  -3   7  -2   83.63    3.18
  -3   7  -2   85.63    3.42
   3  -7   2   80.18    3.36
   3  -7   2   83.03    3.12
  -4   7  -2   69.76    2.88
  -4   7  -2   76.34    2.95
  -4   7  -2   67.91    3.08
   4  -7   2   72.01    3.11
   4  -7   2   70.46    2.86
  -5   7  -2   10.06    1.09
  -5   7  -2    8.90    1.14
  -5   7  -2    8.97    1.08
   5  -7   2    7.36    1.02
   5  -7   2    8.30    0.97
  -6   7  -2    0.50    0.39
  -6   7  -2    0.69    0.38
  -6   7  -2    1.23    0.43
   6  -7   2    0.48    0.32
   6  -7   2    0.89    0.47
  -7   7  -2   17.84    1.36
  -7   7  -2   18.41    1.62
  -7   7  -2   18.31    1.29
  -7   7  -2   18.23    1.83
   7  -7   2   15.92    1.55
   7  -7   2   18.00    1.72
  -8   7  -2    3.80    0.89
  -8   7  -2    4.56    0.84
  -8   7  -2    4.47    0.78
  -8   7  -2    4.29    0.78
   8  -7   2    4.31    0.82
  -9   7  -2    1.37    0.63
  -9   7  -2    1.77    0.56
  -9   7  -2    1.11    0.48
   9  -7   2    1.54    0.58
  -8  -6   2    2.60    0.98
  -7  -6   2   28.87    2.76
  -7  -6   2   29.62    0.98
   6   6  -2   27.26    1.42
   6   6  -2   31.38    1.05
   6   6  -2   29.86    1.04
  -6  -6   2   31.83    1.98
  -6  -6   2   31.93    2.23
  -6  -6   2   29.00    1.05
   5   6  -2   16.93    1.02
   5   6  -2   18.39    0.78
   5   6  -2   17.68    0.76
  -5  -6   2   17.77    0.78
  -5  -6   2   19.03    0.78
  -5  -6   2   18.48    1.95
  -5  -6   2   15.72    1.58
   4   6  -2    8.55    0.52
   4   6  -2    9.32    0.54
   4   6  -2    9.02    0.81
  -4  -6   2    8.79    1.08
  -4  -6   2    8.22    0.52
  -4  -6   2    8.69    1.23
  -4  -6   2    9.37    0.54
   3   6  -2    2.59    0.35
   3   6  -2    3.37    0.48
   3   6  -2    2.77    0.36
   3   6  -2    2.67    0.36
  -3  -6   2    2.71    0.67
  -3  -6   2    1.67    0.48
  -3  -6   2    2.44    0.34
  -3  -6   2    2.78    0.36
   2   6  -2    2.76    0.39
   2   6  -2    2.30    0.36
   2   6  -2    2.25    0.40
  -2  -6   2    4.13    0.72
  -2  -6   2    3.84    0.74
  -2  -6   2    2.75    0.39
  -2  -6   2    1.88    0.33
  -2  -6   2    2.17    0.37
   1   6  -2    4.69    0.54
   1   6  -2    4.14    0.48
   1   6  -2    3.69    0.52
  -1  -6   2    3.76    0.52
  -1  -6   2    5.54    0.79
  -1  -6   2    3.50    0.46
  -1  -6   2    4.12    0.36
  -1  -6   2    4.12    0.31
  -1  -6   2    3.93    0.71
   0   6  -2    0.01    0.14
   0   6  -2    0.47    0.21
   0   6  -2    0.25    0.17
   0   6  -2    0.36    0.21
   0  -6   2    0.19    0.15
   0  -6   2    0.11    0.19
   0  -6   2    0.00    0.18
   0  -6   2    0.21    0.17
   0  -6   2    0.15    0.14
   0  -6   2    0.21    0.14
   0  -6   2    0.12    0.26
  -1   6  -2    2.16    0.42
  -1   6  -2    2.22    0.44
  -1   6  -2    2.70    0.45
   1  -6   2    2.11    0.46
   1  -6   2    3.15    0.51
   1  -6   2    2.80    0.45
   1  -6   2    2.93    0.42
   1  -6   2    3.87    0.69
  -2   6  -2   21.69    1.27
  -2   6  -2   21.37    1.17
  -2   6  -2   20.76    1.15
   2  -6   2   20.88    1.13
   2  -6   2   20.81    1.27
   2  -6   2   21.48    1.06
  -3   6  -2   12.45    0.89
  -3   6  -2   12.17    1.14
  -3   6  -2   12.36    0.94
  -3   6  -2   11.52    1.06
   3  -6   2   12.58    1.10
   3  -6   2   10.36    1.07
   3  -6   2   11.29    0.65
   3  -6   2   10.32    0.95
  -4   6  -2   61.95    2.73
  -4   6  -2   61.08    2.53
  -4   6  -2   56.11    2.45
  -4   6  -2   62.68    2.52
  -4   6  -2   61.37    2.69
   4  -6   2   61.38    2.67
   4  -6   2   60.34    2.46
   4  -6   2   60.73    2.51
  -5   6  -2    0.57    0.31
  -5   6  -2    0.00    0.21
  -5   6  -2    0.30    0.25
  -5   6  -2    0.29    0.27
   5  -6   2    0.30    0.28
   5  -6   2    0.06    0.21
   5  -6   2    0.29    0.26
  -6   6  -2    9.61    1.17
  -6   6  -2    8.68    1.03
  -6   6  -2    9.62    1.08
  -6   6  -2    8.01    0.96
   6  -6   2    7.72    1.03
   6  -6   2    9.24    1.06
   6  -6   2    8.80    1.00
  -7   6  -2    1.57    0.53
  -7   6  -2    1.37    0.43
  -7   6  -2    1.48    0.45
  -7   6  -2    0.94    0.39
   7  -6   2    2.09    0.57
   7  -6   2    0.95    0.46
   7  -6   2    0.57    0.34
  -8   6  -2    8.53    1.01
  -8   6  -2    9.47    1.08
  -8   6  -2    8.65    1.20
  -8   6  -2   11.01    1.13
   8  -6   2   12.21    1.29
   8  -6   2    8.54    1.09
  -9   6  -2   15.18    1.74
  -9   6  -2   16.52    1.25
  -9   6  -2   16.16    1.23
   9  -6   2   20.20    1.50
   9  -6   2   14.11    1.48
 -10   6  -2    0.15    0.26
 -10   6  -2    0.01    0.39
 -10   6  -2    0.22    0.25
  10  -6   2    0.52    0.38
  10  -6   2    0.01    0.32
   7   5  -2    2.31    0.44
  -7  -5   2    2.58    0.83
   6   5  -2    2.96    0.48
  -6  -5   2    3.15    0.79
  -6  -5   2    3.40    0.73
   5   5  -2    1.10    0.30
   5   5  -2    0.85    0.15
   5   5  -2    0.91    0.15
  -5  -5   2    1.73    0.61
  -5  -5   2    1.05    0.14
  -5  -5   2    0.87    0.43
  -5  -5   2    0.98    0.14
   4   5  -2   13.54    0.61
   4   5  -2   13.69    0.82
   4   5  -2   13.52    0.61
  -4  -5   2   13.21    0.60
  -4  -5   2   12.86    1.42
  -4  -5   2   12.53    1.23
  -4  -5   2   16.10    0.62
   3   5  -2    1.71    0.24
   3   5  -2    1.56    0.23
   3   5  -2    1.96    0.35
   3   5  -2    1.76    0.24
   3   5  -2    1.84    0.25
  -3  -5   2    1.85    0.27
  -3  -5   2    1.91    0.27
  -3  -5   2    1.68    0.25
  -3  -5   2    1.78    0.48
  -3  -5   2    1.26    0.42
  -3  -5   2    1.57    0.26
   2   5  -2    0.18    0.11
   2   5  -2   -0.03    0.09
   2   5  -2    0.21    0.17
   2   5  -2    0.04    0.11
   2   5  -2    0.13    0.13
  -2  -5   2    0.11    0.12
  -2  -5   2   -0.15    0.16
  -2  -5   2   -0.08    0.20
  -2  -5   2    0.15    0.11
  -2  -5   2    0.24    0.14
  -2  -5   2    0.32    0.16
   1   5  -2    9.43    0.62
   1   5  -2    9.34    0.58
   1   5  -2    9.92    0.63
   1   5  -2    9.40    0.58
   1   5  -2    9.23    0.58
  -1  -5   2   10.05    0.98
  -1  -5   2    8.86    0.95
  -1  -5   2    8.65    0.62
  -1  -5   2    8.49    0.45
  -1  -5   2    8.63    0.57
  -1  -5   2    8.68    0.57
  -1  -5   2    8.47    0.45
   0   5  -2   37.89    1.61
   0   5  -2   38.67    1.53
   0   5  -2   38.10    1.53
   0   5  -2   37.20    1.52
   0  -5   2   38.35    1.65
   0  -5   2   38.96    1.54
   0  -5   2   38.36    1.52
   0  -5   2   37.63    1.45
   0  -5   2   36.29    1.64
   0  -5   2   38.34    1.44
   0  -5   2   37.11    1.79
   0  -5   2   39.70    1.43
  -1   5  -2    4.29    0.52
  -1   5  -2    4.37    0.52
  -1   5  -2    5.12    0.60
   1  -5   2    4.42    0.49
   1  -5   2    5.20    0.56
   1  -5   2    5.78    0.65
   1  -5   2    5.15    0.56
  -2   5  -2    0.24    0.18
  -2   5  -2    0.88    0.29
  -2   5  -2    0.27    0.18
  -2   5  -2    0.54    0.23
  -2   5  -2    0.18    0.19
   2  -5   2    0.36    0.19
   2  -5   2    0.08    0.16
   2  -5   2    0.43    0.21
   2  -5   2    0.26    0.14
  -3   5  -2   20.95    1.22
  -3   5  -2   21.81    1.13
  -3   5  -2   20.34    1.21
  -3   5  -2   21.40    1.15
  -3   5  -2   21.51    1.16
  -3   5  -2   20.65    1.13
   3  -5   2   20.47    1.13
   3  -5   2   21.27    1.25
   3  -5   2   20.99    0.82
   3  -5   2   18.69    1.08
  -4   5  -2    7.67    0.83
  -4   5  -2    6.48    0.77
  -4   5  -2    5.88    0.72
  -4   5  -2    6.49    0.76
  -4   5  -2    6.29    0.79
  -4   5  -2    5.77    0.72
   4  -5   2    7.13    0.79
   4  -5   2    4.87    0.63
   4  -5   2    7.26    0.87
  -5   5  -2   34.07    1.77
  -5   5  -2   38.37    1.77
  -5   5  -2   35.06    1.68
  -5   5  -2   35.71    1.72
  -5   5  -2   32.05    1.80
   5  -5   2   37.60    1.77
   5  -5   2   35.97    1.70
   5  -5   2   35.97    1.86
  -6   5  -2    1.58    0.44
  -6   5  -2    1.34    0.39
  -6   5  -2    0.94    0.38
  -6   5  -2    1.10    0.41
  -6   5  -2    1.20    0.36
   6  -5   2    0.41    0.29
   6  -5   2    0.65    0.32
   6  -5   2    1.18    0.38
  -7   5  -2    2.27    0.59
  -7   5  -2    2.18    0.49
  -7   5  -2    1.76    0.52
  -7   5  -2    1.29    0.37
  -7   5  -2    2.02    0.47
   7  -5   2    2.00    0.50
   7  -5   2    1.39    0.44
  -8   5  -2    0.38    0.28
  -8   5  -2    0.15    0.31
  -8   5  -2    0.01    0.21
  -8   5  -2    0.15    0.29
   8  -5   2   -0.05    0.25
   8  -5   2    0.23    0.29
  -9   5  -2    0.30    0.35
  -9   5  -2   -0.16    0.17
  -9   5  -2    0.20    0.33
  -9   5  -2    0.07    0.23
   9  -5   2   -0.04    0.27
   9  -5   2    0.33    0.30
 -10   5  -2    0.12    0.23
 -10   5  -2    0.39    0.32
  10  -5   2    0.44    0.33
  10  -5   2    0.24    0.38
 -10  -4   2    0.64    0.20
 -10  -4   2    1.30    0.24
  -9  -4   2    6.91    0.41
   8   4  -2    9.71    0.94
  -8  -4   2   11.06    0.47
   7   4  -2    8.57    0.83
  -7  -4   2    7.78    1.31
   6   4  -2   21.15    1.10
  -6  -4   2   18.44    1.87
  -6  -4   2   19.80    1.40
   5   4  -2   16.74    0.57
   5   4  -2   17.08    0.57
   5   4  -2   16.16    0.91
  -5  -4   2   14.90    1.37
  -5  -4   2   16.25    1.67
   4   4  -2   12.33    0.72
   4   4  -2   12.06    0.48
   4   4  -2   11.62    0.47
  -4  -4   2   11.72    0.43
  -4  -4   2   14.01    1.36
  -4  -4   2   11.12    0.42
  -4  -4   2   12.95    1.20
   3   4  -2   47.80    1.53
   3   4  -2   47.60    1.75
   3   4  -2   49.28    1.46
   3   4  -2   48.15    1.53
  -3  -4   2   46.04    1.60
  -3  -4   2   47.48    2.21
  -3  -4   2   48.38    1.59
  -3  -4   2   47.99    2.07
  -3  -4   2   47.37    1.50
  -3  -4   2   44.75    1.48
   2   4  -2   -0.05    0.07
   2   4  -2    0.01    0.08
   2   4  -2    0.15    0.10
   2   4  -2    0.04    0.09
   2   4  -2    0.03    0.10
  -2  -4   2   -0.06    0.07
  -2  -4   2    0.09    0.20
  -2  -4   2    0.01    0.18
  -2  -4   2    0.06    0.08
  -2  -4   2    0.01    0.11
  -2  -4   2    0.08    0.10
   1   4  -2    5.64    0.43
   1   4  -2    5.67    0.52
   1   4  -2    4.86    0.45
   1   4  -2    5.96    0.41
   1   4  -2    6.64    0.43
  -1  -4   2    6.49    0.74
  -1  -4   2    7.07    0.51
  -1  -4   2    5.74    0.33
  -1  -4   2    6.19    0.42
  -1  -4   2    6.12    0.34
  -1  -4   2    7.03    0.79
  -1  -4   2    5.86    0.42
   0   4  -2   22.87    1.04
   0   4  -2   22.12    0.97
   0   4  -2   23.62    0.98
   0   4  -2   21.27    0.96
   0  -4   2   19.88    1.02
   0  -4   2   20.93    1.05
   0  -4   2   21.61    1.19
   0  -4   2   23.05    0.91
   0  -4   2   20.27    0.91
   0  -4   2   20.48    0.96
   0  -4   2   22.75    0.98
  -1   4  -2    0.10    0.11
  -1   4  -2    0.20    0.16
  -1   4  -2    0.54    0.19
  -1   4  -2    0.31    0.16
   1  -4   2    0.00    0.12
   1  -4   2    0.37    0.19
   1  -4   2    0.32    0.16
   1  -4   2    0.09    0.12
   1  -4   2    0.00    0.11
  -2   4  -2   48.65    1.86
  -2   4  -2   47.05    1.80
  -2   4  -2   48.35    1.96
  -2   4  -2   47.85    1.84
  -2   4  -2   50.50    1.86
   2  -4   2   48.22    1.81
   2  -4   2   48.80    1.85
   2  -4   2   47.55    1.99
   2  -4   2   46.57    1.58
  -3   4  -2   41.30    1.86
  -3   4  -2   46.89    1.90
  -3   4  -2   42.40    1.74
  -3   4  -2   38.57    1.67
  -3   4  -2   43.59    1.73
  -3   4  -2   42.21    1.72
   3  -4   2   44.89    1.76
   3  -4   2   41.38    1.86
   3  -4   2   38.96    1.67
   3  -4   2   42.44    1.73
  -4   4  -2   62.75    2.53
  -4   4  -2   63.49    2.36
  -4   4  -2   65.32    2.59
  -4   4  -2   58.28    2.33
  -4   4  -2   63.87    2.38
  -4   4  -2   60.26    2.34
   4  -4   2   58.58    2.31
   4  -4   2   60.30    2.52
   4  -4   2   63.14    2.38
   4  -4   2   63.68    2.38
  -5   4  -2  119.77    4.45
  -5   4  -2  127.65    4.23
  -5   4  -2  120.68    4.18
  -5   4  -2  128.48    4.18
  -5   4  -2  128.97    4.59
   5  -4   2  126.57    4.26
   5  -4   2  121.22    4.47
   5  -4   2  129.72    4.24
  -6   4  -2   41.60    2.06
  -6   4  -2   40.16    1.79
  -6   4  -2   45.03    1.98
  -6   4  -2   45.82    1.99
  -6   4  -2   42.08    1.88
   6  -4   2   41.73    2.04
   6  -4   2   42.12    1.92
   6  -4   2   43.02    1.96
  -7   4  -2    3.69    0.55
  -7   4  -2    5.11    0.76
  -7   4  -2    4.00    0.61
  -7   4  -2    4.06    0.74
  -7   4  -2    2.87    0.50
   7  -4   2    2.92    0.56
   7  -4   2    4.10    0.67
  -8   4  -2    6.32    0.73
  -8   4  -2    7.33    0.96
  -8   4  -2    8.17    1.06
  -8   4  -2    6.82    0.78
   8  -4   2    7.60    0.99
   8  -4   2    8.07    1.00
  -9   4  -2    6.41    0.73
  -9   4  -2    7.00    0.98
  -9   4  -2    5.43    0.91
   9  -4   2    5.10    0.83
   9  -4   2    4.41    0.79
 -10   4  -2    5.39    0.95
 -10   4  -2    4.88    0.94
 -10   4  -2    5.89    0.60
 -10   4  -2    5.47    0.59
  10  -4   2    6.33    1.00
  10  -4   2    5.77    0.96
  10   3  -2    0.04    0.12
 -10  -3   2    0.10    0.14
   9   3  -2    1.67    0.24
  -9  -3   2    1.17    0.24
   8   3  -2    1.47    0.21
   8   3  -2    1.34    0.21
  -8  -3   2    1.64    0.23
   7   3  -2    6.32    0.34
   7   3  -2    6.40    0.34
  -7  -3   2    6.68    0.34
  -7  -3   2    6.72    0.34
   6   3  -2   84.66    2.43
   6   3  -2   81.55    2.43
  -6  -3   2   85.75    3.71
   5   3  -2   30.07    0.91
   5   3  -2   29.72    0.92
  -5  -3   2   30.32    1.62
  -5  -3   2   30.28    1.78
   4   3  -2   51.60    1.52
   4   3  -2   53.27    1.85
   4   3  -2   52.67    1.53
   4   3  -2   51.69    1.52
  -4  -3   2   50.29    2.34
  -4  -3   2   49.97    2.17
   3   3  -2  140.11    4.18
   3   3  -2  141.15    3.99
   3   3  -2  140.87    3.98
  -3  -3   2  134.15    4.53
  -3  -3   2  135.46    3.88
  -3  -3   2  138.52    3.89
  -3  -3   2  146.87    4.20
   2   3  -2  109.31    3.31
   2   3  -2  109.00    3.31
   2   3  -2  108.61    3.14
   2   3  -2  112.64    3.21
   2   3  -2  113.18    3.22
  -2  -3   2  105.54    3.39
  -2  -3   2  104.01    3.72
  -2  -3   2  107.38    3.16
  -2  -3   2  106.02    3.15
  -2  -3   2  109.59    3.66
  -2  -3   2  111.07    3.35
   1   3  -2   17.65    0.74
   1   3  -2   17.72    0.69
   1   3  -2   16.27    0.74
   1   3  -2   16.54    0.70
   1   3  -2   15.75    0.69
  -1  -3   2   16.29    0.78
  -1  -3   2   17.01    0.70
  -1  -3   2   15.70    0.62
  -1  -3   2   16.06    0.69
  -1  -3   2   15.88    0.94
  -1  -3   2   17.15    0.92
   0   3  -2   11.30    0.63
   0   3  -2   12.08    0.60
   0   3  -2   11.98    0.60
   0   3  -2   13.33    0.63
   0  -3   2   12.42    0.82
   0  -3   2   11.80    0.60
   0  -3   2   13.26    0.59
   0  -3   2   12.45    0.70
   0  -3   2   10.92    0.59
   0  -3   2   11.66    0.65
   0  -3   2   10.02    0.56
  -1   3  -2    0.23    0.13
  -1   3  -2    0.19    0.13
  -1   3  -2    0.39    0.16
  -1   3  -2    0.39    0.17
  -1   3  -2    0.22    0.13
   1  -3   2    0.35    0.16
   1  -3   2    0.02    0.13
   1  -3   2    0.49    0.16
   1  -3   2    0.36    0.17
   1  -3   2    0.52    0.14
   1  -3   2    0.40    0.16
  -2   3  -2    0.15    0.13
  -2   3  -2    0.58    0.20
  -2   3  -2    0.29    0.15
  -2   3  -2    0.46    0.19
  -2   3  -2   -0.03    0.10
   2  -3   2    0.17    0.14
   2  -3   2    0.17    0.14
   2  -3   2    0.29    0.15
   2  -3   2    0.30    0.17
  -3   3  -2    6.95    0.64
  -3   3  -2    5.21    0.57
  -3   3  -2    6.87    0.68
  -3   3  -2    6.10    0.62
  -3   3  -2    5.88    0.59
   3  -3   2    5.35    0.56
   3  -3   2    6.30    0.61
   3  -3   2    5.73    0.58
   3  -3   2    5.21    0.63
  -4   3  -2    0.90    0.25
  -4   3  -2    0.83    0.25
  -4   3  -2    0.60    0.22
  -4   3  -2    0.93    0.29
  -4   3  -2    0.82    0.26
  -4   3  -2    0.89    0.30
  -4   3  -2    0.65    0.23
   4  -3   2    0.38    0.18
   4  -3   2    0.79    0.25
   4  -3   2    0.59    0.25
  -5   3  -2   33.39    1.55
  -5   3  -2   30.31    1.44
  -5   3  -2   34.84    1.65
  -5   3  -2   33.25    1.46
  -5   3  -2   33.76    1.45
  -5   3  -2   34.37    1.53
   5  -3   2   34.78    1.65
   5  -3   2   34.04    1.52
   5  -3   2   31.65    1.48
  -6   3  -2    3.85    0.52
  -6   3  -2    3.30    0.46
  -6   3  -2    1.96    0.45
  -6   3  -2    2.58    0.42
  -6   3  -2    2.66    0.44
  -6   3  -2    1.99    0.41
   6  -3   2    2.99    0.50
   6  -3   2    1.90    0.39
   6  -3   2    2.80    0.53
  -7   3  -2    1.79    0.42
  -7   3  -2    1.65    0.34
  -7   3  -2    1.32    0.33
  -7   3  -2    1.81    0.37
  -7   3  -2    1.91    0.49
   7  -3   2    1.53    0.39
   7  -3   2    1.63    0.41
  -8   3  -2    1.84    0.37
  -8   3  -2    2.46    0.54
  -8   3  -2    2.66    0.61
  -8   3  -2    1.93    0.35
   8  -3   2    1.66    0.44
   8  -3   2    3.07    0.59
  -9   3  -2   -0.02    0.24
  -9   3  -2    0.25    0.15
  -9   3  -2    0.30    0.16
  -9   3  -2    0.15    0.25
   9  -3   2    0.15    0.28
   9  -3   2    0.38    0.32
 -10   3  -2    3.45    0.71
 -10   3  -2    2.46    0.65
  10  -3   2    2.30    0.59
  10  -3   2    3.14    0.69
  10   2  -2    1.18    0.30
 -10  -2   2    1.56    0.37
   9   2  -2    0.31    0.17
  -9  -2   2    0.32    0.20
   8   2  -2    1.03    0.23
  -8  -2   2    0.63    0.19
   7   2  -2    5.91    0.38
   7   2  -2    4.97    0.36
  -7  -2   2    5.00    0.36
  -7  -2   2    5.62    0.37
  -7  -2   2    5.09    0.34
   6   2  -2    9.99    0.49
   6   2  -2   11.73    0.51
  -6  -2   2   11.70    0.51
  -6  -2   2   10.83    0.48
  -6  -2   2   11.40    0.52
  -6  -2   2   11.31    0.49
   5   2  -2   10.58    0.44
   5   2  -2   11.47    0.51
   5   2  -2   11.08    0.44
  -5  -2   2    9.52    0.46
  -5  -2   2   10.33    0.43
  -5  -2   2   10.19    0.38
  -5  -2   2   10.44    0.38
  -5  -2   2    7.91    0.88
   4   2  -2    5.95    0.26
   4   2  -2    5.84    0.27
   4   2  -2    5.59    0.33
  -4  -2   2    5.61    0.77
  -4  -2   2    5.54    0.31
  -4  -2   2    5.64    0.69
   3   2  -2    1.12    0.12
   3   2  -2    1.08    0.12
  -3  -2   2    0.57    0.24
  -3  -2   2    1.49    0.39
  -3  -2   2    0.94    0.15
   2   2  -2   66.77    1.95
   2   2  -2   65.75    2.01
   2   2  -2   66.20    1.95
  -2  -2   2   63.85    1.90
  -2  -2   2   63.91    2.10
  -2  -2   2   64.00    1.90
  -2  -2   2   67.29    2.34
  -2  -2   2   64.02    2.39
   1   2  -2   13.20    0.55
   1   2  -2   13.12    0.55
   1   2  -2   12.10    0.56
   1   2  -2   13.21    0.59
   1   2  -2   13.22    0.54
  -1  -2   2   13.32    0.51
  -1  -2   2   13.37    0.64
  -1  -2   2   12.98    0.54
  -1  -2   2   13.14    0.76
  -1  -2   2   12.16    0.70
  -1  -2   2   12.67    0.54
   0   2  -2   20.15    0.78
   0   2  -2   20.56    0.82
   0   2  -2   19.39    0.78
   0   2  -2   19.37    0.76
   0   2  -2   18.69    0.77
   0  -2   2   18.84    0.75
   0  -2   2   18.95    0.87
   0  -2   2   18.87    0.77
   0  -2   2   19.09    0.77
   0  -2   2   19.17    0.77
  -1   2  -2   27.19    1.05
  -1   2  -2   28.43    1.05
  -1   2  -2   27.01    1.11
  -1   2  -2   27.22    1.03
  -1   2  -2   26.01    1.05
   1  -2   2   27.19    1.04
   1  -2   2   25.78    1.04
   1  -2   2   27.75    1.06
   1  -2   2   27.28    1.16
   1  -2   2   26.70    1.04
  -2   2  -2    0.52    0.17
  -2   2  -2    0.31    0.14
  -2   2  -2    0.57    0.19
  -2   2  -2    0.20    0.13
  -2   2  -2    0.16    0.13
   2  -2   2    0.23    0.14
   2  -2   2    0.68    0.23
   2  -2   2    0.34    0.18
   2  -2   2    0.21    0.15
   2  -2   2    0.47    0.17
  -3   2  -2   59.96    2.13
  -3   2  -2   64.29    2.29
  -3   2  -2   61.34    2.15
  -3   2  -2   63.63    2.13
  -3   2  -2   60.93    2.33
  -3   2  -2   62.05    2.15
   3  -2   2   65.57    2.19
   3  -2   2   62.18    2.16
   3  -2   2   64.47    2.34
  -4   2  -2  219.11    6.64
  -4   2  -2  222.99    6.96
  -4   2  -2  220.77    6.57
  -4   2  -2  231.27    6.57
  -4   2  -2  216.38    7.29
  -4   2  -2  217.02    6.57
  -4   2  -2  222.90    6.60
   4  -2   2  223.41    6.63
   4  -2   2  223.23    6.65
   4  -2   2  221.63    7.00
  -5   2  -2   56.06    2.26
  -5   2  -2   56.74    2.02
  -5   2  -2   58.42    1.99
  -5   2  -2   51.97    2.01
  -5   2  -2   56.61    2.15
  -5   2  -2   58.33    2.12
  -5   2  -2   55.46    2.15
   5  -2   2   55.38    2.25
   5  -2   2   53.41    2.10
   5  -2   2   58.35    2.13
  -6   2  -2   49.80    1.84
  -6   2  -2   49.27    1.75
  -6   2  -2   49.75    1.82
  -6   2  -2   50.46    1.91
  -6   2  -2   49.25    1.99
  -6   2  -2   46.95    2.10
   6  -2   2   50.70    2.00
   6  -2   2   47.35    2.22
   6  -2   2   46.05    1.97
  -7   2  -2    5.94    0.78
  -7   2  -2    5.35    0.53
  -7   2  -2    4.96    0.64
  -7   2  -2    5.96    0.53
   7  -2   2    4.66    0.62
   7  -2   2    5.04    0.65
  -8   2  -2    1.20    0.22
  -8   2  -2    1.38    0.41
  -8   2  -2    1.58    0.23
  -8   2  -2    0.96    0.37
   8  -2   2    1.08    0.35
   8  -2   2    0.81    0.35
  -9   2  -2    2.94    0.58
  -9   2  -2    2.21    0.57
   9  -2   2    3.28    0.64
   9  -2   2    1.71    0.46
 -10   2  -2    0.62    0.31
 -10   2  -2    1.18    0.47
  10  -2   2    0.57    0.36
  10  -2   2    0.69    0.37
  11  -2   2    0.48    0.31
  11   1  -2    0.51    0.28
 -11  -1   2    0.76    0.33
  10   1  -2    0.60    0.26
 -10  -1   2    0.54    0.28
   9   1  -2    1.69    0.36
  -9  -1   2    2.23    0.38
   8   1  -2    9.86    0.65
  -8  -1   2   10.68    0.71
  -8  -1   2   11.36    0.68
   7   1  -2    5.39    0.49
   7   1  -2    4.29    0.44
  -7  -1   2    4.61    0.50
  -7  -1   2    4.25    0.44
   6   1  -2   46.49    1.57
   6   1  -2   44.52    1.51
   6   1  -2   44.10    1.56
  -6  -1   2   46.59    1.70
  -6  -1   2   43.85    1.54
  -6  -1   2   46.87    1.55
   5   1  -2  228.48    6.57
   5   1  -2  233.14    6.56
   5   1  -2  238.01    6.49
  -5  -1   2  225.36    6.47
  -5  -1   2  226.67    6.47
  -5  -1   2  224.61    6.82
  -5  -1   2  229.73    6.90
   4   1  -2   76.09    2.14
   4   1  -2   73.97    2.22
   4   1  -2   76.83    2.22
  -4  -1   2   69.81    2.60
  -4  -1   2   71.46    2.16
  -4  -1   2   70.01    2.15
  -4  -1   2   73.51    2.39
   3   1  -2    3.12    0.20
   3   1  -2    2.93    0.20
  -3  -1   2    2.22    0.37
  -3  -1   2    2.75    0.18
  -3  -1   2    2.99    0.31
  -3  -1   2    2.33    0.17
   2   1  -2   75.53    2.17
   2   1  -2   74.15    2.13
   2   1  -2   74.42    2.18
  -2  -1   2   72.29    2.13
  -2  -1   2   69.48    2.40
  -2  -1   2   72.87    2.34
  -2  -1   2   73.03    2.13
   1   1  -2    8.77    0.39
   1   1  -2    9.43    0.39
  -1  -1   2    8.11    0.52
  -1  -1   2    8.42    0.47
  -1  -1   2    8.26    0.38
  -1  -1   2    7.91    0.36
  -1  -1   2    8.26    0.38
  -1  -1   2    8.15    0.37
   0   1  -2   52.34    1.69
   0   1  -2   56.58    1.71
   0  -1   2   52.27    1.69
   0  -1   2   53.03    1.85
   0  -1   2   53.28    1.68
   0  -1   2   53.85    1.69
   0  -1   2   55.96    1.86
  -1   1  -2  205.43    5.74
  -1   1  -2  190.84    5.49
  -1   1  -2  189.29    5.70
  -1   1  -2  198.51    5.71
  -1   1  -2  197.26    5.65
  -1   1  -2  198.72    5.97
   1  -1   2  201.34    6.05
   1  -1   2  199.21    5.68
   1  -1   2  199.11    5.70
   1  -1   2  198.39    5.71
   1  -1   2  203.79    6.07
  -2   1  -2    2.22    0.28
  -2   1  -2    3.32    0.34
  -2   1  -2    2.47    0.30
  -2   1  -2    2.22    0.31
   2  -1   2    2.32    0.29
   2  -1   2    2.50    0.41
   2  -1   2    2.25    0.35
   2  -1   2    2.28    0.28
  -3   1  -2   49.07    1.60
  -3   1  -2   45.08    1.60
  -3   1  -2   46.18    1.67
  -3   1  -2   44.52    1.61
  -3   1  -2   48.07    1.65
  -3   1  -2   46.69    1.77
  -3   1  -2   48.00    1.66
  -3   1  -2   45.88    1.74
   3  -1   2   51.78    2.00
   3  -1   2   47.53    1.82
   3  -1   2   46.64    1.66
   3  -1   2   48.13    1.66
  -4   1  -2    4.04    0.41
  -4   1  -2    3.52    0.37
  -4   1  -2    4.22    0.34
  -4   1  -2    4.41    0.41
  -4   1  -2    4.90    0.51
  -4   1  -2    3.69    0.42
  -4   1  -2    3.72    0.45
  -4   1  -2    4.45    0.47
   4  -1   2    4.09    0.43
   4  -1   2    3.71    0.47
   4  -1   2    4.78    0.52
   4  -1   2    3.69    0.44
   4  -1   2    4.19    0.62
  -5   1  -2    9.20    0.66
  -5   1  -2    7.51    0.68
  -5   1  -2    8.93    0.51
  -5   1  -2    8.89    0.49
  -5   1  -2    8.97    0.67
  -5   1  -2    8.34    0.46
  -5   1  -2    8.94    0.63
  -5   1  -2    9.78    0.54
   5  -1   2    8.83    0.60
   5  -1   2    8.92    0.62
   5  -1   2    9.59    0.68
   5  -1   2    8.56    0.61
   5  -1   2    8.54    0.92
  -6   1  -2   63.08    2.03
  -6   1  -2   65.66    2.33
  -6   1  -2   59.76    1.99
  -6   1  -2   63.85    2.36
  -6   1  -2   58.45    2.40
   6  -1   2   61.30    2.29
   6  -1   2   63.18    2.30
  -7   1  -2    0.51    0.27
  -7   1  -2    0.24    0.20
   7  -1   2    0.17    0.22
   7  -1   2    0.04    0.16
  -8   1  -2    2.45    0.47
  -8   1  -2    2.60    0.52
   8  -1   2    2.35    0.46
   8  -1   2    2.84    0.54
  -9   1  -2   13.25    1.25
  -9   1  -2   10.76    1.06
   9  -1   2   12.45    1.13
   9  -1   2   10.38    1.03
 -10   1  -2    7.07    0.93
 -10   1  -2    8.47    1.03
  10  -1   2    5.99    0.83
  11   0  -2    4.39    0.67
 -11   0   2    5.89    0.81
  10   0  -2   17.23    1.08
 -10   0   2   16.23    1.08
 -10   0   2   15.82    1.11
   9   0  -2    1.58    0.36
  -9   0   2    0.69    0.27
  -9   0   2    1.05    0.36
   8   0  -2    0.34    0.19
  -8   0   2    0.64    0.24
  -8   0   2    0.84    0.28
   7   0  -2    4.40    0.49
   7   0  -2    3.71    0.45
  -7   0   2    3.64    0.44
  -7   0   2    3.62    0.51
   6   0  -2    6.56    0.45
   6   0  -2    6.00    0.45
   6   0  -2    6.17    0.45
  -6   0   2    5.47    0.50
  -6   0   2    6.23    0.62
   5   0  -2   78.07    2.48
   5   0  -2   74.30    2.46
   5   0  -2   78.11    2.43
  -5   0   2   75.10    2.65
  -5   0   2   75.77    2.43
  -5   0   2   78.76    2.59
  -5   0   2   77.93    2.45
   4   0  -2   27.27    1.04
   4   0  -2   28.49    1.04
   4   0  -2   29.48    1.03
  -4   0   2   26.70    1.15
  -4   0   2   26.78    1.02
  -4   0   2   29.67    1.04
   3   0  -2    9.51    0.46
   3   0  -2    9.68    0.47
   3   0  -2    9.79    0.45
  -3   0   2    9.36    0.39
  -3   0   2    9.71    0.58
  -3   0   2    8.77    0.53
  -3   0   2    9.48    0.39
  -3   0   2    9.78    0.46
  -3   0   2    9.17    0.45
   2   0  -2  176.61    4.76
   2   0  -2  158.06    4.68
   2   0  -2  172.10    4.67
  -2   0   2  168.33    4.64
  -2   0   2  164.24    4.64
  -2   0   2  158.63    4.63
  -2   0   2  154.67    4.95
  -2   0   2  152.01    4.71
  -2   0   2  163.56    4.72
  -2   0   2  161.27    4.61
   1   0  -2    8.92    0.42
   1   0  -2    9.28    0.42
  -1   0   2    9.09    0.46
  -1   0   2    9.09    0.41
  -1   0   2    9.00    0.49
  -1   0   2    8.10    0.39
  -1   0   2    8.31    0.41
  -1   0   2    9.04    0.44
   0   0  -2  179.53    4.96
   0   0  -2  179.70    4.95
   0   0  -2  171.97    4.90
   0   0  -2  171.94    4.96
   0   0   2  173.76    4.95
   0   0   2  175.15    5.21
   0   0   2  153.48    4.89
   0   0   2  175.85    4.94
   0   0   2  173.99    5.25
  -1   0  -2  200.71    5.74
  -1   0  -2  203.25    5.73
  -1   0  -2  203.37    5.70
  -1   0  -2  193.92    5.74
   1   0   2  197.24    6.08
   1   0   2  207.18    5.74
   1   0   2  203.98    6.13
   1   0   2  198.31    5.75
  -2   0  -2    1.94    0.23
  -2   0  -2    2.27    0.25
  -2   0  -2    1.86    0.23
  -2   0  -2    1.93    0.24
  -2   0  -2    2.95    0.28
  -2   0  -2    2.13    0.27
   2   0   2    2.21    0.26
   2   0   2    2.36    0.26
   2   0   2    2.56    0.33
   2   0   2    3.05    0.45
  -3   0  -2   69.04    2.16
  -3   0  -2   64.13    2.15
  -3   0  -2   65.17    2.08
  -3   0  -2   67.91    2.28
  -3   0  -2   68.34    2.05
  -3   0  -2   66.58    2.09
  -3   0  -2   66.07    2.26
  -3   0  -2   66.75    2.27
   3   0   2   65.37    2.16
   3   0   2   68.59    2.19
   3   0   2   68.90    2.14
   3   0   2   66.62    2.33
  -4   0  -2    7.79    0.51
  -4   0  -2    8.10    0.34
  -4   0  -2    7.90    0.40
  -4   0  -2    8.81    0.56
  -4   0  -2    9.07    0.63
  -4   0  -2    7.49    0.51
  -4   0  -2    8.21    0.42
   4   0   2    9.12    0.52
   4   0   2    9.34    0.91
   4   0   2    9.67    0.60
   4   0   2    9.10    0.53
   4   0   2    8.91    0.54
  -5   0  -2   16.79    0.57
  -5   0  -2   16.72    0.88
  -5   0  -2   17.96    1.03
  -5   0  -2   16.04    0.56
  -5   0  -2   16.46    0.85
  -5   0  -2   16.37    0.83
   5   0   2   17.92    0.86
   5   0   2   17.17    1.12
   5   0   2   16.28    0.82
   5   0   2   17.71    0.91
   5   0   2   15.66    0.80
  -6   0  -2    6.36    0.82
  -6   0  -2    7.09    0.67
  -6   0  -2    6.49    0.62
  -6   0  -2    6.80    0.68
   6   0   2    9.41    1.03
   6   0   2    7.53    0.57
   6   0   2    7.76    0.57
  -7   0  -2    5.22    0.82
  -7   0  -2    4.34    0.59
  -7   0  -2    4.05    0.54
   7   0   2    4.43    0.78
   7   0   2    3.73    0.50
   7   0   2    5.31    0.60
  -8   0  -2    0.08    0.19
  -8   0  -2    0.03    0.17
   8   0   2    0.04    0.17
  -9   0  -2    1.36    0.39
  -9   0  -2    1.80    0.46
   9   0   2    0.66    0.28
 -10   0  -2    0.31    0.32
 -10   0  -2    0.37    0.30
  10   0   2    0.65    0.30
  11  -1  -2    0.47    0.32
 -11   1   2    1.15    0.42
 -11   1   2    0.89    0.41
  10  -1  -2    9.09    0.98
 -10   1   2    9.76    1.09
 -10   1   2   10.86    1.06
   9  -1  -2    8.87    0.88
  -9   1   2   10.78    0.98
  -9   1   2    9.69    1.02
   8  -1  -2    6.02    0.68
   8  -1  -2    7.63    0.77
  -8   1   2    7.00    0.73
  -8   1   2    6.54    0.79
   7  -1  -2   18.29    1.00
   7  -1  -2   17.87    0.98
  -7   1   2   19.81    1.02
  -7   1   2   18.74    1.13
   6  -1  -2    0.26    0.16
   6  -1  -2    0.63    0.22
   6  -1  -2    0.65    0.21
  -6   1   2    0.42    0.10
  -6   1   2    0.49    0.19
  -6   1   2    0.47    0.23
  -6   1   2    0.34    0.09
   5  -1  -2    9.19    0.58
   5  -1  -2    9.39    0.57
   5  -1  -2   10.09    0.60
  -5   1   2    8.58    0.56
  -5   1   2    8.11    0.63
  -5   1   2    8.58    0.46
  -5   1   2    9.76    0.48
   4  -1  -2  214.60    6.23
   4  -1  -2  214.52    6.19
   4  -1  -2  209.98    6.21
  -4   1   2  213.17    6.10
  -4   1   2  207.40    6.56
  -4   1   2  214.60    6.05
  -4   1   2  213.74    6.11
  -4   1   2  209.04    6.15
  -4   1   2  208.99    6.15
   3  -1  -2   52.13    1.76
   3  -1  -2   51.03    1.74
  -3   1   2   54.01    1.93
  -3   1   2   52.94    1.72
  -3   1   2   52.00    1.74
  -3   1   2   52.32    1.69
  -3   1   2   50.10    1.74
   2  -1  -2  169.71    4.79
   2  -1  -2  163.45    4.77
  -2   1   2  161.35    4.77
  -2   1   2  165.93    4.74
  -2   1   2  163.80    5.07
  -2   1   2  157.53    4.73
   1  -1  -2   32.37    1.13
   1  -1  -2   31.98    1.11
   1  -1  -2   30.72    1.12
  -1   1   2   32.19    1.12
  -1   1   2   32.88    1.27
  -1   1   2   32.85    1.12
  -1   1   2   30.77    1.12
  -1   1   2   32.06    1.11
   0  -1  -2   37.03    1.26
   0  -1  -2   36.80    1.25
   0  -1  -2   37.02    1.26
   0   1   2   38.64    1.26
   0   1   2   39.67    1.42
   0   1   2   35.83    1.42
   0   1   2   37.82    1.26
  -1  -1  -2   -0.12    0.11
  -1  -1  -2    0.06    0.09
  -1  -1  -2    0.00    0.08
  -1  -1  -2   -0.06    0.07
  -1  -1  -2    0.17    0.09
  -1  -1  -2    0.08    0.09
   1   1   2   -0.33    0.11
   1   1   2   -0.08    0.11
   1   1   2    0.07    0.09
   1   1   2    0.07    0.10
  -2  -1  -2    0.67    0.12
  -2  -1  -2    0.44    0.13
  -2  -1  -2    0.73    0.11
  -2  -1  -2    0.72    0.13
  -2  -1  -2    0.78    0.15
  -2  -1  -2    0.93    0.24
   2   1   2    1.21    0.23
   2   1   2    0.79    0.16
   2   1   2    1.01    0.17
   2   1   2    0.65    0.14
   2   1   2    0.89    0.29
  -3  -1  -2    3.08    0.31
  -3  -1  -2    2.86    0.16
  -3  -1  -2    2.30    0.36
  -3  -1  -2    2.97    0.17
  -3  -1  -2    2.76    0.43
  -3  -1  -2    2.78    0.29
   3   1   2    3.17    0.30
   3   1   2    2.81    0.48
   3   1   2    3.00    0.35
   3   1   2    2.72    0.29
   3   1   2    3.46    0.32
  -4  -1  -2   31.94    1.24
  -4  -1  -2   34.12    1.55
  -4  -1  -2   33.05    1.30
  -4  -1  -2   31.60    1.21
  -4  -1  -2   32.79    1.45
   4   1   2   32.78    1.23
   4   1   2   36.13    1.35
   4   1   2   35.47    1.26
   4   1   2   33.70    1.65
   4   1   2   33.35    1.21
  -5  -1  -2   82.17    2.74
  -5  -1  -2   77.13    2.57
  -5  -1  -2   81.10    3.05
  -5  -1  -2   81.11    2.61
   5   1   2   78.24    2.60
   5   1   2   77.37    3.12
   5   1   2   83.06    2.62
   5   1   2   78.63    2.56
  -6  -1  -2   75.41    2.55
  -6  -1  -2   72.83    2.63
  -6  -1  -2   75.49    3.05
  -6  -1  -2   74.69    2.52
   6   1   2   77.70    3.10
   6   1   2   73.29    2.51
   6   1   2   74.52    2.50
  -7  -1  -2  110.67    4.22
  -7  -1  -2  110.22    3.69
  -7  -1  -2  104.56    3.51
   7   1   2  109.69    4.18
   7   1   2  105.39    3.52
  -8  -1  -2    2.35    0.69
  -8  -1  -2    2.01    0.40
  -8  -1  -2    3.08    0.49
   8   1   2    2.13    0.41
  -9  -1  -2    0.02    0.21
  -9  -1  -2    0.53    0.27
   9   1   2    0.54    0.26
 -10  -1  -2    2.02    0.45
  10   1   2    1.50    0.40
  11  -2  -2    3.47    0.68
 -11   2   2    4.41    0.78
 -11   2   2    3.32    0.78
  10  -2  -2    5.09    0.78
  10  -2  -2    4.75    0.76
 -10   2   2    4.68    0.74
 -10   2   2    4.03    0.78
   9  -2  -2    1.95    0.48
   9  -2  -2    2.26    0.48
  -9   2   2    2.19    0.50
  -9   2   2    1.30    0.46
   8  -2  -2    2.40    0.45
   8  -2  -2    2.37    0.46
  -8   2   2    2.36    0.46
  -8   2   2    2.52    0.24
  -8   2   2    2.52    0.25
  -8   2   2    2.45    0.55
   7  -2  -2    3.58    0.53
   7  -2  -2    3.26    0.51
  -7   2   2    3.36    0.57
  -7   2   2    2.98    0.36
  -7   2   2    2.82    0.46
  -7   2   2    3.57    0.39
   6  -2  -2    7.87    0.72
   6  -2  -2    5.88    0.62
  -6   2   2    6.67    0.48
  -6   2   2    6.93    0.44
  -6   2   2    6.78    0.69
  -6   2   2    6.30    0.73
  -6   2   2    6.57    0.47
   5  -2  -2   33.15    1.44
   5  -2  -2   35.30    1.48
  -5   2   2   37.09    1.49
  -5   2   2   36.42    1.41
  -5   2   2   37.90    1.66
  -5   2   2   37.25    1.37
  -5   2   2   34.69    1.38
   4  -2  -2  253.89    7.52
   4  -2  -2  254.13    7.57
  -4   2   2  264.20    7.45
  -4   2   2  240.91    7.94
  -4   2   2  268.46    7.51
  -4   2   2  262.16    7.50
  -4   2   2  254.70    7.47
   3  -2  -2  230.66    6.93
   3  -2  -2  232.70    6.95
  -3   2   2  243.52    6.93
  -3   2   2  243.10    6.90
  -3   2   2  236.81    6.89
  -3   2   2  237.27    7.35
   2  -2  -2   23.75    0.98
   2  -2  -2   22.03    0.96
   2  -2  -2   23.82    0.98
   2  -2  -2   22.65    0.97
  -2   2   2   23.68    1.06
  -2   2   2   23.90    0.98
  -2   2   2   24.02    1.11
  -2   2   2   22.81    0.98
  -2   2   2   22.94    0.96
  -2   2   2   27.45    1.02
   1  -2  -2  320.49    9.25
   1  -2  -2  337.38    9.29
   1  -2  -2  332.18    9.25
   1  -2  -2  319.35    9.17
  -1   2   2  318.66   10.36
  -1   2   2  324.34    9.17
  -1   2   2  329.81    9.27
  -1   2   2  334.76    9.78
  -1   2   2  311.53    9.22
   0  -2  -2   10.19    0.51
   0  -2  -2   10.10    0.51
   0  -2  -2   10.68    0.58
   0  -2  -2    9.27    0.49
   0  -2  -2   10.29    0.52
   0   2   2   10.82    0.52
   0   2   2   10.15    0.52
   0   2   2    9.51    0.60
  -1  -2  -2   14.85    0.64
  -1  -2  -2   15.41    0.66
  -1  -2  -2   15.98    0.64
  -1  -2  -2   15.32    0.80
  -1  -2  -2   16.54    0.61
  -1  -2  -2   15.39    0.66
  -1  -2  -2   15.82    0.63
   1   2   2   14.88    0.67
   1   2   2   16.26    0.66
   1   2   2   14.51    0.86
   1   2   2   15.83    0.67
   1   2   2   15.67    0.78
   1   2   2   15.64    0.67
  -2  -2  -2    0.33    0.15
  -2  -2  -2    0.19    0.10
  -2  -2  -2    0.36    0.08
  -2  -2  -2    0.36    0.20
  -2  -2  -2    0.18    0.10
  -2  -2  -2    0.25    0.07
   2   2   2    0.14    0.14
   2   2   2    0.25    0.10
   2   2   2    0.46    0.12
   2   2   2    0.36    0.11
   2   2   2    0.35    0.23
  -3  -2  -2    0.16    0.19
  -3  -2  -2    0.24    0.11
  -3  -2  -2    0.35    0.15
  -3  -2  -2    0.38    0.12
   3   2   2    0.09    0.19
   3   2   2    0.26    0.11
   3   2   2    0.26    0.11
   3   2   2    0.20    0.13
   3   2   2    0.29    0.11
  -4  -2  -2    3.40    0.35
  -4  -2  -2    3.95    0.63
  -4  -2  -2    4.91    0.53
  -4  -2  -2    3.81    0.37
   4   2   2    4.39    0.37
   4   2   2    3.58    0.36
   4   2   2    3.87    0.36
   4   2   2    4.48    0.68
  -5  -2  -2    5.68    0.78
  -5  -2  -2    4.42    0.43
  -5  -2  -2    4.47    0.43
  -5  -2  -2    5.03    0.48
   5   2   2    5.54    0.41
   5   2   2    4.78    0.74
   5   2   2    4.77    0.36
   5   2   2    5.13    0.39
  -6  -2  -2    0.44    0.18
  -6  -2  -2    0.87    0.22
  -6  -2  -2    0.45    0.30
  -6  -2  -2    0.63    0.21
   6   2   2    0.23    0.15
   6   2   2    0.71    0.39
  -7  -2  -2    1.12    0.27
  -7  -2  -2    1.03    0.26
  -7  -2  -2    1.76    0.61
  -7  -2  -2    1.07    0.26
   7   2   2    0.84    0.23
  -8  -2  -2    2.79    0.44
  -8  -2  -2    2.65    0.71
  -8  -2  -2    4.43    0.52
   8   2   2    1.84    0.36
  -9  -2  -2    0.05    0.45
  -9  -2  -2   -0.12    0.17
   9   2   2    0.10    0.19
 -10  -2  -2    2.30    0.46
  10   2   2    2.25    0.44
  11  -3  -2    5.10    0.87
  11  -3  -2    2.80    0.66
 -11   3   2    4.95    0.86
 -11   3   2    4.36    0.90
  10  -3  -2    4.76    0.79
  10  -3  -2    4.51    0.78
 -10   3   2    4.55    0.77
 -10   3   2    6.09    0.96
   9  -3  -2   21.76    1.36
   9  -3  -2   21.09    1.34
  -9   3   2   20.38    0.92
  -9   3   2   20.66    0.91
  -9   3   2   19.36    1.45
  -9   3   2   20.24    1.33
   8  -3  -2    1.08    0.35
   8  -3  -2    1.80    0.45
  -8   3   2    1.86    0.34
  -8   3   2    1.26    0.43
  -8   3   2    1.55    0.42
  -8   3   2    1.62    0.34
   7  -3  -2    1.93    0.42
   7  -3  -2    0.86    0.31
  -7   3   2    0.34    0.22
  -7   3   2    0.79    0.24
  -7   3   2    0.99    0.36
  -7   3   2    0.70    0.24
   6  -3  -2   10.36    0.78
   6  -3  -2   10.50    0.78
  -6   3   2   11.35    1.07
  -6   3   2   11.96    0.83
  -6   3   2   10.10    0.69
  -6   3   2   11.02    0.69
  -6   3   2   11.91    0.75
   5  -3  -2    0.72    0.25
   5  -3  -2    1.15    0.30
  -5   3   2    0.93    0.26
  -5   3   2    0.70    0.24
  -5   3   2    0.75    0.23
  -5   3   2    0.87    0.30
  -5   3   2    0.96    0.25
   4  -3  -2    6.90    0.67
   4  -3  -2    6.65    0.65
  -4   3   2    7.39    0.76
  -4   3   2    5.39    0.55
  -4   3   2    7.66    0.59
  -4   3   2    5.91    0.60
  -4   3   2    8.22    0.77
   3  -3  -2    0.16    0.16
   3  -3  -2    0.05    0.14
   3  -3  -2    0.09    0.13
   3  -3  -2    0.15    0.14
  -3   3   2    0.43    0.18
  -3   3   2    0.22    0.15
  -3   3   2    0.22    0.16
  -3   3   2    0.45    0.23
  -3   3   2    0.08    0.13
  -3   3   2    0.20    0.14
   2  -3  -2    0.90    0.24
   2  -3  -2    1.04    0.25
   2  -3  -2    0.62    0.21
   2  -3  -2    0.92    0.24
  -2   3   2    1.08    0.25
  -2   3   2    0.46    0.19
  -2   3   2    0.63    0.23
  -2   3   2    0.82    0.22
  -2   3   2    0.51    0.19
  -2   3   2    0.87    0.27
   1  -3  -2   18.64    0.83
   1  -3  -2   16.74    0.61
   1  -3  -2   18.49    0.83
  -1   3   2   17.16    0.83
  -1   3   2   17.74    0.83
  -1   3   2   15.95    0.92
  -1   3   2   18.18    0.91
   0  -3  -2   17.58    0.78
   0  -3  -2   16.52    0.76
   0  -3  -2   15.73    0.73
   0  -3  -2   14.33    0.73
   0  -3  -2   15.38    0.72
   0  -3  -2   16.43    0.66
   0  -3  -2   15.80    0.72
   0   3   2   16.60    0.76
   0   3   2   17.10    0.89
   0   3   2   15.97    0.75
  -1  -3  -2   18.37    0.80
  -1  -3  -2   17.14    0.73
  -1  -3  -2   19.40    0.70
  -1  -3  -2   18.33    0.80
  -1  -3  -2   18.05    0.98
  -1  -3  -2   18.13    0.75
  -1  -3  -2   19.49    0.74
   1   3   2   19.69    0.83
   1   3   2   18.74    0.80
   1   3   2   16.93    0.90
   1   3   2   18.63    0.80
  -2  -3  -2   62.23    2.46
  -2  -3  -2   65.73    2.08
  -2  -3  -2   66.20    2.33
  -2  -3  -2   63.59    2.08
   2   3   2   65.09    2.28
   2   3   2   62.25    2.52
   2   3   2   61.90    2.08
   2   3   2   65.20    2.09
   2   3   2   65.06    2.06
   2   3   2   67.36    1.91
  -3  -3  -2   49.76    1.72
  -3  -3  -2   50.04    1.72
  -3  -3  -2   53.15    1.96
  -3  -3  -2   53.36    2.23
   3   3   2   50.75    2.25
   3   3   2   49.71    1.73
   3   3   2   51.47    1.71
   3   3   2   55.03    1.60
   3   3   2   54.29    1.88
   3   3   2   55.52    1.77
  -4  -3  -2    1.44    0.23
  -4  -3  -2    1.78    0.49
  -4  -3  -2    2.05    0.34
  -4  -3  -2    1.97    0.27
   4   3   2    1.83    0.25
   4   3   2    1.94    0.23
   4   3   2    1.47    0.42
   4   3   2    2.25    0.27
   4   3   2    1.69    0.25
  -5  -3  -2    4.38    0.42
  -5  -3  -2    3.82    0.72
  -5  -3  -2    3.61    0.38
  -5  -3  -2    3.73    0.39
   5   3   2    4.70    0.42
   5   3   2    4.72    0.77
   5   3   2    3.86    0.39
  -6  -3  -2    0.59    0.18
  -6  -3  -2    0.62    0.19
  -6  -3  -2    0.50    0.19
  -6  -3  -2    1.09    0.47
   6   3   2    0.62    0.18
   6   3   2    0.85    0.42
  -7  -3  -2    7.12    0.62
  -7  -3  -2    6.23    0.60
  -7  -3  -2    6.86    0.50
  -7  -3  -2    5.77    1.01
   7   3   2    7.32    0.52
  -8  -3  -2   24.68    2.30
  -8  -3  -2   19.38    1.01
   8   3   2   17.89    0.96
  -9  -3  -2    1.27    0.33
  -9  -3  -2    1.53    0.71
   9   3   2    1.44    0.33
  11  -4  -2    1.20    0.56
  11  -4  -2    1.40    0.52
 -11   4   2    0.93    0.50
 -11   4   2    0.88    0.54
  10  -4  -2    0.23    0.33
  10  -4  -2    0.18    0.28
 -10   4   2   -0.47    0.23
 -10   4   2    0.69    0.24
 -10   4   2    0.24    0.19
 -10   4   2    1.10    0.50
   9  -4  -2    0.87    0.40
   9  -4  -2    0.55    0.34
  -9   4   2    0.40    0.36
  -9   4   2    0.35    0.23
  -9   4   2    0.57    0.36
   8  -4  -2    1.63    0.44
   8  -4  -2    3.20    0.60
  -8   4   2    2.72    0.66
  -8   4   2    2.37    0.44
  -8   4   2    2.16    0.51
   7  -4  -2   20.12    1.24
   7  -4  -2   19.44    1.23
  -7   4   2   20.26    1.25
  -7   4   2   21.85    1.12
  -7   4   2   18.84    1.38
  -7   4   2   19.43    1.13
   6  -4  -2   26.75    1.44
   6  -4  -2   27.99    1.45
  -6   4   2   29.45    1.48
  -6   4   2   29.35    1.48
  -6   4   2   27.41    1.38
  -6   4   2   29.02    1.35
  -6   4   2   25.46    1.57
   5  -4  -2   53.36    2.22
   5  -4  -2   56.35    2.26
  -5   4   2   55.77    2.24
  -5   4   2   54.30    2.45
  -5   4   2   55.68    2.16
  -5   4   2   56.85    2.18
  -5   4   2   55.42    2.38
  -5   4   2   59.50    2.28
  -5   4   2   59.07    2.24
   4  -4  -2   16.99    0.97
   4  -4  -2   14.71    0.92
   4  -4  -2   16.76    0.97
   4  -4  -2   15.73    0.94
  -4   4   2   15.98    0.96
  -4   4   2   16.14    0.92
  -4   4   2   17.12    0.96
  -4   4   2   16.55    1.01
  -4   4   2   15.98    0.95
  -4   4   2   16.55    1.09
   3  -4  -2  187.18    5.61
   3  -4  -2  176.28    5.60
   3  -4  -2  187.81    5.64
   3  -4  -2  189.39    5.66
  -3   4   2  185.18    5.63
  -3   4   2  183.18    5.57
  -3   4   2  173.08    5.62
  -3   4   2  179.77    6.22
  -3   4   2  179.73    6.00
  -3   4   2  175.14    5.58
   2  -4  -2    3.46    0.35
   2  -4  -2    4.65    0.52
   2  -4  -2    4.02    0.51
   2  -4  -2    3.39    0.46
   2  -4  -2    2.71    0.41
  -2   4   2    2.82    0.41
  -2   4   2    2.42    0.46
  -2   4   2    3.24    0.44
  -2   4   2    3.33    0.45
  -2   4   2    4.67    0.57
  -2   4   2    2.79    0.44
   1  -4  -2   27.00    0.97
   1  -4  -2   24.85    1.11
   1  -4  -2   25.07    1.13
   1  -4  -2   26.51    1.14
  -1   4   2   26.76    1.16
  -1   4   2   24.69    1.13
  -1   4   2   26.60    1.31
   0  -4  -2  138.12    4.28
   0  -4  -2  138.40    4.58
   0  -4  -2  134.29    4.27
   0  -4  -2  141.74    4.73
   0  -4  -2  145.22    4.26
   0  -4  -2  139.55    4.32
   0  -4  -2  144.43    4.19
   0   4   2  146.26    4.36
   0   4   2  141.97    4.67
   0   4   2  142.99    4.35
  -1  -4  -2   41.61    1.38
  -1  -4  -2   40.19    1.52
  -1  -4  -2   36.94    1.46
  -1  -4  -2   38.84    1.48
  -1  -4  -2   39.84    1.37
  -1  -4  -2   40.03    1.77
  -1  -4  -2   40.42    1.30
   1   4   2   40.35    1.49
   1   4   2   38.13    1.65
   1   4   2   39.84    1.48
   1   4   2   40.66    1.50
  -2  -4  -2    7.18    0.48
  -2  -4  -2    9.13    0.96
  -2  -4  -2    7.12    0.48
   2   4   2    8.01    0.51
   2   4   2    6.33    0.80
   2   4   2    8.28    0.60
   2   4   2    8.03    0.50
   2   4   2    7.45    0.49
   2   4   2    9.27    0.44
  -3  -4  -2    2.33    0.37
  -3  -4  -2    2.82    0.56
  -3  -4  -2    2.40    0.31
  -3  -4  -2    2.56    0.32
   3   4   2    2.52    0.33
   3   4   2    2.76    0.33
   3   4   2    2.59    0.28
   3   4   2    3.15    0.35
   3   4   2    3.11    0.61
  -4  -4  -2    2.05    0.29
  -4  -4  -2    2.06    0.52
  -4  -4  -2    3.23    0.36
   4   4   2    2.82    0.34
   4   4   2    3.01    0.35
   4   4   2    2.96    0.33
   4   4   2    3.59    0.65
   4   4   2    2.72    0.33
  -5  -4  -2    3.00    0.67
  -5  -4  -2    2.54    0.33
  -5  -4  -2    3.19    0.38
   5   4   2    2.63    0.33
   5   4   2    4.10    0.77
   5   4   2    3.33    0.38
  -6  -4  -2   12.38    0.69
  -6  -4  -2   12.51    0.64
  -6  -4  -2   11.36    1.40
  -6  -4  -2   12.63    0.69
   6   4   2   14.44    1.46
   6   4   2   12.46    0.66
  -7  -4  -2   13.08    0.74
  -7  -4  -2   14.04    0.77
  -7  -4  -2   10.87    1.45
   7   4   2   12.93    0.71
  -8  -4  -2   24.14    1.15
  -8  -4  -2   26.19    2.47
   8   4   2   24.70    1.10
  -9  -4  -2    2.78    0.45
  -9  -4  -2    2.39    0.84
   9   4   2    1.90    0.35
  11  -5  -2    8.14    1.22
  11  -5  -2    5.87    1.03
 -11   5   2    4.87    0.92
 -11   5   2    7.80    1.34
 -11   5   2    6.14    0.65
  10  -5  -2    8.57    1.15
  10  -5  -2   11.41    1.30
 -10   5   2    8.32    1.16
 -10   5   2    8.73    0.88
 -10   5   2   10.90    1.50
   9  -5  -2   19.32    1.40
   9  -5  -2   19.03    1.39
  -9   5   2   19.87    1.94
  -9   5   2   19.29    1.21
  -9   5   2   17.74    1.60
   8  -5  -2   35.27    1.91
   8  -5  -2   34.16    1.88
  -8   5   2   34.36    1.89
  -8   5   2   33.40    1.71
  -8   5   2   38.23    2.20
   7  -5  -2    1.29    0.41
   7  -5  -2    1.53    0.45
  -7   5   2    1.93    0.50
  -7   5   2    1.55    0.49
  -7   5   2    1.44    0.43
  -7   5   2    1.55    0.39
   6  -5  -2    1.23    0.37
   6  -5  -2    0.72    0.31
  -6   5   2    0.50    0.27
  -6   5   2    0.49    0.27
  -6   5   2    0.69    0.32
  -6   5   2    0.65    0.34
  -6   5   2    0.45    0.24
   5  -5  -2    0.30    0.23
   5  -5  -2    0.36    0.23
  -5   5   2    0.42    0.23
  -5   5   2    0.47    0.26
  -5   5   2    0.39    0.23
  -5   5   2    0.85    0.33
  -5   5   2    0.75    0.33
   4  -5  -2   34.91    1.65
   4  -5  -2   36.28    1.68
   4  -5  -2   37.14    1.69
   4  -5  -2   35.72    1.67
  -4   5   2   32.43    1.80
  -4   5   2   37.37    1.80
  -4   5   2   35.57    1.69
  -4   5   2   35.51    1.65
  -4   5   2   38.70    1.70
  -4   5   2   38.14    1.69
   3  -5  -2   65.28    2.44
   3  -5  -2   61.98    2.42
   3  -5  -2   60.76    2.40
  -3   5   2   65.66    2.44
  -3   5   2   63.44    2.69
  -3   5   2   64.24    2.47
  -3   5   2   65.26    2.45
  -3   5   2   64.98    2.44
   2  -5  -2   90.94    3.09
   2  -5  -2   88.63    2.83
   2  -5  -2   94.42    3.12
   2  -5  -2   90.61    3.11
  -2   5   2   88.62    3.42
  -2   5   2   88.83    3.12
  -2   5   2   88.19    3.14
  -2   5   2   85.91    3.37
  -2   5   2   88.42    3.11
  -2   5   2   94.32    3.11
   1  -5  -2   51.93    1.96
   1  -5  -2   50.19    1.97
   1  -5  -2   52.10    2.12
   1  -5  -2   53.31    1.99
   1  -5  -2   54.42    2.14
   1  -5  -2   53.72    1.83
  -1   5   2   52.27    2.02
  -1   5   2   55.00    2.04
  -1   5   2   53.40    2.24
   0  -5  -2   59.61    2.03
   0  -5  -2   60.03    2.01
   0  -5  -2   58.07    2.11
   0  -5  -2   56.73    2.32
   0  -5  -2   57.33    2.01
   0  -5  -2   57.78    1.97
   0   5   2   52.41    2.28
   0   5   2   55.92    2.09
   0   5   2   54.70    2.08
  -1  -5  -2   17.69    0.94
  -1  -5  -2   17.06    0.75
  -1  -5  -2   17.07    1.13
  -1  -5  -2   16.64    0.89
  -1  -5  -2   17.23    0.76
  -1  -5  -2   18.22    0.67
   1   5   2   17.20    1.03
   1   5   2   18.77    0.92
   1   5   2   15.59    0.86
   1   5   2   19.23    0.92
  -2  -5  -2    9.88    0.63
  -2  -5  -2   10.26    0.63
  -2  -5  -2   10.70    1.11
   2   5   2    9.16    0.61
   2   5   2   10.42    1.12
   2   5   2    8.63    0.59
   2   5   2   10.72    0.64
  -3  -5  -2    5.47    0.53
  -3  -5  -2    6.84    0.59
  -3  -5  -2    7.36    0.99
   3   5   2    6.79    0.96
   3   5   2    6.81    0.50
   3   5   2    5.60    0.52
   3   5   2    6.51    0.49
  -4  -5  -2    0.56    0.35
  -4  -5  -2    0.29    0.17
  -4  -5  -2    0.34    0.15
   4   5   2   -0.02    0.26
   4   5   2    0.39    0.15
  -5  -5  -2    0.17    0.14
  -5  -5  -2    0.14    0.14
  -5  -5  -2   -0.19    0.25
   5   5   2    0.15    0.12
   5   5   2    0.39    0.35
  -6  -5  -2    1.54    0.29
  -6  -5  -2    1.61    0.32
  -6  -5  -2    1.55    0.65
   6   5   2    1.75    0.28
  -7  -5  -2    1.06    0.28
  -7  -5  -2    2.04    0.77
   7   5   2    2.04    0.33
  -8  -5  -2    0.67    0.23
  -8  -5  -2   -0.05    0.51
   8   5   2    0.75    0.21
  10  -6  -2   -0.12    0.33
  10  -6  -2    0.39    0.42
 -10   6   2    0.20    0.27
 -10   6   2    0.31    0.44
   9  -6  -2    7.11    1.05
   9  -6  -2    8.22    1.15
  -9   6   2   10.37    1.46
  -9   6   2    8.30    1.01
   8  -6  -2   13.82    1.41
   8  -6  -2   12.88    1.34
  -8   6   2   18.28    1.25
  -8   6   2   15.78    1.11
  -8   6   2   15.49    1.69
   7  -6  -2    4.99    0.79
   7  -6  -2    5.99    0.88
  -7   6   2    5.51    0.82
  -7   6   2    5.95    0.84
  -7   6   2    4.97    0.74
  -7   6   2    7.01    1.07
   6  -6  -2    0.10    0.20
   6  -6  -2    0.29    0.26
  -6   6   2    0.52    0.29
  -6   6   2    0.09    0.27
  -6   6   2    0.06    0.22
  -6   6   2    0.12    0.21
   5  -6  -2    3.12    0.58
   5  -6  -2    3.53    0.64
  -5   6   2    2.64    0.58
  -5   6   2    3.67    0.71
  -5   6   2    2.58    0.58
  -5   6   2    2.56    0.53
   4  -6  -2   14.15    0.99
   4  -6  -2   13.85    0.98
   4  -6  -2   12.80    0.96
  -4   6   2   13.65    1.01
  -4   6   2   12.06    0.93
  -4   6   2   15.22    1.08
  -4   6   2   13.04    1.30
  -4   6   2   13.22    0.96
   3  -6  -2   23.63    1.11
   3  -6  -2   20.74    1.21
   3  -6  -2   20.49    1.20
   3  -6  -2   21.50    1.22
  -3   6   2   21.86    1.24
  -3   6   2   21.19    1.22
  -3   6   2   23.46    1.36
  -3   6   2   22.09    1.41
   2  -6  -2   82.80    2.92
   2  -6  -2   82.88    2.93
   2  -6  -2   81.11    3.02
   2  -6  -2   81.70    2.71
  -2   6   2   79.81    2.97
  -2   6   2   77.98    3.24
  -2   6   2   82.05    2.99
   1  -6  -2    7.15    0.71
   1  -6  -2    9.74    0.85
   1  -6  -2    7.12    0.68
   1  -6  -2    7.60    0.85
   1  -6  -2    7.82    0.57
  -1   6   2    7.53    0.78
  -1   6   2    7.34    0.77
  -1   6   2    9.20    0.99
   0  -6  -2    5.54    0.57
   0  -6  -2    6.44    0.60
   0  -6  -2    6.09    0.81
   0  -6  -2    5.40    0.58
   0  -6  -2    6.26    0.57
   0   6   2    5.26    0.62
   0   6   2    4.45    0.56
   0   6   2    6.05    0.76
  -1  -6  -2   37.22    1.32
  -1  -6  -2   36.45    1.59
  -1  -6  -2   36.33    1.31
  -1  -6  -2   32.73    1.82
  -1  -6  -2   37.15    1.59
   1   6   2   35.87    1.54
   1   6   2   34.84    1.53
  -2  -6  -2    1.09    0.43
  -2  -6  -2    0.80    0.25
  -2  -6  -2    0.61    0.23
  -2  -6  -2    0.80    0.29
   2   6   2    0.88    0.24
   2   6   2    0.30    0.20
  -3  -6  -2   -0.05    0.26
  -3  -6  -2    0.15    0.16
  -3  -6  -2    0.32    0.17
   3   6   2    0.49    0.22
   3   6   2    0.20    0.33
   3   6   2    0.24    0.17
  -4  -6  -2   16.30    1.67
  -4  -6  -2   12.98    0.78
  -4  -6  -2   14.83    0.82
   4   6   2   11.62    0.73
   4   6   2   13.05    1.45
  -5  -6  -2    3.11    0.42
  -5  -6  -2    2.47    0.74
   5   6   2    3.52    0.80
   5   6   2    3.16    0.41
  -6  -6  -2    7.15    0.65
  -6  -6  -2    7.57    1.28
   6   6   2    6.53    0.59
  -7  -6  -2    5.02    1.17
  -7  -6  -2    4.95    0.55
   7   6   2    4.69    0.48
  -8  -6  -2    3.12    0.99
  -8  -6  -2    3.18    0.46
   8   6   2    4.08    0.46
  10  -7  -2    3.85    0.87
 -10   7   2    4.17    1.10
 -10   7   2    4.27    0.80
   9  -7  -2    2.09    0.61
  -9   7   2    2.18    0.76
  -9   7   2    0.91    0.44
   8  -7  -2    0.02    0.29
  -8   7   2    0.93    0.39
  -8   7   2    0.08    0.29
  -8   7   2    0.37    0.31
  -8   7   2    0.77    0.56
   7  -7  -2    2.75    0.64
  -7   7   2    2.58    0.59
  -7   7   2    1.92    0.67
  -7   7   2    1.88    0.52
  -7   7   2    3.26    0.73
   6  -7  -2    6.86    0.94
  -6   7   2    8.08    1.03
  -6   7   2    6.52    0.89
  -6   7   2    9.74    1.28
   5  -7  -2    5.44    0.80
  -5   7   2    4.27    0.72
  -5   7   2    5.92    0.96
  -5   7   2    5.20    0.83
   4  -7  -2   14.83    1.07
   4  -7  -2   14.46    1.08
  -4   7   2   13.93    1.27
  -4   7   2   13.75    1.43
  -4   7   2   15.59    1.12
   3  -7  -2   46.24    2.10
   3  -7  -2   47.18    2.10
   3  -7  -2   44.66    2.06
  -3   7   2   51.70    2.21
  -3   7   2   49.23    2.17
  -3   7   2   48.60    2.42
   2  -7  -2   89.39    3.37
   2  -7  -2   85.97    3.15
   2  -7  -2   89.37    3.20
  -2   7   2   87.68    3.61
  -2   7   2   87.89    3.28
  -2   7   2   88.09    3.29
   1  -7  -2   10.82    0.74
   1  -7  -2   11.21    1.14
   1  -7  -2   10.91    0.74
   1  -7  -2   11.17    0.80
   1  -7  -2   10.22    0.76
  -1   7   2   10.04    0.95
  -1   7   2    9.43    1.08
  -1   7   2   11.71    0.87
   0  -7  -2    0.56    0.23
   0  -7  -2    0.50    0.22
   0  -7  -2    0.96    0.29
   0  -7  -2    1.08    0.39
   0   7   2    0.57    0.26
   0   7   2    0.38    0.24
  -1  -7  -2    4.88    0.42
  -1  -7  -2    4.90    0.36
  -1  -7  -2    4.56    0.65
  -1  -7  -2    3.62    0.76
   1   7   2    5.05    0.61
   1   7   2    5.59    0.69
  -2  -7  -2   13.28    0.97
  -2  -7  -2   12.94    1.46
  -2  -7  -2   12.55    0.87
   2   7   2   12.65    0.83
   2   7   2   13.11    0.87
  -3  -7  -2   13.82    1.58
  -3  -7  -2   13.02    0.86
   3   7   2   14.12    1.54
   3   7   2   12.66    0.83
  -4  -7  -2    4.18    0.55
  -4  -7  -2    3.18    0.81
   4   7   2    2.66    0.43
   4   7   2    4.29    0.91
  -5  -7  -2    0.07    0.18
  -5  -7  -2   -0.04    0.34
   5   7   2    0.25    0.45
   5   7   2    0.02    0.13
  -6  -7  -2    1.71    0.76
  -6  -7  -2    1.17    0.32
   6   7   2    1.39    0.30
  -7  -7  -2    0.91    0.27
  -7  -7  -2    1.08    0.73
   7   7   2    1.03    0.26
   9  -8  -2    0.44    0.40
  -9   8   2    1.12    0.50
  -9   8   2    1.12    0.64
   8  -8  -2   11.71    1.38
  -8   8   2    8.94    1.46
  -8   8   2    8.56    1.19
  -8   8   2    9.77    1.16
   7  -8  -2   18.82    1.75
  -7   8   2   20.81    1.58
  -7   8   2   23.26    2.25
  -7   8   2   19.78    1.42
   6  -8  -2   14.98    1.50
  -6   8   2   16.84    1.57
  -6   8   2   14.66    1.72
   5  -8  -2    2.61    0.53
   5  -8  -2    1.83    0.55
  -5   8   2    1.35    0.47
  -5   8   2    1.57    0.63
   4  -8  -2    4.65    0.74
   4  -8  -2    4.45    0.72
   4  -8  -2    4.12    0.67
  -4   8   2    4.48    0.86
  -4   8   2    3.24    0.66
  -4   8   2    3.01    0.64
   3  -8  -2    0.50    0.28
   3  -8  -2    0.51    0.28
   3  -8  -2    0.14    0.23
  -3   8   2   -0.12    0.18
  -3   8   2    0.20    0.31
  -3   8   2   -0.08    0.17
   2  -8  -2    6.18    0.79
   2  -8  -2    6.10    0.76
   2  -8  -2    7.64    0.99
  -2   8   2    8.61    0.98
  -2   8   2    8.85    1.18
  -2   8   2    7.80    0.94
   1  -8  -2    2.02    0.57
   1  -8  -2    2.77    0.48
  -1   8   2    1.90    0.46
  -1   8   2    2.04    0.50
   0  -8  -2   15.68    0.89
   0  -8  -2   14.96    0.87
   0  -8  -2   12.23    1.38
   0   8   2   15.59    1.07
   0   8   2   15.67    1.05
  -1  -8  -2    3.66    0.33
  -1  -8  -2    4.12    0.83
  -1  -8  -2    3.59    0.32
   1   8   2    3.32    0.59
   1   8   2    3.14    0.55
  -2  -8  -2    2.05    0.51
  -2  -8  -2    2.06    0.63
  -2  -8  -2    1.63    0.42
   2   8   2    3.19    0.54
   2   8   2    2.04    0.45
  -3  -8  -2    4.98    1.05
  -3  -8  -2    4.63    0.64
   3   8   2    6.06    1.13
   3   8   2    4.89    0.64
  -4  -8  -2    2.27    0.77
  -4  -8  -2    2.78    0.50
   4   8   2    2.83    0.46
   4   8   2    2.27    0.75
  -5  -8  -2    0.67    0.54
  -5  -8  -2    1.42    0.37
   5   8   2    1.55    0.36
  -6  -8  -2   -0.03    0.19
  -6  -8  -2   -0.21    0.40
   6   8   2    0.00    0.16
   9  -9  -2    0.31    0.46
  -9   9   2    0.30    0.41
  -9   9   2   -0.22    0.39
   8  -9  -2    0.63    0.47
  -8   9   2    2.58    0.73
  -8   9   2    0.57    0.61
  -8   9   2    0.17    0.36
   7  -9  -2    3.98    0.83
  -7   9   2    3.06    0.73
  -7   9   2    4.40    1.07
   6  -9  -2    3.86    0.78
  -6   9   2    2.42    0.80
  -6   9   2    1.09    0.45
   5  -9  -2    6.00    0.93
  -5   9   2    7.44    1.24
  -5   9   2    5.37    0.92
   4  -9  -2    2.66    0.61
   4  -9  -2    2.28    0.57
   4  -9  -2    2.17    0.54
  -4   9   2    2.29    0.71
  -4   9   2    3.25    0.69
   3  -9  -2    0.91    0.38
   3  -9  -2    0.69    0.33
   3  -9  -2    0.58    0.30
  -3   9   2    0.47    0.31
  -3   9   2    0.13    0.31
   2  -9  -2   17.70    1.64
   2  -9  -2   17.33    1.17
  -2   9   2   16.60    1.23
  -2   9   2   16.32    1.23
   1  -9  -2   50.43    2.10
   1  -9  -2   53.90    2.64
  -1   9   2   47.48    2.30
  -1   9   2   48.71    2.30
   0  -9  -2   27.44    1.26
   0  -9  -2   25.55    1.78
   0  -9  -2   27.62    1.26
   0   9   2   28.02    1.60
   0   9   2   26.01    1.52
  -1  -9  -2    6.84    1.14
  -1  -9  -2    7.04    0.91
   1   9   2    5.48    0.77
   1   9   2    6.74    0.88
  -2  -9  -2    7.90    0.92
  -2  -9  -2    5.66    1.12
   2   9   2    6.98    0.86
   2   9   2    7.97    0.89
  -3  -9  -2    2.89    0.87
  -3  -9  -2    1.52    0.44
   3   9   2    2.85    0.88
   3   9   2    1.82    0.45
  -4  -9  -2    2.12    0.84
  -4  -9  -2    2.19    0.50
   4   9   2    1.74    0.41
   4   9   2    1.98    0.78
  -5  -9  -2    0.32    0.24
  -5  -9  -2   -0.19    0.40
   5   9   2    0.44    0.25
   8 -10  -2    8.15    1.29
   7 -10  -2    4.96    0.99
  -7  10   2    4.96    0.96
  -7  10   2    6.85    1.38
   6 -10  -2    6.39    1.09
  -6  10   2    5.60    0.95
  -6  10   2    4.57    1.08
   5 -10  -2    0.39    0.35
  -5  10   2    0.02    0.32
   4 -10  -2    0.07    0.31
   4 -10  -2    0.29    0.34
  -4  10   2    0.41    0.35
   3 -10  -2    0.75    0.40
   3 -10  -2    1.07    0.46
  -3  10   2    0.21    0.32
  -3  10   2    0.70    0.39
   2 -10  -2    3.09    0.58
   2 -10  -2    3.03    0.75
  -2  10   2    4.46    0.83
  -2  10   2    4.18    0.77
   1 -10  -2   14.27    1.65
   1 -10  -2   14.37    1.44
   1 -10  -2   14.84    1.01
  -1  10   2   16.15    1.51
  -1  10   2   16.19    1.54
   0 -10  -2    5.57    0.57
   0 -10  -2    5.32    0.89
   0 -10  -2    6.03    0.58
   0 -10  -2    7.02    1.22
   0  10   2    6.11    0.88
   0  10   2    4.94    0.84
  -1 -10  -2    4.10    0.76
  -1 -10  -2    3.02    0.87
   1  10   2    2.92    0.65
   1  10   2    3.06    0.63
  -2 -10  -2    0.58    0.33
  -2 -10  -2    0.87    0.62
   2  10   2    0.16    0.24
  -3 -10  -2   -0.38    0.37
  -3 -10  -2    0.44    0.35
   3  10   2    0.00    0.23
   3  10   2   -0.33    0.39
   6 -11  -2    3.84    0.86
  -6  11   2    3.61    0.87
   5 -11  -2    0.16    0.38
  -5  11   2    0.49    0.43
   4 -11  -2    3.01    0.77
  -4  11   2    3.09    0.79
   3 -11  -2   10.28    1.21
  -3  11   2    5.23    0.97
  -3  11   2    7.08    1.11
   2 -11  -2    3.69    0.65
   2 -11  -2    3.04    0.80
  -2  11   2    3.88    0.81
  -2  11   2    3.21    0.76
   1 -11  -2    0.29    0.41
   1 -11  -2    0.38    0.50
   1 -11  -2    0.70    0.31
  -1  11   2    0.56    0.40
  -1  11   2    1.19    0.52
   0 -11  -2    2.81    0.86
   0 -11  -2    1.40    0.58
   0 -11  -2    2.57    0.30
   0 -11  -2    2.40    0.30
   0  11   2    2.09    0.62
   0  11   2    1.17    0.49
  -1 -11  -2   -0.16    0.34
  -1 -11  -2   -0.08    0.29
   1  11   2   -0.19    0.25
   1  11   2    0.22    0.31
   2  11  -3    0.72    0.39
  -2 -11   3    0.33    0.58
  -2 -11   3    0.29    0.50
   1  11  -3    0.14    0.34
   1  11  -3   -0.03    0.25
  -1 -11   3    0.84    0.63
  -1 -11   3    1.15    0.63
   0  11  -3    1.40    0.50
   0  11  -3    2.33    0.66
   0 -11   3    2.19    0.33
   0 -11   3    2.37    0.34
   0 -11   3    2.41    0.75
  -1  11  -3    6.66    1.01
  -1  11  -3    7.38    1.04
   1 -11   3    5.80    0.72
   1 -11   3    7.41    1.29
  -2  11  -3   12.60    1.43
  -2  11  -3   14.45    1.55
   2 -11   3   10.61    1.54
   2 -11   3   11.41    1.15
  -3  11  -3    8.23    1.18
   3 -11   3    9.24    1.11
  -4  11  -3    0.01    0.33
   4 -11   3    0.06    0.36
  -5  11  -3    0.64    0.49
   5 -11   3    0.66    0.48
   4  10  -3    0.37    0.33
   4  10  -3    0.26    0.24
  -4 -10   3   -0.40    0.41
  -4 -10   3    0.25    0.54
   3  10  -3    0.38    0.28
   3  10  -3    0.10    0.23
  -3 -10   3    0.45    0.50
  -3 -10   3    0.48    0.43
   2  10  -3    0.01    0.20
  -2 -10   3    0.31    0.42
  -2 -10   3   -0.25    0.40
   1  10  -3    3.32    0.67
   1  10  -3    1.66    0.46
  -1 -10   3    3.24    0.89
  -1 -10   3    2.67    0.82
   0  10  -3   -0.19    0.19
   0  10  -3   -0.18    0.24
   0 -10   3    0.03    0.15
   0 -10   3    0.27    0.42
   0 -10   3    0.38    0.43
   0 -10   3    0.06    0.16
  -1  10  -3    2.62    0.59
  -1  10  -3    2.68    0.60
   1 -10   3    2.39    0.49
   1 -10   3    4.10    0.92
  -2  10  -3    8.77    1.12
  -2  10  -3   11.60    1.29
   2 -10   3    8.85    1.01
   2 -10   3    8.32    1.29
   2 -10   3    7.43    1.09
  -3  10  -3    3.66    0.76
  -3  10  -3    4.29    0.82
   3 -10   3    3.99    0.85
   3 -10   3    3.00    0.78
   3 -10   3    4.65    0.82
  -4  10  -3    2.76    0.72
   4 -10   3    2.90    0.69
   4 -10   3    1.93    0.65
   4 -10   3    2.47    0.82
   4 -10   3    3.81    0.79
  -5  10  -3    0.27    0.38
   5 -10   3    0.27    0.37
  -6  10  -3   16.06    1.67
  -6  10  -3   14.08    1.75
   6 -10   3   15.40    1.63
  -7  10  -3   13.54    1.54
  -7  10  -3   15.91    1.97
   7 -10   3   14.87    1.65
   6   9  -3    0.82    0.25
  -6  -9   3    1.03    0.67
  -6  -9   3    2.32    0.78
   5   9  -3    0.18    0.19
  -5  -9   3   -0.17    0.31
  -5  -9   3    0.89    0.61
   4   9  -3    2.65    0.46
   4   9  -3    3.27    0.63
  -4  -9   3    1.94    0.65
  -4  -9   3    2.38    0.89
   3   9  -3    4.07    0.69
   3   9  -3    3.98    0.60
  -3  -9   3    5.89    1.07
  -3  -9   3    3.18    0.92
   2   9  -3   20.29    1.23
   2   9  -3   22.34    1.36
   2   9  -3   19.93    1.25
  -2  -9   3   21.78    2.15
  -2  -9   3   18.63    1.88
   1   9  -3   18.84    1.20
   1   9  -3   17.26    1.20
  -1  -9   3   21.83    1.64
  -1  -9   3   18.52    1.84
   0   9  -3   13.80    1.26
   0   9  -3   13.72    1.24
   0  -9   3   13.43    0.82
   0  -9   3   12.89    0.80
   0  -9   3   13.37    1.31
   0  -9   3   14.38    1.52
   0  -9   3   11.03    1.44
  -1   9  -3    9.07    1.03
  -1   9  -3   15.15    1.37
   1  -9   3    9.95    1.32
   1  -9   3    6.66    1.06
   1  -9   3   12.51    1.27
   1  -9   3   11.91    0.88
  -2   9  -3    6.66    0.92
  -2   9  -3    5.46    0.84
   2  -9   3    5.13    0.73
   2  -9   3    5.57    0.92
   2  -9   3    3.69    0.88
   2  -9   3    4.41    0.70
  -3   9  -3    6.06    0.89
  -3   9  -3    6.20    0.93
   3  -9   3    6.39    1.19
   3  -9   3    4.64    0.77
   3  -9   3    6.69    0.89
   3  -9   3    5.62    0.94
  -4   9  -3    4.15    0.86
  -4   9  -3    3.17    0.68
   4  -9   3    4.26    0.87
   4  -9   3    5.20    0.82
  -5   9  -3    2.99    0.77
  -5   9  -3    2.53    0.65
   5  -9   3    1.47    0.50
   5  -9   3    1.77    0.61
  -6   9  -3    2.20    0.71
  -6   9  -3    2.63    0.66
   6  -9   3    2.07    0.73
   6  -9   3    3.35    0.77
  -7   9  -3    1.17    0.49
  -7   9  -3    1.99    0.73
   7  -9   3    1.50    0.59
  -8   9  -3    0.72    0.58
  -8   9  -3    1.71    0.64
  -8   9  -3    0.17    0.36
   8  -9   3    0.24    0.34
   7   8  -3    1.61    0.24
  -7  -8   3    1.07    0.74
  -7  -8   3    2.18    0.72
   6   8  -3    2.58    0.36
  -6  -8   3    2.35    0.87
  -6  -8   3    1.41    0.61
   5   8  -3    5.01    0.72
   5   8  -3    4.56    0.52
  -5  -8   3    4.38    0.92
  -5  -8   3    4.54    1.12
   4   8  -3    4.49    0.70
   4   8  -3    4.64    0.56
  -4  -8   3    4.73    1.12
  -4  -8   3    4.48    0.90
   3   8  -3    0.19    0.23
   3   8  -3    0.36    0.22
  -3  -8   3   -0.09    0.30
  -3  -8   3   -0.22    0.23
   2   8  -3    0.47    0.26
   2   8  -3    0.44    0.24
   2   8  -3    0.18    0.23
  -2  -8   3    0.10    0.22
  -2  -8   3    0.12    0.36
  -2  -8   3    0.27    0.35
   1   8  -3    1.17    0.36
   1   8  -3    1.85    0.41
   1   8  -3    2.06    0.46
  -1  -8   3    1.71    0.24
  -1  -8   3    1.75    0.43
  -1  -8   3    1.64    0.25
  -1  -8   3    1.69    0.54
  -1  -8   3    2.16    0.63
   0   8  -3    6.56    0.79
   0   8  -3    7.48    0.86
   0  -8   3    7.36    0.90
   0  -8   3    6.90    0.68
   0  -8   3    7.00    1.09
   0  -8   3    7.07    0.68
   0  -8   3    6.85    0.94
  -1   8  -3    1.43    0.42
  -1   8  -3    1.22    0.39
   1  -8   3    2.35    0.46
   1  -8   3    1.49    0.57
   1  -8   3    1.65    0.48
   1  -8   3    1.27    0.42
   1  -8   3    2.04    0.41
  -2   8  -3    5.89    0.87
  -2   8  -3    8.50    0.97
  -2   8  -3    7.44    0.94
   2  -8   3    8.02    0.89
   2  -8   3    7.71    0.97
   2  -8   3    7.30    1.10
  -3   8  -3   26.63    1.56
  -3   8  -3   25.79    1.55
  -3   8  -3   26.39    1.68
   3  -8   3   27.01    1.70
   3  -8   3   26.19    1.49
  -4   8  -3   47.74    2.49
  -4   8  -3   44.87    2.27
   4  -8   3   47.83    2.26
   4  -8   3   49.29    2.51
  -5   8  -3    0.37    0.37
  -5   8  -3    0.26    0.29
   5  -8   3    0.28    0.34
   5  -8   3    0.04    0.28
  -6   8  -3    7.54    1.19
  -6   8  -3    9.33    1.16
   6  -8   3   10.76    1.38
   6  -8   3    9.07    1.14
  -7   8  -3   10.57    1.52
  -7   8  -3   18.46    1.45
  -7   8  -3   21.93    1.48
   7  -8   3   16.67    1.61
   7  -8   3   16.64    1.76
  -8   8  -3    7.98    1.12
  -8   8  -3   11.44    1.38
  -8   8  -3   11.92    1.58
   8  -8   3    8.36    1.18
  -9   8  -3    2.97    0.72
  -9   8  -3    3.25    0.91
  -9   8  -3    2.14    0.63
   9  -8   3    2.07    0.64
  -8  -7   3    0.18    0.11
   7   7  -3    1.52    0.20
  -7  -7   3    0.86    0.72
  -7  -7   3    2.06    0.68
  -7  -7   3    1.69    0.26
   6   7  -3    8.77    0.92
   6   7  -3    8.74    0.52
  -6  -7   3    6.87    1.15
  -6  -7   3    9.11    1.53
  -6  -7   3    8.05    0.55
   5   7  -3    6.13    0.54
   5   7  -3    6.36    0.78
  -5  -7   3    5.33    0.56
  -5  -7   3    5.43    1.03
  -5  -7   3    5.54    0.54
  -5  -7   3    5.84    1.21
   4   7  -3   14.81    0.80
   4   7  -3   13.67    0.96
  -4  -7   3   14.80    1.56
  -4  -7   3   14.77    0.84
  -4  -7   3   14.23    1.71
  -4  -7   3   14.13    0.83
   3   7  -3   13.67    0.81
   3   7  -3   13.81    0.94
  -3  -7   3   12.81    1.43
  -3  -7   3   14.07    1.60
  -3  -7   3   13.69    0.85
  -3  -7   3   13.18    0.84
   2   7  -3    7.53    0.72
   2   7  -3    7.91    0.81
   2   7  -3    7.66    0.75
  -2  -7   3    6.20    0.97
  -2  -7   3    7.38    1.10
  -2  -7   3    6.79    0.70
  -2  -7   3    7.05    0.76
   1   7  -3    1.42    0.35
   1   7  -3    1.81    0.37
   1   7  -3    1.88    0.42
  -1  -7   3    2.03    0.27
  -1  -7   3    2.07    0.28
  -1  -7   3    1.52    0.37
  -1  -7   3    2.04    0.60
  -1  -7   3    2.69    0.62
   0   7  -3    3.56    0.56
   0   7  -3    3.48    0.55
   0   7  -3    3.60    0.56
   0  -7   3    2.87    0.56
   0  -7   3    2.82    0.43
   0  -7   3    3.47    0.60
   0  -7   3    3.20    0.45
   0  -7   3    3.49    0.70
  -1   7  -3    5.37    0.73
  -1   7  -3    5.36    0.69
  -1   7  -3    5.47    0.69
   1  -7   3    6.21    0.78
   1  -7   3    4.20    0.79
   1  -7   3    5.72    0.78
   1  -7   3    5.86    0.65
  -2   7  -3    8.73    0.91
  -2   7  -3    9.35    1.02
  -2   7  -3   10.93    1.04
   2  -7   3    7.79    0.98
   2  -7   3   10.55    0.96
   2  -7   3    8.91    0.83
  -3   7  -3    1.65    0.46
  -3   7  -3    1.63    0.48
  -3   7  -3    1.22    0.38
   3  -7   3    2.04    0.49
   3  -7   3    1.80    0.49
  -4   7  -3    0.04    0.21
  -4   7  -3   -0.10    0.19
  -4   7  -3    0.04    0.24
   4  -7   3    0.20    0.27
   4  -7   3    0.12    0.23
  -5   7  -3    3.55    0.69
  -5   7  -3    3.19    0.72
  -5   7  -3    2.57    0.58
   5  -7   3    3.41    0.70
   5  -7   3    3.32    0.65
  -6   7  -3    0.41    0.30
  -6   7  -3    0.40    0.31
  -6   7  -3    0.39    0.36
   6  -7   3   -0.05    0.26
   6  -7   3    0.42    0.31
  -7   7  -3    3.66    0.71
  -7   7  -3    4.59    0.83
  -7   7  -3    4.04    0.87
   7  -7   3    4.36    0.86
   7  -7   3    3.69    0.76
  -8   7  -3    6.21    1.11
  -8   7  -3    7.90    1.08
  -8   7  -3    6.15    0.91
  -8   7  -3    5.93    0.92
   8  -7   3    5.34    0.93
  -9   7  -3    4.57    0.82
  -9   7  -3    5.20    0.93
  -9   7  -3    5.35    1.11
   9  -7   3    4.97    0.94
   7   6  -3   -0.16    0.17
   7   6  -3    0.24    0.09
   7   6  -3    0.26    0.09
  -7  -6   3    0.22    0.11
  -7  -6   3    0.20    0.35
  -7  -6   3    0.39    0.12
   6   6  -3    0.52    0.14
   6   6  -3    0.68    0.16
   6   6  -3    0.25    0.23
  -6  -6   3    0.62    0.16
  -6  -6   3    0.47    0.56
  -6  -6   3    0.83    0.19
  -6  -6   3    0.52    0.38
   5   6  -3    1.07    0.22
   5   6  -3    1.36    0.36
   5   6  -3    1.17    0.23
  -5  -6   3    1.21    0.23
  -5  -6   3    1.21    0.53
  -5  -6   3    1.18    0.23
  -5  -6   3    0.91    0.53
   4   6  -3    2.71    0.48
   4   6  -3    3.86    0.42
  -4  -6   3    3.74    0.77
  -4  -6   3    2.89    0.37
  -4  -6   3    4.76    0.94
  -4  -6   3    3.13    0.38
   3   6  -3    0.23    0.13
   3   6  -3   -0.07    0.12
   3   6  -3    0.36    0.22
  -3  -6   3    0.36    0.16
  -3  -6   3    0.39    0.18
  -3  -6   3    0.15    0.15
  -3  -6   3    0.56    0.38
  -3  -6   3    0.14    0.32
   2   6  -3    5.79    0.59
   2   6  -3    4.83    0.51
   2   6  -3    5.02    0.60
  -2  -6   3    4.85    0.54
  -2  -6   3    5.19    0.58
  -2  -6   3    5.13    0.83
  -2  -6   3    5.11    0.54
  -2  -6   3    5.48    0.85
   1   6  -3   20.37    1.08
   1   6  -3   18.42    1.00
   1   6  -3   19.76    1.02
  -1  -6   3   19.93    1.04
  -1  -6   3   19.03    0.83
  -1  -6   3   20.61    1.06
  -1  -6   3   19.45    0.84
  -1  -6   3   19.58    1.27
  -1  -6   3   18.00    1.08
  -1  -6   3   19.82    1.36
   0   6  -3   36.43    1.60
   0   6  -3   37.26    1.62
   0   6  -3   36.63    1.69
   0   6  -3   38.30    1.63
   0  -6   3   33.80    1.48
   0  -6   3   40.10    1.80
   0  -6   3   38.17    1.47
   0  -6   3   37.17    1.74
   0  -6   3   38.43    1.66
   0  -6   3   38.33    1.98
  -1   6  -3    5.53    0.64
  -1   6  -3    5.90    0.71
  -1   6  -3    5.92    0.68
   1  -6   3    6.61    0.72
   1  -6   3    6.79    0.97
   1  -6   3    5.80    0.65
   1  -6   3    4.39    0.65
   1  -6   3    5.75    0.62
  -2   6  -3   41.95    1.84
  -2   6  -3   41.04    1.95
  -2   6  -3   39.99    1.81
   2  -6   3   46.13    2.07
   2  -6   3   41.96    1.79
   2  -6   3   39.46    1.63
  -3   6  -3   41.74    2.03
  -3   6  -3   44.51    2.08
  -3   6  -3   38.80    1.85
  -3   6  -3   45.29    1.95
   3  -6   3   43.03    2.10
   3  -6   3   39.88    1.84
  -4   6  -3   30.58    1.67
  -4   6  -3   29.09    1.66
  -4   6  -3   26.45    1.48
  -4   6  -3   30.68    1.57
   4  -6   3   28.75    1.67
   4  -6   3   29.24    1.56
   4  -6   3   24.83    1.45
  -5   6  -3   17.45    1.31
  -5   6  -3   21.90    1.39
  -5   6  -3   17.25    1.19
  -5   6  -3   17.54    1.21
   5  -6   3   17.71    1.20
   5  -6   3   20.61    1.42
   5  -6   3   20.40    1.31
  -6   6  -3   11.78    1.22
  -6   6  -3   10.02    1.21
  -6   6  -3   11.47    1.18
  -6   6  -3   10.59    1.08
   6  -6   3    9.25    1.08
   6  -6   3    9.65    1.17
   6  -6   3    9.89    1.10
  -7   6  -3   -0.33    0.20
  -7   6  -3   -0.11    0.19
  -7   6  -3    0.07    0.23
  -7   6  -3    0.04    0.27
   7  -6   3   -0.06    0.22
   7  -6   3    0.10    0.26
   7  -6   3    0.10    0.27
  -8   6  -3    2.26    0.56
  -8   6  -3    2.53    0.68
  -8   6  -3    2.12    0.55
   8  -6   3    1.68    0.52
   8  -6   3    2.30    0.63
  -9   6  -3   -0.30    0.24
  -9   6  -3    0.65    0.35
  -9   6  -3   -0.10    0.32
   9  -6   3    0.03    0.32
   9  -6   3   -0.21    0.30
 -10   6  -3    0.09    0.39
 -10   6  -3    0.45    0.30
 -10   6  -3    0.42    0.34
  10  -6   3    0.66    0.47
  10  -6   3   -0.34    0.27
   8   5  -3    8.08    0.92
  -8  -5   3    9.20    0.41
   7   5  -3   10.02    0.40
   7   5  -3   10.32    0.98
  -7  -5   3   11.14    1.36
  -7  -5   3   10.79    0.44
  -7  -5   3   10.70    0.46
   6   5  -3   14.74    0.58
   6   5  -3   13.92    0.94
   6   5  -3   13.75    0.57
  -6  -5   3   14.25    0.58
  -6  -5   3   13.92    0.58
  -6  -5   3   12.47    1.65
  -6  -5   3   13.67    1.50
   5   5  -3   21.51    1.13
   5   5  -3   19.79    0.79
   5   5  -3   19.90    0.79
  -5  -5   3   18.09    1.82
  -5  -5   3   19.42    0.78
  -5  -5   3   19.98    0.79
  -5  -5   3   19.09    1.40
   4   5  -3    2.79    0.31
   4   5  -3    2.62    0.43
   4   5  -3    2.58    0.31
  -4  -5   3    2.19    0.59
  -4  -5   3    3.03    0.72
  -4  -5   3    2.01    0.27
  -4  -5   3    2.24    0.28
  -4  -5   3    2.48    0.30
   3   5  -3   10.43    0.57
   3   5  -3    9.79    0.68
   3   5  -3   10.11    0.55
   3   5  -3    9.73    0.57
  -3  -5   3   10.48    0.58
  -3  -5   3   10.25    0.62
  -3  -5   3    9.54    0.56
  -3  -5   3   12.75    1.28
  -3  -5   3    9.91    1.17
   2   5  -3    8.54    0.74
   2   5  -3    7.70    0.52
   2   5  -3    7.93    0.54
   2   5  -3    7.58    0.51
   2   5  -3    7.71    0.51
  -2  -5   3    8.62    0.56
  -2  -5   3    6.22    0.84
  -2  -5   3    7.31    0.51
  -2  -5   3    7.21    0.57
  -2  -5   3    5.71    0.83
   1   5  -3    4.43    0.49
   1   5  -3    4.64    0.53
   1   5  -3    3.49    0.44
   1   5  -3    3.70    0.45
   1   5  -3    5.34    0.55
  -1  -5   3    4.40    0.40
  -1  -5   3    5.17    0.53
  -1  -5   3    4.25    0.38
  -1  -5   3    4.27    0.48
  -1  -5   3    4.61    0.56
  -1  -5   3    4.69    0.30
  -1  -5   3    3.26    0.59
  -1  -5   3    4.41    0.71
   0   5  -3    3.52    0.50
   0   5  -3    3.13    0.44
   0   5  -3    2.89    0.42
   0   5  -3    2.78    0.41
   0  -5   3    2.07    0.36
   0  -5   3    2.66    0.42
   0  -5   3    2.44    0.34
   0  -5   3    3.03    0.49
   0  -5   3    2.77    0.39
   0  -5   3    2.07    0.51
   0  -5   3    2.73    0.46
  -1   5  -3    0.06    0.14
  -1   5  -3   -0.15    0.11
  -1   5  -3    0.02    0.13
  -1   5  -3    0.04    0.14
   1  -5   3   -0.09    0.10
   1  -5   3   -0.05    0.14
   1  -5   3   -0.12    0.15
   1  -5   3   -0.17    0.10
   1  -5   3   -0.06    0.11
  -2   5  -3   18.20    1.00
  -2   5  -3   16.82    1.00
  -2   5  -3   16.31    1.01
  -2   5  -3   17.81    1.02
  -2   5  -3   18.09    1.10
   2  -5   3   16.50    0.96
   2  -5   3   17.33    1.12
   2  -5   3   18.51    0.82
   2  -5   3   19.17    1.04
  -3   5  -3    0.30    0.25
  -3   5  -3    0.19    0.20
  -3   5  -3    0.53    0.25
  -3   5  -3    0.24    0.23
  -3   5  -3    0.22    0.22
   3  -5   3    0.33    0.19
   3  -5   3    0.51    0.24
   3  -5   3    0.54    0.25
  -4   5  -3    8.97    0.89
  -4   5  -3   10.03    1.03
  -4   5  -3    9.98    0.93
  -4   5  -3    9.13    0.98
  -4   5  -3   11.68    1.06
  -4   5  -3    9.09    0.92
   4  -5   3   10.21    1.06
   4  -5   3   11.17    0.99
   4  -5   3   12.30    0.88
  -5   5  -3   22.82    1.31
  -5   5  -3   20.46    1.32
  -5   5  -3   22.30    1.29
  -5   5  -3   21.12    1.25
  -5   5  -3   21.07    1.38
   5  -5   3   17.11    1.18
   5  -5   3   23.40    1.44
   5  -5   3   23.05    1.31
  -6   5  -3    1.63    0.46
  -6   5  -3    0.93    0.38
  -6   5  -3    0.94    0.39
  -6   5  -3    0.71    0.30
  -6   5  -3    1.35    0.38
   6  -5   3    1.47    0.42
   6  -5   3    1.79    0.47
   6  -5   3    1.36    0.47
  -7   5  -3   19.96    1.38
  -7   5  -3   21.91    1.51
  -7   5  -3   22.15    1.35
  -7   5  -3   20.78    1.27
  -7   5  -3   20.72    1.32
   7  -5   3   19.08    1.33
   7  -5   3   22.04    1.42
  -8   5  -3   33.26    2.08
  -8   5  -3   38.22    1.90
  -8   5  -3   38.81    1.89
   8  -5   3   38.09    2.04
   8  -5   3   31.99    1.90
  -9   5  -3   20.34    1.27
  -9   5  -3   21.84    1.68
  -9   5  -3   19.82    1.29
   9  -5   3   21.34    1.52
   9  -5   3   16.36    1.61
 -10   5  -3    3.61    0.59
 -10   5  -3    1.88    0.65
  10  -5   3    2.39    0.65
  10  -5   3    2.79    0.74
 -10  -4   3    1.40    0.26
   9   4  -3    0.06    0.08
   9   4  -3    0.04    0.08
   9   4  -3    0.05    0.23
  -9  -4   3    0.00    0.10
   8   4  -3    0.44    0.29
   8   4  -3    1.09    0.15
   8   4  -3    0.92    0.14
  -8  -4   3    1.43    0.21
  -8  -4   3    0.87    0.16
   7   4  -3    0.40    0.10
   7   4  -3    0.14    0.19
   7   4  -3    0.16    0.09
  -7  -4   3    0.28    0.09
  -7  -4   3    0.23    0.09
   6   4  -3   -0.08    0.14
   6   4  -3    0.00    0.07
   6   4  -3    0.07    0.07
  -6  -4   3    0.24    0.09
  -6  -4   3    0.22    0.30
  -6  -4   3    0.13    0.07
   5   4  -3    1.85    0.20
   5   4  -3    1.60    0.19
   5   4  -3    1.51    0.34
  -5  -4   3    1.36    0.17
  -5  -4   3    1.44    0.17
  -5  -4   3    1.52    0.58
  -5  -4   3    1.41    0.48
   4   4  -3    2.41    0.26
   4   4  -3    2.49    0.39
   4   4  -3    2.65    0.27
  -4  -4   3    3.00    0.30
  -4  -4   3    2.19    0.24
  -4  -4   3    2.29    0.25
  -4  -4   3    2.57    0.63
  -4  -4   3    2.70    0.57
   3   4  -3    8.46    0.47
   3   4  -3    8.86    0.46
   3   4  -3    9.07    0.49
   3   4  -3    8.38    0.60
  -3  -4   3    8.84    0.98
  -3  -4   3    7.78    0.46
  -3  -4   3    9.26    0.48
  -3  -4   3    9.14    0.55
  -3  -4   3    9.77    1.10
   2   4  -3   67.61    2.25
   2   4  -3   70.53    2.33
   2   4  -3   69.63    2.26
   2   4  -3   70.54    2.36
   2   4  -3   69.17    2.23
  -2  -4   3   68.10    2.43
  -2  -4   3   66.82    2.73
  -2  -4   3   70.46    2.25
  -2  -4   3   69.78    2.75
  -2  -4   3   68.34    2.24
   1   4  -3  152.06    4.49
   1   4  -3  144.02    4.46
   1   4  -3  151.18    4.46
   1   4  -3  144.93    4.46
   1   4  -3  148.23    4.66
   1   4  -3  146.57    4.45
  -1  -4   3  145.49    4.45
  -1  -4   3  143.79    4.34
  -1  -4   3  149.74    4.44
  -1  -4   3  145.11    4.88
  -1  -4   3  144.56    4.76
  -1  -4   3  153.87    4.29
  -1  -4   3  143.26    4.82
   0   4  -3   56.38    2.00
   0   4  -3   56.23    1.98
   0   4  -3   55.65    2.00
   0   4  -3   57.99    2.11
   0  -4   3   54.82    2.09
   0  -4   3   56.18    2.01
   0  -4   3   56.56    1.94
   0  -4   3   54.44    2.34
   0  -4   3   56.15    2.20
   0  -4   3   57.08    2.02
   0  -4   3   56.15    1.96
  -1   4  -3   50.68    1.84
  -1   4  -3   49.32    1.89
  -1   4  -3   52.77    2.01
  -1   4  -3   49.61    1.90
   1  -4   3   53.81    1.90
   1  -4   3   48.62    2.07
   1  -4   3   49.45    1.92
   1  -4   3   53.37    1.94
   1  -4   3   48.86    1.80
   1  -4   3   50.22    1.86
  -2   4  -3   11.22    0.73
  -2   4  -3   11.32    0.74
  -2   4  -3   10.92    0.78
  -2   4  -3   12.00    0.77
  -2   4  -3   10.87    0.71
   2  -4   3   10.89    0.71
   2  -4   3   11.59    0.74
   2  -4   3   11.77    0.74
   2  -4   3   10.14    0.79
   2  -4   3   11.62    0.76
  -3   4  -3   27.26    1.29
  -3   4  -3   25.15    1.26
  -3   4  -3   27.15    1.39
  -3   4  -3   26.32    1.29
  -3   4  -3   26.77    1.31
   3  -4   3   27.25    1.45
   3  -4   3   28.68    1.31
   3  -4   3   24.47    1.25
   3  -4   3   27.33    1.30
  -4   4  -3   14.10    0.91
  -4   4  -3   14.38    0.90
  -4   4  -3   12.34    0.85
  -4   4  -3   15.80    0.96
  -4   4  -3   12.83    0.93
  -4   4  -3   14.14    0.99
   4  -4   3   13.60    0.90
   4  -4   3   14.61    0.93
   4  -4   3   11.80    0.95
   4  -4   3   14.51    0.93
  -5   4  -3   34.28    1.57
  -5   4  -3   27.57    1.62
  -5   4  -3   32.74    1.67
  -5   4  -3   34.93    1.61
  -5   4  -3   29.87    1.55
   5  -4   3   31.96    1.57
   5  -4   3   34.48    1.62
   5  -4   3   34.57    1.76
  -6   4  -3   29.15    1.49
  -6   4  -3   29.44    1.54
  -6   4  -3   28.98    1.44
  -6   4  -3   25.70    1.58
  -6   4  -3   29.47    1.55
   6  -4   3   28.39    1.51
   6  -4   3   29.13    1.65
   6  -4   3   27.27    1.50
  -7   4  -3   10.17    1.15
  -7   4  -3   11.02    0.97
  -7   4  -3    9.39    0.80
  -7   4  -3    9.99    0.96
  -7   4  -3   11.98    1.16
   7  -4   3   10.85    1.09
   7  -4   3    8.83    0.99
  -8   4  -3    0.67    0.28
  -8   4  -3    0.83    0.37
  -8   4  -3    0.98    0.34
  -8   4  -3    0.52    0.40
   8  -4   3    0.52    0.32
   8  -4   3    1.05    0.39
  -9   4  -3    0.59    0.29
  -9   4  -3    0.50    0.37
  -9   4  -3    0.05    0.29
  -9   4  -3    0.38    0.22
   9  -4   3    0.23    0.31
   9  -4   3    0.47    0.36
 -10   4  -3    0.78    0.47
 -10   4  -3   -0.20    0.30
 -10   4  -3    0.00    0.19
  10  -4   3    0.54    0.39
  10  -4   3    0.60    0.35
  10   3  -3    0.57    0.19
 -10  -3   3    0.54    0.21
   9   3  -3    1.48    0.25
  -9  -3   3    1.20    0.26
   8   3  -3    1.97    0.26
   8   3  -3    1.55    0.24
  -8  -3   3    2.04    0.28
  -8  -3   3    1.91    0.27
   7   3  -3   10.45    0.50
   7   3  -3   10.48    0.50
  -7  -3   3    9.24    0.48
  -7  -3   3    9.95    0.49
   6   3  -3    0.63    0.14
   6   3  -3    0.75    0.14
  -6  -3   3    0.50    0.11
  -6  -3   3    0.55    0.34
  -6  -3   3    0.55    0.12
   5   3  -3    5.54    0.31
   5   3  -3    4.86    0.30
  -5  -3   3    5.20    0.28
  -5  -3   3    6.52    0.85
  -5  -3   3    5.52    0.29
  -5  -3   3    5.36    0.31
   4   3  -3   25.45    0.81
   4   3  -3   23.78    0.88
   4   3  -3   25.24    0.89
  -4  -3   3   25.22    0.86
  -4  -3   3   22.19    1.36
  -4  -3   3   23.87    0.86
  -4  -3   3   25.17    0.98
   3   3  -3   47.94    1.72
   3   3  -3   47.59    1.48
   3   3  -3   47.00    1.53
   3   3  -3   46.42    1.53
  -3  -3   3   45.64    2.12
  -3  -3   3   47.21    1.68
  -3  -3   3   46.70    1.50
  -3  -3   3   45.51    2.00
  -3  -3   3   44.81    1.50
   2   3  -3   33.00    1.20
   2   3  -3   34.41    1.23
   2   3  -3   32.86    1.19
   2   3  -3   35.09    1.19
   2   3  -3   33.09    1.29
  -2  -3   3   32.77    1.19
  -2  -3   3   34.82    1.20
  -2  -3   3   30.93    1.57
  -2  -3   3   32.91    1.57
  -2  -3   3   33.14    1.34
   1   3  -3    6.61    0.44
   1   3  -3    7.47    0.49
   1   3  -3    7.15    0.47
   1   3  -3    6.93    0.44
   1   3  -3    7.12    0.45
  -1  -3   3    7.23    0.39
  -1  -3   3    7.08    0.46
  -1  -3   3    9.87    0.90
  -1  -3   3    6.98    0.45
  -1  -3   3    7.58    0.55
  -1  -3   3    7.15    0.41
   0   3  -3    0.40    0.16
   0   3  -3    0.07    0.12
   0   3  -3    0.47    0.17
   0   3  -3   -0.01    0.10
   0   3  -3    0.14    0.12
   0  -3   3    0.16    0.16
   0  -3   3    0.16    0.11
   0  -3   3    0.23    0.13
   0  -3   3    0.09    0.12
   0  -3   3    0.35    0.14
  -1   3  -3    0.06    0.13
  -1   3  -3    0.11    0.15
  -1   3  -3    0.00    0.10
  -1   3  -3   -0.03    0.10
  -1   3  -3    0.17    0.13
  -1   3  -3    0.02    0.12
   1  -3   3    0.33    0.16
   1  -3   3   -0.02    0.10
   1  -3   3    0.29    0.18
   1  -3   3    0.01    0.12
   1  -3   3    0.12    0.13
  -2   3  -3    0.08    0.13
  -2   3  -3    0.04    0.11
  -2   3  -3    0.23    0.17
  -2   3  -3    0.32    0.17
  -2   3  -3    0.03    0.13
   2  -3   3    0.26    0.15
   2  -3   3   -0.03    0.14
   2  -3   3   -0.21    0.08
   2  -3   3    0.01    0.11
   2  -3   3    0.01    0.12
  -3   3  -3    8.86    0.66
  -3   3  -3    9.27    0.65
  -3   3  -3    8.65    0.63
  -3   3  -3    8.47    0.63
  -3   3  -3    9.75    0.71
   3  -3   3    9.23    0.66
   3  -3   3   10.66    0.69
   3  -3   3    8.27    0.83
   3  -3   3   11.06    0.72
  -4   3  -3   44.69    1.84
  -4   3  -3   43.80    1.97
  -4   3  -3   46.57    1.86
  -4   3  -3   45.93    1.84
  -4   3  -3   47.11    1.86
  -4   3  -3   44.31    1.97
  -4   3  -3   48.35    1.85
   4  -3   3   46.12    2.04
   4  -3   3   44.82    1.86
   4  -3   3   46.21    1.88
  -5   3  -3   74.96    2.95
  -5   3  -3   76.96    2.71
  -5   3  -3   78.44    2.80
  -5   3  -3   77.38    2.74
  -5   3  -3   76.92    2.75
  -5   3  -3   69.26    2.90
   5  -3   3   75.94    3.01
   5  -3   3   74.72    2.80
   5  -3   3   73.07    2.77
  -6   3  -3   27.12    1.31
  -6   3  -3   27.15    1.53
  -6   3  -3   30.05    1.42
  -6   3  -3   29.66    1.39
  -6   3  -3   27.35    1.45
   6  -3   3   26.45    1.43
   6  -3   3   28.71    1.45
   6  -3   3   24.74    1.50
  -7   3  -3    1.87    0.49
  -7   3  -3    1.33    0.42
  -7   3  -3    1.16    0.29
  -7   3  -3    2.30    0.44
   7  -3   3    2.20    0.49
   7  -3   3    2.18    0.49
  -8   3  -3    0.21    0.21
  -8   3  -3    0.46    0.31
  -8   3  -3    0.05    0.22
  -8   3  -3    0.32    0.17
   8  -3   3    0.50    0.30
   8  -3   3   -0.15    0.19
  -9   3  -3   10.28    0.65
  -9   3  -3   11.08    1.22
  -9   3  -3   10.22    1.23
  -9   3  -3    9.83    0.66
   9  -3   3   10.31    1.17
   9  -3   3   10.34    1.16
 -10   3  -3    6.38    1.00
 -10   3  -3    6.78    1.08
  10  -3   3    5.37    0.89
  10  -3   3    7.32    1.03
  10   2  -3    0.47    0.22
 -10  -2   3    0.27    0.21
   9   2  -3    0.89    0.25
  -9  -2   3    0.70    0.23
   8   2  -3    2.72    0.35
  -8  -2   3    2.75    0.37
  -8  -2   3    3.55    0.41
   7   2  -3    3.42    0.36
   7   2  -3    2.22    0.29
  -7  -2   3    3.05    0.34
  -7  -2   3    3.56    0.37
  -7  -2   3    2.98    0.35
   6   2  -3   39.18    1.36
   6   2  -3   39.32    1.37
  -6  -2   3   39.92    1.95
  -6  -2   3   38.52    1.33
  -6  -2   3   38.53    1.35
  -6  -2   3   41.48    1.48
   5   2  -3   59.37    1.91
   5   2  -3   61.76    1.93
   5   2  -3   61.60    1.85
  -5  -2   3   62.26    2.08
  -5  -2   3   63.43    1.89
  -5  -2   3   55.44    2.44
  -5  -2   3   59.98    1.88
   4   2  -3   40.93    1.36
   4   2  -3   43.06    1.30
   4   2  -3   41.92    1.36
  -4  -2   3   40.93    1.81
  -4  -2   3   41.21    1.51
  -4  -2   3   40.44    1.33
  -4  -2   3   39.95    1.32
   3   2  -3   18.38    0.71
   3   2  -3   18.58    0.72
   3   2  -3   18.24    0.72
   3   2  -3   18.62    0.69
   3   2  -3   18.27    0.72
  -3  -2   3   18.50    0.85
  -3  -2   3   18.03    0.70
  -3  -2   3   19.45    1.06
  -3  -2   3   17.39    0.69
   2   2  -3    5.14    0.33
   2   2  -3    4.97    0.31
   2   2  -3    4.14    0.30
   2   2  -3    4.87    0.33
  -2  -2   3    4.54    0.24
  -2  -2   3    4.84    0.31
  -2  -2   3    4.71    0.24
  -2  -2   3    4.42    0.31
  -2  -2   3    4.52    0.45
  -2  -2   3    5.63    0.63
   1   2  -3   39.82    1.35
   1   2  -3   38.45    1.35
   1   2  -3   38.29    1.35
   1   2  -3   39.03    1.40
  -1  -2   3   37.89    1.28
  -1  -2   3   39.41    1.34
  -1  -2   3   37.95    1.31
  -1  -2   3   38.49    1.30
  -1  -2   3   38.00    1.34
  -1  -2   3   35.94    1.57
  -1  -2   3   36.78    1.50
   0   2  -3    5.74    0.41
   0   2  -3    6.16    0.43
   0  -2   3    5.93    0.41
   0  -2   3    6.50    0.61
   0  -2   3    6.37    0.41
   0  -2   3    5.76    0.41
  -1   2  -3   25.24    1.11
  -1   2  -3   24.09    0.96
  -1   2  -3   24.69    1.03
  -1   2  -3   26.60    1.06
  -1   2  -3   25.99    1.07
  -1   2  -3   26.09    1.07
   1  -2   3   25.37    1.07
   1  -2   3   24.57    1.19
   1  -2   3   24.38    1.03
   1  -2   3   25.51    1.05
   1  -2   3   25.16    1.05
  -2   2  -3   43.22    1.70
  -2   2  -3   44.70    1.69
  -2   2  -3   47.30    1.81
  -2   2  -3   46.15    1.70
  -2   2  -3   47.93    1.72
   2  -2   3   46.97    1.72
   2  -2   3   46.62    1.72
   2  -2   3   48.81    1.91
   2  -2   3   47.49    1.71
   2  -2   3   46.24    1.72
  -3   2  -3    9.19    0.60
  -3   2  -3    9.14    0.63
  -3   2  -3   10.46    0.65
  -3   2  -3    9.03    0.67
  -3   2  -3    9.36    0.69
   3  -2   3    9.34    0.72
   3  -2   3   11.00    0.67
   3  -2   3    9.88    0.64
  -4   2  -3    4.61    0.54
  -4   2  -3    4.18    0.49
  -4   2  -3    4.89    0.59
  -4   2  -3    5.35    0.56
  -4   2  -3    4.64    0.33
  -4   2  -3    5.16    0.58
  -4   2  -3    4.89    0.54
   4  -2   3    5.27    0.58
   4  -2   3    3.45    0.53
   4  -2   3    3.66    0.48
  -5   2  -3    5.99    0.65
  -5   2  -3    6.17    0.51
  -5   2  -3    4.76    0.64
  -5   2  -3    5.34    0.57
  -5   2  -3    6.74    0.62
  -5   2  -3    5.58    0.61
   5  -2   3    5.86    0.65
   5  -2   3    5.93    0.73
   5  -2   3    4.81    0.59
  -6   2  -3    0.28    0.16
  -6   2  -3    0.61    0.29
  -6   2  -3    0.34    0.22
  -6   2  -3    0.17    0.17
  -6   2  -3    0.29    0.18
  -6   2  -3    0.27    0.16
   6  -2   3    0.81    0.30
   6  -2   3    0.44    0.23
  -7   2  -3   11.22    0.64
  -7   2  -3   11.56    0.72
  -7   2  -3   12.51    0.92
  -7   2  -3   11.15    1.09
  -7   2  -3   12.02    0.71
   7  -2   3   10.84    1.01
   7  -2   3   12.43    1.10
  -8   2  -3   16.29    0.79
  -8   2  -3   15.95    0.77
  -8   2  -3   17.03    1.16
  -8   2  -3   16.49    1.20
   8  -2   3   15.02    1.08
   8  -2   3   17.00    1.15
  -9   2  -3   16.90    1.30
  -9   2  -3   18.20    1.30
   9  -2   3   17.57    1.23
   9  -2   3   18.79    1.27
 -10   2  -3   14.30    1.41
 -10   2  -3   12.55    1.40
  10  -2   3   14.31    1.38
  10  -2   3   13.07    1.37
  11   1  -3    4.41    0.61
 -11  -1   3    7.02    0.82
  10   1  -3    6.76    0.71
 -10  -1   3    8.24    0.82
   9   1  -3    1.66    0.34
  -9  -1   3    0.68    0.29
  -9  -1   3    1.88    0.37
   8   1  -3    0.25    0.18
  -8  -1   3    0.16    0.19
  -8  -1   3    0.29    0.19
   7   1  -3   16.55    0.84
   7   1  -3   16.63    0.87
  -7  -1   3   17.46    0.86
  -7  -1   3   18.01    0.97
  -7  -1   3   18.43    0.87
   6   1  -3   34.04    1.28
   6   1  -3   36.58    1.32
   6   1  -3   35.96    1.33
  -6  -1   3   34.46    1.31
  -6  -1   3   33.81    1.46
  -6  -1   3   35.46    1.31
   5   1  -3    0.00    0.09
   5   1  -3   -0.04    0.08
   5   1  -3    0.05    0.09
  -5  -1   3    0.06    0.09
  -5  -1   3    0.31    0.23
  -5  -1   3    0.11    0.09
  -5  -1   3    0.03    0.13
   4   1  -3   19.12    0.79
   4   1  -3   19.29    0.76
   4   1  -3   20.02    0.79
  -4  -1   3   20.14    1.08
  -4  -1   3   19.34    0.78
  -4  -1   3   19.44    0.78
  -4  -1   3   20.02    0.93
   3   1  -3    6.71    0.39
   3   1  -3    7.13    0.40
   3   1  -3    6.93    0.38
  -3  -1   3    6.79    0.39
  -3  -1   3    5.97    0.36
  -3  -1   3    6.36    0.24
  -3  -1   3    6.79    0.48
  -3  -1   3    6.14    0.62
   2   1  -3   27.71    0.98
   2   1  -3   24.62    0.97
   2   1  -3   27.15    0.98
   2   1  -3   25.83    0.98
  -2  -1   3   26.72    0.96
  -2  -1   3   28.06    0.99
  -2  -1   3   26.08    0.93
  -2  -1   3   27.82    0.93
  -2  -1   3   26.11    1.13
  -2  -1   3   27.04    0.89
  -2  -1   3   28.06    1.20
   1   1  -3    4.27    0.32
   1   1  -3    4.84    0.34
  -1  -1   3    4.68    0.50
  -1  -1   3    5.31    0.47
  -1  -1   3    4.59    0.32
  -1  -1   3    4.73    0.32
  -1  -1   3    4.46    0.30
  -1  -1   3    4.54    0.33
  -1  -1   3    4.78    0.32
  -1  -1   3    4.28    0.48
   0   1  -3  546.20   15.38
   0   1  -3  553.35   14.93
   0   1  -3  554.87   15.24
   0  -1   3  546.75   15.98
   0  -1   3  544.90   15.35
   0  -1   3  554.15   16.16
   0  -1   3  540.44   15.41
   0  -1   3  559.96   15.38
   0  -1   3  550.22   15.26
  -1   1  -3  250.33    7.00
  -1   1  -3  246.85    7.30
  -1   1  -3  246.71    7.29
  -1   1  -3  266.36    7.26
  -1   1  -3  243.94    7.31
  -1   1  -3  251.56    7.29
   1  -1   3  253.97    7.76
   1  -1   3  260.06    7.76
   1  -1   3  250.75    7.23
   1  -1   3  256.74    7.32
   1  -1   3  252.39    7.28
   1  -1   3  257.18    7.31
  -2   1  -3  117.33    3.66
  -2   1  -3  122.26    3.70
  -2   1  -3  118.98    3.55
  -2   1  -3  122.45    3.67
  -2   1  -3  118.22    3.86
   2  -1   3  119.85    4.08
   2  -1   3  115.43    3.66
   2  -1   3  125.46    3.72
   2  -1   3  116.54    3.97
  -3   1  -3    1.49    0.26
  -3   1  -3    1.94    0.26
  -3   1  -3    1.32    0.25
  -3   1  -3    1.66    0.29
  -3   1  -3    1.53    0.27
  -3   1  -3    0.63    0.22
  -3   1  -3    1.48    0.28
   3  -1   3    2.18    0.47
   3  -1   3    1.06    0.23
   3  -1   3    1.43    0.26
   3  -1   3    2.01    0.36
  -4   1  -3    7.07    0.49
  -4   1  -3    7.68    0.56
  -4   1  -3    8.25    0.53
  -4   1  -3    7.60    0.72
  -4   1  -3    7.45    0.70
  -4   1  -3    7.45    0.52
  -4   1  -3    6.84    0.48
  -4   1  -3    7.65    0.52
   4  -1   3    9.03    0.99
   4  -1   3    7.54    0.76
   4  -1   3    6.71    0.61
   4  -1   3    8.30    0.57
  -5   1  -3   15.59    0.88
  -5   1  -3   15.93    0.94
  -5   1  -3   15.17    0.90
  -5   1  -3   15.53    0.73
  -5   1  -3   16.16    0.90
  -5   1  -3   14.50    0.75
  -5   1  -3   15.23    0.78
  -5   1  -3   14.02    0.74
   5  -1   3   14.46    0.86
   5  -1   3   15.49    0.95
   5  -1   3   14.87    0.86
   5  -1   3   14.10    1.34
  -6   1  -3   27.52    1.34
  -6   1  -3   25.95    1.29
  -6   1  -3   24.90    1.04
  -6   1  -3   26.20    1.07
  -6   1  -3   24.54    0.97
  -6   1  -3   25.76    1.36
   6  -1   3   24.93    1.24
   6  -1   3   22.52    1.52
   6  -1   3   22.31    1.20
  -7   1  -3   30.41    1.07
  -7   1  -3   29.17    1.48
  -7   1  -3   30.30    1.59
  -7   1  -3   30.60    1.08
   7  -1   3   30.97    1.49
   7  -1   3   29.57    1.48
  -8   1  -3    0.09    0.19
  -8   1  -3   -0.10    0.18
   8  -1   3    0.12    0.22
   8  -1   3    0.07    0.19
  -9   1  -3    0.49    0.32
  -9   1  -3   -0.17    0.20
   9  -1   3    0.24    0.21
   9  -1   3    0.09    0.21
 -10   1  -3    0.09    0.31
 -10   1  -3    0.07    0.26
  10  -1   3    0.18    0.24
  11   0  -3    0.73    0.32
 -11   0   3    0.49    0.31
  10   0  -3    1.42    0.39
 -10   0   3    0.88    0.35
 -10   0   3    1.52    0.45
   9   0  -3    0.26    0.19
  -9   0   3    0.43    0.28
  -9   0   3    0.09    0.20
   8   0  -3   12.41    0.80
  -8   0   3   12.01    0.80
  -8   0   3   12.86    0.91
   7   0  -3   13.60    0.77
   7   0  -3   11.98    0.74
  -7   0   3   11.65    0.83
  -7   0   3   11.84    0.74
   6   0  -3   12.36    0.69
   6   0  -3   12.28    0.70
   6   0  -3   12.15    0.70
  -6   0   3   13.33    0.72
  -6   0   3   12.21    0.70
  -6   0   3   13.45    0.84
   5   0  -3   19.49    0.87
   5   0  -3   19.96    0.87
   5   0  -3   18.20    0.86
  -5   0   3   18.76    0.86
  -5   0   3   18.29    0.86
  -5   0   3   18.72    1.00
   4   0  -3    6.39    0.42
   4   0  -3    6.33    0.43
   4   0  -3    6.89    0.44
  -4   0   3    6.30    0.33
  -4   0   3    6.51    0.64
  -4   0   3    5.79    0.41
  -4   0   3    6.73    0.44
  -4   0   3    6.76    0.53
  -4   0   3    6.45    0.33
   3   0  -3    6.63    0.42
   3   0  -3    7.87    0.44
   3   0  -3    6.61    0.42
  -3   0   3    7.03    0.43
  -3   0   3    7.00    0.53
  -3   0   3    6.85    0.35
  -3   0   3    7.06    0.35
  -3   0   3    7.47    0.51
  -3   0   3    6.43    0.37
  -3   0   3    7.33    0.43
   2   0  -3   24.79    0.97
   2   0  -3   25.94    0.97
  -2   0   3   25.57    1.12
  -2   0   3   24.66    0.92
  -2   0   3   25.04    0.96
  -2   0   3   24.90    0.97
  -2   0   3   25.41    0.95
  -2   0   3   25.64    0.95
  -2   0   3   26.00    1.04
  -2   0   3   23.84    0.94
   1   0  -3  207.36    6.00
   1   0  -3  215.58    5.99
  -1   0   3  212.62    6.38
  -1   0   3  204.98    5.94
  -1   0   3  208.53    5.95
  -1   0   3  212.24    5.98
  -1   0   3  200.78    5.95
  -1   0   3  194.51    6.20
   0   0  -3  308.05    8.48
   0   0  -3  295.29    8.49
   0   0  -3  285.65    8.38
   0   0  -3  290.34    8.45
   0   0  -3  302.37    8.11
   0   0   3  292.56    8.88
   0   0   3  302.79    8.96
   0   0   3  293.84    8.47
   0   0   3  303.59    8.44
   0   0   3  298.79    8.40
   0   0   3  297.09    8.46
  -1   0  -3   18.94    0.84
  -1   0  -3   21.54    0.86
  -1   0  -3   21.97    0.88
  -1   0  -3   20.38    0.68
   1   0   3   19.17    1.05
   1   0   3   20.52    1.01
   1   0   3   19.92    0.85
   1   0   3   21.54    0.87
  -2   0  -3    6.74    0.46
  -2   0  -3    6.67    0.45
  -2   0  -3    5.37    0.40
  -2   0  -3    7.41    0.45
  -2   0  -3    6.61    0.43
  -2   0  -3    6.80    0.43
   2   0   3    6.91    0.54
   2   0   3    6.85    0.45
   2   0   3    7.41    0.46
   2   0   3    6.28    0.70
  -3   0  -3   18.48    0.77
  -3   0  -3   16.11    0.82
  -3   0  -3   18.68    0.87
  -3   0  -3   17.10    0.87
  -3   0  -3   18.18    0.79
  -3   0  -3   16.51    0.87
  -3   0  -3   19.16    0.81
   3   0   3   18.52    0.97
   3   0   3   17.86    0.83
   3   0   3   17.04    0.83
   3   0   3   20.16    1.19
  -4   0  -3    1.09    0.25
  -4   0  -3    1.42    0.20
  -4   0  -3    1.04    0.27
  -4   0  -3    0.55    0.19
  -4   0  -3    1.17    0.27
  -4   0  -3    1.00    0.20
  -4   0  -3    0.47    0.15
  -4   0  -3    1.06    0.18
   4   0   3    0.91    0.35
   4   0   3    0.89    0.22
   4   0   3    1.46    0.31
   4   0   3    1.36    0.26
   4   0   3    1.08    0.26
  -5   0  -3    0.46    0.21
  -5   0  -3    0.11    0.14
  -5   0  -3    0.20    0.15
  -5   0  -3    0.52    0.14
  -5   0  -3    0.41    0.25
  -5   0  -3    0.39    0.12
   5   0   3    0.81    0.23
   5   0   3    0.40    0.31
   5   0   3    0.44    0.18
  -6   0  -3   64.09    2.63
  -6   0  -3   67.41    2.40
  -6   0  -3   61.71    2.48
   6   0   3   63.36    2.37
   6   0   3   66.30    2.93
   6   0   3   67.20    2.38
  -7   0  -3   13.90    0.93
  -7   0  -3   15.43    1.15
  -7   0  -3   14.70    0.98
   7   0   3   15.22    0.93
   7   0   3   13.71    0.89
   7   0   3   16.90    1.61
  -8   0  -3    0.75    0.33
  -8   0  -3    0.59    0.29
   8   0   3    0.50    0.25
   8   0   3    0.58    0.29
  -9   0  -3    6.49    0.80
  -9   0  -3    7.07    0.89
   9   0   3    6.00    0.77
 -10   0  -3   10.49    1.14
 -10   0  -3   10.54    1.14
  10   0   3   10.94    1.11
  11  -1  -3    5.32    0.81
 -11   1   3    6.07    0.86
 -11   1   3    4.94    0.83
  10  -1  -3    9.16    0.98
 -10   1   3   10.46    1.15
 -10   1   3    8.59    0.96
   9  -1  -3   15.61    1.05
   9  -1  -3   16.11    1.05
  -9   1   3   15.24    1.16
  -9   1   3   16.00    1.07
   8  -1  -3    1.36    0.34
   8  -1  -3    2.01    0.42
  -8   1   3    1.20    0.34
  -8   1   3    1.80    0.44
   7  -1  -3    2.15    0.39
   7  -1  -3    3.14    0.47
  -7   1   3    2.18    0.48
  -7   1   3    2.55    0.43
   6  -1  -3    2.75    0.41
   6  -1  -3    2.12    0.36
  -6   1   3    2.13    0.24
  -6   1   3    1.88    0.35
  -6   1   3    2.02    0.24
  -6   1   3    1.42    0.35
   5  -1  -3    3.39    0.43
   5  -1  -3    3.06    0.40
   5  -1  -3    3.21    0.41
  -5   1   3    2.48    0.36
  -5   1   3    3.04    0.28
  -5   1   3    2.69    0.38
  -5   1   3    2.57    0.30
  -5   1   3    3.27    0.34
  -5   1   3    1.91    0.39
   4  -1  -3   56.51    2.01
   4  -1  -3   57.85    2.02
  -4   1   3   58.45    1.95
  -4   1   3   57.32    2.01
  -4   1   3   59.42    1.91
  -4   1   3   58.41    2.24
  -4   1   3   61.13    2.04
   3  -1  -3   83.61    2.79
   3  -1  -3   89.82    2.81
  -3   1   3   86.40    2.78
  -3   1   3   85.01    2.71
  -3   1   3   87.11    3.05
  -3   1   3   88.30    2.79
  -3   1   3   90.94    2.78
  -3   1   3   90.41    2.74
   2  -1  -3  108.88    3.34
   2  -1  -3  107.04    3.34
  -2   1   3  114.15    3.65
  -2   1   3  110.22    3.32
  -2   1   3  104.86    3.29
  -2   1   3  106.61    3.43
  -2   1   3  107.80    3.33
  -2   1   3  107.59    3.17
   1  -1  -3   36.23    1.29
   1  -1  -3   37.29    1.29
   1  -1  -3   34.67    1.27
   1  -1  -3   36.11    1.29
  -1   1   3   32.23    1.26
  -1   1   3   35.52    1.46
  -1   1   3   32.90    1.26
  -1   1   3   34.36    1.26
  -1   1   3   34.91    1.26
  -1   1   3   34.07    1.40
  -1   1   3   33.52    1.14
   0  -1  -3    8.37    0.47
   0  -1  -3    5.53    0.40
   0  -1  -3    7.18    0.44
   0  -1  -3    5.79    0.41
   0   1   3    5.85    0.40
   0   1   3    6.25    0.42
   0   1   3    6.28    0.41
   0   1   3    6.44    0.61
   0   1   3    6.44    0.63
  -1  -1  -3   21.75    0.91
  -1  -1  -3   22.21    0.94
  -1  -1  -3   22.55    0.93
  -1  -1  -3   22.98    0.92
  -1  -1  -3   24.61    0.93
   1   1   3   22.74    0.93
   1   1   3   22.78    0.93
   1   1   3   23.65    1.10
   1   1   3   21.74    1.16
  -2  -1  -3   37.72    1.34
  -2  -1  -3   36.87    1.35
  -2  -1  -3   33.78    1.27
  -2  -1  -3   35.19    1.44
  -2  -1  -3   35.19    1.28
  -2  -1  -3   35.60    1.25
   2   1   3   37.38    1.53
   2   1   3   37.17    1.69
   2   1   3   36.10    1.33
   2   1   3   37.11    1.32
  -3  -1  -3   11.38    0.52
  -3  -1  -3   11.33    0.54
  -3  -1  -3   11.04    0.48
  -3  -1  -3   10.99    0.53
  -3  -1  -3   12.97    0.65
  -3  -1  -3   12.84    0.66
  -3  -1  -3   11.62    0.75
   3   1   3   11.29    0.63
   3   1   3   12.09    0.62
   3   1   3   13.23    0.77
   3   1   3   11.71    1.09
   3   1   3   11.18    0.61
  -4  -1  -3    6.23    0.54
  -4  -1  -3    4.96    0.49
  -4  -1  -3    5.70    0.29
  -4  -1  -3    5.53    0.55
  -4  -1  -3    4.88    0.28
  -4  -1  -3    5.53    0.66
   4   1   3    6.01    0.84
   4   1   3    6.83    0.64
   4   1   3    5.98    0.54
   4   1   3    5.81    0.44
   4   1   3    5.75    0.53
  -5  -1  -3   19.79    0.99
  -5  -1  -3   22.09    1.04
  -5  -1  -3   21.17    1.26
  -5  -1  -3   22.75    1.09
   5   1   3   20.18    0.98
   5   1   3   21.55    1.40
   5   1   3   20.55    0.98
  -6  -1  -3    6.40    0.64
  -6  -1  -3    6.20    0.63
  -6  -1  -3    6.95    0.70
  -6  -1  -3    6.09    0.83
   6   1   3    6.49    0.63
   6   1   3    7.58    0.68
   6   1   3    6.17    0.94
  -7  -1  -3    3.77    0.76
  -7  -1  -3    4.31    0.58
  -7  -1  -3    2.86    0.49
   7   1   3    5.61    0.90
   7   1   3    3.01    0.47
   7   1   3    4.80    0.59
  -8  -1  -3    5.91    1.03
  -8  -1  -3    4.82    0.64
  -8  -1  -3    4.59    0.63
   8   1   3    5.36    0.65
  -9  -1  -3    1.94    0.45
  -9  -1  -3    1.89    0.46
   9   1   3    0.85    0.30
 -10  -1  -3    0.41    0.31
  10   1   3    0.15    0.24
  11  -2  -3    4.80    0.79
 -11   2   3    5.90    0.88
 -11   2   3    5.20    0.95
  10  -2  -3    7.30    0.91
  10  -2  -3    9.05    1.07
 -10   2   3    7.69    0.97
 -10   2   3    7.62    1.07
   9  -2  -3    4.41    0.66
   9  -2  -3    8.13    0.95
  -9   2   3    7.67    0.90
  -9   2   3    7.80    1.05
   8  -2  -3    0.39    0.24
   8  -2  -3   -0.11    0.15
  -8   2   3    0.08    0.23
  -8   2   3    0.13    0.21
  -8   2   3   -0.04    0.09
  -8   2   3    0.06    0.09
   7  -2  -3    0.07    0.17
   7  -2  -3    0.18    0.17
  -7   2   3    0.14    0.14
  -7   2   3    0.12    0.13
  -7   2   3    0.78    0.33
  -7   2   3    0.11    0.20
   6  -2  -3   18.04    1.01
   6  -2  -3   18.96    1.03
  -6   2   3   18.80    0.89
  -6   2   3   17.87    0.82
  -6   2   3   17.14    0.88
  -6   2   3   19.55    1.04
  -6   2   3   17.23    1.13
   5  -2  -3   30.71    1.31
   5  -2  -3   27.98    1.29
  -5   2   3   29.41    1.17
  -5   2   3   28.28    1.21
  -5   2   3   27.77    1.45
  -5   2   3   29.14    1.31
  -5   2   3   26.17    1.16
   4  -2  -3   60.26    2.24
   4  -2  -3   67.94    2.29
  -4   2   3   62.93    2.22
  -4   2   3   62.23    2.24
  -4   2   3   64.46    2.50
  -4   2   3   65.48    2.19
   3  -2  -3   18.24    0.91
   3  -2  -3   18.67    0.92
  -3   2   3   20.46    0.95
  -3   2   3   20.15    1.08
  -3   2   3   19.56    0.90
  -3   2   3   19.69    0.93
   2  -2  -3    9.76    0.60
   2  -2  -3    9.70    0.60
   2  -2  -3    9.85    0.60
   2  -2  -3   10.98    0.61
  -2   2   3    9.91    0.59
  -2   2   3    9.23    0.69
  -2   2   3    9.48    0.59
  -2   2   3   10.31    0.60
  -2   2   3    9.44    0.59
   1  -2  -3    2.71    0.35
   1  -2  -3    3.08    0.38
   1  -2  -3    2.08    0.32
   1  -2  -3    2.06    0.30
  -1   2   3    2.31    0.33
  -1   2   3    3.14    0.38
  -1   2   3    1.61    0.28
  -1   2   3    1.94    0.37
  -1   2   3    2.57    0.35
   0  -2  -3    0.72    0.19
   0  -2  -3    0.53    0.17
   0  -2  -3    1.32    0.24
   0  -2  -3    1.08    0.22
   0   2   3    1.22    0.31
   0   2   3    0.85    0.19
   0   2   3    0.73    0.21
   0   2   3    0.47    0.24
  -1  -2  -3    0.47    0.15
  -1  -2  -3    0.52    0.16
  -1  -2  -3    0.35    0.12
  -1  -2  -3    0.35    0.13
  -1  -2  -3    0.33    0.13
   1   2   3    0.37    0.15
   1   2   3    0.53    0.16
   1   2   3    1.04    0.33
   1   2   3    0.93    0.27
  -2  -2  -3   24.73    1.03
  -2  -2  -3   25.19    1.20
  -2  -2  -3   24.67    0.93
  -2  -2  -3   24.43    0.95
  -2  -2  -3   22.80    0.92
  -2  -2  -3   24.90    1.02
  -2  -2  -3   26.37    0.89
   2   2   3   24.30    1.01
   2   2   3   25.82    1.02
   2   2   3   25.21    1.03
   2   2   3   25.38    1.19
   2   2   3   24.71    1.37
  -3  -2  -3   63.08    2.50
  -3  -2  -3   64.97    1.95
  -3  -2  -3   65.70    1.96
  -3  -2  -3   67.60    2.21
  -3  -2  -3   65.48    2.19
   3   2   3   69.86    2.76
   3   2   3   64.28    2.20
   3   2   3   66.30    2.18
   3   2   3   63.83    2.19
   3   2   3   69.09    2.41
  -4  -2  -3   26.84    1.14
  -4  -2  -3   25.06    1.10
  -4  -2  -3   25.18    1.40
   4   2   3   27.26    1.13
   4   2   3   28.83    1.14
   4   2   3   26.40    1.56
   4   2   3   27.79    1.11
  -5  -2  -3    9.20    1.02
  -5  -2  -3    8.47    0.58
  -5  -2  -3    8.28    0.59
  -5  -2  -3    7.34    0.56
   5   2   3    7.04    0.53
   5   2   3    8.69    0.56
   5   2   3    7.86    1.02
  -6  -2  -3    4.53    0.79
  -6  -2  -3    4.06    0.51
  -6  -2  -3    4.72    0.54
  -6  -2  -3    4.47    0.54
   6   2   3    4.08    0.79
   6   2   3    5.21    0.55
  -7  -2  -3   19.93    1.07
  -7  -2  -3   18.68    1.05
  -7  -2  -3   18.63    1.73
   7   2   3   21.49    1.07
   7   2   3   21.84    1.58
  -8  -2  -3    7.90    0.77
  -8  -2  -3    8.07    1.20
  -8  -2  -3    7.34    0.75
   8   2   3    6.14    0.69
  -9  -2  -3    0.88    0.34
   9   2   3    1.70    0.41
  11  -3  -3    3.96    0.78
  11  -3  -3    3.56    0.75
 -11   3   3    3.25    0.73
 -11   3   3    3.18    0.83
  10  -3  -3    0.60    0.35
  10  -3  -3    1.40    0.49
 -10   3   3    0.93    0.48
 -10   3   3    0.97    0.43
   9  -3  -3    0.29    0.28
   9  -3  -3    0.40    0.28
  -9   3   3    0.54    0.36
  -9   3   3    0.43    0.30
  -9   3   3    0.04    0.14
  -9   3   3    0.17    0.14
   8  -3  -3    0.87    0.33
   8  -3  -3    0.19    0.25
  -8   3   3    0.24    0.22
  -8   3   3   -0.15    0.25
  -8   3   3    0.20    0.15
  -8   3   3   -0.03    0.15
   7  -3  -3    0.24    0.20
   7  -3  -3    0.39    0.25
  -7   3   3    1.08    0.29
  -7   3   3    0.72    0.35
  -7   3   3    0.98    0.32
  -7   3   3    0.12    0.16
   6  -3  -3   15.25    0.96
   6  -3  -3   15.37    0.96
  -6   3   3   13.18    1.04
  -6   3   3   13.47    0.80
  -6   3   3   14.29    0.84
  -6   3   3   15.21    0.97
  -6   3   3   15.49    0.90
   5  -3  -3   43.89    1.84
   5  -3  -3   42.69    1.83
  -5   3   3   45.69    1.86
  -5   3   3   45.94    1.77
  -5   3   3   43.92    2.06
  -5   3   3   44.36    1.79
   4  -3  -3   43.71    1.86
   4  -3  -3   48.45    1.90
  -4   3   3   49.69    1.91
  -4   3   3   48.18    1.87
  -4   3   3   49.47    1.89
  -4   3   3   51.78    2.18
  -4   3   3   48.07    1.83
   3  -3  -3   24.15    1.18
   3  -3  -3   27.78    1.23
   3  -3  -3   24.91    1.18
   3  -3  -3   26.89    1.22
  -3   3   3   27.35    1.21
  -3   3   3   25.38    1.19
  -3   3   3   27.25    1.22
  -3   3   3   26.39    1.18
  -3   3   3   27.64    1.40
   2  -3  -3   20.28    0.99
   2  -3  -3   20.47    0.99
   2  -3  -3   20.87    0.99
   2  -3  -3   19.53    0.97
  -2   3   3   20.66    0.99
  -2   3   3   22.01    1.00
  -2   3   3   19.45    1.12
  -2   3   3   20.61    1.07
  -2   3   3   21.46    1.01
  -2   3   3   19.73    0.97
   1  -3  -3    6.65    0.49
   1  -3  -3    6.83    0.60
   1  -3  -3    6.51    0.58
   1  -3  -3    6.69    0.60
  -1   3   3    5.74    0.55
  -1   3   3    6.80    0.50
  -1   3   3    7.84    0.78
  -1   3   3    6.05    0.57
  -1   3   3    6.03    0.51
   0  -3  -3   28.62    1.17
   0  -3  -3   26.53    1.19
   0  -3  -3   27.86    1.11
   0  -3  -3   26.42    1.23
   0  -3  -3   27.83    1.13
   0  -3  -3   26.62    1.13
   0   3   3   30.06    1.37
   0   3   3   27.97    1.15
   0   3   3   27.73    1.15
  -1  -3  -3   36.68    1.62
  -1  -3  -3   40.14    1.38
  -1  -3  -3   37.60    1.37
  -1  -3  -3   36.41    1.32
  -1  -3  -3   35.19    1.41
  -1  -3  -3   36.75    1.43
  -1  -3  -3   37.09    1.44
   1   3   3   39.73    1.65
   1   3   3   37.40    1.43
   1   3   3   40.06    1.58
   1   3   3   39.74    1.81
   1   3   3   39.03    1.44
  -2  -3  -3   96.16    2.89
  -2  -3  -3   98.33    2.90
  -2  -3  -3   94.57    3.41
  -2  -3  -3   97.25    3.05
  -2  -3  -3   93.51    3.05
   2   3   3   90.98    3.04
   2   3   3   96.17    3.08
   2   3   3   99.99    3.66
   2   3   3   97.19    3.05
   2   3   3   97.85    3.08
   2   3   3   99.95    3.37
  -3  -3  -3   32.24    1.30
  -3  -3  -3   30.90    1.62
  -3  -3  -3   32.81    1.29
   3   3   3   33.41    1.31
   3   3   3   34.02    1.31
   3   3   3   33.49    1.78
   3   3   3   34.71    1.46
   3   3   3   32.39    1.28
  -4  -3  -3   13.46    1.29
  -4  -3  -3   12.59    0.70
  -4  -3  -3   13.08    0.71
   4   3   3   12.43    0.70
   4   3   3   13.48    0.71
   4   3   3   12.76    0.69
   4   3   3   12.91    1.31
  -5  -3  -3    1.50    0.48
  -5  -3  -3    1.24    0.27
  -5  -3  -3    2.54    0.36
   5   3   3    1.94    0.54
   5   3   3    1.89    0.32
   5   3   3    1.43    0.28
  -6  -3  -3   -0.07    0.14
  -6  -3  -3    0.06    0.13
  -6  -3  -3   -0.04    0.12
  -6  -3  -3    0.46    0.36
   6   3   3    0.06    0.13
   6   3   3    0.49    0.41
  -7  -3  -3    3.66    0.84
  -7  -3  -3    3.65    0.49
  -7  -3  -3    3.77    0.49
   7   3   3    3.58    0.47
  -8  -3  -3    0.12    0.19
  -8  -3  -3    0.00    0.41
   8   3   3    0.03    0.17
  -9  -3  -3   -0.06    0.18
  -9  -3  -3    0.43    0.51
   9   3   3    0.21    0.21
  11  -4  -3    1.87    0.63
  11  -4  -3    1.56    0.55
 -11   4   3    1.66    0.66
 -11   4   3    0.87    0.45
  10  -4  -3    7.42    1.05
  10  -4  -3    6.24    0.93
 -10   4   3    7.58    1.20
 -10   4   3   10.20    1.25
 -10   4   3    7.33    0.67
 -10   4   3    7.02    0.66
   9  -4  -3   16.57    1.24
   9  -4  -3   16.00    1.21
  -9   4   3   14.95    1.59
  -9   4   3   16.35    0.99
  -9   4   3   14.95    1.45
   8  -4  -3   32.08    1.72
   8  -4  -3   31.83    1.72
  -8   4   3   31.71    1.73
  -8   4   3   29.36    1.88
  -8   4   3   32.03    1.54
   7  -4  -3    7.46    0.87
   7  -4  -3    7.65    0.89
  -7   4   3    5.82    0.71
  -7   4   3    6.66    0.96
  -7   4   3    6.08    0.80
  -7   4   3    8.34    0.82
   6  -4  -3   10.10    0.99
   6  -4  -3   11.98    1.08
  -6   4   3    9.57    0.95
  -6   4   3   10.94    1.15
  -6   4   3   11.35    0.84
  -6   4   3   11.28    0.78
   5  -4  -3   20.09    1.16
   5  -4  -3   19.41    1.12
  -5   4   3   20.25    1.09
  -5   4   3   19.17    1.10
  -5   4   3   18.80    1.28
  -5   4   3   19.12    1.13
   4  -4  -3    6.73    0.71
   4  -4  -3    7.24    0.77
   4  -4  -3    8.41    0.81
   4  -4  -3    8.73    0.84
  -4   4   3    6.28    0.68
  -4   4   3    5.96    0.82
  -4   4   3    6.75    0.71
  -4   4   3    7.12    0.72
  -4   4   3    5.88    0.68
  -4   4   3    8.47    0.88
   3  -4  -3   19.85    1.09
   3  -4  -3   19.19    1.07
   3  -4  -3   22.40    1.13
   3  -4  -3   21.36    1.12
  -3   4   3   21.89    1.12
  -3   4   3   20.53    1.17
  -3   4   3   22.59    1.13
  -3   4   3   20.67    1.08
  -3   4   3   21.02    1.09
  -3   4   3   20.15    1.25
   2  -4  -3    4.72    0.55
   2  -4  -3    5.65    0.59
   2  -4  -3    6.04    0.65
   2  -4  -3    5.18    0.59
  -2   4   3    6.42    0.68
  -2   4   3    5.55    0.60
  -2   4   3    5.11    0.56
  -2   4   3    5.12    0.69
  -2   4   3    4.74    0.61
  -2   4   3    5.33    0.58
   1  -4  -3    2.73    0.40
   1  -4  -3    2.13    0.36
   1  -4  -3    2.85    0.41
   1  -4  -3    2.30    0.39
  -1   4   3    3.31    0.45
  -1   4   3    2.82    0.41
  -1   4   3    2.99    0.51
  -1   4   3    2.91    0.47
   0  -4  -3    0.19    0.15
   0  -4  -3    0.36    0.16
   0  -4  -3    0.40    0.17
   0  -4  -3    0.41    0.16
   0  -4  -3    0.40    0.17
   0  -4  -3    0.52    0.20
   0  -4  -3    0.12    0.20
   0   4   3    0.80    0.30
   0   4   3    0.72    0.22
   0   4   3    0.71    0.22
  -1  -4  -3   18.46    0.95
  -1  -4  -3   19.86    0.89
  -1  -4  -3   21.30    0.89
  -1  -4  -3   20.56    1.17
  -1  -4  -3   20.43    0.87
  -1  -4  -3   19.71    0.82
  -1  -4  -3   20.20    0.97
   1   4   3   20.45    0.96
   1   4   3   18.89    1.10
   1   4   3   18.69    0.93
   1   4   3   20.50    1.27
   1   4   3   19.17    0.97
  -2  -4  -3   17.03    0.66
  -2  -4  -3   15.91    0.85
  -2  -4  -3   17.26    1.12
  -2  -4  -3   17.71    0.67
  -2  -4  -3   16.37    0.86
   2   4   3   16.95    0.87
   2   4   3   17.66    0.86
   2   4   3   16.77    0.85
   2   4   3   17.49    1.23
   2   4   3   18.05    1.02
  -3  -4  -3    7.10    0.91
  -3  -4  -3    9.10    0.58
  -3  -4  -3    7.61    0.55
   3   4   3    7.99    0.56
   3   4   3    8.33    0.55
   3   4   3    8.10    1.07
   3   4   3    7.86    0.54
  -4  -4  -3    6.65    0.61
  -4  -4  -3    8.32    0.58
  -4  -4  -3    7.69    1.02
   4   4   3    7.58    1.08
   4   4   3    8.32    0.56
   4   4   3    8.17    0.56
  -5  -4  -3    4.28    0.50
  -5  -4  -3    3.43    0.43
  -5  -4  -3    3.42    0.75
   5   4   3    3.93    0.45
   5   4   3    4.19    0.83
  -6  -4  -3   12.77    1.53
  -6  -4  -3   11.80    0.75
  -6  -4  -3   12.07    0.73
   6   4   3   11.48    0.70
   6   4   3   10.82    1.39
  -7  -4  -3    5.21    0.59
  -7  -4  -3    2.90    0.84
   7   4   3    5.76    0.59
  -8  -4  -3   14.24    1.87
  -8  -4  -3   14.65    0.92
   8   4   3   13.48    0.84
  -9  -4  -3    4.19    0.60
  -9  -4  -3    3.98    1.08
   9   4   3    3.59    0.53
  11  -5  -3    0.89    0.48
  11  -5  -3    0.88    0.52
 -11   5   3    0.41    0.48
 -11   5   3    0.83    0.29
 -11   5   3    0.13    0.45
  10  -5  -3    0.33    0.35
  10  -5  -3    0.08    0.27
 -10   5   3    0.30    0.42
 -10   5   3   -0.05    0.31
 -10   5   3    0.36    0.27
   9  -5  -3    1.65    0.51
   9  -5  -3    1.12    0.45
  -9   5   3    1.21    0.39
  -9   5   3    1.39    0.49
  -9   5   3    1.32    0.59
   8  -5  -3    6.32    0.90
   8  -5  -3    6.04    0.92
  -8   5   3    4.92    0.82
  -8   5   3    6.36    1.04
  -8   5   3    5.25    0.73
   7  -5  -3    2.85    0.58
   7  -5  -3    1.92    0.50
  -7   5   3    2.23    0.49
  -7   5   3    2.83    0.68
  -7   5   3    1.65    0.47
  -7   5   3    2.49    0.48
   6  -5  -3    1.23    0.38
   6  -5  -3    2.80    0.56
  -6   5   3    1.73    0.51
  -6   5   3    2.42    0.48
  -6   5   3    2.03    0.46
  -6   5   3    1.81    0.44
   5  -5  -3    0.21    0.21
   5  -5  -3    0.19    0.19
  -5   5   3    0.91    0.32
  -5   5   3    0.41    0.27
  -5   5   3    0.03    0.17
  -5   5   3    0.16    0.21
  -5   5   3    0.28    0.30
   4  -5  -3   13.56    0.94
   4  -5  -3   13.69    0.95
   4  -5  -3   15.00    0.99
  -4   5   3   15.79    0.98
  -4   5   3   13.35    1.28
  -4   5   3   14.29    0.94
  -4   5   3   15.79    1.07
  -4   5   3   13.44    0.94
  -4   5   3   15.00    0.99
   3  -5  -3   52.16    2.11
   3  -5  -3   49.30    2.07
   3  -5  -3   51.03    1.65
   3  -5  -3   49.20    2.06
   3  -5  -3   52.19    2.09
  -3   5   3   51.14    2.10
  -3   5   3   47.50    2.02
  -3   5   3   48.47    2.04
  -3   5   3   53.11    2.37
  -3   5   3   52.89    2.29
  -3   5   3   49.78    2.06
   2  -5  -3   60.79    1.85
   2  -5  -3   60.91    2.35
   2  -5  -3   61.34    2.31
   2  -5  -3   63.51    2.34
   2  -5  -3   61.27    2.34
  -2   5   3   61.81    2.32
  -2   5   3   61.06    2.34
  -2   5   3   59.44    2.56
  -2   5   3   61.80    2.37
  -2   5   3   61.88    2.34
  -2   5   3   61.48    2.62
   1  -5  -3   28.85    1.42
   1  -5  -3   32.38    1.38
   1  -5  -3   29.97    1.36
   1  -5  -3   29.39    1.33
   1  -5  -3   29.40    1.39
   1  -5  -3   32.13    1.09
  -1   5   3   30.10    1.59
  -1   5   3   28.61    1.36
  -1   5   3   27.87    1.34
   0  -5  -3   25.37    1.13
   0  -5  -3   25.85    1.37
   0  -5  -3   24.02    1.15
   0  -5  -3   23.15    1.17
   0  -5  -3   22.98    1.09
   0  -5  -3   22.31    1.15
   0  -5  -3   24.03    1.07
   0   5   3   24.66    1.38
   0   5   3   23.34    1.15
   0   5   3   24.17    1.17
  -1  -5  -3    7.62    0.50
  -1  -5  -3    6.74    0.67
  -1  -5  -3   10.81    1.07
  -1  -5  -3    8.24    0.52
  -1  -5  -3    8.37    0.46
  -1  -5  -3    9.61    0.66
   1   5   3    8.33    0.61
   1   5   3    8.42    0.89
   1   5   3    8.22    0.73
  -2  -5  -3    1.27    0.14
  -2  -5  -3    1.14    0.13
  -2  -5  -3    1.22    0.41
  -2  -5  -3    1.40    0.30
  -2  -5  -3    1.25    0.28
   2   5   3    2.86    0.66
   2   5   3    1.59    0.32
   2   5   3    1.14    0.27
  -3  -5  -3    0.84    0.40
  -3  -5  -3    0.56    0.22
  -3  -5  -3    0.90    0.24
   3   5   3    0.11    0.28
   3   5   3    0.44    0.19
   3   5   3    0.65    0.23
  -4  -5  -3    1.22    0.48
  -4  -5  -3    1.15    0.28
  -4  -5  -3    1.07    0.27
   4   5   3    1.08    0.25
   4   5   3    1.42    0.57
  -5  -5  -3    0.28    0.35
  -5  -5  -3    0.39    0.22
   5   5   3    0.10    0.13
   5   5   3    0.33    0.36
  -6  -5  -3    1.89    0.36
  -6  -5  -3    1.25    0.28
  -6  -5  -3    1.21    0.58
   6   5   3    0.78    0.47
   6   5   3    1.80    0.32
  -7  -5  -3    8.34    0.77
  -7  -5  -3    8.31    1.32
   7   5   3    8.04    0.73
  -8  -5  -3    9.92    1.57
  -8  -5  -3   11.16    0.80
   8   5   3   10.85    0.74
  10  -6  -3    8.66    1.19
  10  -6  -3    7.94    1.16
 -10   6   3    8.68    1.40
 -10   6   3    8.63    0.99
   9  -6  -3   14.88    1.52
   9  -6  -3   11.49    1.33
  -9   6   3   14.26    1.33
  -9   6   3   15.39    1.80
   8  -6  -3    4.89    0.81
   8  -6  -3    6.96    1.04
  -8   6   3    6.88    0.87
  -8   6   3    4.28    0.70
  -8   6   3    7.00    1.15
   7  -6  -3    0.62    0.34
   7  -6  -3    0.67    0.35
  -7   6   3    1.74    0.47
  -7   6   3    1.24    0.40
  -7   6   3    1.35    0.53
   6  -6  -3   10.81    1.15
   6  -6  -3    9.23    1.06
  -6   6   3    9.98    1.11
  -6   6   3    9.00    1.19
  -6   6   3    9.13    0.99
  -6   6   3   10.53    1.12
   5  -6  -3    8.63    0.99
   5  -6  -3   12.69    1.17
  -5   6   3    9.20    0.96
  -5   6   3    8.36    1.11
  -5   6   3    9.53    1.06
  -5   6   3    8.74    0.97
   4  -6  -3    3.80    0.62
   4  -6  -3    2.75    0.55
   4  -6  -3    2.61    0.53
  -4   6   3    2.45    0.53
  -4   6   3    3.38    0.60
  -4   6   3    2.24    0.58
  -4   6   3    3.54    0.59
   3  -6  -3    7.83    0.86
   3  -6  -3    4.95    0.66
  -3   6   3    5.49    0.73
  -3   6   3    5.87    0.73
  -3   6   3    5.98    0.88
  -3   6   3    6.34    0.86
   2  -6  -3   34.74    1.68
   2  -6  -3   37.84    1.68
   2  -6  -3   36.34    1.64
  -2   6   3   34.14    1.64
  -2   6   3   36.70    1.92
  -2   6   3   34.74    1.66
   1  -6  -3   48.60    2.03
   1  -6  -3   51.92    1.98
   1  -6  -3   46.44    2.13
   1  -6  -3   49.72    1.96
   1  -6  -3   48.17    1.91
   1  -6  -3   46.08    2.03
  -1   6   3   46.58    1.99
  -1   6   3   45.71    1.99
  -1   6   3   48.68    2.28
   0  -6  -3    2.96    0.40
   0  -6  -3    1.84    0.34
   0  -6  -3    3.03    0.61
   0  -6  -3    3.07    0.42
   0  -6  -3    2.65    0.45
   0  -6  -3    2.73    0.42
   0   6   3    2.40    0.45
   0   6   3    3.03    0.50
   0   6   3    2.29    0.53
  -1  -6  -3    0.18    0.14
  -1  -6  -3   -0.03    0.13
  -1  -6  -3    0.18    0.14
  -1  -6  -3   -0.11    0.20
   1   6   3    0.10    0.15
   1   6   3   -0.06    0.13
  -2  -6  -3    4.52    0.82
  -2  -6  -3    5.43    0.64
   2   6   3    5.14    0.58
   2   6   3    4.89    0.86
   2   6   3    6.10    0.66
  -3  -6  -3   21.54    1.52
  -3  -6  -3   17.21    1.02
   3   6   3   18.93    1.02
   3   6   3   19.82    1.05
   3   6   3   19.34    1.84
  -4  -6  -3   11.03    0.76
  -4  -6  -3   10.27    1.37
   4   6   3   11.89    1.51
   4   6   3   10.80    0.72
  -5  -6  -3    6.88    1.18
  -5  -6  -3    8.44    0.77
   5   6   3    9.11    1.33
   5   6   3    5.53    0.61
  -6  -6  -3    0.73    0.51
  -6  -6  -3    0.69    0.25
   6   6   3    0.42    0.20
  -7  -6  -3    0.35    0.24
  -7  -6  -3    0.70    0.53
   7   6   3    0.38    0.22
  10  -7  -3    4.19    0.93
 -10   7   3    3.48    0.73
 -10   7   3    3.45    0.98
   9  -7  -3    3.08    0.75
  -9   7   3    3.62    0.96
  -9   7   3    2.17    0.59
   8  -7  -3    9.06    1.21
  -8   7   3    7.89    1.06
  -8   7   3    9.67    1.48
  -8   7   3    9.04    1.07
   7  -7  -3   14.02    1.41
  -7   7   3   15.99    1.31
  -7   7   3   13.52    1.32
  -7   7   3   14.20    1.72
   6  -7  -3   13.30    1.33
  -6   7   3   11.17    1.20
  -6   7   3   15.81    1.57
  -6   7   3   13.92    1.60
   5  -7  -3   11.90    1.23
  -5   7   3   12.05    1.27
  -5   7   3   14.57    1.34
  -5   7   3   12.20    1.44
   4  -7  -3   12.91    1.21
   4  -7  -3   13.93    1.28
  -4   7   3   14.55    1.08
  -4   7   3   13.96    1.06
  -4   7   3   13.70    1.50
   3  -7  -3   30.91    1.60
   3  -7  -3   29.60    1.56
  -3   7   3   31.66    1.65
  -3   7   3   29.31    1.59
  -3   7   3   29.56    1.84
   2  -7  -3    4.04    0.67
   2  -7  -3    2.94    0.53
   2  -7  -3    4.70    0.68
   2  -7  -3    3.57    0.56
  -2   7   3    3.93    0.64
  -2   7   3    3.38    0.58
  -2   7   3    4.29    0.77
   1  -7  -3    0.96    0.32
   1  -7  -3    1.01    0.31
   1  -7  -3    0.83    0.34
   1  -7  -3    0.96    0.39
  -1   7   3    0.94    0.41
  -1   7   3    0.76    0.32
  -1   7   3    1.21    0.37
   0  -7  -3    0.79    0.32
   0  -7  -3    1.13    0.29
   0  -7  -3    0.81    0.25
   0  -7  -3    1.18    0.44
   0   7   3    0.83    0.31
   0   7   3    0.22    0.25
  -1  -7  -3    0.26    0.13
  -1  -7  -3   -0.11    0.19
  -1  -7  -3    0.00    0.11
  -1  -7  -3   -0.17    0.14
   1   7   3    0.06    0.18
   1   7   3    0.28    0.24
  -2  -7  -3    1.03    0.31
  -2  -7  -3    0.58    0.42
   2   7   3    0.93    0.30
   2   7   3    0.82    0.28
   2   7   3    1.15    0.51
  -3  -7  -3    3.52    0.53
  -3  -7  -3    3.75    0.85
   3   7   3    3.11    0.52
   3   7   3    2.69    0.78
   3   7   3    2.72    0.46
  -4  -7  -3    9.84    1.44
  -4  -7  -3    7.07    0.79
   4   7   3   10.55    1.47
   4   7   3    9.76    0.73
  -5  -7  -3    3.11    0.93
  -5  -7  -3    4.85    0.62
   5   7   3    6.24    1.19
   5   7   3    6.03    0.65
  -6  -7  -3   -0.12    0.41
  -6  -7  -3    0.48    0.24
   6   7   3    0.18    0.19
  -7  -7  -3    1.18    0.76
  -7  -7  -3    1.55    0.39
   7   7   3    1.40    0.34
   9  -8  -3   -0.17    0.36
  -9   8   3    0.76    0.45
  -9   8   3    0.47    0.52
   8  -8  -3    0.75    0.47
  -8   8   3    1.61    0.68
  -8   8   3    0.64    0.38
   7  -8  -3    0.14    0.31
  -7   8   3   -0.14    0.30
  -7   8   3    0.41    0.42
  -7   8   3    0.04    0.23
   6  -8  -3    4.42    0.83
  -6   8   3    2.90    0.62
  -6   8   3    2.98    0.82
   5  -8  -3    4.02    0.76
  -5   8   3    1.71    0.68
  -5   8   3    1.81    0.53
   4  -8  -3    4.50    0.75
   4  -8  -3    3.55    0.67
   4  -8  -3    3.10    0.62
  -4   8   3    3.23    0.65
  -4   8   3    3.40    0.79
   3  -8  -3    0.05    0.21
   3  -8  -3   -0.05    0.19
   3  -8  -3   -0.03    0.26
  -3   8   3    0.29    0.27
  -3   8   3    0.01    0.26
  -3   8   3    0.37    0.28
   2  -8  -3    5.07    0.69
   2  -8  -3    4.70    0.68
   2  -8  -3    3.90    0.69
   2  -8  -3    3.50    0.74
  -2   8   3    3.95    0.66
  -2   8   3    4.54    0.73
   1  -8  -3   21.31    1.49
   1  -8  -3   23.97    1.43
   1  -8  -3   20.67    1.19
  -1   8   3   20.40    1.33
  -1   8   3   21.44    1.32
   0  -8  -3   26.73    1.79
   0  -8  -3   31.26    1.39
   0  -8  -3   29.92    1.38
   0  -8  -3   32.17    1.67
   0   8   3   28.55    1.59
   0   8   3   28.62    1.56
  -1  -8  -3   26.46    1.46
  -1  -8  -3   25.50    1.00
  -1  -8  -3   21.69    1.66
  -1  -8  -3   24.68    1.00
   1   8   3   22.24    1.34
   1   8   3   27.99    1.47
  -2  -8  -3    5.58    1.03
  -2  -8  -3    4.12    0.64
   2   8   3    4.04    0.61
   2   8   3    4.98    0.72
   2   8   3    3.19    0.82
  -3  -8  -3    6.24    0.79
  -3  -8  -3    7.39    1.30
   3   8   3    5.77    1.13
   3   8   3    7.23    0.81
  -4  -8  -3    0.87    0.60
  -4  -8  -3    0.66    0.32
   4   8   3    1.42    0.68
   4   8   3    1.29    0.35
  -5  -8  -3    1.54    0.75
  -5  -8  -3    2.06    0.48
   5   8   3    2.12    0.44
  -6  -8  -3    0.54    0.32
  -6  -8  -3    2.15    0.92
   6   8   3    1.12    0.35
   8  -9  -3   11.62    1.45
  -8   9   3   15.68    2.01
  -8   9   3   12.80    1.42
   7  -9  -3   23.47    1.72
  -7   9   3   22.51    1.64
  -7   9   3   26.06    2.56
   6  -9  -3    4.81    0.89
  -6   9   3    3.75    0.99
  -6   9   3    5.19    0.89
   5  -9  -3   -0.16    0.19
   5  -9  -3    0.06    0.28
  -5   9   3   -0.10    0.38
  -5   9   3    0.03    0.27
   4  -9  -3    2.40    0.56
   4  -9  -3    2.64    0.66
   4  -9  -3    3.73    0.71
  -4   9   3    3.08    0.82
  -4   9   3    4.49    0.80
   3  -9  -3    0.16    0.30
   3  -9  -3    0.23    0.29
   3  -9  -3    0.17    0.29
  -3   9   3    0.04    0.24
  -3   9   3   -0.02    0.27
   2  -9  -3    0.69    0.41
   2  -9  -3    0.64    0.31
   2  -9  -3    1.01    0.44
  -2   9   3    1.16    0.45
  -2   9   3    1.46    0.47
   1  -9  -3    0.14    0.22
   1  -9  -3    0.04    0.27
   1  -9  -3   -0.05    0.25
  -1   9   3    0.28    0.26
  -1   9   3    0.08    0.23
   0  -9  -3    0.29    0.21
   0  -9  -3    0.21    0.19
   0  -9  -3    0.61    0.34
   0  -9  -3    0.00    0.31
   0   9   3    0.56    0.32
   0   9   3    0.12    0.26
  -1  -9  -3    2.81    0.80
  -1  -9  -3    4.05    0.70
   1   9   3    1.93    0.50
   1   9   3    2.18    0.55
  -2  -9  -3    0.47    0.50
  -2  -9  -3    2.05    0.51
   2   9   3    2.08    0.52
   2   9   3    1.24    0.39
   2   9   3    2.49    0.80
  -3  -9  -3    0.35    0.48
  -3  -9  -3   -0.03    0.23
   3   9   3   -0.06    0.20
   3   9   3    0.27    0.44
  -4  -9  -3    0.21    0.52
  -4  -9  -3    0.77    0.36
   4   9   3    1.51    0.72
   4   9   3    0.99    0.35
   7 -10  -3    0.87    0.53
  -7  10   3    1.42    0.60
  -7  10   3    2.58    0.91
   6 -10  -3    4.85    0.88
  -6  10   3    4.33    0.87
  -6  10   3    5.92    1.27
   5 -10  -3    0.04    0.34
  -5  10   3   -0.30    0.21
   4 -10  -3    6.19    1.00
   4 -10  -3    4.59    0.86
   4 -10  -3    4.04    0.78
  -4  10   3    5.30    0.93
   3 -10  -3    6.00    0.90
   3 -10  -3    6.86    1.07
  -3  10   3    7.31    1.05
  -3  10   3    5.26    0.94
   2 -10  -3    9.01    1.27
   2 -10  -3    5.66    0.80
  -2  10   3    8.04    1.06
  -2  10   3    5.57    0.92
   1 -10  -3    8.51    0.89
   1 -10  -3    8.62    1.14
   1 -10  -3   10.29    1.44
  -1  10   3    7.14    1.00
  -1  10   3    9.90    1.16
   0 -10  -3    2.31    0.38
   0 -10  -3    2.46    0.72
   0 -10  -3    2.87    0.67
   0 -10  -3    2.85    0.43
   0  10   3    2.06    0.56
   0  10   3    3.16    0.69
  -1 -10  -3    1.26    0.63
  -1 -10  -3    3.76    0.76
   1  10   3    2.52    0.58
   1  10   3    3.82    0.73
  -2 -10  -3    0.12    0.32
  -2 -10  -3    0.70    0.54
   2  10   3    0.26    0.51
   2  10   3    0.44    0.31
  -3 -10  -3   -0.24    0.23
  -3 -10  -3    0.73    0.62
   3  10   3    0.02    0.21
   3  10   3    0.51    0.64
   6 -11  -3    4.62    0.98
   5 -11  -3    1.38    0.59
  -5  11   3    1.50    0.61
   4 -11  -3    0.21    0.41
  -4  11   3    0.38    0.42
   3 -11  -3    1.09    0.57
   3 -11  -3    1.62    0.56
  -3  11   3    0.98    0.53
   2 -11  -3    0.58    0.49
   2 -11  -3    0.66    0.35
  -2  11   3    0.15    0.32
  -2  11   3    0.12    0.38
   1 -11  -3    1.51    0.65
   1 -11  -3    1.37    0.40
  -1  11   3    1.14    0.52
  -1  11   3    0.82    0.45
   0 -11  -3    7.45    1.13
   0 -11  -3    6.24    1.25
   0 -11  -3    7.08    0.47
   0 -11  -3    6.48    0.45
   0  11   3    7.23    1.05
   0  11   3    6.74    1.01
  -1 -11  -3    0.82    0.63
  -1 -11  -3    0.76    0.51
   1  11   3    2.81    0.73
   1  11   3    2.01    0.81
   1  11   3    1.20    0.48
   2  11  -4    1.25    0.43
  -2 -11   4    1.80    0.79
  -2 -11   4    0.89    0.69
   1  11  -4    8.45    1.14
   1  11  -4    6.99    0.96
  -1 -11   4    7.81    1.33
   0  11  -4    0.58    0.38
   0  11  -4   -0.03    0.23
   0 -11   4    0.09    0.49
   0 -11   4    0.23    0.18
   0 -11   4    0.09    0.17
  -1  11  -4    0.59    0.39
  -1  11  -4    1.04    0.47
   1 -11   4    1.08    0.61
   1 -11   4    0.32    0.28
  -2  11  -4    0.38    0.37
  -2  11  -4   -0.02    0.33
   2 -11   4    1.27    0.73
   2 -11   4    0.41    0.31
  -3  11  -4   -0.05    0.32
   3 -11   4    0.12    0.43
   3 -11   4    0.23    0.35
   3 -11   4   -0.08    0.29
  -4  11  -4    0.98    0.52
   4 -11   4    1.51    0.57
   4 -11   4    0.77    0.56
   4 -11   4    0.75    0.64
  -5  11  -4    5.81    1.08
   5 -11   4   10.59    1.37
   4  10  -4    0.05    0.33
   4  10  -4    0.48    0.27
  -4 -10   4    0.78    0.53
  -4 -10   4   -0.03    0.51
   3  10  -4    6.82    0.88
   3  10  -4    5.68    0.87
  -3 -10   4    4.82    1.22
  -3 -10   4    7.46    1.29
   2  10  -4   10.86    1.12
   2  10  -4   10.46    1.15
   2  10  -4   12.51    1.24
  -2 -10   4   13.92    1.74
   1  10  -4    8.68    1.06
   1  10  -4    8.72    1.02
  -1 -10   4    8.47    1.33
  -1 -10   4    9.36    1.36
   0  10  -4   13.67    1.31
   0  10  -4   12.40    1.25
   0 -10   4   11.73    0.77
   0 -10   4    9.41    0.71
   0 -10   4   11.84    1.30
   0 -10   4   12.06    1.62
  -1  10  -4   19.58    1.41
  -1  10  -4   19.01    1.41
   1 -10   4   19.42    1.21
   1 -10   4   22.48    1.60
   1 -10   4   18.63    2.01
  -2  10  -4   20.69    1.45
  -2  10  -4   16.75    1.62
   2 -10   4   16.67    1.66
   2 -10   4   13.00    1.69
   2 -10   4   17.07    1.23
  -3  10  -4    7.86    1.12
   3 -10   4    6.12    1.23
   3 -10   4    6.88    0.97
   3 -10   4    6.30    1.08
  -4  10  -4    0.10    0.29
   4 -10   4   -0.12    0.30
   4 -10   4   -0.08    0.33
   4 -10   4    0.62    0.43
   4 -10   4   -0.19    0.48
  -5  10  -4    4.12    0.88
   5 -10   4    3.27    0.86
   5 -10   4    3.33    0.73
  -6  10  -4    0.84    0.46
  -6  10  -4    0.81    0.54
   6 -10   4    0.98    0.50
   6 -10   4    1.00    0.64
   5   9  -4    0.25    0.30
   5   9  -4    0.24    0.22
  -5  -9   4    0.40    0.67
  -5  -9   4   -0.63    0.38
   4   9  -4    3.16    0.65
   4   9  -4    3.26    0.52
  -4  -9   4    4.50    1.03
  -4  -9   4    3.01    0.98
   3   9  -4    9.72    0.95
   3   9  -4    9.19    1.06
  -3  -9   4   10.08    1.58
  -3  -9   4    9.78    1.38
   2   9  -4   -0.01    0.20
   2   9  -4   -0.09    0.23
   2   9  -4    0.19    0.26
  -2  -9   4    0.54    0.31
  -2  -9   4   -0.20    0.26
  -2  -9   4   -0.52    0.32
   1   9  -4    0.86    0.35
   1   9  -4    0.54    0.33
   1   9  -4    0.81    0.35
  -1  -9   4    0.77    0.48
  -1  -9   4    0.87    0.18
  -1  -9   4    0.94    0.17
  -1  -9   4    0.68    0.36
  -1  -9   4    0.85    0.46
   0   9  -4   12.39    1.21
   0   9  -4   12.33    1.23
   0  -9   4   11.90    0.81
   0  -9   4   12.80    1.43
   0  -9   4   13.77    1.62
   0  -9   4   11.81    1.25
  -1   9  -4   -0.02    0.18
  -1   9  -4   -0.05    0.23
   1  -9   4    0.55    0.27
   1  -9   4    0.45    0.33
   1  -9   4    0.50    0.43
  -2   9  -4    0.61    0.35
  -2   9  -4    0.25    0.30
   2  -9   4    0.47    0.32
   2  -9   4    0.69    0.37
   2  -9   4    0.67    0.49
   2  -9   4    0.65    0.32
  -3   9  -4    4.06    0.77
  -3   9  -4    5.24    0.86
   3  -9   4    2.34    0.65
   3  -9   4    2.75    0.80
   3  -9   4    3.65    0.71
  -4   9  -4    0.72    0.46
  -4   9  -4    0.59    0.42
   4  -9   4    1.24    0.46
   4  -9   4    0.96    0.47
  -5   9  -4    4.85    0.95
  -5   9  -4    6.68    1.03
   5  -9   4    5.87    0.97
   5  -9   4    5.16    1.01
  -6   9  -4   22.73    2.20
  -6   9  -4   24.58    1.73
   6  -9   4   26.11    1.95
   6  -9   4   24.82    1.72
  -7   9  -4    9.80    1.28
  -7   9  -4    7.51    1.34
   7  -9   4    9.60    1.31
   7  -9   4   10.66    1.50
   7   8  -4    1.12    0.24
  -7  -8   4    1.13    0.60
   6   8  -4    0.22    0.29
   6   8  -4    0.32    0.18
  -6  -8   4   -0.10    0.36
   5   8  -4    0.02    0.27
   5   8  -4    0.26    0.20
  -5  -8   4    0.11    0.16
  -5  -8   4   -0.28    0.40
  -5  -8   4    0.12    0.40
   4   8  -4   10.91    0.77
   4   8  -4   11.25    1.13
  -4  -8   4   13.09    1.57
  -4  -8   4   12.08    1.69
  -4  -8   4    9.67    0.89
   3   8  -4   23.15    1.35
   3   8  -4   19.19    1.14
  -3  -8   4   25.05    2.32
  -3  -8   4   21.81    1.24
  -3  -8   4   24.34    1.29
  -3  -8   4   20.93    1.94
   2   8  -4   32.39    1.57
   2   8  -4   29.75    1.60
   2   8  -4   29.38    1.48
  -2  -8   4   29.03    1.95
  -2  -8   4   30.60    1.60
  -2  -8   4   30.62    2.00
   1   8  -4   18.93    1.20
   1   8  -4   18.57    1.14
   1   8  -4   19.96    1.19
  -1  -8   4   18.29    0.83
  -1  -8   4   18.03    1.23
  -1  -8   4   17.35    0.82
  -1  -8   4   17.73    1.80
  -1  -8   4   19.68    1.45
   0   8  -4    3.57    0.60
   0   8  -4    2.47    0.52
   0   8  -4    2.59    0.53
   0  -8   4    2.44    0.43
   0  -8   4    2.53    0.59
   0  -8   4    2.78    0.76
   0  -8   4    2.35    0.55
   0  -8   4    3.13    0.48
  -1   8  -4    1.22    0.39
  -1   8  -4    1.69    0.47
   1  -8   4    2.24    0.66
   1  -8   4    1.80    0.52
   1  -8   4    1.74    0.40
  -2   8  -4   10.61    1.10
  -2   8  -4   10.12    1.09
   2  -8   4    7.93    1.29
   2  -8   4   10.89    1.03
   2  -8   4    9.72    1.15
  -3   8  -4   25.51    1.68
  -3   8  -4   27.28    1.60
  -3   8  -4   26.42    1.58
   3  -8   4   28.25    1.79
   3  -8   4   25.30    1.50
  -4   8  -4    2.11    0.62
  -4   8  -4    1.95    0.56
   4  -8   4    1.42    0.46
   4  -8   4    1.30    0.53
  -5   8  -4    0.63    0.35
  -5   8  -4    0.85    0.44
   5  -8   4    0.47    0.33
   5  -8   4    1.05    0.49
  -6   8  -4    1.22    0.53
  -6   8  -4    0.67    0.39
   6  -8   4    0.72    0.49
   6  -8   4    0.86    0.41
  -7   8  -4    0.70    0.42
  -7   8  -4    0.67    0.48
  -7   8  -4    1.69    0.58
   7  -8   4    1.46    0.61
   7  -8   4    1.21    0.52
  -8   8  -4    8.65    1.36
  -8   8  -4    9.78    1.22
  -8   8  -4    9.16    1.25
   8  -8   4   10.02    1.35
  -8  -7   4    0.64    0.19
  -8  -7   4    0.71    0.20
   7   7  -4    2.20    0.29
   7   7  -4    3.02    0.60
  -7  -7   4    2.75    0.36
  -7  -7   4    3.06    0.85
  -7  -7   4    2.45    0.34
   6   7  -4    6.61    0.48
   6   7  -4    8.05    0.91
  -6  -7   4    5.63    0.55
  -6  -7   4    6.34    1.15
   5   7  -4    8.74    0.92
   5   7  -4    8.03    0.56
  -5  -7   4    5.56    1.04
  -5  -7   4    6.83    0.65
  -5  -7   4    4.27    1.08
   4   7  -4   -0.04    0.14
   4   7  -4    0.17    0.23
  -4  -7   4    0.00    0.15
  -4  -7   4   -0.24    0.23
  -4  -7   4   -0.39    0.29
  -4  -7   4    0.21    0.18
   3   7  -4    0.41    0.24
   3   7  -4    0.96    0.30
   3   7  -4    0.73    0.26
  -3  -7   4    1.11    0.50
  -3  -7   4    0.93    0.28
  -3  -7   4    0.72    0.28
  -3  -7   4    0.03    0.37
   2   7  -4    0.28    0.19
   2   7  -4   -0.06    0.19
   2   7  -4   -0.07    0.14
  -2  -7   4    0.06    0.32
  -2  -7   4    0.24    0.22
  -2  -7   4    0.26    0.34
  -2  -7   4    0.28    0.21
   1   7  -4   25.03    1.32
   1   7  -4   28.26    1.39
   1   7  -4   26.58    1.40
  -1  -7   4   26.32    1.11
  -1  -7   4   29.55    1.43
  -1  -7   4   24.69    1.43
  -1  -7   4   27.95    1.67
  -1  -7   4   24.41    1.69
  -1  -7   4   25.79    1.09
   0   7  -4   20.30    1.20
   0   7  -4   21.35    1.23
   0   7  -4   23.71    1.28
   0  -7   4   23.43    1.13
   0  -7   4   21.20    1.25
   0  -7   4   19.09    1.29
   0  -7   4   22.64    1.58
   0  -7   4   21.71    1.34
  -1   7  -4    2.01    0.48
  -1   7  -4    1.17    0.40
  -1   7  -4    2.47    0.50
   1  -7   4    1.13    0.32
   1  -7   4    1.48    0.43
   1  -7   4    1.12    0.50
   1  -7   4    1.65    0.43
  -2   7  -4   35.10    1.85
  -2   7  -4   33.80    1.73
  -2   7  -4   33.22    1.72
   2  -7   4   35.29    1.67
   2  -7   4   38.16    1.98
  -3   7  -4   47.91    2.17
  -3   7  -4   44.01    2.12
  -3   7  -4   43.21    2.24
   3  -7   4   49.40    2.13
   3  -7   4   43.93    2.31
  -4   7  -4   43.87    2.27
  -4   7  -4   39.53    2.05
   4  -7   4   42.80    2.06
   4  -7   4   45.54    2.33
  -5   7  -4    2.15    0.59
  -5   7  -4    2.43    0.57
   5  -7   4    2.58    0.59
   5  -7   4    2.15    0.63
  -6   7  -4    0.79    0.37
  -6   7  -4    0.27    0.30
  -6   7  -4    0.41    0.37
   6  -7   4    1.70    0.59
   6  -7   4    0.84    0.40
  -7   7  -4    9.29    1.12
  -7   7  -4   10.40    1.20
  -7   7  -4   10.52    1.39
   7  -7   4   10.31    1.40
   7  -7   4   10.64    1.27
  -8   7  -4    3.32    0.84
  -8   7  -4    2.68    0.63
  -8   7  -4    4.27    0.80
  -8   7  -4    3.74    0.79
   8  -7   4    3.75    0.80
  -9   7  -4    4.88    0.89
  -9   7  -4    3.97    0.94
  -9   7  -4    3.81    0.80
   9  -7   4    3.26    0.79
   8   6  -4    1.56    0.48
  -8  -6   4    1.77    0.25
  -8  -6   4    1.86    0.25
   7   6  -4    3.49    0.33
   7   6  -4    2.49    0.54
  -7  -6   4    3.66    0.37
  -7  -6   4    3.70    0.38
  -7  -6   4    4.60    0.94
   6   6  -4   25.16    1.37
   6   6  -4   21.41    0.93
  -6  -6   4   22.93    0.99
  -6  -6   4   18.05    1.83
  -6  -6   4   22.98    0.98
   5   6  -4    2.26    0.46
   5   6  -4    2.38    0.32
  -5  -6   4    3.17    0.34
  -5  -6   4    2.45    0.36
  -5  -6   4    2.36    0.34
  -5  -6   4    2.66    0.68
   4   6  -4    0.39    0.22
   4   6  -4    0.21    0.15
  -4  -6   4    0.06    0.14
  -4  -6   4    0.39    0.33
  -4  -6   4    0.15    0.14
  -4  -6   4    0.42    0.38
  -4  -6   4    0.11    0.16
   3   6  -4    8.47    0.59
   3   6  -4    7.32    0.67
   3   6  -4    6.88    0.63
   3   6  -4    7.37    0.76
  -3  -6   4    7.31    0.71
  -3  -6   4    7.40    0.69
  -3  -6   4    7.54    1.13
  -3  -6   4    6.14    0.62
  -3  -6   4    8.24    1.11
   2   6  -4   18.02    0.99
   2   6  -4   18.85    0.99
   2   6  -4   19.95    1.10
  -2  -6   4   18.86    1.10
  -2  -6   4   20.13    1.42
  -2  -6   4   18.68    1.01
  -2  -6   4   17.87    1.00
  -2  -6   4   18.47    1.36
   1   6  -4   29.27    1.37
   1   6  -4   28.23    1.35
   1   6  -4   30.03    1.41
  -1  -6   4   29.51    1.39
  -1  -6   4   30.16    1.79
  -1  -6   4   29.33    1.51
  -1  -6   4   29.15    1.17
  -1  -6   4   29.22    1.64
  -1  -6   4   28.37    1.17
   0   6  -4   43.59    1.88
   0   6  -4   47.83    2.02
   0   6  -4   44.59    1.90
   0   6  -4   47.21    1.92
   0  -6   4   43.37    2.07
   0  -6   4   47.73    2.07
   0  -6   4   48.35    2.36
   0  -6   4   45.41    1.75
   0  -6   4   45.22    1.93
   0  -6   4   46.84    1.81
  -1   6  -4   53.48    2.11
  -1   6  -4   54.56    2.28
  -1   6  -4   48.09    2.10
  -1   6  -4   51.30    2.13
   1  -6   4   54.33    2.38
   1  -6   4   51.29    2.03
   1  -6   4   50.14    2.15
   1  -6   4   51.65    2.59
  -2   6  -4    2.19    0.47
  -2   6  -4    2.33    0.51
  -2   6  -4    1.40    0.36
   2  -6   4    1.15    0.34
   2  -6   4    1.52    0.46
  -3   6  -4    2.55    0.53
  -3   6  -4    3.43    0.59
  -3   6  -4    3.93    0.67
   3  -6   4    1.90    0.52
   3  -6   4    2.31    0.46
  -4   6  -4    3.69    0.69
  -4   6  -4    3.98    0.68
  -4   6  -4    4.46    0.69
   4  -6   4    3.66    0.69
   4  -6   4    3.61    0.62
  -5   6  -4    0.05    0.23
  -5   6  -4   -0.10    0.19
  -5   6  -4   -0.10    0.21
   5  -6   4   -0.12    0.21
   5  -6   4    0.15    0.21
  -6   6  -4    7.77    0.99
  -6   6  -4    6.87    0.90
  -6   6  -4    7.04    1.03
  -6   6  -4    7.60    0.98
   6  -6   4    3.79    0.81
   6  -6   4    7.52    0.98
   6  -6   4    7.05    1.04
  -7   6  -4   10.31    1.16
  -7   6  -4   11.14    1.19
  -7   6  -4   10.84    1.15
  -7   6  -4   10.56    1.30
   7  -6   4   12.37    1.30
   7  -6   4    6.31    0.98
  -8   6  -4   12.91    1.53
  -8   6  -4   15.05    1.44
  -8   6  -4   14.29    1.41
   8  -6   4    9.61    1.28
   8  -6   4   11.84    1.36
  -9   6  -4   28.29    2.04
  -9   6  -4   29.53    1.73
  -9   6  -4   27.03    1.66
   9  -6   4   27.50    1.84
   9  -6   4   19.04    1.94
   9   5  -4   10.19    1.10
  -9  -5   4    9.85    0.53
  -9  -5   4    9.95    0.53
   8   5  -4   17.32    1.18
   8   5  -4   16.27    0.65
   8   5  -4   16.68    0.64
  -8  -5   4   17.45    0.73
  -8  -5   4   15.45    0.72
   7   5  -4    6.60    0.40
   7   5  -4    6.29    0.80
   7   5  -4    6.56    0.40
  -7  -5   4    8.41    1.20
  -7  -5   4    7.12    0.43
  -7  -5   4    7.41    0.45
   6   5  -4    0.06    0.09
   6   5  -4   -0.08    0.15
   6   5  -4   -0.11    0.09
  -6  -5   4    0.15    0.10
  -6  -5   4    0.11    0.32
  -6  -5   4    0.22    0.12
   5   5  -4    3.45    0.37
   5   5  -4    2.87    0.34
   5   5  -4    4.27    0.61
  -5  -5   4    3.42    0.34
  -5  -5   4    3.39    0.71
  -5  -5   4    3.01    0.36
  -5  -5   4    2.99    0.35
   4   5  -4    7.81    0.77
   4   5  -4    6.78    0.48
   4   5  -4    8.52    0.53
  -4  -5   4    7.55    0.53
  -4  -5   4    7.65    0.51
  -4  -5   4    7.01    0.97
  -4  -5   4    8.53    0.54
   3   5  -4    2.75    0.36
   3   5  -4    3.61    0.42
   3   5  -4    2.51    0.37
   3   5  -4    2.51    0.44
  -3  -5   4    3.40    0.41
  -3  -5   4    2.96    0.67
  -3  -5   4    3.31    0.69
  -3  -5   4    2.50    0.36
  -3  -5   4    2.65    0.42
   2   5  -4   20.18    0.95
   2   5  -4   19.93    0.95
   2   5  -4   20.46    0.95
   2   5  -4   19.22    1.02
   2   5  -4   17.70    0.92
  -2  -5   4   19.52    1.32
  -2  -5   4   17.19    1.02
  -2  -5   4   19.69    1.33
  -2  -5   4   18.05    0.63
  -2  -5   4   18.12    0.64
  -2  -5   4   18.51    0.94
  -2  -5   4   17.91    0.93
   1   5  -4   29.39    1.31
   1   5  -4   27.10    1.24
   1   5  -4   28.69    1.32
   1   5  -4   30.55    1.30
  -1  -5   4   27.60    1.27
  -1  -5   4   29.02    1.30
  -1  -5   4   27.05    1.51
  -1  -5   4   28.08    1.15
  -1  -5   4   29.91    1.45
  -1  -5   4   25.37    1.59
  -1  -5   4   27.95    1.09
   0   5  -4  154.30    5.03
   0   5  -4  166.79    4.98
   0   5  -4  160.96    5.27
   0   5  -4  161.98    5.05
   0  -5   4  157.06    5.41
   0  -5   4  161.71    4.91
   0  -5   4  152.15    4.93
   0  -5   4  158.98    5.04
   0  -5   4  166.02    5.06
   0  -5   4  166.49    5.56
  -1   5  -4   55.25    2.22
  -1   5  -4   61.90    2.39
  -1   5  -4   55.65    2.16
  -1   5  -4   57.18    2.24
   1  -5   4   61.83    2.50
   1  -5   4   58.32    2.16
   1  -5   4   57.79    2.26
  -2   5  -4    8.69    0.90
  -2   5  -4    8.07    0.80
  -2   5  -4   10.06    0.96
  -2   5  -4    8.55    0.84
   2  -5   4   10.40    0.92
   2  -5   4    8.09    0.85
   2  -5   4    8.59    0.82
   2  -5   4    9.36    0.97
   2  -5   4   10.00    0.75
  -3   5  -4   16.10    1.06
  -3   5  -4   17.23    1.06
  -3   5  -4   14.67    0.99
  -3   5  -4   15.16    1.08
   3  -5   4   16.56    1.04
   3  -5   4   14.32    1.11
   3  -5   4   15.94    1.01
   3  -5   4   18.96    1.09
  -4   5  -4   35.83    1.76
  -4   5  -4   39.98    1.94
  -4   5  -4   36.34    1.79
  -4   5  -4   37.69    1.92
   4  -5   4   40.50    1.84
   4  -5   4   39.98    2.03
   4  -5   4   37.36    1.78
  -5   5  -4   24.96    1.68
  -5   5  -4   31.35    1.65
  -5   5  -4   33.48    1.77
  -5   5  -4   33.23    1.65
   5  -5   4   34.87    1.88
   5  -5   4   30.58    1.64
   5  -5   4   33.00    1.68
  -6   5  -4    3.23    0.60
  -6   5  -4    3.91    0.72
  -6   5  -4    3.83    0.67
  -6   5  -4    3.60    0.64
   6  -5   4    3.76    0.75
   6  -5   4    3.66    0.68
   6  -5   4    3.70    0.65
  -7   5  -4    0.11    0.22
  -7   5  -4    0.41    0.27
  -7   5  -4    0.29    0.29
  -7   5  -4    0.29    0.31
   7  -5   4    0.54    0.34
   7  -5   4    0.93    0.39
  -8   5  -4    0.19    0.34
  -8   5  -4    0.10    0.24
  -8   5  -4    0.25    0.29
   8  -5   4    0.49    0.37
   8  -5   4    0.56    0.41
  -9   5  -4    0.97    0.36
  -9   5  -4    1.01    0.39
  -9   5  -4    1.76    0.62
   9  -5   4    1.34    0.53
   9  -5   4    1.08    0.51
 -10   5  -4    1.05    0.52
 -10   5  -4   -0.02    0.16
 -10   5  -4   -0.20    0.24
  10  -5   4    0.64    0.38
  10  -5   4   -0.12    0.32
  10   4  -4    1.27    0.21
 -10  -4   4    1.03    0.25
   9   4  -4    4.48    0.39
   9   4  -4    5.57    0.81
  -9  -4   4    4.95    0.47
  -9  -4   4    5.31    0.49
   8   4  -4    9.16    0.97
   8   4  -4    9.35    0.49
  -8  -4   4    8.27    0.51
  -8  -4   4    9.10    0.53
   7   4  -4    3.70    0.59
   7   4  -4    3.97    0.35
   7   4  -4    3.39    0.33
  -7  -4   4    3.69    0.35
  -7  -4   4    2.81    0.32
  -7  -4   4    3.35    0.76
   6   4  -4    4.55    0.34
   6   4  -4    4.55    0.63
   6   4  -4    4.82    0.35
  -6  -4   4    4.60    0.41
  -6  -4   4    3.40    0.75
  -6  -4   4    4.68    0.34
   5   4  -4   10.46    0.54
   5   4  -4   10.66    0.76
   5   4  -4    9.85    0.53
  -5  -4   4    9.86    0.53
  -5  -4   4   10.54    0.55
  -5  -4   4    8.73    1.08
  -5  -4   4   10.53    0.57
   4   4  -4    8.52    0.50
   4   4  -4    8.11    0.48
   4   4  -4    8.19    0.75
   4   4  -4    8.04    0.49
  -4  -4   4    8.91    1.03
  -4  -4   4    8.20    0.50
  -4  -4   4    8.53    0.56
  -4  -4   4    6.98    0.46
   3   4  -4    1.58    0.26
   3   4  -4    2.01    0.37
   3   4  -4    1.80    0.28
   3   4  -4    1.31    0.25
  -3  -4   4    1.82    0.34
  -3  -4   4    1.52    0.27
  -3  -4   4    1.57    0.48
  -3  -4   4    1.80    0.28
   2   4  -4   51.01    1.89
   2   4  -4   55.47    1.96
   2   4  -4   56.59    1.91
   2   4  -4   53.04    1.98
   2   4  -4   57.06    1.93
  -2  -4   4   50.07    2.07
  -2  -4   4   52.19    2.35
  -2  -4   4   55.25    1.93
  -2  -4   4   56.35    1.93
  -2  -4   4   52.25    1.68
   1   4  -4    8.37    0.59
   1   4  -4    8.97    0.58
   1   4  -4    7.88    0.57
   1   4  -4    8.49    0.58
   1   4  -4    9.18    0.66
   1   4  -4    8.66    0.57
  -1  -4   4    8.45    0.97
  -1  -4   4    7.84    0.56
  -1  -4   4    7.99    0.57
  -1  -4   4    8.60    0.52
  -1  -4   4    9.48    0.51
  -1  -4   4    7.25    0.75
   0   4  -4    9.96    0.67
   0   4  -4    8.00    0.59
   0   4  -4    9.18    0.61
   0   4  -4    8.52    0.62
   0  -4   4    9.07    0.64
   0  -4   4    9.07    0.86
   0  -4   4    9.72    0.61
   0  -4   4    9.27    0.58
   0  -4   4    9.77    0.61
   0  -4   4    8.53    1.02
  -1   4  -4    1.60    0.35
  -1   4  -4    1.78    0.33
  -1   4  -4    1.74    0.34
  -1   4  -4    1.58    0.33
   1  -4   4    1.77    0.34
   1  -4   4    2.15    0.36
   1  -4   4    1.82    0.38
   1  -4   4    1.97    0.42
   1  -4   4    2.27    0.39
  -2   4  -4   14.55    0.90
  -2   4  -4   14.95    0.89
  -2   4  -4   13.35    0.87
  -2   4  -4   15.12    0.96
  -2   4  -4   16.35    0.95
   2  -4   4   15.49    0.91
   2  -4   4   14.25    0.89
   2  -4   4   15.34    0.89
   2  -4   4   14.35    0.90
   2  -4   4   16.90    1.09
  -3   4  -4   13.58    0.90
  -3   4  -4   14.02    0.93
  -3   4  -4   14.21    0.99
  -3   4  -4   14.17    0.91
  -3   4  -4   14.78    0.93
   3  -4   4   16.31    0.97
   3  -4   4   17.28    1.12
   3  -4   4   13.07    0.88
   3  -4   4   15.86    0.97
  -4   4  -4   26.66    1.36
  -4   4  -4   21.26    1.37
  -4   4  -4   24.91    1.31
  -4   4  -4   24.67    1.32
  -4   4  -4   26.64    1.36
   4  -4   4   24.55    1.32
   4  -4   4   27.95    1.54
   4  -4   4   24.77    1.34
  -5   4  -4   13.85    0.95
  -5   4  -4   14.33    1.02
  -5   4  -4   14.12    1.00
  -5   4  -4   14.44    0.99
  -5   4  -4   14.45    1.11
   5  -4   4   12.02    1.22
   5  -4   4   13.90    0.98
   5  -4   4   13.11    0.98
  -6   4  -4    3.03    0.54
  -6   4  -4    3.14    0.58
  -6   4  -4    4.77    0.67
  -6   4  -4    5.33    0.73
  -6   4  -4    3.99    0.71
   6  -4   4    3.59    0.60
   6  -4   4    3.90    0.71
   6  -4   4    3.74    0.62
  -7   4  -4   11.10    1.13
  -7   4  -4    9.61    0.97
  -7   4  -4    7.52    0.88
  -7   4  -4    8.98    1.12
  -7   4  -4   10.79    0.86
   7  -4   4   10.05    1.06
   7  -4   4   12.77    1.23
  -8   4  -4   10.86    1.31
  -8   4  -4   13.33    0.93
  -8   4  -4   12.55    1.32
  -8   4  -4   13.65    0.99
   8  -4   4   12.90    1.30
   8  -4   4   11.37    1.23
  -9   4  -4    4.77    0.92
  -9   4  -4    4.38    0.82
  -9   4  -4    4.68    0.58
  -9   4  -4    4.53    0.65
   9  -4   4    4.71    0.80
   9  -4   4    4.46    0.83
 -10   4  -4    6.65    1.12
 -10   4  -4    8.47    0.78
 -10   4  -4   11.74    1.41
  10  -4   4   11.66    1.41
  10  -4   4    7.53    1.12
  10   3  -4    2.61    0.37
 -10  -3   4    2.17    0.39
   9   3  -4    0.26    0.15
  -9  -3   4    0.36    0.20
   8   3  -4    1.41    0.26
  -8  -3   4    0.74    0.21
  -8  -3   4    1.02    0.24
   7   3  -4    1.53    0.24
   7   3  -4    1.21    0.22
  -7  -3   4    1.17    0.46
  -7  -3   4    1.02    0.21
  -7  -3   4    1.12    0.22
   6   3  -4    1.11    0.20
   6   3  -4    0.81    0.18
   6   3  -4    0.54    0.15
  -6  -3   4    0.74    0.19
  -6  -3   4    0.66    0.17
  -6  -3   4    0.81    0.18
  -6  -3   4    1.19    0.43
   5   3  -4   33.54    1.22
   5   3  -4   32.98    1.23
  -5  -3   4   32.28    1.20
  -5  -3   4   34.41    1.35
  -5  -3   4   34.30    1.23
  -5  -3   4   34.35    1.79
   4   3  -4    7.06    0.42
   4   3  -4    7.06    0.43
   4   3  -4    5.54    0.40
  -4  -3   4    6.26    0.41
  -4  -3   4    7.58    0.53
  -4  -3   4    8.77    0.97
  -4  -3   4    7.23    0.44
   3   3  -4    0.47    0.15
   3   3  -4    0.40    0.14
   3   3  -4    0.75    0.22
   3   3  -4    0.29    0.12
   3   3  -4    0.96    0.19
  -3  -3   4    0.43    0.14
  -3  -3   4    0.23    0.23
  -3  -3   4    0.39    0.19
  -3  -3   4    0.15    0.11
   2   3  -4   42.86    1.53
   2   3  -4   45.33    1.56
   2   3  -4   42.66    1.59
   2   3  -4   41.03    1.52
   2   3  -4   40.71    1.56
  -2  -3   4   41.67    1.53
  -2  -3   4   42.09    1.73
  -2  -3   4   40.19    1.89
  -2  -3   4   41.84    1.52
  -2  -3   4   41.30    1.39
   1   3  -4   34.28    1.35
   1   3  -4   31.13    1.26
   1   3  -4   30.12    1.25
   1   3  -4   31.11    1.26
  -1  -3   4   34.24    1.48
  -1  -3   4   33.14    1.59
  -1  -3   4   30.76    1.21
  -1  -3   4   32.73    1.23
  -1  -3   4   30.47    1.26
  -1  -3   4   32.31    1.28
  -1  -3   4   31.07    1.18
   0   3  -4   39.11    1.56
   0   3  -4   35.66    1.46
   0   3  -4   36.17    1.41
   0   3  -4   36.57    1.47
   0   3  -4   36.78    1.47
   0  -3   4   40.00    1.47
   0  -3   4   39.73    1.50
   0  -3   4   37.50    1.68
   0  -3   4   38.25    1.44
  -1   3  -4   94.45    3.00
  -1   3  -4   94.47    3.15
  -1   3  -4   91.27    3.13
  -1   3  -4   93.61    3.12
  -1   3  -4   96.53    3.10
  -1   3  -4   90.52    3.25
   1  -3   4   93.45    3.10
   1  -3   4   97.44    3.15
   1  -3   4   93.43    3.10
   1  -3   4   97.48    3.14
   1  -3   4   96.26    3.43
  -2   3  -4  147.61    4.77
  -2   3  -4  144.21    4.72
  -2   3  -4  153.79    4.98
  -2   3  -4  158.15    4.78
  -2   3  -4  152.47    4.72
   2  -3   4  153.02    4.75
   2  -3   4  147.73    5.09
   2  -3   4  152.09    4.76
   2  -3   4  150.97    4.74
   2  -3   4  149.75    4.74
  -3   3  -4   28.85    1.36
  -3   3  -4   30.63    1.38
  -3   3  -4   29.35    1.46
  -3   3  -4   29.85    1.38
  -3   3  -4   28.77    1.35
   3  -3   4   27.39    1.35
   3  -3   4   32.10    1.42
   3  -3   4   30.42    1.56
   3  -3   4   26.92    1.35
   3  -3   4   30.62    1.40
  -4   3  -4   40.86    1.76
  -4   3  -4   39.16    1.75
  -4   3  -4   40.74    1.73
  -4   3  -4   38.58    1.85
  -4   3  -4   42.66    1.80
   4  -3   4   41.94    1.80
   4  -3   4   43.22    1.81
   4  -3   4   40.54    1.96
  -5   3  -4    6.76    0.78
  -5   3  -4    6.64    0.83
  -5   3  -4    5.15    0.62
  -5   3  -4    5.65    0.67
  -5   3  -4    5.32    0.65
   5  -3   4    5.36    0.67
   5  -3   4    5.94    0.71
   5  -3   4    6.57    0.85
  -6   3  -4    0.79    0.28
  -6   3  -4    0.87    0.32
  -6   3  -4    1.20    0.33
  -6   3  -4    0.58    0.30
  -6   3  -4    1.30    0.36
   6  -3   4    1.38    0.38
   6  -3   4    0.77    0.32
  -7   3  -4    2.01    0.50
  -7   3  -4    1.86    0.42
  -7   3  -4    1.33    0.32
  -7   3  -4    1.41    0.43
   7  -3   4    1.68    0.43
   7  -3   4    1.29    0.42
  -8   3  -4    0.81    0.40
  -8   3  -4    1.83    0.41
  -8   3  -4    0.76    0.25
  -8   3  -4    1.10    0.42
   8  -3   4    1.56    0.47
   8  -3   4    1.52    0.43
  -9   3  -4    1.48    0.55
  -9   3  -4    1.67    0.34
  -9   3  -4    3.27    0.72
  -9   3  -4    1.52    0.33
   9  -3   4    2.54    0.63
   9  -3   4    1.42    0.48
 -10   3  -4   12.72    1.51
 -10   3  -4   11.43    1.31
  10  -3   4   11.65    1.36
  10  -3   4   10.56    1.24
  10   2  -4    3.34    0.48
 -10  -2   4    3.54    0.52
   9   2  -4    0.03    0.13
  -9  -2   4    0.35    0.22
   8   2  -4   12.97    0.75
  -8  -2   4   13.70    0.78
  -8  -2   4   13.15    0.76
   7   2  -4   44.61    1.63
  -7  -2   4   44.51    1.62
  -7  -2   4   44.94    1.74
  -7  -2   4   43.18    1.62
   6   2  -4   83.26    2.72
   6   2  -4   83.93    2.74
  -6  -2   4   85.62    2.71
  -6  -2   4   89.71    3.40
  -6  -2   4   87.50    2.96
  -6  -2   4   85.32    2.72
   5   2  -4   44.11    1.52
   5   2  -4   44.71    1.54
   5   2  -4   43.12    1.50
  -5  -2   4   43.75    1.52
  -5  -2   4   40.77    1.49
  -5  -2   4   42.72    1.99
  -5  -2   4   41.49    1.69
   4   2  -4   71.27    2.30
   4   2  -4   73.43    2.30
   4   2  -4   71.19    2.27
   4   2  -4   73.09    2.31
  -4  -2   4   69.73    2.73
  -4  -2   4   71.86    2.29
  -4  -2   4   69.30    2.52
  -4  -2   4   70.23    2.27
   3   2  -4    5.46    0.38
   3   2  -4    5.18    0.38
   3   2  -4    4.97    0.45
  -3  -2   4    5.88    0.40
  -3  -2   4    6.17    0.61
  -3  -2   4    4.94    0.23
  -3  -2   4    5.46    0.68
  -3  -2   4    5.20    0.37
   2   2  -4    4.98    0.44
   2   2  -4    4.08    0.39
   2   2  -4    4.61    0.43
   2   2  -4    4.98    0.48
  -2  -2   4    5.23    0.31
  -2  -2   4    5.08    0.67
  -2  -2   4    4.17    0.32
  -2  -2   4    3.54    0.48
  -2  -2   4    3.94    0.40
  -2  -2   4    4.44    0.31
  -2  -2   4    4.45    0.42
   1   2  -4    0.93    0.22
   1   2  -4    1.52    0.27
   1   2  -4    1.71    0.27
  -1  -2   4    0.89    0.21
  -1  -2   4    1.35    0.26
  -1  -2   4    1.34    0.24
  -1  -2   4    1.40    0.38
  -1  -2   4    1.51    0.26
  -1  -2   4    0.98    0.22
  -1  -2   4    1.29    0.31
   0   2  -4    0.04    0.09
   0   2  -4   -0.06    0.10
   0   2  -4    0.09    0.10
   0   2  -4    0.16    0.15
   0  -2   4    0.28    0.22
   0  -2   4    0.12    0.11
   0  -2   4   -0.01    0.09
   0  -2   4    0.15    0.13
   0  -2   4    0.15    0.13
   0  -2   4    0.16    0.18
  -1   2  -4  172.41    5.19
  -1   2  -4  181.10    5.69
  -1   2  -4  179.41    5.40
  -1   2  -4  169.86    5.43
  -1   2  -4  175.59    5.44
  -1   2  -4  181.65    5.47
  -1   2  -4  189.64    5.49
   1  -2   4  181.64    5.43
   1  -2   4  192.70    5.48
   1  -2   4  175.89    5.84
   1  -2   4  177.04    5.42
   1  -2   4  180.90    5.89
   1  -2   4  189.41    5.47
  -2   2  -4   62.19    2.26
  -2   2  -4   65.81    2.42
  -2   2  -4   62.01    2.27
  -2   2  -4   66.60    2.32
  -2   2  -4   63.53    2.26
   2  -2   4   64.17    2.28
   2  -2   4   66.96    2.32
   2  -2   4   66.12    2.30
   2  -2   4   64.49    2.28
   2  -2   4   62.99    2.64
   2  -2   4   62.38    2.52
  -3   2  -4   27.95    1.24
  -3   2  -4   27.99    1.26
  -3   2  -4   27.22    0.96
  -3   2  -4   26.33    1.31
  -3   2  -4   27.63    1.25
  -3   2  -4   27.76    1.26
   3  -2   4   26.76    1.25
   3  -2   4   26.36    1.23
   3  -2   4   24.76    1.51
   3  -2   4   25.36    1.38
  -4   2  -4   84.76    2.89
  -4   2  -4   82.71    3.11
  -4   2  -4   85.63    2.97
  -4   2  -4   80.53    2.90
  -4   2  -4   83.97    2.64
  -4   2  -4   82.88    2.90
   4  -2   4   88.06    3.48
   4  -2   4   86.48    2.99
   4  -2   4   79.93    2.92
   4  -2   4   86.08    3.24
  -5   2  -4   75.74    2.70
  -5   2  -4   74.77    2.92
  -5   2  -4   77.87    2.98
  -5   2  -4   76.27    2.67
  -5   2  -4   76.78    2.73
  -5   2  -4   78.74    2.85
   5  -2   4   70.44    2.99
   5  -2   4   80.10    2.84
   5  -2   4   78.77    2.84
  -6   2  -4   20.20    1.08
  -6   2  -4   20.54    1.06
  -6   2  -4   20.45    1.08
  -6   2  -4   20.07    1.20
  -6   2  -4   20.67    1.29
   6  -2   4   18.32    1.16
   6  -2   4   22.62    1.24
  -7   2  -4    0.40    0.20
  -7   2  -4    0.49    0.19
  -7   2  -4    0.26    0.18
  -7   2  -4    0.50    0.29
  -7   2  -4    0.61    0.32
   7  -2   4    0.71    0.33
   7  -2   4    0.52    0.29
  -8   2  -4    5.53    0.84
  -8   2  -4    5.60    0.82
  -8   2  -4    5.80    0.54
  -8   2  -4    5.45    0.54
   8  -2   4    5.78    0.82
   8  -2   4    6.25    0.85
  -9   2  -4    8.71    1.08
  -9   2  -4    6.14    0.96
   9  -2   4    7.61    1.01
   9  -2   4    7.82    0.99
 -10   2  -4    0.57    0.44
 -10   2  -4    0.92    0.51
  10  -2   4    1.24    0.44
  10  -2   4    0.90    0.41
  11   1  -4    0.16    0.23
 -11  -1   4    0.04    0.22
  10   1  -4    0.15    0.20
 -10  -1   4   -0.19    0.19
   9   1  -4    0.68    0.24
  -9  -1   4    0.61    0.26
  -9  -1   4    0.26    0.26
   8   1  -4    2.12    0.37
  -8  -1   4    2.27    0.45
  -8  -1   4    2.05    0.38
   7   1  -4    5.45    0.54
  -7  -1   4    4.65    0.59
  -7  -1   4    5.03    0.54
  -7  -1   4    3.92    0.48
   6   1  -4    0.62    0.19
   6   1  -4    1.23    0.26
   6   1  -4    1.04    0.23
  -6  -1   4    0.35    0.21
  -6  -1   4    0.75    0.32
  -6  -1   4    0.82    0.22
  -6  -1   4    0.65    0.20
   5   1  -4   28.86    1.12
   5   1  -4   28.42    1.11
   5   1  -4   25.91    1.11
  -5  -1   4   26.54    1.28
  -5  -1   4   28.19    1.13
  -5  -1   4   26.01    1.09
  -5  -1   4   26.09    1.39
   4   1  -4   31.27    1.24
   4   1  -4   33.97    1.24
   4   1  -4   33.65    1.24
  -4  -1   4   32.79    1.25
  -4  -1   4   32.70    1.51
  -4  -1   4   33.11    1.44
  -4  -1   4   31.07    1.22
   3   1  -4    2.40    0.31
   3   1  -4    1.75    0.27
   3   1  -4    2.02    0.29
   3   1  -4    1.92    0.28
  -3  -1   4    2.53    0.26
  -3  -1   4    1.77    0.34
  -3  -1   4    1.81    0.22
  -3  -1   4    1.81    0.26
  -3  -1   4    1.76    0.26
  -3  -1   4    1.95    0.38
  -3  -1   4    2.51    0.22
   2   1  -4   12.30    0.64
   2   1  -4   12.08    0.63
  -2  -1   4   11.63    0.59
  -2  -1   4   12.76    0.65
  -2  -1   4   11.70    0.77
  -2  -1   4   12.20    0.57
  -2  -1   4   12.19    0.66
  -2  -1   4   12.20    0.78
  -2  -1   4   11.62    0.60
  -2  -1   4   13.25    0.64
   1   1  -4   85.43    2.74
   1   1  -4   83.99    2.61
   1   1  -4   89.49    2.76
  -1  -1   4   81.53    2.70
  -1  -1   4   88.60    3.05
  -1  -1   4   85.65    2.94
  -1  -1   4   88.14    2.94
  -1  -1   4   82.26    2.72
  -1  -1   4   87.63    2.74
  -1  -1   4   83.89    2.68
   0   1  -4  159.28    4.63
   0   1  -4  161.03    4.82
   0   1  -4  165.59    4.89
   0   1  -4  166.93    4.91
   0  -1   4  157.16    4.84
   0  -1   4  158.01    5.23
   0  -1   4  161.69    4.88
   0  -1   4  166.56    4.87
   0  -1   4  165.19    4.88
   0  -1   4  162.93    5.29
  -1   1  -4   26.75    1.11
  -1   1  -4   27.15    1.14
  -1   1  -4   25.45    1.10
  -1   1  -4   24.98    0.94
  -1   1  -4   24.38    1.08
   1  -1   4   26.86    1.12
   1  -1   4   25.19    1.09
   1  -1   4   25.89    1.36
   1  -1   4   26.03    1.12
   1  -1   4   25.96    1.30
   1  -1   4   26.78    1.12
  -2   1  -4   42.65    1.75
  -2   1  -4   46.39    1.69
  -2   1  -4   43.09    1.65
  -2   1  -4   44.05    1.68
  -2   1  -4   44.06    1.68
   2  -1   4   44.16    1.67
   2  -1   4   44.76    1.69
   2  -1   4   44.45    1.90
   2  -1   4   43.33    2.01
  -3   1  -4   41.21    1.80
  -3   1  -4   44.53    1.70
  -3   1  -4   46.37    1.71
  -3   1  -4   44.20    1.73
  -3   1  -4   45.93    1.61
  -3   1  -4   45.87    1.76
   3  -1   4   46.87    1.75
   3  -1   4   44.18    1.95
   3  -1   4   47.40    2.16
   3  -1   4   44.91    1.75
  -4   1  -4    0.61    0.20
  -4   1  -4    0.76    0.26
  -4   1  -4    0.75    0.26
  -4   1  -4    0.31    0.18
  -4   1  -4    0.71    0.21
  -4   1  -4    0.49    0.22
  -4   1  -4    0.74    0.24
   4  -1   4    0.62    0.22
   4  -1   4    1.03    0.33
   4  -1   4    0.65    0.23
   4  -1   4    0.34    0.32
  -5   1  -4    3.22    0.47
  -5   1  -4    2.86    0.39
  -5   1  -4    2.67    0.46
  -5   1  -4    2.50    0.44
  -5   1  -4    2.94    0.40
  -5   1  -4    3.17    0.41
  -5   1  -4    2.82    0.41
   5  -1   4    2.14    0.47
   5  -1   4    2.86    0.46
   5  -1   4    2.94    0.67
   5  -1   4    2.96    0.47
  -6   1  -4    0.32    0.17
  -6   1  -4    0.33    0.21
  -6   1  -4    0.39    0.15
  -6   1  -4    0.31    0.23
  -6   1  -4    0.36    0.16
   6  -1   4    0.32    0.21
   6  -1   4    0.35    0.36
   6  -1   4    0.51    0.28
  -7   1  -4    0.36    0.27
  -7   1  -4    0.22    0.14
  -7   1  -4    0.49    0.28
  -7   1  -4    0.45    0.15
   7  -1   4    0.67    0.29
   7  -1   4    0.79    0.32
  -8   1  -4    6.31    0.84
  -8   1  -4    6.44    0.88
   8  -1   4    7.26    0.89
   8  -1   4    5.59    0.75
  -9   1  -4   10.28    1.17
  -9   1  -4   12.14    1.22
   9  -1   4   11.06    1.18
   9  -1   4   10.36    1.11
 -10   1  -4    6.73    0.95
 -10   1  -4    6.12    0.97
  10  -1   4    5.71    0.84
  11   0  -4    1.12    0.39
 -11   0   4    0.89    0.36
  10   0  -4   14.66    1.02
 -10   0   4   17.12    1.22
 -10   0   4   18.54    1.16
   9   0  -4   13.08    0.89
  -9   0   4   13.54    1.04
  -9   0   4   13.07    0.92
   8   0  -4    1.41    0.34
  -8   0   4    1.82    0.37
  -8   0   4    1.42    0.43
   7   0  -4   13.56    0.82
   7   0  -4   12.85    0.80
  -7   0   4   14.16    0.85
  -7   0   4   14.01    0.84
  -7   0   4   14.35    0.99
   6   0  -4   21.89    1.04
   6   0  -4   21.83    1.05
  -6   0   4   22.83    1.07
  -6   0   4   21.65    1.22
  -6   0   4   21.53    1.05
   5   0  -4   13.35    0.72
   5   0  -4   11.23    0.69
   5   0  -4   11.50    0.69
  -5   0   4   12.54    0.52
  -5   0   4   13.17    0.86
  -5   0   4   13.75    0.73
  -5   0   4   11.63    0.83
  -5   0   4   12.96    0.52
  -5   0   4   12.30    0.71
   4   0  -4    3.05    0.38
   4   0  -4    4.40    0.46
   4   0  -4    3.64    0.42
  -4   0   4    3.73    0.26
  -4   0   4    4.08    0.30
  -4   0   4    4.68    0.46
  -4   0   4    4.38    0.57
  -4   0   4    3.88    0.43
  -4   0   4    3.58    0.49
  -4   0   4    3.85    0.26
   3   0  -4    6.26    0.55
   3   0  -4    6.13    0.45
  -3   0   4    5.94    0.39
  -3   0   4    6.20    0.64
  -3   0   4    6.08    0.44
  -3   0   4    5.34    0.56
  -3   0   4    6.76    0.43
  -3   0   4    7.68    0.49
  -3   0   4    6.33    0.42
  -3   0   4    6.69    0.44
   2   0  -4   37.77    1.43
   2   0  -4   41.15    1.45
   2   0  -4   37.57    1.43
  -2   0   4   37.93    1.50
  -2   0   4   38.48    1.40
  -2   0   4   38.65    1.64
  -2   0   4   38.62    1.43
  -2   0   4   37.13    1.47
  -2   0   4   39.03    1.39
  -2   0   4   37.66    1.40
   1   0  -4  102.16    3.20
   1   0  -4  103.22    3.21
   1   0  -4   98.78    3.15
  -1   0   4   99.82    3.41
  -1   0   4  101.15    3.18
  -1   0   4  101.81    3.15
  -1   0   4  104.12    3.19
  -1   0   4  101.23    3.17
  -1   0   4  100.10    3.50
   0   0  -4   10.49    0.60
   0   0  -4    9.78    0.59
   0   0  -4   10.94    0.62
   0   0  -4   10.47    0.47
   0   0  -4   11.00    0.61
   0   0   4    9.68    0.57
   0   0   4   10.71    0.60
   0   0   4   10.57    0.74
   0   0   4   10.60    0.61
   0   0   4    9.98    0.74
   0   0   4   10.40    0.60
  -1   0  -4   86.72    2.88
  -1   0  -4   90.66    2.87
  -1   0  -4   89.43    2.89
  -1   0  -4   87.17    2.89
  -1   0  -4   89.80    2.58
   1   0   4   97.61    3.28
   1   0   4   89.04    2.88
   1   0   4   84.74    2.87
   1   0   4   88.74    2.89
   1   0   4   95.48    3.34
  -2   0  -4   86.93    2.95
  -2   0  -4   91.11    2.98
  -2   0  -4   98.61    3.02
  -2   0  -4   93.12    3.00
   2   0   4   94.88    3.50
   2   0   4   89.56    3.30
   2   0   4   92.44    3.01
   2   0   4   93.54    3.00
  -3   0  -4   36.94    1.41
  -3   0  -4   35.58    1.37
  -3   0  -4   34.86    1.45
  -3   0  -4   37.29    1.48
  -3   0  -4   33.51    1.45
  -3   0  -4   35.93    1.42
   3   0   4   38.70    1.47
   3   0   4   36.17    1.86
   3   0   4   35.84    1.66
   3   0   4   34.92    1.44
  -4   0  -4    8.71    0.78
  -4   0  -4    6.42    0.68
  -4   0  -4    7.58    0.53
  -4   0  -4    7.71    0.52
  -4   0  -4    8.68    0.65
  -4   0  -4    8.46    0.74
  -4   0  -4    7.82    0.49
   4   0   4    7.27    0.96
   4   0   4    8.39    0.73
   4   0   4    8.26    0.59
   4   0   4    8.00    0.83
  -5   0  -4   49.10    1.95
  -5   0  -4   47.83    1.73
  -5   0  -4   52.65    2.10
  -5   0  -4   51.16    1.74
  -5   0  -4   46.34    2.02
  -5   0  -4   48.90    1.72
   5   0   4   49.17    1.92
   5   0   4   47.43    1.92
   5   0   4   46.68    2.39
  -6   0  -4   38.65    1.74
  -6   0  -4   37.39    1.80
  -6   0  -4   43.55    1.93
  -6   0  -4   40.45    1.36
  -6   0  -4   40.75    1.35
   6   0   4   38.70    1.71
   6   0   4   37.36    2.17
   6   0   4   40.11    1.72
  -7   0  -4    6.32    0.74
  -7   0  -4    6.44    0.79
   7   0   4    5.99    0.71
   7   0   4    4.95    0.99
   7   0   4    4.75    0.64
  -8   0  -4    2.41    0.52
  -8   0  -4    2.17    0.47
   8   0   4    1.77    0.63
   8   0   4    2.52    0.51
   8   0   4    1.49    0.39
  -9   0  -4    0.15    0.27
  -9   0  -4    0.28    0.29
   9   0   4    0.37    0.25
 -10   0  -4    0.13    0.27
 -10   0  -4   -0.16    0.25
  10   0   4    0.41    0.30
  11  -1  -4   -0.37    0.18
 -11   1   4    0.05    0.34
 -11   1   4   -0.27    0.23
  10  -1  -4    1.64    0.46
 -10   1   4    1.58    0.51
 -10   1   4    2.18    0.50
   9  -1  -4    9.59    0.96
   9  -1  -4   10.02    1.00
  -9   1   4   10.14    0.99
  -9   1   4   11.62    1.20
   8  -1  -4    4.79    0.64
   8  -1  -4    4.40    0.58
  -8   1   4    4.12    0.61
  -8   1   4    3.82    0.68
   7  -1  -4   18.02    1.02
   7  -1  -4   18.89    1.03
  -7   1   4   16.97    0.61
  -7   1   4   18.19    1.20
  -7   1   4   17.86    1.02
  -7   1   4   18.06    0.62
   6  -1  -4   22.91    1.12
   6  -1  -4   20.63    1.08
  -6   1   4   22.26    1.12
  -6   1   4   22.15    1.11
  -6   1   4   21.07    1.27
  -6   1   4   22.11    0.91
  -6   1   4   22.17    0.90
   5  -1  -4   42.47    1.64
   5  -1  -4   38.19    1.60
   5  -1  -4   41.91    1.64
  -5   1   4   39.92    1.62
  -5   1   4   41.91    1.42
  -5   1   4   36.72    1.79
  -5   1   4   38.46    1.61
  -5   1   4   42.36    1.48
  -5   1   4   40.72    1.49
   4  -1  -4  157.30    4.91
   4  -1  -4  167.20    4.92
  -4   1   4  157.79    4.87
  -4   1   4  162.22    4.92
  -4   1   4  159.54    4.82
  -4   1   4  161.40    4.88
  -4   1   4  158.46    4.76
  -4   1   4  155.64    4.82
  -4   1   4  158.11    5.31
   3  -1  -4  289.84    8.30
   3  -1  -4  298.17    8.29
  -3   1   4  279.45    8.17
  -3   1   4  269.62    8.18
  -3   1   4  290.19    8.24
  -3   1   4  288.94    8.83
  -3   1   4  282.42    8.46
  -3   1   4  283.14    8.06
  -3   1   4  273.41    8.22
   2  -1  -4   22.03    0.99
   2  -1  -4   19.98    0.94
   2  -1  -4   21.92    0.98
  -2   1   4   22.15    0.99
  -2   1   4   22.60    1.16
  -2   1   4   21.60    0.95
  -2   1   4   21.58    1.07
  -2   1   4   20.84    0.86
  -2   1   4   21.06    0.96
  -2   1   4   22.01    0.97
   1  -1  -4    0.22    0.15
   1  -1  -4    0.24    0.14
   1  -1  -4    0.13    0.13
   1  -1  -4    0.14    0.13
  -1   1   4    0.02    0.11
  -1   1   4    0.32    0.15
  -1   1   4    0.34    0.16
  -1   1   4    0.07    0.17
  -1   1   4    0.29    0.19
  -1   1   4    0.05    0.10
   0  -1  -4    0.45    0.17
   0  -1  -4    0.31    0.15
   0  -1  -4    0.23    0.14
   0  -1  -4    0.19    0.13
   0   1   4    0.18    0.14
   0   1   4    0.45    0.17
   0   1   4   -0.14    0.14
   0   1   4    0.47    0.20
   0   1   4    0.19    0.14
   0   1   4    0.36    0.21
  -1  -1  -4    5.77    0.53
  -1  -1  -4    5.71    0.43
  -1  -1  -4    6.24    0.56
  -1  -1  -4    6.57    0.46
   1   1   4    6.31    0.47
   1   1   4    5.53    0.65
   1   1   4    5.91    0.75
   1   1   4    5.37    0.50
  -2  -1  -4   40.03    1.49
  -2  -1  -4   41.46    1.65
  -2  -1  -4   42.69    1.53
  -2  -1  -4   41.24    1.52
  -2  -1  -4   41.47    1.57
  -2  -1  -4   41.44    1.58
   2   1   4   39.92    1.94
   2   1   4   41.12    1.56
   2   1   4   39.28    1.77
   2   1   4   41.84    1.55
  -3  -1  -4    0.38    0.21
  -3  -1  -4    0.21    0.12
  -3  -1  -4    0.26    0.13
  -3  -1  -4    0.34    0.16
  -3  -1  -4    0.34    0.13
  -3  -1  -4    0.35    0.17
   3   1   4    0.40    0.29
   3   1   4    0.35    0.16
   3   1   4    0.31    0.16
   3   1   4    0.09    0.18
   3   1   4    0.10    0.11
  -4  -1  -4    0.81    0.18
  -4  -1  -4    0.62    0.21
  -4  -1  -4    0.59    0.15
  -4  -1  -4    0.70    0.13
  -4  -1  -4    1.14    0.28
  -4  -1  -4    0.11    0.18
  -4  -1  -4    0.49    0.11
   4   1   4    0.79    0.24
   4   1   4    0.64    0.28
   4   1   4    0.91    0.25
   4   1   4    0.65    0.36
  -5  -1  -4   48.90    1.88
  -5  -1  -4   46.20    1.44
  -5  -1  -4   47.57    1.95
  -5  -1  -4   47.10    1.92
  -5  -1  -4   45.46    1.43
  -5  -1  -4   46.98    2.11
   5   1   4   45.74    1.83
   5   1   4   46.20    1.83
   5   1   4   47.85    2.42
  -6  -1  -4   33.29    1.56
  -6  -1  -4   37.00    1.89
  -6  -1  -4   35.78    1.65
   6   1   4   36.02    1.56
   6   1   4   33.09    1.53
   6   1   4   36.63    2.15
  -7  -1  -4   20.37    1.20
  -7  -1  -4   21.18    1.24
  -7  -1  -4   21.49    1.49
   7   1   4   22.84    1.21
   7   1   4   21.90    1.19
   7   1   4   21.77    2.00
  -8  -1  -4    0.81    0.33
  -8  -1  -4    0.48    0.29
   8   1   4    0.50    0.27
  -9  -1  -4    1.91    0.46
  -9  -1  -4    1.95    0.47
   9   1   4    1.16    0.38
  11  -2  -4    8.53    1.07
 -11   2   4   11.35    1.21
 -11   2   4    9.83    1.32
  10  -2  -4    0.49    0.32
  10  -2  -4    0.55    0.37
 -10   2   4    0.49    0.32
 -10   2   4    0.65    0.42
   9  -2  -4    5.42    0.77
   9  -2  -4    8.58    0.95
  -9   2   4    7.26    1.01
  -9   2   4    9.44    1.04
   8  -2  -4    0.19    0.24
   8  -2  -4    0.65    0.27
  -8   2   4    0.39    0.33
  -8   2   4    0.49    0.16
  -8   2   4    0.31    0.14
  -8   2   4    0.34    0.25
   7  -2  -4    2.27    0.43
   7  -2  -4    3.08    0.53
  -7   2   4    3.00    0.51
  -7   2   4    2.39    0.35
  -7   2   4    2.07    0.32
  -7   2   4    2.57    0.56
   6  -2  -4    0.80    0.25
   6  -2  -4    0.63    0.25
  -6   2   4    0.88    0.22
  -6   2   4    0.66    0.22
  -6   2   4    0.50    0.19
  -6   2   4    0.80    0.33
  -6   2   4    0.49    0.23
   5  -2  -4    7.56    0.72
   5  -2  -4    7.99    0.77
  -5   2   4    7.33    0.84
  -5   2   4    9.43    0.83
  -5   2   4    8.61    0.61
  -5   2   4    7.93    0.75
  -5   2   4    8.23    0.56
   4  -2  -4    1.52    0.32
   4  -2  -4    1.20    0.28
  -4   2   4    1.30    0.30
  -4   2   4    0.81    0.31
  -4   2   4    0.95    0.24
  -4   2   4    1.11    0.29
   3  -2  -4   97.71    3.31
   3  -2  -4  102.99    3.36
  -3   2   4  105.69    3.70
  -3   2   4  102.08    3.32
  -3   2   4   98.42    3.27
  -3   2   4  100.30    3.30
  -3   2   4  105.93    3.34
   2  -2  -4    0.25    0.17
   2  -2  -4    0.32    0.17
   2  -2  -4    0.24    0.16
   2  -2  -4    0.55    0.18
  -2   2   4    0.12    0.07
  -2   2   4    0.16    0.14
  -2   2   4    0.18    0.16
  -2   2   4    0.28    0.20
  -2   2   4    0.46    0.24
  -2   2   4    0.51    0.21
  -2   2   4    0.20    0.13
   1  -2  -4    4.70    0.49
   1  -2  -4    3.86    0.44
   1  -2  -4    4.84    0.51
   1  -2  -4    5.20    0.52
   1  -2  -4    4.28    0.47
  -1   2   4    4.76    0.51
  -1   2   4    4.80    0.60
  -1   2   4    4.92    0.51
  -1   2   4    4.51    0.49
  -1   2   4    4.00    0.58
  -1   2   4    4.87    0.52
   0  -2  -4   35.44    1.43
   0  -2  -4   34.75    1.40
   0  -2  -4   36.08    1.42
   0   2   4   38.83    1.45
   0   2   4   35.65    1.42
   0   2   4   38.79    1.76
   0   2   4   37.11    1.67
  -1  -2  -4   34.69    1.36
  -1  -2  -4   35.64    1.41
  -1  -2  -4   34.67    1.47
  -1  -2  -4   34.69    1.35
  -1  -2  -4   36.98    1.38
  -1  -2  -4   35.74    1.40
   1   2   4   33.70    1.72
   1   2   4   34.60    1.39
   1   2   4   35.78    1.40
   1   2   4   35.79    1.63
  -2  -2  -4   68.15    2.37
  -2  -2  -4   73.45    2.35
  -2  -2  -4   74.23    2.59
  -2  -2  -4   74.43    2.69
  -2  -2  -4   73.28    2.47
  -2  -2  -4   72.88    2.48
  -2  -2  -4   68.70    2.37
   2   2   4   76.21    3.02
   2   2   4   71.71    2.47
   2   2   4   73.78    2.47
   2   2   4   75.66    2.79
  -3  -2  -4  109.88    3.73
  -3  -2  -4  115.94    3.49
  -3  -2  -4  108.24    3.46
  -3  -2  -4  116.75    3.99
  -3  -2  -4  116.76    3.66
  -3  -2  -4  113.95    3.37
  -3  -2  -4  115.14    3.67
   3   2   4  119.22    3.99
   3   2   4  121.36    4.37
   3   2   4  109.89    3.65
   3   2   4  119.31    3.67
   3   2   4  120.01    3.70
  -4  -2  -4   32.97    1.06
  -4  -2  -4   32.84    1.06
  -4  -2  -4   33.19    1.42
  -4  -2  -4   36.26    1.73
  -4  -2  -4   34.41    1.45
   4   2   4   37.96    2.00
   4   2   4   35.71    1.41
   4   2   4   31.28    1.37
  -5  -2  -4    9.89    1.09
  -5  -2  -4    9.78    0.68
  -5  -2  -4    7.70    0.75
   5   2   4    9.42    0.67
   5   2   4    9.14    0.65
   5   2   4    8.34    1.19
  -6  -2  -4    6.55    0.72
  -6  -2  -4    8.14    1.08
  -6  -2  -4    8.12    0.81
   6   2   4   10.60    1.38
   6   2   4    7.98    0.76
   6   2   4    8.48    0.78
  -7  -2  -4   12.47    1.37
  -7  -2  -4   10.16    0.80
  -7  -2  -4   11.50    0.84
   7   2   4   10.46    0.78
   7   2   4   12.60    1.56
  -8  -2  -4    1.28    0.59
  -8  -2  -4    1.05    0.35
  -8  -2  -4    0.58    0.31
   8   2   4    1.05    0.33
  -9  -2  -4    1.67    0.46
   9   2   4    2.07    0.45
  11  -3  -4    1.33    0.50
  11  -3  -4    1.07    0.47
 -11   3   4    0.67    0.48
 -11   3   4    1.38    0.54
  10  -3  -4    1.40    0.45
  10  -3  -4    0.63    0.40
 -10   3   4    0.87    0.51
 -10   3   4    1.51    0.49
   9  -3  -4    8.64    1.03
   9  -3  -4    7.59    0.95
  -9   3   4    8.79    1.02
  -9   3   4    7.06    0.53
  -9   3   4    7.63    0.55
  -9   3   4    8.63    1.16
   8  -3  -4   15.34    1.09
   8  -3  -4   15.08    1.08
  -8   3   4   14.02    0.86
  -8   3   4   14.71    0.85
  -8   3   4   15.57    1.11
  -8   3   4   13.20    1.38
   7  -3  -4    9.14    0.97
   7  -3  -4    8.49    0.92
  -7   3   4    8.70    0.79
  -7   3   4    9.06    0.94
  -7   3   4    7.73    1.01
  -7   3   4    8.83    0.67
   6  -3  -4   57.18    2.33
   6  -3  -4   56.34    2.31
  -6   3   4   56.99    2.14
  -6   3   4   55.91    2.31
  -6   3   4   59.12    2.62
  -6   3   4   58.61    2.22
   5  -3  -4  104.20    3.65
   5  -3  -4  107.93    3.66
  -5   3   4  109.92    3.60
  -5   3   4  104.67    4.00
  -5   3   4  102.34    3.51
  -5   3   4  107.77    3.65
   4  -3  -4   21.03    1.13
   4  -3  -4   20.30    1.10
   4  -3  -4   20.04    1.10
  -4   3   4   21.15    1.08
  -4   3   4   20.71    1.28
  -4   3   4   21.15    1.13
  -4   3   4   22.45    1.11
  -4   3   4   21.13    1.11
   3  -3  -4   63.47    2.32
   3  -3  -4   63.54    2.36
   3  -3  -4   60.73    2.35
   3  -3  -4   66.60    2.38
  -3   3   4   63.85    2.34
  -3   3   4   67.32    2.38
  -3   3   4   64.41    2.35
  -3   3   4   64.61    2.37
  -3   3   4   65.28    2.66
   2  -3  -4   42.61    1.69
   2  -3  -4   41.59    1.69
   2  -3  -4   41.91    1.68
   2  -3  -4   44.50    1.69
  -2   3   4   39.65    1.65
  -2   3   4   40.73    1.69
  -2   3   4   42.12    1.94
  -2   3   4   41.63    1.67
  -2   3   4   41.47    1.66
   1  -3  -4   45.45    1.76
   1  -3  -4   46.10    1.76
   1  -3  -4   46.14    1.75
   1  -3  -4   44.59    1.75
  -1   3   4   42.59    1.73
  -1   3   4   46.05    1.79
  -1   3   4   46.52    1.78
  -1   3   4   48.41    1.77
  -1   3   4   42.96    1.97
   0  -3  -4    2.83    0.40
   0  -3  -4    3.35    0.43
   0  -3  -4    2.75    0.39
   0  -3  -4    2.66    0.41
   0  -3  -4    3.22    0.41
   0   3   4    3.47    0.57
   0   3   4    2.76    0.41
   0   3   4    3.28    0.42
   0   3   4    2.63    0.53
  -1  -3  -4    0.04    0.15
  -1  -3  -4    0.13    0.10
  -1  -3  -4    0.25    0.14
  -1  -3  -4    0.32    0.15
  -1  -3  -4    0.25    0.15
  -1  -3  -4    0.15    0.12
  -1  -3  -4    0.07    0.12
   1   3   4    0.06    0.13
   1   3   4   -0.13    0.16
   1   3   4    0.22    0.14
   1   3   4    0.12    0.24
  -2  -3  -4   16.19    0.75
  -2  -3  -4   14.47    0.70
  -2  -3  -4   15.22    0.83
  -2  -3  -4   12.80    0.93
  -2  -3  -4   14.77    0.83
  -2  -3  -4   14.51    0.72
  -2  -3  -4   14.88    0.67
   2   3   4   15.31    0.83
   2   3   4   14.02    0.80
   2   3   4   16.56    1.01
   2   3   4   16.31    0.86
   2   3   4   15.78    1.16
   2   3   4   16.63    0.85
  -3  -3  -4   84.55    2.88
  -3  -3  -4   85.11    2.90
  -3  -3  -4   88.33    2.61
  -3  -3  -4   86.22    2.59
  -3  -3  -4   88.08    3.32
   3   3   4   88.78    3.58
   3   3   4   83.74    2.89
   3   3   4   87.47    2.90
  -4  -3  -4   14.85    0.86
  -4  -3  -4   15.11    0.87
  -4  -3  -4   15.30    1.38
   4   3   4   15.29    1.49
   4   3   4   14.64    0.84
   4   3   4   15.27    0.85
  -5  -3  -4    0.14    0.17
  -5  -3  -4    0.15    0.30
   5   3   4    0.39    0.21
   5   3   4    0.24    0.16
   5   3   4    0.18    0.35
  -6  -3  -4   13.77    0.88
  -6  -3  -4   12.09    1.38
  -6  -3  -4   12.40    0.83
   6   3   4   12.82    0.82
   6   3   4   12.82    1.52
  -7  -3  -4   17.75    1.79
  -7  -3  -4   16.30    0.98
  -7  -3  -4   14.70    0.97
   7   3   4   10.96    1.47
   7   3   4   14.07    0.91
  -8  -3  -4    9.28    0.91
  -8  -3  -4    9.93    1.41
  -8  -3  -4    9.70    0.91
   8   3   4    7.84    0.81
  -9  -3  -4   -0.03    0.21
   9   3   4   -0.13    0.18
  11  -4  -4   -0.08    0.26
  11  -4  -4    0.44    0.39
 -11   4   4   -0.29    0.37
 -11   4   4    0.29    0.38
  10  -4  -4    1.43    0.53
  10  -4  -4    2.05    0.53
 -10   4   4    1.58    0.35
 -10   4   4    1.38    0.48
 -10   4   4    3.73    0.87
 -10   4   4    1.73    0.35
   9  -4  -4    0.55    0.33
   9  -4  -4    0.28    0.27
  -9   4   4    0.39    0.34
  -9   4   4    0.18    0.31
  -9   4   4    0.66    0.28
   8  -4  -4    0.01    0.23
   8  -4  -4    0.27    0.28
  -8   4   4    0.37    0.29
  -8   4   4    0.17    0.38
  -8   4   4    0.23    0.22
   7  -4  -4    3.61    0.65
   7  -4  -4    5.75    0.79
  -7   4   4    4.31    0.81
  -7   4   4    5.54    0.72
  -7   4   4    5.00    0.73
  -7   4   4    4.82    0.63
   6  -4  -4   15.47    1.03
   6  -4  -4   15.22    1.04
  -6   4   4   12.42    0.88
  -6   4   4   13.58    1.35
  -6   4   4   12.41    1.14
  -6   4   4   13.91    0.96
   5  -4  -4   17.60    1.09
   5  -4  -4   15.22    1.02
  -5   4   4   16.42    1.22
  -5   4   4   15.99    1.00
  -5   4   4   17.52    1.06
  -5   4   4   18.20    1.11
   4  -4  -4   10.87    0.97
   4  -4  -4   11.93    0.85
   4  -4  -4   10.72    0.80
  -4   4   4   11.60    1.00
  -4   4   4   11.50    0.79
  -4   4   4   10.79    0.97
  -4   4   4   10.22    1.08
  -4   4   4    8.92    0.85
   3  -4  -4    2.05    0.42
   3  -4  -4    3.57    0.53
   3  -4  -4    3.01    0.48
   3  -4  -4    3.19    0.51
  -3   4   4    3.25    0.51
  -3   4   4    2.04    0.49
  -3   4   4    3.50    0.50
  -3   4   4    3.29    0.52
  -3   4   4    3.03    0.48
   2  -4  -4   95.07    3.20
   2  -4  -4   97.52    3.22
   2  -4  -4   85.40    3.14
   2  -4  -4   91.42    3.17
  -2   4   4   90.00    3.15
  -2   4   4   94.26    3.18
  -2   4   4   93.69    3.54
  -2   4   4   89.50    3.18
  -2   4   4   89.58    3.12
   1  -4  -4    8.57    0.75
   1  -4  -4    8.29    0.75
   1  -4  -4    8.66    0.79
   1  -4  -4    6.71    0.68
   1  -4  -4    6.94    0.70
  -1   4   4    8.30    0.74
  -1   4   4    6.90    0.87
  -1   4   4    7.03    0.69
   0  -4  -4   16.09    0.91
   0  -4  -4   17.43    0.93
   0  -4  -4   20.38    1.03
   0  -4  -4   18.59    0.97
   0  -4  -4   18.01    0.91
   0   4   4   18.48    1.15
   0   4   4   17.03    0.95
   0   4   4   18.19    0.98
   0   4   4   18.67    1.24
  -1  -4  -4   35.76    1.41
  -1  -4  -4   36.12    1.46
  -1  -4  -4   35.09    1.50
  -1  -4  -4   35.09    1.35
  -1  -4  -4   34.72    1.39
  -1  -4  -4   34.86    1.49
  -1  -4  -4   35.55    1.71
   1   4   4   40.88    1.80
   1   4   4   34.36    1.47
   1   4   4   32.26    1.45
   1   4   4   34.95    1.88
  -2  -4  -4    0.88    0.26
  -2  -4  -4    0.57    0.30
  -2  -4  -4    1.32    0.30
  -2  -4  -4    1.08    0.21
  -2  -4  -4    0.84    0.19
   2   4   4    1.55    0.41
   2   4   4    1.69    0.52
   2   4   4    0.94    0.24
   2   4   4    1.58    0.34
  -3  -4  -4    0.54    0.22
  -3  -4  -4    1.01    0.40
  -3  -4  -4    0.51    0.22
   3   4   4    0.29    0.18
   3   4   4   -0.03    0.32
   3   4   4    0.75    0.25
  -4  -4  -4    3.70    0.50
  -4  -4  -4    2.43    0.63
   4   4   4    4.47    0.54
   4   4   4    4.45    0.85
   4   4   4    3.55    0.47
  -5  -4  -4    6.18    0.67
  -5  -4  -4    7.13    1.05
   5   4   4    6.37    1.08
   5   4   4    6.58    0.65
  -6  -4  -4    1.38    0.59
  -6  -4  -4    1.21    0.32
  -6  -4  -4    1.49    0.34
   6   4   4    1.30    0.60
   6   4   4    1.17    0.31
  -7  -4  -4    1.24    0.63
  -7  -4  -4    1.39    0.35
  -7  -4  -4    0.95    0.32
   7   4   4    2.33    0.43
  -8  -4  -4    1.90    0.74
  -8  -4  -4    2.70    0.51
   8   4   4    2.13    0.43
  11  -5  -4    0.53    0.42
  11  -5  -4    0.23    0.42
 -11   5   4    0.51    0.27
 -11   5   4    0.23    0.50
  10  -5  -4   10.48    1.31
  10  -5  -4   10.42    1.23
 -10   5   4   10.52    1.00
 -10   5   4   10.42    1.29
 -10   5   4   10.89    1.51
   9  -5  -4   13.57    1.41
   9  -5  -4   13.26    1.41
  -9   5   4   14.47    1.41
  -9   5   4   15.43    1.08
  -9   5   4   10.89    1.48
   8  -5  -4   31.73    1.75
   8  -5  -4   30.78    1.78
  -8   5   4   26.20    1.54
  -8   5   4   28.94    1.97
  -8   5   4   27.60    1.70
   7  -5  -4    5.24    0.79
   7  -5  -4    4.81    0.78
  -7   5   4    5.97    0.76
  -7   5   4    6.90    1.06
  -7   5   4    5.05    0.77
  -7   5   4    4.65    0.73
   6  -5  -4    4.74    0.72
   6  -5  -4    8.99    0.98
  -6   5   4    8.65    0.98
  -6   5   4    6.26    0.98
  -6   5   4    5.49    0.76
  -6   5   4    6.88    0.78
   5  -5  -4   11.33    1.08
   5  -5  -4   12.53    1.13
  -5   5   4   12.05    1.11
  -5   5   4   13.72    0.98
  -5   5   4   11.87    0.90
  -5   5   4   10.39    1.22
   4  -5  -4   20.55    1.19
   4  -5  -4   18.48    1.14
   4  -5  -4   17.21    1.11
  -4   5   4   18.41    1.13
  -4   5   4   16.97    1.11
  -4   5   4   19.08    1.12
  -4   5   4   19.72    1.39
  -4   5   4   18.11    1.13
   3  -5  -4    3.46    0.56
   3  -5  -4    3.03    0.53
   3  -5  -4    2.76    0.50
   3  -5  -4    2.25    0.44
  -3   5   4    2.69    0.50
  -3   5   4    1.29    0.41
  -3   5   4    2.57    0.48
  -3   5   4    3.62    0.61
  -3   5   4    2.46    0.46
   2  -5  -4    1.62    0.37
   2  -5  -4    1.36    0.34
   2  -5  -4    1.43    0.34
   2  -5  -4    1.64    0.38
  -2   5   4    1.86    0.48
  -2   5   4    1.39    0.34
  -2   5   4    1.24    0.32
  -2   5   4    2.14    0.46
   1  -5  -4    0.49    0.22
   1  -5  -4    0.05    0.14
   1  -5  -4    0.26    0.19
   1  -5  -4    0.23    0.19
   1  -5  -4    0.39    0.21
  -1   5   4    0.36    0.21
  -1   5   4    0.34    0.21
  -1   5   4    0.58    0.34
   0  -5  -4    1.01    0.36
   0  -5  -4    1.55    0.33
   0  -5  -4    1.57    0.37
   0  -5  -4    1.03    0.27
   0  -5  -4    1.78    0.35
   0  -5  -4    1.28    0.28
   0   5   4    1.60    0.44
   0   5   4    1.30    0.32
   0   5   4    0.89    0.27
  -1  -5  -4   27.66    1.59
  -1  -5  -4   31.01    1.25
  -1  -5  -4   28.19    1.22
  -1  -5  -4   29.05    1.38
  -1  -5  -4   29.95    1.17
  -1  -5  -4   28.94    1.25
   1   5   4   30.10    1.38
   1   5   4   27.48    1.74
   1   5   4   30.10    1.60
   1   5   4   27.64    1.35
  -2  -5  -4   19.63    0.82
  -2  -5  -4   20.50    1.35
  -2  -5  -4   20.85    1.10
  -2  -5  -4   19.10    0.82
   2   5   4   19.29    1.46
   2   5   4   19.44    1.05
   2   5   4   21.74    1.09
  -3  -5  -4    5.11    0.61
  -3  -5  -4    3.53    0.77
   3   5   4    4.93    0.92
   3   5   4    5.12    0.57
   3   5   4    4.99    0.60
  -4  -5  -4   35.30    1.54
  -4  -5  -4   34.06    2.03
   4   5   4   35.28    1.53
   4   5   4   31.66    1.47
   4   5   4   31.88    2.12
  -5  -5  -4    7.67    0.77
  -5  -5  -4    8.24    1.24
   5   5   4    6.41    1.11
   5   5   4    7.88    0.76
  -6  -5  -4    8.02    1.29
  -6  -5  -4    7.29    0.75
   6   5   4    6.77    1.20
   6   5   4    7.12    0.73
  -7  -5  -4    7.89    1.36
  -7  -5  -4    8.38    0.85
   7   5   4    8.01    0.79
  -8  -5  -4    6.44    1.33
  -8  -5  -4    5.56    0.72
   8   5   4    5.66    0.68
  10  -6  -4    0.75    0.45
  10  -6  -4   -0.07    0.30
 -10   6   4    0.48    0.32
 -10   6   4    0.04    0.38
   9  -6  -4    0.27    0.33
   9  -6  -4    0.65    0.44
  -9   6   4    0.10    0.29
  -9   6   4    1.21    0.61
   8  -6  -4    9.43    1.15
   8  -6  -4    7.52    1.09
  -8   6   4   11.67    1.24
  -8   6   4   10.84    1.49
  -8   6   4   11.17    1.12
   7  -6  -4   10.29    1.16
   7  -6  -4    9.06    1.13
  -7   6   4    7.04    0.87
  -7   6   4    7.74    1.20
  -7   6   4   11.21    1.20
   6  -6  -4   17.95    1.28
   6  -6  -4   18.73    1.29
  -6   6   4   17.81    1.76
  -6   6   4   17.16    1.49
  -6   6   4   16.27    1.17
   5  -6  -4    9.80    1.07
   5  -6  -4    7.75    0.91
  -5   6   4    5.92    0.80
  -5   6   4    8.57    1.17
   4  -6  -4   68.40    2.82
   4  -6  -4   71.29    2.83
  -4   6   4   71.87    2.83
  -4   6   4   72.79    3.13
  -4   6   4   66.20    3.15
  -4   6   4   71.67    2.84
   3  -6  -4   54.52    2.42
   3  -6  -4   58.82    2.41
   3  -6  -4   59.40    2.45
  -3   6   4   57.75    2.42
  -3   6   4   60.32    2.45
  -3   6   4   59.28    2.78
   2  -6  -4   67.35    2.54
   2  -6  -4   61.98    2.56
   2  -6  -4   58.92    2.42
  -2   6   4   62.23    2.86
  -2   6   4   64.22    2.54
  -2   6   4   64.06    2.54
   1  -6  -4   53.75    2.24
   1  -6  -4   51.81    2.12
   1  -6  -4   51.81    2.08
   1  -6  -4   50.43    2.34
  -1   6   4   54.87    2.55
  -1   6   4   54.53    2.21
  -1   6   4   52.14    2.19
   0  -6  -4    5.37    0.83
   0  -6  -4    6.40    0.66
   0  -6  -4    6.43    0.64
   0  -6  -4    5.83    0.71
   0  -6  -4    6.08    0.62
   0  -6  -4    4.87    0.57
   0   6   4    4.77    0.79
   0   6   4    4.87    0.64
   0   6   4    6.83    0.76
  -1  -6  -4    9.66    0.93
  -1  -6  -4    8.23    1.07
  -1  -6  -4    7.51    0.56
  -1  -6  -4    9.27    0.61
   1   6   4    7.73    1.10
   1   6   4    9.18    0.87
   1   6   4    9.16    0.88
  -2  -6  -4    8.27    1.11
  -2  -6  -4    8.39    0.83
  -2  -6  -4    7.54    0.39
  -2  -6  -4    7.54    0.39
   2   6   4    8.99    1.25
   2   6   4    8.13    0.81
   2   6   4    8.39    0.82
  -3  -6  -4    2.02    0.61
  -3  -6  -4    2.40    0.44
   3   6   4    1.35    0.32
   3   6   4    1.15    0.33
   3   6   4    1.89    0.68
  -4  -6  -4   13.03    1.57
  -4  -6  -4   11.24    0.83
   4   6   4   10.46    1.44
   4   6   4   10.32    0.77
  -5  -6  -4    2.70    0.49
  -5  -6  -4    1.71    0.60
   5   6   4    2.86    0.80
   5   6   4    1.72    0.38
  -6  -6  -4    1.08    0.63
  -6  -6  -4    0.78    0.30
   6   6   4    0.64    0.26
   6   6   4    0.34    0.61
  -7  -6  -4    4.62    1.08
  -7  -6  -4    4.73    0.66
   7   6   4    4.47    0.61
  10  -7  -4    0.90    0.55
 -10   7   4    0.69    0.42
 -10   7   4    1.19    0.66
   9  -7  -4    1.94    0.63
  -9   7   4    2.45    0.62
  -9   7   4    2.68    0.84
   8  -7  -4    1.91    0.62
  -8   7   4    2.94    0.68
  -8   7   4    2.09    0.80
  -8   7   4    1.83    0.52
   7  -7  -4   15.24    1.51
  -7   7   4   13.50    1.66
  -7   7   4   11.27    1.22
   6  -7  -4    1.83    0.53
  -6   7   4    1.44    0.46
  -6   7   4    1.60    0.60
   5  -7  -4   10.48    1.16
  -5   7   4    9.25    1.28
  -5   7   4   10.58    1.15
   4  -7  -4   -0.21    0.19
   4  -7  -4    0.11    0.25
  -4   7   4    0.28    0.29
  -4   7   4    0.29    0.30
  -4   7   4    0.34    0.36
   3  -7  -4    0.24    0.26
   3  -7  -4    0.18    0.27
  -3   7   4    0.03    0.25
  -3   7   4    0.20    0.33
  -3   7   4    0.11    0.24
   2  -7  -4    6.22    0.85
   2  -7  -4    5.02    0.78
   2  -7  -4    4.05    0.62
   2  -7  -4    4.73    0.69
  -2   7   4    4.88    0.71
  -2   7   4    4.56    0.70
  -2   7   4    5.03    0.88
   1  -7  -4    8.89    0.83
   1  -7  -4   10.06    1.02
   1  -7  -4   10.60    1.17
   1  -7  -4    8.88    0.88
  -1   7   4    9.02    0.97
  -1   7   4    8.60    0.94
   0  -7  -4   -0.02    0.19
   0  -7  -4    0.13    0.16
   0  -7  -4    0.09    0.16
   0  -7  -4    0.09    0.24
   0   7   4    0.12    0.21
   0   7   4    0.05    0.21
  -1  -7  -4    0.69    0.44
  -1  -7  -4    0.72    0.21
  -1  -7  -4    1.17    0.36
  -1  -7  -4    1.07    0.25
   1   7   4    0.00    0.29
   1   7   4    0.84    0.35
   1   7   4    0.92    0.32
  -2  -7  -4   23.56    1.34
  -2  -7  -4   24.55    1.75
   2   7   4   21.44    1.26
   2   7   4   23.26    2.17
   2   7   4   23.69    1.31
  -3  -7  -4   15.54    1.06
  -3  -7  -4   15.82    1.75
   3   7   4   16.04    1.03
   3   7   4   18.42    1.12
   3   7   4   15.44    1.77
  -4  -7  -4    9.64    1.43
  -4  -7  -4    9.35    0.93
   4   7   4    9.61    1.45
   4   7   4    8.67    0.86
  -5  -7  -4    6.08    1.24
  -5  -7  -4    6.28    0.76
   5   7   4    5.89    1.21
   5   7   4    5.25    0.66
  -6  -7  -4    1.28    0.39
  -6  -7  -4    0.17    0.49
   6   7   4    1.71    0.40
   9  -8  -4    1.13    0.55
  -9   8   4   -0.08    0.38
   8  -8  -4    1.31    0.53
  -8   8   4    1.02    0.64
  -8   8   4    0.52    0.35
   7  -8  -4   10.52    1.30
  -7   8   4    9.68    1.52
  -7   8   4    9.06    1.16
   6  -8  -4   15.71    1.58
  -6   8   4   16.72    1.89
  -6   8   4   16.81    1.58
   5  -8  -4   10.40    1.18
  -5   8   4   10.10    1.42
  -5   8   4   10.00    1.17
   4  -8  -4    4.70    0.80
   4  -8  -4    4.36    0.75
  -4   8   4    4.95    0.82
  -4   8   4    5.19    1.00
   3  -8  -4    9.57    1.06
   3  -8  -4    5.63    0.90
   3  -8  -4    8.53    1.00
  -3   8   4    9.34    1.09
  -3   8   4   10.67    1.36
  -3   8   4    6.84    0.91
   2  -8  -4    5.29    0.90
   2  -8  -4    4.78    0.80
   2  -8  -4    5.68    0.77
   2  -8  -4    4.87    0.73
  -2   8   4    3.81    0.68
  -2   8   4    5.79    0.83
   1  -8  -4    4.74    0.75
   1  -8  -4    3.71    0.59
   1  -8  -4    4.66    0.84
  -1   8   4    4.06    0.68
  -1   8   4    3.80    0.66
   0  -8  -4    5.72    1.01
   0  -8  -4    5.24    0.79
   0  -8  -4    5.02    0.60
   0   8   4    6.34    0.83
   0   8   4    4.37    0.69
  -1  -8  -4    0.79    0.46
  -1  -8  -4    0.67    0.21
  -1  -8  -4    0.94    0.38
   1   8   4    2.68    0.73
   1   8   4    0.91    0.35
   1   8   4    1.75    0.45
  -2  -8  -4    1.01    0.53
  -2  -8  -4    0.10    0.26
   2   8   4    0.35    0.26
   2   8   4    1.15    0.59
   2   8   4    0.36    0.29
  -3  -8  -4    1.19    0.60
  -3  -8  -4    2.21    0.51
   3   8   4    3.04    0.88
   3   8   4    1.97    0.46
  -4  -8  -4    4.80    1.10
  -4  -8  -4    4.51    0.71
   4   8   4    3.83    0.60
   4   8   4    5.64    1.21
  -5  -8  -4    8.76    1.55
  -5  -8  -4    7.78    0.90
   5   8   4    4.93    1.15
   5   8   4    7.75    0.86
   8  -9  -4    1.97    0.68
  -8   9   4    2.22    0.65
  -8   9   4    0.71    0.65
   7  -9  -4    1.86    0.61
  -7   9   4    1.47    0.74
  -7   9   4    1.50    0.58
   6  -9  -4    0.17    0.35
  -6   9   4    0.14    0.30
  -6   9   4   -0.13    0.41
   5  -9  -4    4.17    0.82
   5  -9  -4    5.81    0.91
  -5   9   4    3.91    0.77
  -5   9   4    4.33    1.01
   4  -9  -4   13.26    1.38
   4  -9  -4   13.84    1.40
   4  -9  -4   15.53    1.54
  -4   9   4   15.86    1.86
  -4   9   4   12.68    1.38
   3  -9  -4    5.11    0.91
   3  -9  -4    7.40    0.93
   3  -9  -4    4.68    0.76
  -3   9   4    5.23    0.86
  -3   9   4    6.15    0.92
   2  -9  -4    3.66    0.77
   2  -9  -4    6.51    0.86
  -2   9   4    6.43    0.90
  -2   9   4    4.97    0.83
   1  -9  -4   12.48    1.50
   1  -9  -4   13.78    1.00
  -1   9   4   15.33    1.42
  -1   9   4   14.04    1.34
   0  -9  -4   31.75    1.83
   0  -9  -4   31.29    1.43
   0  -9  -4   29.11    2.03
   0   9   4   29.48    1.72
   0   9   4   29.88    1.73
  -1  -9  -4    7.34    0.40
  -1  -9  -4    6.61    1.14
  -1  -9  -4    6.87    0.39
  -1  -9  -4    9.11    1.07
   1   9   4    6.85    0.88
   1   9   4    5.97    0.88
   1   9   4    6.89    1.28
  -2  -9  -4    1.91    0.51
  -2  -9  -4    1.35    0.60
   2   9   4    1.09    0.59
   2   9   4    1.14    0.40
   2   9   4    1.55    0.43
  -3  -9  -4    3.42    0.67
  -3  -9  -4    4.58    1.14
   3   9   4    2.99    0.59
   3   9   4    5.31    1.20
  -4  -9  -4    0.67    0.36
  -4  -9  -4    1.46    0.74
   4   9   4    0.79    0.36
   4   9   4    1.55    0.76
   7 -10  -4    6.26    1.09
  -7  10   4    5.28    1.01
  -7  10   4    7.27    1.45
   6 -10  -4    6.53    1.09
  -6  10   4    5.30    0.97
  -6  10   4    5.60    1.22
   5 -10  -4    3.63    0.81
   5 -10  -4    1.39    0.53
  -5  10   4    2.36    0.68
   4 -10  -4    2.03    0.58
   4 -10  -4    3.08    0.74
   4 -10  -4    1.16    0.57
  -4  10   4    2.48    0.65
   3 -10  -4    2.18    0.59
   3 -10  -4    2.32    0.68
  -3  10   4    1.72    0.58
  -3  10   4    0.87    0.46
   2 -10  -4    0.82    0.54
   2 -10  -4    0.52    0.31
  -2  10   4    0.68    0.38
  -2  10   4    0.95    0.48
   1 -10  -4    1.50    0.64
   1 -10  -4    0.87    0.48
   1 -10  -4    1.50    0.41
  -1  10   4    2.62    0.65
  -1  10   4    0.88    0.41
   0 -10  -4    0.31    0.42
   0 -10  -4    0.27    0.22
   0 -10  -4    0.70    0.41
   0 -10  -4    0.25    0.21
   0  10   4    0.07    0.29
   0  10   4    0.17    0.32
  -1 -10  -4    0.04    0.42
  -1 -10  -4    0.06    0.30
   1  10   4   -0.01    0.31
   1  10   4   -0.05    0.24
   1  10   4   -0.18    0.38
  -2 -10  -4   -0.06    0.34
  -2 -10  -4   -0.16    0.30
   2  10   4    0.16    0.31
   2  10   4    0.16    0.48
   2  10   4    0.00    0.25
   5 -11  -4    0.07    0.39
  -5  11   4    0.13    0.42
   4 -11  -4    2.35    0.65
   4 -11  -4    2.13    0.71
  -4  11   4    1.35    0.60
   3 -11  -4   11.58    1.51
   3 -11  -4   14.35    1.45
  -3  11   4   14.12    1.59
   2 -11  -4   11.20    1.56
   2 -11  -4   10.48    1.14
  -2  11   4   11.29    1.37
  -2  11   4   12.26    1.40
   1 -11  -4    6.35    0.74
   1 -11  -4    6.23    1.23
  -1  11   4    6.82    1.08
  -1  11   4    8.42    1.20
   0 -11  -4    1.67    0.28
   0 -11  -4    1.28    0.25
   0 -11  -4    1.65    0.75
   0 -11  -4    1.64    0.59
   0  11   4    1.51    0.52
   0  11   4    1.71    0.60
   2  11  -5    0.31    0.33
  -2 -11   5    0.09    0.43
   1  11  -5    1.00    0.46
   1  11  -5    0.81    0.41
  -1 -11   5    1.01    0.64
   0  11  -5    3.65    0.79
   0  11  -5    2.57    0.67
   0 -11   5    3.11    0.94
   0 -11   5    3.55    0.47
   0 -11   5    4.61    0.90
   0 -11   5    3.88    0.48
  -1  11  -5   10.39    1.29
  -1  11  -5    8.42    1.18
   1 -11   5    8.65    1.51
   1 -11   5    9.18    0.94
   1 -11   5    7.14    1.11
  -2  11  -5    7.89    1.17
  -2  11  -5    6.92    1.07
   2 -11   5    8.86    1.53
   2 -11   5    6.66    0.95
   2 -11   5    5.40    1.05
  -3  11  -5    2.50    0.69
   3 -11   5    4.39    0.81
   3 -11   5    2.96    0.93
   3 -11   5    4.23    0.96
  -4  11  -5    9.92    1.32
   4 -11   5    9.59    1.24
   4 -11   5    4.38    0.99
   4 -11   5    4.76    1.12
   4  10  -5    7.05    0.85
   4  10  -5    7.31    1.03
  -4 -10   5    9.46    1.49
   3  10  -5    3.14    0.69
   3  10  -5    3.26    0.60
  -3 -10   5    6.09    1.24
   2  10  -5    7.03    0.90
   2  10  -5    7.23    0.99
   2  10  -5    6.05    0.87
  -2 -10   5    7.08    0.96
  -2 -10   5    5.71    1.18
   1  10  -5    6.44    0.91
   1  10  -5    7.02    1.01
  -1 -10   5    6.09    0.95
  -1 -10   5    6.78    1.28
   0  10  -5    0.64    0.40
   0  10  -5    0.81    0.38
   0 -10   5    0.83    0.59
   0 -10   5    0.70    0.43
   0 -10   5    1.36    0.34
  -1  10  -5    0.68    0.41
  -1  10  -5    1.27    0.49
   1 -10   5    1.05    0.65
   1 -10   5    1.33    0.41
   1 -10   5    0.57    0.46
  -2  10  -5    0.00    0.33
  -2  10  -5    0.49    0.35
   2 -10   5    0.27    0.29
   2 -10   5   -0.18    0.43
   2 -10   5    0.47    0.42
  -3  10  -5    1.30    0.52
   3 -10   5    0.70    0.49
   3 -10   5    1.01    0.68
  -4  10  -5    3.43    0.81
   4 -10   5    2.84    0.96
   4 -10   5    4.14    0.92
   4 -10   5    4.35    0.83
  -5  10  -5    4.98    0.92
   5 -10   5    2.57    0.69
   5 -10   5    3.67    0.92
  -6  10  -5    3.47    0.87
  -6  10  -5    4.05    0.99
   6 -10   5    2.90    0.79
   6 -10   5    1.70    0.75
   5   9  -5    1.46    0.38
   5   9  -5    2.14    0.56
  -5  -9   5    0.81    0.57
   4   9  -5    4.57    0.67
   4   9  -5    5.10    0.81
  -4  -9   5    5.71    1.12
   3   9  -5   10.52    1.14
   3   9  -5    8.73    0.93
  -3  -9   5    9.17    1.01
  -3  -9   5   14.89    1.81
   2   9  -5   16.08    1.44
   2   9  -5   17.82    1.21
   2   9  -5   14.98    1.09
  -2  -9   5   18.13    1.26
  -2  -9   5   15.21    1.78
   1   9  -5   16.38    1.20
   1   9  -5   19.66    1.31
   1   9  -5   15.17    1.13
  -1  -9   5   16.64    0.77
  -1  -9   5   15.83    1.80
  -1  -9   5   13.53    1.34
  -1  -9   5   16.31    0.77
   0   9  -5    6.31    0.87
   0   9  -5    7.83    0.99
   0  -9   5    6.59    0.96
   0  -9   5    5.73    1.10
   0  -9   5    7.18    0.73
  -1   9  -5    9.63    1.09
  -1   9  -5    8.76    1.05
   1  -9   5    8.61    1.13
   1  -9   5    8.78    0.95
   1  -9   5    8.40    1.36
  -2   9  -5   13.24    1.34
  -2   9  -5   11.48    1.26
   2  -9   5   12.01    1.62
   2  -9   5   10.76    1.32
  -3   9  -5    0.84    0.42
   3  -9   5    1.51    0.47
   3  -9   5    0.95    0.62
   3  -9   5    0.30    0.37
  -4   9  -5   -0.16    0.27
  -4   9  -5    0.12    0.30
   4  -9   5    0.23    0.30
   4  -9   5    0.08    0.32
  -5   9  -5    0.56    0.45
  -5   9  -5    0.42    0.37
   5  -9   5    0.94    0.51
   5  -9   5    0.53    0.39
  -6   9  -5    1.46    0.57
  -6   9  -5    2.85    0.82
   6  -9   5    1.15    0.59
   6  -9   5    1.42    0.58
  -7   9  -5    2.76    0.80
  -7   9  -5    3.01    0.78
   7  -9   5    3.51    0.81
   7  -9   5    2.81    0.83
   6   8  -5    3.61    0.66
   6   8  -5    3.93    0.51
  -6  -8   5    3.29    0.51
   5   8  -5    0.29    0.30
   5   8  -5    0.25    0.20
  -5  -8   5   -0.35    0.38
  -5  -8   5    0.14    0.20
   4   8  -5    7.61    0.78
   4   8  -5    7.81    0.94
  -4  -8   5    9.64    0.88
  -4  -8   5    6.73    0.77
  -4  -8   5    6.09    1.09
   3   8  -5   13.01    0.93
   3   8  -5   14.16    1.27
  -3  -8   5   13.57    1.63
  -3  -8   5   14.55    1.01
  -3  -8   5   14.55    1.04
   2   8  -5    0.89    0.35
   2   8  -5    0.97    0.32
   2   8  -5    1.85    0.46
  -2  -8   5    1.12    0.56
  -2  -8   5    1.38    0.45
  -2  -8   5    1.59    0.42
   1   8  -5    0.05    0.20
   1   8  -5    0.28    0.28
   1   8  -5   -0.03    0.20
  -1  -8   5    0.40    0.16
  -1  -8   5    0.43    0.30
  -1  -8   5    0.81    0.47
  -1  -8   5    0.64    0.30
  -1  -8   5    0.17    0.16
   0   8  -5    0.76    0.31
   0   8  -5    0.74    0.35
   0   8  -5    0.80    0.35
   0  -8   5    1.19    0.33
   0  -8   5    0.71    0.48
   0  -8   5    0.91    0.42
  -1   8  -5    0.00    0.22
  -1   8  -5   -0.10    0.17
   1  -8   5    0.27    0.32
   1  -8   5    0.11    0.41
   1  -8   5   -0.02    0.21
  -2   8  -5   13.33    1.29
  -2   8  -5   12.69    1.23
   2  -8   5   10.29    1.47
   2  -8   5   12.37    1.13
   2  -8   5   10.06    1.25
  -3   8  -5   19.12    1.39
  -3   8  -5   19.85    1.39
  -3   8  -5   20.28    1.49
   3  -8   5   24.12    1.42
   3  -8   5   21.18    1.58
  -4   8  -5   20.25    1.43
  -4   8  -5   19.95    1.52
   4  -8   5   17.93    1.75
   4  -8   5   18.17    1.31
  -5   8  -5   27.81    1.92
  -5   8  -5   26.26    1.72
   5  -8   5   30.02    2.01
   5  -8   5   27.52    1.73
  -6   8  -5   16.33    1.59
  -6   8  -5   11.42    1.50
   6  -8   5   14.72    1.53
   6  -8   5   19.53    1.93
  -7   8  -5    8.96    1.18
  -7   8  -5    8.48    1.35
  -7   8  -5   12.53    1.51
   7  -8   5    8.77    1.38
   7  -8   5    7.22    1.12
  -8   8  -5    9.01    1.19
  -8   8  -5   14.79    1.62
  -8   8  -5    9.74    1.47
   8  -8   5    6.74    1.14
   7   7  -5    1.03    0.25
   7   7  -5    0.70    0.38
  -7  -7   5    1.11    0.28
  -7  -7   5    1.41    0.63
   6   7  -5    3.36    0.62
   6   7  -5    2.57    0.39
  -6  -7   5    2.92    0.82
  -6  -7   5    3.04    0.45
   5   7  -5    5.79    0.61
   5   7  -5    5.66    0.78
  -5  -7   5    6.29    1.12
  -5  -7   5    5.27    0.56
  -5  -7   5    5.34    0.62
   4   7  -5   10.01    0.71
   4   7  -5    9.99    1.02
  -4  -7   5    9.32    0.85
  -4  -7   5    8.47    1.25
  -4  -7   5    8.25    0.79
   3   7  -5   34.05    1.56
   3   7  -5   33.14    1.51
   3   7  -5   31.66    1.63
  -3  -7   5   31.42    1.53
  -3  -7   5   33.72    1.63
  -3  -7   5   33.85    2.11
   2   7  -5   22.88    1.23
   2   7  -5   21.08    1.17
   2   7  -5   19.73    1.22
  -2  -7   5   21.64    1.31
  -2  -7   5   23.32    1.26
  -2  -7   5   17.38    1.75
   1   7  -5   36.11    1.68
   1   7  -5   34.58    1.70
   1   7  -5   37.29    1.71
  -1  -7   5   36.28    1.73
  -1  -7   5   35.84    1.43
  -1  -7   5   35.66    1.85
  -1  -7   5   35.43    2.16
  -1  -7   5   32.97    1.40
   0   7  -5   24.51    1.37
   0   7  -5   22.55    1.33
   0   7  -5   25.63    1.39
   0  -7   5   26.23    1.44
   0  -7   5   23.43    1.49
   0  -7   5   27.77    1.85
  -1   7  -5    5.93    0.79
  -1   7  -5    7.13    0.90
  -1   7  -5    7.99    0.91
  -1   7  -5    6.90    0.84
   1  -7   5    8.67    0.85
   1  -7   5    7.48    1.17
   1  -7   5    7.55    0.99
   1  -7   5    7.14    0.89
  -2   7  -5   16.84    1.18
  -2   7  -5   19.52    1.26
  -2   7  -5   17.05    1.26
   2  -7   5   18.87    1.17
   2  -7   5   20.01    1.42
  -3   7  -5    9.93    1.15
  -3   7  -5    9.29    1.06
  -3   7  -5   12.00    1.15
   3  -7   5    9.83    1.20
   3  -7   5   10.83    1.09
  -4   7  -5    1.78    0.53
  -4   7  -5    1.43    0.43
   4  -7   5    1.23    0.50
   4  -7   5    1.08    0.39
  -5   7  -5    9.89    1.18
  -5   7  -5    9.46    1.25
   5  -7   5    9.47    1.10
   5  -7   5   11.21    1.38
  -6   7  -5    0.52    0.38
  -6   7  -5    0.58    0.41
  -6   7  -5    0.52    0.36
   6  -7   5    0.73    0.36
   6  -7   5    0.44    0.38
  -7   7  -5    1.12    0.56
  -7   7  -5    2.19    0.63
  -7   7  -5    1.47    0.54
   7  -7   5    2.17    0.65
  -8   7  -5    8.75    1.14
  -8   7  -5    6.48    1.02
  -8   7  -5    5.91    1.14
   8  -7   5    7.51    1.14
   8   6  -5    2.41    0.29
   8   6  -5    2.25    0.54
  -8  -6   5    2.00    0.74
  -8  -6   5    2.58    0.37
   7   6  -5   12.46    0.65
   7   6  -5   11.48    1.14
  -7  -6   5    9.58    1.41
  -7  -6   5   11.17    0.70
   6   6  -5   10.66    0.65
   6   6  -5   10.38    1.02
  -6  -6   5   10.65    0.70
  -6  -6   5   11.88    1.52
   5   6  -5    2.04    0.34
   5   6  -5    2.81    0.54
  -5  -6   5    2.65    0.40
  -5  -6   5    2.59    0.38
  -5  -6   5    1.45    0.57
   4   6  -5   12.39    0.90
   4   6  -5   10.25    0.70
  -4  -6   5   12.29    0.80
  -4  -6   5    9.96    0.70
  -4  -6   5   12.66    1.45
   3   6  -5    1.61    0.36
   3   6  -5    1.47    0.34
   3   6  -5    1.31    0.29
   3   6  -5    0.79    0.30
  -3  -6   5    1.49    0.37
  -3  -6   5    1.28    0.52
  -3  -6   5    1.62    0.35
   2   6  -5    0.91    0.29
   2   6  -5    1.30    0.36
   2   6  -5    0.35    0.20
  -2  -6   5    0.62    0.25
  -2  -6   5    0.81    0.15
  -2  -6   5    0.73    0.30
  -2  -6   5    0.52    0.12
  -2  -6   5    0.54    0.40
   1   6  -5    3.93    0.58
   1   6  -5    4.51    0.58
   1   6  -5    4.51    0.60
  -1  -6   5    3.35    0.52
  -1  -6   5    3.89    0.45
  -1  -6   5    4.26    0.66
  -1  -6   5    3.78    0.82
   0   6  -5   19.38    1.13
   0   6  -5   19.66    1.17
   0   6  -5   18.76    1.12
   0   6  -5   19.81    1.14
   0  -6   5   19.87    1.02
   0  -6   5   19.69    1.28
   0  -6   5   18.97    1.14
   0  -6   5   17.99    1.03
   0  -6   5   22.15    1.55
  -1   6  -5   20.73    1.20
  -1   6  -5   18.65    1.11
  -1   6  -5   19.95    1.18
  -1   6  -5   20.04    1.24
   1  -6   5   19.63    1.31
   1  -6   5   19.17    1.19
   1  -6   5   19.21    1.09
  -2   6  -5   11.61    1.07
  -2   6  -5   11.79    1.18
  -2   6  -5   12.30    1.14
   2  -6   5   12.23    1.14
   2  -6   5   10.46    1.17
   2  -6   5   12.68    0.89
  -3   6  -5   47.13    2.17
  -3   6  -5   49.37    2.21
  -3   6  -5   47.04    2.30
   3  -6   5   45.94    2.39
   3  -6   5   50.51    2.16
   3  -6   5   50.31    2.19
  -4   6  -5   11.65    1.16
  -4   6  -5    8.93    1.09
   4  -6   5    9.70    1.04
   4  -6   5   11.51    1.30
  -5   6  -5    4.21    0.79
  -5   6  -5    5.15    0.83
  -5   6  -5    4.37    0.73
   5  -6   5    5.23    0.79
   5  -6   5    4.18    0.79
  -6   6  -5    3.53    0.70
  -6   6  -5    2.89    0.64
  -6   6  -5    3.28    0.73
  -6   6  -5    3.53    0.67
   6  -6   5    3.75    0.81
   6  -6   5    2.44    0.61
  -7   6  -5    3.89    0.74
  -7   6  -5    3.94    0.88
  -7   6  -5    2.54    0.62
  -7   6  -5    2.69    0.62
   7  -6   5    3.49    0.72
  -8   6  -5    0.49    0.43
  -8   6  -5    0.64    0.37
  -8   6  -5    1.13    0.46
   8  -6   5    0.72    0.45
  -9   6  -5    0.47    0.33
  -9   6  -5    0.48    0.48
  -9   6  -5    1.02    0.45
   9  -6   5    1.19    0.57
   9   5  -5    0.16    0.27
   9   5  -5    0.10    0.12
  -9  -5   5    0.19    0.17
   8   5  -5    0.08    0.12
   8   5  -5    0.75    0.35
  -8  -5   5    0.43    0.19
  -8  -5   5    0.53    0.43
  -8  -5   5    0.57    0.19
   7   5  -5   19.10    0.90
   7   5  -5   21.19    1.29
  -7  -5   5   21.68    0.97
  -7  -5   5   20.59    0.96
  -7  -5   5   18.38    1.87
   6   5  -5    6.86    0.82
   6   5  -5    8.56    0.55
  -6  -5   5    9.16    1.27
  -6  -5   5    8.66    0.58
  -6  -5   5    8.49    0.57
   5   5  -5   16.12    1.04
   5   5  -5   16.17    0.82
  -5  -5   5   15.94    0.86
  -5  -5   5   17.31    1.64
  -5  -5   5   14.74    0.81
  -5  -5   5   15.58    0.84
   4   5  -5    1.48    0.38
   4   5  -5    1.55    0.30
   4   5  -5    1.94    0.34
  -4  -5   5    1.88    0.34
  -4  -5   5    1.30    0.32
  -4  -5   5    1.98    0.34
  -4  -5   5    1.64    0.52
   3   5  -5   25.96    1.18
   3   5  -5   27.74    1.34
   3   5  -5   27.93    1.20
  -3  -5   5   23.12    1.15
  -3  -5   5   26.67    1.33
  -3  -5   5   25.29    1.64
  -3  -5   5   25.41    1.20
   2   5  -5   52.12    2.03
   2   5  -5   55.05    2.04
   2   5  -5   52.63    2.08
  -2  -5   5   54.27    1.77
  -2  -5   5   53.06    2.24
  -2  -5   5   52.11    2.03
  -2  -5   5   56.86    2.61
  -2  -5   5   54.08    2.05
   1   5  -5   27.55    1.32
   1   5  -5   26.95    1.30
   1   5  -5   26.76    1.31
   1   5  -5   27.01    1.35
   1   5  -5   26.25    1.29
  -1  -5   5   29.89    1.37
  -1  -5   5   28.97    1.21
  -1  -5   5   28.49    1.71
  -1  -5   5   28.37    1.15
  -1  -5   5   26.58    1.45
   0   5  -5   33.79    1.54
   0   5  -5   33.85    1.59
   0   5  -5   32.45    1.50
   0   5  -5   33.23    1.49
   0  -5   5   36.69    1.60
   0  -5   5   36.11    2.01
   0  -5   5   32.77    1.47
   0  -5   5   32.73    1.42
   0  -5   5   32.56    1.70
   0  -5   5   33.76    1.46
  -1   5  -5   18.36    1.13
  -1   5  -5   18.86    1.09
  -1   5  -5   17.67    1.01
  -1   5  -5   18.88    1.10
   1  -5   5   18.68    1.02
   1  -5   5   17.63    1.02
   1  -5   5   18.86    1.10
   1  -5   5   17.48    1.20
  -2   5  -5    3.69    0.57
  -2   5  -5    4.10    0.64
  -2   5  -5    2.42    0.47
   2  -5   5    3.86    0.58
   2  -5   5    2.63    0.58
   2  -5   5    3.04    0.52
   2  -5   5    3.28    0.52
   2  -5   5    4.06    0.60
  -3   5  -5   -0.04    0.18
  -3   5  -5    0.08    0.19
  -3   5  -5    0.08    0.21
   3  -5   5   -0.15    0.14
   3  -5   5   -0.16    0.14
   3  -5   5   -0.03    0.14
   3  -5   5   -0.06    0.20
  -4   5  -5    0.35    0.26
  -4   5  -5    0.29    0.29
  -4   5  -5    0.29    0.27
   4  -5   5   -0.08    0.21
   4  -5   5    0.43    0.27
   4  -5   5    0.24    0.22
  -5   5  -5   14.92    1.14
  -5   5  -5   14.32    1.03
  -5   5  -5   11.47    1.28
  -5   5  -5   13.71    1.25
   5  -5   5   11.59    1.14
   5  -5   5   11.11    1.26
   5  -5   5   13.67    1.25
  -6   5  -5   60.21    2.69
  -6   5  -5   57.87    2.51
  -6   5  -5   52.39    2.65
  -6   5  -5   53.22    2.40
   6  -5   5   57.23    2.55
   6  -5   5   51.12    2.46
   6  -5   5   50.91    2.65
  -7   5  -5   33.15    1.85
  -7   5  -5   29.24    1.96
  -7   5  -5   35.04    1.79
  -7   5  -5   35.42    1.86
   7  -5   5   30.40    1.83
   7  -5   5   33.49    1.90
  -8   5  -5    4.80    0.78
  -8   5  -5    3.77    0.66
  -8   5  -5    4.58    0.93
   8  -5   5    5.09    0.87
   8  -5   5    3.90    0.81
  -9   5  -5   16.26    1.15
  -9   5  -5   16.86    1.22
  -9   5  -5   15.79    1.81
   9  -5   5   14.74    1.57
   9  -5   5   13.87    1.50
   9   4  -5   15.34    0.77
   9   4  -5   13.86    1.30
  -9  -4   5   15.02    0.83
   8   4  -5    4.73    0.46
   8   4  -5    5.66    0.80
  -8  -4   5    3.68    0.86
  -8  -4   5    5.53    0.53
  -8  -4   5    4.46    0.48
   7   4  -5    0.31    0.16
   7   4  -5    1.26    0.39
  -7  -4   5    0.57    0.21
  -7  -4   5    1.26    0.55
  -7  -4   5    0.45    0.19
   6   4  -5    0.68    0.28
   6   4  -5    0.30    0.16
  -6  -4   5    0.45    0.17
  -6  -4   5   -0.44    0.18
  -6  -4   5    0.35    0.18
  -6  -4   5    0.26    0.15
   5   4  -5    3.76    0.41
   5   4  -5    3.20    0.52
  -5  -4   5    3.53    0.41
  -5  -4   5    2.43    0.35
  -5  -4   5    3.13    0.69
  -5  -4   5    4.01    0.48
   4   4  -5    0.04    0.12
   4   4  -5   -0.03    0.14
   4   4  -5   -0.06    0.09
   4   4  -5    0.11    0.13
  -4  -4   5    0.15    0.16
  -4  -4   5   -0.06    0.09
  -4  -4   5    0.05    0.12
  -4  -4   5   -0.05    0.24
   3   4  -5   54.07    2.03
   3   4  -5   59.01    2.05
   3   4  -5   56.31    2.15
   3   4  -5   59.08    2.06
  -3  -4   5   54.61    2.03
  -3  -4   5   56.99    2.26
  -3  -4   5   60.50    2.09
  -3  -4   5   53.58    2.52
   2   4  -5  122.85    4.05
   2   4  -5  130.96    4.21
   2   4  -5  131.68    4.07
   2   4  -5  131.05    4.09
   2   4  -5  132.72    4.10
  -2  -4   5  127.25    4.60
  -2  -4   5  126.09    3.86
  -2  -4   5  126.47    4.05
  -2  -4   5  128.71    3.75
  -2  -4   5  128.35    4.06
  -2  -4   5  123.73    4.39
   1   4  -5  121.60    3.89
   1   4  -5  118.89    3.95
   1   4  -5  129.09    4.14
   1   4  -5  122.87    3.95
  -1  -4   5  119.01    3.84
  -1  -4   5  123.08    4.31
  -1  -4   5  134.06    4.52
  -1  -4   5  120.74    3.80
  -1  -4   5  121.75    3.95
  -1  -4   5  122.09    3.96
  -1  -4   5  124.63    3.88
   0   4  -5   58.74    2.18
   0   4  -5   55.14    2.07
   0   4  -5   56.83    2.17
   0   4  -5   53.93    2.22
   0   4  -5   57.77    2.18
   0  -4   5   54.77    2.09
   0  -4   5   56.85    2.41
   0  -4   5   57.17    2.18
   0  -4   5   59.06    2.13
   0  -4   5   57.51    2.08
  -1   4  -5   59.34    2.30
  -1   4  -5   60.16    2.20
  -1   4  -5   58.28    2.40
  -1   4  -5   59.47    2.31
  -1   4  -5   62.15    2.29
  -1   4  -5   63.98    2.28
   1  -4   5   61.46    2.56
   1  -4   5   60.35    2.32
   1  -4   5   56.30    2.21
   1  -4   5   59.54    2.28
   1  -4   5   61.60    2.28
  -2   4  -5   11.91    0.88
  -2   4  -5   11.09    0.80
  -2   4  -5   10.46    0.78
  -2   4  -5   10.00    0.76
  -2   4  -5   12.10    0.85
   2  -4   5   10.09    0.75
   2  -4   5   10.40    0.94
   2  -4   5   12.87    0.98
   2  -4   5   13.04    0.88
   2  -4   5   11.28    0.80
  -3   4  -5   21.68    1.24
  -3   4  -5   22.32    1.26
  -3   4  -5   23.68    1.34
  -3   4  -5   24.47    1.27
  -3   4  -5   24.48    1.28
   3  -4   5   20.57    1.20
   3  -4   5   19.19    1.34
   3  -4   5   22.93    1.26
   3  -4   5   22.16    1.24
  -4   4  -5   49.53    2.11
  -4   4  -5   48.10    2.07
  -4   4  -5   46.77    2.09
  -4   4  -5   45.37    2.19
   4  -4   5   44.98    2.06
   4  -4   5   46.43    2.33
   4  -4   5   51.97    2.15
  -5   4  -5    4.19    0.67
  -5   4  -5    3.22    0.58
  -5   4  -5    5.32    0.70
  -5   4  -5    3.53    0.68
  -5   4  -5    4.19    0.68
   5  -4   5    4.54    0.69
   5  -4   5    5.22    0.83
   5  -4   5    4.97    0.70
  -6   4  -5   -0.09    0.20
  -6   4  -5   -0.13    0.25
  -6   4  -5    0.36    0.27
  -6   4  -5   -0.12    0.16
  -6   4  -5   -0.02    0.19
   6  -4   5   -0.18    0.19
   6  -4   5    0.11    0.21
   6  -4   5   -0.12    0.23
  -7   4  -5   -0.06    0.19
  -7   4  -5    0.40    0.25
  -7   4  -5    0.16    0.26
  -7   4  -5   -0.19    0.20
   7  -4   5   -0.07    0.19
   7  -4   5   -0.13    0.24
  -8   4  -5    0.08    0.30
  -8   4  -5    0.02    0.20
  -8   4  -5    0.17    0.30
  -8   4  -5    0.09    0.20
   8  -4   5   -0.09    0.29
   8  -4   5   -0.02    0.24
  -9   4  -5    1.51    0.41
  -9   4  -5    1.00    0.31
  -9   4  -5    1.52    0.56
   9  -4   5    0.78    0.43
   9  -4   5    0.87    0.45
  10   3  -5    3.61    0.47
  10   3  -5    4.31    0.50
 -10  -3   5    4.57    0.57
   9   3  -5    8.56    0.60
   9   3  -5    9.03    0.62
  -9  -3   5   10.00    0.69
   8   3  -5    0.05    0.13
   8   3  -5    0.15    0.13
  -8  -3   5   -0.02    0.14
   7   3  -5    2.79    0.37
  -7  -3   5    2.47    0.38
  -7  -3   5    3.21    0.40
  -7  -3   5    3.14    0.74
  -7  -3   5    3.07    0.41
   6   3  -5   55.62    2.01
  -6  -3   5   59.72    2.70
  -6  -3   5   59.80    2.21
  -6  -3   5   56.73    2.01
  -6  -3   5   58.16    2.03
   5   3  -5   43.02    1.59
   5   3  -5   40.07    1.55
   5   3  -5   43.72    1.58
  -5  -3   5   42.31    1.76
  -5  -3   5   40.25    2.09
  -5  -3   5   43.38    1.58
  -5  -3   5   41.89    1.59
   4   3  -5   41.13    1.74
   4   3  -5   43.81    1.62
   4   3  -5   45.00    1.61
   4   3  -5   46.09    1.62
  -4  -3   5   41.09    1.80
  -4  -3   5   42.48    1.59
  -4  -3   5   42.53    1.61
  -4  -3   5   41.57    2.05
   3   3  -5    4.14    0.51
   3   3  -5    4.82    0.50
   3   3  -5    3.93    0.44
   3   3  -5    3.43    0.41
   3   3  -5    4.64    0.47
  -3  -3   5    3.90    0.24
  -3  -3   5    4.58    0.47
  -3  -3   5    3.92    0.44
  -3  -3   5    3.92    0.55
  -3  -3   5    3.90    0.67
   2   3  -5   27.34    1.21
   2   3  -5   28.79    1.20
   2   3  -5   26.86    1.18
   2   3  -5   27.23    1.21
   2   3  -5   27.30    1.19
  -2  -3   5   27.66    1.18
  -2  -3   5   24.77    1.47
  -2  -3   5   25.98    1.07
  -2  -3   5   26.33    1.08
  -2  -3   5   26.85    1.19
  -2  -3   5   28.62    1.41
  -2  -3   5   28.40    1.04
   1   3  -5   46.05    1.82
   1   3  -5   47.23    1.72
   1   3  -5   45.54    1.75
  -1  -3   5   45.94    1.67
  -1  -3   5   46.84    1.70
  -1  -3   5   45.81    2.01
  -1  -3   5   45.81    1.77
  -1  -3   5   45.44    2.08
  -1  -3   5   44.94    1.70
  -1  -3   5   43.62    1.73
   0   3  -5    8.37    0.56
   0   3  -5    7.66    0.69
   0   3  -5    7.05    0.67
   0   3  -5    7.73    0.73
   0  -3   5    7.37    0.66
   0  -3   5    7.21    0.67
   0  -3   5    7.33    0.56
   0  -3   5    5.96    0.74
   0  -3   5    7.30    0.69
  -1   3  -5   24.20    1.16
  -1   3  -5   24.38    1.08
  -1   3  -5   25.21    1.21
  -1   3  -5   23.38    1.17
  -1   3  -5   24.79    1.20
  -1   3  -5   22.85    1.22
   1  -3   5   24.48    1.37
   1  -3   5   24.03    1.17
   1  -3   5   22.97    1.14
   1  -3   5   25.06    1.19
   1  -3   5   23.21    1.18
  -2   3  -5    6.87    0.62
  -2   3  -5    6.66    0.72
  -2   3  -5    6.37    0.72
  -2   3  -5    5.73    0.65
  -2   3  -5    8.88    0.85
  -2   3  -5    7.96    0.76
   2  -3   5    8.12    0.79
   2  -3   5    6.51    0.70
   2  -3   5    6.21    0.67
   2  -3   5    6.74    0.83
  -3   3  -5   18.35    1.06
  -3   3  -5   20.03    1.16
  -3   3  -5   18.86    1.08
  -3   3  -5   15.78    1.00
  -3   3  -5   18.36    1.05
   3  -3   5   16.85    1.03
   3  -3   5   16.37    1.16
   3  -3   5   18.75    1.07
   3  -3   5   17.47    1.04
  -4   3  -5   76.74    3.06
  -4   3  -5   78.12    2.90
  -4   3  -5   78.21    2.85
  -4   3  -5   80.58    2.90
   4  -3   5   74.51    3.15
   4  -3   5   77.11    2.89
   4  -3   5   71.81    2.85
  -5   3  -5   31.92    1.65
  -5   3  -5   34.90    1.58
  -5   3  -5   33.07    1.60
  -5   3  -5   32.31    1.74
  -5   3  -5   34.20    1.69
   5  -3   5   31.43    1.64
   5  -3   5   33.78    1.67
   5  -3   5   31.53    1.79
  -6   3  -5   12.02    0.86
  -6   3  -5   10.12    0.98
  -6   3  -5   10.50    1.10
  -6   3  -5   11.67    1.22
  -6   3  -5   10.74    0.87
   6  -3   5   11.32    1.08
   6  -3   5   11.11    1.09
  -7   3  -5   20.11    1.19
  -7   3  -5   17.86    1.38
  -7   3  -5   16.07    1.23
  -7   3  -5   21.19    1.18
   7  -3   5   19.16    1.31
   7  -3   5   19.34    1.31
  -8   3  -5    7.00    1.03
  -8   3  -5   10.42    1.15
  -8   3  -5    9.59    0.94
  -8   3  -5   10.14    0.73
   8  -3   5   10.84    1.19
   8  -3   5    9.69    1.15
  -9   3  -5    0.87    0.30
  -9   3  -5    1.15    0.50
  -9   3  -5    0.83    0.48
   9  -3   5    0.61    0.39
   9  -3   5    0.45    0.35
  10   2  -5    0.12    0.19
 -10  -2   5   -0.04    0.18
   9   2  -5   -0.04    0.15
  -9  -2   5   -0.06    0.15
   8   2  -5    3.04    0.43
  -8  -2   5    3.41    0.47
  -8  -2   5    2.63    0.45
   7   2  -5    9.94    0.65
  -7  -2   5    9.31    0.64
  -7  -2   5   10.40    0.75
  -7  -2   5   10.39    0.67
  -7  -2   5    7.51    1.01
   6   2  -5    6.00    0.57
   6   2  -5    5.81    0.55
  -6  -2   5    6.35    0.58
  -6  -2   5    6.97    0.51
  -6  -2   5    7.69    0.75
  -6  -2   5    7.42    0.97
   5   2  -5   34.59    1.36
   5   2  -5   33.44    1.36
   5   2  -5   33.05    1.36
   5   2  -5   34.74    1.37
  -5  -2   5   36.26    1.60
  -5  -2   5   34.88    1.38
  -5  -2   5   34.71    1.76
  -5  -2   5   33.69    1.35
   4   2  -5   25.30    1.10
   4   2  -5   25.64    1.09
   4   2  -5   26.33    1.11
  -4  -2   5   26.33    1.10
  -4  -2   5   24.87    1.28
  -4  -2   5   23.94    1.09
  -4  -2   5   25.09    1.41
   3   2  -5    0.56    0.19
   3   2  -5    0.33    0.16
   3   2  -5    0.49    0.17
  -3  -2   5    0.47    0.16
  -3  -2   5    0.49    0.24
  -3  -2   5    0.63    0.31
  -3  -2   5    0.39    0.11
  -3  -2   5    0.56    0.14
  -3  -2   5    0.43    0.14
  -3  -2   5    0.31    0.15
   2   2  -5   34.55    1.45
   2   2  -5   36.69    1.45
   2   2  -5   37.59    1.48
  -2  -2   5   39.08    1.47
  -2  -2   5   35.08    1.39
  -2  -2   5   38.06    1.40
  -2  -2   5   35.84    1.68
  -2  -2   5   38.55    1.49
  -2  -2   5   41.07    1.80
  -2  -2   5   39.59    1.38
   1   2  -5   97.50    3.09
   1   2  -5   99.51    3.22
   1   2  -5   99.47    3.23
  -1  -2   5   99.93    3.17
  -1  -2   5   99.88    3.23
  -1  -2   5   99.03    3.14
  -1  -2   5  102.49    3.49
  -1  -2   5   98.75    3.55
  -1  -2   5   96.73    3.52
  -1  -2   5   93.17    3.17
   0   2  -5  141.54    4.38
   0   2  -5  137.15    4.36
   0   2  -5  136.13    4.14
   0   2  -5  146.67    4.32
   0   2  -5  141.06    4.38
   0  -2   5  135.42    4.34
   0  -2   5  139.76    4.35
   0  -2   5  141.14    4.78
   0  -2   5  141.14    4.36
   0  -2   5  135.22    4.73
   0  -2   5  132.60    4.29
  -1   2  -5   44.75    1.77
  -1   2  -5   46.23    1.86
  -1   2  -5   44.31    1.77
  -1   2  -5   45.88    1.74
  -1   2  -5   44.77    1.77
  -1   2  -5   46.32    1.78
  -1   2  -5   43.34    1.58
   1  -2   5   47.60    1.78
   1  -2   5   44.20    1.76
   1  -2   5   44.73    2.07
   1  -2   5   43.26    2.00
   1  -2   5   40.25    1.70
   1  -2   5   44.49    1.75
  -2   2  -5   72.37    2.74
  -2   2  -5   72.66    2.58
  -2   2  -5   68.50    2.32
  -2   2  -5   72.68    2.59
  -2   2  -5   68.90    2.53
  -2   2  -5   72.23    2.59
   2  -2   5   75.50    2.61
   2  -2   5   72.93    2.59
   2  -2   5   70.75    2.99
   2  -2   5   68.61    2.54
   2  -2   5   69.85    2.56
   2  -2   5   76.73    2.91
  -3   2  -5    9.00    0.68
  -3   2  -5   10.13    0.73
  -3   2  -5    8.98    0.50
  -3   2  -5    8.97    0.89
  -3   2  -5    8.30    0.78
  -3   2  -5    9.21    0.84
   3  -2   5   10.57    0.73
   3  -2   5    8.03    0.77
   3  -2   5    8.39    0.93
   3  -2   5   10.30    1.19
  -4   2  -5   13.87    0.93
  -4   2  -5   14.51    0.88
  -4   2  -5   11.14    0.82
  -4   2  -5   15.66    1.01
   4  -2   5   12.46    1.18
   4  -2   5   13.78    0.90
   4  -2   5   12.30    1.37
   4  -2   5   12.48    0.87
  -5   2  -5   11.21    1.08
  -5   2  -5   11.29    0.82
  -5   2  -5   11.44    0.76
  -5   2  -5   10.49    0.79
  -5   2  -5   10.15    0.98
   5  -2   5    9.78    0.97
   5  -2   5   10.90    1.33
   5  -2   5   10.47    0.97
   5  -2   5   13.04    1.25
  -6   2  -5    6.41    0.83
  -6   2  -5    4.85    0.59
  -6   2  -5    4.74    0.61
  -6   2  -5    5.25    0.78
   6  -2   5    6.23    0.82
   6  -2   5    5.23    0.70
  -7   2  -5    7.29    0.90
  -7   2  -5    5.95    0.61
  -7   2  -5    5.87    0.66
  -7   2  -5    6.23    0.90
   7  -2   5    5.67    0.81
   7  -2   5    4.70    0.73
  -8   2  -5    5.00    0.56
  -8   2  -5    5.19    0.87
  -8   2  -5    5.58    0.84
  -8   2  -5    4.41    0.52
   8  -2   5    4.51    0.78
   8  -2   5    4.70    0.80
  -9   2  -5    3.75    0.79
  -9   2  -5    3.45    0.75
   9  -2   5    3.94    0.79
   9  -2   5    5.08    0.85
  11   1  -5    2.87    0.53
 -11  -1   5    2.79    0.56
  10   1  -5   15.80    1.02
 -10  -1   5   16.33    1.08
   9   1  -5   13.15    0.89
  -9  -1   5   14.20    0.94
  -9  -1   5   13.96    1.00
   8   1  -5   53.44    2.06
  -8  -1   5   50.30    2.23
  -8  -1   5   52.47    2.07
   7   1  -5    7.30    0.68
   7   1  -5    8.29    0.74
  -7  -1   5    8.76    0.90
  -7  -1   5    7.87    0.72
   6   1  -5   13.85    0.80
   6   1  -5   14.79    0.82
  -6  -1   5   13.56    0.80
  -6  -1   5   14.67    0.82
  -6  -1   5   15.56    1.11
  -6  -1   5   13.86    0.95
   5   1  -5   37.73    1.55
   5   1  -5   40.18    1.56
   5   1  -5   42.20    1.59
  -5  -1   5   40.38    1.57
  -5  -1   5   40.24    1.81
  -5  -1   5   39.57    1.84
  -5  -1   5   40.53    1.57
   4   1  -5    4.30    0.47
   4   1  -5    6.49    0.56
   4   1  -5    5.14    0.52
   4   1  -5    4.81    0.50
  -4  -1   5    4.81    0.62
  -4  -1   5    4.75    0.50
  -4  -1   5    6.50    0.59
  -4  -1   5    5.93    0.70
  -4  -1   5    5.66    0.36
   3   1  -5    7.69    0.54
   3   1  -5    8.76    0.60
   3   1  -5    8.66    0.56
  -3  -1   5    8.09    0.54
  -3  -1   5    8.41    0.50
  -3  -1   5    7.34    0.77
  -3  -1   5    7.44    0.47
  -3  -1   5    7.56    0.54
  -3  -1   5    7.38    0.52
  -3  -1   5    6.76    0.43
  -3  -1   5    7.48    0.79
   2   1  -5   72.57    2.38
   2   1  -5   66.96    2.35
  -2  -1   5   67.14    2.31
  -2  -1   5   69.37    2.50
  -2  -1   5   67.24    2.35
  -2  -1   5   71.61    2.56
  -2  -1   5   70.52    2.27
  -2  -1   5   61.86    2.30
  -2  -1   5   69.80    2.66
  -2  -1   5   70.31    2.31
   1   1  -5    1.37    0.28
   1   1  -5    1.77    0.32
   1   1  -5    1.13    0.22
  -1  -1   5    1.70    0.30
  -1  -1   5    1.83    0.41
  -1  -1   5    2.08    0.32
  -1  -1   5    1.20    0.25
  -1  -1   5    1.67    0.38
  -1  -1   5    1.23    0.27
   0   1  -5   76.80    2.39
   0   1  -5   77.21    2.58
   0   1  -5   75.46    2.61
   0   1  -5   78.25    2.63
   0   1  -5   76.59    2.62
   0  -1   5   77.65    2.60
   0  -1   5   74.36    2.57
   0  -1   5   74.91    2.60
   0  -1   5   77.29    2.94
   0  -1   5   78.69    2.63
   0  -1   5   73.47    2.92
  -1   1  -5  289.46    8.17
  -1   1  -5  265.73    7.77
  -1   1  -5  285.19    8.25
  -1   1  -5  274.95    8.20
   1  -1   5  283.33    8.23
   1  -1   5  287.06    8.80
   1  -1   5  282.87    8.86
   1  -1   5  276.55    8.19
   1  -1   5  266.46    8.14
  -2   1  -5   92.80    3.07
  -2   1  -5   87.86    3.06
  -2   1  -5   91.57    3.07
  -2   1  -5   92.93    3.08
   2  -1   5   86.89    3.52
   2  -1   5   91.53    3.08
   2  -1   5   91.51    3.06
   2  -1   5   88.74    3.08
   2  -1   5   82.79    3.35
   2  -1   5   95.70    3.11
  -3   1  -5    0.16    0.16
  -3   1  -5    0.21    0.15
  -3   1  -5    0.24    0.19
  -3   1  -5    1.61    0.35
  -3   1  -5    0.15    0.14
  -3   1  -5    0.20    0.17
   3  -1   5    0.31    0.23
   3  -1   5    0.17    0.24
   3  -1   5    0.19    0.18
   3  -1   5    0.00    0.15
  -4   1  -5    4.18    0.51
  -4   1  -5    4.20    0.59
  -4   1  -5    3.91    0.50
  -4   1  -5    4.44    0.54
  -4   1  -5    4.08    0.53
  -4   1  -5    3.14    0.54
   4  -1   5    4.41    0.67
   4  -1   5    4.16    0.56
   4  -1   5    3.77    0.75
   4  -1   5    4.27    0.56
  -5   1  -5   25.69    1.26
  -5   1  -5   25.39    1.22
  -5   1  -5   25.94    1.41
  -5   1  -5   27.91    1.25
  -5   1  -5   25.30    1.17
  -5   1  -5   24.89    1.32
   5  -1   5   23.51    1.68
   5  -1   5   24.64    1.31
   5  -1   5   23.54    1.28
  -6   1  -5   14.83    0.85
  -6   1  -5   15.74    1.06
  -6   1  -5   14.45    1.06
  -6   1  -5   12.57    0.79
  -6   1  -5   13.57    0.78
   6  -1   5   11.34    1.46
   6  -1   5   14.09    0.98
   6  -1   5   13.62    0.97
  -7   1  -5    0.59    0.33
  -7   1  -5    0.73    0.22
  -7   1  -5    0.76    0.33
  -7   1  -5    1.32    0.27
   7  -1   5    0.78    0.34
   7  -1   5    1.03    0.55
   7  -1   5    1.14    0.37
  -8   1  -5    5.11    0.79
  -8   1  -5    7.22    0.95
   8  -1   5    4.94    0.78
   8  -1   5    4.82    0.75
  -9   1  -5    1.90    0.56
  -9   1  -5    2.52    0.68
   9  -1   5    2.08    0.57
   9  -1   5    1.86    0.52
  11   0  -5    1.62    0.47
 -11   0   5    1.79    0.49
  10   0  -5    0.02    0.21
 -10   0   5    0.31    0.25
 -10   0   5   -0.01    0.29
   9   0  -5    0.59    0.29
  -9   0   5    0.41    0.34
  -9   0   5    0.73    0.32
   8   0  -5   14.21    0.93
   8   0  -5   12.48    0.91
  -8   0   5   15.74    0.98
  -8   0   5   14.57    1.09
   7   0  -5    4.27    0.55
   7   0  -5    4.99    0.62
  -7   0   5    4.52    0.68
  -7   0   5    5.79    0.66
   6   0  -5    1.39    0.32
   6   0  -5    1.61    0.33
  -6   0   5    1.52    0.33
  -6   0   5    1.55    0.15
  -6   0   5    0.84    0.32
  -6   0   5    1.55    0.15
  -6   0   5    1.85    0.35
  -6   0   5    0.89    0.35
   5   0  -5   26.54    1.27
   5   0  -5   29.60    1.30
  -5   0   5   30.09    1.06
  -5   0   5   31.64    1.33
  -5   0   5   31.30    1.46
  -5   0   5   29.71    1.31
  -5   0   5   27.24    1.48
  -5   0   5   29.84    1.12
   4   0  -5   96.65    3.11
   4   0  -5   85.36    2.95
   4   0  -5   94.98    2.99
  -4   0   5   83.61    2.92
  -4   0   5   84.84    3.26
  -4   0   5   90.19    2.77
  -4   0   5   86.90    3.04
  -4   0   5   89.04    2.88
  -4   0   5   85.38    2.81
  -4   0   5   85.89    2.81
  -4   0   5   90.90    2.95
   3   0  -5   38.03    1.48
   3   0  -5   35.69    1.47
   3   0  -5   36.52    1.47
  -3   0   5   35.22    1.52
  -3   0   5   38.16    1.52
  -3   0   5   34.46    1.67
  -3   0   5   37.19    1.38
  -3   0   5   36.25    1.42
  -3   0   5   36.32    1.47
  -3   0   5   36.43    1.41
  -3   0   5   36.97    1.47
   2   0  -5   56.67    2.06
   2   0  -5   56.72    2.07
  -2   0   5   57.75    2.21
  -2   0   5   55.90    2.09
  -2   0   5   55.67    2.00
  -2   0   5   59.85    2.05
  -2   0   5   58.71    2.08
  -2   0   5   55.47    2.33
  -2   0   5   60.64    2.08
   1   0  -5  107.58    3.52
   1   0  -5  109.26    3.48
   1   0  -5  113.83    3.54
   1   0  -5  106.09    3.51
  -1   0   5  112.37    3.91
  -1   0   5  106.94    3.79
  -1   0   5  111.98    3.49
  -1   0   5  109.37    3.52
  -1   0   5  109.64    3.50
  -1   0   5  106.73    3.49
   0   0  -5  274.42    8.26
   0   0  -5  282.63    8.30
   0   0  -5  291.31    8.22
   0   0  -5  291.71    8.30
   0   0  -5  277.54    7.82
   0   0   5  279.72    8.25
   0   0   5  282.50    8.22
   0   0   5  280.21    8.82
   0   0   5  282.50    8.28
   0   0   5  288.07    8.28
   0   0   5  275.40    8.86
  -1   0  -5   71.25    2.48
  -1   0  -5   71.38    2.51
  -1   0  -5   73.54    2.17
  -1   0  -5   69.53    2.48
  -1   0  -5   72.50    2.52
   1   0   5   69.05    2.48
   1   0   5   74.50    2.84
   1   0   5   72.67    2.50
   1   0   5   70.12    2.91
   1   0   5   76.46    2.52
   1   0   5   70.93    2.50
  -2   0  -5   16.32    0.89
  -2   0  -5   17.46    0.90
  -2   0  -5   18.25    0.94
  -2   0  -5   16.07    0.88
   2   0   5   16.97    0.92
   2   0   5   16.06    0.88
   2   0   5   17.68    1.10
   2   0   5   15.27    1.17
  -3   0  -5   10.70    0.67
  -3   0  -5   11.66    0.76
  -3   0  -5   10.49    0.66
  -3   0  -5   10.31    0.69
  -3   0  -5    8.36    0.79
  -3   0  -5   10.26    0.68
   3   0   5    8.80    1.09
   3   0   5    8.99    0.96
   3   0   5   10.01    0.69
   3   0   5    9.86    0.69
  -4   0  -5    1.11    0.32
  -4   0  -5    1.27    0.35
  -4   0  -5    1.70    0.31
  -4   0  -5    1.47    0.31
  -4   0  -5    1.92    0.37
  -4   0  -5    1.36    0.29
   4   0   5    2.16    0.49
   4   0   5    0.68    0.39
   4   0   5    1.19    0.29
   4   0   5    1.38    0.32
  -5   0  -5    1.79    0.44
  -5   0  -5    1.25    0.27
  -5   0  -5    1.70    0.29
  -5   0  -5    1.72    0.39
  -5   0  -5    1.82    0.32
  -5   0  -5    0.73    0.31
   5   0   5    1.09    0.32
   5   0   5    1.47    0.51
   5   0   5    1.35    0.34
  -6   0  -5    5.02    0.68
  -6   0  -5    5.41    0.49
  -6   0  -5    5.77    0.43
  -6   0  -5    7.18    0.84
   6   0   5    5.83    0.71
   6   0   5    3.14    0.78
   6   0   5    5.68    0.71
  -7   0  -5   28.11    1.64
  -7   0  -5   34.66    1.69
   7   0   5   30.57    1.60
   7   0   5   32.22    1.63
   7   0   5   33.70    2.18
  -8   0  -5   22.33    1.48
  -8   0  -5   24.68    1.49
   8   0   5   26.84    1.47
   8   0   5   24.99    1.92
   8   0   5   21.68    1.39
  -9   0  -5    3.89    0.71
  -9   0  -5    6.77    0.95
   9   0   5    5.53    0.83
  11  -1  -5    6.04    0.86
 -11   1   5    6.29    1.01
 -11   1   5    5.62    0.88
  10  -1  -5   19.02    1.24
 -10   1   5   17.95    1.27
 -10   1   5   20.34    1.49
   9  -1  -5   19.30    1.21
   9  -1  -5   20.44    1.26
  -9   1   5   19.58    1.24
  -9   1   5   16.72    1.33
   8  -1  -5    9.58    0.95
   8  -1  -5   10.36    0.97
  -8   1   5    9.39    0.95
  -8   1   5    9.76    1.13
   7  -1  -5   34.46    1.62
   7  -1  -5   34.69    1.60
  -7   1   5   35.94    1.64
  -7   1   5   33.50    1.84
  -7   1   5   34.42    1.23
  -7   1   5   36.07    1.23
   6  -1  -5    5.60    0.65
   6  -1  -5    5.60    0.65
  -6   1   5    6.05    0.80
  -6   1   5    6.98    0.72
  -6   1   5    6.18    0.54
  -6   1   5    6.37    0.45
   5  -1  -5    0.99    0.27
   5  -1  -5    1.00    0.28
  -5   1   5    1.22    0.27
  -5   1   5    1.24    0.29
  -5   1   5    1.01    0.27
  -5   1   5    0.84    0.25
  -5   1   5    0.57    0.29
  -5   1   5    1.02    0.23
  -5   1   5    1.44    0.26
   4  -1  -5    5.11    0.58
   4  -1  -5    4.74    0.55
  -4   1   5    4.10    0.52
  -4   1   5    4.40    0.48
  -4   1   5    4.45    0.53
  -4   1   5    3.98    0.47
  -4   1   5    4.15    0.63
  -4   1   5    5.76    0.56
  -4   1   5    4.41    0.54
  -4   1   5    4.52    0.49
   3  -1  -5    4.44    0.52
   3  -1  -5    2.55    0.41
  -3   1   5    4.15    0.61
  -3   1   5    3.48    0.47
  -3   1   5    3.49    0.40
  -3   1   5    3.83    0.47
  -3   1   5    4.00    0.52
  -3   1   5    3.20    0.40
  -3   1   5    3.45    0.43
   2  -1  -5    2.24    0.37
   2  -1  -5    2.39    0.39
   2  -1  -5    2.99    0.43
   2  -1  -5    2.06    0.35
   2  -1  -5    2.01    0.36
  -2   1   5    2.80    0.42
  -2   1   5    2.26    0.34
  -2   1   5    1.64    0.37
  -2   1   5    2.27    0.37
  -2   1   5    3.51    0.43
  -2   1   5    2.85    0.42
  -2   1   5    2.41    0.47
   1  -1  -5  194.94    6.03
   1  -1  -5  203.12    5.98
   1  -1  -5  193.53    6.01
   1  -1  -5  208.66    6.07
  -1   1   5  201.39    6.44
  -1   1   5  197.42    6.02
  -1   1   5  201.17    6.00
  -1   1   5  199.31    6.53
  -1   1   5  207.60    6.04
  -1   1   5  189.38    5.97
   0  -1  -5   40.43    1.59
   0  -1  -5   36.41    1.56
   0  -1  -5   42.37    1.62
   0  -1  -5   40.85    1.60
   0   1   5   43.24    1.62
   0   1   5   39.22    1.88
   0   1   5   39.84    1.58
   0   1   5   40.66    1.61
   0   1   5   40.49    1.61
   0   1   5   39.63    1.86
  -1  -1  -5   30.04    1.30
  -1  -1  -5   32.64    1.35
  -1  -1  -5   31.55    0.99
  -1  -1  -5   32.96    1.38
  -1  -1  -5   29.63    1.31
   1   1   5   32.04    1.35
   1   1   5   33.04    1.36
   1   1   5   30.08    1.66
   1   1   5   31.77    1.60
  -2  -1  -5   96.10    3.15
  -2  -1  -5   96.88    3.18
  -2  -1  -5   92.19    3.11
  -2  -1  -5   94.61    3.10
  -2  -1  -5  101.06    3.12
   2   1   5   88.40    3.49
   2   1   5   95.81    3.76
   2   1   5   94.87    3.16
   2   1   5   94.27    3.18
  -3  -1  -5   49.73    1.95
  -3  -1  -5   50.59    2.01
  -3  -1  -5   48.27    1.76
  -3  -1  -5   49.88    1.83
  -3  -1  -5   48.60    1.91
  -3  -1  -5   49.88    1.82
   3   1   5   48.14    1.88
   3   1   5   46.80    1.89
   3   1   5   47.18    2.38
   3   1   5   46.85    2.14
  -4  -1  -5   18.79    1.13
  -4  -1  -5   17.42    0.86
  -4  -1  -5   17.76    0.86
  -4  -1  -5   17.95    1.02
  -4  -1  -5   17.44    0.85
   4   1   5   16.38    0.97
   4   1   5   18.65    1.42
   4   1   5   19.09    1.01
  -5  -1  -5   16.06    1.10
  -5  -1  -5   15.24    0.99
  -5  -1  -5   13.82    0.68
  -5  -1  -5   15.70    0.97
  -5  -1  -5   14.16    0.69
   5   1   5   15.93    1.67
   5   1   5   14.73    0.93
   5   1   5   13.65    0.90
  -6  -1  -5   32.28    1.80
  -6  -1  -5   33.05    1.60
  -6  -1  -5   33.00    1.67
   6   1   5   30.96    1.54
   6   1   5   33.22    2.15
   6   1   5   33.00    1.56
  -7  -1  -5    2.17    0.48
  -7  -1  -5    2.47    0.53
   7   1   5    3.43    0.56
   7   1   5    2.39    0.76
   7   1   5    2.87    0.55
  -8  -1  -5    0.42    0.32
  -8  -1  -5    0.67    0.35
   8   1   5    0.25    0.29
   8   1   5    0.53    0.48
  -9  -1  -5    0.53    0.33
  -9  -1  -5    0.26    0.31
   9   1   5    0.27    0.26
  11  -2  -5    1.31    0.48
 -11   2   5    1.07    0.59
 -11   2   5    1.77    0.56
  10  -2  -5    1.35    0.43
  10  -2  -5    1.32    0.46
 -10   2   5    1.06    0.52
 -10   2   5    1.60    0.52
   9  -2  -5   11.18    1.15
   9  -2  -5   11.39    1.13
  -9   2   5   11.44    1.32
  -9   2   5   11.91    1.17
   8  -2  -5    8.24    0.91
   8  -2  -5    7.76    0.91
  -8   2   5    9.23    1.15
  -8   2   5    8.31    0.53
  -8   2   5    8.10    0.53
   7  -2  -5   25.22    1.36
   7  -2  -5   24.09    1.33
  -7   2   5   24.27    1.55
  -7   2   5   23.86    1.11
  -7   2   5   22.00    1.08
  -7   2   5   25.07    1.35
   6  -2  -5   18.36    1.08
   6  -2  -5   16.73    1.06
  -6   2   5   17.98    1.09
  -6   2   5   17.59    0.96
  -6   2   5   18.65    0.92
  -6   2   5   19.19    1.31
   5  -2  -5   24.51    1.28
   5  -2  -5   25.96    1.30
  -5   2   5   25.25    1.21
  -5   2   5   23.80    1.14
  -5   2   5   25.38    1.29
  -5   2   5   24.50    1.49
  -5   2   5   28.70    1.28
   4  -2  -5  134.50    4.54
   4  -2  -5  140.05    4.57
  -4   2   5  148.94    4.53
  -4   2   5  141.38    4.48
  -4   2   5  142.17    5.03
  -4   2   5  142.99    4.68
  -4   2   5  142.24    4.56
  -4   2   5  143.67    4.52
   3  -2  -5   64.83    2.28
   3  -2  -5   61.66    2.29
   3  -2  -5   62.37    2.31
   3  -2  -5   61.36    2.30
  -3   2   5   61.45    2.42
  -3   2   5   63.62    2.28
  -3   2   5   60.12    2.24
  -3   2   5   60.14    2.27
  -3   2   5   61.14    1.94
  -3   2   5   57.16    2.19
  -3   2   5   64.86    2.64
   2  -2  -5   29.96    1.33
   2  -2  -5   28.33    1.31
   2  -2  -5   27.34    1.31
   2  -2  -5   31.16    1.37
  -2   2   5   31.80    1.37
  -2   2   5   30.86    1.34
  -2   2   5   30.30    1.04
  -2   2   5   33.03    1.38
  -2   2   5   30.61    1.59
  -2   2   5   30.82    1.53
  -2   2   5   29.41    1.31
   1  -2  -5    4.40    0.51
   1  -2  -5    4.97    0.55
   1  -2  -5    3.84    0.48
   1  -2  -5    5.80    0.59
  -1   2   5    4.12    0.66
  -1   2   5    4.36    0.53
  -1   2   5    5.01    0.69
  -1   2   5    4.35    0.53
  -1   2   5    6.30    0.61
  -1   2   5    4.58    0.54
   0  -2  -5    8.75    0.61
   0  -2  -5    8.36    0.61
   0  -2  -5    8.47    0.62
   0  -2  -5    7.75    0.58
   0   2   5    8.57    0.62
   0   2   5    8.34    0.60
   0   2   5    8.88    0.99
   0   2   5    9.14    0.95
  -1  -2  -5    2.35    0.36
  -1  -2  -5    1.88    0.33
  -1  -2  -5    2.39    0.38
  -1  -2  -5    2.60    0.41
   1   2   5    2.48    0.40
   1   2   5    2.18    0.55
   1   2   5    2.91    0.53
   1   2   5    2.90    0.43
  -2  -2  -5    6.16    0.63
  -2  -2  -5    7.58    0.55
  -2  -2  -5    6.39    0.65
  -2  -2  -5    6.97    0.51
  -2  -2  -5    6.91    0.52
  -2  -2  -5    6.37    0.58
  -2  -2  -5    7.62    0.80
  -2  -2  -5    6.79    0.52
   2   2   5    7.83    0.72
   2   2   5    6.88    0.95
   2   2   5    8.30    0.94
   2   2   5    7.09    0.68
  -3  -2  -5   21.94    0.98
  -3  -2  -5   20.88    1.12
  -3  -2  -5   22.07    0.92
  -3  -2  -5   24.40    1.30
  -3  -2  -5   20.47    0.97
  -3  -2  -5   21.95    1.12
  -3  -2  -5   21.26    0.97
   3   2   5   22.47    1.30
   3   2   5   21.04    1.51
   3   2   5   19.07    1.05
   3   2   5   22.90    1.12
  -4  -2  -5    3.59    0.37
  -4  -2  -5    4.44    0.59
  -4  -2  -5    2.77    0.56
  -4  -2  -5    3.39    0.36
   4   2   5    3.82    0.53
   4   2   5    3.44    0.49
   4   2   5    4.27    0.86
  -5  -2  -5   15.32    1.16
  -5  -2  -5   13.33    0.91
  -5  -2  -5   17.34    1.03
   5   2   5   15.41    0.95
   5   2   5   13.55    0.90
   5   2   5   15.35    1.64
  -6  -2  -5    1.44    0.53
  -6  -2  -5    2.16    0.44
  -6  -2  -5    1.77    0.43
   6   2   5    1.81    0.41
   6   2   5    1.80    0.40
   6   2   5    2.04    0.67
  -7  -2  -5    0.33    0.25
  -7  -2  -5    0.55    0.42
  -7  -2  -5    0.22    0.24
   7   2   5    0.18    0.40
   7   2   5    0.11    0.20
  -8  -2  -5    2.43    0.52
  -8  -2  -5    1.91    0.49
   8   2   5    1.19    0.38
  -9  -2  -5    8.10    0.98
  -9  -2  -5    6.72    0.87
   9   2   5    6.23    0.83
  11  -3  -5    0.59    0.38
  11  -3  -5    0.72    0.45
 -11   3   5    0.81    0.44
 -11   3   5    0.46    0.48
  10  -3  -5    3.30    0.70
  10  -3  -5    2.91    0.66
 -10   3   5    2.87    0.77
 -10   3   5    2.06    0.58
   9  -3  -5    3.12    0.67
   9  -3  -5    2.94    0.62
  -9   3   5    3.80    0.73
  -9   3   5    3.39    0.78
  -9   3   5    3.90    0.47
  -9   3   5    3.78    0.46
   8  -3  -5    1.97    0.49
   8  -3  -5    1.45    0.45
  -8   3   5    1.87    0.59
  -8   3   5    0.82    0.25
  -8   3   5    2.16    0.40
  -8   3   5    3.02    0.62
   7  -3  -5    1.27    0.38
   7  -3  -5    1.98    0.47
  -7   3   5    0.90    0.35
  -7   3   5    1.30    0.32
  -7   3   5    1.19    0.48
   6  -3  -5    9.96    0.97
   6  -3  -5   10.07    0.98
  -6   3   5    7.52    0.83
  -6   3   5    8.35    0.81
  -6   3   5    9.87    1.14
  -6   3   5    9.82    0.71
   5  -3  -5   10.76    1.01
   5  -3  -5    8.15    0.89
  -5   3   5   10.72    1.16
  -5   3   5    9.96    0.72
  -5   3   5   10.43    0.95
  -5   3   5   10.89    0.78
   4  -3  -5   35.03    1.61
   4  -3  -5   35.93    1.62
  -4   3   5   34.97    1.86
  -4   3   5   36.62    1.58
  -4   3   5   34.06    1.59
  -4   3   5   32.62    1.53
  -4   3   5   35.09    1.58
   3  -3  -5   52.63    2.03
   3  -3  -5   50.27    2.02
   3  -3  -5   51.90    2.06
   3  -3  -5   50.01    2.03
  -3   3   5   49.76    2.32
  -3   3   5   50.55    2.00
  -3   3   5   46.67    1.96
  -3   3   5   51.26    2.02
  -3   3   5   48.76    2.01
   2  -3  -5    0.27    0.18
   2  -3  -5   -0.11    0.12
   2  -3  -5    0.04    0.18
   2  -3  -5    0.36    0.21
  -2   3   5    0.02    0.18
  -2   3   5   -0.18    0.10
  -2   3   5    0.27    0.18
  -2   3   5    0.09    0.16
  -2   3   5   -0.26    0.16
  -2   3   5    0.32    0.19
   1  -3  -5    0.63    0.23
   1  -3  -5    0.41    0.20
   1  -3  -5    0.58    0.21
   1  -3  -5    1.11    0.28
   1  -3  -5    0.84    0.26
  -1   3   5    0.46    0.21
  -1   3   5    0.56    0.24
  -1   3   5    0.26    0.25
  -1   3   5    0.40    0.18
  -1   3   5    0.78    0.27
  -1   3   5    0.89    0.34
   0  -3  -5  107.99    3.86
   0  -3  -5  108.83    3.53
   0  -3  -5   98.82    3.46
   0  -3  -5  106.72    3.51
   0  -3  -5  114.54    3.57
   0   3   5  110.03    3.54
   0   3   5  106.73    3.94
   0   3   5   99.08    3.99
   0   3   5  102.71    3.53
  -1  -3  -5  164.49    5.04
  -1  -3  -5  155.31    5.02
  -1  -3  -5  163.51    4.98
  -1  -3  -5  162.63    4.93
  -1  -3  -5  160.34    4.97
  -1  -3  -5  156.15    5.44
   1   3   5  158.52    5.05
   1   3   5  164.78    5.04
   1   3   5  159.15    5.51
   1   3   5  159.38    5.68
  -2  -3  -5   97.56    3.15
  -2  -3  -5   96.71    3.29
  -2  -3  -5   97.51    3.07
  -2  -3  -5   94.12    3.54
  -2  -3  -5   94.90    3.37
  -2  -3  -5   98.73    3.28
  -2  -3  -5   96.75    3.07
  -2  -3  -5   98.42    3.16
   2   3   5   95.84    3.63
   2   3   5   90.20    3.24
   2   3   5   99.04    3.28
   2   3   5   98.17    3.95
  -3  -3  -5   47.94    1.67
  -3  -3  -5   48.53    2.22
  -3  -3  -5   47.65    1.68
  -3  -3  -5   48.34    1.69
  -3  -3  -5   47.38    1.93
   3   3   5   46.65    1.91
   3   3   5   49.27    1.93
   3   3   5   46.44    2.46
  -4  -3  -5   14.03    0.90
  -4  -3  -5   13.17    1.30
   4   3   5   14.52    1.59
   4   3   5   14.44    0.89
   4   3   5   13.28    0.86
  -5  -3  -5    0.03    0.25
  -5  -3  -5    0.12    0.20
   5   3   5    0.00    0.30
   5   3   5    0.07    0.16
   5   3   5   -0.20    0.16
  -6  -3  -5   -0.28    0.16
  -6  -3  -5   -0.24    0.28
  -6  -3  -5    0.12    0.20
   6   3   5    0.10    0.46
   6   3   5    0.02    0.16
  -7  -3  -5   -0.03    0.23
  -7  -3  -5    0.52    0.40
  -7  -3  -5    0.54    0.29
   7   3   5    0.42    0.53
   7   3   5    0.37    0.25
  -8  -3  -5    1.95    0.52
  -8  -3  -5    2.30    0.50
  -8  -3  -5    1.86    0.77
   8   3   5    1.82    0.45
  11  -4  -5    0.80    0.49
  11  -4  -5   -0.16    0.28
 -11   4   5   -0.13    0.34
 -11   4   5    0.07    0.36
  10  -4  -5    3.93    0.76
  10  -4  -5    2.60    0.68
 -10   4   5    4.48    0.55
 -10   4   5    4.19    0.80
 -10   4   5    5.68    1.11
   9  -4  -5   13.94    1.41
   9  -4  -5   17.38    1.58
  -9   4   5   14.07    1.44
  -9   4   5   14.15    1.65
  -9   4   5   15.91    1.01
   8  -4  -5   45.09    2.27
   8  -4  -5   49.71    2.32
  -8   4   5   46.47    2.29
  -8   4   5   46.72    2.60
  -8   4   5   50.37    2.12
   7  -4  -5   53.98    2.39
   7  -4  -5   55.17    2.40
  -7   4   5   48.35    2.61
  -7   4   5   50.79    2.13
  -7   4   5   53.12    2.38
  -7   4   5   51.29    2.21
   6  -4  -5   84.10    3.08
   6  -4  -5   75.32    2.98
  -6   4   5   75.58    2.87
  -6   4   5   69.01    3.28
  -6   4   5   74.80    3.00
  -6   4   5   76.25    2.91
   5  -4  -5   28.94    1.53
   5  -4  -5   27.38    1.51
  -5   4   5   27.88    1.52
  -5   4   5   34.97    1.60
  -5   4   5   29.79    1.80
  -5   4   5   28.10    1.44
   4  -4  -5   12.96    0.91
   4  -4  -5   12.70    0.91
  -4   4   5   13.59    0.94
  -4   4   5   11.87    0.88
  -4   4   5   12.09    1.25
  -4   4   5    9.92    0.95
  -4   4   5   10.64    0.81
   3  -4  -5   15.21    1.00
   3  -4  -5   17.04    1.05
   3  -4  -5   16.06    1.01
   3  -4  -5   16.78    1.03
  -3   4   5   16.43    1.01
  -3   4   5   16.79    1.03
  -3   4   5   16.33    1.01
  -3   4   5   16.20    1.04
  -3   4   5   16.84    1.24
   2  -4  -5    0.64    0.26
   2  -4  -5    0.58    0.26
   2  -4  -5    0.14    0.19
   2  -4  -5    0.47    0.21
  -2   4   5    0.18    0.19
  -2   4   5    0.68    0.34
  -2   4   5    0.54    0.24
  -2   4   5    0.38    0.23
  -2   4   5    0.37    0.22
   1  -4  -5    0.99    0.29
   1  -4  -5    0.58    0.25
   1  -4  -5    0.59    0.25
   1  -4  -5    0.73    0.25
   1  -4  -5    0.14    0.17
   1  -4  -5    1.08    0.31
  -1   4   5    0.79    0.28
  -1   4   5   -0.06    0.19
  -1   4   5    0.25    0.26
  -1   4   5    0.71    0.25
   0  -4  -5   24.65    1.17
   0  -4  -5   24.37    1.25
   0  -4  -5   25.14    1.20
   0  -4  -5   23.67    1.23
   0  -4  -5   23.20    1.18
   0   4   5   23.61    1.21
   0   4   5   28.17    1.64
   0   4   5   21.95    1.40
   0   4   5   23.59    1.22
  -1  -4  -5   20.89    1.06
  -1  -4  -5   21.96    1.02
  -1  -4  -5   22.26    1.07
  -1  -4  -5   20.88    1.05
  -1  -4  -5   21.83    1.15
  -1  -4  -5   19.70    1.26
   1   4   5   21.36    1.11
   1   4   5   19.44    1.45
   1   4   5   21.26    1.13
   1   4   5   23.23    1.39
  -2  -4  -5   17.14    0.86
  -2  -4  -5   17.67    1.21
  -2  -4  -5   17.27    0.86
  -2  -4  -5   16.87    1.01
  -2  -4  -5   18.02    0.84
   2   4   5   17.23    0.99
   2   4   5   16.56    1.61
   2   4   5   18.78    1.04
  -3  -4  -5   37.79    1.29
  -3  -4  -5   35.77    1.27
  -3  -4  -5   37.96    1.98
  -3  -4  -5   38.02    1.64
   3   4   5   33.44    2.13
   3   4   5   38.28    1.64
   3   4   5   34.84    1.59
  -4  -4  -5    7.82    0.80
  -4  -4  -5    8.54    1.13
   4   4   5    6.36    0.70
   4   4   5    8.72    1.24
   4   4   5    8.27    0.81
  -5  -4  -5    2.73    0.49
  -5  -4  -5    6.40    1.05
   5   4   5    3.95    0.59
   5   4   5    3.86    0.92
   5   4   5    2.36    0.44
  -6  -4  -5   13.14    0.96
  -6  -4  -5   13.39    1.60
  -6  -4  -5   12.18    0.91
   6   4   5   12.48    0.89
   6   4   5   11.95    1.60
  -7  -4  -5   14.89    1.77
  -7  -4  -5   17.05    1.09
  -7  -4  -5   14.84    1.06
   7   4   5   13.91    0.98
   7   4   5   15.66    2.15
  -8  -4  -5    2.64    0.53
  -8  -4  -5    2.94    0.92
   8   4   5    2.42    0.49
  10  -5  -5    1.32    0.54
  10  -5  -5    1.43    0.58
 -10   5   5    1.07    0.61
 -10   5   5    0.96    0.37
   9  -5  -5    0.52    0.38
   9  -5  -5    0.42    0.40
  -9   5   5    0.56    0.33
  -9   5   5    1.94    0.70
   8  -5  -5    0.41    0.34
   8  -5  -5    1.03    0.41
  -8   5   5    0.95    0.39
  -8   5   5    0.70    0.51
   7  -5  -5    6.31    0.90
   7  -5  -5    4.47    0.77
  -7   5   5    5.25    0.73
  -7   5   5    4.67    0.72
  -7   5   5    6.64    1.08
   6  -5  -5    7.47    0.95
   6  -5  -5    8.35    0.96
  -6   5   5    8.57    1.17
  -6   5   5    6.38    0.85
  -6   5   5    8.61    0.93
   5  -5  -5    0.85    0.36
   5  -5  -5    0.87    0.36
  -5   5   5    1.56    0.54
  -5   5   5    1.07    0.39
  -5   5   5    0.70    0.31
   4  -5  -5    3.54    0.61
   4  -5  -5    4.61    0.69
  -4   5   5    4.64    0.85
  -4   5   5    5.12    0.71
  -4   5   5    4.31    0.66
  -4   5   5    4.47    0.65
   3  -5  -5   95.81    3.47
   3  -5  -5   94.53    3.43
   3  -5  -5   91.53    3.43
   3  -5  -5   94.23    3.45
  -3   5   5   96.21    3.42
  -3   5   5   90.68    3.83
  -3   5   5   96.62    3.45
   2  -5  -5  115.41    3.89
   2  -5  -5  111.33    3.92
   2  -5  -5  114.44    3.90
  -2   5   5  110.52    3.91
  -2   5   5  105.15    3.84
  -2   5   5  119.26    4.43
   1  -5  -5   51.41    2.17
   1  -5  -5   53.32    2.14
   1  -5  -5   49.06    2.04
  -1   5   5   55.23    2.19
  -1   5   5   54.86    2.17
  -1   5   5   49.12    2.43
  -1   5   5   48.26    2.46
   0  -5  -5    1.11    0.29
   0  -5  -5    1.09    0.30
   0  -5  -5    1.25    0.31
   0  -5  -5    1.50    0.38
   0  -5  -5    0.64    0.24
   0  -5  -5    1.72    0.46
   0   5   5    0.67    0.38
   0   5   5    0.74    0.34
   0   5   5    0.93    0.31
   0   5   5    0.83    0.28
  -1  -5  -5   29.86    1.47
  -1  -5  -5   28.31    1.34
  -1  -5  -5   30.32    1.34
  -1  -5  -5   31.39    1.34
  -1  -5  -5   29.21    1.68
  -1  -5  -5   31.42    1.28
   1   5   5   28.49    1.42
   1   5   5   27.55    1.83
   1   5   5   28.52    1.45
  -2  -5  -5   21.66    1.20
  -2  -5  -5   19.59    1.40
  -2  -5  -5   20.79    0.95
  -2  -5  -5   21.04    0.95
   2   5   5   22.43    1.20
   2   5   5   22.11    2.03
   2   5   5   20.88    1.14
  -3  -5  -5    7.05    0.78
  -3  -5  -5    6.53    1.00
   3   5   5    6.06    1.05
   3   5   5    6.26    0.74
   3   5   5    5.71    0.69
  -4  -5  -5    1.34    0.49
  -4  -5  -5    0.52    0.25
   4   5   5    1.07    0.35
   4   5   5    0.45    0.23
   4   5   5    1.06    0.60
  -5  -5  -5   -0.19    0.17
  -5  -5  -5    0.52    0.45
   5   5   5    0.14    0.20
   5   5   5   -0.20    0.38
  -6  -5  -5    1.55    0.41
  -6  -5  -5    0.93    0.61
   6   5   5    1.39    0.69
   6   5   5    1.65    0.39
  -7  -5  -5    0.85    0.54
  -7  -5  -5    1.13    0.37
   7   5   5    2.01    0.46
  10  -6  -5    2.55    0.71
  10  -6  -5    1.97    0.67
 -10   6   5    1.90    0.54
 -10   6   5    2.02    0.77
   9  -6  -5   11.46    1.37
   9  -6  -5   10.45    1.35
  -9   6   5   11.36    1.21
  -9   6   5   11.58    1.60
   8  -6  -5    9.71    1.22
   8  -6  -5   10.11    1.25
  -8   6   5    8.57    1.03
  -8   6   5    7.77    1.29
  -8   6   5    8.61    0.98
   7  -6  -5    9.10    1.14
   7  -6  -5    8.41    1.08
  -7   6   5   11.26    1.22
  -7   6   5    9.74    1.11
  -7   6   5   11.74    1.51
   6  -6  -5    1.38    0.48
  -6   6   5    1.55    0.57
  -6   6   5    0.74    0.36
  -6   6   5    0.70    0.34
   5  -6  -5   16.86    1.21
  -5   6   5   20.58    1.58
  -5   6   5   15.44    1.14
   4  -6  -5    2.47    0.55
  -4   6   5    3.64    0.64
  -4   6   5    3.24    0.74
   3  -6  -5   -0.09    0.20
   3  -6  -5    0.01    0.20
  -3   6   5   -0.05    0.23
  -3   6   5    0.11    0.21
  -3   6   5   -0.06    0.26
   2  -6  -5    3.37    0.56
   2  -6  -5    3.29    0.56
   2  -6  -5    4.39    0.70
  -2   6   5    3.34    0.73
  -2   6   5    2.98    0.55
  -2   6   5    1.58    0.42
   1  -6  -5    2.84    0.48
   1  -6  -5    2.15    0.45
   1  -6  -5    2.94    0.56
  -1   6   5    1.95    0.43
  -1   6   5    2.32    0.60
  -1   6   5    2.31    0.49
   0  -6  -5    0.03    0.21
   0  -6  -5    0.12    0.16
   0  -6  -5    0.24    0.23
   0  -6  -5   -0.06    0.14
   0   6   5    0.15    0.18
   0   6   5   -0.08    0.17
   0   6   5    0.14    0.37
  -1  -6  -5    6.08    0.74
  -1  -6  -5    6.42    0.98
  -1  -6  -5    6.39    0.64
  -1  -6  -5    7.16    0.68
   1   6   5    5.46    1.01
   1   6   5    6.83    0.77
   1   6   5    7.70    0.85
  -2  -6  -5    8.70    1.19
  -2  -6  -5    9.54    0.55
  -2  -6  -5   10.63    0.99
  -2  -6  -5   10.10    0.57
   2   6   5    7.98    1.26
   2   6   5   10.25    0.96
   2   6   5    9.80    0.98
  -3  -6  -5   26.99    1.85
  -3  -6  -5   25.80    1.43
   3   6   5   26.33    1.39
   3   6   5   30.81    1.49
   3   6   5   25.43    1.95
  -4  -6  -5   34.36    2.20
  -4  -6  -5   35.93    1.71
   4   6   5   32.63    2.32
   4   6   5   32.59    1.61
  -5  -6  -5   15.29    1.79
  -5  -6  -5   14.97    1.06
   5   6   5   14.96    1.86
   5   6   5   13.84    0.99
  -6  -6  -5    0.68    0.58
  -6  -6  -5    0.03    0.25
   6   6   5    1.06    0.34
   6   6   5    0.60    0.62
  10  -7  -5    0.12    0.37
 -10   7   5    1.60    0.75
 -10   7   5    0.88    0.40
   9  -7  -5    1.26    0.50
  -9   7   5    0.03    0.28
  -9   7   5    1.05    0.63
   8  -7  -5    2.68    0.71
  -8   7   5    3.03    0.70
  -8   7   5    2.32    0.64
  -8   7   5    2.42    0.82
   7  -7  -5   12.09    1.38
  -7   7   5   12.14    1.28
  -7   7   5   13.79    1.73
   6  -7  -5   27.31    1.68
  -6   7   5   22.85    1.51
  -6   7   5   25.95    1.94
   5  -7  -5   57.89    2.66
  -5   7   5   61.10    3.13
  -5   7   5   57.07    2.62
   4  -7  -5   18.00    1.29
  -4   7   5   19.89    1.33
  -4   7   5   19.73    1.93
   3  -7  -5   29.36    1.63
   3  -7  -5   26.68    1.54
  -3   7   5   27.47    1.59
  -3   7   5   32.48    1.69
  -3   7   5   25.60    1.84
   2  -7  -5   24.05    1.48
   2  -7  -5   21.73    1.33
   2  -7  -5   23.18    1.33
  -2   7   5   23.22    1.41
  -2   7   5   22.78    1.68
  -2   7   5   21.80    1.36
   1  -7  -5    6.52    0.96
   1  -7  -5    6.70    0.76
   1  -7  -5    7.09    0.91
   1  -7  -5    5.76    0.70
  -1   7   5    5.67    0.78
  -1   7   5    5.28    0.76
   0  -7  -5    0.89    0.41
   0  -7  -5    0.85    0.34
   0  -7  -5    0.94    0.30
   0   7   5    0.57    0.30
   0   7   5    0.21    0.36
   0   7   5    0.86    0.35
  -1  -7  -5    4.76    0.89
  -1  -7  -5    6.34    0.83
  -1  -7  -5    5.14    0.57
  -1  -7  -5    5.61    0.59
   1   7   5    6.05    0.77
   1   7   5    4.96    1.03
   1   7   5    5.08    0.73
  -2  -7  -5    0.51    0.31
  -2  -7  -5    0.32    0.10
  -2  -7  -5    0.06    0.29
   2   7   5    0.39    0.30
   2   7   5    0.14    0.20
   2   7   5    0.00    0.36
  -3  -7  -5    0.08    0.20
  -3  -7  -5   -0.05    0.32
   3   7   5    0.21    0.40
   3   7   5   -0.32    0.18
   3   7   5   -0.07    0.18
  -4  -7  -5    5.28    1.08
  -4  -7  -5    4.57    0.70
   4   7   5    5.51    1.22
   4   7   5    5.25    0.72
  -5  -7  -5    2.26    0.51
  -5  -7  -5    3.15    0.92
   5   7   5    2.10    0.49
   5   7   5    3.13    0.94
  -6  -7  -5    0.41    0.32
  -6  -7  -5    0.22    0.47
   6   7   5    0.44    0.26
   9  -8  -5   -0.01    0.36
  -9   8   5   -0.15    0.43
   8  -8  -5    3.22    0.83
  -8   8   5    2.24    0.82
  -8   8   5    4.58    0.88
   7  -8  -5    4.13    0.83
  -7   8   5    2.92    0.88
  -7   8   5    3.21    0.74
   6  -8  -5    0.05    0.27
  -6   8   5    0.04    0.35
  -6   8   5    0.51    0.35
   5  -8  -5    0.28    0.37
  -5   8   5    0.01    0.35
  -5   8   5    0.11    0.29
   4  -8  -5    0.57    0.34
  -4   8   5    0.47    0.33
  -4   8   5    0.50    0.45
   3  -8  -5   -0.01    0.23
   3  -8  -5    0.03    0.23
   3  -8  -5   -0.02    0.26
  -3   8   5    0.07    0.32
  -3   8   5   -0.08    0.23
  -3   8   5    0.37    0.33
   2  -8  -5    8.37    0.90
   2  -8  -5    6.77    1.01
   2  -8  -5    6.86    0.87
  -2   8   5    7.39    0.95
  -2   8   5    5.83    0.85
   1  -8  -5   21.25    1.28
   1  -8  -5   21.62    1.47
   1  -8  -5   20.15    1.53
  -1   8   5   19.35    1.35
  -1   8   5   24.40    1.46
   0  -8  -5   18.08    1.79
   0  -8  -5   21.43    1.41
   0  -8  -5   17.96    1.08
   0   8   5   16.83    1.24
   0   8   5   21.80    1.36
   0   8   5   19.96    2.08
  -1  -8  -5   12.18    0.71
  -1  -8  -5   11.90    1.22
  -1  -8  -5    9.46    1.38
  -1  -8  -5   11.00    0.69
   1   8   5    8.21    1.36
   1   8   5   12.17    1.21
   1   8   5    9.07    1.04
  -2  -8  -5   17.83    1.95
  -2  -8  -5   18.06    1.28
   2   8   5   18.34    1.25
   2   8   5   17.73    1.21
   2   8   5   15.51    1.94
  -3  -8  -5    8.58    1.39
  -3  -8  -5   11.47    1.18
   3   8   5    9.98    1.04
   3   8   5    9.29    1.55
   3   8   5   12.80    1.25
  -4  -8  -5    5.66    1.20
  -4  -8  -5    4.53    0.73
   4   8   5    4.61    0.71
   4   8   5    5.45    1.22
  -5  -8  -5    3.81    0.69
  -5  -8  -5    3.77    1.08
   5   8   5    5.05    1.24
   5   8   5    4.62    0.74
   8  -9  -5    8.81    1.31
  -8   9   5    6.24    1.03
  -8   9   5    8.62    1.56
   7  -9  -5   18.74    1.84
  -7   9   5   15.94    1.62
  -7   9   5   17.49    2.18
   6  -9  -5   18.66    1.77
  -6   9   5   19.33    2.21
  -6   9   5   17.08    1.69
   5  -9  -5    7.49    1.11
  -5   9   5    7.27    1.10
  -5   9   5    9.08    1.47
   4  -9  -5    9.26    1.22
  -4   9   5   13.49    1.44
   3  -9  -5    1.84    0.53
   3  -9  -5    1.21    0.45
   3  -9  -5    0.96    0.44
  -3   9   5    0.99    0.45
  -3   9   5   -0.16    0.23
   2  -9  -5    6.49    0.88
   2  -9  -5    6.17    1.06
  -2   9   5    5.55    0.89
  -2   9   5    4.46    0.78
   1  -9  -5    7.74    0.88
   1  -9  -5    7.97    1.08
   1  -9  -5    7.27    1.20
  -1   9   5    5.72    0.89
  -1   9   5    6.93    0.96
   0  -9  -5    0.92    0.32
   0  -9  -5    0.61    0.43
   0  -9  -5    0.85    0.44
   0   9   5    0.55    0.35
   0   9   5    0.34    0.52
   0   9   5    1.21    0.45
  -1  -9  -5   -0.37    0.31
  -1  -9  -5    0.01    0.31
  -1  -9  -5    0.17    0.13
  -1  -9  -5    0.07    0.12
   1   9   5   -0.47    0.35
   1   9   5   -0.09    0.24
   1   9   5    0.11    0.33
  -2  -9  -5    4.43    0.79
  -2  -9  -5    4.38    1.04
   2   9   5    4.96    1.15
   2   9   5    4.03    0.73
   2   9   5    3.17    0.66
  -3  -9  -5    0.44    0.34
  -3  -9  -5    0.42    0.59
   3   9   5   -0.23    0.48
   3   9   5    0.36    0.27
   7 -10  -5    0.36    0.44
   6 -10  -5    2.10    0.69
  -6  10   5    0.05    0.36
  -6  10   5    2.85    0.96
   5 -10  -5    1.64    0.58
   5 -10  -5    1.11    0.55
  -5  10   5    1.95    0.62
   4 -10  -5    5.10    0.91
   4 -10  -5    6.64    1.05
   4 -10  -5    6.62    1.13
  -4  10   5    5.03    0.92
   3 -10  -5    4.60    0.81
   3 -10  -5    3.56    0.81
  -3  10   5    4.37    0.86
   2 -10  -5    9.04    1.04
   2 -10  -5   13.62    1.62
  -2  10   5    8.75    1.19
  -2  10   5   11.05    1.31
   1 -10  -5   15.74    1.86
   1 -10  -5   15.79    1.10
  -1  10   5   16.23    1.61
  -1  10   5   17.11    1.66
   0 -10  -5   12.10    1.69
   0 -10  -5   10.39    1.28
   0 -10  -5   10.18    0.73
   0  10   5    8.76    1.18
   0  10   5    9.33    1.18
   0  10   5    6.57    1.37
  -1 -10  -5   -0.24    0.33
  -1 -10  -5   -0.50    0.34
   1  10   5    0.67    0.42
   1  10   5   -0.18    0.45
   1  10   5    0.42    0.36
   4 -11  -5    1.88    0.60
   3 -11  -5    5.49    0.94
   3 -11  -5    3.98    0.94
  -3  11   5    3.85    0.88
   2 -11  -5    0.32    0.47
   2 -11  -5   -0.02    0.29
  -2  11   5   -0.29    0.35
  -2  11   5   -0.08    0.32
   1  11  -6    0.39    0.39
  -1 -11   6   -0.13    0.33
  -1 -11   6   -0.35    0.41
   0  11  -6    3.12    0.80
   0  11  -6    2.01    0.62
   0 -11   6    3.00    0.78
   0 -11   6    2.37    0.41
   0 -11   6    3.33    1.02
  -1  11  -6    0.33    0.38
  -1  11  -6    0.45    0.38
   1 -11   6    0.40    0.56
   1 -11   6    0.23    0.41
   1 -11   6    0.33    0.31
  -2  11  -6   -0.16    0.32
  -2  11  -6    0.06    0.41
   2 -11   6    0.19    0.55
   2 -11   6    0.30    0.33
   2 -11   6   -0.03    0.39
  -3  11  -6    1.69    0.63
   3 -11   6    0.91    0.72
   3 -11   6    1.82    0.74
   3 -11   6    1.43    0.55
   3  10  -6    1.59    0.45
   3  10  -6    1.42    0.51
  -3 -10   6    0.73    0.54
  -3 -10   6    2.07    0.54
   2  10  -6    7.13    1.02
   2  10  -6    6.15    0.96
   2  10  -6    7.07    0.93
  -2 -10   6    7.68    1.42
  -2 -10   6    6.86    1.00
   1  10  -6    7.05    1.02
   1  10  -6    5.05    0.84
   1  10  -6    5.95    0.87
  -1 -10   6    6.52    1.32
  -1 -10   6    5.85    0.33
  -1 -10   6    4.80    0.87
   0  10  -6   14.88    1.46
   0  10  -6   12.58    1.37
   0 -10   6   12.76    1.45
   0 -10   6   13.29    0.91
   0 -10   6   13.71    1.83
  -1  10  -6   14.09    1.48
  -1  10  -6   15.58    1.51
   1 -10   6   13.31    1.86
   1 -10   6   16.06    1.12
   1 -10   6   12.68    1.51
  -2  10  -6   12.84    1.46
  -2  10  -6   12.29    1.43
   2 -10   6   11.77    1.74
   2 -10   6   15.34    1.70
  -3  10  -6    5.10    0.94
   3 -10   6    7.16    1.20
   3 -10   6    6.12    1.33
  -4  10  -6    0.06    0.37
   4 -10   6    0.36    0.59
   4 -10   6   -0.13    0.34
   4 -10   6    0.64    0.44
  -5  10  -6    1.83    0.60
   5 -10   6    1.02    0.48
   5 -10   6    2.80    0.86
   5   9  -6    0.73    0.31
   5   9  -6    1.74    0.54
  -5  -9   6    0.84    0.65
  -5  -9   6    1.20    0.41
   4   9  -6    6.90    0.84
   4   9  -6    7.33    1.03
  -4  -9   6    5.43    1.13
  -4  -9   6    7.16    0.89
  -4  -9   6    7.15    0.86
   3   9  -6    6.24    0.81
   3   9  -6    8.48    1.05
  -3  -9   6    8.19    0.98
  -3  -9   6    7.90    1.34
  -3  -9   6    8.79    1.03
   2   9  -6    9.38    1.02
   2   9  -6    8.97    1.06
   2   9  -6    9.17    1.06
  -2  -9   6    8.77    1.07
  -2  -9   6    8.53    1.42
  -2  -9   6    9.88    1.13
   1   9  -6   -0.03    0.24
   1   9  -6    0.22    0.32
   1   9  -6    0.27    0.28
  -1  -9   6   -0.14    0.38
  -1  -9   6    0.49    0.33
  -1  -9   6    0.10    0.16
  -1  -9   6    0.18    0.17
   0   9  -6    0.21    0.29
   0   9  -6    0.08    0.24
   0   9  -6    0.43    0.33
   0  -9   6    0.76    0.52
   0  -9   6    0.24    0.23
   0  -9   6    0.12    0.27
  -1   9  -6    2.93    0.68
  -1   9  -6    2.69    0.60
   1  -9   6    3.36    0.78
   1  -9   6    2.97    0.87
  -2   9  -6   -0.06    0.28
  -2   9  -6    0.19    0.29
   2  -9   6   -0.21    0.40
   2  -9   6    0.20    0.34
  -3   9  -6    1.41    0.56
   3  -9   6    1.68    0.79
   3  -9   6    2.91    0.63
   3  -9   6    1.70    0.61
  -4   9  -6   13.81    1.50
   4  -9   6   15.58    1.48
   4  -9   6   18.82    1.92
  -5   9  -6   10.12    1.44
  -5   9  -6   10.42    1.32
   5  -9   6   11.41    1.56
   5  -9   6    9.45    1.21
  -6   9  -6    5.57    1.11
  -6   9  -6    4.77    0.95
   6  -9   6    5.07    0.95
   6  -9   6    5.47    1.10
   6   8  -6   -0.12    0.29
   6   8  -6    0.47    0.25
  -6  -8   6    0.83    0.57
  -6  -8   6    0.44    0.26
   5   8  -6    0.74    0.35
   5   8  -6    0.44    0.24
  -5  -8   6    0.46    0.26
  -5  -8   6    0.22    0.41
   4   8  -6   17.77    1.25
   4   8  -6   14.92    1.03
  -4  -8   6   16.80    1.12
  -4  -8   6   16.29    1.89
  -4  -8   6   18.89    1.16
   3   8  -6   18.59    1.17
   3   8  -6   20.13    1.24
   3   8  -6   18.51    1.28
  -3  -8   6   20.45    1.30
  -3  -8   6   17.33    1.91
  -3  -8   6   19.18    1.23
   2   8  -6   21.55    1.27
   2   8  -6   21.71    1.31
   2   8  -6   20.09    1.33
  -2  -8   6   19.65    2.04
  -2  -8   6   19.79    1.30
  -2  -8   6   20.31    1.37
   1   8  -6    6.27    0.86
   1   8  -6    6.61    0.89
   1   8  -6    5.59    0.80
  -1  -8   6    6.75    1.20
  -1  -8   6    7.92    0.59
  -1  -8   6    5.55    0.86
  -1  -8   6    7.10    0.66
  -1  -8   6    6.69    0.91
   0   8  -6    0.08    0.23
   0   8  -6    0.61    0.34
   0   8  -6    0.17    0.27
   0  -8   6    0.34    0.47
   0  -8   6    0.03    0.29
   0  -8   6    0.26    0.32
  -1   8  -6    3.43    0.68
  -1   8  -6    5.16    0.80
   1  -8   6    3.18    0.86
   1  -8   6    4.26    0.80
  -2   8  -6    7.25    0.98
  -2   8  -6    7.56    1.00
   2  -8   6    7.65    1.37
   2  -8   6    7.71    0.91
   2  -8   6    6.66    1.03
  -3   8  -6    5.06    0.90
  -3   8  -6    6.55    0.95
   3  -8   6    6.46    0.88
   3  -8   6    7.51    1.13
  -4   8  -6    3.61    0.81
  -4   8  -6    3.25    0.71
   4  -8   6    4.76    0.96
   4  -8   6    3.27    0.68
  -5   8  -6    0.43    0.38
  -5   8  -6    0.35    0.41
   5  -8   6   -0.08    0.34
   5  -8   6    0.90    0.45
  -6   8  -6    0.42    0.38
  -6   8  -6   -0.20    0.31
   6  -8   6    0.69    0.40
   6  -8   6    0.45    0.44
  -7   8  -6    0.41    0.45
  -7   8  -6    0.21    0.37
   7  -8   6   -0.05    0.31
   7   7  -6    8.40    0.61
   7   7  -6    6.95    0.95
  -7  -7   6    7.76    1.32
  -7  -7   6    7.45    0.74
   6   7  -6    7.93    0.98
   6   7  -6    5.86    0.62
  -6  -7   6    6.99    0.74
  -6  -7   6    5.05    1.05
   5   7  -6    0.78    0.34
   5   7  -6    1.44    0.34
  -5  -7   6    1.35    0.34
  -5  -7   6    0.85    0.29
  -5  -7   6    1.38    0.60
   4   7  -6    1.83    0.40
   4   7  -6    0.99    0.36
  -4  -7   6    0.66    0.52
  -4  -7   6    1.59    0.40
  -4  -7   6    2.27    0.47
   3   7  -6    0.05    0.21
   3   7  -6    0.15    0.18
   3   7  -6    0.35    0.26
  -3  -7   6    0.54    0.47
  -3  -7   6    0.23    0.20
  -3  -7   6    0.31    0.26
   2   7  -6    0.15    0.20
   2   7  -6    0.67    0.31
   2   7  -6    0.20    0.23
  -2  -7   6    0.15    0.20
  -2  -7   6    0.30    0.12
  -2  -7   6    0.27    0.27
  -2  -7   6    0.31    0.13
  -2  -7   6    0.37    0.39
   1   7  -6    0.02    0.19
   1   7  -6    0.05    0.20
   1   7  -6    0.30    0.26
  -1  -7   6    0.02    0.20
  -1  -7   6    0.04    0.33
  -1  -7   6    0.09    0.22
  -1  -7   6    0.02    0.14
   0   7  -6   10.72    1.08
   0   7  -6   12.82    1.18
   0   7  -6   10.57    1.05
   0  -7   6   11.04    1.19
   0  -7   6   12.95    1.62
   0  -7   6   11.01    1.10
  -1   7  -6    7.47    0.93
  -1   7  -6    7.15    0.85
  -1   7  -6    9.18    1.00
   1  -7   6    6.99    1.23
   1  -7   6    7.90    0.97
   1  -7   6    8.34    0.89
   1  -7   6    7.84    1.04
  -2   7  -6   16.16    1.45
  -2   7  -6   16.55    1.26
  -2   7  -6   17.45    1.23
   2  -7   6   17.81    1.15
   2  -7   6   14.98    1.53
  -3   7  -6   21.30    1.43
  -3   7  -6   24.10    1.61
   3  -7   6   26.62    1.76
   3  -7   6   22.26    1.40
  -4   7  -6   17.58    1.67
  -4   7  -6   16.89    1.52
   4  -7   6   15.28    1.42
   4  -7   6   19.38    1.82
  -5   7  -6   10.70    1.31
  -5   7  -6    7.49    1.03
   5  -7   6    9.16    1.27
   5  -7   6    8.79    1.09
  -6   7  -6    1.42    0.58
  -6   7  -6    2.23    0.66
  -6   7  -6    2.21    0.61
   6  -7   6    2.69    0.77
   6  -7   6    2.46    0.64
  -7   7  -6   -0.22    0.30
  -7   7  -6    1.29    0.50
  -7   7  -6    0.33    0.35
   7  -7   6    0.14    0.38
  -8   7  -6    0.80    0.43
  -8   7  -6    0.36    0.46
   8  -7   6    0.55    0.49
   8   6  -6    7.44    0.54
   8   6  -6    7.77    1.03
  -8  -6   6    6.56    0.67
  -8  -6   6    6.60    1.26
   7   6  -6    6.75    0.64
   7   6  -6    8.26    0.99
  -7  -6   6    7.62    0.73
  -7  -6   6   10.33    1.47
   6   6  -6    7.47    0.70
   6   6  -6    8.06    0.95
  -6  -6   6    7.61    1.21
  -6  -6   6    6.57    0.69
   5   6  -6   10.94    1.08
   5   6  -6   12.38    0.79
  -5  -6   6   10.58    0.79
  -5  -6   6   10.66    1.37
  -5  -6   6   12.15    0.82
   4   6  -6    2.66    0.45
   4   6  -6    3.47    0.60
  -4  -6   6    2.64    0.49
  -4  -6   6    2.80    0.74
  -4  -6   6    2.45    0.43
   3   6  -6   20.21    1.21
   3   6  -6   19.27    1.10
   3   6  -6   22.43    1.17
   3   6  -6   20.91    1.14
  -3  -6   6   19.99    1.25
  -3  -6   6   20.86    1.15
  -3  -6   6   21.25    1.95
   2   6  -6   34.48    1.58
   2   6  -6   31.45    1.50
   2   6  -6   31.68    1.52
   2   6  -6   30.83    1.56
  -2  -6   6   32.28    1.23
  -2  -6   6   30.41    1.53
  -2  -6   6   32.78    1.71
  -2  -6   6   27.71    1.90
   1   6  -6   45.94    1.98
   1   6  -6   46.35    1.97
   1   6  -6   46.87    2.02
  -1  -6   6   47.16    2.51
  -1  -6   6   45.38    2.01
  -1  -6   6   42.13    2.15
  -1  -6   6   46.29    1.81
   0   6  -6   19.30    1.19
   0   6  -6   22.48    1.25
   0   6  -6   21.00    1.29
   0   6  -6   24.72    1.33
   0  -6   6   22.36    1.16
   0  -6   6   21.50    1.28
   0  -6   6   19.73    1.88
   0  -6   6   20.37    1.41
  -1   6  -6    1.25    0.37
  -1   6  -6    2.06    0.52
  -1   6  -6    2.08    0.45
  -1   6  -6    1.16    0.38
   1  -6   6    1.24    0.40
   1  -6   6    1.59    0.41
   1  -6   6    1.47    0.47
   1  -6   6    1.67    0.40
  -2   6  -6   15.76    1.16
  -2   6  -6   14.02    1.05
  -2   6  -6   14.00    1.04
   2  -6   6   15.34    1.04
   2  -6   6   16.45    1.28
   2  -6   6   14.26    1.31
   2  -6   6   14.90    1.05
  -3   6  -6    0.49    0.32
  -3   6  -6    0.51    0.32
  -3   6  -6    0.88    0.40
   3  -6   6    0.42    0.31
   3  -6   6    0.52    0.36
   3  -6   6    0.56    0.34
  -4   6  -6   -0.28    0.12
  -4   6  -6    0.05    0.21
   4  -6   6    0.02    0.22
   4  -6   6   -0.05    0.25
  -5   6  -6    5.62    0.90
  -5   6  -6    3.69    0.68
  -5   6  -6    3.31    0.72
   5  -6   6    3.64    0.70
   5  -6   6    4.41    0.88
  -6   6  -6    9.96    1.22
  -6   6  -6   13.70    1.35
  -6   6  -6   11.93    1.44
   6  -6   6   10.37    1.35
   6  -6   6    9.87    1.17
  -7   6  -6    3.84    0.75
  -7   6  -6    4.83    0.84
  -7   6  -6    4.10    0.76
  -7   6  -6    2.86    0.76
   7  -6   6    5.00    0.88
  -8   6  -6    7.57    1.03
  -8   6  -6    6.74    1.02
  -8   6  -6    5.11    1.04
   8  -6   6    4.90    0.95
   9   5  -6   10.50    1.19
   9   5  -6   10.90    0.66
  -9  -5   6   10.87    0.74
   8   5  -6    1.16    0.44
   8   5  -6    1.29    0.28
  -8  -5   6    1.90    0.68
  -8  -5   6    1.82    0.38
   7   5  -6    6.14    0.60
   7   5  -6    6.14    0.84
  -7  -5   6    5.72    0.61
  -7  -5   6    7.86    1.28
   6   5  -6   12.53    0.77
   6   5  -6   12.09    1.13
  -6  -5   6   11.63    1.44
  -6  -5   6   12.92    0.79
  -6  -5   6   12.94    0.80
   5   5  -6   -0.13    0.18
   5   5  -6    0.31    0.17
  -5  -5   6   -0.10    0.13
  -5  -5   6    0.22    0.32
  -5  -5   6   -0.11    0.14
   4   5  -6    0.47    0.21
   4   5  -6    0.26    0.20
   4   5  -6    0.18    0.22
  -4  -5   6    0.22    0.35
  -4  -5   6    0.05    0.17
  -4  -5   6    0.24    0.23
   3   5  -6    6.44    0.68
   3   5  -6    8.90    0.82
   3   5  -6    6.53    0.75
  -3  -5   6    8.41    0.79
  -3  -5   6    6.04    0.76
  -3  -5   6    7.76    1.13
   2   5  -6   22.63    1.17
   2   5  -6   24.57    1.25
   2   5  -6   23.46    1.19
  -2  -5   6   21.87    0.99
  -2  -5   6   23.02    1.21
  -2  -5   6   21.84    1.57
  -2  -5   6   23.03    1.37
   1   5  -6   61.04    2.49
   1   5  -6   65.53    2.48
   1   5  -6   64.52    2.45
   1   5  -6   60.46    2.43
   1   5  -6   61.44    2.39
  -1  -5   6   61.18    2.92
  -1  -5   6   65.02    2.24
  -1  -5   6   66.76    2.32
  -1  -5   6   61.55    2.68
  -1  -5   6   61.80    2.44
  -1  -5   6   65.19    2.32
   0   5  -6   39.10    1.84
   0   5  -6   37.55    1.70
   0   5  -6   41.13    1.82
   0   5  -6   42.63    1.81
   0  -5   6   38.46    1.65
   0  -5   6   40.22    2.28
   0  -5   6   41.29    1.84
   0  -5   6   39.31    1.70
   0  -5   6   38.98    2.00
  -1   5  -6   29.70    1.51
  -1   5  -6   31.46    1.62
  -1   5  -6   28.08    1.43
  -1   5  -6   28.37    1.51
   1  -5   6   33.19    1.54
   1  -5   6   31.27    1.75
   1  -5   6   31.37    1.57
   1  -5   6   31.99    1.49
  -2   5  -6    6.49    0.81
  -2   5  -6    5.21    0.72
  -2   5  -6    5.30    0.76
   2  -5   6    6.13    0.74
   2  -5   6    5.50    0.86
   2  -5   6    5.46    0.71
   2  -5   6    7.40    0.87
  -3   5  -6    5.21    0.75
  -3   5  -6    4.18    0.71
  -3   5  -6    4.87    0.73
   3  -5   6    6.33    0.79
   3  -5   6    5.87    0.91
  -4   5  -6   10.77    1.21
  -4   5  -6   11.27    1.12
   4  -5   6   11.78    1.31
   4  -5   6   14.09    1.25
  -5   5  -6   18.21    1.36
  -5   5  -6   16.71    1.48
  -5   5  -6   15.68    1.18
   5  -5   6   17.89    1.24
   5  -5   6   14.04    1.38
   5  -5   6   17.18    1.63
  -6   5  -6   14.57    1.53
  -6   5  -6   14.71    1.38
  -6   5  -6   13.84    1.15
  -6   5  -6   14.45    1.32
   6  -5   6   12.08    1.27
   6  -5   6   16.07    1.64
   6  -5   6   11.37    1.28
  -7   5  -6    3.37    0.70
  -7   5  -6    5.32    0.81
  -7   5  -6    3.17    0.78
  -7   5  -6    3.41    0.66
   7  -5   6    3.81    0.72
   7  -5   6    3.04    0.66
  -8   5  -6    0.60    0.32
  -8   5  -6    0.57    0.45
  -8   5  -6    0.51    0.37
   8  -5   6    0.90    0.44
   8  -5   6    0.88    0.43
  -9   5  -6    0.90    0.54
  -9   5  -6    0.02    0.28
  -9   5  -6    0.57    0.31
   9  -5   6    0.21    0.37
   9  -5   6    0.32    0.36
   9   4  -6    1.15    0.44
   9   4  -6    1.17    0.27
  -9  -4   6    1.15    0.32
   8   4  -6    0.80    0.24
   8   4  -6    1.00    0.39
  -8  -4   6    1.05    0.55
  -8  -4   6    1.29    0.33
   7   4  -6   17.55    1.20
   7   4  -6   20.02    0.99
  -7  -4   6   21.25    1.94
  -7  -4   6   18.72    1.00
   6   4  -6    5.19    0.55
   6   4  -6    6.04    0.78
  -6  -4   6    5.57    0.93
  -6  -4   6    5.84    0.60
  -6  -4   6    6.01    0.66
   5   4  -6    3.63    0.47
   5   4  -6    3.70    0.60
  -5  -4   6    3.07    0.52
  -5  -4   6    3.48    0.74
  -5  -4   6    3.61    0.47
  -5  -4   6    2.81    0.42
   4   4  -6   14.53    0.95
   4   4  -6   15.51    0.88
   4   4  -6   16.80    0.91
  -4  -4   6   15.53    0.88
  -4  -4   6   15.91    1.04
  -4  -4   6   15.74    0.90
  -4  -4   6   13.62    1.44
   3   4  -6   16.67    1.00
   3   4  -6   15.75    0.92
   3   4  -6   18.34    0.98
  -3  -4   6   16.78    0.69
  -3  -4   6   17.00    0.95
  -3  -4   6   18.56    1.01
  -3  -4   6   17.03    1.10
  -3  -4   6   18.10    1.62
   2   4  -6   70.82    2.57
   2   4  -6   69.67    2.56
   2   4  -6   70.63    2.57
   2   4  -6   73.31    2.66
  -2  -4   6   70.57    2.32
  -2  -4   6   70.58    2.87
  -2  -4   6   72.36    2.40
  -2  -4   6   72.61    2.60
  -2  -4   6   68.59    3.03
  -2  -4   6   71.05    2.41
   1   4  -6   19.77    1.07
   1   4  -6   19.30    1.04
   1   4  -6   20.82    1.13
   1   4  -6   20.58    1.10
  -1  -4   6   20.22    1.10
  -1  -4   6   22.03    1.05
  -1  -4   6   20.34    1.03
  -1  -4   6   20.46    1.27
  -1  -4   6   17.23    0.94
  -1  -4   6   18.70    1.36
   0   4  -6   31.18    1.48
   0   4  -6   30.22    1.47
   0   4  -6   31.31    1.47
   0   4  -6   33.61    1.56
   0   4  -6   31.32    1.39
   0  -4   6   30.68    1.41
   0  -4   6   32.14    1.49
   0  -4   6   29.66    1.42
   0  -4   6   30.75    1.68
   0  -4   6   30.30    1.38
  -1   4  -6    1.68    0.41
  -1   4  -6    1.43    0.37
  -1   4  -6    1.85    0.36
  -1   4  -6    2.07    0.43
   1  -4   6    1.20    0.34
   1  -4   6    1.56    0.39
   1  -4   6    1.68    0.48
   1  -4   6    1.62    0.41
   1  -4   6    1.94    0.41
  -2   4  -6    4.00    0.64
  -2   4  -6    3.19    0.52
  -2   4  -6    3.82    0.59
  -2   4  -6    2.65    0.43
  -2   4  -6    3.42    0.57
   2  -4   6    4.06    0.71
   2  -4   6    3.26    0.52
   2  -4   6    3.01    0.53
   2  -4   6    3.73    0.59
   2  -4   6    2.91    0.53
  -3   4  -6    0.32    0.24
  -3   4  -6   -0.05    0.17
  -3   4  -6   -0.07    0.15
  -3   4  -6    0.03    0.20
   3  -4   6    0.37    0.29
   3  -4   6    0.07    0.20
   3  -4   6    0.10    0.20
  -4   4  -6    6.22    0.81
  -4   4  -6    6.64    0.85
  -4   4  -6    5.26    0.79
   4  -4   6    5.17    0.85
   4  -4   6    5.44    0.77
   4  -4   6    6.99    0.85
  -5   4  -6   13.65    1.35
  -5   4  -6   15.46    1.09
  -5   4  -6   15.13    1.11
   5  -4   6   15.23    1.14
   5  -4   6   16.92    1.57
   5  -4   6   16.31    1.17
  -6   4  -6   14.79    1.50
  -6   4  -6   15.62    1.11
  -6   4  -6   16.24    1.17
  -6   4  -6   16.90    1.21
   6  -4   6   16.13    1.46
   6  -4   6   16.48    1.24
  -7   4  -6   10.73    1.30
  -7   4  -6   11.10    1.15
  -7   4  -6    8.71    1.00
   7  -4   6    9.37    1.13
   7  -4   6    9.84    1.16
  -8   4  -6    0.86    0.34
  -8   4  -6    0.99    0.40
  -8   4  -6    0.98    0.49
   8  -4   6    0.88    0.45
   8  -4   6    0.28    0.30
  -9   4  -6    0.66    0.29
  -9   4  -6    0.68    0.46
  -9   4  -6    0.55    0.32
   9  -4   6    1.36    0.55
   9  -4   6    1.17    0.50
  10   3  -6    3.89    0.53
 -10  -3   6    6.67    0.73
   9   3  -6    8.85    0.79
  -9  -3   6    9.32    0.85
   8   3  -6   10.11    0.69
  -8  -3   6   10.11    0.73
  -8  -3   6    8.31    1.21
   7   3  -6    5.29    0.57
  -7  -3   6    5.79    1.00
  -7  -3   6    5.08    0.65
  -7  -3   6    5.04    0.58
   6   3  -6    1.16    0.29
  -6  -3   6    0.99    0.30
  -6  -3   6    0.89    0.43
  -6  -3   6    1.10    0.29
  -6  -3   6    1.20    0.36
   5   3  -6    4.09    0.52
   5   3  -6    4.20    0.49
  -5  -3   6    5.32    0.56
  -5  -3   6    5.64    0.70
  -5  -3   6    4.94    0.86
  -5  -3   6    3.91    0.50
   4   3  -6   15.17    0.96
   4   3  -6   17.01    0.92
   4   3  -6   16.98    0.91
  -4  -3   6   16.12    1.46
  -4  -3   6   16.05    0.89
  -4  -3   6   17.97    1.11
  -4  -3   6   17.56    0.95
   3   3  -6   25.66    1.21
   3   3  -6   24.02    1.17
   3   3  -6   24.09    1.21
   3   3  -6   27.42    1.23
  -3  -3   6   25.88    1.40
  -3  -3   6   22.09    1.46
  -3  -3   6   26.43    1.22
  -3  -3   6   25.50    1.02
  -3  -3   6   26.28    1.03
  -3  -3   6   25.79    1.19
   2   3  -6   35.45    1.53
   2   3  -6   34.91    1.55
   2   3  -6   35.86    1.60
   2   3  -6   39.00    1.60
  -2  -3   6   39.10    1.44
  -2  -3   6   40.12    1.51
  -2  -3   6   37.56    1.47
  -2  -3   6   35.66    1.58
  -2  -3   6   38.71    1.84
  -2  -3   6   38.52    1.94
  -2  -3   6   38.60    1.59
   1   3  -6   79.02    2.85
   1   3  -6   77.07    2.75
   1   3  -6   80.90    2.76
   1   3  -6   77.45    2.63
  -1  -3   6   76.31    2.74
  -1  -3   6   77.99    2.65
  -1  -3   6   75.99    2.70
  -1  -3   6   77.02    2.67
  -1  -3   6   68.93    2.99
  -1  -3   6   79.63    3.16
   0   3  -6   45.36    1.87
   0   3  -6   44.86    1.94
   0   3  -6   48.45    2.04
   0   3  -6   47.42    1.90
   0   3  -6   45.32    1.75
   0  -3   6   45.03    1.84
   0  -3   6   47.50    1.90
   0  -3   6   45.40    2.14
   0  -3   6   43.78    1.80
   0  -3   6   44.05    1.83
   0  -3   6   49.35    2.07
  -1   3  -6   26.51    1.26
  -1   3  -6   22.35    1.08
  -1   3  -6   22.32    1.22
  -1   3  -6   23.10    1.22
  -1   3  -6   23.80    1.29
  -1   3  -6   22.46    1.22
   1  -3   6   23.28    1.21
   1  -3   6   24.12    1.22
   1  -3   6   23.07    1.24
   1  -3   6   24.18    1.44
   1  -3   6   22.12    1.18
  -2   3  -6   19.52    1.17
  -2   3  -6   21.16    1.03
  -2   3  -6   20.79    1.18
  -2   3  -6   19.56    1.25
  -2   3  -6   22.46    1.21
  -2   3  -6   20.32    1.17
   2  -3   6   24.49    1.27
   2  -3   6   20.26    1.17
   2  -3   6   25.17    1.26
   2  -3   6   22.15    1.41
   2  -3   6   24.45    1.26
  -3   3  -6   36.70    1.71
  -3   3  -6   36.80    1.72
  -3   3  -6   30.98    1.69
  -3   3  -6   34.58    1.75
  -3   3  -6   35.40    1.67
   3  -3   6   34.80    1.67
   3  -3   6   37.75    1.94
   3  -3   6   33.90    1.66
  -4   3  -6   12.21    1.13
  -4   3  -6   12.01    0.88
  -4   3  -6   11.21    1.06
  -4   3  -6    9.58    1.03
   4  -3   6   11.12    1.20
   4  -3   6   10.97    1.05
   4  -3   6    9.61    0.97
  -5   3  -6    1.83    0.49
  -5   3  -6    0.83    0.35
  -5   3  -6    0.82    0.32
  -5   3  -6    1.37    0.44
   5  -3   6    1.50    0.41
   5  -3   6    1.49    0.41
   5  -3   6    1.62    0.52
  -6   3  -6    0.23    0.24
  -6   3  -6   -0.25    0.15
  -6   3  -6    0.56    0.27
  -6   3  -6    0.59    0.33
  -6   3  -6    0.11    0.25
   6  -3   6    0.52    0.34
   6  -3   6    0.35    0.31
  -7   3  -6    0.30    0.25
  -7   3  -6    0.69    0.35
  -7   3  -6    0.40    0.25
  -7   3  -6    1.08    0.51
   7  -3   6    0.90    0.42
   7  -3   6    0.56    0.33
  -8   3  -6    0.18    0.29
  -8   3  -6    0.18    0.24
  -8   3  -6    0.12    0.29
  -8   3  -6   -0.16    0.14
   8  -3   6    0.36    0.32
   8  -3   6   -0.13    0.27
  -9   3  -6    0.32    0.38
  -9   3  -6    1.27    0.56
  -9   3  -6    0.89    0.31
   9  -3   6    0.57    0.36
   9  -3   6    1.33    0.51
  10   2  -6   14.65    0.94
 -10  -2   6   13.36    0.96
   9   2  -6   21.41    1.15
  -9  -2   6   23.30    1.24
   8   2  -6    6.19    0.65
  -8  -2   6    5.98    0.66
  -8  -2   6    5.85    0.76
   7   2  -6    2.60    0.43
   7   2  -6    4.06    0.51
  -7  -2   6    5.54    0.63
  -7  -2   6    3.99    0.77
  -7  -2   6    3.98    0.61
   6   2  -6   99.02    3.34
   6   2  -6  101.05    3.36
   6   2  -6  104.01    3.38
  -6  -2   6   97.35    3.66
  -6  -2   6  100.28    3.37
  -6  -2   6   99.74    3.86
   5   2  -6   68.19    2.51
   5   2  -6   71.78    2.53
  -5  -2   6   70.91    2.82
  -5  -2   6   73.32    2.53
  -5  -2   6   74.24    2.56
  -5  -2   6   70.60    2.94
   4   2  -6    2.24    0.37
   4   2  -6    2.04    0.36
  -4  -2   6    2.73    0.55
  -4  -2   6    2.49    0.27
  -4  -2   6    2.32    0.38
  -4  -2   6    2.05    0.25
  -4  -2   6    2.08    0.39
  -4  -2   6    2.01    0.45
   3   2  -6    0.45    0.19
   3   2  -6    0.77    0.24
  -3  -2   6    1.01    0.34
  -3  -2   6    0.78    0.20
  -3  -2   6    0.76    0.19
  -3  -2   6    0.90    0.26
  -3  -2   6    1.33    0.43
  -3  -2   6    0.76    0.23
  -3  -2   6    1.00    0.22
   2   2  -6    4.00    0.51
   2   2  -6    3.69    0.47
   2   2  -6    3.42    0.47
  -2  -2   6    5.50    0.75
  -2  -2   6    2.72    0.42
  -2  -2   6    4.22    0.67
  -2  -2   6    4.31    0.47
  -2  -2   6    3.34    0.43
  -2  -2   6    4.89    0.55
  -2  -2   6    4.02    0.46
  -2  -2   6    4.95    0.63
   1   2  -6    0.09    0.14
   1   2  -6    0.17    0.14
   1   2  -6    0.11    0.18
  -1  -2   6    0.16    0.23
  -1  -2   6    0.08    0.15
  -1  -2   6   -0.16    0.17
  -1  -2   6    0.13    0.14
  -1  -2   6    0.29    0.17
  -1  -2   6    0.65    0.30
  -1  -2   6    0.38    0.18
   0   2  -6   29.99    1.39
   0   2  -6   30.76    1.25
   0   2  -6   28.66    1.38
   0   2  -6   32.49    1.43
   0   2  -6   30.81    1.38
   0  -2   6   28.69    1.36
   0  -2   6   32.64    1.44
   0  -2   6   32.19    1.66
   0  -2   6   30.72    1.36
   0  -2   6   29.64    1.64
   0  -2   6   30.54    1.38
  -1   2  -6   22.76    1.18
  -1   2  -6   21.69    1.15
  -1   2  -6   24.44    1.27
  -1   2  -6   21.81    1.17
  -1   2  -6   21.53    1.15
  -1   2  -6   22.53    1.17
  -1   2  -6   23.87    1.02
   1  -2   6   23.28    1.19
   1  -2   6   20.63    1.12
   1  -2   6   23.39    1.40
   1  -2   6   22.89    1.18
   1  -2   6   21.70    1.43
   1  -2   6   22.37    1.16
  -2   2  -6   52.12    1.82
  -2   2  -6   50.96    2.18
  -2   2  -6   55.65    2.13
  -2   2  -6   49.64    2.07
  -2   2  -6   52.46    2.08
  -2   2  -6   51.49    2.10
   2  -2   6   53.92    2.13
   2  -2   6   45.53    2.41
   2  -2   6   51.74    2.08
   2  -2   6   48.09    2.03
   2  -2   6   50.31    2.10
   2  -2   6   54.59    2.41
  -3   2  -6   41.38    1.79
  -3   2  -6   37.17    1.71
  -3   2  -6   35.98    1.82
  -3   2  -6   39.31    1.78
  -3   2  -6   41.67    1.49
   3  -2   6   35.68    2.11
   3  -2   6   37.77    1.74
   3  -2   6   43.47    2.09
   3  -2   6   39.94    1.76
  -4   2  -6   10.40    1.05
  -4   2  -6   11.42    0.85
  -4   2  -6    9.74    0.90
  -4   2  -6   10.50    1.00
   4  -2   6   10.21    1.15
   4  -2   6   10.30    0.96
   4  -2   6    9.68    1.27
   4  -2   6   10.26    0.96
  -5   2  -6   12.69    0.90
  -5   2  -6   10.13    0.92
  -5   2  -6   10.16    1.03
  -5   2  -6    9.34    1.03
   5  -2   6   11.00    1.45
   5  -2   6    9.39    0.97
   5  -2   6   10.24    1.15
   5  -2   6    9.81    1.00
  -6   2  -6    4.88    0.81
  -6   2  -6    5.69    0.69
  -6   2  -6    5.51    0.81
  -6   2  -6    5.08    0.66
   6  -2   6    5.42    0.77
   6  -2   6    6.55    0.85
  -7   2  -6    7.78    1.03
  -7   2  -6    8.51    0.84
  -7   2  -6    9.74    0.70
  -7   2  -6    8.30    1.02
   7  -2   6    8.69    1.02
   7  -2   6    8.80    1.03
  -8   2  -6    8.93    0.81
  -8   2  -6   10.24    0.53
  -8   2  -6   10.36    1.25
  -8   2  -6   10.00    1.22
   8  -2   6    9.04    1.13
   8  -2   6   10.47    1.20
  -9   2  -6    3.77    0.34
  -9   2  -6    2.48    0.68
  -9   2  -6    2.27    0.64
  -9   2  -6    3.64    0.34
   9  -2   6    2.46    0.64
   9  -2   6    2.80    0.69
  10   1  -6    0.32    0.24
 -10  -1   6    0.08    0.25
   9   1  -6   -0.02    0.18
  -9  -1   6    0.06    0.27
  -9  -1   6   -0.04    0.19
   8   1  -6    1.91    0.40
  -8  -1   6    1.64    0.38
  -8  -1   6    3.39    0.62
   7   1  -6    7.14    0.74
   7   1  -6    5.28    0.62
  -7  -1   6    5.76    0.85
  -7  -1   6    5.63    0.78
  -7  -1   6    4.32    0.57
   6   1  -6   24.03    1.17
   6   1  -6   20.55    1.11
  -6  -1   6   22.73    1.16
  -6  -1   6   22.11    1.34
  -6  -1   6   22.69    1.38
   5   1  -6   20.27    1.06
   5   1  -6   21.64    1.10
   5   1  -6   21.00    1.08
  -5  -1   6   21.01    1.07
  -5  -1   6   21.07    0.83
  -5  -1   6   24.01    1.34
  -5  -1   6   20.18    1.27
  -5  -1   6   22.59    1.12
   4   1  -6    9.17    0.65
   4   1  -6    8.65    0.63
  -4  -1   6    9.44    0.50
  -4  -1   6    9.21    0.55
  -4  -1   6    9.34    0.56
  -4  -1   6    8.09    0.73
  -4  -1   6    8.42    0.92
  -4  -1   6    9.64    0.96
  -4  -1   6    9.49    0.59
  -4  -1   6    8.78    0.63
   3   1  -6    9.81    0.67
   3   1  -6    9.52    0.66
  -3  -1   6    9.82    0.62
  -3  -1   6   10.32    0.60
  -3  -1   6    9.38    0.97
  -3  -1   6   10.03    0.62
  -3  -1   6    8.06    0.62
  -3  -1   6    9.05    0.67
  -3  -1   6    9.42    0.68
  -3  -1   6    9.52    0.95
   2   1  -6    2.56    0.41
   2   1  -6    1.91    0.36
  -2  -1   6    2.34    0.36
  -2  -1   6    2.52    0.51
  -2  -1   6    2.02    0.32
  -2  -1   6    1.64    0.34
  -2  -1   6    1.70    0.32
  -2  -1   6    1.53    0.39
   1   1  -6  180.60    5.49
   1   1  -6  180.92    5.28
   1   1  -6  179.90    5.57
   1   1  -6  174.50    5.56
   1   1  -6  171.64    5.54
  -1  -1   6  180.68    5.55
  -1  -1   6  180.38    6.10
  -1  -1   6  186.22    5.56
  -1  -1   6  186.10    6.00
  -1  -1   6  177.87    5.49
  -1  -1   6  182.96    5.55
   0   1  -6  258.45    7.57
   0   1  -6  273.39    8.02
   0   1  -6  271.03    8.04
   0   1  -6  268.21    8.01
   0   1  -6  269.11    7.93
   0  -1   6  270.88    8.64
   0  -1   6  269.75    7.97
   0  -1   6  259.65    7.98
   0  -1   6  266.35    7.95
   0  -1   6  270.27    8.00
   0  -1   6  272.73    8.61
  -1   1  -6  237.26    7.10
  -1   1  -6  233.64    6.69
  -1   1  -6  233.57    7.18
  -1   1  -6  236.28    7.17
  -1   1  -6  231.40    7.12
   1  -1   6  245.07    7.14
   1  -1   6  249.36    7.81
   1  -1   6  231.97    7.12
   1  -1   6  223.59    7.76
   1  -1   6  237.37    7.16
   1  -1   6  236.12    7.17
  -2   1  -6    4.84    0.58
  -2   1  -6    5.28    0.64
  -2   1  -6    5.60    0.39
  -2   1  -6    6.33    0.69
  -2   1  -6    5.52    0.66
   2  -1   6    6.51    0.70
   2  -1   6    6.72    0.87
   2  -1   6    5.77    0.89
   2  -1   6    4.98    0.61
   2  -1   6    5.77    0.71
   2  -1   6    4.93    0.61
  -3   1  -6    0.84    0.27
  -3   1  -6    1.20    0.35
  -3   1  -6    1.16    0.32
  -3   1  -6    1.02    0.26
  -3   1  -6    0.75    0.28
   3  -1   6    0.39    0.34
   3  -1   6    0.99    0.38
   3  -1   6    0.48    0.23
   3  -1   6    1.48    0.35
  -4   1  -6    3.28    0.47
  -4   1  -6    2.91    0.54
  -4   1  -6    3.17    0.54
  -4   1  -6    3.92    0.58
  -4   1  -6    4.21    0.57
   4  -1   6    4.21    0.84
   4  -1   6    2.70    0.48
   4  -1   6    3.47    0.65
   4  -1   6    2.78    0.50
  -5   1  -6    0.07    0.23
  -5   1  -6    0.23    0.19
  -5   1  -6    0.27    0.20
  -5   1  -6    0.23    0.24
   5  -1   6   -0.03    0.34
   5  -1   6    0.06    0.18
   5  -1   6    0.33    0.25
  -6   1  -6    1.38    0.42
  -6   1  -6    1.82    0.38
  -6   1  -6    1.89    0.35
  -6   1  -6    0.86    0.40
   6  -1   6    2.49    0.74
   6  -1   6    1.43    0.43
   6  -1   6    1.99    0.48
  -7   1  -6    7.65    0.99
  -7   1  -6    5.68    0.60
  -7   1  -6    6.16    0.61
  -7   1  -6    6.42    0.40
  -7   1  -6    4.67    0.79
   7  -1   6    8.93    1.36
   7  -1   6    5.89    0.83
   7  -1   6    5.75    0.83
  -8   1  -6    5.70    0.38
  -8   1  -6    3.24    0.66
  -8   1  -6    4.51    0.34
  -8   1  -6    4.46    0.80
   8  -1   6    4.70    0.80
   8  -1   6    3.98    0.73
  -9   1  -6    1.65    0.58
   9  -1   6    2.69    0.65
   9  -1   6    1.22    0.46
  11   0  -6    1.71    0.49
 -11   0   6    2.22    0.54
  10   0  -6   12.70    1.17
 -10   0   6   12.69    1.33
 -10   0   6   15.23    1.12
   9   0  -6   50.45    2.20
  -9   0   6   51.95    2.49
  -9   0   6   51.65    2.25
   8   0  -6   64.51    2.56
   8   0  -6   62.57    2.51
  -8   0   6   62.08    2.53
  -8   0   6   65.60    2.84
   7   0  -6   24.44    1.30
   7   0  -6   27.13    1.34
  -7   0   6   25.29    1.32
  -7   0   6   23.91    1.49
   6   0  -6    3.66    0.54
   6   0  -6    4.04    0.54
  -6   0   6    3.72    0.60
  -6   0   6    2.80    0.46
  -6   0   6    4.13    0.37
  -6   0   6    3.81    0.66
   5   0  -6   35.76    1.54
   5   0  -6   30.76    1.46
  -5   0   6   34.06    1.24
  -5   0   6   32.66    1.49
  -5   0   6   30.43    1.69
  -5   0   6   33.25    1.32
  -5   0   6   35.49    1.62
   4   0  -6    5.65    0.63
   4   0  -6    5.40    0.61
   4   0  -6    5.70    0.63
  -4   0   6    5.95    0.62
  -4   0   6    5.94    0.62
  -4   0   6    4.01    0.66
  -4   0   6    5.14    0.54
  -4   0   6    5.53    0.51
  -4   0   6    6.11    0.59
  -4   0   6    5.46    0.62
  -4   0   6    5.37    0.65
   3   0  -6   12.75    0.82
   3   0  -6   13.51    0.83
  -3   0   6   13.03    0.85
  -3   0   6   13.68    0.85
  -3   0   6   13.83    0.89
  -3   0   6   14.95    0.82
  -3   0   6   14.30    0.77
  -3   0   6   14.46    1.04
  -3   0   6   15.35    0.82
   2   0  -6   43.34    1.74
   2   0  -6   42.22    1.74
  -2   0   6   42.61    1.76
  -2   0   6   45.03    1.94
  -2   0   6   42.79    1.75
  -2   0   6   42.73    1.68
  -2   0   6   43.14    1.71
  -2   0   6   42.10    1.70
  -2   0   6   43.27    2.03
   1   0  -6   23.38    1.21
   1   0  -6   25.60    1.25
   1   0  -6   27.23    1.27
   1   0  -6   29.34    1.26
  -1   0   6   26.21    1.26
  -1   0   6   28.26    1.25
  -1   0   6   27.39    1.48
  -1   0   6   26.39    1.22
  -1   0   6   26.91    1.24
  -1   0   6   28.59    1.54
   0   0  -6   27.39    1.05
   0   0  -6   29.34    1.33
   0   0  -6   30.18    1.34
   0   0  -6   27.10    1.28
   0   0  -6   26.70    1.29
   0   0   6   26.79    1.57
   0   0   6   28.57    1.30
   0   0   6   27.73    1.31
   0   0   6   28.39    1.29
   0   0   6   27.48    1.57
   0   0   6   28.34    1.29
  -1   0  -6   51.52    1.99
  -1   0  -6   48.89    1.95
  -1   0  -6   49.70    1.97
  -1   0  -6   48.57    1.97
  -1   0  -6   49.01    1.61
   1   0   6   53.07    2.44
   1   0   6   54.55    2.01
   1   0   6   50.35    2.29
   1   0   6   49.78    1.95
   1   0   6   45.07    1.92
   1   0   6   49.84    1.99
  -2   0  -6   17.94    1.03
  -2   0  -6   17.34    0.98
  -2   0  -6   16.75    0.96
  -2   0  -6   19.40    1.03
  -2   0  -6   17.80    0.99
   2   0   6   18.63    1.03
   2   0   6   16.89    1.00
   2   0   6   17.46    1.19
   2   0   6   18.53    1.38
  -3   0  -6   10.45    0.74
  -3   0  -6    9.28    0.86
  -3   0  -6   10.87    0.76
  -3   0  -6    9.59    0.71
  -3   0  -6   10.46    0.73
   3   0   6    9.85    1.09
   3   0   6    9.87    1.27
   3   0   6   11.03    0.78
   3   0   6   11.07    0.79
  -4   0  -6   13.26    0.82
  -4   0  -6   13.59    0.94
  -4   0  -6   14.52    0.88
  -4   0  -6   13.55    0.85
  -4   0  -6   12.87    0.97
  -4   0  -6   14.34    0.93
   4   0   6   15.85    1.69
   4   0   6   15.22    0.98
   4   0   6   15.64    0.97
   4   0   6   14.30    1.11
  -5   0  -6   20.45    1.26
  -5   0  -6   20.16    1.04
  -5   0  -6   19.25    1.00
  -5   0  -6   20.43    1.21
  -5   0  -6   17.59    1.15
  -5   0  -6   19.63    1.02
   5   0   6   17.09    1.76
   5   0   6   17.72    1.13
   5   0   6   17.31    1.11
  -6   0  -6   15.02    1.08
  -6   0  -6   14.71    0.67
  -6   0  -6   13.77    0.79
  -6   0  -6   13.19    0.78
  -6   0  -6   14.27    0.66
  -6   0  -6   13.38    1.05
   6   0   6   13.07    1.62
   6   0   6   13.85    1.01
   6   0   6   13.44    1.00
  -7   0  -6    2.76    0.60
  -7   0  -6    3.21    0.31
  -7   0  -6    1.97    0.55
  -7   0  -6    2.61    0.28
   7   0   6    2.74    0.81
   7   0   6    2.92    0.58
   7   0   6    3.40    0.63
  -8   0  -6   -0.12    0.29
  -8   0  -6    0.00    0.33
   8   0   6    0.06    0.25
   8   0   6    0.18    0.28
   8   0   6    0.42    0.54
  -9   0  -6    0.43    0.40
  -9   0  -6    1.10    0.50
   9   0   6    0.67    0.36
  11  -1  -6   -0.17    0.22
 -11   1   6   -0.09    0.26
 -11   1   6   -0.10    0.34
  10  -1  -6    2.21    0.54
 -10   1   6    1.90    0.64
 -10   1   6    3.16    0.63
   9  -1  -6    6.77    0.87
   9  -1  -6    9.03    0.99
  -9   1   6    6.12    1.00
  -9   1   6    8.78    0.98
   8  -1  -6   22.43    1.32
   8  -1  -6   20.86    1.26
  -8   1   6   21.75    1.51
  -8   1   6   19.73    1.25
   7  -1  -6    0.44    0.26
   7  -1  -6    0.39    0.23
  -7   1   6    0.46    0.16
  -7   1   6    0.40    0.29
  -7   1   6    0.48    0.18
  -7   1   6    0.27    0.24
   6  -1  -6    0.02    0.16
   6  -1  -6    0.48    0.26
  -6   1   6    0.32    0.29
  -6   1   6    0.52    0.26
  -6   1   6    0.42    0.18
   5  -1  -6   78.41    2.85
   5  -1  -6   78.48    2.85
  -5   1   6   76.25    2.75
  -5   1   6   79.39    3.23
  -5   1   6   81.26    2.78
  -5   1   6   75.85    2.68
  -5   1   6   75.62    2.61
  -5   1   6   77.79    2.83
   4  -1  -6   90.40    3.24
   4  -1  -6   87.78    3.22
  -4   1   6   93.42    3.25
  -4   1   6   94.98    3.65
  -4   1   6   94.57    3.18
  -4   1   6   94.11    3.32
  -4   1   6   97.74    3.12
  -4   1   6   95.39    3.19
  -4   1   6   94.32    3.12
   3  -1  -6  117.14    3.85
   3  -1  -6  113.60    3.82
   3  -1  -6  116.99    3.84
  -3   1   6  115.74    4.01
  -3   1   6  110.31    3.63
  -3   1   6  114.54    3.81
  -3   1   6  114.90    3.74
  -3   1   6  112.03    3.78
  -3   1   6  120.86    4.29
  -3   1   6  114.41    3.93
  -3   1   6  117.79    3.79
   2  -1  -6   15.50    0.90
   2  -1  -6   13.47    0.86
   2  -1  -6   14.12    0.88
   2  -1  -6   15.91    0.90
  -2   1   6   13.27    1.04
  -2   1   6   14.06    0.99
  -2   1   6   15.31    0.91
  -2   1   6   16.16    0.83
  -2   1   6   15.25    0.88
  -2   1   6   13.86    0.83
  -2   1   6   15.13    0.88
   1  -1  -6    2.46    0.41
   1  -1  -6    2.18    0.41
   1  -1  -6    3.16    0.47
   1  -1  -6    3.13    0.48
  -1   1   6    2.30    0.52
  -1   1   6    2.42    0.39
  -1   1   6    1.96    0.37
  -1   1   6    3.03    0.58
  -1   1   6    2.53    0.44
  -1   1   6    3.02    0.48
   0  -1  -6    0.07    0.16
   0  -1  -6    0.23    0.16
   0  -1  -6    0.15    0.18
   0  -1  -6    0.14    0.15
   0  -1  -6    0.13    0.09
   0   1   6    0.26    0.18
   0   1   6    0.16    0.16
   0   1   6    0.21    0.17
   0   1   6    0.17    0.15
   0   1   6    0.17    0.24
   0   1   6    0.00    0.20
  -1  -1  -6    7.46    0.74
  -1  -1  -6    7.36    0.74
  -1  -1  -6    8.69    0.79
  -1  -1  -6    6.99    0.68
  -1  -1  -6    8.22    0.76
  -1  -1  -6    6.38    0.34
   1   1   6    7.45    0.92
   1   1   6    7.04    0.71
   1   1   6    6.93    0.71
   1   1   6    6.24    0.90
  -2  -1  -6   10.20    0.70
  -2  -1  -6    9.04    0.67
  -2  -1  -6   13.59    0.82
  -2  -1  -6    9.84    0.70
  -2  -1  -6   10.35    0.77
   2   1   6   10.37    0.74
   2   1   6   11.50    1.31
   2   1   6   10.93    1.12
   2   1   6   11.10    0.75
  -3  -1  -6    9.70    0.91
  -3  -1  -6    9.42    0.65
  -3  -1  -6   10.58    0.70
  -3  -1  -6   10.84    0.99
  -3  -1  -6    9.36    0.69
   3   1   6    8.78    1.23
   3   1   6   10.37    0.76
   3   1   6    8.73    1.02
   3   1   6    9.02    0.86
  -4  -1  -6   12.22    0.94
  -4  -1  -6   12.30    0.77
  -4  -1  -6   13.06    0.79
  -4  -1  -6   14.22    0.95
   4   1   6   12.64    1.51
   4   1   6   12.18    0.86
   4   1   6   12.11    0.86
  -5  -1  -6    2.91    0.30
  -5  -1  -6    1.54    0.46
  -5  -1  -6    2.66    0.52
  -5  -1  -6    3.99    0.63
  -5  -1  -6    2.27    0.27
  -5  -1  -6    2.29    0.35
  -5  -1  -6    2.72    0.38
   5   1   6    3.33    0.55
   5   1   6    2.84    0.51
   5   1   6    1.93    0.65
  -6  -1  -6    6.34    0.37
  -6  -1  -6    5.32    0.85
  -6  -1  -6    5.39    0.74
  -6  -1  -6    6.12    0.82
  -6  -1  -6    6.94    0.39
   6   1   6    7.45    1.26
   6   1   6    5.37    0.71
   6   1   6    5.13    0.72
  -7  -1  -6    4.07    0.71
  -7  -1  -6    5.41    0.77
   7   1   6    3.59    0.62
   7   1   6    2.93    0.90
   7   1   6    4.05    0.68
  -8  -1  -6    4.91    0.83
  -8  -1  -6    4.86    0.80
   8   1   6    5.45    1.19
   8   1   6    5.13    0.77
  -9  -1  -6    1.71    0.54
   9   1   6    1.49    0.46
  11  -2  -6   14.28    1.41
 -11   2   6   13.58    1.41
 -11   2   6   12.43    1.54
  10  -2  -6    4.16    0.78
  10  -2  -6    4.40    0.77
 -10   2   6    3.73    0.86
 -10   2   6    4.18    0.79
   9  -2  -6    3.12    0.64
   9  -2  -6    3.11    0.65
  -9   2   6    2.69    0.23
  -9   2   6    2.85    0.74
  -9   2   6    2.71    0.23
  -9   2   6    3.02    0.63
   8  -2  -6    5.39    0.79
   8  -2  -6    4.98    0.74
  -8   2   6    4.71    0.75
  -8   2   6    5.26    0.53
  -8   2   6    5.56    0.54
  -8   2   6    4.70    0.87
   7  -2  -6   28.49    1.53
   7  -2  -6   27.41    1.52
  -7   2   6   28.38    1.31
  -7   2   6   28.38    1.53
  -7   2   6   26.80    1.27
  -7   2   6   30.06    1.83
   6  -2  -6   19.23    1.16
   6  -2  -6   19.34    1.16
  -6   2   6   17.27    1.12
  -6   2   6   18.95    1.38
  -6   2   6   18.09    0.96
  -6   2   6   18.93    1.03
   5  -2  -6   12.18    0.89
   5  -2  -6   12.29    0.91
  -5   2   6   13.44    0.93
  -5   2   6   14.94    0.86
  -5   2   6   13.20    0.91
  -5   2   6   14.83    0.91
  -5   2   6   14.95    1.41
   4  -2  -6    0.75    0.30
   4  -2  -6    0.20    0.17
  -4   2   6    0.82    0.26
  -4   2   6    0.29    0.21
  -4   2   6    0.72    0.27
  -4   2   6    0.38    0.21
  -4   2   6    0.50    0.32
  -4   2   6    0.30    0.16
  -4   2   6    0.01    0.16
   3  -2  -6    1.24    0.34
   3  -2  -6    0.69    0.27
   3  -2  -6    0.74    0.27
   3  -2  -6    0.23    0.20
  -3   2   6    0.93    0.33
  -3   2   6    0.68    0.18
  -3   2   6    1.01    0.39
  -3   2   6    0.59    0.24
  -3   2   6    0.42    0.24
  -3   2   6    0.42    0.19
  -3   2   6    0.78    0.28
   2  -2  -6   53.21    2.06
   2  -2  -6   55.17    2.08
   2  -2  -6   48.93    2.00
   2  -2  -6   55.16    2.07
   2  -2  -6   51.91    2.07
  -2   2   6   49.89    1.71
  -2   2   6   48.95    2.33
  -2   2   6   46.95    2.25
  -2   2   6   46.97    2.00
  -2   2   6   54.61    2.06
  -2   2   6   47.96    2.01
  -2   2   6   52.08    2.02
   1  -2  -6   20.18    1.08
   1  -2  -6   18.75    1.05
   1  -2  -6   19.04    1.06
   1  -2  -6   19.40    1.07
  -1   2   6   21.18    1.09
  -1   2   6   19.73    1.07
  -1   2   6   18.79    1.28
  -1   2   6   20.51    1.09
  -1   2   6   17.53    1.25
  -1   2   6   19.68    1.05
   0  -2  -6   76.57    2.79
   0  -2  -6   82.52    2.86
   0  -2  -6   78.32    2.82
   0  -2  -6   79.33    2.84
   0   2   6   86.11    3.30
   0   2   6   79.39    2.82
   0   2   6   80.01    2.84
   0   2   6   80.33    3.32
   0   2   6   73.42    2.83
  -1  -2  -6   72.27    2.55
  -1  -2  -6   73.44    2.63
  -1  -2  -6   70.58    2.02
  -1  -2  -6   69.41    2.56
  -1  -2  -6   69.39    2.57
   1   2   6   71.01    2.97
   1   2   6   69.11    3.10
   1   2   6   71.10    2.62
   1   2   6   72.58    2.61
  -2  -2  -6  128.98    4.48
  -2  -2  -6  133.03    4.32
  -2  -2  -6  130.09    4.16
  -2  -2  -6  130.91    4.22
  -2  -2  -6  129.52    4.16
  -2  -2  -6  131.11    4.61
  -2  -2  -6  127.01    4.20
   2   2   6  135.21    4.33
   2   2   6  130.45    4.79
   2   2   6  132.97    5.03
   2   2   6  130.57    4.29
  -3  -2  -6   61.98    2.44
  -3  -2  -6   62.87    2.43
  -3  -2  -6   63.80    2.30
  -3  -2  -6   63.89    2.29
  -3  -2  -6   71.06    2.71
  -3  -2  -6   60.65    2.21
   3   2   6   60.29    3.03
   3   2   6   63.59    2.45
   3   2   6   65.10    2.46
  -4  -2  -6   19.44    0.87
  -4  -2  -6   20.20    1.17
  -4  -2  -6   17.45    0.91
  -4  -2  -6   21.00    1.33
  -4  -2  -6   18.43    0.92
   4   2   6   22.15    1.19
   4   2   6   20.06    1.94
   4   2   6   21.89    1.17
  -5  -2  -6    5.02    0.81
  -5  -2  -6    4.43    0.32
  -5  -2  -6    3.53    0.57
  -5  -2  -6    4.15    0.36
   5   2   6    4.91    0.69
   5   2   6    4.32    0.64
   5   2   6    4.98    1.02
  -6  -2  -6    0.56    0.31
  -6  -2  -6    0.50    0.37
  -6  -2  -6    0.44    0.29
   6   2   6    0.19    0.21
   6   2   6    0.61    0.52
   6   2   6    0.73    0.32
  -7  -2  -6    0.89    0.36
  -7  -2  -6    0.22    0.28
   7   2   6    0.10    0.19
   7   2   6    0.41    0.48
   7   2   6    0.41    0.30
  -8  -2  -6   -0.10    0.22
  -8  -2  -6   -0.01    0.26
   8   2   6   -0.02    0.19
  11  -3  -6    0.38    0.40
  11  -3  -6    0.02    0.30
 -11   3   6    0.07    0.37
 -11   3   6    0.45    0.51
  10  -3  -6    3.12    0.68
  10  -3  -6    4.09    0.82
 -10   3   6    3.22    0.83
 -10   3   6    3.47    0.32
 -10   3   6    2.97    0.68
 -10   3   6    3.07    0.30
   9  -3  -6   15.31    1.46
   9  -3  -6   15.43    1.45
  -9   3   6   15.13    1.65
  -9   3   6   16.76    1.48
  -9   3   6   15.14    0.89
  -9   3   6   14.54    0.85
   8  -3  -6   48.35    2.32
   8  -3  -6   51.96    2.38
  -8   3   6   51.12    2.36
  -8   3   6   50.72    2.05
  -8   3   6   47.00    2.63
   7  -3  -6   83.58    3.32
   7  -3  -6   88.18    3.36
  -7   3   6   86.92    3.35
  -7   3   6   84.36    3.11
  -7   3   6   86.02    3.77
   6  -3  -6   45.37    2.09
   6  -3  -6   43.59    2.05
  -6   3   6   44.71    2.41
  -6   3   6   45.23    2.04
  -6   3   6   46.36    2.10
  -6   3   6   46.45    1.92
  -6   3   6   47.32    1.99
   5  -3  -6   25.52    1.38
   5  -3  -6   24.60    1.38
  -5   3   6   23.59    1.29
  -5   3   6   24.80    1.40
  -5   3   6   24.19    1.26
  -5   3   6   23.49    1.60
  -5   3   6   27.07    1.42
   4  -3  -6   92.76    3.42
   4  -3  -6   96.97    3.45
  -4   3   6   97.87    3.63
  -4   3   6   96.41    3.35
  -4   3   6   99.61    3.44
  -4   3   6   90.28    3.81
  -4   3   6   91.67    3.37
   3  -3  -6   11.98    0.88
   3  -3  -6   14.78    0.95
   3  -3  -6   12.64    0.89
   3  -3  -6   11.65    0.86
  -3   3   6   12.88    1.23
  -3   3   6   15.01    0.91
  -3   3   6   12.26    1.26
  -3   3   6   11.88    0.87
  -3   3   6   13.35    0.91
  -3   3   6   11.74    0.83
   2  -3  -6    2.96    0.48
   2  -3  -6    2.62    0.47
   2  -3  -6    3.79    0.57
   2  -3  -6    2.22    0.42
   2  -3  -6    1.89    0.40
  -2   3   6    2.76    0.47
  -2   3   6    3.40    0.56
  -2   3   6    2.72    0.58
  -2   3   6    2.67    0.59
  -2   3   6    1.96    0.42
  -2   3   6    1.95    0.40
   1  -3  -6    3.27    0.51
   1  -3  -6    3.23    0.50
   1  -3  -6    3.64    0.54
   1  -3  -6    4.13    0.58
  -1   3   6    3.77    0.55
  -1   3   6    3.57    0.53
  -1   3   6    2.25    0.54
  -1   3   6    4.13    0.59
  -1   3   6    2.54    0.59
   0  -3  -6    5.19    0.65
   0  -3  -6    4.56    0.59
   0  -3  -6    5.29    0.63
   0  -3  -6    3.91    0.54
   0   3   6    5.32    0.86
   0   3   6    4.76    0.61
   0   3   6    6.04    0.86
   0   3   6    4.48    0.61
  -1  -3  -6    7.76    0.76
  -1  -3  -6    6.07    0.63
  -1  -3  -6    7.14    0.76
  -1  -3  -6    6.09    0.67
  -1  -3  -6    7.90    0.79
   1   3   6    8.92    1.03
   1   3   6    9.41    1.22
   1   3   6    8.22    0.82
   1   3   6    7.55    0.77
  -2  -3  -6    5.51    0.59
  -2  -3  -6    7.83    0.72
  -2  -3  -6    8.59    0.99
  -2  -3  -6    7.38    0.78
  -2  -3  -6    7.68    0.56
  -2  -3  -6    7.33    0.71
  -2  -3  -6    7.36    0.55
   2   3   6    6.37    1.02
   2   3   6    5.78    0.68
   2   3   6    8.64    1.04
   2   3   6    7.25    0.76
  -3  -3  -6    0.36    0.14
  -3  -3  -6    0.32    0.17
  -3  -3  -6    0.22    0.15
  -3  -3  -6    0.11    0.20
  -3  -3  -6    0.41    0.26
   3   3   6    0.27    0.17
   3   3   6    0.36    0.23
   3   3   6   -0.26    0.26
  -4  -3  -6   16.49    1.04
  -4  -3  -6   15.39    1.45
  -4  -3  -6   14.59    0.70
  -4  -3  -6   14.35    0.70
   4   3   6   16.76    1.02
   4   3   6   16.64    1.78
   4   3   6   14.30    0.97
  -5  -3  -6    5.80    0.76
  -5  -3  -6    5.37    0.91
   5   3   6    8.02    0.87
   5   3   6    4.29    0.95
  -6  -3  -6    6.29    0.81
  -6  -3  -6    7.10    1.12
  -6  -3  -6    5.11    0.76
   6   3   6    6.24    0.78
   6   3   6    5.96    0.78
   6   3   6    7.28    1.33
  -7  -3  -6    5.47    0.78
  -7  -3  -6    4.30    0.71
  -7  -3  -6    5.17    1.04
   7   3   6    4.41    1.09
   7   3   6    3.87    0.63
  -8  -3  -6    3.31    0.64
  -8  -3  -6    4.61    0.76
   8   3   6    3.20    0.61
  10  -4  -6    6.73    1.03
  10  -4  -6    6.48    1.04
 -10   4   6    7.00    0.71
 -10   4   6    7.01    1.26
 -10   4   6    6.95    1.07
   9  -4  -6    0.84    0.39
   9  -4  -6    0.41    0.35
  -9   4   6    0.39    0.39
  -9   4   6    0.13    0.33
  -9   4   6    0.21    0.23
   8  -4  -6    0.02    0.26
   8  -4  -6    0.07    0.23
  -8   4   6   -0.25    0.16
  -8   4   6   -0.13    0.24
  -8   4   6    0.08    0.28
   7  -4  -6    2.36    0.56
   7  -4  -6    2.80    0.61
  -7   4   6    3.41    0.67
  -7   4   6    2.55    0.53
  -7   4   6    1.86    0.61
  -7   4   6    3.29    0.55
   6  -4  -6    4.50    0.71
   6  -4  -6    4.35    0.70
  -6   4   6    5.57    0.74
  -6   4   6    5.51    0.71
  -6   4   6    6.44    0.84
  -6   4   6    6.24    1.05
   5  -4  -6   18.03    1.21
   5  -4  -6   21.94    1.29
  -5   4   6   19.99    1.24
  -5   4   6   17.07    1.15
  -5   4   6   18.84    1.15
  -5   4   6   19.69    1.49
   4  -4  -6   45.96    2.06
   4  -4  -6   44.92    2.06
  -4   4   6   47.56    2.07
  -4   4   6   49.60    2.10
  -4   4   6   44.96    2.22
  -4   4   6   42.87    1.98
  -4   4   6   45.93    2.41
   3  -4  -6   12.70    0.95
   3  -4  -6   13.42    0.96
   3  -4  -6   15.72    1.02
  -3   4   6   12.64    0.95
  -3   4   6   13.41    1.31
  -3   4   6   13.68    1.40
  -3   4   6   14.14    0.97
  -3   4   6   15.24    0.99
   2  -4  -6   29.41    1.44
   2  -4  -6   27.20    1.42
   2  -4  -6   28.56    1.46
   2  -4  -6   28.28    1.46
   2  -4  -6   28.33    1.44
  -2   4   6   29.24    1.74
  -2   4   6   26.80    1.42
  -2   4   6   28.65    1.72
  -2   4   6   27.19    1.41
   1  -4  -6   24.31    1.29
   1  -4  -6   25.26    1.33
   1  -4  -6   26.88    1.38
  -1   4   6   24.56    1.62
  -1   4   6   25.59    1.32
  -1   4   6   26.62    1.63
  -1   4   6   23.96    1.32
   0  -4  -6   24.91    1.33
   0  -4  -6   25.81    1.30
   0  -4  -6   26.21    1.27
   0   4   6   25.10    1.31
   0   4   6   25.56    1.34
   0   4   6   24.85    1.58
   0   4   6   23.68    1.66
  -1  -4  -6   43.22    1.79
  -1  -4  -6   41.30    1.73
  -1  -4  -6   41.92    2.07
  -1  -4  -6   45.23    1.91
  -1  -4  -6   45.01    1.82
  -1  -4  -6   42.59    1.90
   1   4   6   43.08    2.20
   1   4   6   43.26    2.39
   1   4   6   41.04    1.87
   1   4   6   44.34    1.89
  -2  -4  -6   15.00    0.86
  -2  -4  -6   15.43    1.17
  -2  -4  -6   15.29    0.83
  -2  -4  -6   14.55    0.98
  -2  -4  -6   14.77    0.85
   2   4   6   13.46    0.94
   2   4   6   16.19    1.76
   2   4   6   14.67    0.97
  -3  -4  -6    5.08    0.49
  -3  -4  -6    4.69    0.25
  -3  -4  -6    4.37    0.45
  -3  -4  -6    3.84    0.74
  -3  -4  -6    3.88    0.59
   3   4   6    5.50    1.03
   3   4   6    4.73    0.64
   3   4   6    5.25    0.69
  -4  -4  -6    1.67    0.43
  -4  -4  -6    1.71    0.56
   4   4   6    1.04    0.32
   4   4   6    1.53    0.61
   4   4   6    1.28    0.39
  -5  -4  -6    0.62    0.42
  -5  -4  -6    1.42    0.41
   5   4   6    0.84    0.61
   5   4   6    1.54    0.40
   5   4   6    2.10    0.47
  -6  -4  -6    1.17    0.57
  -6  -4  -6    1.05    0.38
  -6  -4  -6    0.95    0.36
   6   4   6    1.62    0.42
   6   4   6    0.35    0.57
  -7  -4  -6    0.83    0.55
  -7  -4  -6    0.50    0.31
  -7  -4  -6    0.25    0.31
   7   4   6    0.01    0.49
   7   4   6    0.08    0.28
  10  -5  -6    4.67    0.92
  10  -5  -6    6.41    1.04
 -10   5   6    7.48    0.86
 -10   5   6    5.96    1.18
   9  -5  -6   17.40    1.69
   9  -5  -6   17.60    1.67
  -9   5   6   18.18    1.23
  -9   5   6   19.33    2.11
   8  -5  -6   31.95    1.92
   8  -5  -6   33.55    1.96
  -8   5   6   35.11    2.31
  -8   5   6   33.56    1.81
   7  -5  -6   32.80    1.83
   7  -5  -6   28.57    1.72
  -7   5   6   29.52    1.58
  -7   5   6   25.58    1.95
  -7   5   6   31.98    1.71
   6  -5  -6   24.21    1.48
   6  -5  -6   21.01    1.41
  -6   5   6   21.79    1.68
  -6   5   6   20.01    1.34
  -6   5   6   21.69    1.35
   5  -5  -6   -0.05    0.21
   5  -5  -6   -0.03    0.21
  -5   5   6    0.25    0.35
  -5   5   6    0.53    0.28
  -5   5   6   -0.10    0.17
   4  -5  -6    2.07    0.52
   4  -5  -6    3.09    0.59
  -4   5   6    4.27    0.84
  -4   5   6    2.90    0.56
   3  -5  -6   24.85    1.42
   3  -5  -6   26.64    1.45
  -3   5   6   26.19    1.74
  -3   5   6   23.57    1.39
  -3   5   6   25.37    1.65
  -3   5   6   23.96    1.39
   2  -5  -6    5.34    0.74
   2  -5  -6    3.48    0.57
   2  -5  -6    2.54    0.51
  -2   5   6    4.66    0.85
  -2   5   6    5.08    0.72
  -2   5   6    2.70    0.66
  -2   5   6    4.47    0.64
   1  -5  -6    8.13    0.86
   1  -5  -6    7.61    0.87
   1  -5  -6   10.87    0.97
  -1   5   6    9.12    0.95
  -1   5   6    8.42    1.09
  -1   5   6    9.13    1.20
  -1   5   6    9.22    0.95
   0  -5  -6   15.79    0.97
   0  -5  -6   17.50    1.05
   0  -5  -6   16.75    1.12
   0   5   6   17.11    1.08
   0   5   6   17.53    1.35
   0   5   6   18.48    1.78
   0   5   6   16.90    1.09
  -1  -5  -6   17.55    0.99
  -1  -5  -6   15.14    1.48
  -1  -5  -6   16.72    0.97
  -1  -5  -6   15.78    1.07
   1   5   6   15.10    1.02
   1   5   6   11.35    1.46
   1   5   6   18.51    1.13
  -2  -5  -6   22.12    1.53
  -2  -5  -6   23.46    1.04
  -2  -5  -6   22.29    1.09
  -2  -5  -6   22.23    1.08
  -2  -5  -6   22.89    1.33
   2   5   6   23.93    1.82
   2   5   6   24.34    1.33
   2   5   6   23.18    1.31
  -3  -5  -6   16.80    1.10
  -3  -5  -6   15.22    0.68
  -3  -5  -6   15.47    1.55
  -3  -5  -6   15.48    0.69
   3   5   6   16.83    1.89
   3   5   6   15.57    1.05
   3   5   6   16.11    1.07
  -4  -5  -6    3.72    0.83
  -4  -5  -6    5.43    0.74
   4   5   6    5.87    0.74
   4   5   6    5.15    1.07
   4   5   6    5.64    0.77
  -5  -5  -6    8.62    1.34
  -5  -5  -6   10.39    1.05
   5   5   6    8.27    1.38
   5   5   6    8.25    0.88
  -6  -5  -6    6.94    1.24
   6   5   6    7.14    0.85
   6   5   6    7.14    1.38
  -7  -5  -6    4.07    1.08
  -7  -5  -6    3.55    0.65
   7   5   6    3.54    0.63
  10  -6  -6    0.12    0.38
  10  -6  -6    0.14    0.36
 -10   6   6    0.33    0.34
 -10   6   6    0.07    0.48
   9  -6  -6    0.22    0.34
   9  -6  -6   -0.06    0.32
  -9   6   6    0.13    0.28
  -9   6   6    0.31    0.49
   8  -6  -6    7.90    1.10
  -8   6   6    7.93    0.97
  -8   6   6    9.61    1.11
  -8   6   6    8.73    1.44
   7  -6  -6   22.42    1.57
  -7   6   6   24.49    1.51
  -7   6   6   22.35    1.51
  -7   6   6   25.89    1.96
   6  -6  -6   62.12    2.82
  -6   6   6   62.34    2.72
  -6   6   6   63.90    3.29
   5  -6  -6   13.97    1.39
  -5   6   6   16.09    1.72
  -5   6   6   14.37    1.35
   4  -6  -6    2.65    0.59
  -4   6   6    2.10    0.53
  -4   6   6    2.31    0.68
   3  -6  -6  106.30    3.87
   3  -6  -6  104.33    3.83
  -3   6   6  106.25    3.89
  -3   6   6  101.72    4.37
  -3   6   6   98.59    3.84
   2  -6  -6   44.15    2.03
   2  -6  -6   47.23    2.13
   2  -6  -6   47.31    2.18
  -2   6   6   47.54    2.55
  -2   6   6   47.24    2.53
  -2   6   6   45.42    2.13
  -2   6   6   45.15    2.15
   1  -6  -6   15.19    1.00
   1  -6  -6   13.65    1.27
   1  -6  -6   14.49    1.02
  -1   6   6   13.16    1.44
  -1   6   6   11.73    1.48
  -1   6   6   14.12    1.24
  -1   6   6   13.30    1.25
   0  -6  -6    0.12    0.25
   0  -6  -6    0.61    0.27
   0  -6  -6    0.33    0.21
   0  -6  -6    0.43    0.37
   0   6   6    0.11    0.36
   0   6   6    0.11    0.19
   0   6   6   -0.16    0.15
  -1  -6  -6    2.44    0.65
  -1  -6  -6    2.55    0.42
  -1  -6  -6    1.98    0.41
  -1  -6  -6    2.92    0.60
   1   6   6    2.41    0.72
   1   6   6    1.94    0.46
   1   6   6    3.16    0.62
  -2  -6  -6    6.04    0.57
  -2  -6  -6    6.26    1.04
  -2  -6  -6    5.44    0.78
  -2  -6  -6    6.83    0.60
   2   6   6    6.94    0.81
   2   6   6    4.81    0.72
   2   6   6    6.48    1.21
  -3  -6  -6    0.30    0.28
  -3  -6  -6    0.21    0.41
   3   6   6    1.07    0.60
   3   6   6    0.18    0.23
   3   6   6    0.04    0.21
  -4  -6  -6    0.52    0.42
  -4  -6  -6   -0.04    0.19
   4   6   6   -0.27    0.36
   4   6   6   -0.30    0.23
   4   6   6    0.13    0.22
  -5  -6  -6    3.31    0.64
  -5  -6  -6    4.24    1.04
   5   6   6    3.78    0.63
   5   6   6    3.95    1.07
  -6  -6  -6    1.49    0.47
  -6  -6  -6    2.20    0.80
   6   6   6    1.01    0.69
   6   6   6    1.10    0.40
   9  -7  -6    1.37    0.61
  -9   7   6    1.63    0.54
  -9   7   6    1.36    0.73
   8  -7  -6    2.62    0.69
  -8   7   6    3.73    1.02
  -8   7   6    2.26    0.62
  -8   7   6    4.50    0.97
   7  -7  -6    5.20    0.94
  -7   7   6    6.67    1.27
  -7   7   6    8.65    1.13
   6  -7  -6   21.87    1.53
  -6   7   6   20.54    1.46
  -6   7   6   24.32    2.33
   5  -7  -6   17.99    1.35
  -5   7   6   20.73    2.08
  -5   7   6   14.98    1.47
   4  -7  -6    1.99    0.51
  -4   7   6    1.52    0.49
  -4   7   6    2.84    0.81
   3  -7  -6    3.24    0.63
   3  -7  -6    3.65    0.68
  -3   7   6    3.42    0.66
  -3   7   6    3.20    0.62
  -3   7   6    2.62    0.77
   2  -7  -6    0.71    0.36
   2  -7  -6    0.09    0.21
  -2   7   6    0.58    0.45
  -2   7   6    1.18    0.55
  -2   7   6    0.18    0.28
  -2   7   6    0.06    0.25
   1  -7  -6    1.49    0.40
   1  -7  -6    1.96    0.53
   1  -7  -6    1.42    0.41
   1  -7  -6    1.70    0.56
  -1   7   6    1.44    0.45
  -1   7   6    1.20    0.57
  -1   7   6    1.52    0.44
   0  -7  -6    8.79    0.89
   0  -7  -6   10.27    1.32
   0  -7  -6    8.76    1.01
   0   7   6    7.89    0.97
   0   7   6    8.18    1.04
   0   7   6    5.87    1.13
  -1  -7  -6   13.30    1.54
  -1  -7  -6   15.80    0.92
  -1  -7  -6   14.72    1.34
   1   7   6   14.91    1.80
   1   7   6   14.41    1.32
   1   7   6   15.00    1.10
  -2  -7  -6   16.92    0.77
  -2  -7  -6   19.74    1.98
  -2  -7  -6   14.02    1.31
  -2  -7  -6   16.89    0.76
   2   7   6   17.78    1.18
   2   7   6   14.21    1.84
   2   7   6   16.07    1.18
  -3  -7  -6   21.35    2.13
  -3  -7  -6   24.20    1.48
   3   7   6   27.09    2.60
   3   7   6   20.75    1.35
   3   7   6   21.12    1.39
  -4  -7  -6    9.88    1.10
  -4  -7  -6   10.10    1.54
   4   7   6    9.82    1.57
   4   7   6    8.37    0.97
  -5  -7  -6    3.39    0.66
  -5  -7  -6    1.93    0.76
   5   7   6    2.54    0.93
   5   7   6    2.31    0.54
   9  -8  -6    3.66    0.88
   8  -8  -6    2.41    0.72
  -8   8   6    3.28    0.74
  -8   8   6    4.28    1.14
   7  -8  -6   29.83    1.95
  -7   8   6   30.68    2.38
  -7   8   6   28.78    1.87
   6  -8  -6   29.71    1.90
  -6   8   6   29.31    1.88
  -6   8   6   28.88    2.26
   5  -8  -6   50.60    2.56
  -5   8   6   54.38    3.11
  -5   8   6   49.22    2.52
   4  -8  -6    2.32    0.59
  -4   8   6    2.95    0.86
  -4   8   6    3.11    0.68
   3  -8  -6    0.90    0.40
   3  -8  -6    0.94    0.43
  -3   8   6    0.33    0.25
  -3   8   6    0.58    0.37
   2  -8  -6   13.83    1.32
   2  -8  -6   19.43    1.83
   2  -8  -6   18.39    1.21
  -2   8   6   17.93    1.33
  -2   8   6   17.23    1.57
   1  -8  -6   10.82    1.09
   1  -8  -6   10.99    1.40
   1  -8  -6   10.99    1.24
  -1   8   6   10.11    1.17
  -1   8   6   10.16    1.49
  -1   8   6   11.88    1.25
   0  -8  -6    7.52    1.17
   0  -8  -6    9.65    0.94
   0  -8  -6    7.84    1.02
   0   8   6    8.02    1.00
   0   8   6    6.92    1.31
   0   8   6   10.12    1.19
  -1  -8  -6    0.88    0.27
  -1  -8  -6    0.70    0.24
  -1  -8  -6    1.06    0.43
  -1  -8  -6    0.46    0.43
   1   8   6    0.33    0.48
   1   8   6    1.15    0.42
   1   8   6    0.22    0.32
  -2  -8  -6    6.88    1.23
  -2  -8  -6    5.37    0.85
   2   8   6    5.27    1.19
   2   8   6    7.22    0.96
   2   8   6    4.89    0.80
  -3  -8  -6    1.44    0.64
  -3  -8  -6    1.62    0.48
   3   8   6    1.16    0.46
   3   8   6    2.39    0.54
   3   8   6    1.89    0.86
  -4  -8  -6    1.11    0.68
  -4  -8  -6    1.55    0.50
   4   8   6    1.00    0.39
   4   8   6    0.46    0.68
   7  -9  -6    0.13    0.39
  -7   9   6    0.57    0.64
  -7   9   6    0.26    0.39
   6  -9  -6    6.52    1.10
  -6   9   6    5.98    1.30
  -6   9   6    5.57    1.00
   5  -9  -6    4.17    0.85
  -5   9   6    4.03    0.81
  -5   9   6    8.43    1.48
   4  -9  -6    0.50    0.30
   4  -9  -6   -0.14    0.33
  -4   9   6    0.42    0.37
   3  -9  -6    0.70    0.38
   3  -9  -6    1.02    0.51
   3  -9  -6    1.76    0.52
  -3   9   6    0.83    0.44
   2  -9  -6   16.98    1.79
   2  -9  -6   16.47    1.22
  -2   9   6   14.55    1.91
  -2   9   6   14.18    1.47
  -2   9   6   17.00    1.61
   1  -9  -6    9.73    1.03
   1  -9  -6    9.63    1.38
  -1   9   6   10.72    1.24
  -1   9   6    7.73    1.39
  -1   9   6    9.02    1.14
   0  -9  -6    2.82    0.51
   0  -9  -6    3.62    0.75
   0  -9  -6    2.85    0.85
   0   9   6    4.41    0.80
   0   9   6    2.71    0.65
   0   9   6    2.47    0.96
  -1  -9  -6    4.46    1.04
  -1  -9  -6    3.51    0.78
  -1  -9  -6    3.62    0.43
  -1  -9  -6    3.32    0.41
   1   9   6    2.73    0.67
   1   9   6    4.69    1.20
   1   9   6    2.99    0.65
  -2  -9  -6    0.28    0.44
  -2  -9  -6    0.84    0.50
   2   9   6    0.14    0.27
   2   9   6    0.08    0.30
   2   9   6    0.36    0.53
   6 -10  -6    8.58    1.27
   6 -10  -6   10.00    1.35
  -6  10   6    6.27    1.07
   5 -10  -6    8.42    1.27
   5 -10  -6   10.13    1.32
  -5  10   6    9.93    1.33
   4 -10  -6   18.50    1.89
  -4  10   6   16.40    1.69
   3 -10  -6    6.06    1.16
   3 -10  -6    4.17    0.78
  -3  10   6    4.40    0.90
   2 -10  -6   -0.08    0.34
   2 -10  -6   -0.07    0.29
  -2  10   6   -0.06    0.44
  -2  10   6    0.50    0.44
  -2  10   6    0.23    0.34
   1 -10  -6    0.72    0.36
   1 -10  -6    0.74    0.54
  -1  10   6    0.22    0.54
  -1  10   6    0.85    0.49
  -1  10   6    1.13    0.51
   0 -10  -6    0.03    0.21
   0 -10  -6    0.75    0.55
   0  10   6    0.16    0.37
   0  10   6    0.03    0.29
   0  10   6   -0.38    0.40
   3  10  -7    3.63    0.68
   3  10  -7    2.27    0.68
  -3 -10   7    3.70    0.72
  -3 -10   7    4.42    1.10
   2  10  -7    2.59    0.63
   2  10  -7    2.45    0.63
   2  10  -7    1.94    0.56
  -2 -10   7    1.14    0.67
  -2 -10   7    2.24    0.64
   1  10  -7   -0.07    0.23
   1  10  -7    0.48    0.39
   1  10  -7    0.82    0.40
  -1 -10   7    0.22    0.40
  -1 -10   7    0.04    0.48
  -1 -10   7    0.09    0.13
  -1 -10   7    0.37    0.15
   0  10  -7    1.00    0.44
   0  10  -7    1.08    0.49
   0 -10   7    0.99    0.67
   0 -10   7    2.06    0.60
   0 -10   7    0.67    0.28
  -1  10  -7    0.18    0.32
  -1  10  -7    0.04    0.34
   1 -10   7    0.20    0.47
   1 -10   7    0.20    0.36
   1 -10   7    0.59    0.32
  -2  10  -7   -0.05    0.34
   2 -10   7    0.64    0.59
   2 -10   7    1.12    0.52
  -3  10  -7    0.08    0.35
   3 -10   7    0.54    0.56
   3 -10   7    0.31    0.46
  -4  10  -7    0.22    0.45
   4 -10   7    0.30    0.41
   4 -10   7   -0.20    0.48
   4 -10   7    0.41    0.48
   5   9  -7   -0.02    0.34
  -5  -9   7   -0.32    0.42
  -5  -9   7   -0.19    0.20
   4   9  -7    0.55    0.39
   4   9  -7    0.45    0.30
  -4  -9   7    1.07    0.41
  -4  -9   7    0.12    0.30
  -4  -9   7    0.22    0.46
   3   9  -7    0.74    0.37
   3   9  -7    1.04    0.39
  -3  -9   7    1.05    0.44
  -3  -9   7    0.74    0.41
  -3  -9   7   -0.35    0.40
   2   9  -7    8.82    1.13
   2   9  -7   10.45    1.21
   2   9  -7   10.86    1.17
  -2  -9   7    9.31    1.51
  -2  -9   7    9.86    1.16
  -2  -9   7   10.53    1.18
   1   9  -7    2.78    0.64
   1   9  -7    4.06    0.75
   1   9  -7    1.71    0.53
  -1  -9   7    2.85    0.90
  -1  -9   7    3.34    0.45
  -1  -9   7    2.88    0.43
  -1  -9   7    3.72    0.77
  -1  -9   7    2.46    0.65
   0   9  -7    0.45    0.39
   0   9  -7    1.09    0.42
   0   9  -7    0.67    0.40
   0  -9   7    0.28    0.37
   0  -9   7    0.51    0.38
   0  -9   7    1.01    0.62
  -1   9  -7    0.10    0.31
  -1   9  -7    0.85    0.38
   1  -9   7   -0.12    0.40
   1  -9   7    0.35    0.35
  -2   9  -7    2.81    0.67
  -2   9  -7    6.47    1.01
   2  -9   7    4.97    0.96
   2  -9   7    4.37    1.12
  -3   9  -7   21.87    1.61
   3  -9   7   21.22    2.09
   3  -9   7   16.99    2.29
   3  -9   7   19.67    1.41
  -4   9  -7    2.46    0.67
   4  -9   7    4.57    1.00
   4  -9   7    3.45    0.74
  -5   9  -7    3.31    0.77
  -5   9  -7    1.29    0.60
   5  -9   7    3.60    0.83
   5  -9   7    1.37    0.65
  -6   9  -7    3.28    0.92
  -6   9  -7    3.18    0.85
   6  -9   7    3.14    0.81
   6  -9   7    3.45    0.93
   6   8  -7    7.62    1.04
   6   8  -7    5.91    0.70
  -6  -8   7    6.83    1.30
  -6  -8   7    7.19    0.85
   5   8  -7    6.83    0.95
   5   8  -7    6.06    0.74
  -5  -8   7    6.40    0.82
  -5  -8   7    8.29    0.87
  -5  -8   7    7.10    1.24
   4   8  -7    4.65    0.71
   4   8  -7    4.18    0.74
  -4  -8   7    5.23    1.11
  -4  -8   7    4.96    0.74
  -4  -8   7    4.95    0.75
   3   8  -7    8.56    0.97
   3   8  -7    8.14    0.94
   3   8  -7    8.99    1.06
  -3  -8   7   11.19    1.58
  -3  -8   7    7.52    0.93
  -3  -8   7    7.70    1.01
   2   8  -7    1.14    0.45
   2   8  -7    1.39    0.45
   2   8  -7    1.85    0.48
  -2  -8   7    1.78    0.21
  -2  -8   7    0.91    0.44
  -2  -8   7    1.37    0.45
  -2  -8   7    1.54    0.66
  -2  -8   7    1.57    0.20
   1   8  -7    1.06    0.39
   1   8  -7    0.47    0.36
   1   8  -7    0.52    0.32
  -1  -8   7    0.92    0.48
  -1  -8   7    0.37    0.32
  -1  -8   7    0.12    0.44
   0   8  -7   14.65    1.34
   0   8  -7   13.60    1.31
   0   8  -7   13.81    1.31
   0  -8   7   12.69    1.42
   0  -8   7   14.95    1.42
   0  -8   7   12.13    1.65
  -1   8  -7    5.47    0.89
  -1   8  -7    3.83    0.69
  -1   8  -7    5.41    0.87
   1  -8   7    4.39    0.85
   1  -8   7    4.28    1.02
  -2   8  -7    8.12    1.08
  -2   8  -7    8.64    1.09
   2  -8   7    7.60    1.39
   2  -8   7    9.29    1.05
   2  -8   7   10.13    1.36
  -3   8  -7   19.54    1.48
   3  -8   7   19.79    1.96
   3  -8   7   24.18    1.53
  -4   8  -7    7.09    1.16
  -4   8  -7    9.01    1.18
   4  -8   7   11.26    1.26
   4  -8   7    9.72    1.38
  -5   8  -7    4.51    0.97
  -5   8  -7    7.33    1.10
   5  -8   7    7.20    1.21
   5  -8   7    4.46    0.84
  -6   8  -7    1.97    0.63
  -6   8  -7    1.17    0.63
   6  -8   7    0.95    0.50
   6  -8   7    0.48    0.49
  -7   8  -7    1.00    0.52
  -7   8  -7    0.37    0.47
   7  -8   7    0.61    0.48
   7   7  -7    1.10    0.44
   7   7  -7    1.27    0.31
  -7  -7   7    1.27    0.36
  -7  -7   7    0.53    0.51
   6   7  -7    3.96    0.55
   6   7  -7    4.27    0.76
  -6  -7   7    4.40    0.63
  -6  -7   7    4.63    1.05
   5   7  -7    3.54    0.55
   5   7  -7    3.82    0.69
  -5  -7   7    4.50    0.65
  -5  -7   7    3.98    0.94
  -5  -7   7    3.09    0.55
   4   7  -7    2.38    0.46
   4   7  -7    4.10    0.70
  -4  -7   7    3.30    0.58
  -4  -7   7    3.45    0.61
  -4  -7   7    4.82    1.05
   3   7  -7    0.36    0.28
   3   7  -7    0.49    0.27
   3   7  -7    0.93    0.30
  -3  -7   7    0.51    0.31
  -3  -7   7    0.83    0.39
  -3  -7   7    0.80    0.54
   2   7  -7    1.67    0.47
   2   7  -7    1.82    0.48
   2   7  -7    0.83    0.33
  -2  -7   7    1.04    0.23
  -2  -7   7    1.40    0.47
  -2  -7   7    1.42    0.41
  -2  -7   7    2.06    0.71
   1   7  -7   12.15    1.18
   1   7  -7   13.83    1.02
   1   7  -7   10.95    1.12
  -1  -7   7   10.23    1.22
  -1  -7   7   13.48    1.24
  -1  -7   7   12.46    1.61
   0   7  -7    5.78    0.79
   0   7  -7    5.46    0.80
   0   7  -7    6.85    0.90
   0  -7   7    7.08    0.93
   0  -7   7    5.40    0.93
   0  -7   7    6.83    1.19
  -1   7  -7    9.44    1.10
  -1   7  -7    9.53    1.03
  -1   7  -7   10.76    1.12
   1  -7   7    9.49    1.17
   1  -7   7   10.24    1.52
   1  -7   7   10.50    1.16
   1  -7   7   11.03    1.04
  -2   7  -7    1.35    0.48
  -2   7  -7    0.67    0.35
  -2   7  -7    1.23    0.47
   2  -7   7    0.52    0.31
   2  -7   7    0.89    0.44
  -3   7  -7    5.44    0.90
  -3   7  -7    4.56    0.80
   3  -7   7    6.14    0.88
   3  -7   7    6.17    1.02
  -4   7  -7   11.65    1.27
  -4   7  -7   10.56    1.33
   4  -7   7   10.21    1.38
   4  -7   7   12.21    1.28
  -5   7  -7    0.93    0.42
  -5   7  -7    0.88    0.50
   5  -7   7    1.65    0.60
   5  -7   7    0.63    0.40
  -6   7  -7   -0.15    0.30
  -6   7  -7    0.29    0.31
  -6   7  -7   -0.09    0.31
   6  -7   7   -0.01    0.33
   6  -7   7    0.08    0.29
  -7   7  -7    2.92    0.80
  -7   7  -7    1.38    0.57
  -7   7  -7    2.50    0.68
   7  -7   7    1.52    0.62
   8   6  -7    4.33    0.54
   8   6  -7    2.57    0.60
  -8  -6   7    3.06    0.85
  -8  -6   7    4.49    0.61
   7   6  -7   24.82    1.57
   7   6  -7   23.87    1.20
  -7  -6   7   23.34    1.27
  -7  -6   7   21.08    2.17
   6   6  -7    5.93    0.67
   6   6  -7    5.95    0.84
  -6  -6   7    4.81    1.04
  -6  -6   7    6.21    0.72
  -6  -6   7    6.33    0.74
   5   6  -7    8.17    0.80
   5   6  -7    8.99    1.03
  -5  -6   7    7.02    1.16
  -5  -6   7    7.26    0.80
  -5  -6   7    9.31    0.93
   4   6  -7    0.22    0.26
   4   6  -7    0.59    0.31
   4   6  -7    0.31    0.23
  -4  -6   7    0.26    0.25
  -4  -6   7    0.43    0.26
  -4  -6   7    1.13    0.55
   3   6  -7    1.40    0.40
   3   6  -7    1.16    0.36
   3   6  -7    1.71    0.40
  -3  -6   7    1.81    0.65
  -3  -6   7    1.26    0.42
  -3  -6   7    1.74    0.41
   2   6  -7    1.89    0.46
   2   6  -7    1.12    0.35
   2   6  -7    0.50    0.27
   2   6  -7    0.74    0.30
  -2  -6   7    1.20    0.41
  -2  -6   7    1.16    0.40
  -2  -6   7    1.09    0.26
  -2  -6   7    0.68    0.46
   1   6  -7   -0.03    0.17
   1   6  -7   -0.11    0.15
   1   6  -7   -0.03    0.20
  -1  -6   7    0.07    0.26
  -1  -6   7    0.03    0.20
  -1  -6   7    0.28    0.38
   0   6  -7    1.78    0.45
   0   6  -7    1.85    0.43
   0   6  -7    1.92    0.49
   0  -6   7    1.66    0.52
   0  -6   7    2.15    0.53
   0  -6   7    2.33    0.46
   0  -6   7    1.80    0.64
   0  -6   7    2.19    0.44
  -1   6  -7   23.58    1.36
  -1   6  -7   25.10    1.48
  -1   6  -7   24.60    1.45
  -1   6  -7   25.23    1.53
   1  -6   7   27.60    1.45
   1  -6   7   25.37    1.37
   1  -6   7   26.67    1.53
   1  -6   7   23.68    1.63
  -2   6  -7   11.03    1.22
  -2   6  -7   12.32    1.21
  -2   6  -7   13.16    1.27
   2  -6   7   10.70    1.08
   2  -6   7   10.28    1.26
   2  -6   7    9.37    1.01
  -3   6  -7   11.31    1.18
  -3   6  -7   12.51    1.38
   3  -6   7   10.71    1.12
   3  -6   7   11.43    1.36
  -4   6  -7   23.54    1.64
  -4   6  -7   25.66    1.58
   4  -6   7   23.42    1.51
   4  -6   7   23.01    1.70
  -5   6  -7    7.90    1.04
  -5   6  -7    8.79    1.21
   5  -6   7    7.49    1.03
   5  -6   7    6.98    1.13
  -6   6  -7    9.24    1.22
  -6   6  -7   10.28    1.20
  -6   6  -7    5.32    1.02
   6  -6   7    9.08    1.31
   6  -6   7    9.16    1.22
  -7   6  -7    6.88    1.06
  -7   6  -7    5.82    1.07
  -7   6  -7    6.27    0.98
  -7   6  -7    6.91    1.06
   7  -6   7    6.42    1.04
  -8   6  -7    1.30    0.53
  -8   6  -7    1.38    0.52
  -8   6  -7    1.96    0.71
   8  -6   7    0.19    0.40
   8   5  -7    2.16    0.57
   8   5  -7    2.15    0.40
  -8  -5   7    2.30    0.80
  -8  -5   7    2.64    0.47
   7   5  -7   18.35    1.27
   7   5  -7   19.05    1.04
  -7  -5   7   17.09    1.05
  -7  -5   7   18.82    1.96
   6   5  -7   14.56    0.92
   6   5  -7   14.76    1.32
  -6  -5   7   15.18    0.96
  -6  -5   7   15.64    1.01
  -6  -5   7   12.02    1.51
   5   5  -7    7.71    0.76
   5   5  -7    9.31    1.01
  -5  -5   7    8.62    1.25
  -5  -5   7    8.43    0.91
  -5  -5   7    8.78    0.85
   4   5  -7    4.44    0.65
   4   5  -7    4.96    0.64
   4   5  -7    4.04    0.55
  -4  -5   7    4.87    0.64
  -4  -5   7    3.84    0.84
  -4  -5   7    4.62    0.69
   3   5  -7   10.79    0.97
   3   5  -7    9.63    0.90
   3   5  -7    9.22    0.93
  -3  -5   7    9.84    0.51
  -3  -5   7    9.72    1.31
  -3  -5   7    9.39    0.91
  -3  -5   7   10.22    1.08
   2   5  -7   24.81    1.28
   2   5  -7   18.96    1.17
   2   5  -7   23.73    1.25
  -2  -5   7   22.88    1.26
  -2  -5   7   19.18    1.83
  -2  -5   7   19.58    1.36
  -2  -5   7   22.76    1.08
   1   5  -7   14.41    1.00
   1   5  -7   15.67    0.99
   1   5  -7   15.05    1.01
   1   5  -7   14.45    1.00
  -1  -5   7   14.69    0.90
  -1  -5   7   14.34    0.99
  -1  -5   7   12.35    1.43
  -1  -5   7   15.49    0.88
  -1  -5   7   14.07    1.36
   0   5  -7    1.05    0.33
   0   5  -7    1.21    0.39
   0   5  -7    1.44    0.42
   0   5  -7    1.07    0.33
   0  -5   7    0.59    0.33
   0  -5   7    0.90    0.29
   0  -5   7    1.24    0.37
   0  -5   7    2.03    0.42
   0  -5   7    1.32    0.61
  -1   5  -7    1.55    0.44
  -1   5  -7    1.93    0.46
  -1   5  -7    1.99    0.45
  -1   5  -7    1.81    0.41
   1  -5   7    2.35    0.59
   1  -5   7    1.81    0.43
   1  -5   7    1.68    0.40
   1  -5   7    1.94    0.47
  -2   5  -7    2.44    0.56
  -2   5  -7    1.34    0.40
  -2   5  -7    1.60    0.40
  -2   5  -7    1.50    0.43
   2  -5   7    2.64    0.55
   2  -5   7    1.49    0.40
   2  -5   7    1.17    0.47
  -3   5  -7   10.77    1.11
  -3   5  -7    9.14    1.09
   3  -5   7    9.69    1.02
   3  -5   7    6.82    1.05
  -4   5  -7    4.80    0.78
  -4   5  -7    5.22    0.86
   4  -5   7    5.92    0.84
   4  -5   7    7.51    1.15
  -5   5  -7    0.21    0.30
  -5   5  -7   -0.14    0.22
   5  -5   7   -0.08    0.24
   5  -5   7   -0.21    0.25
  -6   5  -7    1.19    0.45
  -6   5  -7    1.40    0.52
  -6   5  -7    1.31    0.46
  -6   5  -7    1.80    0.56
   6  -5   7    2.07    0.57
  -7   5  -7    4.21    0.89
  -7   5  -7    4.05    0.76
  -7   5  -7    4.74    0.86
   7  -5   7    3.16    0.72
  -8   5  -7    0.64    0.48
  -8   5  -7    0.04    0.29
  -8   5  -7    0.21    0.36
   8  -5   7    0.58    0.43
   9   4  -7    4.30    0.78
   9   4  -7    3.56    0.51
  -9  -4   7    5.22    0.67
   8   4  -7    0.63    0.36
   8   4  -7    0.54    0.26
  -8  -4   7    0.52    0.43
  -8  -4   7    0.39    0.25
   7   4  -7    0.49    0.29
   7   4  -7    0.56    0.25
  -7  -4   7    0.81    0.31
  -7  -4   7   -0.02    0.18
  -7  -4   7    0.52    0.39
   6   4  -7    0.33    0.20
   6   4  -7    0.43    0.30
  -6  -4   7    0.32    0.28
  -6  -4   7    0.23    0.36
  -6  -4   7    0.19    0.20
   5   4  -7    4.65    0.58
   5   4  -7    2.53    0.50
   5   4  -7    4.59    0.59
  -5  -4   7    3.66    0.63
  -5  -4   7    3.40    0.51
  -5  -4   7    2.98    0.74
   4   4  -7    0.11    0.18
   4   4  -7    0.04    0.18
   4   4  -7   -0.06    0.13
  -4  -4   7    0.22    0.31
  -4  -4   7   -0.10    0.21
  -4  -4   7    0.01    0.17
   3   4  -7    1.37    0.36
   3   4  -7    1.14    0.32
   3   4  -7    2.24    0.43
  -3  -4   7    1.77    0.46
  -3  -4   7    1.31    0.25
  -3  -4   7    2.31    0.62
  -3  -4   7    1.48    0.37
  -3  -4   7    0.80    0.21
   2   4  -7    3.38    0.49
   2   4  -7    3.23    0.51
   2   4  -7    4.84    0.62
  -2  -4   7    4.59    0.54
  -2  -4   7    3.45    0.43
  -2  -4   7    3.90    0.48
  -2  -4   7    3.41    0.54
  -2  -4   7    3.50    0.66
  -2  -4   7    2.88    0.71
   1   4  -7    6.79    0.77
   1   4  -7    7.52    0.75
   1   4  -7    7.55    0.77
   1   4  -7    7.10    0.76
  -1  -4   7    5.26    0.90
  -1  -4   7    5.93    0.62
  -1  -4   7    6.47    0.90
  -1  -4   7    6.16    0.65
  -1  -4   7    6.01    0.66
  -1  -4   7    7.13    0.79
   0   4  -7   14.06    0.97
   0   4  -7   14.35    0.90
   0   4  -7   15.12    1.05
   0   4  -7   14.56    0.99
   0   4  -7   14.90    0.99
   0  -4   7   15.49    1.19
   0  -4   7   14.81    1.00
   0  -4   7   14.74    0.93
   0  -4   7   15.53    0.96
  -1   4  -7    0.29    0.23
  -1   4  -7    0.25    0.19
  -1   4  -7   -0.15    0.13
  -1   4  -7   -0.02    0.14
   1  -4   7    0.38    0.31
   1  -4   7   -0.04    0.18
   1  -4   7    0.11    0.19
   1  -4   7    0.41    0.26
  -2   4  -7   19.50    1.23
  -2   4  -7   21.40    1.25
  -2   4  -7   18.45    1.06
  -2   4  -7   18.92    1.28
   2  -4   7   21.48    1.47
   2  -4   7   19.15    1.21
   2  -4   7   22.83    1.29
  -3   4  -7    7.39    0.94
  -3   4  -7    7.99    0.92
   3  -4   7    6.92    0.85
   3  -4   7    8.20    0.92
   3  -4   7    7.41    1.04
  -4   4  -7   25.97    1.66
  -4   4  -7   29.41    1.60
  -4   4  -7   31.22    1.66
   4  -4   7   25.44    1.54
   4  -4   7   24.97    1.73
   4  -4   7   28.67    1.63
  -5   4  -7   24.34    1.47
  -5   4  -7   25.77    1.56
  -5   4  -7   25.89    1.68
   5  -4   7   24.79    1.77
   5  -4   7   25.89    1.60
   5  -4   7   25.41    1.57
  -6   4  -7    1.34    0.54
  -6   4  -7    1.78    0.48
  -6   4  -7    1.26    0.43
  -6   4  -7    2.16    0.56
   6  -4   7    1.07    0.44
   6  -4   7    2.13    0.56
  -7   4  -7    1.06    0.49
  -7   4  -7    2.36    0.58
  -7   4  -7    2.34    0.55
   7  -4   7    2.08    0.59
   7  -4   7    2.47    0.67
  -8   4  -7    1.19    0.62
  -8   4  -7    2.89    0.57
  -8   4  -7    2.69    0.57
   8  -4   7    1.68    0.58
   8  -4   7    0.61    0.36
   9   3  -7    1.76    0.40
  -9  -3   7    2.95    0.53
   8   3  -7    0.54    0.25
  -8  -3   7    0.58    0.42
  -8  -3   7    0.35    0.24
  -8  -3   7    0.65    0.32
   7   3  -7    4.30    0.56
  -7  -3   7    4.29    0.60
  -7  -3   7    5.69    0.75
  -7  -3   7    4.63    0.90
   6   3  -7   80.17    2.95
   6   3  -7   86.14    3.01
  -6  -3   7   86.27    3.02
  -6  -3   7   80.19    3.25
  -6  -3   7   85.88    3.58
   5   3  -7   71.78    2.63
   5   3  -7   72.68    2.64
   5   3  -7   73.61    2.76
  -5  -3   7   69.75    3.09
  -5  -3   7   69.56    2.93
  -5  -3   7   69.66    2.63
   4   3  -7   78.10    2.82
   4   3  -7   75.81    2.85
   4   3  -7   82.52    2.87
  -4  -3   7   76.23    3.16
  -4  -3   7   76.15    2.44
  -4  -3   7   78.72    2.44
  -4  -3   7   82.46    2.88
  -4  -3   7   77.93    3.29
   3   3  -7   15.17    0.91
   3   3  -7   12.45    0.84
   3   3  -7   13.39    0.88
  -3  -3   7   12.83    0.88
  -3  -3   7   12.80    0.72
  -3  -3   7   13.24    0.74
  -3  -3   7   14.48    1.06
  -3  -3   7   13.30    0.75
  -3  -3   7   12.07    1.29
   2   3  -7    3.98    0.57
   2   3  -7    3.97    0.56
   2   3  -7    4.03    0.58
   2   3  -7    3.93    0.53
  -2  -3   7    3.78    0.57
  -2  -3   7    3.84    0.47
  -2  -3   7    4.20    0.51
  -2  -3   7    3.03    0.67
  -2  -3   7    2.94    0.58
  -2  -3   7    4.14    0.52
   1   3  -7    9.98    0.93
   1   3  -7    9.55    0.69
   1   3  -7   11.40    0.80
   1   3  -7    9.17    0.87
  -1  -3   7   10.20    0.73
  -1  -3   7   10.31    0.72
  -1  -3   7    9.49    1.16
  -1  -3   7    9.56    1.08
  -1  -3   7   11.19    0.78
  -1  -3   7   10.05    0.94
   0   3  -7    3.62    0.50
   0   3  -7    3.77    0.58
   0   3  -7    1.96    0.39
   0   3  -7    3.39    0.56
   0  -3   7    3.73    0.57
   0  -3   7    3.88    0.56
   0  -3   7    4.00    0.72
   0  -3   7    2.89    0.47
  -1   3  -7    0.82    0.27
  -1   3  -7    1.13    0.36
  -1   3  -7    0.53    0.29
  -1   3  -7    1.22    0.36
  -1   3  -7    1.61    0.41
   1  -3   7    1.23    0.36
   1  -3   7    1.40    0.37
   1  -3   7    1.58    0.40
   1  -3   7    1.13    0.34
   1  -3   7    0.84    0.37
  -2   3  -7    7.98    0.92
  -2   3  -7    8.22    0.89
  -2   3  -7    8.03    0.88
  -2   3  -7    9.22    0.96
  -2   3  -7   10.23    0.68
   2  -3   7    6.89    0.80
   2  -3   7    8.93    0.91
   2  -3   7   10.12    1.15
   2  -3   7    9.58    0.99
  -3   3  -7    7.90    0.93
  -3   3  -7    7.53    0.86
  -3   3  -7    8.10    0.96
   3  -3   7    6.32    0.94
   3  -3   7    8.08    0.91
   3  -3   7    7.96    0.88
  -4   3  -7   37.76    1.91
  -4   3  -7   40.95    2.08
  -4   3  -7   40.24    1.92
   4  -3   7   40.57    1.96
   4  -3   7   38.62    1.93
   4  -3   7   39.76    2.19
  -5   3  -7   49.32    2.15
  -5   3  -7   45.48    2.36
  -5   3  -7   46.72    2.18
   5  -3   7   45.72    2.21
   5  -3   7   49.23    2.53
   5  -3   7   44.09    2.19
  -6   3  -7    8.79    1.00
  -6   3  -7    6.97    1.02
  -6   3  -7   10.13    1.06
   6  -3   7    8.21    1.02
   6  -3   7    8.58    1.05
  -7   3  -7    1.80    0.46
  -7   3  -7    1.86    0.45
  -7   3  -7    1.41    0.54
   7  -3   7    1.43    0.53
   7  -3   7    2.12    0.57
  -8   3  -7    2.92    0.71
  -8   3  -7    3.06    0.51
  -8   3  -7    2.69    0.54
   8  -3   7    3.03    0.75
   8  -3   7    3.28    0.69
  10   2  -7    1.78    0.39
  10   2  -7    1.19    0.37
 -10  -2   7    1.37    0.43
   9   2  -7    0.00    0.17
   9   2  -7   -0.16    0.16
  -9  -2   7    0.05    0.28
  -9  -2   7   -0.24    0.17
   8   2  -7    2.90    0.48
   8   2  -7    2.91    0.50
  -8  -2   7    3.83    0.80
  -8  -2   7    3.20    0.55
  -8  -2   7    2.24    0.55
   7   2  -7    1.83    0.40
  -7  -2   7    1.70    0.57
  -7  -2   7    1.28    0.35
  -7  -2   7    1.75    0.46
   6   2  -7    3.22    0.50
   6   2  -7    2.37    0.47
  -6  -2   7    3.22    0.52
  -6  -2   7    2.69    0.57
  -6  -2   7    2.49    0.59
   5   2  -7    9.25    0.84
   5   2  -7    8.73    0.82
  -5  -2   7    7.71    0.80
  -5  -2   7    7.72    0.94
  -5  -2   7    8.65    0.40
  -5  -2   7    9.14    1.06
   4   2  -7   37.48    1.67
   4   2  -7   38.21    1.69
  -4  -2   7   40.22    1.48
  -4  -2   7   39.92    1.49
  -4  -2   7   38.62    1.98
  -4  -2   7   42.36    1.75
  -4  -2   7   39.00    1.98
   3   2  -7    1.90    0.37
   3   2  -7    1.92    0.39
   3   2  -7    2.24    0.42
  -3  -2   7    1.34    0.43
  -3  -2   7    2.83    0.62
  -3  -2   7    2.57    0.35
  -3  -2   7    1.77    0.39
  -3  -2   7    2.07    0.36
  -3  -2   7    1.76    0.32
   2   2  -7    5.79    0.60
   2   2  -7    6.35    0.69
   2   2  -7    6.77    0.71
  -2  -2   7    6.43    0.62
  -2  -2   7    5.05    0.59
  -2  -2   7    6.77    0.92
  -2  -2   7    6.29    0.84
  -2  -2   7    6.95    0.85
  -2  -2   7    5.11    0.58
  -2  -2   7    4.19    0.57
   1   2  -7    0.74    0.26
   1   2  -7    0.97    0.25
  -1  -2   7    0.68    0.27
  -1  -2   7    0.57    0.28
  -1  -2   7    0.42    0.22
  -1  -2   7    0.36    0.30
  -1  -2   7    0.48    0.21
  -1  -2   7    0.77    0.35
  -1  -2   7    1.06    0.41
  -1  -2   7    0.45    0.20
   0   2  -7   33.11    1.61
   0   2  -7   34.69    1.63
   0   2  -7   35.04    1.43
   0   2  -7   38.51    1.69
   0  -2   7   36.94    1.65
   0  -2   7   35.48    1.59
   0  -2   7   37.52    1.65
   0  -2   7   36.61    1.92
   0  -2   7   36.72    1.67
   0  -2   7   36.09    1.95
  -1   2  -7   22.02    1.20
  -1   2  -7   21.27    1.21
  -1   2  -7   21.51    1.19
  -1   2  -7   20.34    1.17
  -1   2  -7   18.01    1.12
  -1   2  -7   20.46    0.98
  -1   2  -7   21.08    1.23
   1  -2   7   19.45    1.43
   1  -2   7   22.75    1.22
   1  -2   7   18.43    1.13
   1  -2   7   20.22    1.14
   1  -2   7   20.32    1.15
   1  -2   7   20.43    1.39
  -2   2  -7    0.95    0.34
  -2   2  -7    1.00    0.33
  -2   2  -7    1.23    0.35
  -2   2  -7    0.78    0.29
  -2   2  -7    2.25    0.46
  -2   2  -7    0.96    0.25
   2  -2   7    0.88    0.31
   2  -2   7    1.64    0.58
   2  -2   7    1.26    0.46
   2  -2   7    1.34    0.36
  -3   2  -7    4.79    0.68
  -3   2  -7    6.05    0.75
  -3   2  -7    4.47    0.69
  -3   2  -7    4.48    0.64
   3  -2   7    4.92    0.84
   3  -2   7    5.42    0.97
   3  -2   7    4.00    0.62
   3  -2   7    5.58    0.71
  -4   2  -7    0.37    0.28
  -4   2  -7    0.22    0.25
  -4   2  -7    0.10    0.21
  -4   2  -7    0.03    0.21
   4  -2   7    0.20    0.22
   4  -2   7   -0.10    0.21
   4  -2   7    0.45    0.46
   4  -2   7   -0.03    0.14
  -5   2  -7    3.02    0.63
  -5   2  -7    3.67    0.62
  -5   2  -7    3.96    0.62
  -5   2  -7    3.86    0.71
   5  -2   7    3.03    0.83
   5  -2   7    3.05    0.59
   5  -2   7    3.26    0.62
  -6   2  -7    7.55    0.96
  -6   2  -7    6.42    0.79
  -6   2  -7    7.31    1.01
  -6   2  -7    6.91    0.82
   6  -2   7    7.37    0.98
   6  -2   7    7.65    1.27
   6  -2   7    6.43    0.88
  -7   2  -7   -0.27    0.16
  -7   2  -7   -0.01    0.16
  -7   2  -7    0.10    0.33
  -7   2  -7    0.26    0.30
   7  -2   7   -0.18    0.20
   7  -2   7    0.09    0.30
  -8   2  -7   -0.15    0.29
  -8   2  -7    0.31    0.23
  -8   2  -7   -0.10    0.25
  -8   2  -7    0.10    0.13
   8  -2   7   -0.16    0.25
   8  -2   7   -0.03    0.32
  10   1  -7   15.79    1.09
 -10  -1   7   10.84    1.25
 -10  -1   7   15.08    1.11
   9   1  -7   10.59    1.03
  -9  -1   7   11.36    1.23
  -9  -1   7   10.23    1.04
   8   1  -7   17.47    1.09
  -8  -1   7   16.34    1.27
  -8  -1   7   18.92    1.17
   7   1  -7    1.18    0.34
   7   1  -7    1.67    0.41
   7   1  -7    1.22    0.33
  -7  -1   7    2.46    0.62
  -7  -1   7    1.79    0.42
  -7  -1   7    1.49    0.49
   6   1  -7    1.77    0.39
   6   1  -7    1.27    0.33
   6   1  -7    1.68    0.37
  -6  -1   7    2.13    0.19
  -6  -1   7    2.04    0.43
  -6  -1   7    1.77    0.17
  -6  -1   7    1.24    0.45
  -6  -1   7    1.78    0.50
   5   1  -7   27.44    1.34
   5   1  -7   26.17    1.33
  -5  -1   7   26.41    1.35
  -5  -1   7   28.92    1.56
  -5  -1   7   26.16    1.10
  -5  -1   7   24.60    1.54
   4   1  -7    1.93    0.40
   4   1  -7    2.12    0.42
  -4  -1   7    2.49    0.53
  -4  -1   7    2.59    0.39
  -4  -1   7    3.00    0.39
  -4  -1   7    3.02    0.47
  -4  -1   7    2.07    0.34
  -4  -1   7    2.39    0.56
  -4  -1   7    3.82    0.56
   3   1  -7    5.14    0.65
   3   1  -7    5.69    0.64
  -3  -1   7    5.14    0.54
  -3  -1   7    5.95    0.62
  -3  -1   7    5.41    0.76
  -3  -1   7    5.86    0.66
  -3  -1   7    4.90    0.54
  -3  -1   7    5.13    0.78
  -3  -1   7    5.46    0.69
   2   1  -7    3.21    0.51
   2   1  -7    3.29    0.51
  -2  -1   7    3.49    0.49
  -2  -1   7    3.81    0.50
  -2  -1   7    3.48    0.53
  -2  -1   7    4.21    0.67
  -2  -1   7    4.00    0.53
  -2  -1   7    3.89    0.65
  -2  -1   7    3.14    0.63
   1   1  -7    0.66    0.28
   1   1  -7    0.57    0.20
   1   1  -7    0.51    0.23
   1   1  -7    0.35    0.24
   1   1  -7    0.68    0.25
  -1  -1   7    0.44    0.21
  -1  -1   7    0.85    0.37
  -1  -1   7    0.62    0.27
  -1  -1   7    0.67    0.36
  -1  -1   7    0.39    0.20
  -1  -1   7    0.29    0.19
   0   1  -7    3.84    0.56
   0   1  -7    2.76    0.48
   0   1  -7    2.53    0.35
   0   1  -7    3.11    0.49
   0   1  -7    3.03    0.51
   0  -1   7    3.80    0.54
   0  -1   7    3.27    0.51
   0  -1   7    2.56    0.60
   0  -1   7    2.44    0.58
   0  -1   7    1.78    0.39
   0  -1   7    3.39    0.51
  -1   1  -7   12.06    0.64
  -1   1  -7   10.96    0.97
  -1   1  -7   10.03    0.96
  -1   1  -7   12.09    0.84
  -1   1  -7   11.69    1.00
   1  -1   7    9.41    1.19
   1  -1   7   11.01    0.82
   1  -1   7   10.59    0.78
   1  -1   7   12.84    1.27
   1  -1   7   10.84    0.81
  -2   1  -7   11.81    0.86
  -2   1  -7   11.64    0.83
  -2   1  -7    9.67    0.57
  -2   1  -7    9.58    0.94
   2  -1   7    7.68    1.11
   2  -1   7   10.26    0.93
   2  -1   7    9.78    0.94
   2  -1   7   10.42    1.14
  -3   1  -7    9.46    1.00
  -3   1  -7   11.55    1.05
  -3   1  -7   10.43    0.95
  -3   1  -7   11.21    0.74
  -3   1  -7    9.03    0.92
   3  -1   7    9.47    1.30
   3  -1   7   11.05    1.01
   3  -1   7   10.20    0.98
   3  -1   7    9.19    1.12
  -4   1  -7    0.75    0.29
  -4   1  -7    1.01    0.38
  -4   1  -7    1.19    0.37
  -4   1  -7    0.42    0.28
   4  -1   7    0.32    0.32
   4  -1   7    0.75    0.32
   4  -1   7    0.94    0.33
   4  -1   7    0.12    0.31
  -5   1  -7   12.69    0.91
  -5   1  -7   12.69    1.22
  -5   1  -7   11.66    1.21
   5  -1   7   10.53    1.49
   5  -1   7   12.49    1.15
   5  -1   7   12.65    1.18
  -6   1  -7   35.25    1.64
  -6   1  -7   33.15    1.62
  -6   1  -7   34.92    1.88
   6  -1   7   37.01    1.88
   6  -1   7   33.56    1.81
   6  -1   7   35.27    2.40
  -7   1  -7    7.91    1.03
  -7   1  -7    8.67    1.13
  -7   1  -7    7.25    0.76
  -7   1  -7    6.86    0.50
   7  -1   7    7.09    1.31
   7  -1   7    7.70    1.00
   7  -1   7    5.83    0.89
  -8   1  -7    2.80    0.69
  -8   1  -7    3.11    0.39
  -8   1  -7    2.50    0.35
  -8   1  -7    2.96    0.71
   8  -1   7    4.52    0.84
   8  -1   7    2.99    0.67
  10   0  -7    0.89    0.35
 -10   0   7   -0.12    0.33
 -10   0   7    0.30    0.29
   9   0  -7    0.66    0.29
  -9   0   7    0.58    0.31
  -9   0   7    0.25    0.36
   8   0  -7    2.46    0.50
   8   0  -7    4.37    0.67
  -8   0   7    3.68    0.59
  -8   0   7    2.82    0.65
   7   0  -7    0.88    0.32
   7   0  -7    1.21    0.38
  -7   0   7    0.69    0.31
  -7   0   7    0.66    0.39
  -7   0   7    1.88    0.48
  -7   0   7    1.31    0.17
  -7   0   7    1.16    0.16
   6   0  -7   16.85    1.07
   6   0  -7   16.98    1.09
  -6   0   7   18.57    0.88
  -6   0   7   19.71    1.15
  -6   0   7   20.48    1.24
  -6   0   7   17.21    1.29
   5   0  -7   40.84    1.81
   5   0  -7   38.71    1.79
   5   0  -7   41.75    1.84
  -5   0   7   42.02    1.66
  -5   0   7   42.39    1.88
  -5   0   7   42.66    1.85
  -5   0   7   44.06    1.67
  -5   0   7   41.33    1.57
  -5   0   7   40.37    2.12
   4   0  -7   79.10    2.84
   4   0  -7   72.95    2.80
   4   0  -7   77.70    2.82
  -4   0   7   76.15    2.83
  -4   0   7   78.12    2.89
  -4   0   7   78.96    2.86
  -4   0   7   74.25    2.62
  -4   0   7   74.28    2.69
  -4   0   7   75.19    3.21
  -4   0   7   79.15    2.73
   3   0  -7  130.33    4.39
   3   0  -7  136.49    4.41
  -3   0   7  136.03    4.64
  -3   0   7  134.99    4.34
  -3   0   7  129.84    4.87
  -3   0   7  131.34    4.38
  -3   0   7  129.59    4.25
  -3   0   7  135.96    4.42
  -3   0   7  134.69    4.32
   2   0  -7   48.48    1.98
   2   0  -7   44.95    1.95
   2   0  -7   49.80    2.17
  -2   0   7   45.80    1.98
  -2   0   7   47.79    1.93
  -2   0   7   43.79    2.26
  -2   0   7   51.89    2.04
  -2   0   7   47.64    1.92
  -2   0   7   47.90    2.20
  -2   0   7   49.80    1.92
   1   0  -7   44.64    1.84
   1   0  -7   39.87    1.81
   1   0  -7   44.27    1.61
   1   0  -7   45.80    1.90
   1   0  -7   41.34    1.85
  -1   0   7   43.04    1.83
  -1   0   7   44.98    1.89
  -1   0   7   44.53    2.18
  -1   0   7   49.81    2.28
  -1   0   7   47.67    1.89
  -1   0   7   42.32    1.80
   0   0  -7    7.13    0.75
   0   0  -7    9.56    0.55
   0   0  -7   10.63    0.77
   0   0  -7   10.39    0.95
   0   0  -7    8.33    0.82
   0   0   7    9.62    0.92
   0   0   7    8.59    0.85
   0   0   7    8.85    0.82
   0   0   7    9.17    0.87
   0   0   7    8.50    1.06
   0   0   7    8.52    1.10
  -1   0  -7    8.16    0.81
  -1   0  -7    8.94    0.85
  -1   0  -7    9.37    0.51
  -1   0  -7   11.54    1.01
  -1   0  -7    9.19    0.87
   1   0   7    9.43    1.18
   1   0   7    7.39    0.99
   1   0   7    9.09    0.86
   1   0   7    8.73    0.85
  -2   0  -7    0.01    0.16
  -2   0  -7    0.37    0.23
  -2   0  -7    0.06    0.18
  -2   0  -7    0.66    0.27
   2   0   7   -0.18    0.24
   2   0   7    0.13    0.18
   2   0   7    0.43    0.29
   2   0   7   -0.08    0.14
  -3   0  -7    8.06    0.82
  -3   0  -7    7.67    0.77
  -3   0  -7   10.48    0.93
  -3   0  -7    7.80    0.87
   3   0   7    8.09    0.85
   3   0   7    7.55    0.83
   3   0   7    8.56    1.25
   3   0   7    6.12    0.93
  -4   0  -7    0.10    0.17
  -4   0  -7    0.00    0.18
  -4   0  -7    0.18    0.19
  -4   0  -7   -0.04    0.17
  -4   0  -7    0.13    0.18
   4   0   7    0.00    0.17
   4   0   7    0.38    0.41
   4   0   7    0.13    0.20
  -5   0  -7   14.20    0.92
  -5   0  -7   17.19    1.21
  -5   0  -7   15.81    1.12
   5   0   7   14.43    1.07
   5   0   7   12.33    1.63
   5   0   7   13.35    1.02
  -6   0  -7    7.97    0.97
  -6   0  -7    4.88    0.59
  -6   0  -7    7.34    0.51
  -6   0  -7    7.32    0.71
  -6   0  -7    7.82    1.01
   6   0   7    9.35    1.03
   6   0   7    6.67    0.86
   6   0   7    4.85    1.07
  -7   0  -7    5.84    0.88
  -7   0  -7    5.15    0.48
  -7   0  -7    5.34    0.51
  -7   0  -7    6.45    0.93
   7   0   7    6.36    0.93
   7   0   7    4.36    1.06
   7   0   7    4.53    0.75
  -8   0  -7    6.27    0.95
  -8   0  -7    4.02    0.78
   8   0   7    4.56    1.17
   8   0   7    4.47    0.81
   8   0   7    4.43    0.78
  10  -1  -7    4.43    0.74
 -10   1   7    3.28    0.83
 -10   1   7    6.12    0.90
   9  -1  -7   30.31    1.67
   9  -1  -7   27.56    1.64
  -9   1   7   33.01    2.01
  -9   1   7   29.07    1.68
   8  -1  -7    2.32    0.55
   8  -1  -7    3.63    0.61
  -8   1   7    2.72    0.57
  -8   1   7    2.99    0.29
  -8   1   7    3.23    0.30
  -8   1   7    3.12    0.70
   7  -1  -7    3.81    0.62
   7  -1  -7    3.12    0.57
  -7   1   7    3.76    0.45
  -7   1   7    4.39    0.66
  -7   1   7    3.63    0.75
   6  -1  -7    2.00    0.45
   6  -1  -7    1.41    0.41
  -6   1   7    2.06    0.44
  -6   1   7    2.00    0.55
  -6   1   7    1.49    0.43
  -6   1   7    1.94    0.37
   5  -1  -7    0.33    0.24
   5  -1  -7    0.72    0.29
  -5   1   7    1.16    0.33
  -5   1   7    0.71    0.26
  -5   1   7    0.60    0.25
  -5   1   7    0.88    0.28
  -5   1   7    0.53    0.33
  -5   1   7    1.03    0.27
  -5   1   7    0.68    0.29
   4  -1  -7   20.37    1.15
   4  -1  -7   19.09    1.13
   4  -1  -7   19.66    1.15
  -4   1   7   19.46    1.04
  -4   1   7   21.03    1.06
  -4   1   7   18.52    1.15
  -4   1   7   18.28    1.34
  -4   1   7   20.71    1.11
  -4   1   7   20.60    1.17
   3  -1  -7   12.74    0.87
   3  -1  -7   13.04    0.88
  -3   1   7   12.43    0.95
  -3   1   7   12.18    0.87
  -3   1   7   14.07    1.37
  -3   1   7   12.02    0.77
  -3   1   7   12.30    0.84
  -3   1   7   11.39    0.79
   2  -1  -7   -0.07    0.13
   2  -1  -7   -0.11    0.13
   2  -1  -7    0.05    0.17
   2  -1  -7    0.02    0.14
  -2   1   7   -0.01    0.15
  -2   1   7   -0.01    0.21
  -2   1   7    0.21    0.17
  -2   1   7    0.03    0.14
  -2   1   7   -0.05    0.12
  -2   1   7   -0.06    0.15
  -2   1   7    0.04    0.15
   1  -1  -7   18.30    1.07
   1  -1  -7   21.20    1.14
   1  -1  -7   17.45    1.04
   1  -1  -7   17.39    1.06
  -1   1   7   16.42    1.00
  -1   1   7   18.31    1.08
  -1   1   7   17.68    1.30
  -1   1   7   18.92    1.07
  -1   1   7   19.21    1.33
  -1   1   7   16.89    1.04
   0  -1  -7    6.14    0.40
   0  -1  -7    6.72    0.75
   0  -1  -7    6.09    0.70
   0  -1  -7    7.21    0.76
   0  -1  -7    6.38    0.72
   0   1   7    5.77    0.66
   0   1   7    6.22    0.95
   0   1   7    5.92    0.69
   0   1   7    6.82    0.76
   0   1   7    5.49    0.83
  -1  -1  -7    2.07    0.41
  -1  -1  -7    1.90    0.41
  -1  -1  -7    2.97    0.28
  -1  -1  -7    2.94    0.51
   1   1   7    3.43    0.54
   1   1   7    2.26    0.44
   1   1   7    2.59    0.68
   1   1   7    1.70    0.53
  -2  -1  -7    5.70    0.72
  -2  -1  -7    5.82    0.67
  -2  -1  -7    6.28    0.70
  -2  -1  -7    5.76    0.68
   2   1   7    6.13    1.01
   2   1   7    4.93    0.84
   2   1   7    5.64    0.70
   2   1   7    5.40    0.67
  -3  -1  -7    6.65    0.80
  -3  -1  -7    6.95    0.83
  -3  -1  -7    6.32    0.69
  -3  -1  -7    6.50    0.70
   3   1   7    6.73    0.98
   3   1   7    5.56    0.71
   3   1   7    5.50    0.71
   3   1   7    4.48    0.92
  -4  -1  -7   15.60    1.09
  -4  -1  -7   14.10    0.92
  -4  -1  -7   14.92    1.07
   4   1   7   14.69    1.76
   4   1   7   15.24    1.04
   4   1   7   15.04    1.03
  -5  -1  -7    5.15    0.59
  -5  -1  -7    4.18    0.68
  -5  -1  -7    5.01    0.58
  -5  -1  -7    4.86    0.75
  -5  -1  -7    5.60    0.45
  -5  -1  -7    5.04    0.51
  -5  -1  -7    4.58    0.74
   5   1   7    3.67    0.94
   5   1   7    6.31    0.81
   5   1   7    6.59    0.82
  -6  -1  -7   13.55    1.31
  -6  -1  -7   10.45    1.15
  -6  -1  -7   11.14    0.63
  -6  -1  -7   10.80    0.63
   6   1   7   11.51    1.16
   6   1   7    9.38    1.03
   6   1   7   11.60    1.69
  -7  -1  -7   13.50    1.37
  -7  -1  -7   16.71    1.49
   7   1   7   13.05    1.75
   7   1   7   17.37    1.23
   7   1   7   17.42    1.25
  -8  -1  -7    1.64    0.53
  -8  -1  -7    2.34    0.60
   8   1   7    1.17    0.44
   8   1   7    1.50    0.49
   8   1   7    1.54    0.78
  10  -2  -7    0.93    0.43
  10  -2  -7    0.12    0.27
 -10   2   7    0.44    0.38
 -10   2   7   -0.25    0.32
   9  -2  -7    8.64    1.04
   9  -2  -7    9.08    1.07
  -9   2   7    9.24    1.12
  -9   2   7    8.41    0.51
  -9   2   7    8.70    0.50
  -9   2   7    6.56    1.14
   8  -2  -7    7.17    0.93
   8  -2  -7    9.51    1.03
  -8   2   7   10.69    0.69
  -8   2   7    7.68    0.70
  -8   2   7   11.32    1.19
  -8   2   7    8.16    1.16
   7  -2  -7   10.39    1.08
   7  -2  -7   13.38    1.27
  -7   2   7   13.47    1.45
  -7   2   7   15.17    1.30
  -7   2   7   13.44    0.87
   6  -2  -7    1.40    0.43
   6  -2  -7    2.45    0.52
  -6   2   7    1.78    0.45
  -6   2   7    1.77    0.39
  -6   2   7    1.49    0.36
  -6   2   7    1.64    0.54
   5  -2  -7   40.31    1.89
   5  -2  -7   40.69    1.91
  -5   2   7   39.06    1.73
  -5   2   7   40.60    1.93
  -5   2   7   43.83    1.96
  -5   2   7   44.21    1.84
  -5   2   7   38.81    2.18
   4  -2  -7   61.65    2.49
   4  -2  -7   60.09    2.50
  -4   2   7   60.42    2.38
  -4   2   7   60.16    2.43
  -4   2   7   61.82    2.13
  -4   2   7   68.43    2.58
  -4   2   7   63.40    2.90
  -4   2   7   66.28    2.70
   3  -2  -7   70.14    2.71
   3  -2  -7   68.58    2.69
   3  -2  -7   73.40    2.75
  -3   2   7   69.90    2.32
  -3   2   7   69.27    2.68
  -3   2   7   72.61    2.72
  -3   2   7   72.83    3.00
  -3   2   7   71.85    2.66
  -3   2   7   75.90    2.78
  -3   2   7   64.13    3.04
   2  -2  -7   36.63    1.70
   2  -2  -7   36.13    1.66
   2  -2  -7   33.87    1.62
   2  -2  -7   35.37    1.65
  -2   2   7   34.96    1.66
  -2   2   7   37.83    1.69
  -2   2   7   36.60    1.96
  -2   2   7   36.89    1.66
  -2   2   7   35.25    1.38
  -2   2   7   33.29    1.59
  -2   2   7   33.36    1.95
   1  -2  -7   12.01    1.03
   1  -2  -7    8.48    0.86
   1  -2  -7    8.30    0.87
  -1   2   7   10.32    0.93
  -1   2   7   10.02    1.19
  -1   2   7   11.08    1.00
  -1   2   7   12.13    1.25
  -1   2   7   11.93    0.83
   0  -2  -7   14.11    0.92
   0  -2  -7   12.69    0.91
   0  -2  -7   12.31    0.86
   0   2   7   10.87    1.22
   0   2   7   13.42    1.42
   0   2   7   13.99    0.93
   0   2   7   13.44    0.91
  -1  -2  -7    6.42    0.71
  -1  -2  -7    5.47    0.69
  -1  -2  -7    6.60    0.73
   1   2   7    7.15    1.02
   1   2   7    6.79    0.76
   1   2   7    8.15    0.81
   1   2   7    7.12    1.09
  -2  -2  -7    4.06    0.57
  -2  -2  -7    2.87    0.46
  -2  -2  -7    4.72    0.70
  -2  -2  -7    3.83    0.53
  -2  -2  -7    2.89    0.52
   2   2   7    2.58    0.69
   2   2   7    4.00    0.78
   2   2   7    2.86    0.50
   2   2   7    3.41    0.56
  -3  -2  -7    4.57    0.60
  -3  -2  -7    4.19    0.69
  -3  -2  -7    5.08    0.60
  -3  -2  -7    5.81    0.77
  -3  -2  -7    4.31    0.62
   3   2   7    4.59    0.64
   3   2   7    4.45    0.94
   3   2   7    6.04    0.76
  -4  -2  -7    9.83    0.69
  -4  -2  -7    9.63    0.70
  -4  -2  -7   10.33    1.14
  -4  -2  -7   10.76    1.05
  -4  -2  -7    9.99    0.64
   4   2   7    9.57    1.43
   4   2   7    9.98    1.03
   4   2   7    8.70    0.91
  -5  -2  -7    1.42    0.28
  -5  -2  -7    1.48    0.27
  -5  -2  -7    1.09    0.41
  -5  -2  -7    1.57    0.48
   5   2   7    1.76    0.44
   5   2   7    1.79    0.71
   5   2   7    1.51    0.44
  -6  -2  -7    6.08    0.88
  -6  -2  -7    5.73    0.82
  -6  -2  -7    6.16    1.00
   6   2   7    7.24    0.89
   6   2   7    7.41    0.92
   6   2   7    4.46    1.08
  -7  -2  -7    3.90    0.74
  -7  -2  -7    5.34    0.84
   7   2   7    5.42    0.78
   7   2   7    4.32    1.15
   7   2   7    4.77    0.81
  -8  -2  -7    1.41    0.51
  -8  -2  -7    1.65    0.53
   8   2   7    3.66    1.10
   8   2   7    1.89    0.51
  10  -3  -7    1.98    0.56
  10  -3  -7    1.44    0.59
 -10   3   7    1.23    0.52
 -10   3   7    1.78    0.28
 -10   3   7    2.43    0.76
 -10   3   7    1.85    0.29
   9  -3  -7    1.04    0.46
   9  -3  -7    0.21    0.29
  -9   3   7    0.45    0.50
  -9   3   7    0.39    0.38
  -9   3   7    0.51    0.26
   8  -3  -7   11.38    1.20
   8  -3  -7   13.30    1.31
  -8   3   7   10.83    0.97
  -8   3   7    9.17    1.32
  -8   3   7   10.88    1.21
   7  -3  -7    0.18    0.27
   7  -3  -7    0.20    0.27
  -7   3   7    0.23    0.22
  -7   3   7    0.08    0.40
  -7   3   7   -0.01    0.23
   6  -3  -7    2.08    0.51
   6  -3  -7    2.15    0.53
  -6   3   7    3.22    0.62
  -6   3   7    3.24    0.58
  -6   3   7    2.69    0.70
  -6   3   7    2.62    0.48
  -6   3   7    3.02    0.59
   5  -3  -7   25.24    1.45
   5  -3  -7   25.40    1.43
  -5   3   7   22.75    1.28
  -5   3   7   24.72    1.70
  -5   3   7   23.62    1.46
  -5   3   7   23.65    1.35
  -5   3   7   24.30    1.43
   4  -3  -7   38.25    1.84
   4  -3  -7   39.98    1.85
  -4   3   7   35.43    1.72
  -4   3   7   39.73    1.82
  -4   3   7   37.00    2.14
  -4   3   7   38.25    1.98
  -4   3   7   36.47    1.81
   3  -3  -7   11.09    1.01
   3  -3  -7    8.91    0.92
   3  -3  -7    8.92    0.93
  -3   3   7    8.71    0.89
  -3   3   7    8.80    1.12
  -3   3   7   11.96    1.10
  -3   3   7    9.85    1.18
  -3   3   7    9.31    0.94
  -3   3   7   13.11    1.15
   2  -3  -7   28.74    1.51
   2  -3  -7   29.43    1.53
   2  -3  -7   31.78    1.58
   2  -3  -7   34.01    1.60
  -2   3   7   29.47    1.52
  -2   3   7   31.65    1.86
  -2   3   7   28.85    1.53
  -2   3   7   32.80    1.88
  -2   3   7   32.43    1.58
   1  -3  -7    1.45    0.39
   1  -3  -7    2.94    0.52
   1  -3  -7    2.50    0.48
  -1   3   7    2.19    0.43
  -1   3   7    2.13    0.45
  -1   3   7    1.93    0.55
  -1   3   7    2.75    0.66
   0  -3  -7   16.86    1.06
   0  -3  -7   20.09    1.20
   0  -3  -7   20.86    1.18
   0   3   7   20.58    1.46
   0   3   7   18.64    1.14
   0   3   7   19.54    1.51
   0   3   7   23.11    1.24
  -1  -3  -7   28.46    1.39
  -1  -3  -7   30.69    1.46
  -1  -3  -7   30.05    1.53
   1   3   7   29.90    1.93
   1   3   7   29.92    1.80
   1   3   7   30.50    1.51
   1   3   7   25.98    1.43
  -2  -3  -7   11.50    0.84
  -2  -3  -7   13.33    1.27
  -2  -3  -7   12.22    1.11
  -2  -3  -7   12.72    0.81
  -2  -3  -7   12.74    0.81
   2   3   7   13.50    1.57
   2   3   7   13.78    0.96
   2   3   7   12.82    0.94
  -3  -3  -7    3.65    0.63
  -3  -3  -7    3.73    0.51
  -3  -3  -7    3.39    0.44
  -3  -3  -7    3.91    0.51
  -3  -3  -7    3.71    0.71
   3   3   7    4.13    0.62
   3   3   7    4.01    0.92
   3   3   7    4.33    0.65
  -4  -3  -7    1.56    0.44
  -4  -3  -7    2.45    0.60
  -4  -3  -7    1.68    0.31
  -4  -3  -7    2.65    0.39
   4   3   7    1.76    0.71
   4   3   7    1.98    0.51
   4   3   7    2.29    0.49
  -5  -3  -7    0.18    0.36
  -5  -3  -7    0.24    0.26
   5   3   7    0.27    0.27
   5   3   7    0.09    0.37
   5   3   7    0.14    0.22
  -6  -3  -7    0.97    0.43
  -6  -3  -7    1.20    0.44
  -6  -3  -7    1.27    0.56
   6   3   7    1.06    0.38
   6   3   7    0.60    0.57
   6   3   7    0.69    0.35
  -7  -3  -7    0.34    0.30
  -7  -3  -7   -0.15    0.23
   7   3   7    0.13    0.59
   7   3   7    0.23    0.26
  10  -4  -7    0.83    0.47
  10  -4  -7    0.88    0.46
 -10   4   7    0.36    0.40
 -10   4   7    0.24    0.38
 -10   4   7    0.78    0.31
   9  -4  -7    7.87    1.12
   9  -4  -7   10.62    1.26
  -9   4   7    7.97    1.12
  -9   4   7    9.65    1.47
  -9   4   7    8.84    0.92
   8  -4  -7   39.94    2.14
   8  -4  -7   38.66    2.11
  -8   4   7   39.02    2.48
  -8   4   7   40.56    1.93
  -8   4   7   39.08    2.12
   7  -4  -7   30.88    1.79
   7  -4  -7   32.25    1.81
  -7   4   7   30.89    2.12
  -7   4   7   30.47    1.79
  -7   4   7   31.67    1.68
  -7   4   7   32.37    1.63
   6  -4  -7    7.63    0.96
   6  -4  -7    7.70    0.97
  -6   4   7   10.27    1.04
  -6   4   7   10.41    1.38
  -6   4   7    7.54    1.01
  -6   4   7    8.45    0.90
   5  -4  -7    0.04    0.22
   5  -4  -7    0.18    0.23
  -5   4   7    0.13    0.33
  -5   4   7    0.19    0.23
  -5   4   7   -0.03    0.19
  -5   4   7    0.08    0.23
   4  -4  -7    0.41    0.27
   4  -4  -7    0.24    0.27
  -4   4   7    0.47    0.29
  -4   4   7    0.49    0.38
  -4   4   7    0.74    0.31
  -4   4   7    0.38    0.32
   3  -4  -7   12.88    0.99
   3  -4  -7   13.39    1.20
   3  -4  -7   15.98    1.09
  -3   4   7   15.99    1.04
  -3   4   7   11.78    1.39
  -3   4   7   14.44    1.01
  -3   4   7   16.81    1.59
   2  -4  -7    2.05    0.45
   2  -4  -7    3.53    0.60
  -2   4   7    2.85    0.55
  -2   4   7    2.86    0.55
  -2   4   7    3.60    0.76
  -2   4   7    2.69    0.68
   1  -4  -7    5.31    0.72
   1  -4  -7    5.75    0.76
   1  -4  -7    4.88    0.66
  -1   4   7    4.90    0.69
  -1   4   7    5.64    0.73
  -1   4   7    5.94    0.99
  -1   4   7    5.20    0.89
   0  -4  -7    0.46    0.29
   0  -4  -7    0.36    0.23
   0  -4  -7    0.66    0.28
   0   4   7    0.69    0.42
   0   4   7    0.67    0.27
   0   4   7    0.98    0.35
   0   4   7    0.13    0.31
  -1  -4  -7    1.07    0.33
  -1  -4  -7    0.77    0.29
  -1  -4  -7    1.24    0.45
  -1  -4  -7    0.86    0.33
   1   4   7    0.83    0.32
   1   4   7    1.07    0.51
   1   4   7    0.79    0.32
  -2  -4  -7    4.22    0.65
  -2  -4  -7    4.69    0.80
  -2  -4  -7    4.24    0.58
   2   4   7    4.31    0.65
   2   4   7    4.71    0.68
   2   4   7    5.54    1.06
  -3  -4  -7    0.34    0.14
  -3  -4  -7    0.41    0.20
  -3  -4  -7    0.62    0.41
  -3  -4  -7    0.61    0.22
  -3  -4  -7    0.39    0.28
   3   4   7   -0.05    0.41
   3   4   7    0.19    0.23
   3   4   7    0.51    0.32
  -4  -4  -7    0.93    0.18
  -4  -4  -7    0.36    0.28
  -4  -4  -7    0.97    0.19
  -4  -4  -7    1.49    0.55
   4   4   7    0.44    0.30
   4   4   7    1.50    0.43
   4   4   7    1.11    0.66
  -5  -4  -7    2.68    0.76
  -5  -4  -7    1.72    0.49
   5   4   7    2.30    0.52
   5   4   7    3.21    0.97
   5   4   7    2.80    0.55
  -6  -4  -7    2.63    0.74
  -6  -4  -7    1.95    0.54
  -6  -4  -7    2.36    0.58
   6   4   7    1.89    0.48
   6   4   7    3.55    1.08
  -7  -4  -7    9.83    1.49
  -7  -4  -7   10.80    1.21
  -7  -4  -7    9.16    1.08
   7   4   7   10.19    1.10
   7   4   7   11.99    1.87
  10  -5  -7    8.81    1.23
  10  -5  -7   10.45    1.38
 -10   5   7   13.46    1.86
 -10   5   7   10.78    1.07
   9  -5  -7    6.13    1.04
   9  -5  -7    4.59    0.90
  -9   5   7    4.74    1.09
  -9   5   7    4.84    0.76
   8  -5  -7    1.60    0.55
   8  -5  -7    0.93    0.47
  -8   5   7    1.95    0.55
  -8   5   7    1.39    0.66
   7  -5  -7    2.11    0.57
   7  -5  -7    2.90    0.66
  -7   5   7    2.26    0.72
  -7   5   7    2.60    0.59
  -7   5   7    2.60    0.57
   6  -5  -7   15.33    1.47
   6  -5  -7   14.80    1.43
  -6   5   7   13.67    1.64
  -6   5   7   14.93    1.33
  -6   5   7   15.25    1.40
  -6   5   7   12.93    1.43
   5  -5  -7    0.98    0.42
  -5   5   7    0.50    0.42
  -5   5   7    0.41    0.29
  -5   5   7    0.99    0.44
   4  -5  -7   24.05    1.49
  -4   5   7   24.25    1.79
  -4   5   7   24.76    1.47
  -4   5   7   28.00    1.78
   3  -5  -7   65.27    2.68
   3  -5  -7   65.50    2.73
  -3   5   7   58.42    3.03
  -3   5   7   63.20    2.67
  -3   5   7   60.99    3.02
  -3   5   7   62.38    2.66
   2  -5  -7   70.91    2.70
   2  -5  -7   63.31    2.59
  -2   5   7   60.41    3.01
  -2   5   7   65.42    3.11
  -2   5   7   59.10    2.58
  -2   5   7   55.42    2.55
   1  -5  -7   60.80    2.59
   1  -5  -7   61.56    2.53
   1  -5  -7   61.54    2.51
  -1   5   7   58.69    3.05
  -1   5   7   60.72    2.58
  -1   5   7   60.25    2.54
  -1   5   7   66.60    3.08
   0  -5  -7   12.22    1.14
   0  -5  -7   12.40    0.92
   0  -5  -7   11.48    0.86
   0   5   7   11.03    1.45
   0   5   7   11.99    1.10
   0   5   7   12.63    1.47
   0   5   7   11.92    1.12
  -1  -5  -7   20.78    1.48
  -1  -5  -7   21.12    1.17
  -1  -5  -7   20.72    1.31
   1   5   7   22.48    2.12
   1   5   7   18.61    1.25
   1   5   7   20.96    1.29
  -2  -5  -7    7.94    1.11
  -2  -5  -7    8.75    0.80
  -2  -5  -7    8.75    0.79
  -2  -5  -7    7.82    0.93
   2   5   7    5.97    1.18
   2   5   7    9.06    0.99
   2   5   7    7.11    0.88
  -3  -5  -7    3.31    0.75
  -3  -5  -7    4.41    0.47
  -3  -5  -7    4.15    0.45
  -3  -5  -7    4.15    0.67
   3   5   7    3.60    0.62
   3   5   7    5.10    0.77
   3   5   7    4.37    1.01
  -4  -5  -7    0.20    0.35
  -4  -5  -7   -0.09    0.24
   4   5   7   -0.02    0.26
   4   5   7    0.36    0.55
   4   5   7   -0.06    0.15
  -5  -5  -7    2.59    0.58
  -5  -5  -7    1.61    0.67
   5   5   7    1.66    0.46
   5   5   7    1.91    0.49
   5   5   7    2.10    0.85
  -6  -5  -7    0.77    0.53
  -6  -5  -7    0.91    0.43
   6   5   7    0.28    0.63
   6   5   7    0.00    0.24
   9  -6  -7    1.33    0.56
  -9   6   7    1.32    0.70
  -9   6   7    1.13    0.46
   8  -6  -7    2.86    0.74
  -8   6   7    5.90    0.94
  -8   6   7    5.56    1.19
  -8   6   7    2.43    0.59
   7  -6  -7   22.86    1.63
  -7   6   7   25.52    1.56
  -7   6   7   24.82    2.42
  -7   6   7   24.30    1.61
   6  -6  -7   12.55    1.35
  -6   6   7    9.91    1.14
  -6   6   7    8.64    1.38
   5  -6  -7    5.77    0.91
  -5   6   7    5.03    0.83
  -5   6   7    4.53    0.98
   4  -6  -7    1.70    0.50
  -4   6   7    1.66    0.67
  -4   6   7    1.25    0.52
  -4   6   7    2.11    0.52
   3  -6  -7    0.76    0.35
   3  -6  -7    0.28    0.29
  -3   6   7   -0.07    0.24
  -3   6   7    0.35    0.43
  -3   6   7    0.14    0.25
   2  -6  -7    0.58    0.32
   2  -6  -7    0.08    0.23
  -2   6   7    0.45    0.30
  -2   6   7    0.59    0.34
  -2   6   7    0.48    0.43
  -2   6   7    0.73    0.51
   1  -6  -7    2.61    0.59
   1  -6  -7    3.64    0.62
   1  -6  -7    2.71    0.53
  -1   6   7    3.81    0.65
  -1   6   7    3.23    0.83
  -1   6   7    3.96    0.71
   0  -6  -7    0.05    0.22
   0  -6  -7   -0.06    0.17
   0  -6  -7    0.01    0.27
   0   6   7   -0.20    0.19
   0   6   7   -0.22    0.30
   0   6   7   -0.13    0.21
  -1  -6  -7    0.16    0.19
  -1  -6  -7    0.20    0.30
  -1  -6  -7    0.38    0.35
   1   6   7    0.30    0.28
   1   6   7    0.29    0.26
   1   6   7   -0.03    0.40
  -2  -6  -7    0.36    0.39
  -2  -6  -7    1.32    0.31
  -2  -6  -7    1.30    0.44
  -2  -6  -7    1.23    0.31
   2   6   7    1.12    0.40
   2   6   7    1.93    0.77
   2   6   7    1.19    0.44
  -3  -6  -7    7.15    1.23
  -3  -6  -7    6.36    0.87
   3   6   7    5.88    1.21
   3   6   7    5.80    0.81
   3   6   7    6.60    0.90
  -4  -6  -7    6.22    1.19
  -4  -6  -7    8.43    1.04
   4   6   7    8.55    1.02
   4   6   7    6.19    1.34
   4   6   7    6.26    0.87
  -5  -6  -7    1.97    0.55
  -5  -6  -7    1.17    0.62
   5   6   7    1.19    0.73
   5   6   7    1.47    0.43
   9  -7  -7   -0.14    0.32
  -9   7   7    0.26    0.61
  -9   7   7   -0.13    0.33
   8  -7  -7   -0.19    0.26
  -8   7   7    0.38    0.30
  -8   7   7   -0.09    0.42
   7  -7  -7    5.78    1.00
  -7   7   7    6.74    1.00
  -7   7   7    7.30    1.37
   6  -7  -7   12.30    1.40
  -6   7   7   16.17    1.55
  -6   7   7   16.10    1.96
   5  -7  -7   24.12    1.59
  -5   7   7   23.78    1.56
  -5   7   7   21.54    2.24
   4  -7  -7    1.85    0.54
  -4   7   7    0.61    0.41
  -4   7   7    0.94    0.50
  -4   7   7    2.11    0.79
   3  -7  -7    6.44    0.92
   3  -7  -7    8.17    1.01
  -3   7   7    7.70    1.28
  -3   7   7    8.28    1.34
  -3   7   7    8.19    1.08
   2  -7  -7   16.30    1.24
   2  -7  -7   20.03    1.29
  -2   7   7   21.11    1.41
  -2   7   7   16.16    1.88
  -2   7   7   19.44    1.36
   1  -7  -7    5.71    1.01
   1  -7  -7    7.33    0.90
  -1   7   7    7.83    1.05
  -1   7   7    6.46    0.91
  -1   7   7    8.17    1.35
   0  -7  -7    2.21    0.66
   0  -7  -7    3.75    0.61
   0  -7  -7    3.87    0.75
   0   7   7    4.37    0.78
   0   7   7    2.92    0.85
   0   7   7    2.60    0.59
  -1  -7  -7    0.05    0.18
  -1  -7  -7    0.10    0.27
  -1  -7  -7    0.10    0.34
   1   7   7    0.13    0.26
   1   7   7    0.47    0.48
   1   7   7   -0.07    0.27
  -2  -7  -7    3.29    0.68
  -2  -7  -7    3.09    0.85
  -2  -7  -7    2.77    0.39
  -2  -7  -7    2.24    0.35
   2   7   7    3.22    0.94
   2   7   7    2.08    0.57
   2   7   7    3.42    0.67
  -3  -7  -7    0.40    0.48
  -3  -7  -7    0.91    0.43
   3   7   7    0.94    0.64
   3   7   7    1.57    0.48
   3   7   7    1.51    0.47
  -4  -7  -7    0.00    0.44
  -4  -7  -7   -0.39    0.24
   4   7   7   -0.38    0.43
   4   7   7    0.11    0.25
   8  -8  -7    2.08    0.67
  -8   8   7    1.37    0.78
  -8   8   7    0.81    0.49
   7  -8  -7    0.85    0.55
  -7   8   7    0.79    0.71
  -7   8   7    0.94    0.48
   6  -8  -7    3.47    0.82
  -6   8   7    3.53    1.04
  -6   8   7    3.27    0.73
   5  -8  -7    0.34    0.32
  -5   8   7    0.84    0.53
  -5   8   7    0.28    0.38
   4  -8  -7    0.51    0.39
  -4   8   7    0.73    0.40
  -4   8   7   -0.04    0.38
   3  -8  -7   12.35    1.32
   3  -8  -7   14.85    1.40
  -3   8   7    8.58    1.44
  -3   8   7   11.33    1.31
   2  -8  -7    7.71    1.17
   2  -8  -7    8.49    1.05
  -2   8   7   11.31    1.28
  -2   8   7   10.91    1.61
  -2   8   7    8.75    1.14
   1  -8  -7    6.48    0.85
   1  -8  -7    6.49    1.16
  -1   8   7    6.56    0.98
  -1   8   7    6.01    1.22
  -1   8   7    8.34    1.09
   0  -8  -7   23.62    1.61
   0  -8  -7   19.50    1.98
   0  -8  -7   21.94    1.29
   0   8   7   23.08    1.52
   0   8   7   21.79    2.34
   0   8   7   18.63    1.72
  -1  -8  -7   10.14    1.21
  -1  -8  -7   10.07    0.74
  -1  -8  -7   11.37    1.57
   1   8   7    7.38    1.00
   1   8   7    9.91    1.62
   1   8   7    8.28    1.09
  -2  -8  -7    7.23    1.05
  -2  -8  -7    6.86    1.26
   2   8   7    9.79    1.19
   2   8   7   10.06    1.68
   2   8   7   10.10    1.16
  -3  -8  -7    2.52    0.62
  -3  -8  -7    1.90    0.77
   3   8   7    1.20    0.77
   3   8   7    2.90    0.69
   3   8   7    2.98    0.65
  -7   9   7    7.87    1.17
  -7   9   7    9.67    1.81
  -6   9   7   14.67    1.63
  -6   9   7   13.90    2.03
   5  -9  -7    6.31    1.01
  -5   9   7    7.40    1.13
  -5   9   7    6.67    1.49
   4  -9  -7   10.21    1.25
  -4   9   7    8.12    1.20
   3  -9  -7    0.38    0.33
   3  -9  -7    0.11    0.36
  -3   9   7   -0.11    0.28
  -3   9   7   -0.13    0.35
   2  -9  -7    1.09    0.47
   2  -9  -7    0.30    0.40
  -2   9   7    0.25    0.36
  -2   9   7    0.36    0.53
  -2   9   7    0.92    0.48
   1  -9  -7    4.45    0.71
   1  -9  -7    3.51    0.88
  -1   9   7    3.69    1.06
  -1   9   7    4.46    0.87
  -1   9   7    3.47    0.76
   0  -9  -7    1.23    0.61
   0  -9  -7    0.97    0.33
   0   9   7    1.06    0.44
   0   9   7    0.71    0.66
   0   9   7    1.45    0.60
  -1  -9  -7    0.43    0.54
  -1  -9  -7   -0.02    0.35
  -1  -9  -7    0.08    0.17
  -1  -9  -7    0.09    0.18
   1   9   7    0.23    0.39
   1   9   7   -0.05    0.50
   1   9   7    0.09    0.33
   4 -10  -7    0.18    0.39
  -4  10   7    0.18    0.52
  -4  10   7    0.33    0.47
   3 -10  -7    1.37    0.66
   3 -10  -7    1.52    0.55
  -3  10   7    1.02    0.68
  -3  10   7    0.66    0.45
   2 -10  -7   14.53    1.81
   2 -10  -7   15.92    1.44
  -2  10   7   15.03    2.11
  -2  10   7   14.32    1.63
   1 -10  -7   17.60    1.24
   1 -10  -7   17.84    2.11
  -1  10   7   19.06    1.82
  -1  10   7   18.72    2.42
  -1  10   7   19.04    1.89
   2  10  -8    1.70    0.56
   2  10  -8    0.95    0.48
  -2 -10   8    1.09    0.68
  -2 -10   8    1.20    0.56
  -2 -10   8    0.69    0.51
   1  10  -8    0.16    0.31
   1  10  -8    0.06    0.27
   1  10  -8    0.59    0.44
  -1 -10   8    0.05    0.17
  -1 -10   8   -0.27    0.42
  -1 -10   8    0.11    0.17
  -1 -10   8   -0.15    0.30
   0  10  -8    0.95    0.43
   0  10  -8   -0.03    0.37
   0 -10   8    1.56    0.57
   0 -10   8    0.55    0.56
   0 -10   8    0.10    0.23
  -1  10  -8    4.17    0.83
  -1  10  -8    3.51    0.83
   1 -10   8    3.34    0.87
   1 -10   8    1.81    0.78
  -2  10  -8   10.05    1.32
   2 -10   8    8.33    1.58
   2 -10   8    7.92    1.32
  -3  10  -8    1.75    0.60
   3 -10   8    2.58    1.02
   3 -10   8    1.20    0.67
   4   9  -8    8.15    1.10
   4   9  -8    8.33    1.00
  -4  -9   8    6.92    0.98
  -4  -9   8    7.60    1.00
  -4  -9   8    8.87    1.58
   3   9  -8    1.15    0.41
   3   9  -8    1.52    0.53
   3   9  -8    2.80    0.68
  -3  -9   8    0.70    0.45
  -3  -9   8    1.54    0.55
  -3  -9   8    1.98    0.76
   2   9  -8    8.97    1.12
   2   9  -8    9.25    1.16
   2   9  -8    9.53    1.12
  -2  -9   8   10.64    1.23
  -2  -9   8    9.33    1.55
  -2  -9   8    8.53    1.17
   1   9  -8   10.66    1.22
   1   9  -8   10.03    1.22
   1   9  -8    7.45    1.03
  -1  -9   8   11.02    1.76
  -1  -9   8    8.37    1.14
  -1  -9   8    8.13    0.76
  -1  -9   8    8.50    1.21
   0   9  -8    0.08    0.33
   0   9  -8    0.14    0.33
   0   9  -8   -0.17    0.27
   0  -9   8    0.17    0.35
   0  -9   8   -0.05    0.42
  -1   9  -8    0.00    0.29
  -1   9  -8    0.07    0.25
   1  -9   8   -0.03    0.40
   1  -9   8    0.33    0.44
  -2   9  -8    0.18    0.37
   2  -9   8    1.03    0.76
   2  -9   8    0.54    0.48
  -3   9  -8    0.04    0.32
   3  -9   8   -0.15    0.29
   3  -9   8   -0.42    0.43
   3  -9   8   -0.28    0.35
  -4   9  -8    0.83    0.50
   4  -9   8    2.41    0.79
   4  -9   8    2.13    0.61
  -5   9  -8    5.50    1.05
   5  -9   8    5.19    1.17
   5  -9   8    3.95    0.90
   5   8  -8    0.15    0.33
   5   8  -8    0.51    0.29
  -5  -8   8    0.67    0.37
  -5  -8   8    0.68    0.57
  -5  -8   8    0.66    0.35
   4   8  -8    0.13    0.21
   4   8  -8    0.23    0.32
  -4  -8   8   -0.06    0.21
  -4  -8   8    0.07    0.27
  -4  -8   8   -0.01    0.44
   3   8  -8   -0.14    0.19
   3   8  -8    0.13    0.31
   3   8  -8    0.00    0.23
  -3  -8   8    0.03    0.44
  -3  -8   8   -0.11    0.27
  -3  -8   8    0.16    0.30
   2   8  -8    9.99    1.15
   2   8  -8    8.57    1.08
   2   8  -8    8.88    1.05
  -2  -8   8    9.19    1.50
  -2  -8   8    9.18    0.57
  -2  -8   8    9.94    0.58
  -2  -8   8    9.84    1.22
  -2  -8   8    9.49    1.14
   1   8  -8    6.77    0.97
   1   8  -8    4.64    0.82
   1   8  -8    6.74    0.95
  -1  -8   8    5.51    1.21
  -1  -8   8    5.53    0.88
  -1  -8   8    6.71    1.01
   0   8  -8    0.40    0.37
   0   8  -8    0.37    0.33
   0   8  -8    0.28    0.31
   0  -8   8    0.38    0.34
   0  -8   8    0.63    0.44
   0  -8   8    0.00    0.41
  -1   8  -8    0.11    0.28
  -1   8  -8    0.76    0.41
  -1   8  -8    0.17    0.27
   1  -8   8    0.32    0.48
   1  -8   8    0.22    0.38
  -2   8  -8    7.92    1.10
   2  -8   8    7.53    1.50
   2  -8   8    9.43    1.08
   2  -8   8    9.62    1.35
  -3   8  -8   18.82    1.78
   3  -8   8   19.18    2.00
   3  -8   8   22.54    1.51
  -4   8  -8    5.54    0.93
  -4   8  -8    5.27    1.02
   4  -8   8    7.01    1.03
   4  -8   8    6.24    1.20
  -5   8  -8    0.43    0.43
  -5   8  -8    0.28    0.37
   5  -8   8    0.69    0.49
   5  -8   8    1.33    0.57
  -6   8  -8    1.77    0.73
  -6   8  -8    0.90    0.51
   6  -8   8    0.35    0.45
   6  -8   8    1.51    0.68
   6   7  -8   15.94    1.05
   6   7  -8   13.21    1.37
  -6  -7   8   16.41    1.93
  -6  -7   8   15.00    1.09
   5   7  -8    7.01    0.96
   5   7  -8    7.72    0.87
  -5  -7   8    6.93    0.85
  -5  -7   8    8.01    0.96
  -5  -7   8    8.71    1.46
   4   7  -8    2.35    0.56
   4   7  -8    2.00    0.51
   4   7  -8    1.77    0.48
   4   7  -8    1.83    0.50
  -4  -7   8    1.62    0.51
  -4  -7   8    1.43    0.65
  -4  -7   8    1.93    0.48
   3   7  -8    6.06    0.84
   3   7  -8    5.54    0.84
   3   7  -8    6.26    0.88
   3   7  -8    4.10    0.65
  -3  -7   8    5.26    0.86
  -3  -7   8    5.76    0.81
  -3  -7   8    6.36    1.19
   2   7  -8    0.40    0.28
   2   7  -8    0.12    0.24
   2   7  -8    0.16    0.26
  -2  -7   8   -0.13    0.20
  -2  -7   8    0.30    0.28
  -2  -7   8    0.35    0.18
  -2  -7   8   -0.14    0.47
   1   7  -8    5.89    0.82
   1   7  -8    3.80    0.70
   1   7  -8    4.17    0.71
  -1  -7   8    5.13    0.88
  -1  -7   8    5.00    1.10
  -1  -7   8    4.24    0.75
   0   7  -8    6.36    0.88
   0   7  -8    7.38    0.97
   0   7  -8    7.78    1.02
   0  -7   8    7.60    1.12
   0  -7   8    8.37    1.37
   0  -7   8    7.57    1.00
  -1   7  -8    0.56    0.36
  -1   7  -8    0.51    0.35
  -1   7  -8    0.53    0.31
   1  -7   8    0.94    0.38
   1  -7   8    0.47    0.56
   1  -7   8    0.68    0.33
   1  -7   8    0.23    0.34
  -2   7  -8    1.77    0.54
  -2   7  -8    1.65    0.55
   2  -7   8    1.42    0.46
   2  -7   8    2.20    0.56
   2  -7   8    1.20    0.56
  -3   7  -8   19.08    1.43
  -3   7  -8   14.69    1.60
   3  -7   8   18.66    1.89
   3  -7   8   17.48    1.56
  -4   7  -8    4.43    0.88
  -4   7  -8    4.22    0.84
   4  -7   8    5.12    1.01
   4  -7   8    2.36    0.66
  -5   7  -8    2.80    0.71
  -5   7  -8    1.86    0.65
   5  -7   8    3.48    0.78
   5  -7   8    2.73    0.85
  -6   7  -8    0.06    0.39
  -6   7  -8    1.08    0.50
   6  -7   8    0.23    0.35
   6  -7   8    1.62    0.70
  -7   7  -8    0.37    0.39
  -7   7  -8    0.23    0.38
   7  -7   8   -0.03    0.35
   7   6  -8    6.14    0.73
   7   6  -8    6.35    0.94
  -7  -6   8    5.79    0.76
  -7  -6   8    5.47    1.12
   6   6  -8    3.63    0.71
   6   6  -8    3.92    0.59
  -6  -6   8    4.78    0.68
  -6  -6   8    5.29    1.10
  -6  -6   8    5.18    0.72
   5   6  -8   12.71    0.94
   5   6  -8   13.63    1.31
  -5  -6   8   11.34    1.56
  -5  -6   8   13.24    1.24
  -5  -6   8   13.51    1.20
   4   6  -8    7.90    0.92
   4   6  -8    7.07    0.81
   4   6  -8    6.38    0.87
  -4  -6   8    7.21    1.21
  -4  -6   8    6.19    0.81
  -4  -6   8    6.52    0.93
   3   6  -8    2.56    0.54
   3   6  -8    2.40    0.50
   3   6  -8    1.94    0.46
  -3  -6   8    2.21    0.27
  -3  -6   8    1.68    0.52
  -3  -6   8    2.82    0.81
  -3  -6   8    1.84    0.45
   2   6  -8    0.55    0.29
   2   6  -8    0.32    0.26
   2   6  -8   -0.31    0.16
   2   6  -8   -0.12    0.19
  -2  -6   8   -0.09    0.35
  -2  -6   8    0.08    0.16
  -2  -6   8    0.00    0.26
  -2  -6   8    0.25    0.25
   1   6  -8   17.99    1.23
   1   6  -8   18.84    1.20
   1   6  -8   18.42    1.25
  -1  -6   8   17.52    1.90
  -1  -6   8   18.74    1.42
  -1  -6   8   17.86    1.09
  -1  -6   8   20.36    1.34
   0   6  -8   35.12    1.73
   0   6  -8   33.55    1.75
   0   6  -8   35.93    1.85
   0  -6   8   33.71    1.67
   0  -6   8   32.58    1.81
   0  -6   8   33.19    1.62
   0  -6   8   34.59    2.06
   0  -6   8   29.34    2.16
  -1   6  -8    0.87    0.41
  -1   6  -8    0.53    0.31
  -1   6  -8    1.69    0.50
  -1   6  -8    0.57    0.30
   1  -6   8    0.48    0.38
   1  -6   8    0.60    0.31
   1  -6   8    0.87    0.33
  -2   6  -8    0.73    0.37
  -2   6  -8    0.50    0.35
   2  -6   8    0.74    0.35
   2  -6   8    0.99    0.49
   2  -6   8    0.88    0.36
  -3   6  -8    0.73    0.43
  -3   6  -8    0.59    0.39
   3  -6   8    1.11    0.46
   3  -6   8    0.66    0.44
  -4   6  -8    4.94    0.94
  -4   6  -8    7.76    1.06
   4  -6   8    7.54    1.17
   4  -6   8    7.02    0.98
  -5   6  -8    0.39    0.39
  -5   6  -8    0.45    0.37
   5  -6   8    0.31    0.38
   5  -6   8    0.35    0.38
  -6   6  -8    1.15    0.49
  -6   6  -8    1.80    0.57
  -6   6  -8    0.84    0.48
   6  -6   8    1.14    0.49
  -7   6  -8    3.04    0.75
  -7   6  -8    1.05    0.55
  -7   6  -8    0.94    0.49
   7  -6   8    1.55    0.59
   8   5  -8    0.17    0.26
   8   5  -8    0.27    0.24
  -8  -5   8    0.49    0.47
  -8  -5   8    0.35    0.25
   7   5  -8    0.67    0.30
   7   5  -8    0.35    0.32
  -7  -5   8    1.20    0.37
  -7  -5   8    0.38    0.31
  -7  -5   8    0.37    0.42
   6   5  -8   -0.14    0.26
   6   5  -8   -0.08    0.19
  -6  -5   8    0.19    0.25
  -6  -5   8    0.14    0.40
  -6  -5   8   -0.20    0.21
   5   5  -8    5.66    0.72
   5   5  -8    4.25    0.70
   5   5  -8    4.94    0.71
  -5  -5   8    4.34    0.74
  -5  -5   8    4.87    1.00
  -5  -5   8    5.49    0.74
   4   5  -8    3.78    0.59
   4   5  -8    3.49    0.60
   4   5  -8    3.45    0.59
  -4  -5   8    3.19    0.56
  -4  -5   8    3.60    0.85
  -4  -5   8    3.40    0.69
   3   5  -8    1.15    0.34
   3   5  -8    1.17    0.39
   3   5  -8    2.13    0.49
  -3  -5   8    2.14    0.73
  -3  -5   8    1.17    0.26
  -3  -5   8    1.36    0.49
  -3  -5   8    1.00    0.34
   2   5  -8    1.59    0.42
   2   5  -8    1.54    0.40
   2   5  -8    2.63    0.50
  -2  -5   8    2.04    0.38
  -2  -5   8    1.83    0.37
  -2  -5   8    2.04    0.46
  -2  -5   8    0.81    0.47
  -2  -5   8    0.95    0.41
   1   5  -8   29.51    1.59
   1   5  -8   29.30    1.58
   1   5  -8   30.47    1.61
   1   5  -8   28.05    1.49
  -1  -5   8   30.89    1.86
  -1  -5   8   30.56    1.61
  -1  -5   8   30.46    2.00
  -1  -5   8   28.79    1.45
  -1  -5   8   30.46    1.43
   0   5  -8    1.78    0.42
   0   5  -8    2.35    0.51
   0   5  -8    1.49    0.42
   0   5  -8    1.39    0.43
   0  -5   8    1.79    0.69
   0  -5   8    1.74    0.48
   0  -5   8    2.20    0.46
   0  -5   8    1.28    0.47
   0  -5   8    2.54    0.51
  -1   5  -8    0.00    0.22
  -1   5  -8    0.12    0.23
  -1   5  -8    0.31    0.25
  -1   5  -8    0.09    0.21
   1  -5   8    0.11    0.27
   1  -5   8    0.22    0.24
   1  -5   8   -0.06    0.19
  -2   5  -8    0.11    0.22
  -2   5  -8    0.10    0.26
  -2   5  -8   -0.03    0.22
   2  -5   8   -0.04    0.22
   2  -5   8    0.36    0.33
  -3   5  -8    2.51    0.56
  -3   5  -8    2.85    0.66
   3  -5   8    2.03    0.62
   3  -5   8    2.44    0.56
  -4   5  -8   23.68    1.65
  -4   5  -8   23.24    1.52
   4  -5   8   24.98    1.81
   4  -5   8   21.62    1.47
  -5   5  -8   10.11    1.31
  -5   5  -8   10.10    1.15
   5  -5   8   11.82    1.46
   5  -5   8    9.86    1.20
  -6   5  -8   13.08    1.39
  -6   5  -8   12.34    1.39
  -6   5  -8   14.52    1.62
  -6   5  -8   15.75    1.47
   6  -5   8   12.68    1.39
  -7   5  -8    5.38    0.92
  -7   5  -8    4.57    0.86
  -7   5  -8    6.18    1.09
   7  -5   8    4.53    0.89
   9   4  -8    1.22    0.38
   9   4  -8    3.39    0.74
  -9  -4   8    1.43    0.60
  -9  -4   8    2.59    0.55
   8   4  -8    1.31    0.36
   8   4  -8    1.84    0.54
  -8  -4   8    1.84    0.65
  -8  -4   8    1.30    0.41
   7   4  -8    2.16    0.43
   7   4  -8    1.39    0.50
  -7  -4   8    1.53    0.43
  -7  -4   8    1.88    0.50
  -7  -4   8    2.08    0.69
   6   4  -8   14.89    1.30
   6   4  -8   13.17    0.92
  -6  -4   8   13.72    1.30
  -6  -4   8   12.71    0.96
  -6  -4   8   12.02    1.48
   5   4  -8   18.36    1.19
   5   4  -8   15.57    1.03
   5   4  -8   17.19    1.08
  -5  -4   8   16.44    1.25
  -5  -4   8   16.49    1.09
  -5  -4   8   18.22    1.80
   4   4  -8   26.20    1.41
   4   4  -8   26.79    1.46
   4   4  -8   28.85    1.47
  -4  -4   8   29.72    1.52
  -4  -4   8   27.52    1.03
  -4  -4   8   29.68    1.72
  -4  -4   8   27.24    1.82
   3   4  -8   38.70    1.85
   3   4  -8   41.12    1.90
   3   4  -8   44.52    1.95
  -3  -4   8   40.99    2.17
  -3  -4   8   42.91    1.67
  -3  -4   8   44.79    2.40
  -3  -4   8   43.72    1.70
  -3  -4   8   41.99    1.94
   2   4  -8   49.69    2.12
   2   4  -8   51.36    2.15
   2   4  -8   46.87    2.02
  -2  -4   8   50.25    1.96
  -2  -4   8   45.43    2.38
  -2  -4   8   49.78    2.15
  -2  -4   8   44.18    2.46
  -2  -4   8   47.89    1.88
   1   4  -8    4.13    0.64
   1   4  -8    4.25    0.66
   1   4  -8    3.17    0.55
   1   4  -8    4.17    0.60
  -1  -4   8    5.21    0.72
  -1  -4   8    4.97    0.92
  -1  -4   8    5.26    0.64
  -1  -4   8    4.92    0.63
  -1  -4   8    3.13    0.68
   0   4  -8    7.29    0.89
   0   4  -8    8.46    0.83
   0   4  -8    9.77    1.03
   0   4  -8    8.89    0.99
   0   4  -8    8.60    0.94
   0  -4   8    8.23    1.09
   0  -4   8    9.00    0.90
   0  -4   8    9.17    0.93
   0  -4   8    8.78    0.97
  -1   4  -8   30.21    1.47
  -1   4  -8   29.84    1.63
  -1   4  -8   32.62    1.77
  -1   4  -8   31.86    1.67
   1  -4   8   29.13    1.57
   1  -4   8   32.16    1.64
   1  -4   8   30.68    1.90
  -2   4  -8    3.53    0.65
  -2   4  -8    1.06    0.31
  -2   4  -8    1.73    0.50
   2  -4   8    0.85    0.34
   2  -4   8    1.52    0.53
  -3   4  -8    0.71    0.35
  -3   4  -8    0.25    0.24
   3  -4   8    0.13    0.27
   3  -4   8   -0.02    0.20
  -4   4  -8    4.83    0.86
  -4   4  -8    5.29    0.83
   4  -4   8    5.63    0.86
   4  -4   8    7.18    1.09
  -5   4  -8    0.96    0.43
  -5   4  -8    1.01    0.41
  -5   4  -8    0.90    0.47
   5  -4   8    0.61    0.45
   5  -4   8    1.12    0.44
  -6   4  -8    1.84    0.57
  -6   4  -8    2.07    0.53
  -6   4  -8    1.96    0.55
  -6   4  -8    2.38    0.59
   6  -4   8    1.00    0.49
  -7   4  -8    1.04    0.56
  -7   4  -8    3.94    0.75
  -7   4  -8    3.34    0.67
   7  -4   8    2.45    0.64
  -8   4  -8    1.47    0.45
  -8   4  -8    1.15    0.57
  -8   4  -8    0.80    0.43
   8  -4   8    0.79    0.45
   8  -4   8    0.66    0.43
   9   3  -8    0.22    0.23
  -9  -3   8   -0.19    0.35
  -9  -3   8    0.44    0.28
   8   3  -8    0.20    0.23
  -8  -3   8   -0.22    0.25
  -8  -3   8    0.26    0.37
  -8  -3   8    0.24    0.27
   7   3  -8    0.09    0.19
  -7  -3   8   -0.15    0.25
  -7  -3   8   -0.01    0.31
  -7  -3   8    0.05    0.18
   6   3  -8    0.47    0.28
   6   3  -8    0.08    0.18
   6   3  -8    0.23    0.24
  -6  -3   8    0.52    0.36
  -6  -3   8    0.07    0.34
  -6  -3   8    0.56    0.30
   5   3  -8    5.30    0.69
   5   3  -8    5.34    0.72
   5   3  -8    6.42    0.80
  -5  -3   8    5.73    0.97
  -5  -3   8    6.30    0.93
  -5  -3   8    5.39    0.71
   4   3  -8    3.82    0.61
   4   3  -8    4.27    0.61
   4   3  -8    4.69    0.66
  -4  -3   8    4.24    0.45
  -4  -3   8    5.50    0.93
  -4  -3   8    4.02    0.75
  -4  -3   8    4.43    0.47
  -4  -3   8    3.57    0.57
   3   3  -8    3.36    0.55
   3   3  -8    3.78    0.57
   3   3  -8    3.41    0.57
  -3  -3   8    3.73    0.51
  -3  -3   8    2.86    0.64
  -3  -3   8    4.14    0.51
  -3  -3   8    3.70    0.76
  -3  -3   8    3.48    0.58
   2   3  -8    0.34    0.23
   2   3  -8    0.67    0.26
   2   3  -8    0.17    0.22
   2   3  -8    0.66    0.28
  -2  -3   8    0.24    0.28
  -2  -3   8    0.07    0.20
  -2  -3   8    0.51    0.21
  -2  -3   8    0.43    0.22
  -2  -3   8    0.71    0.37
   1   3  -8    3.39    0.56
   1   3  -8    3.18    0.59
   1   3  -8    2.21    0.49
   1   3  -8    2.62    0.45
  -1  -3   8    3.17    0.51
  -1  -3   8    3.13    0.72
  -1  -3   8    3.99    0.57
  -1  -3   8    3.84    0.74
  -1  -3   8    2.64    0.53
   0   3  -8   25.57    1.23
   0   3  -8   23.54    1.42
   0   3  -8   21.25    1.31
   0   3  -8   25.96    1.42
   0  -3   8   24.96    1.37
   0  -3   8   25.44    1.66
   0  -3   8   25.57    1.40
   0  -3   8   24.47    1.32
  -1   3  -8    2.21    0.50
  -1   3  -8    2.72    0.43
  -1   3  -8    2.13    0.47
  -1   3  -8    3.55    0.64
  -1   3  -8    3.34    0.59
   1  -3   8    3.44    0.60
   1  -3   8    3.55    0.72
   1  -3   8    4.83    0.69
   1  -3   8    3.26    0.74
  -2   3  -8    0.28    0.20
  -2   3  -8    0.31    0.29
  -2   3  -8    0.49    0.32
   2  -3   8    0.18    0.33
   2  -3   8    0.30    0.27
   2  -3   8    0.52    0.35
  -3   3  -8    2.19    0.55
  -3   3  -8    2.54    0.56
  -3   3  -8    2.39    0.54
   3  -3   8    2.83    0.59
   3  -3   8    1.53    0.62
   3  -3   8    3.82    0.79
   3  -3   8    2.25    0.52
  -4   3  -8   11.14    1.14
  -4   3  -8   10.35    1.18
  -4   3  -8   12.59    1.23
   4  -3   8    8.87    1.23
   4  -3   8   10.55    1.15
   4  -3   8   11.61    1.21
  -5   3  -8   21.08    1.53
  -5   3  -8   21.14    1.40
  -5   3  -8   21.47    1.36
   5  -3   8   20.83    1.43
   5  -3   8   20.24    1.43
  -6   3  -8    0.96    0.48
  -6   3  -8    1.11    0.43
  -6   3  -8    0.61    0.33
   6  -3   8    1.16    0.48
   6  -3   8    0.94    0.40
  -7   3  -8    1.62    0.47
  -7   3  -8    2.30    0.69
  -7   3  -8    1.24    0.45
   7  -3   8    0.63    0.40
   7  -3   8    1.76    0.57
  -8   3  -8    0.21    0.37
  -8   3  -8    0.27    0.24
  -8   3  -8    0.06    0.29
   8  -3   8    0.00    0.38
   8  -3   8    0.09    0.36
  10   2  -8    0.98    0.39
 -10  -2   8    1.50    0.46
   9   2  -8    2.07    0.48
  -9  -2   8    2.57    0.58
  -9  -2   8    3.51    0.72
   8   2  -8    8.13    0.88
  -8  -2   8    7.18    1.00
  -8  -2   8    8.03    1.18
  -8  -2   8    9.69    1.03
   7   2  -8    0.76    0.29
   7   2  -8    0.37    0.26
  -7  -2   8    0.48    0.33
  -7  -2   8    0.38    0.24
  -7  -2   8    1.31    0.51
   6   2  -8    8.47    0.88
   6   2  -8    7.85    0.85
  -6  -2   8    8.71    1.07
  -6  -2   8    8.30    1.09
  -6  -2   8    8.31    0.89
   5   2  -8   35.61    1.70
   5   2  -8   39.27    1.76
  -5  -2   8   35.93    1.99
  -5  -2   8   36.82    2.03
  -5  -2   8   36.25    1.74
  -5  -2   8   37.32    1.38
   4   2  -8   18.06    1.11
   4   2  -8   19.11    1.14
  -4  -2   8   18.81    1.16
  -4  -2   8   18.02    0.94
  -4  -2   8   16.29    0.91
  -4  -2   8   18.62    1.35
  -4  -2   8   17.11    1.54
   3   2  -8   10.64    0.92
   3   2  -8    7.28    0.82
   3   2  -8    7.65    0.83
  -3  -2   8    7.90    0.77
  -3  -2   8    7.25    0.67
  -3  -2   8    7.95    1.02
  -3  -2   8    7.68    0.85
  -3  -2   8    7.20    0.87
  -3  -2   8    6.72    0.95
   2   2  -8    3.14    0.52
   2   2  -8    3.17    0.48
   2   2  -8    2.24    0.45
  -2  -2   8    2.86    0.61
  -2  -2   8    3.13    0.48
  -2  -2   8    2.98    0.53
  -2  -2   8    2.35    0.59
  -2  -2   8    1.80    0.38
  -2  -2   8    2.26    0.58
   1   2  -8   42.80    1.93
   1   2  -8   42.31    1.93
   1   2  -8   45.93    1.76
  -1  -2   8   41.99    2.21
  -1  -2   8   44.59    1.91
  -1  -2   8   41.51    1.93
  -1  -2   8   40.42    2.21
  -1  -2   8   44.39    1.87
  -1  -2   8   42.93    2.21
   0   2  -8    3.32    0.46
   0   2  -8    3.37    0.57
   0   2  -8    3.08    0.54
   0  -2   8    3.76    0.61
   0  -2   8    4.90    0.85
   0  -2   8    3.34    0.58
   0  -2   8    3.15    0.53
   0  -2   8    3.47    0.75
  -1   2  -8    0.92    0.33
  -1   2  -8    1.24    0.39
  -1   2  -8    1.66    0.33
  -1   2  -8    1.05    0.35
  -1   2  -8    1.50    0.39
   1  -2   8    1.26    0.47
   1  -2   8    2.30    0.66
   1  -2   8    1.47    0.39
   1  -2   8    1.46    0.40
   1  -2   8    1.90    0.46
  -2   2  -8    0.10    0.24
  -2   2  -8    0.17    0.15
  -2   2  -8   -0.08    0.17
  -2   2  -8    0.19    0.24
   2  -2   8   -0.15    0.18
   2  -2   8   -0.09    0.15
   2  -2   8    0.52    0.39
   2  -2   8    0.30    0.23
  -3   2  -8    0.31    0.28
  -3   2  -8    0.49    0.33
  -3   2  -8    1.01    0.40
   3  -2   8    1.17    0.48
   3  -2   8    0.49    0.32
   3  -2   8    0.04    0.27
   3  -2   8    0.56    0.49
  -4   2  -8    1.39    0.40
  -4   2  -8    1.25    0.42
  -4   2  -8    0.89    0.40
   4  -2   8    0.74    0.35
   4  -2   8    1.31    0.59
   4  -2   8    1.52    0.51
   4  -2   8    0.86    0.39
  -5   2  -8    8.10    0.92
  -5   2  -8    8.23    0.97
  -5   2  -8    6.45    0.96
   5  -2   8    7.48    1.33
   5  -2   8    7.10    0.96
   5  -2   8    8.43    0.99
  -6   2  -8    2.62    0.54
  -6   2  -8    2.27    0.51
  -6   2  -8    1.81    0.58
   6  -2   8    1.69    0.68
   6  -2   8    2.61    0.64
   6  -2   8    2.01    0.57
  -7   2  -8    2.82    0.52
  -7   2  -8    3.48    0.59
  -7   2  -8    4.75    0.89
   7  -2   8    3.85    0.76
   7  -2   8    3.56    0.73
  -8   2  -8    4.54    0.49
  -8   2  -8    3.06    0.82
  -8   2  -8    4.49    0.63
   8  -2   8    4.75    0.88
   8  -2   8    3.72    0.81
  10   1  -8    6.98    0.90
  10   1  -8    7.02    0.91
 -10  -1   8    6.93    1.05
 -10  -1   8    8.45    1.03
   9   1  -8    4.50    0.68
   9   1  -8    4.16    0.67
  -9  -1   8    6.03    0.96
  -9  -1   8    4.11    0.73
   8   1  -8    0.34    0.28
   8   1  -8    0.52    0.31
   8   1  -8    0.70    0.30
  -8  -1   8    0.98    0.46
  -8  -1   8    0.15    0.24
  -8  -1   8    0.49    0.34
   7   1  -8   -0.19    0.18
   7   1  -8   -0.16    0.17
   7   1  -8    0.34    0.25
  -7  -1   8   -0.06    0.28
  -7  -1   8   -0.02    0.20
  -7  -1   8    0.23    0.28
   6   1  -8    7.12    0.84
   6   1  -8    8.44    0.90
  -6  -1   8    7.49    0.49
  -6  -1   8    9.50    1.09
  -6  -1   8    8.81    1.13
  -6  -1   8    7.20    0.84
   5   1  -8   11.25    1.05
   5   1  -8   11.98    0.89
  -5  -1   8   13.30    0.96
  -5  -1   8   12.26    1.32
  -5  -1   8   13.10    1.27
  -5  -1   8   11.34    0.73
  -5  -1   8   12.80    0.75
   4   1  -8   30.98    1.56
   4   1  -8   33.09    1.60
  -4  -1   8   32.01    1.59
  -4  -1   8   33.48    1.39
  -4  -1   8   33.66    1.47
  -4  -1   8   29.07    1.81
  -4  -1   8   34.02    1.46
  -4  -1   8   30.83    1.70
  -4  -1   8   32.44    1.61
   3   1  -8   21.40    1.21
   3   1  -8   19.70    1.17
  -3  -1   8   20.55    1.22
  -3  -1   8   18.81    1.39
  -3  -1   8   19.53    1.28
  -3  -1   8   18.05    1.07
  -3  -1   8   20.73    1.28
  -3  -1   8   19.96    1.05
   2   1  -8   35.38    1.52
   2   1  -8   36.75    1.71
   2   1  -8   36.22    1.69
  -2  -1   8   35.95    1.72
  -2  -1   8   33.82    1.99
  -2  -1   8   36.56    1.61
  -2  -1   8   36.97    1.66
  -2  -1   8   36.19    1.84
  -2  -1   8   37.35    1.95
   1   1  -8   27.23    1.22
   1   1  -8   26.48    1.41
   1   1  -8   23.87    1.37
  -1  -1   8   27.57    1.45
  -1  -1   8   27.72    1.72
  -1  -1   8   26.68    1.72
  -1  -1   8   28.98    1.40
  -1  -1   8   28.23    1.42
   0   1  -8   34.09    1.63
   0   1  -8   29.66    1.27
   0   1  -8   29.33    1.52
   0   1  -8   28.89    1.53
   0  -1   8   30.89    1.54
   0  -1   8   30.14    1.51
   0  -1   8   32.05    1.61
   0  -1   8   36.45    1.65
   0  -1   8   29.46    1.85
   0  -1   8   29.85    1.88
  -1   1  -8  116.37    4.04
  -1   1  -8  120.39    4.10
  -1   1  -8  116.13    3.60
  -1   1  -8  117.39    4.10
   1  -1   8  122.85    4.08
   1  -1   8  107.94    4.62
   1  -1   8  100.91    4.41
   1  -1   8  122.46    4.10
  -2   1  -8   22.66    1.33
  -2   1  -8   24.44    1.40
  -2   1  -8   27.09    1.43
  -2   1  -8   24.55    1.05
   2  -1   8   24.51    1.65
   2  -1   8   22.95    1.75
   2  -1   8   22.37    1.34
   2  -1   8   23.33    1.36
  -3   1  -8    1.24    0.36
  -3   1  -8    1.38    0.43
  -3   1  -8    1.33    0.43
  -3   1  -8    1.16    0.39
  -3   1  -8    1.18    0.37
   3  -1   8    1.57    0.61
   3  -1   8    1.54    0.55
   3  -1   8    2.10    0.46
   3  -1   8    0.74    0.36
  -4   1  -8    2.24    0.47
  -4   1  -8    0.96    0.37
  -4   1  -8    2.43    0.56
  -4   1  -8    2.10    0.53
   4  -1   8    2.14    0.71
   4  -1   8    1.66    0.48
   4  -1   8    1.46    0.41
  -5   1  -8    0.60    0.37
  -5   1  -8    1.16    0.38
  -5   1  -8    0.52    0.39
   5  -1   8    1.17    0.66
   5  -1   8    0.28    0.24
   5  -1   8    0.28    0.28
  -6   1  -8    3.40    0.69
  -6   1  -8    3.83    0.57
  -6   1  -8    3.94    0.61
  -6   1  -8    3.14    0.71
   6  -1   8    4.53    1.12
   6  -1   8    4.22    0.74
   6  -1   8    3.22    0.65
  -7   1  -8    0.86    0.47
  -7   1  -8    0.75    0.22
  -7   1  -8    0.79    0.41
  -7   1  -8    1.20    0.35
   7  -1   8    1.72    0.52
   7  -1   8    0.74    0.42
   7  -1   8    0.90    0.63
  -8   1  -8    1.44    0.54
  -8   1  -8    2.26    0.65
  -8   1  -8    1.70    0.33
  -8   1  -8    1.62    0.33
   8  -1   8    2.33    0.63
   8  -1   8    1.60    0.55
  10   0  -8    9.41    1.06
 -10   0   8    8.91    1.09
 -10   0   8    8.55    1.22
   9   0  -8    8.31    1.02
   9   0  -8    8.35    0.98
  -9   0   8    7.49    1.15
  -9   0   8    5.96    0.85
   8   0  -8    9.41    1.07
   8   0  -8   10.33    1.04
  -8   0   8   11.16    1.33
  -8   0   8    9.32    1.06
   7   0  -8   12.28    1.17
   7   0  -8   13.07    1.17
   7   0  -8   14.42    1.02
  -7   0   8    9.69    1.24
  -7   0   8   13.12    1.30
  -7   0   8   12.30    0.65
  -7   0   8   11.87    1.14
   6   0  -8    6.18    0.81
   6   0  -8    6.26    0.80
   6   0  -8    6.28    0.80
  -6   0   8    5.25    0.76
  -6   0   8    5.24    0.56
  -6   0   8    5.72    0.93
  -6   0   8    5.57    0.79
   5   0  -8    0.19    0.21
   5   0  -8    0.05    0.20
  -5   0   8   -0.05    0.13
  -5   0   8    0.09    0.17
  -5   0   8    0.21    0.24
  -5   0   8    0.14    0.21
  -5   0   8    0.03    0.28
   4   0  -8    2.83    0.50
   4   0  -8    4.20    0.63
  -4   0   8    3.09    0.60
  -4   0   8    3.37    0.73
  -4   0   8    2.90    0.53
  -4   0   8    3.79    0.60
  -4   0   8    2.76    0.45
  -4   0   8    2.64    0.46
   3   0  -8    8.75    0.89
   3   0  -8   10.55    0.98
  -3   0   8    8.28    0.99
  -3   0   8    9.36    0.84
  -3   0   8    9.50    0.97
  -3   0   8    9.60    0.88
  -3   0   8    9.05    1.13
  -3   0   8   10.76    1.00
   2   0  -8    0.31    0.24
   2   0  -8    0.10    0.18
  -2   0   8    0.41    0.26
  -2   0   8    0.14    0.17
  -2   0   8    0.28    0.27
  -2   0   8    0.20    0.28
  -2   0   8    0.06    0.21
  -2   0   8    0.16    0.20
   1   0  -8    1.06    0.25
   1   0  -8    0.76    0.29
   1   0  -8    0.74    0.30
  -1   0   8    1.28    0.37
  -1   0   8    1.70    0.54
  -1   0   8    0.68    0.28
  -1   0   8    1.08    0.35
  -1   0   8    1.08    0.33
  -1   0   8    0.90    0.44
   0   0  -8   14.64    0.76
   0   0  -8   16.10    1.06
   0   0  -8   17.48    1.09
   0   0   8   17.23    1.07
   0   0   8   14.56    1.00
   0   0   8   16.72    1.60
   0   0   8   17.02    1.09
   0   0   8   14.59    1.55
  -1   0  -8    3.46    0.57
  -1   0  -8    3.13    0.55
  -1   0  -8    3.17    0.57
  -1   0  -8    3.76    0.40
   1   0   8    2.31    0.47
   1   0   8    4.64    0.97
   1   0   8    2.51    0.48
   1   0   8    3.16    0.71
  -2   0  -8    0.66    0.30
  -2   0  -8    0.63    0.28
  -2   0  -8    0.21    0.25
  -2   0  -8    0.47    0.26
   2   0   8    0.18    0.37
   2   0   8    0.25    0.22
   2   0   8    0.10    0.28
   2   0   8    0.44    0.25
  -3   0  -8    0.66    0.27
  -3   0  -8    0.84    0.33
  -3   0  -8    1.01    0.35
  -3   0  -8    1.08    0.38
   3   0   8    1.14    0.53
   3   0   8    1.07    0.36
   3   0   8    1.69    0.56
   3   0   8    0.34    0.27
  -4   0  -8    0.36    0.24
  -4   0  -8    0.31    0.27
  -4   0  -8    0.36    0.28
  -4   0  -8    0.25    0.30
   4   0   8    0.69    0.34
   4   0   8    0.48    0.49
   4   0   8    0.74    0.34
  -5   0  -8    6.44    0.95
  -5   0  -8    4.44    0.76
  -5   0  -8    6.32    0.77
   5   0   8    7.47    1.33
   5   0   8    6.84    0.92
   5   0   8    6.44    0.88
  -6   0  -8   28.52    1.73
  -6   0  -8   26.77    1.29
  -6   0  -8   27.21    1.37
  -6   0  -8   26.91    1.74
   6   0   8   26.59    1.62
   6   0   8   26.83    1.64
   6   0   8   26.94    2.61
  -7   0  -8    9.57    0.65
  -7   0  -8    8.12    1.09
  -7   0  -8    7.57    0.68
   7   0   8    7.61    1.01
   7   0   8    9.05    1.17
   7   0   8    7.14    1.44
  -8   0  -8    3.24    0.76
  -8   0  -8    4.51    0.90
   8   0   8    2.58    0.67
   8   0   8    3.39    0.76
   8   0   8    3.59    1.14
  10  -1  -8    0.12    0.26
  10  -1  -8   -0.09    0.26
 -10   1   8    0.09    0.28
 -10   1   8   -0.43    0.35
   9  -1  -8    0.03    0.24
   9  -1  -8    0.92    0.42
  -9   1   8    0.56    0.48
  -9   1   8    0.39    0.34
   8  -1  -8    0.26    0.26
   8  -1  -8    0.22    0.29
  -8   1   8    0.29    0.15
  -8   1   8    0.23    0.29
  -8   1   8   -0.11    0.28
  -8   1   8    0.08    0.12
   7  -1  -8    0.22    0.23
   7  -1  -8    0.40    0.30
  -7   1   8    0.34    0.29
  -7   1   8    0.64    0.25
  -7   1   8    1.19    0.50
   6  -1  -8    0.94    0.34
   6  -1  -8    0.81    0.33
  -6   1   8    0.78    0.31
  -6   1   8    0.89    0.37
  -6   1   8    1.73    0.57
  -6   1   8    1.65    0.35
   5  -1  -8    8.25    0.92
   5  -1  -8    7.75    0.89
   5  -1  -8    7.04    0.85
  -5   1   8    9.91    1.03
  -5   1   8    7.99    0.83
  -5   1   8    7.76    1.10
  -5   1   8    9.72    1.09
  -5   1   8    7.70    0.74
  -5   1   8    8.13    0.83
   4  -1  -8   48.16    2.17
   4  -1  -8   52.79    2.22
  -4   1   8   50.28    2.33
  -4   1   8   56.06    2.29
  -4   1   8   53.21    2.14
  -4   1   8   49.85    2.07
  -4   1   8   47.75    2.00
  -4   1   8   48.96    2.56
   3  -1  -8   63.20    2.55
   3  -1  -8   60.66    2.53
  -3   1   8   59.79    2.93
  -3   1   8   63.72    2.81
  -3   1   8   62.70    2.49
  -3   1   8   65.10    2.48
  -3   1   8   63.67    2.39
  -3   1   8   65.88    2.60
   2  -1  -8   54.41    2.33
   2  -1  -8   55.74    2.34
  -2   1   8   57.72    2.39
  -2   1   8   55.20    2.36
  -2   1   8   58.86    2.35
  -2   1   8   56.57    2.23
  -2   1   8   57.45    2.77
  -2   1   8   58.07    2.69
  -2   1   8   55.57    2.27
   1  -1  -8   22.22    1.28
   1  -1  -8   25.64    1.37
   1  -1  -8   24.65    1.34
  -1   1   8   19.82    1.50
  -1   1   8   24.15    1.62
  -1   1   8   24.08    1.31
  -1   1   8   21.74    1.24
  -1   1   8   22.47    1.29
   0  -1  -8   13.44    0.99
   0  -1  -8   15.98    1.04
   0  -1  -8   14.35    0.70
   0  -1  -8   13.28    0.96
   0   1   8   12.64    1.43
   0   1   8   14.64    0.99
   0   1   8   15.50    1.02
   0   1   8   14.14    1.54
  -1  -1  -8    0.21    0.20
  -1  -1  -8    0.08    0.22
  -1  -1  -8    0.23    0.20
   1   1   8    0.38    0.35
   1   1   8    0.04    0.30
   1   1   8    0.33    0.21
   1   1   8    0.98    0.33
  -2  -1  -8   25.68    1.37
  -2  -1  -8   25.57    1.44
  -2  -1  -8   25.49    1.36
  -2  -1  -8   29.01    1.47
   2   1   8   25.77    1.90
   2   1   8   26.69    1.75
   2   1   8   23.49    1.39
   2   1   8   24.98    1.42
  -3  -1  -8    8.75    0.96
  -3  -1  -8    7.89    0.93
  -3  -1  -8    8.47    0.88
  -3  -1  -8    8.73    0.89
   3   1   8    8.78    0.95
   3   1   8    8.61    0.96
   3   1   8    7.37    1.25
  -4  -1  -8    1.04    0.40
  -4  -1  -8    1.50    0.39
  -4  -1  -8    1.15    0.42
   4   1   8    1.57    0.65
   4   1   8    2.10    0.50
   4   1   8    1.05    0.40
  -5  -1  -8    3.12    0.51
  -5  -1  -8    3.98    0.70
  -5  -1  -8    4.29    0.77
   5   1   8    2.94    0.87
   5   1   8    5.13    0.79
   5   1   8    3.91    0.71
  -6  -1  -8    1.21    0.44
  -6  -1  -8    1.91    0.35
  -6  -1  -8    1.37    0.31
  -6  -1  -8    1.40    0.50
   6   1   8    1.14    0.43
   6   1   8    1.95    0.84
   6   1   8    1.16    0.44
  -7  -1  -8    1.53    0.52
  -7  -1  -8    0.47    0.40
   7   1   8    1.56    0.53
   7   1   8    0.79    0.42
   7   1   8    0.72    0.61
  10  -2  -8    5.07    0.92
  10  -2  -8    6.35    0.97
 -10   2   8    5.38    1.11
 -10   2   8    5.32    0.90
   9  -2  -8    7.90    1.02
   9  -2  -8    9.34    1.14
  -9   2   8    9.03    1.15
  -9   2   8    9.22    0.60
  -9   2   8    6.86    1.18
  -9   2   8    7.46    0.55
   8  -2  -8    2.36    0.57
   8  -2  -8    1.37    0.46
  -8   2   8    1.38    0.56
  -8   2   8    2.48    0.44
  -8   2   8    1.71    0.47
   7  -2  -8    0.18    0.27
   7  -2  -8    0.10    0.25
  -7   2   8    0.41    0.38
  -7   2   8    0.23    0.23
  -7   2   8   -0.14    0.22
   6  -2  -8    8.58    0.97
   6  -2  -8   10.40    1.09
  -6   2   8    5.95    1.01
  -6   2   8    8.79    0.88
  -6   2   8    9.19    0.86
  -6   2   8    9.16    1.03
   5  -2  -8    6.23    0.84
   5  -2  -8    6.01    0.81
   5  -2  -8    5.37    0.78
  -5   2   8    4.82    0.76
  -5   2   8    5.84    0.81
  -5   2   8    5.17    0.70
  -5   2   8    5.90    0.99
  -5   2   8    5.89    0.71
   4  -2  -8   15.89    1.12
   4  -2  -8   20.61    1.22
   4  -2  -8   17.37    1.14
  -4   2   8   17.24    1.11
  -4   2   8   17.07    1.07
  -4   2   8   14.70    1.56
  -4   2   8   16.43    1.15
  -4   2   8   16.26    1.23
   3  -2  -8   21.27    1.28
   3  -2  -8   23.06    1.33
  -3   2   8   24.29    1.39
  -3   2   8   24.06    1.54
  -3   2   8   21.79    1.58
  -3   2   8   20.31    1.21
  -3   2   8   20.66    1.26
   2  -2  -8    3.23    0.57
   2  -2  -8    3.41    0.59
  -2   2   8    3.07    0.55
  -2   2   8    3.85    0.59
  -2   2   8    3.06    0.71
  -2   2   8    3.59    0.60
  -2   2   8    3.68    0.75
   1  -2  -8    2.33    0.49
   1  -2  -8    2.45    0.52
  -1   2   8    1.66    0.56
  -1   2   8    2.74    0.50
  -1   2   8    2.32    0.63
  -1   2   8    1.93    0.44
   0  -2  -8    0.90    0.34
   0  -2  -8    1.54    0.40
   0  -2  -8    1.24    0.37
   0   2   8    1.61    0.43
   0   2   8    1.68    0.43
   0   2   8    0.62    0.39
   0   2   8    1.57    0.52
  -1  -2  -8    2.04    0.44
  -1  -2  -8    1.21    0.37
  -1  -2  -8    2.30    0.48
   1   2   8    1.34    0.37
   1   2   8    2.02    0.61
   1   2   8    1.58    0.42
   1   2   8    1.82    0.68
  -2  -2  -8   59.36    2.48
  -2  -2  -8   58.70    2.29
  -2  -2  -8   55.32    2.25
  -2  -2  -8   56.73    2.33
   2   2   8   56.18    2.40
   2   2   8   54.56    3.01
   2   2   8   52.89    2.73
   2   2   8   51.70    2.34
  -3  -2  -8   17.86    1.30
  -3  -2  -8   21.06    1.31
  -3  -2  -8   18.89    1.13
   3   2   8   17.26    1.92
   3   2   8   17.80    1.22
   3   2   8   22.41    1.33
  -4  -2  -8    1.93    0.40
  -4  -2  -8    1.67    0.49
  -4  -2  -8    2.29    0.54
   4   2   8    1.73    0.46
   4   2   8    3.07    0.61
   4   2   8    1.38    0.69
  -5  -2  -8    0.78    0.39
  -5  -2  -8    0.46    0.11
  -5  -2  -8    0.35    0.19
  -5  -2  -8    0.28    0.28
  -5  -2  -8    0.39    0.11
  -5  -2  -8    0.36    0.21
  -5  -2  -8    0.60    0.39
   5   2   8    0.60    0.61
   5   2   8    0.45    0.33
   5   2   8    0.70    0.35
  -6  -2  -8    0.23    0.29
  -6  -2  -8    0.07    0.27
   6   2   8    0.20    0.52
   6   2   8    0.25    0.32
   6   2   8   -0.09    0.23
  -7  -2  -8    2.75    0.68
  -7  -2  -8    1.51    0.52
   7   2   8    2.01    0.56
   7   2   8    1.89    0.54
   7   2   8    2.65    1.04
  10  -3  -8    0.14    0.32
  10  -3  -8   -0.19    0.28
 -10   3   8   -0.16    0.28
 -10   3   8    0.06    0.17
 -10   3   8    0.13    0.18
 -10   3   8    0.94    0.59
   9  -3  -8    4.75    0.86
   9  -3  -8    3.78    0.76
  -9   3   8    5.05    0.88
  -9   3   8    4.70    1.01
  -9   3   8    4.76    0.62
   8  -3  -8    2.72    0.63
   8  -3  -8    2.58    0.63
  -8   3   8    3.94    0.62
  -8   3   8    3.26    0.72
  -8   3   8    3.22    0.85
   7  -3  -8   15.36    1.43
   7  -3  -8   12.60    1.32
  -7   3   8   11.52    1.50
  -7   3   8   12.06    1.11
  -7   3   8   12.75    1.32
   6  -3  -8   20.13    1.36
   6  -3  -8   20.00    1.34
  -6   3   8   20.09    1.21
  -6   3   8   21.86    2.04
  -6   3   8   20.21    1.27
  -6   3   8   20.14    1.37
   5  -3  -8    0.22    0.28
   5  -3  -8    0.57    0.28
  -5   3   8    0.42    0.37
  -5   3   8    0.60    0.41
  -5   3   8    0.33    0.30
  -5   3   8    0.52    0.30
  -5   3   8    0.11    0.22
   4  -3  -8   18.21    1.21
   4  -3  -8   15.73    1.13
   4  -3  -8   15.03    1.10
  -4   3   8   14.45    1.04
  -4   3   8   16.52    1.15
  -4   3   8   15.83    1.65
  -4   3   8   18.86    1.38
   3  -3  -8    5.68    0.79
   3  -3  -8    6.81    0.85
  -3   3   8    5.05    0.71
  -3   3   8    6.13    0.97
  -3   3   8    5.58    0.78
  -3   3   8    5.78    1.01
   2  -3  -8    7.45    0.91
   2  -3  -8    6.37    0.80
  -2   3   8    6.92    0.84
  -2   3   8    8.42    0.92
  -2   3   8    7.60    1.13
  -2   3   8    7.44    1.14
   1  -3  -8    2.46    0.54
   1  -3  -8    3.36    0.59
  -1   3   8    2.58    0.52
  -1   3   8    3.65    0.78
  -1   3   8    2.51    0.51
  -1   3   8    2.40    0.69
   0  -3  -8   20.01    1.24
   0  -3  -8   17.50    1.12
   0  -3  -8   18.25    1.16
   0   3   8   15.41    1.69
   0   3   8   19.96    1.87
   0   3   8   18.12    1.18
   0   3   8   16.76    1.13
  -1  -3  -8   15.31    1.12
  -1  -3  -8   18.93    1.13
  -1  -3  -8   16.07    1.02
   1   3   8   14.46    1.08
   1   3   8   14.58    1.70
   1   3   8   15.43    1.10
   1   3   8   18.36    1.79
  -2  -3  -8    1.69    0.50
  -2  -3  -8    2.79    0.57
  -2  -3  -8    1.97    0.41
  -2  -3  -8    1.33    0.35
  -2  -3  -8    1.21    0.36
   2   3   8    0.83    0.50
   2   3   8    1.14    0.39
   2   3   8    1.07    0.36
  -3  -3  -8    1.42    0.46
  -3  -3  -8    0.67    0.38
  -3  -3  -8    1.28    0.33
   3   3   8    1.18    0.41
   3   3   8    1.82    0.49
   3   3   8    1.33    0.65
  -4  -3  -8    2.14    0.51
  -4  -3  -8    2.29    0.41
  -4  -3  -8    1.76    0.36
  -4  -3  -8    2.42    0.66
  -4  -3  -8    2.13    0.29
   4   3   8    1.76    0.49
   4   3   8    1.87    0.47
   4   3   8    1.68    0.69
  -5  -3  -8    0.46    0.37
  -5  -3  -8    0.11    0.12
  -5  -3  -8    0.22    0.12
  -5  -3  -8    0.21    0.29
   5   3   8   -0.17    0.26
   5   3   8   -0.24    0.21
   5   3   8    0.66    0.61
  -6  -3  -8    3.07    0.82
  -6  -3  -8    4.05    0.76
  -6  -3  -8    4.29    0.79
   6   3   8    4.32    0.77
   6   3   8    4.04    1.16
   6   3   8    3.55    0.71
  -7  -3  -8   10.55    1.29
   7   3   8   11.41    1.95
   7   3   8   11.56    1.27
  10  -4  -8    8.79    1.26
  10  -4  -8    7.24    1.09
 -10   4   8    8.07    0.84
 -10   4   8    9.01    1.51
   9  -4  -8    7.50    1.11
   9  -4  -8    8.47    1.14
  -9   4   8    6.93    1.28
  -9   4   8    8.06    0.94
   8  -4  -8   14.28    1.51
   8  -4  -8   16.31    1.57
  -8   4   8   16.59    1.18
  -8   4   8   16.13    1.90
   7  -4  -8    1.95    0.57
   7  -4  -8    2.06    0.58
  -7   4   8    1.26    0.43
  -7   4   8    1.84    0.47
  -7   4   8    1.60    0.65
   6  -4  -8    0.23    0.26
   6  -4  -8   -0.08    0.20
  -6   4   8   -0.21    0.21
  -6   4   8    0.09    0.24
  -6   4   8   -0.02    0.36
  -6   4   8   -0.16    0.19
   5  -4  -8    6.71    0.92
   5  -4  -8    5.25    0.81
  -5   4   8    6.08    0.81
  -5   4   8    7.14    1.18
  -5   4   8    9.34    1.21
  -5   4   8    7.76    1.00
   4  -4  -8    0.46    0.32
  -4   4   8    0.65    0.40
  -4   4   8    0.37    0.40
  -4   4   8    0.42    0.28
   3  -4  -8   25.24    1.52
  -3   4   8   27.98    1.56
  -3   4   8   31.28    1.98
  -3   4   8   29.31    1.92
   2  -4  -8   50.31    2.29
   2  -4  -8   49.12    2.24
  -2   4   8   50.95    2.70
  -2   4   8   49.31    2.69
  -2   4   8   45.52    2.20
  -2   4   8   54.10    2.33
   1  -4  -8   46.84    2.12
   1  -4  -8   47.32    2.16
  -1   4   8   46.04    2.16
  -1   4   8   43.59    2.57
  -1   4   8   46.16    2.56
  -1   4   8   48.48    2.19
   0  -4  -8   29.06    1.63
   0  -4  -8   31.50    1.58
   0  -4  -8   27.70    1.47
   0   4   8   26.30    1.97
   0   4   8   24.83    1.49
   0   4   8   27.43    1.55
   0   4   8   27.42    1.88
  -1  -4  -8   13.99    0.98
  -1  -4  -8   11.07    0.85
  -1  -4  -8   11.24    1.14
   1   4   8   13.98    1.03
   1   4   8   13.26    1.22
   1   4   8   13.58    1.66
  -2  -4  -8    3.48    0.74
  -2  -4  -8    3.47    0.56
  -2  -4  -8    3.70    0.68
   2   4   8    5.79    1.14
   2   4   8    4.54    0.73
   2   4   8    5.71    0.81
  -3  -4  -8   17.30    1.00
  -3  -4  -8   17.14    1.67
  -3  -4  -8   19.22    1.32
   3   4   8   14.30    1.86
   3   4   8   15.62    1.16
   3   4   8   19.03    1.27
  -4  -4  -8    5.28    0.51
  -4  -4  -8    5.13    0.81
  -4  -4  -8    4.79    0.94
  -4  -4  -8    4.70    0.49
   4   4   8    6.11    0.87
   4   4   8    4.68    1.17
   4   4   8    4.26    0.72
  -5  -4  -8    0.04    0.25
  -5  -4  -8    0.33    0.42
   5   4   8    0.14    0.28
   5   4   8    0.17    0.31
   5   4   8    0.21    0.59
  -6  -4  -8    0.05    0.47
  -6  -4  -8   -0.19    0.30
  -6  -4  -8    0.07    0.29
   6   4   8   -0.16    0.53
   6   4   8    0.41    0.33
   6   4   8    0.02    0.29
   9  -5  -8    3.73    0.86
   9  -5  -8    4.01    0.89
  -9   5   8    5.06    1.18
  -9   5   8    3.89    0.72
   8  -5  -8   15.11    1.59
   8  -5  -8   18.72    1.83
  -8   5   8   18.47    1.35
  -8   5   8   19.67    2.21
   7  -5  -8    1.52    0.53
  -7   5   8    2.00    0.75
  -7   5   8    2.63    0.59
  -7   5   8    2.70    0.62
   6  -5  -8    2.23    0.61
  -6   5   8    1.17    0.44
  -6   5   8    1.31    0.45
  -6   5   8    0.71    0.43
  -6   5   8    0.68    0.41
   5  -5  -8   -0.15    0.24
  -5   5   8    0.31    0.30
  -5   5   8   -0.11    0.37
  -5   5   8   -0.35    0.24
   4  -5  -8    2.22    0.55
  -4   5   8    2.58    0.74
  -4   5   8    2.64    0.57
  -4   5   8    3.61    0.85
   3  -5  -8    2.52    0.58
  -3   5   8    2.47    0.58
  -3   5   8    3.40    0.83
  -3   5   8    3.92    0.91
   2  -5  -8    0.67    0.34
   2  -5  -8    1.90    0.52
  -2   5   8    1.31    0.60
  -2   5   8    1.10    0.42
  -2   5   8    0.64    0.45
  -2   5   8    1.37    0.46
   1  -5  -8   -0.02    0.22
   1  -5  -8    0.22    0.24
  -1   5   8   -0.14    0.21
  -1   5   8   -0.37    0.25
  -1   5   8   -0.08    0.29
  -1   5   8   -0.02    0.21
   0  -5  -8    0.89    0.34
   0  -5  -8    1.00    0.43
   0  -5  -8    2.04    0.50
   0   5   8    0.86    0.35
   0   5   8    1.03    0.58
   0   5   8    0.43    0.31
  -1  -5  -8    2.63    0.52
  -1  -5  -8    1.72    0.50
  -1  -5  -8    2.09    0.62
   1   5   8    2.11    0.74
   1   5   8    1.37    0.45
   1   5   8    1.70    0.50
  -2  -5  -8    6.55    1.06
  -2  -5  -8    7.50    0.99
  -2  -5  -8    5.33    0.66
   2   5   8    3.88    1.03
   2   5   8    6.56    0.89
   2   5   8    4.96    0.77
  -3  -5  -8    6.98    0.67
  -3  -5  -8    8.11    1.01
  -3  -5  -8    7.97    0.71
  -3  -5  -8    5.03    0.98
   3   5   8    7.33    0.96
   3   5   8    8.81    1.04
   3   5   8    7.57    1.39
  -4  -5  -8    1.37    0.64
  -4  -5  -8    1.37    0.49
   4   5   8    1.34    0.84
   4   5   8    0.73    0.40
   4   5   8    0.45    0.31
  -5  -5  -8    0.78    0.44
  -5  -5  -8    1.22    0.61
   5   5   8    0.69    0.37
   5   5   8    1.01    0.44
   5   5   8    1.02    0.74
   9  -6  -8    0.65    0.49
  -9   6   8    2.23    0.96
  -9   6   8    1.36    0.56
   8  -6  -8    0.24    0.39
  -8   6   8   -0.06    0.29
  -8   6   8   -0.05    0.42
   7  -6  -8    0.20    0.38
  -7   6   8   -0.15    0.41
  -7   6   8   -0.26    0.21
   6  -6  -8    0.70    0.41
  -6   6   8    1.00    0.40
  -6   6   8    0.45    0.45
  -6   6   8    0.47    0.54
   5  -6  -8    9.47    1.18
  -5   6   8    9.97    1.16
  -5   6   8    9.84    1.50
  -5   6   8    9.20    1.35
   4  -6  -8   -0.14    0.26
  -4   6   8    0.03    0.39
  -4   6   8    0.16    0.31
  -4   6   8   -0.24    0.16
   3  -6  -8   16.20    1.23
  -3   6   8   16.04    1.84
  -3   6   8   21.07    2.07
  -3   6   8   15.29    1.44
   2  -6  -8   20.42    1.40
   2  -6  -8   22.09    1.39
  -2   6   8   24.21    2.30
  -2   6   8   22.15    2.11
  -2   6   8   21.59    1.41
  -2   6   8   19.73    1.39
   1  -6  -8   15.28    1.15
   1  -6  -8   14.19    1.27
  -1   6   8   15.87    1.45
  -1   6   8   14.98    1.37
  -1   6   8   15.10    1.85
   0  -6  -8    2.33    0.67
   0  -6  -8    2.81    0.55
   0  -6  -8    3.23    0.65
   0   6   8    2.47    0.61
   0   6   8    2.87    0.62
   0   6   8    2.50    0.80
  -1  -6  -8    1.74    0.63
  -1  -6  -8    1.58    0.52
  -1  -6  -8    2.04    0.46
   1   6   8    1.58    0.51
   1   6   8    1.32    0.45
   1   6   8    1.92    0.76
  -2  -6  -8    3.06    0.39
  -2  -6  -8    2.54    0.45
  -2  -6  -8    3.24    0.67
  -2  -6  -8    1.34    0.55
   2   6   8    0.93    0.67
   2   6   8    1.52    0.50
   2   6   8    3.27    0.70
  -3  -6  -8    1.73    0.28
  -3  -6  -8    2.02    0.55
  -3  -6  -8    1.51    0.27
  -3  -6  -8    2.11    0.69
   3   6   8    1.48    0.74
   3   6   8    1.58    0.54
   3   6   8    1.39    0.50
  -4  -6  -8    6.09    0.93
  -4  -6  -8    7.40    1.28
   4   6   8    6.15    1.34
   4   6   8    8.82    1.10
   4   6   8    6.54    0.92
   8  -7  -8    2.59    0.80
  -8   7   8    2.65    0.92
  -8   7   8    2.16    0.62
   7  -7  -8   18.05    1.80
  -7   7   8   20.72    2.40
  -7   7   8   17.34    1.64
  -7   7   8   15.99    1.82
   6  -7  -8    4.95    0.88
  -6   7   8    6.83    1.05
  -6   7   8    7.18    1.39
  -6   7   8    6.15    1.14
   5  -7  -8    9.22    1.25
  -5   7   8   12.56    1.64
  -5   7   8    8.50    1.48
  -5   7   8    9.41    1.22
   4  -7  -8    1.02    0.44
  -4   7   8    1.35    0.64
  -4   7   8    0.62    0.50
  -4   7   8    1.73    0.57
   3  -7  -8    1.74    0.54
  -3   7   8    1.60    0.68
  -3   7   8    2.37    0.65
  -3   7   8    1.46    0.66
   2  -7  -8    2.15    0.54
   2  -7  -8    1.87    0.50
  -2   7   8    1.11    0.44
  -2   7   8    2.47    0.64
  -2   7   8    2.45    0.81
   1  -7  -8    8.60    1.06
   1  -7  -8    8.44    1.23
  -1   7   8   10.52    1.22
  -1   7   8    9.46    1.16
  -1   7   8    9.70    1.56
   0  -7  -8   10.32    1.06
   0  -7  -8    8.06    1.28
   0   7   8    8.63    1.09
   0   7   8   10.53    1.71
   0   7   8   10.62    1.22
  -1  -7  -8   16.37    1.08
  -1  -7  -8   16.81    1.59
  -1  -7  -8   15.90    1.78
   1   7   8   18.11    1.64
   1   7   8   17.53    1.60
   1   7   8   19.68    2.25
  -2  -7  -8    4.45    0.81
  -2  -7  -8    4.92    0.55
  -2  -7  -8    3.45    0.48
  -2  -7  -8    4.11    0.99
   2   7   8    3.22    1.02
   2   7   8    4.81    0.83
   2   7   8    5.38    0.91
  -3  -7  -8    3.10    0.77
  -3  -7  -8    2.30    0.82
   3   7   8    2.96    1.02
   3   7   8    2.79    0.67
   3   7   8    2.92    0.64
   7  -8  -8    8.88    1.33
  -7   8   8   10.97    1.59
  -7   8   8    9.96    1.76
  -7   8   8    8.11    1.18
   6  -8  -8    3.86    0.88
  -6   8   8    6.71    1.41
  -6   8   8    4.26    1.02
  -6   8   8    4.63    0.87
   5  -8  -8    1.84    0.64
  -5   8   8    2.20    0.81
  -5   8   8    2.03    0.79
  -5   8   8    3.66    0.79
   4  -8  -8    0.19    0.33
  -4   8   8    0.36    0.50
  -4   8   8    0.33    0.36
  -4   8   8    1.00    0.64
   3  -8  -8    4.35    0.81
   3  -8  -8    5.58    0.90
  -3   8   8    4.50    0.86
  -3   8   8    4.70    1.14
   2  -8  -8    1.08    0.52
   2  -8  -8    1.37    0.52
  -2   8   8    0.76    0.56
  -2   8   8    1.17    0.52
   1  -8  -8    6.78    1.18
   1  -8  -8    8.20    1.01
  -1   8   8    7.01    1.39
  -1   8   8    6.68    1.05
  -1   8   8    9.72    1.23
   0  -8  -8    6.96    0.87
   0  -8  -8    6.18    1.18
   0   8   8    8.00    1.10
   0   8   8    7.69    1.09
   0   8   8    9.09    1.58
  -1  -8  -8    3.71    0.58
  -1  -8  -8    2.23    0.78
  -1  -8  -8    3.52    0.76
   1   8   8    3.17    1.02
   1   8   8    4.92    0.89
   1   8   8    3.07    0.71
  -2  -8  -8    1.47    0.64
  -2  -8  -8    0.88    0.18
  -2  -8  -8    0.94    0.19
  -2  -8  -8    1.59    0.59
   2   8   8    1.12    0.80
   2   8   8    1.09    0.52
   2   8   8    0.79    0.40
   6  -9  -8    1.38    0.56
  -6   9   8    1.76    0.79
  -6   9   8    2.13    0.77
  -6   9   8    2.23    0.96
   5  -9  -8    0.34    0.38
  -5   9   8   -0.21    0.28
  -5   9   8    0.14    0.43
   4  -9  -8    0.02    0.29
  -4   9   8    0.09    0.52
  -4   9   8    0.26    0.42
   3  -9  -8    0.06    0.35
   3  -9  -8   -0.44    0.28
  -3   9   8    0.31    0.55
  -3   9   8    0.46    0.41
   2  -9  -8    3.78    0.73
   2  -9  -8    3.69    0.93
  -2   9   8    3.82    1.07
  -2   9   8    4.02    0.85
   1  -9  -8    7.58    0.99
   1  -9  -8    8.72    1.43
  -1   9   8    8.66    1.25
  -1   9   8    4.26    1.19
  -1   9   8    7.97    1.15
   0  -9  -8   10.10    1.58
   0  -9  -8    9.82    0.98
   0   9   8    7.09    1.56
   0   9   8   11.17    1.37
   0   9   8   10.24    1.36
   3   9  -9    3.86    0.82
   3   9  -9    1.98    0.64
   3   9  -9    2.88    0.64
  -3  -9   9    2.41    0.67
  -3  -9   9    1.96    0.64
  -3  -9   9    2.27    0.95
   2   9  -9   14.45    1.47
   2   9  -9   14.61    1.50
   2   9  -9   13.66    1.46
  -2  -9   9   16.72    2.19
  -2  -9   9   14.05    1.51
  -2  -9   9   14.12    1.62
   1   9  -9    1.60    0.54
   1   9  -9    1.65    0.61
   1   9  -9    1.19    0.49
  -1  -9   9    1.79    0.86
  -1  -9   9    2.11    0.68
  -1  -9   9    1.44    0.55
   0   9  -9    0.24    0.40
   0   9  -9   -0.06    0.24
   0   9  -9    0.58    0.41
   0  -9   9    0.31    0.45
   0  -9   9    0.16    0.51
  -1   9  -9    0.23    0.37
  -1   9  -9   -0.14    0.25
   1  -9   9    0.24    0.42
   1  -9   9    0.65    0.63
  -2   9  -9    0.76    0.50
   2  -9   9    2.27    0.80
   2  -9   9    2.90    1.03
  -3   9  -9    6.69    1.12
   3  -9   9    5.10    1.10
   3  -9   9    6.12    1.51
   5   8  -9    3.52    0.78
   5   8  -9    2.71    0.61
  -5  -8   9    3.13    0.68
  -5  -8   9    5.01    0.83
  -5  -8   9    4.92    1.15
   4   8  -9    3.47    0.73
   4   8  -9    4.99    0.79
  -4  -8   9    4.42    0.79
  -4  -8   9    3.63    1.03
  -4  -8   9    5.20    0.88
   3   8  -9   -0.20    0.19
   3   8  -9    0.19    0.28
   3   8  -9    0.04    0.35
  -3  -8   9    0.32    0.37
  -3  -8   9    0.14    0.42
  -3  -8   9    1.04    0.47
   2   8  -9    0.92    0.44
   2   8  -9    0.15    0.30
   2   8  -9    0.21    0.29
  -2  -8   9    0.91    0.45
  -2  -8   9    0.35    0.39
  -2  -8   9    0.48    0.20
  -2  -8   9    0.18    0.53
   1   8  -9   14.93    1.47
   1   8  -9   15.02    1.52
   1   8  -9   18.33    1.62
  -1  -8   9   19.89    1.75
  -1  -8   9   16.10    2.03
  -1  -8   9   17.64    1.80
   0   8  -9    1.62    0.52
   0   8  -9    1.22    0.46
   0   8  -9    0.83    0.41
   0  -8   9    0.90    0.71
   0  -8   9    0.93    0.50
  -1   8  -9    0.06    0.29
  -1   8  -9   -0.01    0.29
  -1   8  -9    0.09    0.25
   1  -8   9    0.82    0.50
   1  -8   9    0.39    0.50
  -2   8  -9    0.76    0.48
   2  -8   9    0.35    0.33
   2  -8   9    0.71    0.67
   2  -8   9   -0.05    0.37
  -3   8  -9    1.34    0.56
   3  -8   9    1.38    0.62
   3  -8   9    1.24    0.49
  -4   8  -9    0.12    0.37
  -4   8  -9    0.07    0.34
   4  -8   9    0.20    0.33
   4  -8   9   -0.36    0.35
  -5   8  -9    1.70    0.71
  -5   8  -9    1.90    0.66
   5  -8   9    1.79    0.77
   5  -8   9    2.27    0.71
   6   7  -9    0.53    0.37
   6   7  -9    0.89    0.35
  -6  -7   9    0.90    0.60
  -6  -7   9    0.27    0.33
  -6  -7   9    0.23    0.34
   5   7  -9    0.27    0.32
   5   7  -9    0.11    0.23
  -5  -7   9    0.39    0.32
  -5  -7   9    0.07    0.46
  -5  -7   9   -0.01    0.26
   4   7  -9    0.17    0.31
   4   7  -9    0.39    0.29
   4   7  -9    0.06    0.27
   4   7  -9    0.08    0.27
  -4  -7   9    0.21    0.28
  -4  -7   9    0.51    0.55
  -4  -7   9    0.21    0.31
   3   7  -9   -0.06    0.29
   3   7  -9   -0.26    0.19
   3   7  -9    0.14    0.29
   3   7  -9   -0.03    0.21
  -3  -7   9   -0.35    0.26
  -3  -7   9   -0.02    0.08
  -3  -7   9   -0.06    0.33
  -3  -7   9   -0.09    0.24
   2   7  -9    8.19    1.06
   2   7  -9    9.45    1.10
   2   7  -9    8.27    1.02
  -2  -7   9    9.90    1.29
  -2  -7   9    8.13    1.46
  -2  -7   9    9.67    1.19
   1   7  -9   52.38    2.43
   1   7  -9   47.95    2.35
   1   7  -9   49.33    2.44
  -1  -7   9   52.61    3.10
  -1  -7   9   52.90    2.77
  -1  -7   9   49.26    2.47
   0   7  -9   17.76    1.63
   0   7  -9   14.66    1.40
   0   7  -9   19.88    1.37
   0  -7   9   17.25    2.03
   0  -7   9   14.39    1.64
  -1   7  -9   10.59    1.17
  -1   7  -9   13.55    1.41
  -1   7  -9   12.81    1.40
   1  -7   9   12.42    1.54
   1  -7   9   10.82    1.71
   1  -7   9   14.64    1.09
   1  -7   9   12.27    1.22
  -2   7  -9   22.42    1.58
   2  -7   9   24.00    1.51
   2  -7   9   21.46    1.50
   2  -7   9   19.67    2.01
  -3   7  -9   14.22    1.53
  -3   7  -9   15.40    1.68
   3  -7   9   16.84    1.87
   3  -7   9   15.40    1.49
  -4   7  -9    5.79    1.07
  -4   7  -9    6.63    1.04
   4  -7   9    7.60    1.11
   4  -7   9    9.57    1.41
  -5   7  -9    1.98    0.71
  -5   7  -9    1.74    0.64
   5  -7   9    1.85    0.75
   5  -7   9    1.05    0.52
  -6   7  -9    0.32    0.41
  -6   7  -9    0.46    0.49
   6  -7   9    0.04    0.36
   7   6  -9    8.00    1.08
   7   6  -9    6.86    0.84
  -7  -6   9    7.63    1.36
  -7  -6   9    7.09    0.91
   6   6  -9    5.72    0.77
   6   6  -9    5.67    0.90
  -6  -6   9    4.56    0.80
  -6  -6   9    5.70    1.14
  -6  -6   9    6.63    0.89
   5   6  -9    2.36    0.58
   5   6  -9    4.06    0.66
  -5  -6   9    3.63    0.73
  -5  -6   9    4.17    0.73
  -5  -6   9    3.29    0.92
   4   6  -9    2.00    0.54
   4   6  -9    1.50    0.50
   4   6  -9    1.95    0.46
  -4  -6   9    2.77    0.67
  -4  -6   9    3.25    0.63
  -4  -6   9    2.78    0.85
   3   6  -9    2.30    0.53
   3   6  -9    2.83    0.61
   3   6  -9    3.83    0.72
  -3  -6   9    2.95    0.86
  -3  -6   9    3.10    0.74
  -3  -6   9    2.86    0.62
  -3  -6   9    2.90    0.39
   2   6  -9    1.72    0.49
   2   6  -9    1.54    0.45
   2   6  -9    1.97    0.54
   2   6  -9    1.45    0.48
  -2  -6   9    2.05    0.71
  -2  -6   9    1.22    0.50
  -2  -6   9    2.19    0.57
   1   6  -9    4.86    0.75
   1   6  -9    4.71    0.80
   1   6  -9    3.64    0.69
  -1  -6   9    4.76    1.05
  -1  -6   9    5.57    0.84
  -1  -6   9    4.60    0.65
  -1  -6   9    4.19    0.85
   0   6  -9    1.63    0.52
   0   6  -9    1.85    0.51
   0   6  -9    1.33    0.40
   0  -6   9    1.97    0.76
   0  -6   9    1.50    0.42
   0  -6   9    1.95    0.49
   0  -6   9    1.99    0.63
  -1   6  -9    0.53    0.34
  -1   6  -9    0.03    0.21
  -1   6  -9    1.05    0.41
   1  -6   9    0.33    0.30
   1  -6   9    1.02    0.41
   1  -6   9    0.38    0.40
  -2   6  -9    2.00    0.57
  -2   6  -9    2.15    0.64
   2  -6   9    2.67    0.75
   2  -6   9    1.29    0.45
  -3   6  -9    0.36    0.36
  -3   6  -9    0.71    0.39
   3  -6   9    0.48    0.42
   3  -6   9    0.29    0.31
  -4   6  -9    0.15    0.36
  -4   6  -9   -0.03    0.31
   4  -6   9    0.43    0.35
   4  -6   9    0.24    0.44
  -5   6  -9    1.19    0.47
  -5   6  -9    2.03    0.70
   5  -6   9    1.65    0.69
   5  -6   9    1.87    0.58
  -6   6  -9    6.72    1.20
  -6   6  -9    6.06    1.03
  -6   6  -9    4.08    0.81
   6  -6   9    3.65    0.79
   8   5  -9    1.13    0.48
   8   5  -9    0.96    0.34
  -8  -5   9    2.49    0.82
  -8  -5   9    1.52    0.45
   7   5  -9    0.16    0.30
   7   5  -9    0.44    0.29
  -7  -5   9    0.34    0.45
  -7  -5   9    0.42    0.32
  -7  -5   9    0.16    0.34
   6   5  -9    0.37    0.27
   6   5  -9    0.07    0.26
  -6  -5   9    0.30    0.29
  -6  -5   9    0.27    0.44
  -6  -5   9    0.21    0.31
   5   5  -9    0.50    0.27
   5   5  -9   -0.10    0.22
   5   5  -9    0.46    0.31
  -5  -5   9    0.68    0.37
  -5  -5   9    0.68    0.34
  -5  -5   9    0.27    0.45
   4   5  -9    0.43    0.28
   4   5  -9    0.56    0.29
   4   5  -9   -0.07    0.22
  -4  -5   9   -0.29    0.27
  -4  -5   9    0.31    0.11
  -4  -5   9    0.19    0.30
  -4  -5   9   -0.10    0.26
   3   5  -9    1.62    0.45
   3   5  -9    2.04    0.49
   3   5  -9    1.96    0.50
  -3  -5   9    2.79    0.80
  -3  -5   9    2.24    0.63
  -3  -5   9    1.81    0.35
  -3  -5   9    2.05    0.52
  -3  -5   9    1.18    0.28
   2   5  -9    5.66    0.81
   2   5  -9    4.02    0.64
   2   5  -9    5.20    0.79
  -2  -5   9    5.64    0.80
  -2  -5   9    4.65    1.04
  -2  -5   9    4.34    0.85
  -2  -5   9    5.92    0.67
   1   5  -9   28.49    1.67
   1   5  -9   33.78    1.77
   1   5  -9   32.61    1.76
   1   5  -9   31.50    1.64
  -1  -5   9   31.63    1.55
  -1  -5   9   33.32    1.78
  -1  -5   9   30.94    2.12
  -1  -5   9   32.29    1.62
  -1  -5   9   32.49    2.02
   0   5  -9   97.99    3.78
   0   5  -9   97.45    3.55
   0   5  -9   92.68    3.93
   0   5  -9  102.27    3.82
   0  -5   9  100.90    3.66
   0  -5   9   98.94    3.58
   0  -5   9   92.49    4.35
   0  -5   9   96.01    4.18
  -1   5  -9    8.68    0.94
  -1   5  -9    7.80    1.01
  -1   5  -9    8.72    1.04
  -1   5  -9    9.76    1.12
   1  -5   9    8.18    1.22
   1  -5   9    8.39    1.02
   1  -5   9    7.99    0.96
  -2   5  -9    4.14    0.64
  -2   5  -9    3.41    0.73
  -2   5  -9    3.63    0.74
   2  -5   9    4.26    0.89
   2  -5   9    4.55    0.75
  -3   5  -9    8.95    1.21
  -3   5  -9    9.01    1.09
   3  -5   9    8.21    1.25
   3  -5   9    7.12    0.97
  -4   5  -9   10.66    1.34
  -4   5  -9   10.89    1.28
   4  -5   9   10.44    1.43
   4  -5   9   13.21    1.43
  -5   5  -9    3.86    0.86
  -5   5  -9    2.84    0.67
   5  -5   9    3.05    0.85
   5  -5   9    2.82    0.70
  -6   5  -9    0.28    0.39
  -6   5  -9    0.34    0.33
  -6   5  -9    0.10    0.34
   6  -5   9    0.61    0.47
  -7   5  -9    0.08    0.41
  -7   5  -9    0.17    0.33
  -7   5  -9   -0.06    0.28
   7  -5   9    0.16    0.41
   8   4  -9    5.94    0.93
   8   4  -9    6.22    0.80
  -8  -4   9    5.32    0.77
  -8  -4   9    6.80    1.23
   7   4  -9    0.65    0.32
   7   4  -9    0.25    0.31
  -7  -4   9    1.22    0.43
  -7  -4   9    0.98    0.55
  -7  -4   9    1.23    0.45
   6   4  -9    3.46    0.66
   6   4  -9    2.83    0.54
   6   4  -9    2.98    0.60
  -6  -4   9    2.60    0.71
  -6  -4   9    2.18    0.52
  -6  -4   9    2.49    0.63
   5   4  -9   -0.07    0.19
   5   4  -9   -0.15    0.20
   5   4  -9    0.06    0.19
  -5  -4   9    0.05    0.20
  -5  -4   9    0.24    0.40
  -5  -4   9   -0.04    0.26
   4   4  -9    0.64    0.33
   4   4  -9    1.25    0.40
   4   4  -9    0.85    0.37
  -4  -4   9    1.69    0.47
  -4  -4   9    1.27    0.50
  -4  -4   9    1.99    0.69
  -4  -4   9    1.90    0.32
  -4  -4   9    1.66    0.30
   3   4  -9    0.97    0.37
   3   4  -9    0.75    0.34
   3   4  -9    0.62    0.30
  -3  -4   9    0.27    0.31
  -3  -4   9    0.43    0.45
  -3  -4   9    0.16    0.17
  -3  -4   9    0.72    0.25
  -3  -4   9    0.66    0.32
   2   4  -9    0.65    0.29
   2   4  -9    1.43    0.40
   2   4  -9    1.37    0.42
  -2  -4   9    0.36    0.36
  -2  -4   9    0.77    0.26
  -2  -4   9    1.39    0.54
  -2  -4   9    1.41    0.38
  -2  -4   9    1.43    0.44
   1   4  -9   11.70    1.18
   1   4  -9   14.96    1.12
   1   4  -9   12.50    1.17
   1   4  -9   14.00    0.98
  -1  -4   9   16.86    1.67
  -1  -4   9   14.51    1.30
  -1  -4   9   15.41    1.67
  -1  -4   9   14.66    1.01
  -1  -4   9   13.85    0.96
   0   4  -9   45.34    1.95
   0   4  -9   41.19    2.17
   0   4  -9   42.44    2.10
   0   4  -9   49.15    2.19
   0   4  -9   43.67    2.13
   0  -4   9   47.43    2.11
   0  -4   9   44.30    2.04
   0  -4   9   39.82    2.36
  -1   4  -9    0.81    0.36
  -1   4  -9    1.32    0.37
  -1   4  -9    0.88    0.37
  -1   4  -9    1.04    0.41
   1  -4   9    0.91    0.34
   1  -4   9    0.29    0.34
   1  -4   9    0.80    0.36
  -2   4  -9    5.17    0.81
  -2   4  -9    4.71    0.83
  -2   4  -9    7.90    0.82
   2  -4   9    7.94    1.20
   2  -4   9    7.75    0.95
  -3   4  -9   21.14    1.51
  -3   4  -9   19.14    1.35
   3  -4   9   17.53    1.30
   3  -4   9   17.82    1.84
  -4   4  -9   19.08    1.51
  -4   4  -9   21.39    1.46
   4  -4   9   20.47    1.96
   4  -4   9   18.58    1.41
  -5   4  -9    9.96    1.16
  -5   4  -9    8.20    1.19
  -5   4  -9    9.44    1.19
   5  -4   9    9.37    1.21
  -6   4  -9    3.55    0.74
  -6   4  -9    3.32    0.82
   6  -4   9    2.81    0.71
  -7   4  -9    0.04    0.28
  -7   4  -9    0.49    0.38
  -7   4  -9    0.89    0.57
   7  -4   9    0.57    0.46
   9   3  -9    4.21    0.69
  -9  -3   9    3.24    0.88
  -9  -3   9    3.20    0.65
   8   3  -9    0.06    0.24
  -8  -3   9    0.34    0.38
  -8  -3   9   -0.09    0.39
  -8  -3   9   -0.23    0.19
   7   3  -9    0.48    0.32
   7   3  -9    0.53    0.27
  -7  -3   9    1.22    0.46
  -7  -3   9    1.14    0.56
  -7  -3   9    0.44    0.31
   6   3  -9   12.88    1.23
   6   3  -9   11.81    1.09
   6   3  -9   14.40    1.05
  -6  -3   9   14.43    1.28
  -6  -3   9   12.01    1.42
  -6  -3   9   10.67    1.30
   5   3  -9   23.42    1.40
   5   3  -9   24.64    1.43
   5   3  -9   23.93    1.37
  -5  -3   9   23.75    1.65
  -5  -3   9   28.02    1.52
  -5  -3   9   23.17    0.97
   4   3  -9   23.71    1.36
   4   3  -9   21.50    1.31
   4   3  -9   19.41    1.23
  -4  -3   9   22.92    1.11
  -4  -3   9   23.09    1.63
  -4  -3   9   24.02    1.64
  -4  -3   9   22.26    1.36
  -4  -3   9   19.55    1.04
   3   3  -9    4.31    0.67
   3   3  -9    4.92    0.73
   3   3  -9    6.15    0.74
  -3  -3   9    4.63    0.61
  -3  -3   9    3.49    0.64
  -3  -3   9    4.73    0.86
  -3  -3   9    4.10    0.85
   2   3  -9    2.88    0.57
   2   3  -9    1.47    0.42
   2   3  -9    1.69    0.41
  -2  -3   9    2.14    0.42
  -2  -3   9    1.62    0.45
  -2  -3   9    3.16    0.55
  -2  -3   9    1.61    0.56
  -2  -3   9    2.94    0.68
   1   3  -9    6.44    0.83
   1   3  -9    5.21    0.76
   1   3  -9    5.54    0.67
   1   3  -9    5.00    0.77
  -1  -3   9    6.06    0.75
  -1  -3   9    5.97    1.03
  -1  -3   9    6.51    0.82
  -1  -3   9    5.54    0.82
  -1  -3   9    4.91    0.91
   0   3  -9    1.55    0.43
   0   3  -9    1.71    0.46
   0   3  -9    1.14    0.32
   0   3  -9    1.71    0.50
   0  -3   9    2.23    0.52
   0  -3   9    1.87    0.45
   0  -3   9    2.57    0.67
   0  -3   9    2.46    0.65
  -1   3  -9   34.56    1.84
  -1   3  -9   34.44    1.82
  -1   3  -9   36.84    1.98
  -1   3  -9   38.01    1.63
   1  -3   9   33.70    2.14
   1  -3   9   38.01    1.84
   1  -3   9   34.01    2.20
  -2   3  -9    1.79    0.50
  -2   3  -9    1.14    0.31
  -2   3  -9    1.98    0.53
   2  -3   9    1.54    0.48
   2  -3   9    1.08    0.49
   2  -3   9    1.72    0.64
  -3   3  -9    0.23    0.30
  -3   3  -9    0.14    0.30
   3  -3   9   -0.34    0.26
   3  -3   9    0.13    0.26
   3  -3   9    0.17    0.39
  -4   3  -9   -0.35    0.19
  -4   3  -9    0.06    0.25
  -4   3  -9   -0.26    0.19
   4  -3   9    0.44    0.45
   4  -3   9    0.41    0.29
  -5   3  -9    0.09    0.30
  -5   3  -9    0.26    0.36
  -5   3  -9    0.00    0.29
   5  -3   9    0.31    0.31
  -6   3  -9    0.64    0.40
  -6   3  -9    0.06    0.35
   6  -3   9    0.36    0.37
   6  -3   9    0.24    0.30
  -7   3  -9    0.16    0.27
  -7   3  -9    0.10    0.37
  -7   3  -9    0.08    0.30
   7  -3   9    0.66    0.50
   7  -3   9    0.52    0.46
   9   2  -9    0.90    0.35
  -9  -2   9    1.39    0.55
  -9  -2   9    1.26    0.47
   8   2  -9   11.45    1.12
  -8  -2   9   11.53    1.18
  -8  -2   9   10.77    1.35
  -8  -2   9   11.33    1.36
   7   2  -9   13.90    1.04
   7   2  -9   13.63    1.28
  -7  -2   9   12.92    1.43
  -7  -2   9   15.42    1.13
  -7  -2   9   13.60    1.47
   6   2  -9    8.33    0.96
   6   2  -9    9.75    1.01
  -6  -2   9    8.92    1.20
  -6  -2   9    9.18    1.19
  -6  -2   9    8.89    1.00
  -6  -2   9    8.72    0.43
   5   2  -9    3.91    0.66
   5   2  -9    3.37    0.59
  -5  -2   9    3.53    0.45
  -5  -2   9    3.59    0.45
  -5  -2   9    2.91    0.61
  -5  -2   9    3.68    0.78
  -5  -2   9    3.99    0.81
   4   2  -9    1.50    0.42
   4   2  -9    1.54    0.41
   4   2  -9    1.69    0.42
  -4  -2   9    1.96    0.57
  -4  -2   9    0.93    0.45
  -4  -2   9    1.44    0.34
  -4  -2   9    1.72    0.45
   3   2  -9    0.31    0.22
   3   2  -9   -0.07    0.17
   3   2  -9   -0.03    0.17
  -3  -2   9   -0.38    0.20
  -3  -2   9   -0.14    0.15
  -3  -2   9    0.00    0.24
  -3  -2   9    0.01    0.16
  -3  -2   9    0.23    0.24
  -3  -2   9    0.01    0.20
   2   2  -9    2.13    0.48
   2   2  -9    3.85    0.57
   2   2  -9    1.58    0.42
  -2  -2   9    2.28    0.60
  -2  -2   9    3.16    0.56
  -2  -2   9    2.28    0.60
  -2  -2   9    2.58    0.55
  -2  -2   9    2.30    0.44
  -2  -2   9    2.80    0.68
   1   2  -9    0.37    0.25
   1   2  -9   -0.01    0.16
   1   2  -9    0.02    0.20
  -1  -2   9    0.19    0.26
  -1  -2   9   -0.02    0.30
  -1  -2   9    0.31    0.26
  -1  -2   9    0.03    0.18
  -1  -2   9    0.27    0.32
  -1  -2   9    0.27    0.32
   0   2  -9   65.71    2.67
   0   2  -9   61.68    2.30
   0  -2   9   63.93    2.63
   0  -2   9   61.10    3.03
   0  -2   9   58.89    2.53
   0  -2   9   65.95    3.13
  -1   2  -9  192.56    6.42
  -1   2  -9  199.50    5.93
  -1   2  -9  197.41    6.44
  -1   2  -9  195.65    6.72
   1  -2   9  196.20    6.40
   1  -2   9  187.21    7.15
   1  -2   9  205.00    7.16
  -2   2  -9   25.98    1.63
  -2   2  -9   24.22    1.47
  -2   2  -9   26.16    1.21
   2  -2   9   29.03    1.90
   2  -2   9   21.62    2.15
   2  -2   9   25.56    1.51
  -3   2  -9   15.66    1.49
  -3   2  -9   16.37    1.20
  -3   2  -9   19.05    1.29
   3  -2   9   14.78    1.76
   3  -2   9   17.05    1.24
   3  -2   9   17.90    1.78
   3  -2   9   15.89    1.20
  -4   2  -9   16.66    1.18
  -4   2  -9   14.84    1.51
  -4   2  -9   13.98    1.36
   4  -2   9   17.10    1.25
   4  -2   9   14.83    1.84
   4  -2   9   17.32    1.77
   4  -2   9   17.45    1.27
  -5   2  -9   11.92    1.38
  -5   2  -9   13.16    1.26
   5  -2   9   13.89    1.39
   5  -2   9   16.32    2.06
   5  -2   9   12.61    1.34
  -6   2  -9    5.69    0.99
  -6   2  -9    7.51    0.96
  -6   2  -9    8.80    1.03
   6  -2   9    3.37    1.03
   6  -2   9    5.96    0.97
   6  -2   9    6.21    0.99
  -7   2  -9    2.38    0.50
  -7   2  -9    2.90    0.61
  -7   2  -9    3.60    0.85
   7  -2   9    1.55    0.56
   7  -2   9    1.45    0.55
   9   1  -9   13.86    1.32
  -9  -1   9   11.36    1.42
  -9  -1   9   15.55    1.43
   8   1  -9   21.05    1.38
   8   1  -9   23.66    1.48
  -8  -1   9   24.08    1.65
  -8  -1   9   22.85    1.49
  -8  -1   9   24.73    1.76
   7   1  -9   11.81    1.17
   7   1  -9   15.43    1.37
  -7  -1   9   15.65    1.54
  -7  -1   9   15.39    1.35
  -7  -1   9   11.35    1.43
   6   1  -9    2.87    0.59
   6   1  -9    4.00    0.68
  -6  -1   9    4.22    0.84
  -6  -1   9    3.72    0.46
  -6  -1   9    4.56    0.74
  -6  -1   9    2.79    0.63
   5   1  -9   10.68    1.05
   5   1  -9    8.32    0.92
  -5  -1   9    8.79    1.21
  -5  -1   9    8.79    0.99
  -5  -1   9   10.04    0.74
  -5  -1   9   10.38    1.16
   4   1  -9    9.55    0.99
   4   1  -9    8.12    0.92
  -4  -1   9    8.32    0.80
  -4  -1   9    9.64    1.25
  -4  -1   9    7.48    0.89
  -4  -1   9    8.39    1.03
  -4  -1   9    9.27    0.82
  -4  -1   9    6.96    0.90
   3   1  -9    1.85    0.45
   3   1  -9    2.46    0.46
   3   1  -9    2.60    0.54
  -3  -1   9    2.53    0.56
  -3  -1   9    1.86    0.41
  -3  -1   9    3.26    0.74
  -3  -1   9    1.77    0.50
  -3  -1   9    1.89    0.53
  -3  -1   9    2.14    0.45
   2   1  -9    3.30    0.59
   2   1  -9    5.31    0.73
   2   1  -9    4.38    0.57
  -2  -1   9    5.92    0.77
  -2  -1   9    4.31    0.87
  -2  -1   9    5.51    0.67
  -2  -1   9    5.02    0.91
  -2  -1   9    3.71    0.63
  -2  -1   9    4.13    0.73
   1   1  -9   10.34    0.72
   1   1  -9   10.86    1.10
   1   1  -9    8.56    0.96
  -1  -1   9    8.77    0.94
  -1  -1   9   10.56    1.30
  -1  -1   9   11.19    1.04
  -1  -1   9   12.05    1.36
   0   1  -9    3.81    0.64
   0   1  -9    2.66    0.55
   0   1  -9    3.44    0.45
   0  -1   9    2.06    0.47
   0  -1   9    1.95    0.64
   0  -1   9    4.27    0.85
  -1   1  -9    4.31    0.68
  -1   1  -9    4.51    0.51
   1  -1   9    4.29    0.67
   1  -1   9    4.93    0.72
   1  -1   9    4.71    0.86
   1  -1   9    7.02    1.16
  -2   1  -9    5.14    0.77
  -2   1  -9    4.50    0.71
   2  -1   9    2.36    0.54
   2  -1   9    3.05    0.84
   2  -1   9    3.18    0.76
   2  -1   9    4.97    0.73
  -3   1  -9    0.80    0.33
  -3   1  -9    0.57    0.34
  -3   1  -9    0.84    0.39
   3  -1   9    0.63    0.43
   3  -1   9    0.49    0.32
   3  -1   9    1.25    0.42
   3  -1   9    1.86    0.69
  -4   1  -9    1.99    0.50
  -4   1  -9    2.05    0.55
  -4   1  -9    2.07    0.53
   4  -1   9    1.88    0.53
   4  -1   9    1.76    0.53
   4  -1   9    2.23    0.82
  -5   1  -9    4.59    0.74
  -5   1  -9    5.98    0.97
   5  -1   9    5.47    0.88
   5  -1   9    3.92    0.73
   5  -1   9    4.19    1.16
  -6   1  -9    3.17    0.57
  -6   1  -9    2.50    0.51
  -6   1  -9    3.82    0.83
   6  -1   9    2.50    0.62
   6  -1   9    3.02    0.94
   6  -1   9    2.99    0.66
  -7   1  -9    4.05    0.52
  -7   1  -9    3.35    0.82
  -7   1  -9    4.93    0.68
   7  -1   9    3.99    0.83
   7  -1   9    4.77    1.28
   7  -1   9    4.52    0.87
  10   0  -9    0.89    0.40
  10   0  -9    0.82    0.41
 -10   0   9    0.25    0.43
 -10   0   9    1.09    0.47
   9   0  -9    0.71    0.37
   9   0  -9    0.56    0.37
   9   0  -9    0.40    0.31
  -9   0   9    0.49    0.49
  -9   0   9    0.85    0.48
   8   0  -9    1.05    0.42
   8   0  -9    0.52    0.32
   8   0  -9    1.18    0.43
  -8   0   9    1.73    0.52
  -8   0   9    1.33    0.59
   7   0  -9    0.80    0.37
   7   0  -9    1.37    0.43
   7   0  -9    1.33    0.44
  -7   0   9    1.16    0.28
  -7   0   9    0.16    0.38
  -7   0   9    1.30    0.45
  -7   0   9    0.88    0.38
   6   0  -9    1.10    0.38
   6   0  -9    1.35    0.43
  -6   0   9    1.11    0.52
  -6   0   9    1.73    0.51
  -6   0   9    1.15    0.41
  -6   0   9    1.59    0.36
   5   0  -9   -0.11    0.17
   5   0  -9    0.30    0.26
  -5   0   9   -0.16    0.18
  -5   0   9    0.15    0.34
  -5   0   9    0.05    0.22
  -5   0   9    0.05    0.23
   4   0  -9    0.70    0.31
   4   0  -9    1.09    0.37
  -4   0   9    0.64    0.34
  -4   0   9    1.67    0.45
  -4   0   9    1.31    0.36
  -4   0   9    0.56    0.37
  -4   0   9    0.89    0.31
  -4   0   9    1.27    0.51
   3   0  -9   51.26    2.23
   3   0  -9   48.63    2.21
  -3   0   9   48.26    2.43
  -3   0   9   46.38    2.20
  -3   0   9   48.06    2.59
  -3   0   9   52.84    2.25
  -3   0   9   48.53    2.13
  -3   0   9   45.85    2.03
   2   0  -9   15.02    1.07
   2   0  -9   13.42    1.02
   2   0  -9   15.52    0.89
  -2   0   9   14.38    1.00
  -2   0   9   13.75    1.48
  -2   0   9   14.68    1.04
  -2   0   9   14.69    1.08
  -2   0   9   14.44    1.56
  -2   0   9   15.99    1.13
   1   0  -9    4.72    0.51
   1   0  -9    2.69    0.54
   1   0  -9    4.60    0.71
  -1   0   9    3.67    0.80
  -1   0   9    4.45    0.66
  -1   0   9    3.60    0.81
  -1   0   9    4.41    0.67
   0   0  -9    5.37    0.77
   0   0  -9    7.37    0.53
   0   0   9    7.87    0.89
   0   0   9    6.09    1.02
   0   0   9    6.24    1.07
   0   0   9    5.67    0.74
  -1   0  -9   10.73    1.06
  -1   0  -9   11.16    1.15
   1   0   9    9.14    1.02
   1   0   9   10.31    1.09
   1   0   9    9.73    1.29
   1   0   9   10.42    1.44
  -2   0  -9   74.08    2.89
  -2   0  -9   73.36    2.83
  -2   0  -9   70.00    2.81
   2   0   9   64.31    3.45
   2   0   9   67.08    2.84
   2   0   9   64.59    3.23
   2   0   9   67.01    2.83
  -3   0  -9    3.02    0.58
  -3   0  -9    2.39    0.53
  -3   0  -9    2.72    0.58
   3   0   9    2.43    0.58
   3   0   9    3.70    0.65
   3   0   9    2.07    0.75
  -4   0  -9    5.75    0.89
  -4   0  -9    4.19    0.75
  -4   0  -9    4.64    0.72
   4   0   9    3.40    0.68
   4   0   9    4.05    1.04
   4   0   9    5.02    0.79
  -5   0  -9    3.61    0.71
  -5   0  -9    3.15    0.72
  -5   0  -9    3.38    0.62
   5   0   9    4.46    0.80
   5   0   9    4.21    0.78
   5   0   9    4.15    1.08
  -6   0  -9    4.02    0.80
  -6   0  -9    3.03    0.71
  -6   0  -9    3.04    0.52
  -6   0  -9    2.60    0.45
   6   0   9    2.58    0.66
   6   0   9    1.29    0.74
   6   0   9    2.72    0.66
  -7   0  -9   -0.12    0.29
  -7   0  -9   -0.24    0.32
  -7   0  -9   -0.02    0.18
   7   0   9   -0.21    0.22
   7   0   9    0.01    0.57
   7   0   9    0.03    0.34
  10  -1  -9    2.02    0.65
  10  -1  -9    1.32    0.46
 -10   1   9    1.72    0.61
 -10   1   9    1.80    0.67
   9  -1  -9    3.82    0.77
   9  -1  -9    4.12    0.79
  -9   1   9    4.65    1.01
  -9   1   9    3.00    0.72
   8  -1  -9    6.77    0.91
   8  -1  -9    6.71    0.95
   8  -1  -9    3.41    0.72
  -8   1   9    4.79    0.54
  -8   1   9    6.69    0.96
  -8   1   9    5.98    0.59
  -8   1   9    6.12    1.12
   7  -1  -9   12.65    1.27
   7  -1  -9   13.37    1.32
   7  -1  -9   12.07    1.24
  -7   1   9   11.88    1.49
  -7   1   9   13.71    1.35
  -7   1   9   14.03    0.90
   6  -1  -9   13.05    1.29
   6  -1  -9   16.10    1.16
   6  -1  -9   15.11    1.12
  -6   1   9   14.47    1.67
  -6   1   9   14.65    0.99
  -6   1   9   13.02    1.30
   5  -1  -9   10.54    1.10
   5  -1  -9   11.91    1.15
  -5   1   9   10.27    1.34
  -5   1   9   14.18    1.31
  -5   1   9   10.65    0.98
  -5   1   9   12.40    0.91
   4  -1  -9   23.56    1.41
   4  -1  -9   25.97    1.47
  -4   1   9   20.53    1.38
  -4   1   9   27.04    1.42
  -4   1   9   26.29    1.47
  -4   1   9   18.59    1.41
  -4   1   9   25.22    1.78
  -4   1   9   24.80    1.33
   3  -1  -9   13.96    1.03
   3  -1  -9   10.91    1.12
  -3   1   9   13.64    0.98
  -3   1   9   13.92    1.54
  -3   1   9   17.53    1.63
  -3   1   9   14.83    0.96
  -3   1   9   13.60    1.22
  -3   1   9   14.31    1.02
   2  -1  -9    0.01    0.24
   2  -1  -9    0.10    0.21
  -2   1   9    0.21    0.23
  -2   1   9   -0.37    0.24
  -2   1   9    0.07    0.22
  -2   1   9    0.18    0.33
  -2   1   9    0.13    0.19
   1  -1  -9   -0.01    0.20
   1  -1  -9    0.11    0.14
  -1   1   9    0.04    0.34
  -1   1   9   -0.05    0.27
  -1   1   9    0.00    0.21
   0  -1  -9   -0.04    0.20
   0  -1  -9    0.25    0.25
   0   1   9    0.30    0.28
   0   1   9   -0.03    0.17
   0   1   9   -0.23    0.29
   0   1   9    0.11    0.33
  -1  -1  -9   27.36    1.50
  -1  -1  -9   29.58    1.58
   1   1   9   27.42    1.56
   1   1   9   25.40    1.94
   1   1   9   25.52    1.82
   1   1   9   26.05    1.52
  -2  -1  -9   52.29    2.24
  -2  -1  -9   52.27    2.31
  -2  -1  -9   49.80    2.23
  -2  -1  -9   53.88    2.40
   2   1   9   46.79    2.89
   2   1   9   49.00    2.67
   2   1   9   50.83    2.34
   2   1   9   49.07    2.29
  -3  -1  -9   11.59    1.10
  -3  -1  -9   14.69    1.02
  -3  -1  -9   18.18    1.23
  -3  -1  -9   19.07    1.30
   3   1   9    9.67    1.51
   3   1   9   13.04    1.28
   3   1   9   12.26    1.21
  -4  -1  -9   20.88    1.27
  -4  -1  -9   17.81    1.70
  -4  -1  -9   18.48    1.36
   4   1   9   17.83    2.18
   4   1   9   19.80    1.36
   4   1   9   19.46    1.36
  -5  -1  -9   15.41    1.04
  -5  -1  -9   18.26    1.41
  -5  -1  -9   16.15    1.53
   5   1   9   14.15    1.92
   5   1   9   17.55    1.56
   5   1   9   14.16    1.40
  -6  -1  -9    8.30    0.78
  -6  -1  -9    8.70    1.16
  -6  -1  -9    9.05    1.16
   6   1   9    8.20    1.10
   6   1   9    7.90    1.46
   6   1   9   10.28    1.19
  -7  -1  -9    4.43    0.94
  -7  -1  -9    2.36    0.67
   7   1   9    2.85    0.74
   7   1   9    2.64    0.65
   7   1   9    3.44    1.22
  10  -2  -9    0.44    0.35
  10  -2  -9    0.03    0.32
 -10   2   9    0.17    0.47
 -10   2   9    0.48    0.42
   9  -2  -9    0.89    0.48
   9  -2  -9    0.94    0.45
  -9   2   9    0.72    0.43
  -9   2   9    0.99    0.28
  -9   2   9    1.12    0.28
  -9   2   9    1.72    0.69
   8  -2  -9    5.99    0.94
   8  -2  -9    4.05    0.76
  -8   2   9    5.11    1.04
  -8   2   9    5.80    0.92
  -8   2   9    5.47    0.68
   7  -2  -9   14.47    1.46
   7  -2  -9   16.51    1.23
  -7   2   9   16.15    1.07
  -7   2   9   15.93    1.51
  -7   2   9   14.50    1.71
   6  -2  -9    3.71    0.68
   6  -2  -9    3.73    0.70
   6  -2  -9    3.80    0.70
  -6   2   9    4.70    0.70
  -6   2   9    3.59    0.67
  -6   2   9    2.45    0.52
  -6   2   9    4.61    0.97
   5  -2  -9   15.62    1.17
   5  -2  -9   18.21    1.23
   5  -2  -9   15.04    1.15
  -5   2   9   17.44    1.17
  -5   2   9   15.73    1.72
  -5   2   9   16.43    1.07
  -5   2   9   14.96    1.42
  -5   2   9   17.73    1.30
   4  -2  -9   16.59    1.18
   4  -2  -9   15.35    1.14
  -4   2   9   15.05    1.10
  -4   2   9   17.85    1.79
  -4   2   9   16.63    1.61
  -4   2   9   16.30    1.11
   3  -2  -9    9.41    1.06
   3  -2  -9   12.99    1.23
  -3   2   9   10.97    1.34
  -3   2   9   12.09    1.47
  -3   2   9   11.79    1.13
  -3   2   9   10.13    1.03
   2  -2  -9   16.09    1.15
  -2   2   9   15.49    1.10
  -2   2   9   17.22    1.77
  -2   2   9   18.61    1.80
   1  -2  -9    5.40    0.79
   1  -2  -9    4.67    0.73
  -1   2   9    5.13    0.96
  -1   2   9    6.18    0.81
  -1   2   9    4.50    0.91
  -1   2   9    4.76    0.72
   0  -2  -9    6.45    0.83
   0  -2  -9    4.71    0.73
   0   2   9    5.17    0.77
   0   2   9    6.87    1.19
   0   2   9    5.58    0.78
   0   2   9    6.68    1.08
  -1  -2  -9    1.76    0.46
  -1  -2  -9    2.23    0.60
  -1  -2  -9    2.14    0.52
   1   2   9    1.17    0.43
   1   2   9    2.20    0.51
   1   2   9    2.02    0.62
   1   2   9    0.78    0.53
  -2  -2  -9    2.83    0.61
  -2  -2  -9    4.12    0.67
  -2  -2  -9    3.73    0.63
  -2  -2  -9    3.14    0.57
   2   2   9    2.34    0.56
   2   2   9    4.14    0.66
   2   2   9    3.30    0.90
  -3  -2  -9   32.00    1.62
  -3  -2  -9   34.35    1.85
  -3  -2  -9   29.36    1.80
   3   2   9   28.07    1.69
   3   2   9   30.72    2.34
   3   2   9   32.53    1.77
  -4  -2  -9    0.07    0.27
  -4  -2  -9    0.15    0.34
  -4  -2  -9    0.08    0.21
   4   2   9   -0.13    0.43
   4   2   9    0.48    0.33
   4   2   9    0.04    0.27
  -5  -2  -9    0.10    0.19
  -5  -2  -9    0.23    0.31
  -5  -2  -9    0.05    0.13
  -5  -2  -9    0.21    0.31
  -5  -2  -9    0.14    0.14
   5   2   9   -0.25    0.23
   5   2   9    0.01    0.43
   5   2   9   -0.14    0.27
  -6  -2  -9    0.27    0.15
  -6  -2  -9    0.24    0.14
  -6  -2  -9    0.78    0.43
  -6  -2  -9    0.44    0.36
   6   2   9    0.22    0.62
   6   2   9    0.27    0.32
   6   2   9   -0.10    0.26
  10  -3  -9    4.45    0.94
  10  -3  -9    6.76    1.12
 -10   3   9    6.16    1.21
 -10   3   9    4.46    0.54
   9  -3  -9    1.49    0.52
   9  -3  -9    3.38    0.83
  -9   3   9    2.66    0.51
  -9   3   9    1.26    0.60
   8  -3  -9    6.08    1.03
   8  -3  -9    7.91    1.11
  -8   3   9    5.80    0.79
  -8   3   9    4.98    1.10
   7  -3  -9    5.11    0.85
   7  -3  -9    5.81    0.91
  -7   3   9    5.69    0.79
  -7   3   9    6.47    1.19
   6  -3  -9   13.29    1.32
   6  -3  -9   13.97    1.40
   6  -3  -9   12.24    1.28
  -6   3   9   13.85    1.23
  -6   3   9   12.20    1.56
  -6   3   9   13.94    1.27
   5  -3  -9   20.53    1.42
   5  -3  -9   22.76    1.46
   5  -3  -9   21.83    1.44
  -5   3   9   21.96    1.34
  -5   3   9   23.21    1.80
  -5   3   9   21.75    1.38
  -5   3   9   21.87    1.60
   4  -3  -9    0.70    0.34
   4  -3  -9    0.38    0.31
  -4   3   9    0.65    0.36
  -4   3   9    0.53    0.41
  -4   3   9    0.67    0.44
  -4   3   9    1.09    0.42
   3  -3  -9    2.20    0.53
  -3   3   9    2.01    0.66
  -3   3   9    1.69    0.50
  -3   3   9    3.52    0.81
   2  -3  -9    0.35    0.30
  -2   3   9    0.59    0.34
  -2   3   9   -0.06    0.33
  -2   3   9    1.08    0.53
   1  -3  -9    0.68    0.35
   1  -3  -9    0.94    0.39
  -1   3   9    0.93    0.51
  -1   3   9    0.65    0.30
  -1   3   9    0.68    0.44
  -1   3   9    0.66    0.36
   0  -3  -9    1.53    0.42
   0  -3  -9    2.46    0.56
   0   3   9    1.42    0.62
   0   3   9    1.64    0.48
   0   3   9    1.79    0.49
   0   3   9    1.64    0.60
  -1  -3  -9    1.71    0.46
  -1  -3  -9    1.65    0.48
  -1  -3  -9    2.01    0.48
   1   3   9    2.04    0.54
   1   3   9    1.76    0.47
   1   3   9    2.63    0.81
  -2  -3  -9   22.02    1.36
  -2  -3  -9   24.88    1.63
  -2  -3  -9   26.00    1.57
   2   3   9   22.38    1.44
   2   3   9   22.54    1.47
   2   3   9   27.63    2.62
  -3  -3  -9   29.90    1.92
  -3  -3  -9   32.99    1.89
  -3  -3  -9   34.06    1.65
   3   3   9   31.53    2.45
   3   3   9   33.64    1.83
   3   3   9   33.02    1.82
  -4  -3  -9    2.70    0.63
  -4  -3  -9    1.71    0.59
  -4  -3  -9    2.67    0.50
   4   3   9    3.55    0.73
   4   3   9    2.70    0.93
   4   3   9    2.95    0.65
  -5  -3  -9    3.75    0.87
  -5  -3  -9    4.35    0.86
  -5  -3  -9    5.34    0.53
  -5  -3  -9    5.30    0.52
   5   3   9    5.15    0.84
   5   3   9    4.49    0.82
   5   3   9    6.58    1.47
  -6  -3  -9    7.56    1.07
  -6  -3  -9    6.10    1.00
   6   3   9    5.36    0.89
   6   3   9    6.81    1.01
   6   3   9    7.70    1.57
   9  -4  -9    0.74    0.44
   9  -4  -9    0.66    0.47
  -9   4   9    0.74    0.58
  -9   4   9    0.78    0.37
   8  -4  -9   12.45    1.46
   8  -4  -9   12.82    1.46
  -8   4   9   12.41    1.23
  -8   4   9   13.25    1.80
   7  -4  -9   19.79    1.51
   7  -4  -9   21.26    1.54
  -7   4   9   22.62    2.33
  -7   4   9   19.69    1.38
   6  -4  -9   12.64    1.37
  -6   4   9   13.33    1.28
  -6   4   9   16.39    1.87
  -6   4   9   13.38    1.31
   5  -4  -9    0.04    0.28
  -5   4   9   -0.03    0.28
  -5   4   9   -0.18    0.33
  -5   4   9    0.00    0.24
  -5   4   9    0.25    0.26
   4  -4  -9    6.33    0.89
  -4   4   9    6.58    1.07
  -4   4   9    4.32    0.94
  -4   4   9    6.26    0.86
   3  -4  -9   15.72    1.17
  -3   4   9   13.82    1.65
  -3   4   9   15.04    1.72
  -3   4   9   15.38    1.37
   2  -4  -9   15.18    1.38
  -2   4   9   11.59    1.56
  -2   4   9   16.94    1.81
  -2   4   9   16.31    1.45
   1  -4  -9   12.58    1.23
   1  -4  -9   13.17    1.22
  -1   4   9   10.34    1.49
  -1   4   9   11.93    1.52
  -1   4   9    9.60    1.08
  -1   4   9   11.53    1.21
   0  -4  -9    1.52    0.48
   0  -4  -9    1.14    0.40
   0   4   9    1.65    0.48
   0   4   9    2.16    0.69
   0   4   9    1.41    0.45
   0   4   9    2.02    0.70
  -1  -4  -9    0.60    0.30
  -1  -4  -9    0.43    0.34
  -1  -4  -9    0.66    0.31
   1   4   9    0.78    0.37
   1   4   9    0.19    0.47
   1   4   9    0.62    0.35
  -2  -4  -9   19.05    1.24
  -2  -4  -9   23.25    1.65
  -2  -4  -9   22.42    1.49
   2   4   9   21.32    1.42
   2   4   9   19.50    2.21
   2   4   9   20.82    1.39
  -3  -4  -9    5.61    0.98
  -3  -4  -9    7.16    0.78
  -3  -4  -9    6.24    0.93
   3   4   9    7.08    0.99
   3   4   9    6.60    1.35
   3   4   9    5.70    0.88
  -4  -4  -9    0.92    0.49
  -4  -4  -9    1.12    0.28
  -4  -4  -9    1.08    0.29
  -4  -4  -9    1.37    0.54
   4   4   9    0.78    0.64
   4   4   9    1.28    0.44
   4   4   9    0.77    0.42
  -5  -4  -9    0.90    0.54
  -5  -4  -9    0.83    0.55
   5   4   9    1.52    0.52
   5   4   9    0.13    0.55
   5   4   9    1.20    0.50
   9  -5  -9    8.72    1.30
  -9   5   9    8.17    1.03
  -9   5   9    6.88    1.39
   8  -5  -9    0.29    0.37
  -8   5   9    0.05    0.28
  -8   5   9    0.07    0.51
   7  -5  -9    1.38    0.53
  -7   5   9    0.82    0.64
  -7   5   9    0.69    0.38
  -7   5   9    0.65    0.37
   6  -5  -9   11.66    1.33
  -6   5   9   10.85    1.19
  -6   5   9   14.20    1.69
  -6   5   9   13.33    1.77
   5  -5  -9    0.49    0.38
  -5   5   9    0.04    0.35
  -5   5   9    0.63    0.37
  -5   5   9    0.29    0.37
   4  -5  -9    0.62    0.34
  -4   5   9    0.00    0.41
  -4   5   9    0.56    0.34
  -4   5   9    0.61    0.46
   3  -5  -9    2.47    0.57
  -3   5   9    2.22    0.57
  -3   5   9    2.72    0.83
  -3   5   9    5.46    1.10
   2  -5  -9   13.29    1.32
   2  -5  -9   11.54    1.24
  -2   5   9   14.12    1.76
  -2   5   9   13.27    1.70
  -2   5   9   14.46    1.40
   1  -5  -9   19.01    1.34
   1  -5  -9   20.71    1.33
  -1   5   9   18.79    1.36
  -1   5   9   16.80    1.90
  -1   5   9   20.18    2.17
  -1   5   9   22.07    1.45
   0  -5  -9    3.34    0.62
   0  -5  -9    3.00    0.59
   0   5   9    4.08    0.74
   0   5   9    2.01    0.76
   0   5   9    3.44    0.72
  -1  -5  -9    0.21    0.27
  -1  -5  -9    0.16    0.32
  -1  -5  -9    0.85    0.41
   1   5   9    0.14    0.25
   1   5   9    0.39    0.32
   1   5   9    0.22    0.47
  -2  -5  -9    0.29    0.26
  -2  -5  -9    0.17    0.37
  -2  -5  -9   -0.05    0.30
   2   5   9    0.45    0.47
   2   5   9    0.33    0.30
   2   5   9    0.13    0.26
  -3  -5  -9    8.18    1.09
  -3  -5  -9    7.64    0.47
  -3  -5  -9    7.27    0.74
  -3  -5  -9    7.37    1.18
   3   5   9    8.93    1.62
   3   5   9    7.43    1.02
   3   5   9    6.42    0.95
  -4  -5  -9   17.41    0.68
  -4  -5  -9   17.33    0.69
  -4  -5  -9   16.66    1.86
  -4  -5  -9   17.21    1.63
   4   5   9   18.45    1.68
   4   5   9   15.11    2.15
   4   5   9   13.98    1.41
   8  -6  -9    0.20    0.43
  -8   6   9    1.76    0.87
  -8   6   9    0.60    0.43
   7  -6  -9    4.53    0.90
  -7   6   9    6.13    1.32
  -7   6   9    8.26    1.13
  -6   6   9   24.46    1.67
  -6   6   9   27.29    2.01
  -6   6   9   27.60    2.71
   5  -6  -9   25.95    1.75
  -5   6   9   28.65    2.68
  -5   6   9   29.42    1.78
  -5   6   9   27.07    2.08
   4  -6  -9   10.05    1.20
  -4   6   9   10.49    1.61
  -4   6   9   11.62    1.62
  -4   6   9    8.93    1.15
   3  -6  -9    9.21    1.12
  -3   6   9    9.90    1.21
  -3   6   9    8.65    1.41
  -3   6   9   11.52    1.61
   2  -6  -9    6.00    0.94
   2  -6  -9    7.50    1.01
  -2   6   9    5.88    0.93
  -2   6   9    6.86    1.25
  -2   6   9    9.32    1.48
   1  -6  -9    0.54    0.33
   1  -6  -9    1.73    0.53
  -1   6   9    0.36    0.46
  -1   6   9    1.18    0.49
  -1   6   9    0.90    0.41
   0  -6  -9    0.52    0.46
   0  -6  -9    0.14    0.30
   0   6   9    0.33    0.33
   0   6   9    0.29    0.49
   0   6   9   -0.14    0.23
  -1  -6  -9    0.10    0.22
  -1  -6  -9    0.03    0.32
   1   6   9    0.37    0.35
   1   6   9    0.29    0.33
   1   6   9    0.17    0.47
  -2  -6  -9    0.17    0.31
  -2  -6  -9    0.32    0.39
  -2  -6  -9    0.25    0.24
   2   6   9   -0.08    0.29
   2   6   9    0.34    0.29
   2   6   9    0.36    0.52
  -3  -6  -9   19.26    0.94
  -3  -6  -9   19.26    1.75
  -3  -6  -9   18.28    2.04
  -3  -6  -9   18.41    0.94
   3   6   9   19.37    1.74
   3   6   9   17.95    2.36
   3   6   9   17.31    1.59
  -4  -6  -9   19.72    1.81
   4   6   9   19.29    1.45
   8  -7  -9    0.14    0.42
   7  -7  -9    0.82    0.55
  -7   7   9    1.34    0.75
  -7   7   9    0.77    0.47
   6  -7  -9    2.64    0.74
  -6   7   9    3.26    0.77
  -6   7   9    2.33    0.89
  -6   7   9    4.12    1.04
  -5   7   9   19.32    1.78
  -5   7   9   15.82    2.03
  -5   7   9   15.79    1.99
   4  -7  -9    2.99    0.71
  -4   7   9    3.91    1.07
  -4   7   9    3.69    1.03
  -4   7   9    3.63    0.77
   3  -7  -9    0.00    0.31
  -3   7   9    0.36    0.36
  -3   7   9   -0.46    0.31
   2  -7  -9    1.19    0.45
   2  -7  -9    0.58    0.35
  -2   7   9    0.39    0.42
  -2   7   9    0.29    0.53
   1  -7  -9    4.00    0.74
   1  -7  -9    3.51    0.84
  -1   7   9    4.27    1.14
  -1   7   9    3.96    0.83
  -1   7   9    3.70    0.78
   0  -7  -9   13.13    1.26
   0  -7  -9   15.49    1.78
   0   7   9   14.12    2.01
   0   7   9   18.60    1.72
   0   7   9   16.61    1.59
  -1  -7  -9    3.54    0.90
  -1  -7  -9    3.78    0.63
   1   7   9    4.78    0.89
   1   7   9    4.41    0.81
   1   7   9    2.17    0.90
  -2  -7  -9    1.07    0.48
  -2  -7  -9    0.84    0.62
  -2  -7  -9    1.16    0.33
   2   7   9    1.71    0.61
   2   7   9    0.74    0.70
   2   7   9    0.41    0.35
   6  -8  -9    1.41    0.65
  -6   8   9    1.63    0.72
  -6   8   9    1.46    0.57
  -6   8   9    2.34    0.98
   5  -8  -9   -0.17    0.30
  -5   8   9    0.20    0.47
  -5   8   9   -0.08    0.27
  -5   8   9    0.41    0.49
   4  -8  -9    0.02    0.30
  -4   8   9    0.55    0.43
  -4   8   9    0.32    0.48
   3  -8  -9    0.11    0.30
  -3   8   9    0.14    0.49
  -3   8   9    0.19    0.35
   2  -8  -9    0.04    0.30
   2  -8  -9    0.18    0.44
  -2   8   9    1.53    0.81
  -2   8   9    0.31    0.33
   1  -8  -9    0.11    0.39
   1  -8  -9    0.28    0.32
  -1   8   9    0.17    0.58
  -1   8   9    0.08    0.34
   0  -8  -9    0.83    0.36
   0  -8  -9   -0.46    0.33
   0   8   9    1.31    0.52
   0   8   9    0.47    0.47
   0   8   9    0.56    0.71
  -1  -8  -9    2.13    0.46
  -1  -8  -9    2.57    0.90
   1   8   9    2.51    0.68
   1   8   9    0.73    0.69
   1   8   9    2.07    0.66
   3  -9  -9    5.84    0.98
   1   9 -10    4.41    0.89
   1   9 -10    5.48    1.03
   1   9 -10    4.78    0.92
  -1  -9  10    6.84    1.50
  -1  -9  10    3.64    0.89
   0   9 -10   -0.03    0.35
   0   9 -10   -0.02    0.31
   0   9 -10    0.44    0.37
   0  -9  10    0.22    0.43
   0  -9  10    0.30    0.59
  -1   9 -10    0.55    0.41
   1  -9  10    1.33    0.75
   1  -9  10    0.36    0.52
   4   8 -10    0.40    0.32
   4   8 -10    0.47    0.34
   4   8 -10    0.09    0.34
  -4  -8  10    0.02    0.36
  -4  -8  10    0.18    0.55
  -4  -8  10    0.39    0.38
   3   8 -10    0.18    0.33
   3   8 -10   -0.07    0.31
   3   8 -10   -0.06    0.30
  -3  -8  10    0.26    0.41
  -3  -8  10    0.89    0.46
  -3  -8  10   -0.53    0.41
   2   8 -10    4.57    0.87
   2   8 -10    6.00    0.92
   2   8 -10    4.57    0.84
  -2  -8  10    3.73    0.81
  -2  -8  10    4.41    0.95
  -2  -8  10    3.84    1.12
   1   8 -10    7.11    1.06
   1   8 -10    8.80    1.21
   1   8 -10    5.43    0.90
  -1  -8  10    5.20    1.33
  -1  -8  10    8.93    1.39
   0   8 -10    9.82    1.23
   0   8 -10    9.03    1.23
   0   8 -10   12.24    1.39
   0  -8  10    9.78    1.45
   0  -8  10   11.37    1.88
  -1   8 -10   12.60    1.38
  -1   8 -10   11.63    1.40
   1  -8  10   12.30    1.60
   1  -8  10   14.52    2.05
  -2   8 -10    7.25    1.16
   2  -8  10    5.10    1.30
   2  -8  10    5.93    1.14
  -3   8 -10   20.52    2.00
   3  -8  10   19.09    1.75
   3  -8  10   17.57    2.03
   4  -8  10   10.42    1.61
   5   7 -10   17.30    1.30
   5   7 -10   18.95    1.71
  -5  -7  10   16.41    2.07
  -5  -7  10   18.98    1.38
  -5  -7  10   18.76    1.75
   4   7 -10    0.40    0.39
   4   7 -10    0.21    0.35
   4   7 -10    0.38    0.32
   4   7 -10    0.53    0.41
  -4  -7  10    1.19    0.64
  -4  -7  10    0.52    0.37
  -4  -7  10    0.25    0.38
   3   7 -10    0.29    0.32
   3   7 -10   -0.09    0.30
   3   7 -10    0.02    0.26
   3   7 -10    0.42    0.36
  -3  -7  10   -0.10    0.46
  -3  -7  10   -0.06    0.27
  -3  -7  10    0.04    0.13
  -3  -7  10   -0.32    0.28
   2   7 -10    0.10    0.29
   2   7 -10    0.11    0.31
   2   7 -10   -0.08    0.24
  -2  -7  10    0.54    0.40
  -2  -7  10    0.46    0.38
  -2  -7  10    0.07    0.43
   1   7 -10    7.10    0.98
   1   7 -10    4.94    0.89
   1   7 -10    5.53    0.87
  -1  -7  10    6.21    1.08
  -1  -7  10    6.41    1.31
   0   7 -10    7.21    0.98
   0   7 -10    6.99    1.04
   0   7 -10    7.23    1.08
   0  -7  10    5.54    0.84
   0  -7  10    5.29    1.24
   0  -7  10    5.39    1.05
  -1   7 -10    0.27    0.32
  -1   7 -10    0.73    0.44
   1  -7  10    0.41    0.45
   1  -7  10    0.15    0.52
   1  -7  10    0.10    0.28
   1  -7  10    0.47    0.39
  -2   7 -10    0.59    0.41
   2  -7  10    0.26    0.33
   2  -7  10   -0.08    0.40
  -3   7 -10    1.30    0.55
   3  -7  10    1.51    0.52
   3  -7  10    1.77    0.72
  -4   7 -10    1.83    0.68
  -4   7 -10    1.62    0.64
   4  -7  10    1.58    0.72
   4  -7  10    1.38    0.57
  -5   7 -10    2.55    0.73
   5  -7  10    4.34    1.04
   5  -7  10    3.55    0.80
   6   6 -10    0.03    0.23
   6   6 -10    0.28    0.31
  -6  -6  10    0.81    0.42
  -6  -6  10    0.55    0.51
  -6  -6  10    0.78    0.43
   5   6 -10    0.06    0.27
   5   6 -10   -0.22    0.17
   5   6 -10    0.50    0.35
  -5  -6  10    0.21    0.34
  -5  -6  10    0.06    0.43
  -5  -6  10   -0.02    0.28
   4   6 -10    0.03    0.27
   4   6 -10    0.55    0.35
   4   6 -10    0.23    0.33
  -4  -6  10    0.89    0.49
  -4  -6  10    0.10    0.30
  -4  -6  10    0.22    0.49
   3   6 -10   -0.14    0.23
   3   6 -10   -0.22    0.21
   3   6 -10   -0.15    0.19
   3   6 -10    0.24    0.30
  -3  -6  10    0.12    0.29
  -3  -6  10    0.00    0.15
  -3  -6  10    0.23    0.37
  -3  -6  10   -0.12    0.40
   2   6 -10    4.33    0.75
   2   6 -10    2.02    0.54
   2   6 -10    2.43    0.63
   2   6 -10    3.19    0.70
  -2  -6  10    2.68    0.50
  -2  -6  10    2.79    0.75
  -2  -6  10    1.79    0.77
  -2  -6  10    3.56    0.72
   1   6 -10   21.63    1.43
   1   6 -10   26.40    1.67
   1   6 -10   26.15    1.63
  -1  -6  10   24.79    1.43
  -1  -6  10   21.84    2.37
  -1  -6  10   24.60    1.83
   0   6 -10   14.13    1.46
   0   6 -10   14.86    1.34
   0   6 -10   16.89    1.58
   0  -6  10   12.16    1.18
   0  -6  10   15.78    1.94
   0  -6  10   19.92    1.31
   0  -6  10   13.10    1.62
  -1   6 -10   21.07    1.52
  -1   6 -10   18.63    1.30
   1  -6  10   20.82    1.45
   1  -6  10   17.79    2.26
   1  -6  10   21.49    1.41
   1  -6  10   21.90    2.12
  -2   6 -10   12.08    1.40
  -2   6 -10    9.76    1.31
   2  -6  10   11.03    1.21
   2  -6  10    8.19    1.29
  -3   6 -10    2.68    0.72
  -3   6 -10    2.07    0.68
   3  -6  10    2.22    0.74
   3  -6  10    1.87    0.60
  -4   6 -10    4.25    0.84
  -4   6 -10    5.98    1.10
   4  -6  10    5.01    1.12
   4  -6  10    6.45    1.04
  -5   6 -10    2.96    0.73
  -5   6 -10    1.96    0.74
   5  -6  10    2.62    0.81
   5  -6  10    2.62    0.72
   7   5 -10   15.11    1.13
   7   5 -10   14.92    1.50
  -7  -5  10   13.83    1.36
  -7  -5  10   12.95    1.69
  -7  -5  10   11.85    1.30
   6   5 -10    2.73    0.59
   6   5 -10    2.24    0.61
  -6  -5  10    2.97    0.85
  -6  -5  10    3.20    0.73
  -6  -5  10    1.69    0.51
   5   5 -10    3.85    0.68
   5   5 -10    2.83    0.65
   5   5 -10    3.74    0.72
  -5  -5  10    3.75    0.71
  -5  -5  10    4.84    0.91
  -5  -5  10    3.75    0.91
   4   5 -10   14.02    1.29
   4   5 -10   16.92    1.45
   4   5 -10   15.65    1.45
  -4  -5  10   13.78    1.35
  -4  -5  10   16.01    1.66
  -4  -5  10   15.16    0.78
  -4  -5  10   14.99    1.81
   3   5 -10    2.15    0.54
   3   5 -10    2.61    0.57
   3   5 -10    1.21    0.45
  -3  -5  10    2.39    0.44
  -3  -5  10    2.42    0.81
  -3  -5  10    1.48    0.51
  -3  -5  10    1.87    0.61
   2   5 -10    0.09    0.26
   2   5 -10    0.03    0.24
   2   5 -10    0.12    0.25
  -2  -5  10   -0.23    0.22
  -2  -5  10    0.13    0.33
  -2  -5  10    0.19    0.42
  -2  -5  10   -0.01    0.21
   1   5 -10    7.66    1.02
   1   5 -10    7.33    0.99
   1   5 -10    7.03    0.94
   1   5 -10    5.47    0.77
  -1  -5  10    9.23    1.42
  -1  -5  10    5.71    0.77
  -1  -5  10    4.14    0.68
  -1  -5  10    7.96    1.21
   0   5 -10    5.79    0.85
   0   5 -10    4.56    0.82
   0   5 -10    4.59    0.71
   0  -5  10    7.55    0.97
   0  -5  10    3.95    1.02
   0  -5  10    4.64    0.73
   0  -5  10    4.83    1.03
  -1   5 -10    1.80    0.47
  -1   5 -10    1.25    0.46
  -1   5 -10    1.92    0.54
   1  -5  10    2.27    0.69
   1  -5  10    1.28    0.47
   1  -5  10    2.22    0.55
  -2   5 -10    8.69    1.19
  -2   5 -10   10.34    1.05
  -2   5 -10   12.92    1.42
   2  -5  10    9.38    1.15
   2  -5  10   12.75    1.58
  -3   5 -10    5.45    0.94
  -3   5 -10    7.26    1.15
   3  -5  10    5.39    1.10
   3  -5  10    7.23    1.05
  -4   5 -10   21.62    1.56
  -4   5 -10   17.51    1.85
   4  -5  10   16.18    1.60
   4  -5  10   16.46    1.89
  -5   5 -10   11.51    1.49
   5  -5  10   10.15    1.31
  -6   5 -10    9.20    1.42
  -6   5 -10    7.70    1.15
   6  -5  10   10.03    1.36
   8   4 -10    1.50    0.46
   8   4 -10    1.74    0.58
  -8  -4  10    0.88    0.47
  -8  -4  10    1.04    0.44
  -8  -4  10    0.92    0.57
   7   4 -10    0.14    0.31
   7   4 -10    0.34    0.27
  -7  -4  10    0.25    0.29
  -7  -4  10   -0.39    0.37
  -7  -4  10   -0.27    0.26
   6   4 -10    0.97    0.43
   6   4 -10    1.26    0.47
   6   4 -10    1.35    0.44
  -6  -4  10    1.05    0.49
  -6  -4  10    0.62    0.53
  -6  -4  10    1.32    0.46
   5   4 -10   22.01    1.43
   5   4 -10   22.30    1.41
   5   4 -10   22.23    1.44
  -5  -4  10   21.45    1.45
  -5  -4  10   20.64    2.06
  -5  -4  10   25.00    1.75
   4   4 -10   27.11    1.57
   4   4 -10   25.24    1.50
   4   4 -10   23.36    1.51
  -4  -4  10   25.80    1.22
  -4  -4  10   23.81    1.74
  -4  -4  10   28.49    1.65
  -4  -4  10   24.88    2.23
  -4  -4  10   24.54    1.21
   3   4 -10    5.64    0.77
   3   4 -10    6.47    0.89
   3   4 -10    4.86    0.77
  -3  -4  10    5.29    1.08
  -3  -4  10    5.92    1.01
  -3  -4  10    7.65    1.00
  -3  -4  10    5.15    0.65
   2   4 -10    3.38    0.67
   2   4 -10    2.48    0.60
   2   4 -10    2.57    0.53
  -2  -4  10    2.62    0.51
  -2  -4  10    2.23    0.56
  -2  -4  10    3.33    0.86
  -2  -4  10    1.93    0.64
   1   4 -10    9.13    0.97
   1   4 -10    8.72    1.06
   1   4 -10    9.89    1.09
  -1  -4  10   10.25    1.45
  -1  -4  10   10.79    1.41
  -1  -4  10    9.68    1.04
  -1  -4  10   11.03    1.06
   0   4 -10   17.76    1.31
   0   4 -10   16.07    1.47
   0   4 -10   14.48    1.40
   0   4 -10   16.49    1.56
   0   4 -10   15.07    1.05
   0  -4  10   18.77    1.23
   0  -4  10   16.88    1.23
   0  -4  10   13.52    1.73
   0  -4  10   15.95    1.73
  -1   4 -10    6.33    0.95
  -1   4 -10    6.32    0.78
  -1   4 -10    5.39    0.88
   1  -4  10    9.55    1.10
   1  -4  10    5.04    1.00
  -2   4 -10    8.87    1.10
  -2   4 -10    9.41    0.94
  -2   4 -10    6.81    1.06
   2  -4  10    8.91    1.34
   2  -4  10    9.86    1.20
  -3   4 -10    8.39    1.09
  -3   4 -10    7.95    1.14
   3  -4  10    8.83    1.31
   3  -4  10    7.57    1.04
  -4   4 -10   -0.04    0.27
  -4   4 -10   -0.07    0.24
   4  -4  10    0.36    0.40
   4  -4  10   -0.05    0.27
  -5   4 -10    0.21    0.34
  -5   4 -10    0.21    0.38
   5  -4  10    0.45    0.42
  -6   4 -10    3.32    0.87
  -6   4 -10    2.65    0.70
   6  -4  10    3.58    0.85
   8   3 -10    3.97    0.76
   8   3 -10    2.21    0.55
  -8  -3  10    3.82    0.73
  -8  -3  10    3.02    0.77
  -8  -3  10    2.11    0.74
   7   3 -10   10.85    1.13
   7   3 -10   11.20    1.24
   7   3 -10   10.98    1.23
  -7  -3  10   11.34    1.48
  -7  -3  10   10.36    1.34
  -7  -3  10   10.77    1.18
   6   3 -10   37.19    1.95
   6   3 -10   36.23    1.89
   6   3 -10   38.42    1.98
  -6  -3  10   34.64    2.18
  -6  -3  10   37.28    2.24
  -6  -3  10   36.88    1.98
   5   3 -10   12.10    1.26
   5   3 -10   11.44    1.20
   5   3 -10   12.99    1.23
  -5  -3  10   10.41    1.35
  -5  -3  10    9.64    0.65
  -5  -3  10   10.93    1.20
  -5  -3  10   10.31    0.67
  -5  -3  10   10.44    1.37
   4   3 -10    1.70    0.48
   4   3 -10    3.20    0.61
   4   3 -10    1.52    0.46
  -4  -3  10    2.18    0.43
  -4  -3  10    1.89    0.51
  -4  -3  10    2.99    0.72
  -4  -3  10    2.42    0.71
   3   3 -10    6.43    0.86
   3   3 -10    6.74    0.91
   3   3 -10    6.84    0.85
  -3  -3  10    9.92    1.32
  -3  -3  10    7.81    0.83
  -3  -3  10    8.85    1.28
  -3  -3  10    5.56    0.85
   2   3 -10    0.02    0.23
   2   3 -10    0.03    0.19
   2   3 -10    0.02    0.25
  -2  -3  10   -0.12    0.27
  -2  -3  10   -0.16    0.17
  -2  -3  10   -0.20    0.23
  -2  -3  10   -0.13    0.20
  -2  -3  10    0.11    0.31
   1   3 -10    0.16    0.30
   1   3 -10    0.11    0.23
   1   3 -10    0.15    0.21
   1   3 -10    0.01    0.22
  -1  -3  10    0.20    0.37
  -1  -3  10   -0.34    0.19
  -1  -3  10   -0.12    0.27
  -1  -3  10    0.19    0.24
   0   3 -10   24.91    1.58
   0   3 -10   23.70    1.26
   0   3 -10   16.58    1.67
   0   3 -10   22.40    1.44
   0   3 -10   23.14    1.46
   0  -3  10   22.29    1.43
   0  -3  10   20.58    2.00
   0  -3  10   23.66    2.20
   0  -3  10   21.04    1.35
  -1   3 -10   14.09    1.47
  -1   3 -10   16.87    1.54
  -1   3 -10   19.28    1.11
  -1   3 -10   16.91    1.27
   1  -3  10   17.69    1.25
   1  -3  10   17.72    1.82
   1  -3  10   17.92    2.01
  -2   3 -10   13.86    0.96
  -2   3 -10   18.89    1.42
  -2   3 -10   16.60    1.52
   2  -3  10   16.89    1.80
   2  -3  10   18.34    1.30
   2  -3  10   17.33    1.96
  -3   3 -10   25.93    1.61
  -3   3 -10   16.36    1.69
   3  -3  10   25.50    1.60
   3  -3  10   20.11    2.21
   3  -3  10   22.36    2.13
  -4   3 -10   12.74    1.33
  -4   3 -10    8.62    1.25
   4  -3  10   14.54    1.46
   4  -3  10   12.96    1.64
  -5   3 -10   23.23    1.62
  -5   3 -10   24.15    1.59
   5  -3  10   22.14    1.65
  -6   3 -10    6.75    1.14
  -6   3 -10    5.39    0.89
   6  -3  10    5.38    0.99
   9   2 -10    4.14    0.74
  -9  -2  10    6.69    0.97
  -9  -2  10    4.24    0.96
  -9  -2  10    4.82    1.00
   8   2 -10    6.07    0.90
  -8  -2  10    6.54    0.94
  -8  -2  10    6.93    1.15
  -8  -2  10    4.77    1.01
   7   2 -10   14.05    1.36
   7   2 -10   12.90    1.25
  -7  -2  10   16.38    1.65
  -7  -2  10   11.93    1.50
  -7  -2  10   15.41    1.43
   6   2 -10   10.30    1.16
   6   2 -10    7.48    0.96
  -6  -2  10    8.88    0.57
  -6  -2  10    9.14    1.13
  -6  -2  10   10.18    1.28
  -6  -2  10   10.09    1.37
   5   2 -10   11.17    1.11
   5   2 -10   12.49    1.23
   5   2 -10    8.43    0.99
  -5  -2  10   10.34    0.75
  -5  -2  10   10.06    1.38
  -5  -2  10    9.16    1.22
  -5  -2  10   10.68    1.15
   4   2 -10   25.49    1.53
   4   2 -10   25.58    1.45
   4   2 -10   25.41    1.53
  -4  -2  10   25.68    1.87
  -4  -2  10   30.27    1.84
  -4  -2  10   28.02    1.62
  -4  -2  10   26.08    1.37
   3   2 -10   17.52    1.26
   3   2 -10   20.85    1.20
   3   2 -10   20.02    1.33
  -3  -2  10   20.07    1.23
  -3  -2  10   21.69    1.39
  -3  -2  10   19.16    1.77
  -3  -2  10   20.27    1.16
  -3  -2  10   19.56    1.89
  -3  -2  10   19.73    1.44
   2   2 -10    1.38    0.45
   2   2 -10    0.57    0.27
   2   2 -10    0.52    0.30
  -2  -2  10    0.92    0.34
  -2  -2  10    1.29    0.53
  -2  -2  10    1.68    0.60
  -2  -2  10    1.32    0.42
  -2  -2  10    0.80    0.43
  -2  -2  10    1.56    0.48
   1   2 -10    0.50    0.29
   1   2 -10    0.34    0.29
   1   2 -10    0.23    0.20
  -1  -2  10    0.02    0.30
  -1  -2  10    0.07    0.26
  -1  -2  10    0.91    0.49
  -1  -2  10    0.10    0.38
  -1  -2  10    0.28    0.26
   0   2 -10    1.38    0.44
   0   2 -10    2.46    0.44
   0  -2  10    1.52    0.60
   0  -2  10    1.72    0.49
   0  -2  10    2.79    0.78
  -1   2 -10    1.96    0.54
  -1   2 -10    1.65    0.37
  -1   2 -10    2.17    0.54
  -1   2 -10    2.59    0.62
   1  -2  10    2.99    0.61
   1  -2  10    1.68    0.70
   1  -2  10    2.76    0.74
  -2   2 -10    1.93    0.55
  -2   2 -10    1.11    0.48
   2  -2  10    1.23    0.56
   2  -2  10    1.21    0.63
   2  -2  10    1.47    0.49
  -3   2 -10    2.41    0.65
  -3   2 -10    2.85    0.64
   3  -2  10    2.09    0.59
   3  -2  10    1.46    0.68
   3  -2  10    1.26    0.57
  -4   2 -10    0.00    0.32
  -4   2 -10   -0.15    0.24
  -4   2 -10   -0.13    0.27
   4  -2  10    0.15    0.47
   4  -2  10    0.05    0.32
  -5   2 -10    0.59    0.42
  -5   2 -10    0.65    0.44
   5  -2  10   -0.10    0.24
   5  -2  10    0.80    0.65
  -6   2 -10    1.20    0.52
  -6   2 -10    1.83    0.56
   6  -2  10    1.41    0.62
   6  -2  10    1.85    0.59
   6  -2  10    1.73    0.83
   9   1 -10    4.03    0.74
  -9  -1  10    2.82    0.79
  -9  -1  10    5.02    0.89
   8   1 -10    4.77    0.80
   8   1 -10    4.32    0.76
  -8  -1  10    2.63    0.65
  -8  -1  10    3.56    0.86
  -8  -1  10    4.30    0.85
   7   1 -10   -0.24    0.24
   7   1 -10   -0.13    0.22
  -7  -1  10   -0.17    0.11
  -7  -1  10   -0.34    0.37
  -7  -1  10    0.59    0.40
  -7  -1  10    0.62    0.36
   6   1 -10    0.00    0.25
   6   1 -10    0.15    0.27
  -6  -1  10    0.20    0.33
  -6  -1  10    0.17    0.18
  -6  -1  10    0.62    0.34
  -6  -1  10    0.29    0.39
   5   1 -10    5.67    0.81
   5   1 -10    5.82    0.83
  -5  -1  10    5.73    0.90
  -5  -1  10    4.27    0.61
  -5  -1  10    5.84    0.91
  -5  -1  10    7.06    1.15
   4   1 -10    2.62    0.57
   4   1 -10    4.35    0.72
  -4  -1  10    3.98    0.74
  -4  -1  10    3.89    0.75
  -4  -1  10    3.44    0.57
  -4  -1  10    3.99    0.87
  -4  -1  10    4.27    0.61
   3   1 -10    3.52    0.65
   3   1 -10    2.80    0.59
   3   1 -10    3.42    0.54
  -3  -1  10    2.53    0.64
  -3  -1  10    3.52    0.66
  -3  -1  10    3.35    0.63
  -3  -1  10    2.09    0.60
  -3  -1  10    3.44    0.57
  -3  -1  10    2.89    0.77
   2   1 -10    1.07    0.41
   2   1 -10    0.52    0.24
   2   1 -10    1.38    0.42
  -2  -1  10    0.93    0.43
  -2  -1  10    0.98    0.36
  -2  -1  10    0.77    0.47
  -2  -1  10    1.60    0.46
  -2  -1  10    1.02    0.44
   1   1 -10   10.04    0.72
   1   1 -10    8.93    1.05
   1   1 -10    7.81    0.96
  -1  -1  10    7.72    0.95
  -1  -1  10    9.23    1.00
  -1  -1  10    9.76    1.23
  -1  -1  10   10.11    1.36
  -1  -1  10    9.34    1.34
   0   1 -10   12.21    0.80
   0   1 -10   14.11    1.33
   0  -1  10   13.39    1.55
   0  -1  10   11.43    1.50
   0  -1  10   12.06    1.19
  -1   1 -10   42.03    2.06
  -1   1 -10   43.34    2.09
   1  -1  10   36.97    1.97
   1  -1  10   41.40    2.57
  -2   1 -10   15.81    1.20
   2  -1  10   14.90    1.81
   2  -1  10   16.19    1.76
   2  -1  10   18.21    1.30
  -3   1 -10    6.73    0.91
  -3   1 -10    6.47    0.99
  -3   1 -10    4.80    0.77
   3  -1  10    6.82    1.26
   3  -1  10    5.45    1.09
   3  -1  10    5.42    0.86
  -4   1 -10    7.47    0.97
  -4   1 -10    6.08    0.86
  -4   1 -10    5.38    0.92
   4  -1  10    5.90    0.92
   4  -1  10    6.09    1.29
   4  -1  10    6.72    1.00
  -5   1 -10    3.12    0.75
  -5   1 -10    2.19    0.57
   5  -1  10    1.89    0.58
   5  -1  10    3.34    0.74
   5  -1  10    2.95    1.00
  -6   1 -10    4.69    0.74
  -6   1 -10    5.69    0.76
  -6   1 -10    2.99    0.78
   6  -1  10    6.39    1.06
   6  -1  10    6.02    1.05
   6  -1  10    6.44    1.46
   9   0 -10   19.29    1.79
   9   0 -10   17.85    1.36
  -9   0  10   17.61    1.66
  -9   0  10   20.69    2.12
   8   0 -10   16.13    1.54
   8   0 -10   16.49    1.52
  -8   0  10   17.58    0.74
  -8   0  10   19.61    1.72
  -8   0  10   17.62    1.89
  -8   0  10   17.46    0.74
   7   0 -10   11.39    1.25
   7   0 -10   11.12    1.21
  -7   0  10   14.53    1.71
  -7   0  10   10.32    0.75
  -7   0  10   11.23    1.26
   6   0 -10   22.87    1.47
   6   0 -10   21.74    1.44
  -6   0  10   23.77    1.27
  -6   0  10   20.23    1.45
  -6   0  10   22.83    2.15
   5   0 -10   21.56    1.46
   5   0 -10   25.79    1.55
  -5   0  10   19.76    2.04
  -5   0  10   27.08    1.52
  -5   0  10   27.37    1.62
  -5   0  10   25.03    1.39
   4   0 -10   30.87    1.73
   4   0 -10   28.02    1.67
  -4   0  10   31.85    1.72
  -4   0  10   30.30    1.77
  -4   0  10   32.19    1.58
  -4   0  10   32.11    2.12
  -4   0  10   28.45    1.59
  -4   0  10   34.38    1.94
   3   0 -10   42.89    2.09
   3   0 -10   37.49    1.99
  -3   0  10   39.77    1.88
  -3   0  10   38.96    2.00
  -3   0  10   40.70    2.28
  -3   0  10   39.60    2.42
  -3   0  10   43.52    2.01
   2   0 -10   36.53    1.97
   2   0 -10   44.50    2.11
   2   0 -10   39.33    1.72
  -2   0  10   43.43    2.00
  -2   0  10   43.34    2.12
  -2   0  10   41.07    2.01
  -2   0  10   41.53    2.40
  -2   0  10   39.62    2.45
   1   0 -10    0.22    0.19
   1   0 -10   -0.07    0.17
  -1   0  10    0.71    0.33
  -1   0  10   -0.01    0.30
  -1   0  10    0.08    0.32
   0   0 -10    2.79    0.58
   0   0  10    1.83    0.66
   0   0  10    2.93    0.84
   0   0  10    2.20    0.53
  -1   0 -10    7.46    0.93
   1   0  10    7.74    0.96
   1   0  10    7.44    1.28
   1   0  10    8.64    1.31
  -2   0 -10    1.89    0.52
  -2   0 -10    1.82    0.51
  -2   0 -10    1.45    0.45
   2   0  10    2.58    0.74
   2   0  10    1.37    0.67
   2   0  10    1.95    0.52
   2   0  10    2.26    0.55
  -3   0 -10    7.34    0.96
  -3   0 -10    5.75    0.82
   3   0  10    4.84    1.11
   3   0  10    7.43    1.02
   3   0  10    7.21    1.01
  -4   0 -10   14.70    1.56
  -4   0 -10   13.13    1.29
   4   0  10   13.77    1.44
   4   0  10   12.11    1.79
   4   0  10   14.10    1.44
  -5   0 -10    8.85    1.00
  -5   0 -10   10.74    1.33
   5   0  10    8.96    1.17
   5   0  10   10.54    1.27
   5   0  10   12.82    1.89
  -6   0 -10   15.66    1.11
  -6   0 -10   15.78    1.03
  -6   0 -10   12.40    1.51
   6   0  10   14.10    2.09
   6   0  10   15.05    1.55
   6   0  10   16.07    1.62
   9  -1 -10    1.74    0.61
   9  -1 -10    2.55    0.65
   9  -1 -10    2.14    0.61
  -9   1  10    2.50    0.72
  -9   1  10    1.89    0.74
   8  -1 -10    1.41    0.49
   8  -1 -10    1.16    0.42
   8  -1 -10    1.53    0.54
  -8   1  10    1.57    0.66
  -8   1  10    1.30    0.52
  -8   1  10    1.13    0.31
   7  -1 -10    1.26    0.46
   7  -1 -10    0.27    0.28
  -7   1  10    0.34    0.40
  -7   1  10    0.52    0.27
  -7   1  10    0.84    0.51
   6  -1 -10    3.89    0.72
   6  -1 -10    3.91    0.73
  -6   1  10    2.60    0.75
  -6   1  10    3.23    0.58
  -6   1  10    3.46    0.69
   5  -1 -10    3.27    0.65
   5  -1 -10    4.45    0.74
  -5   1  10    4.42    0.68
  -5   1  10    3.23    0.86
  -5   1  10    3.50    0.70
  -5   1  10    3.53    0.63
   4  -1 -10    3.83    0.70
   4  -1 -10    3.48    0.65
  -4   1  10    2.65    0.53
  -4   1  10    2.98    0.79
  -4   1  10    3.91    0.82
  -4   1  10    3.64    0.65
   3  -1 -10   37.98    1.98
   3  -1 -10   40.58    2.04
  -3   1  10   41.35    1.98
  -3   1  10   39.51    1.91
  -3   1  10   37.58    2.25
  -3   1  10   32.85    2.27
   2  -1 -10   23.25    1.47
  -2   1  10   28.84    1.98
  -2   1  10   21.15    2.03
  -2   1  10   26.55    1.50
   1  -1 -10    1.58    0.46
  -1   1  10    2.75    0.79
  -1   1  10    2.34    0.71
  -1   1  10    2.88    0.58
   0  -1 -10    3.81    0.71
   0   1  10    3.38    0.91
   0   1  10    3.40    0.66
   0   1  10    2.58    0.76
  -1  -1 -10    2.06    0.53
  -1  -1 -10    1.92    0.48
   1   1  10    2.06    0.70
   1   1  10    2.05    0.55
   1   1  10    1.86    0.50
   1   1  10    2.90    0.84
  -2  -1 -10   19.90    1.35
  -2  -1 -10   19.59    1.28
  -2  -1 -10   19.16    1.28
   2   1  10   17.83    2.10
   2   1  10   20.40    1.40
   2   1  10   18.00    1.32
  -3  -1 -10    3.27    0.69
  -3  -1 -10    2.79    0.60
   3   1  10    2.79    0.64
   3   1  10    3.48    0.97
   3   1  10    3.24    0.67
  -4  -1 -10    0.66    0.35
   4   1  10    1.15    0.46
   4   1  10    1.75    0.49
   4   1  10    0.65    0.65
  -5  -1 -10    0.09    0.30
  -5  -1 -10    0.01    0.22
   5   1  10    0.22    0.33
   5   1  10    0.50    0.63
   5   1  10    0.04    0.33
  -6  -1 -10   -0.12    0.27
  -6  -1 -10    0.15    0.13
  -6  -1 -10    0.03    0.22
  -6  -1 -10    0.05    0.12
   6   1  10   -0.31    0.59
   6   1  10   -0.41    0.29
   6   1  10    0.43    0.38
   9  -2 -10    0.24    0.38
   9  -2 -10    0.34    0.33
   9  -2 -10    0.19    0.32
  -9   2  10    0.13    0.22
  -9   2  10    0.02    0.46
  -9   2  10    0.04    0.34
   8  -2 -10   12.03    1.37
   8  -2 -10   13.76    1.53
   8  -2 -10   13.94    1.44
  -8   2  10   12.45    1.12
  -8   2  10   11.08    1.62
  -8   2  10   12.75    1.47
   7  -2 -10   13.93    1.39
   7  -2 -10   10.79    1.26
   7  -2 -10   12.50    1.39
  -7   2  10   11.39    1.61
  -7   2  10   11.79    1.10
   6  -2 -10    9.10    1.13
   6  -2 -10   11.40    1.24
  -6   2  10   11.53    1.14
  -6   2  10   15.90    1.85
   5  -2 -10   15.58    1.44
   5  -2 -10   13.22    1.34
  -5   2  10   15.83    1.12
  -5   2  10   16.99    1.20
  -5   2  10   15.47    1.85
   4  -2 -10   13.50    1.33
   4  -2 -10   12.43    1.28
  -4   2  10   13.03    1.62
  -4   2  10   12.54    1.53
  -4   2  10   15.20    1.38
  -4   2  10   18.16    1.19
   3  -2 -10   -0.05    0.25
  -3   2  10    0.24    0.27
  -3   2  10   -0.20    0.31
  -3   2  10   -0.04    0.34
   2  -2 -10    3.57    0.65
  -2   2  10    4.65    1.00
  -2   2  10    3.19    0.60
  -2   2  10    4.13    0.92
   1  -2 -10   12.10    1.25
  -1   2  10   11.20    1.50
  -1   2  10   12.76    1.65
  -1   2  10   13.73    1.27
   0  -2 -10    0.29    0.29
   0  -2 -10    0.95    0.44
   0   2  10    0.42    0.30
   0   2  10    0.28    0.41
   0   2  10    0.34    0.42
  -1  -2 -10    6.95    0.88
  -1  -2 -10    5.52    0.86
   1   2  10    6.68    0.93
   1   2  10    5.02    1.02
   1   2  10    5.37    0.81
   1   2  10    6.90    1.31
  -2  -2 -10   34.02    1.75
  -2  -2 -10   31.41    1.68
  -2  -2 -10   29.95    1.73
   2   2  10   25.59    2.59
   2   2  10   32.56    1.84
   2   2  10   33.86    1.88
  -3  -2 -10   15.17    1.55
  -3  -2 -10   15.84    1.14
   3   2  10   15.25    1.45
   3   2  10   14.28    1.98
   3   2  10   14.74    1.48
  -4  -2 -10    8.10    0.92
  -4  -2 -10    7.86    1.15
   4   2  10    6.37    0.98
   4   2  10    5.58    1.34
   4   2  10    8.21    1.11
  -5  -2 -10    7.51    1.18
  -5  -2 -10    6.85    1.05
  -5  -2 -10    5.77    0.71
   5   2  10    3.38    1.05
   5   2  10    5.11    0.87
   5   2  10    5.64    0.93
   9  -3 -10   -0.18    0.26
   9  -3 -10    0.27    0.35
  -9   3  10    0.28    0.28
  -9   3  10    0.26    0.44
   8  -3 -10   10.43    1.32
   8  -3 -10   10.54    1.28
   8  -3 -10    8.15    1.16
  -8   3  10   11.48    1.66
  -8   3  10   10.43    1.08
   7  -3 -10   19.36    1.78
   7  -3 -10   21.40    1.54
   7  -3 -10   19.54    1.48
  -7   3  10   19.48    1.35
  -7   3  10   17.61    2.06
   6  -3 -10   17.27    1.65
   6  -3 -10   19.83    1.44
   6  -3 -10   17.38    1.62
  -6   3  10   18.92    2.11
  -6   3  10   20.72    1.32
  -6   3  10   20.08    1.37
   5  -3 -10   28.76    1.77
  -5   3  10   29.25    1.98
  -5   3  10   31.56    1.71
  -5   3  10   26.87    1.68
  -5   3  10   30.77    2.23
   4  -3 -10   15.43    1.48
  -4   3  10   17.77    1.97
  -4   3  10   16.85    1.24
  -4   3  10   19.05    1.88
   3  -3 -10   10.12    1.14
  -3   3  10    8.55    1.28
  -3   3  10   10.84    1.17
  -3   3  10   10.18    1.49
   2  -3 -10   27.26    1.65
  -2   3  10   23.50    1.52
  -2   3  10   29.02    2.06
  -2   3  10   28.30    2.06
   1  -3 -10   23.62    1.49
  -1   3  10   21.35    1.47
  -1   3  10   26.41    2.02
  -1   3  10   25.59    1.95
   0  -3 -10    3.73    0.70
   0  -3 -10    2.49    0.57
   0   3  10    5.61    1.22
   0   3  10    2.68    0.61
   0   3  10    4.54    1.02
   0   3  10    3.08    0.64
  -1  -3 -10    0.16    0.27
  -1  -3 -10    0.48    0.34
   1   3  10    0.10    0.43
   1   3  10   -0.02    0.26
   1   3  10    0.44    0.30
  -2  -3 -10    1.99    0.61
  -2  -3 -10    1.34    0.47
   2   3  10    0.62    0.57
   2   3  10    1.31    0.44
   2   3  10    1.17    0.47
  -3  -3 -10   -0.38    0.30
  -3  -3 -10    0.24    0.27
   3   3  10   -0.13    0.41
   3   3  10    0.09    0.28
   3   3  10    0.02    0.29
  -4  -3 -10    0.17    0.38
  -4  -3 -10    1.18    0.56
  -4  -3 -10    0.69    0.32
   4   3  10    1.07    0.47
   4   3  10    0.65    0.62
   4   3  10    0.84    0.47
  -5  -3 -10    1.38    0.57
  -5  -3 -10    0.76    0.27
   5   3  10    1.04    0.45
   5   3  10    1.00    0.50
   5   3  10    0.46    0.62
   9  -4 -10    3.31    0.81
   9  -4 -10    5.75    1.00
  -9   4  10    5.56    0.85
  -9   4  10    4.28    1.12
   8  -4 -10    0.90    0.47
   8  -4 -10    0.44    0.42
  -8   4  10    1.08    0.41
  -8   4  10    1.68    0.78
   7  -4 -10    3.15    0.76
  -7   4  10    1.79    0.75
  -7   4  10    2.41    0.58
   6  -4 -10    0.15    0.29
  -6   4  10   -0.06    0.27
  -6   4  10    0.08    0.27
  -6   4  10   -0.38    0.28
   5  -4 -10   -0.02    0.25
  -5   4  10    0.12    0.31
  -5   4  10   -0.31    0.29
  -5   4  10    0.18    0.37
   4  -4 -10    1.01    0.44
  -4   4  10    1.33    0.48
  -4   4  10    1.45    0.61
  -4   4  10    1.38    0.61
   3  -4 -10    0.03    0.24
  -3   4  10    0.28    0.43
  -3   4  10   -0.14    0.37
  -3   4  10    0.07    0.28
   2  -4 -10   13.63    1.34
  -2   4  10   10.58    1.20
  -2   4  10   11.02    1.58
  -2   4  10   10.03    1.50
   1  -4 -10    8.98    1.06
   1  -4 -10   11.91    1.26
  -1   4  10   12.33    1.72
  -1   4  10   10.15    1.51
  -1   4  10   10.44    1.23
   0  -4 -10    1.98    0.55
   0  -4 -10    1.13    0.43
   0   4  10    2.16    0.81
   0   4  10    2.60    0.67
   0   4  10    1.95    0.51
  -1  -4 -10    4.21    0.74
   1   4  10    3.64    0.74
   1   4  10    4.74    0.83
   1   4  10    3.13    0.99
  -2  -4 -10    5.32    0.99
  -2  -4 -10    4.82    0.76
   2   4  10    5.89    0.93
   2   4  10    4.71    1.22
   2   4  10    6.49    0.94
  -3  -4 -10   15.95    1.09
  -3  -4 -10   15.22    1.69
   3   4  10   14.72    2.07
   3   4  10   17.47    1.60
   3   4  10   15.88    1.54
  -4  -4 -10    5.27    0.94
  -4  -4 -10    4.52    0.99
  -4  -4 -10    3.51    0.53
   4   4  10    3.71    0.77
   4   4  10    3.15    0.74
   4   4  10    3.82    1.18
   8  -5 -10    0.04    0.36
  -8   5  10    0.32    0.50
  -8   5  10    0.04    0.29
   7  -5 -10   13.34    1.56
  -7   5  10   14.37    1.42
  -7   5  10   13.62    1.89
  -7   5  10   14.76    1.47
   6  -5 -10   14.68    1.60
  -6   5  10   15.24    2.00
  -6   5  10   13.04    1.35
   5  -5 -10   10.54    1.28
  -5   5  10   13.18    1.80
  -5   5  10   13.33    1.37
  -5   5  10   10.53    1.50
   4  -5 -10   21.40    1.51
  -4   5  10   19.36    2.09
  -4   5  10   20.31    1.46
  -4   5  10   20.84    2.25
   3  -5 -10   34.30    1.96
  -3   5  10   31.26    1.87
  -3   5  10   31.65    2.36
  -3   5  10   35.32    2.46
   2  -5 -10    9.91    1.15
  -2   5  10   11.31    1.64
  -2   5  10    8.33    1.41
  -2   5  10   10.66    1.26
   1  -5 -10   13.52    1.34
   1  -5 -10   13.48    1.34
  -1   5  10   13.67    1.85
  -1   5  10   13.68    1.40
   0  -5 -10   11.21    1.20
   0   5  10   12.81    1.39
   0   5  10   10.83    1.28
   0   5  10   11.46    1.73
  -1  -5 -10    3.23    0.83
  -1  -5 -10    2.21    0.58
   1   5  10    2.35    0.90
   1   5  10    2.24    0.62
   1   5  10    2.23    0.60
  -2  -5 -10    0.01    0.32
  -2  -5 -10    0.48    0.30
   2   5  10    0.13    0.25
   2   5  10    0.59    0.63
   2   5  10    0.17    0.32
  -3  -5 -10    4.88    1.04
  -3  -5 -10    4.39    0.62
   3   5  10    3.88    1.21
   3   5  10    4.58    0.86
   3   5  10    4.12    0.85
   7  -6 -10    0.11    0.37
  -7   6  10    0.63    0.64
  -7   6  10    0.71    0.44
   6  -6 -10    0.84    0.49
  -6   6  10    0.74    0.66
  -6   6  10    1.40    0.74
  -6   6  10    0.35    0.30
   5  -6 -10    5.03    0.91
  -5   6  10    5.88    1.28
  -5   6  10    4.72    0.87
  -5   6  10    5.07    1.13
   4  -6 -10   11.24    1.31
  -4   6  10   12.54    1.41
  -4   6  10   13.94    1.91
  -4   6  10   13.04    1.78
   3  -6 -10    4.47    0.85
  -3   6  10    5.57    0.92
  -3   6  10    6.49    1.28
  -3   6  10    4.16    1.08
   2  -6 -10    4.83    0.88
  -2   6  10    3.20    0.99
  -2   6  10    4.87    0.88
   1  -6 -10   16.66    1.57
  -1   6  10   15.77    2.14
  -1   6  10   13.12    1.47
   0  -6 -10    1.67    0.66
   0  -6 -10    2.46    0.61
   0   6  10    2.63    0.67
   0   6  10    2.16    0.89
   0   6  10    1.92    0.58
  -1  -6 -10    0.48    0.52
  -1  -6 -10    0.12    0.27
   1   6  10    0.53    0.53
   1   6  10    0.30    0.37
   1   6  10    0.03    0.32
  -2  -6 -10    0.17    0.26
  -2  -6 -10    0.45    0.49
   2   6  10    0.12    0.32
   2   6  10    0.17    0.57
   2   6  10    0.25    0.32
   6  -7 -10    9.52    1.37
  -6   7  10    7.99    1.21
  -6   7  10   11.74    1.78
  -6   7  10   11.45    1.81
   5  -7 -10    7.65    1.14
  -5   7  10    7.42    1.50
  -5   7  10    8.01    1.45
  -5   7  10    6.22    1.06
   4  -7 -10    1.14    0.49
  -4   7  10    2.95    0.97
  -4   7  10    1.06    0.68
  -4   7  10    2.21    0.67
   3  -7 -10    1.34    0.51
  -3   7  10    1.06    0.68
  -3   7  10    4.00    0.84
   2  -7 -10    0.97    0.45
   2  -7 -10    3.77    0.77
  -2   7  10    2.57    0.72
  -2   7  10    2.86    0.96
   1  -7 -10    0.39    0.35
   1  -7 -10   -0.17    0.39
  -1   7  10    0.03    0.34
  -1   7  10    0.02    0.43
   0  -7 -10   -0.16    0.36
   0  -7 -10   -0.19    0.26
   0   7  10   -0.14    0.30
   0   7  10   -0.11    0.59
   0   7  10   -0.18    0.31
  -1  -7 -10    0.24    0.29
  -1  -7 -10   -0.16    0.38
   1   7  10    0.43    0.41
   1   7  10    0.44    0.59
   1   7  10   -0.10    0.34
   4  -8 -10    7.53    1.14
  -4   8  10    8.46    1.59
  -4   8  10    9.08    1.29
  -3   8  10   11.93    1.91
  -3   8  10   11.18    1.44
   2  -8 -10    7.06    1.26
   2  -8 -10    8.40    1.20
  -2   8  10    8.52    1.61
  -2   8  10    7.84    1.20
   2   8 -11    4.10    0.86
   2   8 -11    3.25    0.73
   2   8 -11    4.25    0.92
  -2  -8  11    2.77    0.83
  -2  -8  11    4.40    1.21
   1   8 -11    2.81    0.72
   1   8 -11    2.96    0.71
   1   8 -11    2.26    0.68
  -1  -8  11    3.34    0.96
  -1  -8  11    2.20    0.89
   0   8 -11    1.36    0.58
   0   8 -11    0.87    0.43
   0  -8  11    0.96    0.73
   0  -8  11    0.27    0.53
  -1   8 -11    1.25    0.59
   1  -8  11    1.21    0.76
   1  -8  11    1.08    0.62
   2  -8  11    0.24    0.41
   4   7 -11    1.82    0.56
   4   7 -11    3.60    0.81
   4   7 -11    3.36    0.74
   4   7 -11    2.42    0.68
  -4  -7  11    2.91    1.01
  -4  -7  11    2.37    0.75
  -4  -7  11    2.93    0.73
   3   7 -11    1.94    0.66
   3   7 -11    2.60    0.74
   3   7 -11    1.33    0.50
   3   7 -11    4.10    0.83
  -3  -7  11    2.17    0.64
  -3  -7  11    2.70    0.42
  -3  -7  11    1.87    0.80
  -3  -7  11    3.17    0.83
   2   7 -11    1.40    0.55
   2   7 -11    0.47    0.43
   2   7 -11    0.36    0.36
  -2  -7  11    0.68    0.52
  -2  -7  11    1.15    0.69
   1   7 -11    1.95    0.57
   1   7 -11    0.90    0.52
   1   7 -11    0.97    0.44
  -1  -7  11    1.01    0.67
  -1  -7  11    1.19    0.61
  -1  -7  11    2.23    0.53
   0   7 -11    9.11    1.23
   0   7 -11    9.06    1.12
   0  -7  11    9.58    1.50
   0  -7  11    8.83    1.08
   0  -7  11    9.25    1.62
  -1   7 -11    6.36    1.05
  -1   7 -11    7.91    1.04
   1  -7  11    5.15    1.27
   1  -7  11    6.64    1.00
   1  -7  11    7.21    1.29
  -2   7 -11    1.21    0.56
   2  -7  11    0.72    0.45
   2  -7  11    0.28    0.53
  -3   7 -11    0.56    0.45
   3  -7  11    1.22    0.56
   3  -7  11    1.45    0.71
   5   6 -11   12.82    1.43
   5   6 -11   11.44    1.28
   5   6 -11   11.78    1.34
  -5  -6  11   10.97    1.29
  -5  -6  11   10.38    1.38
  -5  -6  11   11.38    1.69
   4   6 -11    4.85    0.84
   4   6 -11    6.46    1.00
   4   6 -11    6.21    0.95
  -4  -6  11    5.12    1.01
  -4  -6  11    5.34    1.15
  -4  -6  11    5.81    0.37
  -4  -6  11    7.25    1.06
   3   6 -11    5.54    0.94
   3   6 -11    5.34    0.92
   3   6 -11    3.91    0.77
   3   6 -11    5.48    0.94
  -3  -6  11    5.25    0.93
  -3  -6  11    4.77    1.13
  -3  -6  11    6.16    1.10
   2   6 -11    8.37    1.07
   2   6 -11    9.45    1.22
   2   6 -11    9.36    1.20
   2   6 -11    9.28    1.16
  -2  -6  11   12.24    1.60
  -2  -6  11    8.87    1.52
  -2  -6  11    9.23    0.98
   1   6 -11    0.54    0.36
   1   6 -11    1.35    0.57
   1   6 -11    1.12    0.42
  -1  -6  11    1.21    0.67
  -1  -6  11    0.62    0.32
  -1  -6  11    1.60    0.66
   0   6 -11   -0.02    0.23
   0   6 -11    0.14    0.34
   0  -6  11   -0.16    0.35
   0  -6  11    0.06    0.47
   0  -6  11    0.29    0.31
  -1   6 -11    1.62    0.55
  -1   6 -11    0.81    0.41
   1  -6  11    1.50    0.54
   1  -6  11    0.44    0.64
   1  -6  11    1.23    0.61
  -2   6 -11    0.31    0.34
   2  -6  11   -0.06    0.28
   2  -6  11    0.46    0.45
  -3   6 -11    0.44    0.41
  -3   6 -11    0.86    0.45
   3  -6  11    1.41    0.54
   3  -6  11    0.75    0.57
  -4   6 -11    3.84    0.92
  -4   6 -11    3.32    0.82
   4  -6  11    3.62    1.01
   4  -6  11    2.43    0.68
   6   5 -11    0.13    0.31
   6   5 -11    0.37    0.40
   6   5 -11    1.37    0.51
  -6  -5  11    1.55    0.69
  -6  -5  11    1.45    0.52
  -6  -5  11    0.75    0.52
   5   5 -11    3.36    0.71
   5   5 -11    4.23    0.83
   5   5 -11    3.56    0.72
  -5  -5  11    4.33    1.07
  -5  -5  11    3.58    0.77
  -5  -5  11    5.89    1.09
   4   5 -11    4.28    0.78
   4   5 -11    2.80    0.61
   4   5 -11    4.78    0.84
  -4  -5  11    4.58    0.84
  -4  -5  11    4.67    0.98
  -4  -5  11    4.06    0.50
  -4  -5  11    4.84    1.13
  -4  -5  11    4.41    0.54
   3   5 -11   15.52    1.54
   3   5 -11   17.23    1.58
   3   5 -11   18.10    1.27
  -3  -5  11   16.67    1.06
  -3  -5  11   14.16    1.47
  -3  -5  11   13.96    1.72
  -3  -5  11   17.14    1.98
   2   5 -11   36.18    1.94
   2   5 -11   35.34    2.04
   2   5 -11   39.33    2.10
  -2  -5  11   37.25    1.85
  -2  -5  11   39.15    2.57
  -2  -5  11   37.35    2.42
   1   5 -11   19.81    1.47
   1   5 -11   19.04    1.43
   1   5 -11   21.34    1.38
   1   5 -11   19.30    1.46
  -1  -5  11   19.61    2.22
  -1  -5  11   16.83    1.89
  -1  -5  11   20.02    1.35
   0   5 -11   13.34    1.27
   0   5 -11   11.86    1.34
   0  -5  11   12.28    1.61
   0  -5  11    8.92    1.52
   0  -5  11   12.96    1.36
   0  -5  11   11.63    1.21
  -1   5 -11    7.95    1.16
  -1   5 -11    8.51    0.99
   1  -5  11    7.72    1.07
   1  -5  11    8.28    1.34
  -2   5 -11    5.02    0.94
  -2   5 -11    1.80    0.61
   2  -5  11    5.15    1.10
   2  -5  11    5.23    0.89
  -3   5 -11    0.25    0.40
  -3   5 -11    0.06    0.31
   3  -5  11   -0.04    0.32
   3  -5  11   -0.18    0.34
  -4   5 -11   -0.17    0.32
  -4   5 -11    0.08    0.35
   4  -5  11   -0.09    0.44
   4  -5  11    0.02    0.30
  -5   5 -11   -0.27    0.32
  -5   5 -11   -0.22    0.33
   5  -5  11   -0.21    0.29
   7   4 -11    3.67    0.77
   7   4 -11    5.64    0.88
  -7  -4  11    5.45    1.01
  -7  -4  11    4.38    1.01
  -7  -4  11    3.75    0.77
   6   4 -11    4.36    0.78
   6   4 -11    4.53    0.83
   6   4 -11    2.91    0.68
  -6  -4  11    3.10    0.70
  -6  -4  11    3.69    0.91
  -6  -4  11    2.45    0.76
   5   4 -11    1.82    0.54
   5   4 -11    1.57    0.50
   5   4 -11    1.36    0.53
  -5  -4  11    2.44    0.74
  -5  -4  11    1.56    0.28
  -5  -4  11    0.72    0.53
  -5  -4  11    1.61    0.29
  -5  -4  11    1.46    0.51
   4   4 -11    5.22    0.88
   4   4 -11    4.35    0.73
   4   4 -11    4.75    0.84
  -4  -4  11    4.65    0.96
  -4  -4  11    3.86    0.76
  -4  -4  11    4.59    0.95
  -4  -4  11    4.63    0.61
   3   4 -11    1.13    0.42
   3   4 -11    0.62    0.34
   3   4 -11    0.32    0.34
  -3  -4  11    0.94    0.42
  -3  -4  11   -0.08    0.35
  -3  -4  11    0.62    0.31
  -3  -4  11    0.14    0.45
   2   4 -11   -0.01    0.25
   2   4 -11    0.63    0.31
   2   4 -11    0.01    0.26
  -2  -4  11    0.15    0.26
  -2  -4  11    0.11    0.37
  -2  -4  11    0.24    0.47
   1   4 -11    0.43    0.34
   1   4 -11    0.29    0.26
   1   4 -11    0.26    0.32
   1   4 -11    0.33    0.31
  -1  -4  11   -0.14    0.25
  -1  -4  11    0.45    0.32
  -1  -4  11    0.92    0.56
  -1  -4  11    0.35    0.43
   0   4 -11    0.45    0.28
   0   4 -11    0.42    0.32
   0   4 -11    0.15    0.32
   0   4 -11    0.62    0.36
   0  -4  11    0.32    0.45
   0  -4  11    0.09    0.25
   0  -4  11    0.48    0.50
   0  -4  11    0.47    0.38
  -1   4 -11    1.40    0.51
  -1   4 -11    0.84    0.48
  -1   4 -11    0.50    0.29
   1  -4  11    1.02    0.40
   1  -4  11    0.66    0.53
  -2   4 -11    0.47    0.42
  -2   4 -11    2.20    0.61
   2  -4  11    0.36    0.50
   2  -4  11    0.87    0.45
  -3   4 -11    0.56    0.41
  -3   4 -11    0.38    0.37
   3  -4  11    0.80    0.43
   3  -4  11    0.78    0.49
  -4   4 -11    6.02    1.06
  -4   4 -11    8.76    1.23
   4  -4  11    8.98    1.45
   4  -4  11    6.63    1.07
  -5   4 -11    4.29    0.97
  -5   4 -11    7.81    1.14
   5  -4  11    7.06    1.14
  -8  -3  11   -0.15    0.34
   7   3 -11    0.81    0.42
   7   3 -11    1.71    0.54
   7   3 -11    0.39    0.35
  -7  -3  11    2.05    0.68
  -7  -3  11    1.43    0.51
  -7  -3  11    1.80    0.66
   6   3 -11    3.45    0.70
   6   3 -11    3.31    0.72
   6   3 -11    3.04    0.65
  -6  -3  11    3.00    0.27
  -6  -3  11    2.85    0.82
  -6  -3  11    2.52    0.69
  -6  -3  11    3.13    0.71
   5   3 -11   22.87    1.45
   5   3 -11   22.96    1.53
   5   3 -11   21.05    1.46
  -5  -3  11   23.63    2.16
  -5  -3  11   22.16    2.10
  -5  -3  11   21.94    1.14
  -5  -3  11   22.35    1.55
   4   3 -11   31.12    1.86
   4   3 -11   34.72    1.92
   4   3 -11   33.93    1.79
  -4  -3  11   29.83    2.08
  -4  -3  11   33.81    1.97
  -4  -3  11   33.74    2.21
  -4  -3  11   36.34    1.67
   3   3 -11   11.12    1.08
   3   3 -11    9.03    1.10
   3   3 -11    8.32    1.07
  -3  -3  11   10.18    1.03
  -3  -3  11   10.18    1.19
  -3  -3  11    8.30    1.26
  -3  -3  11    7.77    1.25
   2   3 -11    7.39    1.01
   2   3 -11    7.32    0.88
   2   3 -11    6.17    0.92
  -2  -3  11    6.87    1.17
  -2  -3  11    5.97    1.08
  -2  -3  11    8.78    1.03
  -2  -3  11    8.52    0.95
   1   3 -11   23.21    1.55
   1   3 -11   25.01    1.39
   1   3 -11   23.55    1.85
  -1  -3  11   24.52    1.48
  -1  -3  11   26.33    1.97
  -1  -3  11   26.09    1.91
  -1  -3  11   21.61    1.46
   0   3 -11    8.71    1.10
   0   3 -11    7.45    1.06
   0   3 -11    9.44    1.22
   0   3 -11    9.34    0.92
   0  -3  11    8.91    1.38
   0  -3  11    8.16    0.99
   0  -3  11    7.49    1.26
  -1   3 -11    3.78    0.59
  -1   3 -11    3.65    0.74
  -1   3 -11    2.94    0.72
   1  -3  11    2.59    0.81
   1  -3  11    2.32    0.77
   1  -3  11    2.99    0.64
  -2   3 -11    2.69    0.67
  -2   3 -11    0.28    0.37
   2  -3  11    0.43    0.48
   2  -3  11    0.23    0.43
   2  -3  11    1.02    0.45
  -3   3 -11    0.25    0.36
  -3   3 -11    0.95    0.49
   3  -3  11    0.73    0.56
   3  -3  11    0.39    0.37
   3  -3  11    0.31    0.50
  -4   3 -11    0.87    0.47
  -4   3 -11    1.45    0.52
   4  -3  11    2.26    0.65
  -5   3 -11    1.15    0.54
  -5   3 -11    3.26    0.76
   5  -3  11    1.60    0.63
   8   2 -11    4.34    0.84
   8   2 -11    4.73    0.85
  -8  -2  11    4.35    1.00
  -8  -2  11    5.04    1.03
  -8  -2  11    3.55    0.78
   7   2 -11    1.69    0.51
   7   2 -11    2.35    0.60
   7   2 -11    3.47    0.75
  -7  -2  11    2.08    0.66
  -7  -2  11    2.14    0.61
  -7  -2  11    2.34    0.75
   6   2 -11    2.43    0.64
   6   2 -11    3.90    0.71
   6   2 -11    3.67    0.73
  -6  -2  11    3.89    0.96
  -6  -2  11    3.58    0.47
  -6  -2  11    4.07    0.81
  -6  -2  11    4.90    0.97
   5   2 -11    0.19    0.29
   5   2 -11    0.36    0.29
   5   2 -11    0.30    0.31
  -5  -2  11    0.16    0.23
  -5  -2  11    0.01    0.38
  -5  -2  11    0.03    0.44
  -5  -2  11    0.21    0.30
   4   2 -11    2.46    0.59
   4   2 -11    1.75    0.47
   4   2 -11    2.50    0.59
  -4  -2  11    1.87    0.60
  -4  -2  11    3.17    0.82
  -4  -2  11    3.21    0.59
  -4  -2  11    3.26    0.72
   3   2 -11    3.77    0.62
   3   2 -11    3.85    0.71
   3   2 -11    1.91    0.53
  -3  -2  11    2.35    0.66
  -3  -2  11    2.77    0.78
  -3  -2  11    3.37    0.58
  -3  -2  11    2.54    0.68
  -3  -2  11    3.77    0.67
   2   2 -11    5.44    0.72
   2   2 -11    6.06    0.91
   2   2 -11    5.94    0.88
  -2  -2  11    5.75    1.01
  -2  -2  11    6.40    0.86
  -2  -2  11    4.66    0.79
  -2  -2  11    7.32    1.18
  -2  -2  11    3.77    0.93
   1   2 -11    7.80    1.05
   1   2 -11    9.21    0.91
  -1  -2  11    9.38    1.38
  -1  -2  11    9.25    1.37
  -1  -2  11    9.85    1.11
  -1  -2  11   11.33    1.48
  -1  -2  11   12.33    1.23
   0   2 -11   14.06    1.39
   0   2 -11   14.81    0.97
   0  -2  11   16.01    1.89
   0  -2  11   16.15    1.45
   0  -2  11   13.11    1.71
  -1   2 -11   37.37    2.23
  -1   2 -11   39.55    2.13
  -1   2 -11   40.46    2.17
   1  -2  11   37.81    2.51
   1  -2  11   44.17    2.18
   1  -2  11   40.96    2.68
  -2   2 -11   20.68    1.63
  -2   2 -11   25.26    1.65
   2  -2  11   26.77    1.66
   2  -2  11   25.64    2.56
   2  -2  11   21.67    2.18
  -3   2 -11    3.60    0.74
  -3   2 -11    3.16    0.80
   3  -2  11    5.62    1.10
   3  -2  11    4.60    0.85
   3  -2  11    6.25    1.31
  -4   2 -11    0.54    0.38
  -4   2 -11    0.48    0.37
  -4   2 -11    0.32    0.40
   4  -2  11   -0.40    0.36
   4  -2  11   -0.06    0.27
  -5   2 -11    0.67    0.53
  -5   2 -11    0.01    0.30
   5  -2  11    1.50    0.91
   5  -2  11    0.77    0.46
   8   1 -11    5.97    0.98
   8   1 -11    5.98    0.95
  -8  -1  11    8.24    1.37
  -8  -1  11    6.02    0.99
   7   1 -11   11.16    1.24
   7   1 -11   12.51    1.38
  -7  -1  11   10.09    1.50
  -7  -1  11   10.80    0.70
  -7  -1  11   13.52    1.45
   6   1 -11    8.55    1.12
   6   1 -11   12.56    1.37
  -6  -1  11    8.24    1.13
  -6  -1  11    8.03    1.13
  -6  -1  11    7.66    1.29
  -6  -1  11   11.01    0.81
   5   1 -11    1.90    0.55
   5   1 -11    3.07    0.67
  -5  -1  11    4.38    0.80
  -5  -1  11    2.09    0.61
  -5  -1  11    2.53    0.51
  -5  -1  11    2.16    0.74
   4   1 -11    7.33    1.00
   4   1 -11   10.17    1.15
   4   1 -11    9.22    0.97
  -4  -1  11    8.07    0.93
  -4  -1  11    8.16    1.35
  -4  -1  11    7.76    1.08
   3   1 -11   25.26    1.65
   3   1 -11   27.74    1.70
   3   1 -11   32.05    1.55
  -3  -1  11   25.77    2.04
  -3  -1  11   31.02    1.67
  -3  -1  11   28.96    1.91
  -3  -1  11   30.04    1.61
  -3  -1  11   28.73    1.82
   2   1 -11    3.89    0.71
   2   1 -11    3.62    0.75
   2   1 -11    5.81    0.72
  -2  -1  11    6.90    1.08
  -2  -1  11    6.10    0.88
  -2  -1  11    5.57    0.81
  -2  -1  11    6.48    1.13
  -2  -1  11    5.19    1.09
   1   1 -11   10.37    1.19
   1   1 -11   10.97    0.96
  -1  -1  11    8.82    1.38
  -1  -1  11   10.39    1.41
  -1  -1  11   10.74    1.51
  -1  -1  11   11.64    1.21
   0   1 -11   15.27    1.52
   0  -1  11   16.77    1.84
   0  -1  11   17.56    1.98
   0  -1  11   18.01    1.29
  -1   1 -11    6.41    0.98
  -1   1 -11    5.80    0.92
   1  -1  11    5.26    1.12
   1  -1  11    5.56    1.12
   1  -1  11    6.32    0.96
  -2   1 -11    0.31    0.35
  -2   1 -11    0.00    0.31
   2  -1  11    0.20    0.29
   2  -1  11    0.35    0.44
   2  -1  11    0.91    0.57
  -3   1 -11    0.27    0.30
  -3   1 -11    0.27    0.33
  -3   1 -11    0.60    0.41
   3  -1  11    0.11    0.32
   3  -1  11    0.05    0.52
  -4   1 -11    0.33    0.39
  -4   1 -11   -0.11    0.32
   4  -1  11    0.19    0.57
   4  -1  11    0.36    0.38
  -5   1 -11    2.78    0.68
  -5   1 -11    1.95    0.67
   5  -1  11    3.75    0.83
   5  -1  11    2.69    0.97
   8   0 -11    9.30    1.23
   8   0 -11    8.83    1.14
  -8   0  11    7.29    1.10
  -8   0  11    8.98    1.41
  -8   0  11    7.94    0.57
   7   0 -11    0.11    0.33
   7   0 -11    0.85    0.42
  -7   0  11    0.29    0.26
  -7   0  11    0.25    0.32
  -7   0  11    1.21    0.60
   6   0 -11    0.13    0.25
   6   0 -11   -0.02    0.27
  -6   0  11    0.15    0.42
  -6   0  11    0.30    0.29
  -6   0  11    0.11    0.24
   5   0 -11    0.22    0.28
   5   0 -11    0.03    0.30
  -5   0  11   -0.22    0.19
  -5   0  11   -0.26    0.31
   4   0 -11    2.82    0.66
   4   0 -11    5.92    0.90
  -4   0  11    4.39    0.69
  -4   0  11    4.73    0.76
  -4   0  11    2.66    0.79
   3   0 -11   23.20    1.30
   3   0 -11   25.80    1.60
   3   0 -11   21.32    1.49
  -3   0  11   25.84    1.99
  -3   0  11   22.51    1.75
  -3   0  11   24.77    1.45
  -3   0  11   21.33    1.45
   2   0 -11   27.12    1.34
   2   0 -11   26.73    1.65
  -2   0  11   25.27    1.67
  -2   0  11   22.71    2.25
  -2   0  11   27.94    2.02
  -2   0  11   26.71    1.56
   1   0 -11   18.89    1.39
  -1   0  11   25.01    2.34
  -1   0  11   23.90    1.62
  -1   0  11   21.58    1.41
  -1   0  11   23.04    2.30
   0   0 -11   15.18    1.45
   0   0  11   13.62    1.75
   0   0  11   11.35    1.23
   0   0  11   15.66    1.86
  -1   0 -11    3.34    0.71
  -1   0 -11    3.87    0.75
   1   0  11    3.51    0.99
   1   0  11    3.27    0.69
   1   0  11    2.25    0.74
  -2   0 -11   10.91    1.22
  -2   0 -11   12.56    1.34
   2   0  11    7.23    1.44
   2   0  11    9.05    1.17
   2   0  11    8.72    1.41
  -3   0 -11    8.45    1.07
  -3   0 -11   13.12    1.28
   3   0  11    8.34    1.58
   3   0  11    9.64    1.22
  -4   0 -11    1.47    0.57
  -4   0 -11    2.73    0.65
   4   0  11    0.22    0.34
   4   0  11    1.51    0.60
   4   0  11    2.48    0.91
  -5   0 -11    1.07    0.51
  -5   0 -11   -0.11    0.28
   5   0  11    0.64    0.75
   5   0  11    0.10    0.37
   5   0  11   -0.17    0.34
   8  -1 -11   12.94    1.43
   8  -1 -11   11.44    1.39
  -8   1  11   12.46    1.76
  -8   1  11   12.15    0.87
  -8   1  11   13.20    1.50
   7  -1 -11    2.74    0.70
   7  -1 -11    2.14    0.61
  -7   1  11    1.97    0.49
  -7   1  11    2.46    0.90
   6  -1 -11    6.19    0.95
   6  -1 -11    8.95    1.16
  -6   1  11    6.61    1.25
  -6   1  11    6.74    0.88
   5  -1 -11   20.90    1.43
   5  -1 -11   19.31    1.39
  -5   1  11   15.30    1.86
  -5   1  11   17.36    1.26
  -5   1  11   12.35    1.21
   4  -1 -11    1.98    0.58
   4  -1 -11    2.97    0.70
  -4   1  11    1.73    0.69
  -4   1  11    1.55    0.48
  -4   1  11    1.72    0.49
  -4   1  11    1.82    0.68
   3  -1 -11    1.32    0.49
  -3   1  11    1.04    0.48
  -3   1  11    2.51    0.79
  -3   1  11    1.43    0.59
  -3   1  11    2.11    0.54
   2  -1 -11    1.73    0.53
  -2   1  11    1.55    0.67
  -2   1  11    1.90    0.71
  -2   1  11    2.53    0.59
   1  -1 -11    0.91    0.42
  -1   1  11    0.72    0.53
  -1   1  11    0.65    0.42
  -1   1  11    1.12    0.58
   0  -1 -11    0.71    0.37
   0   1  11    0.42    0.49
   0   1  11    1.79    0.77
   0   1  11    1.27    0.47
  -1  -1 -11    0.26    0.29
   1   1  11    0.33    0.32
   1   1  11    0.06    0.38
   1   1  11    0.61    0.58
  -2  -1 -11    3.98    0.72
  -2  -1 -11    3.34    0.70
   2   1  11    3.38    1.03
   2   1  11    4.50    0.82
  -3  -1 -11    9.29    1.09
   3   1  11    7.57    1.53
   3   1  11   10.26    1.24
   3   1  11    4.93    0.90
  -4  -1 -11    7.42    1.00
  -4  -1 -11    8.80    1.24
   4   1  11    8.99    1.25
   4   1  11   12.13    1.98
   4   1  11    9.24    1.22
  -5  -1 -11    0.65    0.50
  -5  -1 -11    0.08    0.27
   5   1  11    0.42    0.41
   5   1  11    0.97    0.46
   5   1  11    0.59    0.67
   8  -2 -11    0.64    0.44
   8  -2 -11    0.22    0.38
  -8   2  11    0.45    0.32
  -8   2  11    0.72    0.63
   7  -2 -11    0.56    0.36
   7  -2 -11    0.18    0.31
  -7   2  11    0.70    0.35
  -7   2  11   -0.25    0.35
   6  -2 -11    5.16    0.88
   6  -2 -11    5.02    0.86
  -6   2  11    5.00    1.15
  -6   2  11    5.45    0.85
   5  -2 -11    9.74    1.19
  -5   2  11   11.99    1.25
  -5   2  11   10.69    1.60
  -5   2  11   10.58    1.11
   4  -2 -11   20.88    1.48
  -4   2  11   19.41    2.12
  -4   2  11   23.56    1.79
  -4   2  11   18.27    1.31
  -4   2  11   19.34    1.76
   3  -2 -11   11.56    1.30
  -3   2  11   13.07    1.73
  -3   2  11   13.38    1.30
  -3   2  11   12.40    1.60
   2  -2 -11   17.90    1.33
  -2   2  11   15.97    1.47
  -2   2  11   17.96    1.97
  -2   2  11   17.72    1.97
   1  -2 -11    3.59    0.73
  -1   2  11    3.97    0.75
  -1   2  11    4.50    1.08
  -1   2  11    3.83    0.99
   0  -2 -11   11.74    1.24
   0   2  11   11.49    1.64
   0   2  11   13.88    1.37
   0   2  11   11.16    1.65
  -1  -2 -11   22.17    1.46
  -1  -2 -11   24.80    1.58
   1   2  11   18.98    2.29
   1   2  11   21.46    1.52
  -2  -2 -11    5.95    0.91
  -2  -2 -11    5.24    0.92
   2   2  11    2.97    0.72
   2   2  11    7.69    1.10
   2   2  11    7.32    1.49
  -3  -2 -11    4.51    0.86
  -3  -2 -11    4.30    0.73
   3   2  11    1.88    0.87
   3   2  11    4.13    0.81
   3   2  11    3.14    0.73
  -4  -2 -11    2.09    0.54
   4   2  11    0.04    0.51
   4   2  11    1.46    0.56
   4   2  11    0.69    0.47
   8  -3 -11   17.94    1.77
   8  -3 -11   17.80    1.76
   8  -3 -11   17.74    1.83
  -8   3  11   22.13    1.41
  -8   3  11   20.22    2.36
   7  -3 -11   32.65    2.02
  -7   3  11   30.68    1.81
  -7   3  11   27.21    2.74
   6  -3 -11    4.79    0.90
  -6   3  11    4.63    1.12
  -6   3  11    4.83    0.85
  -6   3  11    4.30    0.77
   5  -3 -11    4.27    0.83
  -5   3  11    3.52    0.99
  -5   3  11    4.92    0.81
   4  -3 -11    7.74    1.09
  -4   3  11   10.49    1.51
  -4   3  11    7.98    1.04
  -4   3  11    9.47    1.52
   3  -3 -11    0.24    0.32
  -3   3  11    1.62    0.64
  -3   3  11    0.15    0.42
  -3   3  11    0.92    0.47
   2  -3 -11    6.72    1.00
  -2   3  11    7.88    1.38
  -2   3  11    5.62    0.91
  -2   3  11    4.80    1.14
   1  -3 -11    5.12    0.86
  -1   3  11    4.36    1.07
  -1   3  11    3.59    0.75
  -1   3  11    4.55    1.07
   0  -3 -11   13.24    1.34
   0  -3 -11   10.52    1.18
   0   3  11   13.14    1.37
   0   3  11    9.18    1.61
  -1  -3 -11   10.86    1.20
  -1  -3 -11   12.59    1.23
   1   3  11   10.27    1.70
   1   3  11   10.63    1.27
  -2  -3 -11   10.12    1.32
  -2  -3 -11    8.39    1.07
   2   3  11    8.61    1.16
   2   3  11   10.90    1.83
   2   3  11   10.16    1.24
  -3  -3 -11    4.84    0.77
  -3  -3 -11    5.55    1.04
   3   3  11    5.29    0.94
   3   3  11    4.32    0.88
   3   3  11    4.62    1.26
  -4  -3 -11    4.61    0.71
   4   3  11    2.54    1.05
   4   3  11    3.49    0.83
   4   3  11    3.86    0.78
   8  -4 -11    7.65    1.24
  -8   4  11    5.97    1.32
  -8   4  11    7.56    1.05
   7  -4 -11    9.32    1.30
  -7   4  11    9.26    1.56
  -7   4  11   10.52    1.25
   6  -4 -11    2.68    0.68
  -6   4  11    3.95    1.06
   5  -4 -11    0.29    0.38
  -5   4  11    0.98    0.59
  -5   4  11   -0.21    0.36
  -5   4  11    0.23    0.34
   4  -4 -11    3.47    0.76
  -4   4  11    3.33    0.72
  -4   4  11    3.31    0.95
  -4   4  11    2.74    0.88
   3  -4 -11   10.65    1.26
  -3   4  11   10.84    1.61
  -3   4  11    7.98    1.42
  -3   4  11   11.19    1.29
   2  -4 -11   14.19    1.47
  -2   4  11   15.83    2.00
  -2   4  11   18.13    1.66
  -2   4  11   16.58    2.01
   1  -4 -11   15.74    1.50
  -1   4  11   15.97    2.12
  -1   4  11   15.69    1.97
  -1   4  11   16.43    1.60
   0  -4 -11    0.26    0.29
   0  -4 -11    1.23    0.47
   0   4  11    0.43    0.57
   0   4  11    0.63    0.40
  -1  -4 -11    0.87    0.46
  -1  -4 -11    0.41    0.42
   1   4  11    0.81    0.67
   1   4  11    0.46    0.35
   1   4  11    1.48    0.52
  -2  -4 -11    2.57    0.63
  -2  -4 -11    2.86    0.81
   2   4  11    2.82    1.03
   2   4  11    2.84    0.71
   2   4  11    3.04    0.72
  -3  -4 -11   -0.35    0.35
  -3  -4 -11    0.37    0.32
   3   4  11    0.70    0.62
   3   4  11    0.49    0.42
   3   4  11   -0.34    0.26
   7  -5 -11    1.07    0.54
  -7   5  11    2.71    0.96
   6  -5 -11    4.36    0.92
  -6   5  11    2.63    0.94
  -6   5  11    3.22    0.71
   5  -5 -11    1.96    0.62
  -5   5  11    1.60    0.77
  -5   5  11    2.08    0.82
  -5   5  11    3.04    0.75
   4  -5 -11    1.96    0.60
  -4   5  11    1.04    0.66
  -4   5  11    0.95    0.49
  -4   5  11    0.23    0.53
   3  -5 -11    0.41    0.39
  -3   5  11    2.67    0.90
  -3   5  11    0.84    0.42
  -3   5  11    0.75    0.59
   2  -5 -11   11.53    1.31
  -2   5  11    9.47    1.23
  -2   5  11   10.97    1.72
  -2   5  11    9.62    1.54
   1  -5 -11   19.53    1.42
   1  -5 -11   18.13    1.73
  -1   5  11   17.35    1.69
  -1   5  11   19.52    2.35
   0  -5 -11    6.97    1.03
   0   5  11    4.97    1.24
   0   5  11    5.97    1.01
  -1  -5 -11    2.33    0.60
  -1  -5 -11    1.32    0.59
   1   5  11    0.70    0.40
   1   5  11    1.71    0.59
   1   5  11    2.72    1.07
  -2  -5 -11    2.51    0.57
  -2  -5 -11    1.77    0.73
   2   5  11    2.83    0.71
   2   5  11    2.82    1.04
   2   5  11    2.54    0.71
   6  -6 -11   18.18    1.90
  -6   6  11   22.47    2.61
  -6   6  11   23.34    1.68
   5  -6 -11   17.64    1.84
  -5   6  11   17.89    2.20
  -5   6  11   15.35    1.63
  -5   6  11   17.93    2.28
   4  -6 -11    7.01    1.10
  -4   6  11    8.31    1.59
  -4   6  11   10.62    1.33
  -4   6  11    9.10    1.63
   3  -6 -11    6.52    1.04
  -3   6  11    7.09    1.09
  -3   6  11    7.24    1.44
   2  -6 -11    1.38    0.53
  -2   6  11    1.23    0.56
  -2   6  11    0.89    0.68
   1  -6 -11    0.51    0.35
  -1   6  11    0.47    0.44
  -1   6  11   -0.12    0.45
   0  -6 -11    0.65    0.54
   0  -6 -11   -0.14    0.27
   0   6  11   -0.07    0.33
   0   6  11   -0.15    0.40
  -1  -6 -11    5.81    0.91
  -1  -6 -11    3.20    0.91
   1   6  11    3.65    0.85
   1   6  11    4.82    1.36
   1   6  11    3.81    0.83
   4  -7 -11    5.19    1.02
  -4   7  11    3.62    0.82
  -4   7  11    1.36    0.77
   3  -7 -11    1.02    0.47
  -3   7  11    1.38    0.79
  -3   7  11    1.40    0.54
  -2   7  11    0.58    0.68
  -2   7  11    0.89    0.49
   1  -7 -11    6.02    0.96
  -1   7  11    3.71    1.10
   2   7 -12    3.12    0.78
   2   7 -12    2.98    0.71
   2   7 -12    2.39    0.71
  -2  -7  12    2.95    1.05
  -2  -7  12    1.49    0.69
   1   7 -12    4.70    0.87
   1   7 -12    5.55    1.03
  -1  -7  12    5.72    1.17
  -1  -7  12    5.72    0.85
  -1  -7  12    3.87    1.16
   0   7 -12    1.56    0.60
   0   7 -12    1.77    0.59
   0  -7  12    0.52    0.55
   0  -7  12    0.53    0.54
   0  -7  12    1.89    0.60
  -1   7 -12    1.74    0.55
   1  -7  12    1.30    0.67
   1  -7  12    1.13    0.76
   4   6 -12    1.25    0.49
   4   6 -12    1.51    0.60
   4   6 -12    2.06    0.62
  -4  -6  12    3.66    1.10
  -4  -6  12    1.71    0.63
  -4  -6  12    2.42    0.36
  -4  -6  12    2.83    0.83
   3   6 -12    0.56    0.43
   3   6 -12    0.89    0.41
   3   6 -12    0.95    0.48
   3   6 -12    1.37    0.52
  -3  -6  12    1.43    0.61
  -3  -6  12    0.95    0.66
  -3  -6  12    0.99    0.36
   2   6 -12    1.81    0.62
   2   6 -12    2.50    0.67
   2   6 -12    2.90    0.75
   2   6 -12    3.18    0.69
  -2  -6  12    1.97    0.90
  -2  -6  12    2.66    0.56
  -2  -6  12    3.14    0.87
   1   6 -12    9.08    1.30
   1   6 -12   10.35    1.21
  -1  -6  12   14.63    1.84
  -1  -6  12    9.77    1.15
  -1  -6  12   10.64    1.72
   0   6 -12    7.81    1.05
   0   6 -12   10.09    1.38
   0  -6  12   10.08    1.71
   0  -6  12    9.69    1.56
   0  -6  12    9.34    1.18
  -1   6 -12    5.71    0.86
  -1   6 -12    5.51    1.06
   1  -6  12    5.20    1.14
   1  -6  12    3.69    1.17
   1  -6  12    7.03    1.02
  -2   6 -12    2.21    0.67
   2  -6  12    1.75    0.58
   2  -6  12    2.21    0.81
   3  -6  12   -0.09    0.55
   5   5 -12   -0.23    0.23
   5   5 -12   -0.08    0.33
   5   5 -12   -0.26    0.25
  -5  -5  12   -0.15    0.33
  -5  -5  12   -0.28    0.38
  -5  -5  12    0.34    0.47
   4   5 -12    0.14    0.29
   4   5 -12    1.11    0.48
   4   5 -12    0.22    0.38
  -4  -5  12    0.82    0.29
  -4  -5  12    1.35    0.62
  -4  -5  12   -0.40    0.40
  -4  -5  12   -0.23    0.32
   3   5 -12    4.97    0.90
   3   5 -12    4.69    0.86
   3   5 -12    6.66    0.96
  -3  -5  12    5.82    1.15
  -3  -5  12    4.77    0.70
  -3  -5  12    4.13    1.08
   2   5 -12    1.62    0.59
   2   5 -12    1.77    0.53
   2   5 -12    1.52    0.55
   2   5 -12    2.21    0.67
  -2  -5  12    1.91    0.52
  -2  -5  12    2.91    1.01
  -2  -5  12    0.87    0.62
   1   5 -12    1.84    0.52
   1   5 -12    1.21    0.53
   1   5 -12    2.23    0.65
  -1  -5  12    1.92    0.78
  -1  -5  12    2.13    0.58
  -1  -5  12    2.00    0.86
   0   5 -12   -0.24    0.23
   0   5 -12    0.02    0.32
   0  -5  12   -0.07    0.38
   0  -5  12    0.13    0.36
   0  -5  12    0.16    0.33
   0  -5  12    0.60    0.59
  -1   5 -12    0.98    0.43
  -1   5 -12    1.33    0.54
   1  -5  12    0.71    0.44
   1  -5  12    0.86    0.57
  -2   5 -12   -0.17    0.31
  -2   5 -12    0.23    0.43
   2  -5  12    0.16    0.43
   2  -5  12   -0.01    0.35
  -3   5 -12    0.34    0.42
  -3   5 -12   -0.08    0.32
   3  -5  12    0.01    0.35
   3  -5  12    0.36    0.45
   6   4 -12    0.57    0.36
   6   4 -12    0.64    0.44
   6   4 -12    1.11    0.49
  -6  -4  12    1.57    0.64
  -6  -4  12    1.20    0.61
  -6  -4  12    1.64    0.59
   5   4 -12    6.11    1.02
   5   4 -12    7.36    1.02
   5   4 -12    7.39    1.05
  -5  -4  12    6.37    1.17
  -5  -4  12    7.88    1.17
  -5  -4  12    6.93    1.31
  -5  -4  12    3.98    0.54
  -5  -4  12    6.63    0.63
   4   4 -12   22.21    1.58
   4   4 -12   21.01    1.56
   4   4 -12   17.95    1.60
  -4  -4  12   23.15    2.28
  -4  -4  12   22.64    1.67
  -4  -4  12   19.00    2.02
  -4  -4  12   23.12    1.28
   3   4 -12   20.80    1.40
   3   4 -12   19.54    1.49
   3   4 -12   18.48    1.79
  -3  -4  12   23.26    2.32
  -3  -4  12   16.45    1.93
  -3  -4  12   21.06    1.31
   2   4 -12    7.73    1.15
   2   4 -12    6.68    1.04
   2   4 -12    8.02    0.98
  -2  -4  12    7.01    1.29
  -2  -4  12    7.25    0.93
  -2  -4  12    7.30    1.31
   1   4 -12    2.99    0.72
   1   4 -12    3.18    0.62
   1   4 -12    3.41    0.77
  -1  -4  12    2.16    0.77
  -1  -4  12    3.15    0.67
  -1  -4  12    2.77    0.64
  -1  -4  12    2.99    0.92
   0   4 -12    6.86    1.07
   0   4 -12    8.24    0.98
   0   4 -12    8.28    1.22
   0  -4  12    7.66    1.05
   0  -4  12    7.62    1.36
   0  -4  12    9.49    1.61
  -1   4 -12    1.22    0.52
  -1   4 -12    0.41    0.29
  -1   4 -12    4.16    0.86
   1  -4  12    3.26    0.75
   1  -4  12    2.01    0.78
  -2   4 -12    3.58    0.79
  -2   4 -12    4.12    0.92
   2  -4  12    5.15    0.92
   2  -4  12    2.95    0.95
  -3   4 -12    2.75    0.71
  -3   4 -12    2.41    0.79
   3  -4  12    2.47    0.86
   3  -4  12    2.88    0.74
  -4   4 -12    0.21    0.42
  -4   4 -12   -0.15    0.31
   4  -4  12    0.42    0.40
   7   3 -12    2.24    0.61
   7   3 -12    2.81    0.69
   7   3 -12    4.53    0.91
  -7  -3  12    4.31    0.88
  -7  -3  12    2.76    0.86
  -7  -3  12    1.68    0.71
   6   3 -12    9.44    1.18
   6   3 -12   10.49    1.31
   6   3 -12    9.11    1.14
  -6  -3  12    7.99    1.18
  -6  -3  12    7.46    1.28
  -6  -3  12    9.33    0.59
  -6  -3  12    8.88    1.32
   5   3 -12    9.57    1.14
   5   3 -12    7.56    1.07
   5   3 -12   11.67    1.37
  -5  -3  12    8.33    0.83
  -5  -3  12   12.88    1.47
  -5  -3  12    8.94    1.31
  -5  -3  12   11.25    1.55
   4   3 -12    0.74    0.39
   4   3 -12    0.18    0.33
   4   3 -12    0.58    0.38
  -4  -3  12    1.05    0.37
  -4  -3  12    0.79    0.52
  -4  -3  12    0.85    0.55
   3   3 -12    1.59    0.54
   3   3 -12    1.60    0.53
   3   3 -12    2.02    0.55
  -3  -3  12    2.02    0.70
  -3  -3  12    2.05    0.77
  -3  -3  12    2.32    0.55
   2   3 -12    0.13    0.31
   2   3 -12   -0.11    0.24
   2   3 -12   -0.04    0.22
  -2  -3  12    0.37    0.34
  -2  -3  12    0.27    0.40
  -2  -3  12   -0.16    0.37
  -2  -3  12    0.07    0.28
   1   3 -12    0.24    0.28
   1   3 -12    0.56    0.35
  -1  -3  12    0.45    0.34
  -1  -3  12    0.91    0.59
  -1  -3  12    0.23    0.32
  -1  -3  12    0.67    0.54
   0   3 -12    0.99    0.38
   0   3 -12    2.62    0.69
   0   3 -12    1.33    0.55
   0   3 -12    1.04    0.47
   0  -3  12    1.26    0.47
   0  -3  12    2.32    0.81
   0  -3  12    0.66    0.59
  -1   3 -12    7.93    1.16
  -1   3 -12    6.76    1.11
   1  -3  12    8.50    1.50
   1  -3  12    8.83    1.15
  -2   3 -12   11.75    1.37
  -2   3 -12   10.41    1.42
   2  -3  12   11.29    1.80
   2  -3  12   10.08    1.58
   2  -3  12    9.98    1.26
  -3   3 -12    6.65    1.06
  -3   3 -12    4.33    1.01
   3  -3  12    3.72    0.99
   3  -3  12    5.82    0.98
  -4   3 -12    0.41    0.40
  -4   3 -12    0.00    0.40
   4  -3  12    1.74    0.63
   7   2 -12    2.64    0.72
   7   2 -12    1.91    0.60
   7   2 -12    1.52    0.52
  -7  -2  12    2.55    0.25
  -7  -2  12    1.26    0.71
  -7  -2  12    1.91    0.65
   6   2 -12    4.89    0.84
   6   2 -12    6.26    1.01
   6   2 -12    5.19    0.95
  -6  -2  12    5.61    1.00
  -6  -2  12    4.50    0.58
  -6  -2  12    2.32    0.76
  -6  -2  12    5.04    0.92
   5   2 -12    2.66    0.61
   5   2 -12    3.09    0.70
   5   2 -12    3.07    0.72
  -5  -2  12    3.45    0.84
  -5  -2  12    3.82    0.99
  -5  -2  12    4.19    0.64
   4   2 -12    3.68    0.75
   4   2 -12    2.48    0.55
   4   2 -12    3.42    0.74
  -4  -2  12    5.66    1.02
  -4  -2  12    4.08    0.70
  -4  -2  12    3.18    0.93
   3   2 -12    2.93    0.58
   3   2 -12    5.04    0.88
   3   2 -12    2.58    0.65
  -3  -2  12    3.46    0.84
  -3  -2  12    4.45    0.75
  -3  -2  12    2.63    0.86
   2   2 -12   10.75    1.07
   2   2 -12   10.18    1.25
  -2  -2  12    5.85    1.21
  -2  -2  12    9.15    1.14
  -2  -2  12   12.24    1.63
  -2  -2  12    7.78    1.24
  -2  -2  12    8.45    1.06
   1   2 -12    6.88    1.03
   1   2 -12    7.34    0.84
  -1  -2  12    5.69    1.15
  -1  -2  12    6.89    1.23
  -1  -2  12    5.08    0.84
  -1  -2  12    5.87    1.21
   0   2 -12    8.54    1.13
   0   2 -12    8.74    1.15
   0   2 -12   10.76    1.33
   0  -2  12    9.22    1.49
   0  -2  12    9.10    1.15
   0  -2  12    9.99    1.56
  -1   2 -12    6.04    1.08
  -1   2 -12    8.35    1.13
  -1   2 -12    8.34    1.13
   1  -2  12    9.38    1.59
   1  -2  12    8.70    1.48
   1  -2  12    9.00    1.16
  -2   2 -12    0.19    0.41
  -2   2 -12    0.76    0.45
   2  -2  12    1.80    0.80
   2  -2  12    0.60    0.40
   2  -2  12    0.57    0.56
  -3   2 -12    0.15    0.36
  -3   2 -12    0.04    0.33
   3  -2  12    0.36    0.57
   3  -2  12    0.34    0.38
  -4   2 -12    0.31    0.42
   4  -2  12    1.63    0.87
   4  -2  12    0.23    0.39
   7   1 -12    0.99    0.53
   7   1 -12    0.82    0.45
  -7  -1  12    1.70    0.65
  -7  -1  12    0.83    0.60
  -7  -1  12    0.77    0.28
   6   1 -12    0.00    0.28
   6   1 -12    0.31    0.35
   6   1 -12    0.51    0.36
  -6  -1  12   -0.05    0.23
  -6  -1  12    0.70    0.51
   5   1 -12   -0.18    0.27
   5   1 -12    0.12    0.25
   5   1 -12   -0.02    0.31
  -5  -1  12   -0.20    0.41
  -5  -1  12   -0.22    0.23
   4   1 -12   -0.10    0.18
   4   1 -12    0.00    0.23
   4   1 -12    0.26    0.28
  -4  -1  12    0.21    0.30
  -4  -1  12    0.04    0.50
   3   1 -12   17.04    1.63
   3   1 -12   19.80    1.21
  -3  -1  12   16.99    1.58
  -3  -1  12   17.95    1.26
  -3  -1  12   15.98    1.98
  -3  -1  12   20.19    2.05
   2   1 -12   13.86    1.47
   2   1 -12   17.41    1.10
  -2  -1  12   16.43    1.87
  -2  -1  12   14.57    1.83
  -2  -1  12   14.24    1.38
  -2  -1  12   16.83    1.75
   1   1 -12    9.33    1.20
  -1  -1  12    9.59    1.12
  -1  -1  12   10.99    1.61
  -1  -1  12   10.94    1.48
  -1  -1  12   11.98    1.64
   0   1 -12    5.69    0.90
   0  -1  12    4.22    0.80
   0  -1  12    4.59    1.07
   0  -1  12    2.46    0.85
  -1   1 -12    3.62    0.75
  -1   1 -12    4.04    0.81
   1  -1  12    3.77    1.06
   1  -1  12    3.95    0.79
   1  -1  12    3.79    1.04
  -2   1 -12    2.73    0.72
  -2   1 -12    4.73    0.86
   2  -1  12    3.74    1.08
   2  -1  12    3.85    0.78
   2  -1  12    2.26    0.81
  -3   1 -12    2.25    0.70
  -3   1 -12    2.47    0.64
   3  -1  12    2.56    0.70
   3  -1  12    2.78    1.01
  -4   1 -12    1.48    0.62
  -4   1 -12    2.61    0.72
   4  -1  12    1.25    0.53
   4  -1  12    1.95    0.89
  -8   0  12    9.75    1.61
   7   0 -12    1.03    0.48
   7   0 -12    0.53    0.38
  -7   0  12    0.26    0.48
  -7   0  12    0.22    0.27
   6   0 -12    2.61    0.68
   6   0 -12    1.42    0.54
  -6   0  12    2.13    0.83
  -6   0  12    1.96    0.49
   5   0 -12    5.93    0.99
   5   0 -12    5.73    0.95
  -5   0  12    7.81    0.99
  -5   0  12    5.23    1.17
   4   0 -12   11.94    1.14
   4   0 -12   11.71    1.35
  -4   0  12   13.85    1.31
  -4   0  12   13.72    1.40
  -4   0  12   12.43    1.72
   3   0 -12    5.79    0.94
   3   0 -12    9.07    0.96
  -3   0  12    5.25    1.08
  -3   0  12    8.36    1.04
  -3   0  12    7.39    1.01
  -3   0  12    8.01    1.42
   2   0 -12    1.32    0.49
  -2   0  12    2.66    0.87
  -2   0  12    2.78    0.87
  -2   0  12    2.06    0.56
   1   0 -12   -0.37    0.23
  -1   0  12    0.17    0.52
  -1   0  12    0.10    0.46
  -1   0  12    0.74    0.39
   0   0 -12    0.45    0.36
   0   0  12    0.31    0.59
   0   0  12    1.17    0.63
   0   0  12    0.87    0.45
  -1   0 -12    0.38    0.35
  -1   0 -12    0.02    0.27
   1   0  12    0.25    0.32
   1   0  12    0.32    0.49
   1   0  12    0.78    0.58
  -2   0 -12    0.36    0.37
   2   0  12   -0.45    0.39
   2   0  12    0.15    0.35
  -3   0 -12    1.87    0.57
  -3   0 -12    2.48    0.71
   3   0  12    2.71    0.99
   3   0  12    2.18    0.67
  -4   0 -12    1.44    0.54
  -4   0 -12    0.41    0.42
   4   0  12    1.15    0.75
   4   0  12    1.10    0.54
   8  -1 -12    0.58    0.46
  -8   1  12    1.32    0.71
   7  -1 -12    1.28    0.50
   7  -1 -12    1.92    0.67
  -7   1  12    1.33    0.41
  -7   1  12    2.45    0.86
   6  -1 -12   -0.35    0.27
   6  -1 -12    0.19    0.36
  -6   1  12    0.32    0.57
  -6   1  12   -0.08    0.27
   5  -1 -12    4.29    0.87
  -5   1  12    6.79    0.99
  -5   1  12    5.48    1.21
   4  -1 -12    1.84    0.62
  -4   1  12    2.77    0.92
  -4   1  12    2.60    0.65
  -4   1  12    2.36    0.57
   3  -1 -12    3.73    0.79
  -3   1  12    5.30    1.19
  -3   1  12    5.48    0.86
  -3   1  12    5.36    1.20
   2  -1 -12   19.58    1.81
  -2   1  12   22.97    2.41
  -2   1  12   20.75    2.27
  -2   1  12   19.47    1.41
   1  -1 -12   16.76    1.59
  -1   1  12   14.96    2.01
  -1   1  12   15.88    1.98
  -1   1  12   16.85    1.55
   0  -1 -12    5.65    0.95
   0   1  12    8.12    1.11
   0   1  12    8.74    1.62
   0   1  12    6.57    1.32
  -1  -1 -12    7.85    1.06
  -1  -1 -12    8.24    1.09
   1   1  12    6.57    1.02
   1   1  12    8.31    1.62
  -2  -1 -12    8.00    1.09
  -2  -1 -12    9.26    1.18
   2   1  12   11.78    1.40
   2   1  12    8.72    1.64
  -3  -1 -12    7.28    1.05
   3   1  12    7.64    1.14
   3   1  12    6.27    1.50
  -4  -1 -12    3.07    0.71
   4   1  12    3.57    0.83
   4   1  12    1.94    0.94
   7  -2 -12   20.03    1.91
   7  -2 -12   12.99    1.61
  -7   2  12   17.83    2.27
  -7   2  12   24.13    1.51
   6  -2 -12    5.00    0.97
  -6   2  12    7.17    0.99
  -6   2  12    5.62    1.24
   5  -2 -12    7.88    1.17
  -5   2  12    7.86    1.10
  -5   2  12    2.95    0.96
  -5   2  12    7.81    1.03
   4  -2 -12    4.11    0.88
  -4   2  12    2.21    0.81
  -4   2  12    3.51    0.71
  -4   2  12    2.25    0.82
   3  -2 -12    0.12    0.27
  -3   2  12    0.93    0.61
  -3   2  12    1.05    0.60
  -3   2  12    0.94    0.40
   2  -2 -12    1.59    0.57
  -2   2  12    1.42    0.54
  -2   2  12    2.14    0.82
  -2   2  12    2.04    0.82
   1  -2 -12    1.16    0.50
  -1   2  12    1.09    0.64
  -1   2  12    1.45    0.71
  -1   2  12    0.77    0.42
   0  -2 -12    0.30    0.32
   0   2  12    0.32    0.36
   0   2  12    0.83    0.66
   0   2  12    0.38    0.56
  -1  -2 -12    3.58    0.73
  -1  -2 -12    5.05    0.88
   1   2  12    2.54    1.04
   1   2  12    3.32    0.76
  -2  -2 -12    1.77    0.57
  -2  -2 -12    2.88    0.73
   2   2  12    2.47    0.67
   2   2  12    1.53    0.85
  -3  -2 -12    2.71    0.66
   3   2  12    1.82    0.99
   3   2  12    2.76    0.78
   7  -3 -12    4.18    0.94
  -7   3  12    2.67    0.98
  -7   3  12    5.86    0.94
   6  -3 -12   -0.21    0.27
  -6   3  12    0.08    0.55
  -6   3  12    0.36    0.38
   5  -3 -12    0.01    0.32
  -5   3  12    0.58    0.60
  -5   3  12    0.78    0.46
   4  -3 -12    3.13    0.73
  -4   3  12    2.51    0.87
  -4   3  12    2.78    0.69
  -4   3  12    1.55    0.69
   3  -3 -12    4.00    0.79
  -3   3  12    2.69    0.94
  -3   3  12    2.22    0.61
  -3   3  12    2.35    0.89
   2  -3 -12    3.00    0.73
  -2   3  12    2.31    0.90
  -2   3  12    2.65    0.95
  -2   3  12    2.35    0.62
   1  -3 -12    9.20    1.22
  -1   3  12    9.07    1.53
  -1   3  12   10.26    1.66
  -1   3  12    9.41    1.23
   0  -3 -12    7.83    1.09
   0   3  12    8.85    1.69
   0   3  12    8.15    1.20
  -1  -3 -12    3.14    0.73
   1   3  12    3.24    1.12
   1   3  12    2.11    0.65
  -2  -3 -12   -0.19    0.29
  -2  -3 -12    0.76    0.48
   2   3  12    0.09    0.60
   2   3  12   -0.26    0.26
   7  -4 -12    9.72    1.35
  -7   4  12   13.94    1.51
  -7   4  12   12.03    1.94
   6  -4 -12    0.65    0.51
  -6   4  12    1.57    0.60
  -6   4  12    1.49    0.75
   5  -4 -12    1.28    0.61
  -5   4  12    0.67    0.42
  -5   4  12    0.60    0.58
   4  -4 -12    0.22    0.30
  -4   4  12    0.04    0.33
  -4   4  12    0.53    0.62
  -4   4  12   -0.18    0.47
   3  -4 -12    0.55    0.43
  -3   4  12   -0.15    0.40
  -3   4  12    0.59    0.41
  -3   4  12    0.51    0.57
   2  -4 -12    2.42    0.69
  -2   4  12    1.00    0.49
  -2   4  12    1.26    0.81
  -2   4  12    2.10    0.85
   1  -4 -12   15.03    1.53
  -1   4  12   14.66    2.08
  -1   4  12   14.46    1.60
   0  -4 -12    9.51    1.22
   0   4  12   10.03    1.26
   0   4  12    9.09    1.71
  -1  -4 -12    5.19    1.08
  -1  -4 -12    4.52    0.85
   1   4  12    4.22    0.90
   1   4  12    4.34    1.23
  -2  -4 -12    4.32    0.79
  -2  -4 -12    4.96    1.01
   2   4  12    4.81    1.34
   2   4  12    5.16    0.99
   6  -5 -12   14.77    1.74
  -6   5  12   16.63    1.64
  -6   5  12   16.51    2.28
   5  -5 -12    6.64    1.13
  -5   5  12    5.15    1.20
  -5   5  12    6.03    1.40
  -5   5  12    3.61    0.81
   4  -5 -12    5.29    0.99
  -4   5  12    6.48    1.35
  -4   5  12    5.22    0.97
  -4   5  12    4.69    1.24
   3  -5 -12    8.29    1.21
  -3   5  12   10.81    1.82
  -3   5  12    7.51    1.44
  -3   5  12    4.86    0.90
   2  -5 -12    5.42    0.94
  -2   5  12    6.47    1.48
  -2   5  12    4.94    0.94
   1  -5 -12    0.22    0.35
  -1   5  12    0.00    0.48
  -1   5  12   -0.15    0.36
   0  -5 -12    0.32    0.39
   0   5  12   -0.06    0.35
   0   5  12   -0.20    0.41
   4  -6 -12    1.74    0.66
  -4   6  12    1.95    0.93
  -4   6  12    2.63    0.94
   3  -6 -12    0.56    0.44
  -3   6  12    0.31    0.41
  -3   6  12    1.85    0.78
   2  -6 -12   -0.04    0.38
  -2   6  12   -0.21    0.44
  -2   6  12   -0.18    0.40
   3   5 -13    0.17    0.34
   3   5 -13    0.62    0.43
   3   5 -13    0.40    0.41
  -3  -5  13    0.97    0.62
  -3  -5  13    0.50    0.54
  -3  -5  13    0.53    0.35
   2   5 -13    1.31    0.58
   2   5 -13    1.67    0.61
   2   5 -13    1.02    0.47
  -2  -5  13    1.95    0.82
  -2  -5  13    2.12    0.57
  -2  -5  13    0.76    0.65
   1   5 -13    9.54    1.30
   1   5 -13    9.91    1.36
   1   5 -13    8.23    1.09
  -1  -5  13   11.96    1.89
  -1  -5  13    9.51    1.19
  -1  -5  13    8.83    1.52
   0   5 -13    0.84    0.52
   0   5 -13    1.01    0.42
   0  -5  13    0.01    0.49
   0  -5  13    0.95    0.65
  -1   5 -13    0.36    0.43
   1  -5  13    0.11    0.49
   1  -5  13    0.88    0.62
   1  -5  13    0.15    0.40
  -5  -4  13    7.44    1.40
   4   4 -13    5.59    1.01
   4   4 -13    5.89    0.90
   4   4 -13    7.08    1.13
  -4  -4  13    4.11    0.66
  -4  -4  13    4.88    1.11
  -4  -4  13    5.70    1.24
   3   4 -13    8.65    1.08
   3   4 -13    7.05    1.13
   3   4 -13    9.99    1.29
  -3  -4  13    8.17    0.99
  -3  -4  13    7.04    1.42
  -3  -4  13   10.71    1.70
   2   4 -13    0.85    0.48
   2   4 -13    0.97    0.42
  -2  -4  13    0.51    0.56
  -2  -4  13    0.85    0.44
  -2  -4  13    0.11    0.43
   1   4 -13   -0.11    0.32
   1   4 -13   -0.15    0.30
   1   4 -13   -0.10    0.30
  -1  -4  13    0.19    0.38
  -1  -4  13    0.62    0.58
  -1  -4  13   -0.12    0.41
   0   4 -13    0.18    0.30
   0   4 -13   -0.01    0.37
   0  -4  13    0.51    0.52
   0  -4  13    0.99    0.63
   0  -4  13    0.84    0.50
  -1   4 -13    0.04    0.34
   1  -4  13    0.45    0.60
   1  -4  13   -0.01    0.35
  -2   4 -13    1.77    0.64
  -2   4 -13    1.21    0.61
   2  -4  13    2.19    0.72
   2  -4  13    1.81    0.85
   5   3 -13    1.77    0.55
   5   3 -13    3.14    0.80
   5   3 -13    2.28    0.63
  -5  -3  13    2.71    0.51
  -5  -3  13    2.25    0.80
  -5  -3  13    2.92    0.84
   4   3 -13    9.25    1.25
   4   3 -13    7.28    1.00
   4   3 -13    8.84    1.23
  -4  -3  13    7.97    1.45
  -4  -3  13    7.98    0.97
  -4  -3  13    9.37    1.40
   3   3 -13   10.70    1.38
   3   3 -13   13.26    1.29
  -3  -3  13   15.05    1.82
  -3  -3  13   10.84    1.67
  -3  -3  13   10.69    1.20
   2   3 -13    0.10    0.29
   2   3 -13   -0.06    0.34
  -2  -3  13    0.09    0.30
  -2  -3  13   -0.39    0.40
  -2  -3  13   -0.12    0.40
   1   3 -13   -0.24    0.23
   1   3 -13   -0.12    0.23
   1   3 -13    0.24    0.32
  -1  -3  13   -0.26    0.35
  -1  -3  13   -0.02    0.30
  -1  -3  13    0.15    0.41
   0   3 -13    7.77    1.16
   0   3 -13    6.67    1.07
   0  -3  13    7.58    1.44
   0  -3  13    7.09    1.43
   0  -3  13    9.13    1.17
  -1   3 -13    1.29    0.59
  -1   3 -13    1.23    0.54
   1  -3  13    0.97    0.66
   1  -3  13    1.05    0.53
  -2   3 -13   -0.56    0.33
  -2   3 -13   -0.17    0.29
   2  -3  13   -0.36    0.38
   2  -3  13   -0.15    0.30
   6   2 -13   -0.09    0.34
   6   2 -13   -0.14    0.35
   6   2 -13    0.33    0.34
  -6  -2  13    0.10    0.23
  -6  -2  13   -0.09    0.41
   5   2 -13    0.14    0.33
   5   2 -13    0.13    0.36
   5   2 -13   -0.05    0.28
  -5  -2  13    0.23    0.28
  -5  -2  13   -0.43    0.44
   4   2 -13    0.18    0.29
   4   2 -13    0.00    0.33
   4   2 -13    0.23    0.37
  -4  -2  13   -0.11    0.52
  -4  -2  13   -0.09    0.30
   3   2 -13    0.55    0.31
   3   2 -13    0.83    0.48
  -3  -2  13    0.01    0.42
  -3  -2  13    0.45    0.47
  -3  -2  13    0.59    0.36
   2   2 -13    1.06    0.49
   2   2 -13    0.70    0.38
  -2  -2  13    1.04    0.57
  -2  -2  13    0.95    0.58
  -2  -2  13    1.20    0.47
  -2  -2  13    1.79    0.74
   1   2 -13    0.13    0.31
  -1  -2  13    0.76    0.63
  -1  -2  13   -0.21    0.43
  -1  -2  13    0.44    0.35
  -1  -2  13    0.24    0.48
   0   2 -13    2.20    0.61
   0   2 -13    2.71    0.75
   0   2 -13    3.52    0.81
   0  -2  13    3.48    0.99
   0  -2  13    5.14    1.13
   0  -2  13    3.92    0.81
   0  -2  13    6.99    1.45
  -1   2 -13    1.25    0.56
  -1   2 -13    1.70    0.66
   1  -2  13    1.00    0.68
   1  -2  13    0.69    0.64
   1  -2  13    0.60    0.40
  -2   2 -13    2.86    0.84
  -2   2 -13    3.87    0.85
   2  -2  13    3.32    1.05
   2  -2  13    3.04    0.98
   2  -2  13    3.62    0.82
  -3   2 -13    4.61    0.92
   3  -2  13    5.81    1.06
   3  -2  13    4.47    1.26
   6   1 -13    5.06    0.98
   6   1 -13    4.18    0.77
   6   1 -13    4.79    0.93
  -6  -1  13    7.29    1.44
  -6  -1  13    5.81    0.80
   5   1 -13    2.24    0.55
   5   1 -13    1.91    0.62
  -5  -1  13    2.22    0.89
  -5  -1  13    2.34    0.57
   4   1 -13    4.71    0.74
   4   1 -13    4.44    0.87
  -4  -1  13    5.76    0.92
  -4  -1  13    3.97    1.09
   3   1 -13   12.47    1.44
   3   1 -13   14.97    1.30
  -3  -1  13   12.19    1.36
  -3  -1  13   13.40    1.88
  -3  -1  13   14.52    1.42
   2   1 -13   25.93    1.82
  -2  -1  13   32.67    3.01
  -2  -1  13   26.42    2.62
  -2  -1  13   31.99    1.84
   1   1 -13    2.19    0.64
  -1  -1  13    2.69    0.65
  -1  -1  13    2.43    0.84
  -1  -1  13    1.99    0.80
   0   1 -13    0.36    0.38
   0   1 -13    0.84    0.49
   0  -1  13    0.53    0.41
   0  -1  13    0.08    0.52
   0  -1  13    0.68    0.65
  -1   1 -13    3.23    0.82
  -1   1 -13    3.17    0.75
   1  -1  13    3.40    1.07
   1  -1  13    3.94    1.10
   1  -1  13    3.56    0.76
  -2   1 -13   -0.02    0.42
  -2   1 -13   -0.03    0.34
   2  -1  13   -0.34    0.44
   2  -1  13    0.36    0.37
  -3   1 -13    1.34    0.59
   3  -1  13    0.84    0.48
   3  -1  13    0.63    0.64
   6   0 -13   -0.08    0.31
   6   0 -13    0.53    0.47
  -6   0  13    0.59    0.36
  -6   0  13    0.32    0.57
   5   0 -13    0.07    0.23
   5   0 -13    0.04    0.34
  -5   0  13    0.27    0.32
  -5   0  13    0.54    0.59
   4   0 -13    0.39    0.30
   4   0 -13    0.21    0.36
  -4   0  13   -0.32    0.27
  -4   0  13    0.02    0.51
   3   0 -13    2.39    0.66
  -3   0  13    1.91    0.78
  -3   0  13    2.65    0.97
  -3   0  13    4.36    0.78
   2   0 -13    7.50    1.11
  -2   0  13    8.40    1.44
  -2   0  13   10.27    1.22
  -2   0  13    7.59    1.41
   1   0 -13    0.86    0.47
  -1   0  13    0.47    0.41
  -1   0  13    0.77    0.62
  -1   0  13    0.08    0.43
   0   0 -13    1.01    0.51
   0   0  13    1.23    0.50
   0   0  13    2.55    0.89
   0   0  13    1.49    0.75
  -1   0 -13    2.11    0.64
  -1   0 -13    3.49    0.79
   1   0  13    2.07    0.87
   1   0  13    2.83    0.90
   1   0  13    4.33    0.87
  -2   0 -13    0.18    0.39
   2   0  13    0.43    0.62
   2   0  13   -0.05    0.40
   6  -1 -13    2.80    0.81
  -6   1  13    2.89    0.93
  -6   1  13    2.94    0.71
   5  -1 -13    5.07    0.97
  -5   1  13    5.25    1.22
  -5   1  13    5.72    0.95
   4  -1 -13    4.48    0.91
  -4   1  13    4.69    1.21
  -4   1  13    6.10    0.90
   3  -1 -13    1.09    0.45
  -3   1  13   -0.07    0.56
  -3   1  13    0.42    0.52
  -3   1  13    0.38    0.36
   2  -1 -13    0.86    0.49
  -2   1  13    1.47    0.50
  -2   1  13    0.48    0.66
  -2   1  13    1.50    0.76
   1  -1 -13    7.30    1.09
  -1   1  13    9.14    1.21
  -1   1  13    8.03    1.58
   0  -1 -13    0.61    0.41
   0   1  13    1.05    0.49
   0   1  13    0.69    0.68
   0   1  13    0.67    0.64
  -1  -1 -13   -0.15    0.31
  -1  -1 -13    0.23    0.37
   1   1  13   -0.35    0.26
   1   1  13    0.61    0.63
   2   1  13    0.07    0.44
   2   1  13    0.18    0.37
   6  -2 -13    2.13    0.67
  -6   2  13    2.01    0.94
  -6   2  13    3.98    0.83
   5  -2 -13    4.87    0.96
  -5   2  13    5.32    1.25
  -5   2  13    1.38    0.52
   4  -2 -13    5.12    0.93
  -4   2  13    4.37    1.21
  -4   2  13    5.41    0.90
   3  -2 -13    3.70    0.80
  -3   2  13    4.14    1.15
  -3   2  13    3.83    0.79
  -3   2  13    4.04    1.12
   2  -2 -13    3.99    0.86
  -2   2  13    3.94    1.08
  -2   2  13    3.95    0.81
  -2   2  13    4.98    1.23
   1  -2 -13    9.34    1.24
  -1   2  13    9.07    1.75
  -1   2  13    5.98    1.01
   0  -2 -13    1.19    0.49
   0   2  13    1.48    0.82
   0   2  13    1.10    0.53
  -1  -2 -13    3.44    0.82
  -1  -2 -13    3.28    0.76
   1   2  13    2.29    0.96
   1   2  13    3.43    0.83
   6  -3 -13    0.75    0.49
  -6   3  13    1.44    0.76
   5  -3 -13   -0.05    0.31
  -5   3  13    0.33    0.61
  -5   3  13   -0.31    0.30
   4  -3 -13    0.66    0.42
  -4   3  13    0.60    0.42
  -4   3  13   -0.16    0.60
  -4   3  13    0.88    0.64
   3  -3 -13    0.40    0.46
  -3   3  13    0.49    0.58
  -3   3  13    0.86    0.49
  -3   3  13   -0.10    0.54
   2  -3 -13    0.56    0.44
  -2   3  13    1.06    0.52
  -2   3  13    0.37    0.63
  -2   3  13    0.80    0.60
   1  -3 -13    1.65    0.60
  -1   3  13    1.72    0.87
  -1   3  13    1.54    0.59
   0  -3 -13    0.07    0.34
   0   3  13    0.04    0.37
   0   3  13    0.16    0.53
  -1  -3 -13    1.22    0.57
   1   3  13    0.50    0.68
  -5   4  13    1.33    0.86
   4  -4 -13    2.24    0.73
  -4   4  13    1.42    0.57
  -4   4  13    0.91    0.69
  -4   4  13    2.45    0.98
   3  -4 -13    6.07    1.05
  -3   4  13    5.44    1.31
  -3   4  13    5.70    1.34
  -3   4  13    5.95    1.01
   2  -4 -13    7.32    1.10
  -2   4  13    7.30    1.17
  -2   4  13    6.33    1.48
   1  -4 -13    7.92    1.13
  -1   4  13   10.16    1.83
  -1   4  13    9.89    1.37
   3   3 -14    1.71    0.55
   3   3 -14    0.59    0.52
  -3  -3  14    1.39    0.72
  -3  -3  14    1.87    0.62
  -3  -3  14    1.60    0.82
   2   3 -14    1.45    0.60
   2   3 -14    0.91    0.45
  -2  -3  14    0.48    0.54
  -2  -3  14    0.12    0.52
  -2  -3  14    0.31    0.39
   1   3 -14    0.25    0.38
   1   3 -14    0.15    0.37
  -1  -3  14    0.65    0.63
  -1  -3  14    0.45    0.50
  -1  -3  14   -0.12    0.50
   0   3 -14   -0.10    0.30
   0  -3  14   -0.11    0.28
   0  -3  14    1.09    0.70
   0  -3  14   -0.24    0.48
   4   2 -14    6.45    0.96
   4   2 -14    5.02    0.99
  -4  -2  14    4.82    0.84
  -4  -2  14    3.88    1.10
   3   2 -14    4.71    0.93
   3   2 -14    4.95    0.82
  -3  -2  14    5.13    0.91
  -3  -2  14    4.35    1.20
   2   2 -14    0.90    0.50
  -2  -2  14    1.43    0.75
  -2  -2  14    0.82    0.56
  -2  -2  14    0.27    0.36
   1   2 -14    0.22    0.36
  -1  -2  14    1.65    0.80
  -1  -2  14    1.45    0.54
  -1  -2  14    1.17    0.78
   0   2 -14   11.69    1.48
   0   2 -14   10.82    1.52
   0   2 -14   10.30    1.39
   0  -2  14    7.61    1.54
   0  -2  14   12.19    1.43
   4   1 -14    0.97    0.44
   4   1 -14    0.64    0.43
  -4  -1  14    0.51    0.42
  -4  -1  14    0.45    0.65
   3   1 -14    1.51    0.61
  -3  -1  14    1.85    0.88
   2   1 -14   -0.09    0.27
  -2  -1  14   -0.19    0.47
  -2  -1  14    0.45    0.43
  -2  -1  14    0.07    0.41
   1   1 -14   -0.15    0.25
  -1  -1  14   -0.16    0.51
  -1  -1  14    0.07    0.44
  -1  -1  14    0.07    0.37
   0   1 -14    2.66    0.74
   0   1 -14    2.10    0.69
   0  -1  14    3.78    1.19
   0  -1  14    1.76    0.63
   0  -1  14    1.80    0.75
   4   0 -14    4.64    0.94
  -4   0  14    5.25    0.94
  -4   0  14    6.42    1.49
   3   0 -14   17.04    1.78
  -3   0  14   17.23    2.26
  -3   0  14   17.58    1.63
   2   0 -14   10.95    1.44
  -2   0  14    8.04    1.49
  -2   0  14    9.68    1.74
  -2   0  14    8.34    1.17
   1   0 -14    0.15    0.41
  -1   0  14    1.04    0.73
  -1   0  14    0.81    0.48
  -1   0  14    1.30    0.84
   0   0 -14    0.79    0.49
   0   0 -14    1.05    0.52
   0   0  14    0.48    0.47
   0   0  14    0.74    0.75
   0   0  14    1.02    0.66
   4  -1 -14    6.54    1.09
  -4   1  14    5.11    1.32
  -4   1  14    6.16    0.99
   3  -1 -14    3.87    0.84
  -3   1  14    4.06    1.16
  -3   1  14    3.88    0.81
  -3   1  14    5.31    1.34
   2  -1 -14    1.74    0.65
  -2   1  14    1.55    0.63
  -2   1  14    1.85    0.81
  -2   1  14    0.18    0.59
   1  -1 -14   -0.09    0.33
  -1   1  14    0.01    0.57
  -1   1  14   -0.33    0.52
  -1   1  14   -0.01    0.30
   0   1  14    0.65    0.75
   3  -2 -14    1.87    0.63
  -3   2  14    1.75    0.87
  -3   2  14    1.62    0.60
  -3   2  14    2.70    1.00
   2  -2 -14    3.51    0.88
  -2   2  14    3.64    0.85
  -2   2  14    5.66    1.35
  -2   2  14    2.96    1.08
   0   0   0    0.00    0.00
;
_shelx_hkl_checksum              79873
loop_
_space_group_symop_operation_xyz
'x, y, z'
'-x, -y, -z'
loop_
_atom_site_label
_atom_site_type_symbol
_atom_site_fract_x
_atom_site_fract_y
_atom_site_fract_z
_atom_site_U_iso_or_equiv
_atom_site_adp_type
_atom_site_occupancy
_atom_site_site_symmetry_order
_atom_site_calc_flag
_atom_site_refinement_flags_posn
_atom_site_refinement_flags_adp
Fe1 Fe 0.46320(3) 0.20831(2) 0.77491(2) 0.01856(8) Uani 1 1 d . .
O2 O 0.44718(13) 0.21224(13) 0.58467(10) 0.0221(2) Uani 1 1 d . .
O1 O 0.55669(14) 0.17060(13) 0.41640(10) 0.0239(2) Uani 1 1 d . .
O4 O 0.78817(14) 0.08880(15) 1.05692(11) 0.0291(3) Uani 1 1 d . .
O3 O 0.57301(13) 0.16050(13) 0.94692(10) 0.0216(2) Uani 1 1 d . .
O5 O 0.27937(14) 0.28558(13) 0.80993(12) 0.0273(3) Uani 1 1 d . .
O6 O 0.58614(14) 0.42002(13) 0.80171(12) 0.0269(3) Uani 1 1 d . .
O7 O 0.32582(13) -0.00186(12) 0.74359(10) 0.0212(2) Uani 1 1 d . .
H7A H 0.323859 -0.035590 0.827234 0.032 Uiso 1 1 d R U
H7B H 0.377045 -0.056918 0.709311 0.032 Uiso 1 1 d R U
N1 N 0.66642(15) 0.13576(14) 0.73883(12) 0.0171(3) Uani 1 1 d . .
C1 C 0.55665(18) 0.17288(17) 0.53058(15) 0.0189(3) Uani 1 1 d . .
C2 C 0.69162(18) 0.12729(17) 0.62090(14) 0.0184(3) Uani 1 1 d . .
C3 C 0.82546(19) 0.07832(19) 0.59290(16) 0.0240(3) Uani 1 1 d . .
H3 H 0.843942 0.071889 0.508570 0.029 Uiso 1 1 calc R U
C4 C 0.9321(2) 0.0388(2) 0.69210(17) 0.0282(4) Uani 1 1 d . .
H4 H 1.025737 0.005823 0.675906 0.034 Uiso 1 1 calc R U
C5 C 0.90268(19) 0.0472(2) 0.81529(16) 0.0248(3) Uani 1 1 d . .
H5 H 0.974330 0.019291 0.883533 0.030 Uiso 1 1 calc R U
C6 C 0.76620(18) 0.09728(17) 0.83479(14) 0.0190(3) Uani 1 1 d . .
C7 C 0.70694(18) 0.11589(18) 0.95766(15) 0.0203(3) Uani 1 1 d . .
C8 C 0.0984(3) 0.4403(3) 0.8523(2) 0.0465(5) Uani 1 1 d . .
H8A H 0.019721 0.400577 0.775468 0.070 Uiso 1 1 calc R U
H8B H 0.097010 0.547540 0.870761 0.070 Uiso 1 1 calc R U
H8C H 0.071515 0.384460 0.923453 0.070 Uiso 1 1 calc R U
C9 C 0.2616(2) 0.4224(2) 0.83257(17) 0.0281(4) Uani 1 1 d . .
C10 C 0.3808(2) 0.5478(2) 0.84028(18) 0.0323(4) Uani 1 1 d . .
H10 H 0.355024 0.644326 0.856212 0.039 Uiso 1 1 calc R U
C11 C 0.5373(2) 0.54137(19) 0.82607(15) 0.0256(3) Uani 1 1 d . .
C12 C 0.6565(2) 0.6858(2) 0.83842(19) 0.0355(4) Uani 1 1 d . .
H12A H 0.764601 0.663206 0.847905 0.053 Uiso 1 1 calc R U
H12B H 0.648391 0.749268 0.912942 0.053 Uiso 1 1 calc R U
H12C H 0.634437 0.739382 0.762492 0.053 Uiso 1 1 calc R U
N2 N 1.0270(3) 0.6977(2) 0.6117(2) 0.0661(6) Uani 1 1 d . .
C13 C 0.9051(3) 0.6253(2) 0.5761(2) 0.0424(5) Uani 1 1 d . .
C14 C 0.7481(3) 0.5321(2) 0.5325(2) 0.0445(5) Uani 1 1 d . .
H14C H 0.753237 0.457745 0.464270 0.067 Uiso 1 1 calc R U
H14A H 0.671642 0.596036 0.501002 0.067 Uiso 1 1 calc R U
H14B H 0.713274 0.479543 0.602921 0.067 Uiso 1 1 calc R U
loop_
_atom_site_aniso_label
_atom_site_aniso_U_11
_atom_site_aniso_U_22
_atom_site_aniso_U_33
_atom_site_aniso_U_23
_atom_site_aniso_U_13
_atom_site_aniso_U_12
Fe1 0.01999(12) 0.01986(13) 0.01880(13) 0.00173(8) 0.00730(8) 0.00816(8)
O2 0.0231(5) 0.0270(6) 0.0203(6) 0.0050(5) 0.0068(4) 0.0119(5)
O1 0.0287(6) 0.0274(6) 0.0174(6) 0.0024(4) 0.0059(4) 0.0086(5)
O4 0.0244(6) 0.0457(8) 0.0188(6) 0.0080(5) 0.0047(5) 0.0088(5)
O3 0.0232(5) 0.0259(6) 0.0179(5) 0.0013(4) 0.0067(4) 0.0077(5)
O5 0.0268(6) 0.0243(6) 0.0361(7) 0.0020(5) 0.0133(5) 0.0116(5)
O6 0.0291(6) 0.0209(6) 0.0324(7) 0.0012(5) 0.0100(5) 0.0054(5)
O7 0.0224(5) 0.0237(6) 0.0196(6) 0.0013(4) 0.0076(4) 0.0066(4)
N1 0.0178(6) 0.0181(6) 0.0166(6) 0.0009(5) 0.0054(5) 0.0045(5)
C1 0.0213(7) 0.0165(7) 0.0196(7) 0.0019(6) 0.0051(6) 0.0038(6)
C2 0.0197(7) 0.0180(7) 0.0179(7) 0.0012(6) 0.0051(5) 0.0033(6)
C3 0.0218(8) 0.0319(9) 0.0207(8) 0.0003(7) 0.0085(6) 0.0078(7)
C4 0.0211(8) 0.0398(10) 0.0276(9) 0.0005(7) 0.0085(6) 0.0129(7)
C5 0.0207(7) 0.0315(9) 0.0238(8) 0.0038(7) 0.0036(6) 0.0090(7)
C6 0.0193(7) 0.0191(7) 0.0189(7) 0.0019(6) 0.0053(6) 0.0027(6)
C7 0.0208(7) 0.0208(7) 0.0192(8) 0.0021(6) 0.0054(6) 0.0021(6)
C8 0.0427(12) 0.0402(12) 0.0692(16) 0.0066(11) 0.0268(11) 0.0250(10)
C9 0.0351(9) 0.0295(9) 0.0257(9) 0.0019(7) 0.0106(7) 0.0173(7)
C10 0.0417(10) 0.0233(9) 0.0352(10) -0.0018(7) 0.0092(8) 0.0147(8)
C11 0.0373(9) 0.0221(8) 0.0173(8) 0.0012(6) 0.0036(7) 0.0070(7)
C12 0.0457(11) 0.0230(9) 0.0348(10) 0.0000(7) 0.0042(8) 0.0019(8)
N2 0.0635(14) 0.0470(12) 0.0884(18) 0.0006(12) 0.0298(13) -0.0017(11)
C13 0.0539(13) 0.0314(10) 0.0492(13) 0.0090(9) 0.0239(10) 0.0115(10)
C14 0.0472(12) 0.0378(11) 0.0526(13) 0.0115(10) 0.0125(10) 0.0137(9)
loop_
_atom_type_symbol
_atom_type_description
_atom_type_scat_dispersion_real
_atom_type_scat_dispersion_imag
_atom_type_scat_source
C C 0.0033 0.0016 'International Tables Vol C Tables 4.2.6.8 and 6.1.1.4'
H H 0.0000 0.0000 'International Tables Vol C Tables 4.2.6.8 and 6.1.1.4'
Fe Fe 0.3463 0.8444 'International Tables Vol C Tables 4.2.6.8 and 6.1.1.4'
N N 0.0061 0.0033 'International Tables Vol C Tables 4.2.6.8 and 6.1.1.4'
O O 0.0106 0.0060 'International Tables Vol C Tables 4.2.6.8 and 6.1.1.4'
loop_
_geom_angle_atom_site_label_1
_geom_angle_atom_site_label_2
_geom_angle_atom_site_label_3
_geom_angle
O5 Fe1 O6 88.36(5)
O5 Fe1 O7 88.61(5)
O6 Fe1 O7 176.46(5)
O5 Fe1 O2 104.56(5)
O6 Fe1 O2 90.38(5)
O7 Fe1 O2 88.60(5)
O5 Fe1 O3 104.07(5)
O6 Fe1 O3 91.39(5)
O7 Fe1 O3 91.14(5)
O2 Fe1 O3 151.36(5)
O5 Fe1 N1 177.30(5)
O6 Fe1 N1 88.94(5)
O7 Fe1 N1 94.09(5)
O2 Fe1 N1 75.51(5)
O3 Fe1 N1 75.94(5)
C1 O2 Fe1 120.46(10)
C7 O3 Fe1 119.71(10)
C9 O5 Fe1 130.17(11)
C11 O6 Fe1 128.66(11)
Fe1 O7 H7A 104.7
Fe1 O7 H7B 106.7
H7A O7 H7B 105.8
C2 N1 C6 122.31(13)
C2 N1 Fe1 119.08(10)
C6 N1 Fe1 118.61(10)
O1 C1 O2 125.09(15)
O1 C1 C2 121.04(14)
O2 C1 C2 113.88(13)
N1 C2 C3 120.77(14)
N1 C2 C1 111.06(13)
C3 C2 C1 128.14(14)
C2 C3 C4 117.82(15)
C2 C3 H3 121.1
C4 C3 H3 121.1
C3 C4 C5 120.54(15)
C3 C4 H4 119.7
C5 C4 H4 119.7
C6 C5 C4 117.82(15)
C6 C5 H5 121.1
C4 C5 H5 121.1
N1 C6 C5 120.73(14)
N1 C6 C7 111.03(13)
C5 C6 C7 128.24(14)
O4 C7 O3 126.01(15)
O4 C7 C6 119.33(14)
O3 C7 C6 114.66(13)
C9 C8 H8A 109.5
C9 C8 H8B 109.5
H8A C8 H8B 109.5
C9 C8 H8C 109.5
H8A C8 H8C 109.5
H8B C8 H8C 109.5
O5 C9 C10 124.51(16)
O5 C9 C8 115.36(17)
C10 C9 C8 120.13(17)
C9 C10 C11 123.97(17)
C9 C10 H10 118.0
C11 C10 H10 118.0
O6 C11 C10 124.23(16)
O6 C11 C12 116.96(16)
C10 C11 C12 118.80(16)
C11 C12 H12A 109.5
C11 C12 H12B 109.5
H12A C12 H12B 109.5
C11 C12 H12C 109.5
H12A C12 H12C 109.5
H12B C12 H12C 109.5
N2 C13 C14 179.1(3)
C13 C14 H14C 109.5
C13 C14 H14A 109.5
H14C C14 H14A 109.5
C13 C14 H14B 109.5
H14C C14 H14B 109.5
H14A C14 H14B 109.5
loop_
_geom_bond_atom_site_label_1
_geom_bond_atom_site_label_2
_geom_bond_distance
Fe1 O5 1.9288(12)
Fe1 O6 1.9976(12)
Fe1 O7 2.0322(12)
Fe1 O2 2.0324(12)
Fe1 O3 2.0334(12)
Fe1 N1 2.0680(13)
O2 C1 1.2839(19)
O1 C1 1.2292(19)
O4 C7 1.2335(19)
O3 C7 1.2791(19)
O5 C9 1.286(2)
O6 C11 1.271(2)
O7 H7A 0.9689
O7 H7B 0.8324
N1 C2 1.326(2)
N1 C6 1.328(2)
C1 C2 1.513(2)
C2 C3 1.382(2)
C3 C4 1.389(2)
C3 H3 0.9500
C4 C5 1.395(2)
C4 H4 0.9500
C5 C6 1.379(2)
C5 H5 0.9500
C6 C7 1.512(2)
C8 C9 1.497(3)
C8 H8A 0.9800
C8 H8B 0.9800
C8 H8C 0.9800
C9 C10 1.381(3)
C10 C11 1.399(3)
C10 H10 0.9500
C11 C12 1.498(2)
C12 H12A 0.9800
C12 H12B 0.9800
C12 H12C 0.9800
N2 C13 1.130(3)
C13 C14 1.452(3)
C14 H14C 0.9800
C14 H14A 0.9800
C14 H14B 0.9800
loop_
_geom_hbond_atom_site_label_D
_geom_hbond_atom_site_label_H
_geom_hbond_atom_site_label_A
_geom_hbond_distance_DH
_geom_hbond_distance_HA
_geom_hbond_distance_DA
_geom_hbond_angle_DHA
_geom_hbond_site_symmetry_A
_geom_hbond_publ_flag
O7 H7A O4 0.97 1.75 2.620(2) 148 2_657 yes
O7 H7B O1 0.83 1.88 2.680(2) 161 2_656 yes
C4 H4 O7 0.95 2.58 3.438(2) 150 1_655 yes
C5 H5 O4 0.95 2.43 3.253(2) 145 2_757 yes
C10 H10 O3 0.95 2.59 3.316(2) 133 2_667 yes
C12 H12C O1 0.98 2.57 3.473(2) 152 2_666 yes
C14 H14B O2 0.98 2.32 3.270(3) 164 2_666 yes
loop_
_geom_torsion_atom_site_label_1
_geom_torsion_atom_site_label_2
_geom_torsion_atom_site_label_3
_geom_torsion_atom_site_label_4
_geom_torsion
Fe1 O2 C1 O1 179.46(12)
Fe1 O2 C1 C2 -0.49(17)
C6 N1 C2 C3 -0.5(2)
Fe1 N1 C2 C3 -179.54(11)
C6 N1 C2 C1 178.08(13)
Fe1 N1 C2 C1 -0.99(16)
O1 C1 C2 N1 -179.01(14)
O2 C1 C2 N1 0.94(18)
O1 C1 C2 C3 -0.6(2)
O2 C1 C2 C3 179.36(15)
N1 C2 C3 C4 -0.1(2)
C1 C2 C3 C4 -178.39(15)
C2 C3 C4 C5 0.7(3)
C3 C4 C5 C6 -0.7(3)
C2 N1 C6 C5 0.5(2)
Fe1 N1 C6 C5 179.53(12)
C2 N1 C6 C7 -179.16(13)
Fe1 N1 C6 C7 -0.09(16)
C4 C5 C6 N1 0.1(2)
C4 C5 C6 C7 179.69(15)
Fe1 O3 C7 O4 177.13(13)
Fe1 O3 C7 C6 -2.51(17)
N1 C6 C7 O4 -178.04(14)
C5 C6 C7 O4 2.4(3)
N1 C6 C7 O3 1.63(19)
C5 C6 C7 O3 -177.95(15)
Fe1 O5 C9 C10 -2.2(3)
Fe1 O5 C9 C8 178.34(14)
O5 C9 C10 C11 -0.9(3)
C8 C9 C10 C11 178.50(19)
Fe1 O6 C11 C10 0.7(3)
Fe1 O6 C11 C12 -178.55(11)
C9 C10 C11 O6 1.7(3)
C9 C10 C11 C12 -179.13(17)

_cod_database_fobs_code 2108257
