#------------------------------------------------------------------------------
#$Date: 2021-03-13 07:56:10 +0200 (Sat, 13 Mar 2021) $
#$Revision: 263024 $
#$URL: file:///home/coder/svn-repositories/cod/cif/2/10/87/2108791.cif $
#------------------------------------------------------------------------------
#
# This file is available in the Crystallography Open Database (COD),
# http://www.crystallography.net/. The original data for this entry
# were provided by IUCr Journals, http://journals.iucr.org/.
#
# The file may be used within the scientific community so long as
# proper attribution is given to the journal article from which the
# data were obtained.
#
data_2108791
loop_
_publ_author_name
'Zarychta, Bartosz'
'Czapla, Zbigniew'
'Przes\/lawski, Janusz'
'Szklarz, Przemys\/law'
_publ_section_title
;
 Structure, ferroelasticity and Goldilocks zone phase transitions in
 C~3~H~5~N~2~Al(SO~4~)~2~&#x00B7;6H~2~O
;
_journal_coeditor_code           XK5078SUP1
_journal_issue                   2
_journal_name_full               'Acta Crystallographica Section B'
_journal_page_first
;
;
_journal_paper_doi               10.1107/S2052520621001256
_journal_volume                  77
_journal_year                    2021
_chemical_formula_moiety         'C3 H17 Al N2 O14 S2'
_chemical_formula_sum            'C3 H17 Al N2 O14 S2'
_chemical_formula_weight         396.29
_chemical_name_common            'Imidazolium hexa-aqua-aluminium disulphate'
_space_group_crystal_system      trigonal
_space_group_IT_number           164
_space_group_name_Hall           '-P 3 2"'
_space_group_name_H-M_alt        'P -3 m 1'
_atom_sites_solution_hydrogens   difmap
_audit_creation_method           SHELXL-2013
_cell_angle_alpha                90
_cell_angle_beta                 90
_cell_angle_gamma                120
_cell_formula_units_Z            1
_cell_length_a                   6.8748(5)
_cell_length_b                   6.8748(5)
_cell_length_c                   9.1550(12)
_cell_measurement_reflns_used    2491
_cell_measurement_temperature    345.0(1)
_cell_measurement_theta_max      5.935
_cell_measurement_theta_min      3.422
_cell_volume                     374.72(6)
_computing_cell_refinement       'CrysAlis RED (Oxford Diffraction, 2007)'
_computing_data_collection       'CrysAlis CCD (Oxford Diffraction, 2007)'
_computing_data_reduction        'CrysAlis RED (Oxford Diffraction, 2007)'
_computing_molecular_graphics    'SHELXTL (Sheldrick, 2008)'
_computing_structure_refinement  'SHELXL-2013 (Sheldrick, 2013)'
_computing_structure_solution    'SHELXS-2013 (Sheldrick, 2013)'
_diffrn_ambient_temperature      345.0(1)
_diffrn_detector_area_resol_mean 10.4508
_diffrn_measured_fraction_theta_full 0.976
_diffrn_measured_fraction_theta_max 0.978
_diffrn_measurement_device       '4-circle kappa geometry goniometer'
_diffrn_measurement_device_type  'Oxford Diffraction Xcalibur System'
_diffrn_measurement_method       \w--scan
_diffrn_radiation_monochromator  graphite
_diffrn_radiation_source         'Enhance (Mo) X-ray Source'
_diffrn_radiation_type           MoK\a
_diffrn_radiation_wavelength     0.71073
_diffrn_reflns_av_R_equivalents  0.0335
_diffrn_reflns_av_unetI/netI     0.0151
_diffrn_reflns_Laue_measured_fraction_full 0.976
_diffrn_reflns_Laue_measured_fraction_max 0.978
_diffrn_reflns_limit_h_max       8
_diffrn_reflns_limit_h_min       -8
_diffrn_reflns_limit_k_max       8
_diffrn_reflns_limit_k_min       -7
_diffrn_reflns_limit_l_max       11
_diffrn_reflns_limit_l_min       -8
_diffrn_reflns_number            2491
_diffrn_reflns_point_group_measured_fraction_full 0.976
_diffrn_reflns_point_group_measured_fraction_max 0.978
_diffrn_reflns_theta_full        25.242
_diffrn_reflns_theta_max         25.935
_diffrn_reflns_theta_min         3.422
_diffrn_standards_decay_%        0
_diffrn_standards_interval_count 0
_diffrn_standards_interval_time  0
_diffrn_standards_number         0
_exptl_absorpt_coefficient_mu    0.489
_exptl_absorpt_correction_type   none
_exptl_crystal_colour            colorless
_exptl_crystal_density_diffrn    1.756
_exptl_crystal_description       irregular
_exptl_crystal_F_000             206
_exptl_crystal_size_max          0.25
_exptl_crystal_size_mid          0.20
_exptl_crystal_size_min          0.125
_refine_diff_density_max         0.246
_refine_diff_density_min         -0.281
_refine_diff_density_rms         0.050
_refine_ls_extinction_method     none
_refine_ls_goodness_of_fit_ref   1.120
_refine_ls_hydrogen_treatment    constr
_refine_ls_matrix_type           full
_refine_ls_number_parameters     32
_refine_ls_number_reflns         311
_refine_ls_number_restraints     0
_refine_ls_restrained_S_all      1.120
_refine_ls_R_factor_all          0.0396
_refine_ls_R_factor_gt           0.0339
_refine_ls_shift/su_max          0.000
_refine_ls_shift/su_mean         0.000
_refine_ls_structure_factor_coef Fsqd
_refine_ls_weighting_details
'w=1/[\s^2^(Fo^2^)+(0.0268P)^2^+0.3072P] where P=(Fo^2^+2Fc^2^)/3'
_refine_ls_weighting_scheme      calc
_refine_ls_wR_factor_gt          0.0779
_refine_ls_wR_factor_ref         0.0793
_reflns_Friedel_coverage         0.000
_reflns_number_gt                274
_reflns_number_total             311
_reflns_threshold_expression     'I > 2\s(I)'
_cod_data_source_file            xk5078sup1.cif
_cod_data_source_block           II
_cod_original_cell_volume        374.72(7)
_cod_database_code               2108791
_shelx_space_group_comment
;
The symmetry employed for this shelxl refinement is uniquely defined
by the following loop, which should always be used as a source of
symmetry information in preference to the above space-group names.
They are only intended as comments.
;
_shelxl_version_number           2013-4
_shelx_res_file
;
TITL 1_a.res in P-3m1
CELL  0.71073   6.8748   6.8748   9.1550   90.000   90.000  120.000
ZERR    1.000   0.0005   0.0005   0.0012    0.000    0.000    0.000
LATT  1
SYMM -Y, X-Y, Z
SYMM -X+Y, -X, Z
SYMM Y, X, -Z
SYMM X-Y, -Y, -Z
SYMM -X, -X+Y, -Z
SFAC C H N O AL S
UNIT 3 17 2 14 1 2
L.S. 10
OMIT 0 52
OMIT     0   2   0
OMIT     0   0   2
OMIT     0   2   3
OMIT    -1   4   0
OMIT    -2   2   2
OMIT    -1   5   1
CONF
ACTA
BOND $H
EQIV $1 x+1, y, z
HTAB O1 S1_$1
EQIV $2 -x+y+1, -x+1, z
HTAB O1 O2_$2
HTAB N1 S1
HTAB N1 O3
HTAB C2 S1
HTAB C2 O3
EQIV $3 -x+1, -y+1, -z+1
HTAB N1 O3_$3
HTAB C2 O3
HTAB C2 O3_$3
LIST 6
FMAP 2
PLAN 100
WGHT    0.026800    0.307200
FVAR       1.71453
AL1   5    1.000000    1.000000    1.000000    10.08333    0.02705    0.02705 =
         0.03959    0.00000    0.00000    0.01353
O1    4    0.869951    0.739902    0.884962    10.50000    0.03150    0.03661 =
         0.05899   -0.01381   -0.00691    0.01830
AFIX   3
H1A   2    0.934883    0.658700    0.854483    11.00000   -1.20000
AFIX   0
S1    6    0.333333    0.666667    0.739096    10.16667    0.03053    0.03053 =
         0.05103    0.00000    0.00000    0.01527
O2    4    0.449869    0.550131    0.793455    10.50000    0.03280    0.03280 =
         0.08314    0.00201   -0.00201    0.01892
O3    4    0.333333    0.666667    0.580748    10.16667    0.08982    0.08982 =
         0.04749    0.00000    0.00000    0.04491
N1    3    0.084774    0.169549    0.506204    10.16667    0.06545    0.02994 =
         0.06151    0.01534    0.00767    0.01497
AFIX   3
H1    2    0.152079    0.304154    0.501985    10.16667   -1.20000

AFIX   0
C2    1    0.175614    0.175614    0.500000    10.25000    0.04483    0.04483 =
         0.05168   -0.00753    0.00753    0.00174
AFIX   3
H2    2    0.300707    0.300705    0.500000    10.25000   -1.20000
AFIX   0
HKLF 4

REM  1_a.res in P-3m1
REM R1 =  0.0339 for     274 Fo > 4sig(Fo)  and  0.0396 for all     311 data
REM     32 parameters refined using      0 restraints

END

WGHT      0.0268      0.3072

REM Highest difference peak  0.246,  deepest hole -0.281,  1-sigma level  0.050
Q1    1   0.4430  0.5570  0.8730  10.50000  0.05    0.25
Q2    1   0.3967  0.7935  0.6026  10.50000  0.05    0.21
Q3    1   0.4058  0.5942  0.7692  10.50000  0.05    0.17
Q4    1   0.2799  0.5597  0.6365  10.50000  0.05    0.17
Q5    1   0.9354  0.8708  0.8955  10.50000  0.05    0.14
Q6    1   0.3919  0.4493  0.7639  11.00000  0.05    0.13
Q7    1   0.2671  0.5342  0.4899  10.50000  0.05    0.13
Q8    1   0.9202  0.7370  0.7684  11.00000  0.05    0.12
Q9    1   0.3711  0.4301  0.8533  11.00000  0.05    0.12
Q10   1   0.1005  0.2010  0.7154  10.50000  0.05    0.11
Q11   1   0.3333  0.6667  0.9604  10.16667  0.05    0.11
Q12   1   0.5364  0.7682  0.8789  10.50000  0.05    0.10
Q13   1   0.3333  0.6667  0.8980  10.16667  0.05    0.10
Q14   1   0.8108  0.6217  1.0295  10.50000  0.05    0.09
Q15   1   0.1726  0.3451  0.3260  10.50000  0.05    0.08
Q16   1   0.4773  0.5227  0.6373  10.50000  0.05    0.08
Q17   1   0.6667  0.3333  0.7843  10.16667  0.05    0.08
Q18   1   0.1712  0.3425  0.3974  10.50000  0.05    0.08
Q19   1   0.8986  0.5074  1.0166  11.00000  0.05    0.08
Q20   1   0.8900  0.7799  0.9749  10.50000  0.05    0.08
Q21   1   0.2475  0.4951  0.3739  10.50000  0.05    0.08
Q22   1   0.7635  0.5271  0.7621  10.50000  0.05    0.08
Q23   1   0.1593  0.3186  0.6142  10.50000  0.05    0.08
Q24   1   1.1641  0.8359  0.8256  10.50000  0.05    0.07
Q25   1   0.9428  0.8855  0.7707  10.50000  0.05    0.07
Q26   1   0.8210  0.8150  0.8980  11.00000  0.05    0.07
Q27   1   0.8004  0.4002  0.9492  10.50000  0.05    0.06
Q28   1   0.5604  0.7802  0.7154  10.50000  0.05    0.06
Q29   1   0.7334  0.4667  0.8506  10.50000  0.05    0.06
Q30   1   0.6667  0.3333  0.8960  10.16667  0.05    0.05
Q31   1   0.0530  0.1060  0.5943  10.50000  0.05    0.05
Q32   1   0.4438  0.3748  0.6596  11.00000  0.05    0.05
Q33   1   0.9484  0.5957  0.7194  11.00000  0.05    0.04
Q34   1   0.7666  0.5333  0.9451  10.50000  0.05    0.04
Q35   1   0.9461  0.8922  0.7055  10.50000  0.05    0.04
Q36   1   0.3441  0.3664  0.5652  11.00000  0.05    0.03
Q37   1   0.5639  0.4361  0.8198  10.50000  0.05    0.03
Q38   1   0.2429  0.1916  0.6047  11.00000  0.05    0.03
Q39   1   0.1825  0.2080  0.4321  11.00000  0.05    0.03
Q40   1   0.3333  0.6667  0.3967  10.16667  0.05    0.03
Q41   1   0.5148  0.4852  0.4671  10.50000  0.05    0.02
Q42   1   0.6143  0.3857  0.6924  10.50000  0.05    0.02
Q43   1   0.4015  0.3036  0.5020  11.00000  0.05    0.01
;
_shelx_res_checksum              63927
_shelx_hkl_file
;
   0   0   2  357.19    8.56
   0   0   2  337.84    7.62
   0   0   2  344.89    8.39
   0   0   3 9999.00   48.51
   0   0   3 9924.45   50.14
   0   0   3 9926.29   45.88
   0   0   4 1073.82   19.29
   0   0   4 1082.64   17.99
   0   0   4 1061.16   20.01
   0   0   5   96.06    9.25
   0   0   5   95.70    9.17
   0   0   5   98.38    7.95
   0   0   6   59.23    9.74
   0   0   6   54.34    9.96
   0   0   7   21.64    8.86
   0   0   7   24.27    9.88
   0   0   8  857.39   27.38
   0   0   9   20.72   10.70
   0   0  10   62.16   14.08
   0   0  11    3.59   12.75
   0   0  12  -10.64   16.10
   0   1  12  -24.39   17.40
  -1   0  12   -8.98   16.24
   0   1  11   -2.59   15.44
  -1   0  11    3.67   12.84
   1  -1  11   26.18   12.77
  -1   0  10  131.02   15.63
   0   1  10  103.87   17.34
   1  -1   9   10.43   10.80
   0   1   9   14.34   11.74
  -1   0   9    1.94   10.17
  -1   0   8   42.58    8.23
   0   1   8   38.18   12.94
  -1   0   8   45.94   12.16
   1  -1   8   28.12   11.35
   0   1   8   38.30   12.51
   1  -1   7  155.43   13.87
  -1   0   7  147.36   13.02
  -1   0   7  141.37   11.23
   0   1   7  130.96   15.34
   0   1   7  138.72   14.20
   1  -1   7  175.54   15.97
   1  -1   6  566.41   19.52
   0   1   6  553.63   19.91
   0   1   6  525.40   21.49
  -1   0   6  534.93   18.44
  -1   0   6  551.82   16.97
   1  -1   6  568.16   19.31
  -1   0   6  532.75   16.32
  -1   0   5 2587.87   34.37
   1  -1   5 2695.87   35.27
  -1   0   5 2644.40   31.50
   0   1   5 2594.85   36.43
  -1   0   5 2756.48   29.87
   0   1   5 2652.19   40.01
   1  -1   5 2644.44   36.00
   0   1   5 2758.68   30.91
   0   1   5 2716.49   25.24
  -1   0   4  200.33    8.31
  -1   0   4  176.86    8.33
  -1   0   4  175.85    9.35
   0   1   4  177.78   11.92
   0   1   4  186.52    6.48
   1  -1   4  187.64   10.49
   0   1   4  173.24    7.97
   1  -1   4  177.68    9.78
   0   1   4  176.64   10.04
  -1   0   3  555.31    9.82
   1  -1   3  549.68   14.10
   0   1   3  577.70   11.31
  -1   0   3  564.72   11.98
  -1   0   3  565.08   13.04
   0   1   3  548.54   13.51
   0   1   3  562.01    9.23
   0   1   3  560.52   17.01
   1  -1   3  557.18   13.37
  -1   1  -2 9522.30   22.17
   1  -1   2 9752.56   43.17
   0   1   2 9726.79   36.37
   1  -1   2 9764.83   47.49
  -1   0   2 9681.01   41.48
   0   1   2 9787.75   46.88
   0   1   2 9751.87   58.17
  -1   0   2 9848.32   39.63
   0   1   2 9721.94   32.96
  -1   0   1 2991.63   17.68
  -1   0   1 2923.46   19.11
   0   1   1 2954.94   28.60
  -1   1  -1 3105.30   12.77
   1  -1   1 2968.79   17.70
  -1   0   0  475.60    6.36
   0   1   0  472.75   11.02
  -1   1   0  509.16    7.09
   1   0   0  481.53    8.60
   0   1   0  462.16    6.48
  -1   1   0  530.23    6.34
  -1   1   1 7627.67   28.32
   0  -1   1 7672.67   32.17
   1   0   1 7688.20   35.16
  -1   1   1 7496.03   28.83
   0   1  -1 7606.21   25.51
   1   0   1 7627.89   39.91
   0  -1   2 3947.34   28.12
  -1   1   2 3838.55   24.00
  -1   1   2 3786.90   25.20
   1   0   2 3800.77   33.68
  -1   1   2 3802.16   23.88
  -1   1   2 3939.03   36.16
   1   0   2 3852.79   29.93
   1   0   3 2245.87   12.35
   1   0   3 2171.16   26.30
   0  -1   3 2143.50   25.02
   1   0   3 2137.71   28.91
  -1   1   3 2197.49   23.31
  -1   1   3 2262.76   21.09
  -1   1   3 2148.02   22.02
  -1   1   3 2248.91   30.25
   0  -1   3 2176.58   18.23
  -1   1   4  685.31   14.69
   1   0   4  656.60   16.99
  -1   1   4  668.40   15.95
   0  -1   4  663.88   12.61
   1   0   4  673.94   19.25
   0  -1   4  681.07   16.54
  -1   1   4  688.77   13.12
  -1   1   4  693.36   19.54
   0  -1   5   32.74    7.19
  -1   1   5   32.15    5.85
  -1   1   5   21.56    8.56
   1   0   5   35.96    8.56
   0  -1   5   25.30    5.99
  -1   1   5   30.99    6.40
   1   0   5   34.76    9.45
  -1   1   6  962.09   21.53
   0  -1   6  958.81   24.16
   1   0   6  988.96   27.36
   1   0   6  994.62   25.92
  -1   1   6  971.38   25.92
   0  -1   6  909.48   19.23
  -1   1   6  963.55   24.04
  -1   1   7   47.25    8.19
   0  -1   7   61.32   11.59
  -1   1   7   59.63   10.98
   1   0   7   58.43   11.67
   1   0   7   64.85   13.37
  -1   1   7   44.01   12.86
   1   0   8  364.26   20.43
  -1   1   8  375.00   16.40
   1   0   8  347.09   21.80
  -1   1   8  337.51   19.05
   0  -1   8  347.05   18.85
   0  -1   9   58.74   13.45
  -1   1   9   70.04   12.12
   1   0   9   78.34   13.61
  -1   1  10   35.19   13.06
   0  -1  10   38.61   12.96
   1   0  10   42.34   13.30
   0  -1  11    4.60   12.94
  -1   1  11   34.37   15.99
   1   0  11   29.34   15.36
  -1   1  12   15.97   17.01
  -2   1  12   46.76   17.91
  -2   1  11   20.27   13.92
   1  -2  11   21.80   13.32
   1   1  11   27.89   15.67
  -2   1  10   -2.89    7.29
  -2   1  10   16.99   11.08
   1  -2  10    9.05   12.29
   1   1  10   -4.85   13.00
  -2   1   9   -1.37    6.68
  -2   1   9   12.18   10.15
   1   1   9   11.86   13.57
   1  -2   9    3.95   10.82
   1   1   9   12.35   11.04
   1   1   8  147.65   17.97
   1  -2   8  147.53   14.24
  -2   1   8  154.49   11.49
   1   1   8  165.07   15.75
  -2   1   8  156.82   14.20
   1   1   7  256.28   18.05
  -2   1   7  254.41   13.63
  -2   1   7  258.62   16.03
   1  -2   7  255.89   16.05
   1   1   7  277.10   21.66
   1  -2   6  132.73   11.53
   1   1   6  107.57   12.82
  -2   1   6  112.63    9.60
   1   1   6  121.90    6.28
  -2   1   6  113.01   10.82
   1   1   6  115.34   16.22
   1  -2   6  136.81   12.18
  -2   1   5  124.28    8.72
   1  -2   5  139.78   10.55
   1   1   5  134.14    5.97
  -2   1   5  126.54   10.08
   1   1   5  124.79   13.94
   1   1   5  140.66   11.69
   1  -2   5  150.81   10.47
  -1   2  -5  139.78    5.79
  -2   1   4 1638.43   23.14
   1   1   4 1582.06   28.69
   1   1   4 1619.26   15.85
   1  -2   4 1641.14   24.61
  -2   1   4 1743.85   24.53
  -1   2  -4 1647.03   16.14
   1   1   4 1610.95   32.50
   1  -2   4 1673.68   25.79
   1   1   3  580.08   19.33
  -2   1   3  601.90   13.57
   1  -2   3  589.59   14.10
   1   1   3  577.27   16.48
   1   1   3  561.99    8.90
  -1   2  -3  617.67    9.56
  -2   1   3  615.53   12.98
  -1   2  -2   41.28    3.48
   1   1   2   30.74    8.48
  -2   1   2   29.97    3.95
   1   1   2   27.83    3.18
   1  -2   2   32.96    5.01
  -2   1   2   22.25    4.44
  -2   1   1  420.35    9.84
  -1   2  -1  383.11    7.76
   1  -2   1  379.03    8.58
   1   1   1  401.95    7.66
  -2   1   1  402.81    7.09
   1   1   1  415.09   14.32
   1   1   0 3800.14   32.72
   1   1   0 3716.32   22.09
  -1  -1   0 3807.07   15.14
  -1   2   0 3690.08   20.74
  -2   1   0 3643.75   26.00
  -1   2   0 3773.53   23.98
   1   1  -1  411.96   10.25
  -1   2   1  459.20    9.47
   2  -1   1  406.68   13.81
   2  -1   1  403.09    9.03
  -1   2   1  466.21    8.07
  -1  -1   1  403.26    6.85
  -1  -1   2   33.64    5.87
  -1   2   2   32.74   11.02
   2  -1   2   28.93    8.23
   2  -1   2   27.30    4.77
  -1  -1   2   31.80    3.85
  -1   2   2   23.59    3.48
  -1   2   2   21.86    3.69
  -1   2   3  581.65   21.29
   2  -1   3  594.30   14.85
  -1  -1   3  606.02   12.45
  -1   2   3  552.49   11.43
  -1  -1   3  591.18   14.47
  -1   2   3  579.14   13.75
   2  -1   3  600.51   17.62
  -1   2   3  568.71   11.90
  -1   2   4 1655.69   25.51
  -1   2   4 1725.47   22.45
   2  -1   4 1684.72   27.42
  -1  -1   4 1680.87   23.12
  -1   2   4 1688.20   21.56
  -1   2   4 1645.16   34.96
   2  -1   4 1728.30   31.05
  -1  -1   4 1608.20   26.00
   2  -1   5  121.16   12.63
  -1  -1   5  134.02   11.10
  -1   2   5  115.50   10.08
   2  -1   5  134.08   11.06
  -1  -1   5  135.30    8.94
  -1   2   5  122.10    7.84
  -1   2   5  129.07   15.69
  -1   2   5  131.00    8.64
  -1  -1   6  123.02    9.29
  -1   2   6  132.47   16.48
   2  -1   6  145.24   14.91
  -1  -1   6  142.35   12.14
   2  -1   6  117.92   12.53
  -1   2   6  125.87    8.82
  -1   2   6  115.54   11.76
  -1   2   6  136.91   10.15
  -1  -1   7  257.03   16.22
  -1   2   7  272.44   18.95
   2  -1   7  247.01   17.79
  -1   2   7  279.16   14.16
  -1  -1   7  256.00   14.16
   2  -1   7  286.31   18.56
  -1   2   7  253.51   16.34
  -1   2   8  140.27   17.50
  -1   2   8  148.97   11.82
   2  -1   8  169.12   15.67
  -1   2   8  139.56   14.87
  -1  -1   8  144.37   14.57
   2  -1   8  160.79   15.50
  -1  -1   9    2.59    9.98
   2  -1   9   -0.81   11.33
  -1   2   9    1.26    9.49
   2  -1   9    7.40   12.96
   2  -1  10    9.86   12.37
  -1  -1  10   -8.52   10.15
  -1   2  10  -21.43   12.73
   2  -1  11   32.07   14.95
  -1   2  11   35.29   15.38
  -1  -1  11    6.09   13.89
  -1   2  12   38.89   18.70
  -2   0  11  -16.01   13.79
   0   2  11    9.01   15.22
  -2   0  10   36.51   13.49
   2  -2  10   23.19   12.75
  -2   0  10   53.60   10.96
   0   2  10   38.95   13.61
   0   2   9  121.92   17.15
   2  -2   9  126.22   15.87
  -2   0   9  109.77   14.36
  -2   0   9  119.53   12.33
   0   2   9  129.21   15.65
   2  -2   8    2.36   11.04
   0   2   8   -5.48   10.35
  -2   0   8    3.87    7.07
   0   2   8    9.31   14.93
   2  -2   8    8.27   10.53
  -2   0   8    3.85    8.96
   2  -2   7  830.17   25.57
   0   2   7  773.65   17.75
   2  -2   7  867.80   27.14
  -2   0   7  808.82   22.31
   0   2   7  791.13   26.59
   0   2   7  785.51   31.84
  -2   0   7  785.16   24.31
  -2   0   6   14.04    8.68
   2  -2   6   14.89   10.72
  -2   0   6   17.81    7.58
   0   2   6   17.11    9.68
   0   2   6    0.88   13.12
   0   2   6    9.25    5.01
   2  -2   6   22.43    9.33
  -2   0   5 2091.24   31.99
   2  -2   5 2007.48   32.23
  -2   0   5 2060.64   28.77
   2  -2   5 2105.32   35.41
   0   2   5 2047.76   41.24
   0   2   5 2043.77   34.78
   0   2   5 2075.90   24.14
   0   2   5 2058.72   26.53
   2  -2   4  629.36   16.81
   0   2   4  655.16   19.05
   0   2   4  634.54   12.67
  -2   0   4  630.30   14.91
   2  -2   4  638.80   19.64
  -2   2  -4  652.96    8.29
   0   2   4  641.16   13.81
  -2   0   4  659.86   16.89
   0   2   4  604.06   23.27
  -2   0   3  182.18    7.99
   0   2   3  186.75    6.80
   0   2   3  195.79   15.02
  -2   0   3  178.21    8.74
   0   2   3  204.57    7.29
   2  -2   3  164.74    8.35
   2  -2   3  181.20   11.92
  -2   2  -3  164.23    4.52
   2   0  -2  453.80    9.23
  -2   0   2  457.00   11.69
   0   2   2  445.63   18.28
   2  -2   2  479.76   10.53
  -2   2  -2  506.12    7.72
  -2   0   2  464.58   10.76
   0   2   2  443.51    7.66
   0   2   2  415.15    9.49
  -2   2  -1 8308.78   33.56
   2   0  -1 8310.73   42.52
  -2   0   1 8314.50   38.22
   0   2   1 8305.46   38.95
   2  -2   1 8393.45   32.17
   0   2   1 8408.96   64.91
   0   2   0   20.52    9.92
  -2   2   0   23.29    4.75
  -2   0   0   27.46    4.01
   2   0   0   20.43    6.30
  -2   2   0   22.72    3.24
   0   2   0   20.37    3.73
   0  -2   1 3206.76   27.95
  -2   2   1 3182.47   24.43
   0   2  -1 3203.99   23.41
  -2   2   1 3038.06   25.14
   2   0   1 3088.20   34.17
  -2   0  -1 3182.57   23.33
   0  -2   2 1044.99   17.81
  -2   2   2  960.31   15.52
  -2   2   2 1045.52   15.73
   0   2  -2 1007.03   13.67
   2   0   2 1001.39   22.29
  -2   2   2  981.60   11.74
   2   0   2  963.08    9.01
  -2   2   3   92.46    5.99
   2   0   3   91.31    2.63
  -2   2   3   88.89    6.78
   0  -2   3  114.36    8.17
  -2   2   3   94.55    6.42
   2   0   3   86.71   10.68
   2   0   3   98.57    8.86
   0   2  -3  111.44    5.62
  -2   2   4  476.42   13.32
   0  -2   4  499.56   11.31
  -2   2   4  497.28   13.20
  -2   2   4  479.07   13.28
   0  -2   4  495.49   15.40
   2   0   4  493.65   17.05
   2   0   4  477.58   19.72
   0  -2   5  453.74   11.49
   0  -2   5  469.15   16.85
   2   0   5  460.45   18.42
  -2   2   5  440.09   14.08
   2   0   5  482.08   20.58
  -2   2   5  455.25   13.98
  -2   2   5  469.55   15.14
  -2   2   6 1612.56   29.85
   2   0   6 1616.16   34.72
  -2   2   6 1652.63   28.26
   0  -2   6 1600.09   31.46
   2   0   6 1597.97   38.08
  -2   2   7  223.36   15.10
   0  -2   7  234.93   15.83
  -2   2   7  194.59   19.23
   2   0   7  228.00   17.58
   2   0   7  220.91   20.31
  -2   2   7  231.47   13.22
   2   0   8   53.60   13.83
   2   0   8   31.15   15.20
  -2   2   8   52.60   11.19
   0  -2   8   37.65   10.47
  -2   2   8   36.47    8.66
  -2   2   9    7.42   10.04
  -2   2   9   -4.46    8.52
   2   0   9   -4.07   14.26
   2   0   9  -11.69   12.24
   0  -2   9    2.02   10.06
  -2   2  10   15.48    8.62
   2   0  10   26.77   13.04
   0  -2  10   16.79   10.94
  -2   2  10   19.15   11.88
   2   0  11    8.88   14.61
   0  -2  11    9.70   12.77
  -2   2  11   20.39   15.08
  -2   2  12    1.39   19.09
   1  -3  11   12.18   13.51
  -3   2  11    9.90    9.82
   2   1  11   -0.65   17.07
   2   1  10   27.95   19.07
   1  -3  10   -0.98   12.65
  -3   2  10    0.31    8.98
   2   1  10    4.91   13.65
  -3   2  10  -12.41   12.65
  -3   2   9   65.01   11.33
   1  -3   9   88.48   13.65
  -3   2   9   78.79   11.33
   2   1   9  115.78   20.19
   2   1   9   88.67   16.75
   2   1   8   72.65   18.32
  -3   2   8   90.26   11.80
  -3   2   8   71.57   10.41
   2   1   8   69.86   13.67
   1  -3   8   79.42   12.31
  -3   2   7    6.03    7.05
   2   1   7    2.36   15.57
   2   1   7    6.44   11.67
  -3   2   7    7.27    7.90
   1  -3   7    5.93    8.82
   2   1   6   71.41   13.89
   2   1   6   87.40   15.93
  -3   2   6   90.05    9.78
   1  -3   6   93.29   11.49
  -3   2   6   81.56   10.06
  -1   3  -6   94.39    7.09
  -1   3  -5 1342.34   18.83
   1  -3   5 1359.84   25.14
   2   1   5 1356.50   32.39
   2   1   5 1315.71   35.67
  -3   2   5 1354.99   25.55
   1  -3   5 1302.18   27.00
  -3   2   5 1346.58   23.69
  -1   3  -4  108.20    6.44
  -3   2   4  113.97    8.64
  -3   2   4  105.76    7.56
   2   1   4  114.46   14.53
   2   1   4  112.10    4.77
   1  -3   4  115.15    9.60
  -3   2   3  148.54    8.41
  -3   2   3  150.26    6.78
   2   1   3  140.92   13.22
   1  -3   3  156.90    9.45
   2   1   3  161.56    5.79
  -1   3  -3  149.24    6.97
  -1   3  -2  448.95   10.51
   1  -3   2  460.14   12.86
   2   1   2  469.02    9.31
  -3   2   2  456.53    8.19
   2   1   2  469.84   18.36
  -3   2   2  450.52   12.71
  -3   2   2  473.18   12.37
  -1   3  -1   64.73    5.11
  -3   2   1   45.07    6.28
   2   1   1   56.31    4.38
  -2  -1  -1   59.82    4.10
  -3   2   1   57.19    5.17
   1  -3   1   63.36    6.25
   2   1   1   58.17    9.49
  -1   3   0 1888.46   16.18
   2   1   0 1828.42   28.18
  -3   2   0 1778.54   19.78
  -3   2   0 1740.48   23.04
  -2  -1   0 1806.74   16.16
  -1   3   0 1877.64   21.39
  -2  -1   1  577.08   10.17
  -3   2  -1  559.54   10.08
  -3   2  -1  563.72   14.04
   3  -2   1  548.81   10.39
   2   1  -1  589.00   14.95
  -1   3   2 4658.28   28.36
  -1   3   2 4362.23   59.29
   2   1  -2 4626.89   33.68
   3  -2   2 4471.64   49.00
  -1   3   2 4671.97   36.73
  -2  -1   2 4589.40   41.15
  -3   2  -2 4738.39   24.47
   3  -2   2 4647.69   34.68
  -2  -1   2 4600.48   31.40
  -1   3   3 1699.90   39.16
  -1   3   3 1705.99   23.27
   3  -2   3 1765.46   33.01
   3  -2   3 1741.65   25.00
  -2  -1   3 1762.08   27.44
  -1   3   3 1665.57   19.50
  -2  -1   3 1775.93   21.92
   3  -2   4   42.30    8.27
  -1   3   4   41.22   14.93
  -1   3   4   59.14    5.99
  -2  -1   4   48.88    8.48
   3  -2   4   48.45   12.92
  -1   3   4   62.77    6.30
  -2  -1   4   46.96    5.99
  -1   3   5   37.79    9.78
  -1   3   5   34.39    6.48
  -2  -1   5   37.26    7.27
  -1   3   5   41.66   15.69
   3  -2   5   51.85    9.17
   3  -2   5   48.84   13.14
  -2  -1   5   49.59    9.90
  -1   3   5   36.00    6.38
  -2  -1   6  439.13   15.55
  -1   3   6  457.35   20.03
   3  -2   6  430.15   23.16
  -1   3   6  492.72   16.03
  -2  -1   6  461.14   19.48
  -1   3   6  444.41   28.16
   3  -2   6  446.16   19.72
  -1   3   6  473.93   15.52
  -1   3   7  108.59   10.08
  -1   3   7  112.48    9.74
  -2  -1   7  110.32   10.45
  -1   3   7   92.80   18.89
  -2  -1   7  111.12   13.65
   3  -2   7  115.84   16.20
   3  -2   7  143.76   14.36
  -1   3   7  105.41   13.28
  -1   3   8  137.85   19.17
   3  -2   8  191.68   20.31
   3  -2   8  177.48   16.54
  -1   3   8  191.43   13.18
  -2  -1   8  173.89   12.86
  -2  -1   8  175.21   15.08
  -1   3   8  190.23   11.55
  -1   3   8  165.92   16.62
   3  -2   9  -24.06   10.76
   3  -2   9   -2.77   16.24
  -2  -1   9   12.88    6.95
  -1   3   9    3.55   18.13
  -2  -1   9    7.09    9.27
  -1   3   9    7.80   11.27
  -1   3  10   46.33   14.42
  -2  -1  10   61.77   13.77
   3  -2  10   60.73   15.67
   3  -2  11   63.87   17.89
  -2  -1  11   50.79   14.08
  -1   3  11   33.70   17.38
  -3   1  12  -13.92   17.81
   1   2  11   86.34   17.79
   2  -3  11   58.15   15.48
  -3   1  11   49.94   10.86
  -3   1  11   62.08   16.75
  -3   1  10   64.83   13.24
   1   2  10   49.37   19.64
   2  -3  10   62.30   12.14
  -3   1  10   66.91   11.41
   1   2  10   59.86   18.01
   1   2   9    7.15   13.73
  -3   1   9    8.13    8.64
   1   2   9   13.41   16.14
   2  -3   9   -2.61    9.27
  -3   1   9   -5.60   10.74
   1   2   8  162.19   20.88
   2  -3   8  186.38   15.87
   1   2   8  212.01   18.97
  -3   1   8  171.99   13.16
  -3   1   8  209.60   16.12
   1   2   7  107.39   15.48
   1   2   7  109.22   20.76
   2  -3   7  122.36   14.34
  -3   1   7  133.20   11.67
   2  -3   7  115.01   12.39
  -3   1   7  120.78   12.18
   1   2   6  451.91   12.06
   1   2   6  433.14   25.32
   2  -3   6  414.05   20.19
  -3   1   6  466.27   16.91
   2  -3   6  411.55   17.70
  -3   1   6  460.85   17.77
   1   2   6  444.78   21.64
   1   2   5   49.26   15.81
   2  -3   5   53.15   11.14
   2  -3   5   39.65    8.50
  -3   1   5   35.51    7.62
   1   2   5   34.86    5.32
  -2   3  -5   52.85    4.75
  -3   1   5   39.18    8.03
  -3   1   4   61.37    7.42
  -2   3  -4   38.65    3.81
   2  -3   4   53.22   10.66
   1   2   4   52.24    4.97
   2  -3   4   51.83    7.70
   1   2   4   50.00   13.16
  -3   1   4   58.78    7.33
   1   2   3 1703.65   36.77
  -3   1   3 1773.45   22.90
  -3   1   3 1831.19   25.47
   2  -3   3 1810.67   24.35
   1   2   3 1696.86   19.70
  -2   3  -3 1819.64   18.60
   2  -3   2 4616.27   33.39
  -3   1   2 4443.22   32.29
  -2   3  -2 4607.73   29.56
  -3   1   2 4575.95   37.02
   1   2   2 4516.22   54.09
   1   2   2 4509.39   31.29
   1   2   1  606.71   20.66
   3  -1  -1  640.08   16.65
   1   2   1  651.16   12.16
  -2   3  -1  524.64   11.12
   2  -3   1  526.66   10.19
  -3   1   1  658.25   14.22
  -2   3  -1  535.38   12.31
  -2   3   0 1804.48   21.17
   1   2   0 1831.47   20.15
   3  -1   0 1812.28   28.10
  -3   1   0 1793.94   21.98
   2  -3   0 1723.37   15.26
   1   2   0 1824.04   30.64
  -2   3   0 1708.58   20.05
   1   2  -1   61.79    5.15
   1   2  -1   70.43    9.70
  -1  -2   1   60.37    3.14
  -2   3   1   56.23    5.32
  -3   1  -1   64.54    6.38
  -2   3   1   82.04    6.21
   3  -1   1   62.85   10.45
  -1  -2   2  503.60   15.12
   1   2  -2  442.60   13.87
   3  -1   2  447.61   18.15
  -1  -2   2  471.26    9.51
   1   2  -2  473.16   11.29
  -2   3   2  487.58   12.55
  -2   3   2  460.87   11.37
  -1  -2   3  155.10   10.57
  -1  -2   3  150.52    6.97
   3  -1   3  149.09   13.61
  -2   3   3  155.39    8.56
  -2   3   3  150.44    8.17
   3  -1   3  150.13   10.45
  -1  -2   4  125.73   10.55
   3  -1   4  109.35   10.74
  -1  -2   4  109.30    7.31
  -2   3   4  118.29    8.82
  -2   3   4  110.96    7.88
  -2   3   4  116.80    8.39
   3  -1   4  117.35   13.81
   3  -1   5 1358.42   35.49
  -2   3   5 1351.29   24.45
   3  -1   5 1352.14   29.60
  -2   3   5 1322.01   23.74
  -1  -2   5 1375.20   28.85
  -1  -2   5 1300.57   22.84
  -2   3   5 1330.95   25.63
  -2   3   6   76.44   19.93
  -2   3   6   80.60   10.78
  -2   3   6   72.88    8.80
  -2   3   6   73.96    9.11
  -1  -2   6   96.98   12.71
   3  -1   6   81.54   16.97
   3  -1   6  100.18   13.04
  -2   3   7   21.07   15.81
   3  -1   7    9.25   14.14
   3  -1   7    9.58   10.72
  -2   3   7    1.28    6.99
  -2   3   7    1.69    6.72
  -1  -2   7    0.00   10.35
  -2   3   7    6.60    7.68
   3  -1   8   91.99   16.07
  -2   3   8   75.79   12.55
   3  -1   8   79.58   13.81
  -2   3   8   79.01   10.33
  -1  -2   8   78.03   13.10
  -2   3   8   87.87   19.84
   3  -1   9   83.31   16.71
  -2   3   9   76.97   11.10
  -1  -2   9  110.38   15.24
  -2   3   9  101.75   12.79
   3  -1   9  104.31   18.64
  -2   3  10    4.83    8.60
  -1  -2  10   10.64   11.55
   3  -1  10   11.47   18.17
   3  -1  10    7.80   14.28
  -2   3  10   19.48   13.28
  -2   3  11   26.73   16.75
   3  -1  11   36.75   16.58
  -1  -2  11   36.24   13.73
   0   3  11   44.50   17.68
   3  -3  11   36.59   17.70
  -3   0  11   33.94   15.14
  -3   0  11   50.83   12.90
   0   3  10    3.34   14.55
   3  -3  10    4.03   12.53
  -3   0  10    3.22   11.41
   0   3  10    5.73   21.11
  -3   0  10   13.73    9.31
   0   3   9   -2.83   17.09
   3  -3   9    3.65   11.71
   0   3   9   -3.08   12.98
  -3   0   9   12.29    7.95
  -3   0   9    3.83   10.04
   0   3   8   85.51   14.49
   3  -3   8   96.06   13.75
  -3   0   8   97.33   10.70
   0   3   8   76.56   18.68
   3  -3   8  103.93   13.55
  -3   0   8   89.09   12.75
  -3   0   7   92.27    9.74
   3  -3   7   69.56   11.55
  -3   0   7   94.00   11.61
   0   3   7  122.04   20.09
   3  -3   7   95.19   15.61
   0   3   7  114.68    8.88
   0   3   7   98.65   13.69
  -3   0   6 1055.42   24.06
   3  -3   6 1133.12   32.92
   0   3   6 1047.27   20.86
  -3   0   6 1102.24   27.83
   0   3   6 1018.60   38.28
   3  -3   6 1069.99   26.81
   0   3   5    7.60    5.97
   3  -3   5    8.03   12.10
   3  -3   5    6.52    8.07
  -3   0   5   13.37    8.39
   0   3   5    8.68   16.83
  -3   0   5    6.83    6.70
  -3   0   4 2424.63   33.66
  -3   0   4 2398.80   30.52
   0   3   4 2246.46   48.37
   3  -3   4 2436.18   32.31
   0   3   4 2439.14   28.83
   3  -3   4 2369.07   40.85
  -3   0   3 5713.70   44.01
   0   3   3 5639.64   30.99
  -3   3  -3 5568.86   31.46
   0   3   3 5659.24   70.62
  -3   0   3 5707.20   47.31
   3   0  -3 5622.10   36.43
   3  -3   3 5631.66   42.91
   0   3   3 5717.73   42.01
   3  -3   3 5585.43   58.57
  -3   0   2   77.64    6.48
   3   0  -2   76.95    7.38
  -3   3  -2   50.10    4.48
   0   3   2   94.23    6.64
   0   3   2   92.99   15.42
  -3   0   2   80.78    8.68
   3  -3   2   63.06    5.54
   0   3   2   81.17    3.22
  -3   0   1  557.14   12.77
  -3   3  -1  481.74   14.02
   0   3   1  520.32   22.64
   3   0  -1  530.49   15.69
  -3   3  -1  517.55   11.08
   0   3   1  571.58   13.06
   3  -3   1  497.75    8.70
  -3   3   0   72.14    5.60
   0   3   0   41.05    4.97
   0   3   0   47.04   12.04
  -3   0   0   49.26    5.68
   3   0   0   66.52    9.21
  -3   3   0   51.79    6.95
   0   3  -1   45.21    5.26
  -3   3   1   19.76    5.60
  -3   3   1   27.24    5.05
  -3   0  -1   32.88    5.32
   3   0   1   42.38    9.90
  -3   0  -2  247.07    9.53
  -3   3   2  237.17   10.17
   3   0   2  239.72    6.28
   3   0   2  230.00   15.55
  -3   3   2  218.65    9.84
   0  -3   2  259.44   12.20
   0   3  -2  277.80    9.66
  -3   3   3    4.46    5.50
  -3   3   3    7.05    3.73
  -3   3   3    5.77    5.13
   3   0   3   10.35    2.28
   0   3  -3    6.34    4.81
   3   0   3   -4.20   11.59
   0  -3   3    4.73    7.19
   3   0   4    8.46   13.16
  -3   3   4   22.13    6.62
   0   3  -4   16.38    5.40
   0  -3   4   24.79    8.11
  -3   3   4   23.04    5.52
  -3   3   4   22.53    6.80
   0  -3   5  466.50   18.83
   3   0   5  443.03   23.88
  -3   3   5  424.28   14.16
   0   3  -5  478.42   13.61
  -3   3   5  432.45   15.67
  -3   3   5  446.63   15.85
   3   0   5  461.79   20.90
  -3   3   6  116.23   10.96
   0  -3   6   94.07   13.18
  -3   3   6   98.47   10.04
   0   3  -6  100.26    8.41
   3   0   6  102.81   18.95
  -3   3   6  105.76   10.19
   3   0   6   85.28   14.47
  -3   3   7  900.64   24.02
   0   3  -7  899.11   19.38
   3   0   7  849.46   34.35
  -3   3   7  833.73   23.61
   3   0   7  887.93   30.40
   0  -3   7  873.16   27.36
   3   0   8   26.57   16.26
   3   0   8   36.63   13.39
  -3   3   8   34.31    8.88
   0  -3   8   36.16   11.41
   0   3  -8   47.12    7.40
  -3   3   8   30.17    8.35
   0  -3   9   49.24   14.32
   3   0   9   46.76   13.65
   3   0   9   33.01   18.46
  -3   3   9   39.79   10.70
   3   0  10   30.36   15.81
   0  -3  10   42.30   12.06
   3   0  10   37.98   19.70
  -3   3  10   45.56   10.78
   0  -3  11   27.12   15.99
   3   0  11   31.78   17.40
  -3   3  11   17.03   11.39
   3   1  11   -7.09   27.46
   3   1  10   31.44   15.69
   3   1  10   43.93   21.45
   1  -4  10   33.25   13.08
  -4   3  10   38.91   11.92
   1  -4   9    2.85   10.41
   3   1   9   -9.03   19.03
   3   1   9   15.20   15.30
  -4   3   9   19.46    8.15
   1  -4   8   32.74   10.47
   3   1   8   46.88   16.69
  -4   3   8   36.49    8.50
  -4   3   7  122.96   12.06
  -1   4  -7  150.83    9.23
   3   1   7  125.34   20.27
   1  -4   7  152.95   14.51
  -4   3   6  319.26   15.87
   3   1   6  314.39   24.10
  -1   4  -6  288.21   11.45
   1  -4   6  299.11   16.89
  -4   3   5   25.26    7.90
  -1   4  -5   13.14    6.25
   3   1   5   22.94   16.01
   1  -4   5    9.29    9.96
  -4   3   4    0.63    7.21
   1  -4   4    6.87    8.05
   3   1   4   -4.83   14.77
  -1   4  -4   -0.77    5.91
  -1   4  -3  197.38    9.19
   3   1   3  169.29    6.76
   1  -4   3  198.56   11.92
   3   1   3  176.23   17.30
  -4   3   3  184.20   11.00
  -4   3   3  170.79   11.00
  -4   3   2   16.44    5.97
  -4   3   2    8.98    6.28
   3   1   2   13.00    4.22
  -3  -1  -2    5.17    4.58
   1  -4   2    6.15    7.70
  -1   4  -2   10.02    4.71
   3   1   2   15.00   11.71
  -3  -1  -1   33.56    4.69
  -4   3   1   27.73    7.17
  -1   4  -1   49.71    4.28
   3   1   1   37.94    4.93
  -1   4  -1   41.73    5.95
  -4   3   1   31.62    6.23
   3   1   1   27.87   11.14
   1  -4   1   46.27    7.99
  -4   3   0   83.63    6.89
  -3  -1   0   71.12    5.32
  -4   3   0   54.34    9.25
  -1   4   0  116.76    4.89
   3   1   0   71.39   10.92
  -1   4   0  118.07    7.90
  -3  -1   1 3633.87   30.07
  -4   3  -1 3661.05   31.13
   3   1  -1 3664.82   43.11
  -1   4   1 3622.34   22.55
  -4   3  -1 3523.79   40.50
  -1   4   1 3559.28   35.37
  -1   4   2    6.87    3.02
   4  -3   2   27.67    5.50
  -1   4   2    9.72   16.42
  -3  -1   2   32.43    5.50
  -4   3  -2   45.23    9.03
  -3  -1   2   31.13    8.48
  -4   3  -2   44.92    4.95
  -1   4   2    9.66    5.46
   3   1  -2   26.53    7.31
   4  -3   2   45.62   13.65
  -3  -1   3   79.78   11.06
  -1   4   3   86.20   19.74
  -1   4   3   68.68    5.34
  -3  -1   3   77.03    6.95
  -1   4   3   72.31    7.86
   4  -3   3   72.94   15.16
   4  -3   3   75.46    7.50
   4  -3   4   13.00    7.74
  -1   4   4    4.18    6.40
  -3  -1   4   10.59   10.37
   4  -3   4    9.03   14.95
  -1   4   4    7.35    3.97
  -3  -1   4   10.74    5.58
  -1   4   4    7.80   18.42
   4  -3   5  919.97   32.84
  -1   4   5  939.66   38.18
  -1   4   5 1009.11   19.25
  -1   4   5 1033.37   22.84
  -3  -1   5  924.70   20.80
  -3  -1   5  986.60   26.38
   4  -3   5  951.21   24.98
   4  -3   6   44.01   10.25
   4  -3   6   50.45   16.34
  -3  -1   6   18.93    6.85
  -1   4   6   13.18    6.46
  -3  -1   6   24.63   11.31
  -1   4   6   14.20    6.34
  -1   4   6   13.65   18.03
  -1   4   7  108.90   10.45
  -1   4   7  108.20   22.64
  -3  -1   7  113.87   10.49
   4  -3   7  107.25   13.37
   4  -3   7  104.09   18.21
  -3  -1   7  121.04   14.18
   4  -3   8    7.54   10.37
  -1   4   8   12.47   17.36
  -1   4   8    5.64    7.21
   4  -3   8   13.47   16.42
  -3  -1   8   10.53    7.46
  -3  -1   8    5.07   10.35
  -3  -1   9  129.62   12.65
  -1   4   9  116.54   22.29
   4  -3   9  134.41   20.94
  -3  -1   9  158.87   16.75
   4  -3   9  158.49   17.54
   4  -3  10   26.83   13.59
  -3  -1  10    5.34   13.45
  -3  -1  10   24.79    9.96
  -1   4  10   15.34   23.04
  -3  -1  11   -7.40   16.07
   2   2  11  -20.23   27.89
   2  -4  10  -15.63   12.53
   2   2  10   -0.33   20.84
  -4   2  10  -12.67    9.15
   2  -4   9   26.73   10.13
  -4   2   9   19.17    8.11
   2   2   9   24.37   18.21
  -4   2   8  122.02   12.43
   2   2   8  139.58   22.80
   2  -4   8  121.65   14.57
   2  -4   7  197.95   15.12
  -4   2   7  245.36   14.44
   2   2   7  253.18   22.66
   2  -4   6  301.65   16.10
   2   2   6  290.90   23.88
  -4   2   6  274.52   14.89
   2  -4   6  308.54   17.64
  -4   2   6  264.45   13.57
   2  -4   5   26.20   12.20
   2  -4   5   24.27    9.41
   2   2   5   14.47    4.24
   2   2   5   13.53   15.85
  -4   2   5   11.04    8.76
  -4   2   5   14.02    6.89
  -2   4  -5   16.60    4.71
  -2   4  -4  132.45    7.42
   2   2   4  123.59   17.62
  -4   2   4  150.74   11.41
  -4   2   4  139.70    8.80
   2   2   4  132.27    6.80
   2  -4   4  134.61   10.78
  -2   4  -3  144.35    7.66
   2  -4   3  153.54    9.49
  -4   2   3  156.00   10.33
  -4   2   3  162.28    8.25
   2   2   3  166.35   17.07
   2   2   3  171.61    7.78
  -4   2   2  246.28    7.95
   2   2   2  229.43    8.66
   2   2   2  243.59   18.01
   2  -4   2  267.24   11.25
  -2   4  -2  261.58    9.31
  -2  -2  -2  229.47    6.09
  -4   2   2  254.92   12.04
  -4   2   1  478.99    9.86
  -2  -2  -1  467.90    7.40
   2   2   1  505.31   12.39
   2  -4   1  582.22   13.37
  -4   2   1  511.60   15.71
  -2   4  -1  657.48   14.00
   2   2   1  487.48   21.01
  -2   4  -1  643.28   14.18
  -2   4   0 3211.57   32.43
   2  -4   0 3229.94   28.12
   2   2   0 3224.75   30.23
  -2   4   0 3351.41   29.30
  -4   2   0 3354.96   36.20
   2   2   0 3373.64   45.72
  -2  -2   0 3195.17   19.25
   4  -2   0 3376.33   45.09
   4  -2   1  565.57   21.33
  -2  -2   1  573.11    9.64
  -2   4   1  473.00   13.98
   2   2  -1  539.86   13.41
  -2   4   1  464.89   11.45
  -4   2  -1  617.63   16.95
   2   2  -1  567.86   18.66
  -2  -2   2  261.17   14.04
  -2   4   2  244.79   11.39
  -2  -2   2  257.03    8.05
   4  -2   2  258.91   17.81
  -2   4   2  231.71    8.66
  -4   2  -2  255.85   12.88
   2   2  -2  267.57   13.06
  -2  -2   3  181.86   13.22
  -2  -2   3  163.50    7.80
   4  -2   3  142.70   16.87
  -2   4   3  162.34    8.52
  -2   4   3  181.94   10.23
   4  -2   3  158.41   10.43
  -2  -2   4  144.59   13.45
  -2  -2   4  128.46    8.05
   4  -2   4  137.56   17.85
  -2   4   4  136.34    8.35
  -2   4   4  146.65   10.45
   4  -2   4  141.94   12.53
   4  -2   5   15.52    8.64
  -2  -2   5   18.48   10.47
  -2   4   5   10.19    7.46
   4  -2   5   30.52   15.55
  -2  -2   5   22.21    6.83
  -2   4   5    9.53    5.40
  -2  -2   6  316.08   17.87
  -2   4   6  253.77   25.16
  -2   4   6  282.64   13.18
   4  -2   6  308.23   22.59
  -2  -2   6  279.59   12.88
  -2   4   6  270.26   14.57
   4  -2   6  312.51   18.07
   4  -2   7  218.65   21.80
  -2   4   7  214.31   23.21
  -2  -2   7  231.06   12.69
  -2   4   7  248.70   13.28
  -2   4   7  251.07   14.32
  -2  -2   7  227.74   17.07
  -2   4   7  214.35   15.93
   4  -2   7  226.92   18.05
  -2  -2   8  111.69   15.28
  -2   4   8   97.79   21.92
  -2   4   8  121.88   11.41
  -2   4   8  111.02   11.27
   4  -2   8  110.08   19.66
  -2   4   8  145.57   15.36
   4  -2   8  141.43   14.97
  -2   4   9    9.43    8.76
   4  -2   9   13.96   12.88
  -2  -2   9   14.49   10.35
   4  -2   9   19.01   18.50
  -2   4   9   34.06   18.76
  -2   4   9   19.76    8.39
   4  -2  10   -5.48   16.34
  -2  -2  10  -21.05   14.22
   4  -2  10  -28.44   22.00
  -2   4  10    3.57    9.72
   1   3  11  -21.82   28.63
   3  -4  10   13.39   12.45
   1   3  10   24.47   23.41
  -4   1  10   14.83   10.37
  -4   1   9  132.37   14.22
   3  -4   9  141.90   15.73
   1   3   9  146.18   21.45
  -4   1   9  120.08   14.65
   3  -4   8    8.31   10.51
   1   3   8   24.08   16.95
  -4   1   8    0.90    8.92
  -4   1   8    6.32    7.52
  -4   1   7  125.69   11.82
   3  -4   7   97.98   16.75
   1   3   7   98.61   19.84
   3  -4   7   91.09   11.49
  -4   1   7   96.53   12.18
   3  -4   6   37.14    9.15
  -4   1   6   19.82    8.78
   1   3   6   20.13    5.48
   1   3   6   30.83   18.56
   3  -4   6   39.95   13.00
  -4   1   6   25.24    8.29
  -4   1   5  978.63   23.88
  -4   1   5  974.39   23.35
   1   3   5  992.02   37.00
   3  -4   5  940.88   29.24
   1   3   5 1011.23   19.48
   3  -4   5  932.79   23.25
  -4   1   4    4.46    7.35
   3  -4   4   12.55    6.85
  -4   1   4    6.13    6.99
   1   3   4   10.17    4.81
   1   3   4    4.97   16.26
  -3   4  -4    7.99    4.26
  -4   1   3   65.93    8.07
  -4   1   3   93.76    8.70
   1   3   3   68.76   17.05
   4  -1  -3   75.48    9.88
  -3   4  -3   82.02    5.91
   1   3   3   62.57    6.54
   3  -4   3   76.58    7.74
   1   3   2   13.75    5.01
  -4   1   2   33.60    6.78
   3  -4   2   36.98    4.93
  -4   1   2   26.61    6.76
  -3   4  -2   39.40    5.09
   1   3   2   18.74   13.63
   4  -1  -2   16.52    9.25
   1   3   1 3583.33   33.39
   4  -1  -1 3661.50   44.29
  -3   4  -1 3588.99   36.49
  -4   1   1 3661.48   37.53
   1   3   1 3501.69   53.64
  -3   4  -1 3616.66   33.78
   3  -4   1 3546.57   26.57
  -3   4   0   47.19    7.72
   1   3   0  108.14    7.74
  -3   4   0   52.52    6.60
   1   3   0  101.36   13.34
   4  -1   0   96.33   12.82
  -4   1   0  110.06    8.70
  -3   4   1   23.35    5.99
  -3   4   1   22.55    6.21
  -4   1  -1   27.71    7.09
   1   3  -1   40.34    5.99
   1   3  -1   61.28   13.04
   4  -1   1   45.15   11.55
  -3   4   2   12.47    6.01
  -4   1  -2    9.66    7.31
  -1  -3   2   17.58    9.80
   4  -1   2   14.67   12.43
   1   3  -2   10.64    5.85
  -3   4   2   15.55    6.21
  -3   4   3  169.98   10.00
   1   3  -3  186.26    9.53
   4  -1   3  171.08   18.34
  -3   4   3  171.77   10.66
  -1  -3   3  191.27   13.96
  -3   4   4    1.00    6.48
   1   3  -4    5.52    6.89
  -1  -3   4   -3.85    9.98
   4  -1   4   -3.42   16.10
  -3   4   4    3.85    6.89
   4  -1   5   17.97   11.21
  -1  -3   5   17.79   11.37
   4  -1   5   16.07   16.01
  -3   4   5   29.75    8.60
   1   3  -5   12.57    6.62
  -3   4   5   28.50    7.88
  -1  -3   6  329.81   18.70
  -3   4   6  318.38   13.92
  -3   4   6  329.01   15.85
   4  -1   6  303.79   23.33
   1   3  -6  326.49   13.20
   4  -1   6  287.00   18.76
  -1  -3   7  147.53   15.36
  -3   4   7   94.15   11.08
   4  -1   7  145.45   20.74
  -3   4   7  112.30   11.41
   4  -1   7  138.40   17.15
   4  -1   8   29.60   12.08
  -1  -3   8   30.17   12.94
  -3   4   8   46.49   10.00
  -3   4   8   36.10    8.82
   4  -1   9    7.70   12.98
  -1  -3   9   -2.34   10.43
   4  -1   9    6.91   17.83
  -3   4   9   12.10    8.90
   4  -1  10   28.44   15.16
  -1  -3  10   36.16   12.14
   4  -1  10    9.25   22.47
  -3   4  10   23.23   10.80
  -3   4  11   11.43   12.22
  -4   0  11   31.48   16.87
   4  -4  10   39.14   14.02
  -4   0  10   23.63   14.51
   0   4  10   15.20   23.51
  -4   0  10   16.83   10.35
   0   4   9    1.65   21.68
   4  -4   9   10.82   11.12
  -4   0   9    2.20   11.96
  -4   0   9   -1.26    8.27
   4  -4   8   24.33   10.41
  -4   0   8   45.60   11.14
   0   4   8   32.29   19.07
   4  -4   8   22.88   18.78
  -4   0   8   25.85    7.64
   0   4   7  149.36   10.80
   0   4   7  166.25   22.70
   4  -4   7  155.88   14.57
  -4   0   7  163.64   12.53
   4  -4   7  183.24   18.56
  -4   0   7  168.78   15.75
   4  -4   6  505.78   26.79
  -4   0   6  579.49   22.06
   4  -4   6  568.12   21.05
   0   4   6  577.57   33.13
  -4   0   6  569.44   19.03
   0   4   6  591.92   17.89
   4  -4   5    8.17    7.27
   0   4   5    5.32    6.66
  -4   0   5    8.19    9.88
   0   4   5   -4.56   17.83
   4  -4   5    0.22   14.91
  -4   0   5   -0.35    6.17
   4  -4   4   28.36    7.84
   0   4   4   47.78    7.97
  -4   0   4   34.96   10.35
   0   4   4   43.99   19.86
  -4   0   4   33.66    7.25
   4  -4   4   35.00   14.93
   0   4   3  266.20   12.20
  -4   0   3  299.33   13.10
   0   4   3  258.20   24.43
  -4   4  -3  281.91    9.23
  -4   0   3  268.59   14.73
   4  -4   3  278.02   10.96
  -4   0   2  631.16   18.97
  -4   4  -2  580.16   18.78
   0   4   2  587.68   29.36
   4   0  -2  632.87   19.42
  -4   0   2  645.36   16.50
  -4   4  -2  583.01   13.43
   0   4   2  620.87   16.28
   0   4   1   14.87    6.15
  -4   0   1   20.74    6.48
  -4   4  -1   43.64    8.68
   0   4   1   25.67   16.97
  -4   4  -1   56.80    6.38
   4   0  -1   26.63   10.39
   0   4   0  451.20   13.77
  -4   0   0  420.37   13.32
  -4   4   0  360.31   14.79
   0   4   0  413.28   23.98
   4   0   0  408.27   19.60
  -4   4   0  341.71   12.59
   0   4  -1  401.63   13.12
  -4   4   1  396.23   13.85
   4   0   1  415.30   20.88
  -4   0  -1  407.41   13.02
  -4   4   1  399.37   15.02
   4   0   2   66.60   15.08
   0   4  -2   69.94    7.52
  -4   4   2   49.81    8.80
  -4   0  -2   60.73    8.60
   0  -4   2   73.65   10.78
   4   0   2   61.73    4.81
  -4   4   2   54.60    7.88
   0  -4   3  140.35   13.20
   0   4  -3  122.59    9.37
   4   0   3  129.37   17.97
  -4   4   3  151.87   10.94
  -4   4   3  156.55   11.19
  -4   0  -3  148.63    9.96
   0  -4   4  222.70   14.36
  -4   4   4  226.84   13.26
   4   0   4  220.40   21.27
  -4   4   4  208.79   12.65
   0   4  -4  216.67   11.27
   0   4  -5  759.67   18.58
   4   0   5  736.47   31.74
  -4   4   5  728.22   22.13
   0  -4   5  727.46   24.18
  -4   4   5  744.66   21.78
   4   0   6    5.38   16.07
   0  -4   6   22.29   10.53
  -4   4   6    7.29    8.68
   0   4  -6   18.76    7.09
  -4   4   6   11.41    7.64
   0  -4   7   91.07   13.63
   0   4  -7  102.50    9.39
  -4   4   7   98.16   10.70
   4   0   7  100.48   20.84
   0   4  -8   10.78    6.74
   0  -4   8   18.62    9.49
   4   0   8    3.67   17.56
  -4   4   8   12.45    8.62
   0  -4   9   49.00   15.28
   4   0   9   29.18   19.91
   4   0   9   54.30   16.05
  -4   4   9   53.62   11.65
   0  -4  10   -4.93   13.96
   4   0  10  -10.15   24.06
   4   0  10    3.30   16.44
  -4   4  10   -5.32   11.55
   4   1  10   -3.57   26.08
   1  -5   9    1.18   12.26
   4   1   9   -1.51   21.76
  -5   4   9   11.31   11.71
   1  -5   8   74.43   12.92
   4   1   8   42.11   20.35
  -5   4   8   72.63   12.75
   1  -5   7   17.66   10.29
  -1   5  -7   27.65    7.68
  -5   4   7   35.14   10.45
   1  -5   6  134.93   14.71
  -1   5  -6  140.84    9.62
   4   1   6  106.49   21.13
  -5   4   6  116.66   11.74
  -5   4   5    5.77    8.21
  -1   5  -5   23.33    6.54
   1  -5   5   12.00    8.88
   4   1   5    8.09   17.22
   1  -5   4  627.10   21.64
  -5   4   4  624.09   21.05
  -1   5  -4  635.88   16.99
  -5   4   4  584.89   20.13
   4   1   4  601.04   30.36
   1  -5   3  341.40   16.71
  -1   5  -3  322.31   12.86
  -5   4   3  359.03   15.75
   4   1   3  365.02   24.29
  -5   4   3  380.34   16.71
  -5   4   2    5.05    8.41
  -1   5  -2   18.54    6.34
   4   1   2   10.76    5.03
   1  -5   2   11.33    9.51
  -5   4   2    5.91    7.88
   4   1   2   10.04   14.53
   4   1   1   40.22    6.21
  -1   5  -1   55.99    8.03
  -4  -1  -1   35.23    5.91
  -5   4   1   21.51    9.13
   1  -5   1   67.70   11.14
  -5   4   1   36.96    8.74
   4   1   1   43.74   14.22
  -4  -1   0  983.21   18.48
  -5   4   0  931.38   20.64
   4   1   0  940.88   29.20
  -5   4   0  959.36   24.47
  -1   5   0  941.63   20.60
  -4  -1   1    8.39    5.20
  -5   4  -1   10.15    9.51
   4   1  -1   19.50   10.51
  -5   4  -1   11.25    5.62
  -1   5   1    9.98    6.60
  -4  -1   2  233.48   15.34
  -4  -1   2  222.48   10.51
   5  -4   2  229.43   21.62
  -5   4  -2  230.98   15.61
  -1   5   2  191.13   11.96
  -4  -1   3   10.88    6.01
  -5   4  -3    8.92    9.45
  -1   5   3   13.81    7.66
  -4  -1   3   11.27   11.19
  -1   5   3   21.25   20.68
   5  -4   3    5.01   16.58
  -4  -1   4  353.06   18.30
   5  -4   4  354.50   24.16
  -1   5   4  358.62   15.63
  -1   5   4  321.68   27.38
  -4  -1   4  340.77   13.53
  -1   5   5   20.46    7.74
  -4  -1   5   55.25   10.78
  -1   5   5   42.42   21.13
   5  -4   5   42.17   15.14
  -4  -1   5   41.46    7.52
  -1   5   6   33.66   19.36
  -4  -1   6    0.67   10.00
   5  -4   6  -10.88   16.99
  -4  -1   6    5.85    7.38
  -1   5   6    4.79    6.46
  -4  -1   7  172.42   16.03
  -1   5   7  190.56   13.87
  -4  -1   7  151.05   12.59
   5  -4   7  153.88   20.35
  -1   5   7  178.53   26.12
   5  -4   8   83.72   12.53
  -1   5   8  105.25   25.55
  -4  -1   8   89.48   14.83
   5  -4   8  114.21   20.50
  -1   5   8   79.13   11.12
  -4  -1   8   78.11   10.70
   5  -4   9    8.43   14.34
  -1   5   9   10.53   23.59
  -4  -1   9    4.95   13.77
   5  -4   9    5.24   20.37
  -4  -1   9   -3.85    9.35
   5  -4  10    3.46   16.62
  -4  -1  10   -0.47   15.26
  -4  -1  10    2.53   10.92
  -1   5  10   20.11   27.22
   2  -5  10   14.32   13.92
   3   2  10   23.47   26.61
   2  -5   9  119.15   15.00
   3   2   9   89.38   24.00
  -5   3   9   94.17   14.79
   2  -5   8   63.55   11.35
   3   2   8   44.11   19.40
  -5   3   8   70.90   10.57
   2  -5   7   -2.16   10.27
   3   2   7   -8.88   17.54
  -5   3   7    6.15    7.86
  -5   3   6   49.61    8.88
   2  -5   6   66.66   11.27
   3   2   6   40.85   17.07
  -5   3   5   74.79   11.02
  -2   5  -5   54.91    6.76
   2  -5   5   62.53   11.02
   3   2   5   82.96   18.72
   2  -5   4  539.86   19.15
  -2   5  -4  543.65   15.00
   3   2   4  532.89   30.38
  -5   3   4  480.64   18.60
   2  -5   3  179.21   12.20
   3   2   3  187.17    9.37
  -2   5  -3  149.54    9.58
   3   2   3  196.61   21.51
  -5   3   3  203.45   13.10
   2  -5   2  746.61   18.97
   3   2   2  708.54   15.67
  -5   3   2  653.91   20.94
   3   2   2  652.98   28.20
  -2   5  -2  736.16   17.32
   2  -5   1 3405.40   36.45
   3   2   1 3326.66   34.41
   3   2   1 3487.57   56.15
  -5   3   1 3697.13   44.19
  -2   5  -1 3530.62   32.19
  -2   5  -1 3250.56   35.12
  -2   5   0   11.90    4.65
  -5   3   0   55.68   10.57
   3   2   0   26.63    6.83
   2  -5   0   24.65    6.74
  -2   5   0    7.35    6.42
   3   2   0   42.09   12.73
   5  -3   0   42.34   15.36
  -2   5   1   31.56    5.66
  -5   3  -1   80.05   11.78
   3   2  -1   56.23    7.50
  -2   5   1   42.01    8.33
   3   2  -1   65.20   12.24
   5  -3   1   71.49   16.58
  -3  -2   2  507.94   20.29
  -2   5   2  569.97   17.89
  -5   3  -2  494.73   19.25
   5  -3   2  507.69   25.71
  -3  -2   3  578.84   21.96
   5  -3   3  555.84   27.59
  -3  -2   3  549.11   13.67
  -5   3  -3  598.68   20.72
  -2   5   3  550.56   18.60
  -3  -2   4  109.69   14.00
  -2   5   4  149.40   11.69
  -3  -2   4   89.71    7.99
   5  -3   4   92.72   19.07
   5  -3   4   91.34   10.53
  -3  -2   5  380.03   19.13
  -2   5   5  333.68   15.99
  -3  -2   5  352.87   13.73
   5  -3   5  374.63   24.61
   5  -3   5  331.17   17.66
   5  -3   6   50.22   10.88
  -3  -2   6   67.70   12.88
   5  -3   6   39.81   16.67
  -2   5   6   75.65   10.19
  -3  -2   6   51.06    8.60
  -3  -2   7  186.30   17.15
  -3  -2   7  160.59   12.00
   5  -3   7  189.15   21.76
  -2   5   7  169.31   13.30
   5  -3   7  184.63   15.18
   5  -3   8    9.51   10.98
  -3  -2   8    1.24   12.69
  -2   5   8   -1.37    8.52
  -3  -2   8   10.19    7.15
   5  -3   8    2.83   19.23
   5  -3   9   34.55   20.11
   5  -3   9   28.65   15.32
  -3  -2   9   26.61   12.61
  -2   5   9   22.84   10.47
   5  -3  10   38.42   18.95
  -3  -2  10   55.62   14.91
   5  -3  10   39.20   26.77
   3  -5  10   46.49   14.12
   2   3  10   30.15   26.47
   3  -5   9   32.03   11.84
   2   3   9   20.94   21.09
  -5   2   9   22.57   11.61
   3  -5   8    9.23    9.98
   2   3   8    2.20   17.97
  -5   2   8   17.18    8.94
  -5   2   7  195.08   14.51
   2   3   7  168.21   24.02
   3  -5   7  178.29   15.26
   3  -5   6   49.35    9.92
   2   3   6   45.56   17.58
   3  -5   6   47.08   14.44
  -5   2   6   74.55   10.33
   2   3   5  356.03   27.73
  -5   2   5  374.73   17.15
   3  -5   5  362.45   16.05
   2   3   4  114.54   21.25
  -5   2   4  137.07   12.06
   2   3   4  131.17    8.21
  -3   5  -4   86.57    7.52
   3  -5   4  109.75   10.08
   2   3   3  515.43   29.75
   5  -2  -3  573.15   21.94
  -5   2   3  550.93   18.85
  -3   5  -3  543.67   14.63
   2   3   3  532.30   14.87
   3  -5   3  555.49   16.67
   3  -5   2  470.63   13.79
   2   3   2  534.36   15.00
   2   3   2  565.63   27.83
   5  -2  -2  549.01   21.92
  -5   2   2  536.07   18.17
  -3   5  -2  473.93   15.50
  -3   5  -2  431.56   13.98
   2   3   1   52.75    7.33
  -5   2   1   45.35    9.88
   5  -2  -1   63.34   14.42
   2   3   1   57.47   16.48
  -3   5  -1   76.73    8.58
  -3   5  -1   87.46    8.15
   2   3   0   22.78    6.68
  -5   2   0   40.71    8.76
  -3   5   0   45.72    7.31
  -3   5   0   55.36    7.97
   2   3   0   25.61   14.65
   5  -2   0   19.78   14.26
   2   3  -1 3447.53   36.67
   2   3  -1 3391.47   50.83
   5  -2   1 3554.74   54.70
  -3   5   1 3547.77   36.49
  -3   5   1 3617.29   41.20
  -5   2  -1 3483.39   43.17
  -2  -3   2  753.95   23.65
   2   3  -2  738.38   18.44
   5  -2   2  736.16   30.25
  -3   5   2  623.23   16.16
  -3   5   2  671.70   19.29
  -5   2  -2  825.60   22.66
  -2  -3   3  169.71   14.89
   2   3  -3  199.52   11.31
   5  -2   3  183.55   19.60
  -3   5   3  222.13   11.16
  -3   5   3  223.11   13.26
  -5   2  -3  181.71   13.28
  -2  -3   4  531.86   21.74
  -3   5   4  501.19   18.95
   5  -2   4  561.78   28.77
   2   3  -4  565.55   17.36
  -3   5   4  508.02   16.16
  -5   2  -4  599.58   20.58
  -2  -3   5   81.07   12.18
   2   3  -5   78.07    8.84
  -3   5   5   88.99    8.27
  -3   5   5   91.40   10.88
   5  -2   5   56.68   16.50
   5  -2   6   51.79   12.71
  -2  -3   6   62.98   13.89
  -3   5   6   43.19   10.11
   5  -2   6   54.21   16.52
  -3   5   6   44.86    8.19
   5  -2   7    0.24   11.23
  -2  -3   7    2.18   11.67
  -3   5   7   -1.49    8.60
   5  -2   7    0.00   17.70
  -3   5   7    1.08    7.33
   5  -2   8   60.27   14.67
  -2  -3   8   71.96   14.57
   5  -2   8   37.63   19.31
  -3   5   8   62.00   10.17
  -3   5   8   60.77   10.04
   5  -2   9  115.52   18.52
  -2  -3   9  120.20   17.42
  -3   5   9   92.50   14.59
   5  -2   9  121.79   24.22
   5  -2  10   23.65   17.13
  -2  -3  10   27.75   14.65
   5  -2  10    6.64   24.63
   4  -5  10   -4.38   15.67
   1   4  10   12.20   27.32
   4  -5   9   -0.65   12.55
   1   4   9  -18.32   22.33
  -5   1   9   -4.75    9.98
   4  -5   8   98.96   12.94
   1   4   8   88.65   25.06
  -5   1   8   83.76   11.61
  -5   1   7  169.39   13.26
   1   4   7  174.42   25.81
   4  -5   7  136.61   19.25
   4  -5   7  152.05   13.22
   1   4   6   -1.85    5.68
   1   4   6    1.53   15.38
   4  -5   6  -10.57   14.44
  -5   1   6    1.75    8.07
  -5   1   5   30.68    8.50
  -5   1   5   49.04    9.58
   1   4   5   33.33    6.66
   1   4   5   37.57   18.58
   4  -5   5   28.95   14.77
  -5   1   4  345.66   15.67
   1   4   4  343.15   26.89
  -5   1   4  361.21   16.05
   1   4   4  385.69   14.28
  -5   1   3    8.37    7.52
  -4   5  -3   10.74    5.56
  -5   1   3   13.85    8.70
  -4   5  -3   10.78    9.09
   1   4   3   27.24   19.07
   1   4   3    8.13    6.30
  -5   1   2  209.65   13.30
   5  -1  -2  221.85   15.65
   1   4   2  172.10   22.21
  -5   1   2  209.87   12.55
  -4   5  -2  231.36   10.96
  -4   5  -2  215.78   13.43
   1   4   2  196.24   11.14
  -4   5  -1   11.55    6.01
  -5   1   1   13.49    7.93
   1   4   1    9.98    6.23
  -4   5  -1   10.80    8.05
   1   4   1    2.28   16.62
   5  -1  -1   23.04   13.81
   1   4   0  951.19   20.72
   1   4   0  943.10   33.80
   5  -1   0  980.18   30.19
  -4   5   0  960.31   21.27
  -5   1   0 1000.53   22.88
  -4   5   0  975.37   22.53
  -4   5   1   21.31    8.66
  -5   1  -1   62.73    9.62
   1   4  -1   49.14   15.48
   5  -1   1   34.88   15.02
   1   4  -1   49.22    7.64
  -4   5   1   25.71    7.48
   1   4  -2   10.15    7.54
  -4   5   2    4.56    7.84
  -5   1  -2   10.74    8.88
  -1  -4   2   22.19   12.35
   5  -1   2   10.96   13.85
  -4   5   2    4.77    7.88
  -1  -4   3  354.42   19.23
   1   4  -3  379.70   15.02
  -4   5   3  373.57   15.44
   5  -1   3  386.02   25.57
  -4   5   3  402.50   16.48
  -5   1  -3  361.90   16.60
  -1  -4   4  627.45   23.55
  -4   5   4  622.31   19.42
   1   4  -4  645.48   18.46
  -5   1  -4  605.81   20.29
   5  -1   4  615.86   30.60
  -4   5   4  639.04   21.66
   1   4  -5   13.39    6.99
  -4   5   5   -1.83    6.36
  -4   5   5   10.57    8.80
  -1  -4   5   11.78   10.29
   5  -1   5    9.68   16.28
  -1  -4   6  123.36   15.00
   1   4  -6  149.22   11.25
  -4   5   6  117.19   12.43
  -4   5   6  111.97   11.04
   5  -1   6  127.89   20.74
  -1  -4   7   35.69   13.39
   1   4  -7   46.80    9.11
   5  -1   7   53.81   18.40
  -4   5   7   56.80   10.90
  -4   5   7   35.00    9.70
  -1  -4   8   68.01   16.58
   1   4  -8   91.70   10.27
  -4   5   8   63.00   10.08
   5  -1   8   59.72   20.76
  -4   5   8   56.58    9.60
  -1  -4   9   -5.46   13.34
   1   4  -9    2.87    8.11
   5  -1   9   27.67   21.13
  -4   5   9   -1.08   10.76
   5  -1  10   22.70   26.85
  -4   5  10   -5.54   12.18
   0   5   9   -7.82   24.61
  -5   0   9   17.40   10.29
  -5   0   8   33.96   13.02
   0   5   8   54.42   23.49
   5  -5   8   61.30   18.38
  -5   0   8   69.03   10.90
  -5   0   7   13.20   11.35
   0   5   7   -1.12   19.99
   5  -5   7  -12.06   16.34
  -5   0   7    0.98    7.66
   0   5   7   -5.03    8.15
  -5   0   6  120.35   13.34
  -5   0   6  124.28   11.69
   0   5   6   94.23   24.08
   0   5   6   92.01   10.13
   5  -5   6   94.80   19.70
  -5   0   5  405.54   19.78
   0   5   5  413.04   32.50
  -5   0   5  365.65   15.97
   5  -5   5  381.70   24.37
   0   5   5  426.95   16.91
  -5   0   4  122.73   10.41
  -5   0   4  130.29   12.90
   5  -5   4  149.20   17.99
   0   5   4  106.60   23.33
   0   5   4  127.09   10.61
  -5   5  -4  126.50   12.94
  -5   0   3   13.02    7.25
   0   5   3    1.98   16.99
  -5   5  -3   14.55    8.54
  -5   0   3   11.80    9.05
   0   5   3    4.52    7.13
  -5   0   2    3.40    6.52
  -5   5  -2    1.37    9.31
   0   5   2    7.82    6.44
  -5   0   2   10.23    9.80
   0   5   2   26.36   20.33
  -5   5  -2    7.80    5.70
  -5   0   1   41.26    7.31
  -5   5  -1   35.53   10.76
   0   5   1   21.19   19.88
   5   0  -1   28.01   14.42
  -5   5  -1   43.84    7.33
   0   5   1   26.42    7.64
   0   5   0  220.16   12.24
   5   0   0  226.72   19.91
  -5   5   0  240.65   12.45
  -5   0   0  226.86   12.75
  -5   5   0  244.63   14.44
  -5   5   1   21.86    9.74
  -5   0  -1    7.97    7.25
   0   5  -1   13.53    7.33
   0  -5   1   16.83   10.70
   5   0   1    2.44   14.63
  -5   5   1   29.42    8.31
   0  -5   2 1836.26   35.39
   0   5  -2 1871.16   29.89
   5   0   2 1956.32   47.04
  -5   5   2 1887.32   33.90
  -5   5   2 1929.33   35.14
  -5   0  -2 1835.40   29.46
   0  -5   3  697.98   23.37
   0   5  -3  719.46   19.21
   5   0   3  723.14   31.84
  -5   5   3  618.18   21.03
  -5   5   3  606.77   20.60
  -5   0  -3  661.57   19.23
  -5   5   4    0.33    8.11
   0  -5   4   -3.04   10.72
  -5   0  -4    4.10    7.07
  -5   5   4    0.98    7.84
   5   0   4    9.98   14.67
   0   5  -4    5.81    6.60
   0   5  -5   33.72    8.25
  -5   5   5   29.38    8.98
   0  -5   5   38.04   11.12
  -5   0  -5   34.00    9.41
  -5   5   5   30.91   10.70
   5   0   5   31.33   18.23
   0  -5   6  230.49   17.30
   0   5  -6  202.68   12.59
  -5   5   6  202.35   15.44
  -5   5   6  240.59   15.18
   5   0   6  178.98   23.78
   5   0   7   14.63   17.20
   0   5  -7   -0.04    6.68
   0  -5   7   13.77   12.61
  -5   5   7    1.63    8.60
   0   5  -8   84.82   10.17
   0  -5   8   80.58   15.73
   5   0   8   84.33   25.10
  -5   5   8   69.80   12.33
   0  -5   9   23.67   13.28
   5   0   9  -18.72   23.51
  -5   5   9    8.01   11.39
   1  -6   8    4.52   13.41
   5   1   8    1.47   24.53
  -6   5   8    6.76   11.25
  -1   6  -7  100.93    9.58
   1  -6   7  127.07   17.46
  -6   5   7  121.51   13.59
   5   1   7  142.09   24.08
  -6   5   6   37.14   11.04
   1  -6   6   44.62   11.69
  -1   6  -6   51.26    7.88
   5   1   6   28.07   19.13
   1  -6   5  335.58   19.29
  -1   6  -5  343.28   15.26
   5   1   5  353.97   30.56
  -6   5   5  354.91   19.60
  -1   6  -4   81.64    9.41
  -6   5   4   82.47   11.82
   1  -6   4   82.68   12.14
   5   1   4   87.40   20.68
  -1   6  -3   76.87    9.01
  -6   5   3   82.53   12.37
   1  -6   3   71.12   11.39
  -6   5   3   49.79   10.23
   5   1   3   69.68   19.25
   1  -6   2  123.32   12.77
  -6   5   2   71.17   11.16
  -6   5   2   70.15   10.76
   5   1   2  103.62   17.01
  -1   6  -2  112.97   10.51
   1  -6   1  429.91   18.76
   5   1   1  408.82   13.89
  -6   5   1  433.39   17.66
   5   1   1  467.78   26.06
  -6   5   1  407.74   19.76
  -1   6  -1  427.97   16.03
  -6   5   0   32.35    9.53
  -6   5   0   50.12    8.15
   5   1   0   35.06   14.08
   5   1   0   18.74    6.09
  -1   6   0   16.10    6.95
  -6   5  -1  193.53   15.44
  -1   6   1  145.79   10.92
  -6   5  -2   31.74   11.31
  -5  -1   2   45.13   11.43
  -1   6   2   37.90    8.48
   6  -5   2   65.85   18.32
  -6   5  -3   42.28   11.25
  -5  -1   3   30.99   11.21
  -1   6   3   33.80    8.88
   6  -5   3   39.12   15.99
  -1   6   4   40.12    8.52
  -5  -1   4   39.91   12.06
  -6   5  -4   45.11   11.86
   6  -5   4   38.73   18.91
  -1   6   5   25.75    8.52
  -5  -1   5   26.04   11.51
  -6   5  -5   11.51   10.47
   6  -5   5   23.27   18.50
  -5  -1   5   16.99    7.07
  -5  -1   6  330.09   20.48
  -1   6   6  251.74   30.89
  -5  -1   6  251.98   14.67
   6  -5   6  253.98   24.31
  -1   6   6  306.18   17.52
  -1   6   7   15.97   22.04
  -5  -1   7   14.24   15.22
   6  -5   7   -2.20   17.50
  -5  -1   7   14.20    8.92
  -1   6   7   17.01   10.94
  -5  -1   8   36.00   14.75
  -1   6   8   15.44   27.79
   6  -5   8    4.01   20.50
  -5  -1   8   12.63    9.96
  -5  -1   9  -23.76   17.30
   6  -5   9    7.76   25.28
  -5  -1   9  -19.48   12.55
   2  -6   9    2.95   14.32
   2  -6   8   -6.91   12.14
   4   2   8    2.75   21.80
  -6   4   8    2.71    9.96
   4   2   7   67.09   22.84
   2  -6   7  119.86   12.00
  -6   4   7   89.13   13.28
  -6   4   6  146.53   14.57
   4   2   6  127.84   23.71
   2  -6   6  125.52   15.20
   2  -6   5  104.64   12.55
  -2   6  -5   96.92    8.86
  -6   4   5   71.08   11.51
   4   2   5  106.25   20.84
  -2   6  -4    3.50    5.24
  -6   4   4    5.32    8.23
   2  -6   4    4.65    9.03
   4   2   4    2.18   17.77
   2  -6   3  300.23   15.12
   4   2   3  240.41   23.63
  -6   4   3  262.45   15.48
  -2   6  -3  283.76   13.45
   2  -6   2  294.11   14.89
   4   2   2  305.91   12.26
   4   2   2  343.42   24.96
  -6   4   2  334.60   17.36
  -2   6  -2  290.69   12.98
   2  -6   1  226.58   13.30
   4   2   1  210.44   11.00
   4   2   1  220.48   21.66
  -6   4   1  180.67   14.61
  -2   6  -1  222.99   11.98
   4   2   0   23.08    6.93
  -6   4   0   34.21    9.84
   2  -6   0   12.59    7.54
  -2   6   0   10.35    7.07
   4   2   0   29.36   12.86
   6  -4   0   39.12   16.69
   4   2  -1  835.50   20.68
   6  -4   1  809.02   32.11
  -6   4  -1  831.43   25.89
  -2   6   1  856.08   22.70
  -4  -2   2  465.25   20.96
   6  -4   2  432.57   25.94
  -6   4  -2  482.73   20.84
  -2   6   2  361.51   16.48
  -2   6   3   56.72    9.11
  -6   4  -3   41.62   11.27
  -4  -2   3   65.73   12.86
   6  -4   3   45.60   17.99
  -2   6   4    8.48    7.15
  -4  -2   4   16.65   11.80
  -6   4  -4   18.09   11.39
   6  -4   4  -18.25   16.07
  -4  -2   5  144.06   16.01
  -2   6   5  143.33   12.59
   6  -4   5  113.89   22.43
  -6   4  -5  147.91   15.04
  -4  -2   6   59.14   13.51
   6  -4   6   84.39   19.29
  -2   6   6   43.72   10.53
  -4  -2   7   22.17   11.96
   6  -4   7    4.58   17.48
  -2   6   7   -1.24    8.78
  -4  -2   8   11.14   13.67
  -2   6   8   22.45   10.78
   6  -4   8   -5.24   21.33
  -4  -2   9   -7.38   16.07
  -2   6   9   19.74   13.16
   6  -4   9   23.41   23.78
   3  -6   9    1.77   13.53
   3   3   9   21.39   25.32
   3  -6   8   71.27   13.43
   3   3   8   58.94   22.74
  -6   3   8   72.90   12.00
   3  -6   7   24.96    9.98
   3   3   7   48.65   19.44
  -6   3   7   35.86   13.02
  -6   3   6   31.27   10.25
   3  -6   6   29.42    9.70
   3   3   6   18.03   20.64
  -6   3   5   19.44   10.23
   3  -6   5   47.27    8.98
   3   3   5   22.19   17.85
   3   3   4  237.25   24.69
  -6   3   4  252.31   15.50
  -3   6  -4  187.30   10.47
  -6   3   3   47.37    9.09
   3   3   3   46.15    7.25
   3   3   3   47.57   19.62
  -3   6  -3   75.87    8.54
   6  -3  -3   51.67   14.16
  -3   6  -3   55.99    7.44
   3   3   2  353.34   13.55
   3   3   2  336.41   26.20
   6  -3  -2  349.84   21.90
  -6   3   2  335.62   17.44
  -3   6  -2  378.69   14.24
  -3   6  -2  338.06   13.85
   3   3   1  225.09   11.88
   3   3   1  240.84   22.06
   6  -3  -1  265.47   21.62
  -6   3   1  205.79   15.28
  -3   6  -1  311.70   14.08
   3   3   0 2978.92   37.16
   3   3   0 3061.64   56.41
   6  -3   0 2999.90   53.77
  -6   3   0 3132.27   45.66
  -3   6   0 2955.67   39.69
   3   3  -1  281.91   13.69
   6  -3   1  284.03   23.04
  -6   3  -1  329.73   17.40
  -3  -3   2  382.78   19.40
   3   3  -2  354.67   14.85
   6  -3   2  328.24   24.67
  -3   6   2  346.09   16.48
  -6   3  -2  345.64   18.62
  -3   6   3   32.74    9.25
   3   3  -3   50.42    8.68
  -6   3  -3   60.82   12.16
  -3  -3   3   67.29   12.43
   6  -3   3   46.25   17.56
  -3  -3   4  243.10   17.99
   3   3  -4  233.73   12.92
   6  -3   4  244.42   23.12
  -3   6   4  266.02   16.83
  -6   3  -4  225.64   16.71
  -3  -3   5   23.08   12.63
  -6   3  -5   37.04   11.65
   3   3  -5   28.56    8.64
   6  -3   5   27.42   19.48
  -3   6   5    9.13    7.48
  -3  -3   6   36.16   12.41
   6  -3   6   48.24   19.31
  -3   6   6   40.16   10.35
  -3  -3   7   40.97   12.00
  -3   6   7   60.25   11.80
   6  -3   7   56.90   22.59
  -3  -3   8   78.85   15.99
  -3   6   8   85.16   13.24
   6  -3   8   95.00   21.35
  -3  -3   9    2.18   15.77
  -3   6   9   -1.43   13.00
   6  -3   9   35.53   24.88
   2   4   8   43.01   23.02
  -6   2   8   14.75   10.11
   2   4   7    1.73   19.74
  -6   2   7    0.75    8.96
  -6   2   6   52.16   11.16
   2   4   6   71.08   23.16
   4  -6   6   81.74   17.83
  -6   2   5  155.82   13.83
   2   4   5  158.89   24.90
  -6   2   4   10.86    8.54
   2   4   4   23.71   18.32
   2   4   4   17.05    5.83
  -6   2   3   69.37   10.00
  -4   6  -3   42.42    6.78
  -4   6  -3   44.27    8.54
   2   4   3   36.94   18.97
   2   4   3   48.96    7.68
   2   4   2  390.38   15.14
   2   4   2  377.63   28.05
   6  -2  -2  408.37   22.09
  -6   2   2  384.86   16.89
  -4   6  -2  454.35   16.20
  -4   6  -2  499.64   17.62
   2   4   1  903.82   21.60
   2   4   1  878.96   35.94
   6  -2  -1  833.67   30.89
  -6   2   1  878.21   24.27
  -4   6  -1  747.78   20.98
  -4   6  -1  817.76   21.92
  -4   6   0   37.94    8.31
  -6   2   0    5.81    9.09
  -4   6   0   33.15    7.86
   2   4   0   15.81    7.23
   2   4   0   12.26   16.24
   6  -2   0   11.43   16.18
   2   4  -1  225.74   12.96
   2   4  -1  208.40   19.19
   6  -2   1  251.35   21.94
  -4   6   1  160.87   11.88
  -4   6   1  163.99   11.55
  -6   2  -1  233.83   14.85
  -2  -4   2  329.24   18.80
   2   4  -2  335.70   14.51
  -4   6   2  368.13   15.40
   6  -2   2  362.20   24.16
  -4   6   2  367.95   16.95
  -6   2  -2  299.94   16.56
  -2  -4   3  308.01   18.85
   2   4  -3  295.66   14.20
   6  -2   3  301.16   24.08
  -4   6   3  259.54   15.14
  -4   6   3  250.11   13.08
  -6   2  -3  299.55   16.81
  -4   6   4    8.43    6.80
  -6   2  -4    5.83    9.56
  -2  -4   4    5.07   11.59
   6  -2   4    6.28   17.36
  -4   6   4   19.15    9.15
   2   4  -4    6.87    7.70
   2   4  -5   92.74   10.53
  -2  -4   5  104.66   15.99
  -4   6   5   81.49    9.74
   6  -2   5   99.61   21.58
  -4   6   5   69.66   13.04
  -6   2  -5   97.18   12.92
  -2  -4   6  164.80   24.37
   2   4  -6  135.16   12.26
  -4   6   6  188.72   15.08
   6  -2   6  127.95   24.49
  -6   2  -6  116.54   13.08
  -2  -4   7  119.88   15.20
   2   4  -7  126.48   12.39
  -4   6   7   87.55   14.91
   6  -2   7   90.54   23.10
  -2  -4   8    9.62   12.18
  -4   6   8   10.19   11.80
   6  -2   8  -23.69   24.16
   2   4  -8    1.69    8.01
  -4   6   9   -2.30   14.06
   6  -2   9   15.36   24.39
   2   4  -9    1.14    9.56
   1   5   8   27.69   24.59
  -6   1   8   16.54   10.27
   1   5   7    2.95   22.09
   5  -6   7   25.30   17.22
  -6   1   7   22.23    9.74
   1   5   6  339.04   32.31
  -6   1   6  291.83   17.28
   5  -6   6  248.76   22.78
  -6   1   5   16.93    8.01
   1   5   5   19.88    7.11
   1   5   5    9.68   22.61
   5  -6   5   35.57   16.03
  -6   1   4   39.40    9.33
  -5   6  -4   38.22    9.53
   1   5   4   49.12    9.17
   1   5   4   51.77   21.35
  -6   1   3   44.07    8.80
  -5   6  -3   40.87   11.25
   1   5   3   40.42   18.87
   1   5   3   30.78    7.95
  -5   6  -2   25.28    6.58
  -6   1   2   32.15    7.50
  -5   6  -2   23.53   10.27
   1   5   2   36.55   19.82
   1   5   2   37.71    8.17
   6  -1  -1  178.58   17.52
   1   5   1  167.35   23.39
  -5   6  -1  181.04   11.84
  -6   1   1  166.53   12.55
  -5   6  -1  161.03   14.02
   1   5   1  167.23   11.39
  -6   1   0   12.55    8.13
  -5   6   0   38.87    9.33
   1   5   0    9.76    6.99
   1   5   0   34.72   17.68
   6  -1   0   13.96   14.28
  -5   6   0   42.03    8.84
   1   5  -1  467.43   16.52
   6  -1   1  459.28   27.02
  -5   6   1  443.60   18.09
  -5   6   1  460.87   17.87
  -6   1  -1  456.45   17.70
  -1  -5   2  118.27   14.61
   1   5  -2  122.41   10.19
  -5   6   2   75.67   10.68
  -5   6   2   75.59   11.33
  -6   1  -2  111.63   11.12
   6  -1   2  109.24   17.77
  -5   6   3   71.51   10.31
   1   5  -3   73.94    9.78
  -6   1  -3   53.20   10.39
  -1  -5   3   67.97   12.86
  -5   6   3   72.08   10.66
   6  -1   3   44.99   17.30
   1   5  -4   85.12   10.72
  -6   1  -4   75.65   12.00
  -1  -5   4   75.91   13.73
  -5   6   4  117.80   13.73
  -5   6   4  111.42   12.82
   6  -1   4  104.76   20.96
  -1  -5   5  355.46   21.05
   1   5  -5  355.62   15.87
   6  -1   5  375.20   31.74
  -5   6   5  389.71   19.80
  -5   6   5  334.82   18.09
  -6   1  -5  307.05   17.46
  -5   6   6   32.21   10.02
  -1  -5   6   49.98   13.61
   1   5  -6   51.65    9.74
  -6   1  -6   48.88   11.74
  -5   6   6   31.25   10.41
   6  -1   6   19.93   18.09
   1   5  -7  133.16   12.77
  -1  -5   7  126.11   18.62
  -5   6   7  125.83   14.71
   6  -1   7  147.34   21.68
  -6   1  -7  128.09   13.10
  -5   6   7   87.51   12.47
  -1  -5   8    6.40   13.98
  -5   6   8   16.07   12.39
   1   5  -8    3.83    8.70
   6  -1   8   13.34   23.29
  -5   6   8   -8.41   11.27
   1   5  -9   22.29    9.94
  -5   6   9   21.62   12.71
   6  -6   8   59.02   23.14
  -6   0   8   28.05   11.14
   0   6   7   76.12   25.43
   6  -6   7   72.98   24.02
  -6   0   7   82.23   11.29
   0   6   6   33.23    9.21
  -6   6  -6   24.84   10.19
   0   6   6   24.90   22.27
   6  -6   6   13.53   16.58
  -6   0   6   17.22    8.60
   0   6   5   -3.95    8.25
  -6   6  -5    0.16    9.92
   0   6   5   12.26   22.68
   6  -6   5   -3.06   18.50
  -6   0   5    4.40    8.88
  -6   6  -4   67.95   12.53
  -6   0   4   93.19   10.68
   0   6   4   89.24   22.55
   0   6   4   84.92   10.53
   6  -6   4   76.61   20.21
  -6   0   3   -1.71    8.11
  -6   6  -3   -4.99    9.29
  -6   0   3   -1.47   10.00
   0   6   3   -7.88    7.03
   0   6   3    7.48   20.27
  -6   0   2   -0.45    7.03
  -6   6  -2    6.17   10.02
  -6   0   2    0.81   10.19
   0   6   2   33.03   23.31
   0   6   2    2.38    7.05
  -6   0   1    8.48    6.52
  -6   6  -1    2.87    9.58
   0   6   1   -0.31    6.32
   6   0   0  232.42   19.50
  -6   6   0  207.36   12.96
  -6   6   0  199.54   15.08
   0   6   0  240.80   13.34
   0   6  -1   44.27    8.15
  -6   6   1   76.89   11.74
   0  -6   1   50.69   13.10
  -6   6   1   71.02    9.98
   6   0   1   72.39   18.50
  -6   6   2    1.28    9.19
   0   6  -2    5.28    6.97
   0  -6   2    6.74   11.61
  -6   6   2   22.31    8.68
   6   0   2   29.32   16.99
   0  -6   3  359.66   19.70
   0   6  -3  377.89   15.97
  -6   6   3  455.78   20.37
   6   0   3  381.13   28.48
  -6   6   3  428.50   20.11
   0  -6   4  530.96   23.92
   0   6  -4  587.46   19.91
  -6   6   4  449.46   22.47
   6   0   4  556.83   33.13
  -6   6   4  460.95   21.19
  -6   6   5   64.26   12.35
   0  -6   5   32.05   11.90
  -6   6   5   65.07   13.43
   0   6  -5   32.15    7.86
   6   0   5   51.46   18.15
   0   6  -6  158.61   11.82
   0  -6   6  116.74   14.36
  -6   6   6   91.66   14.32
  -6   6   6  108.35   13.37
   6   0   6  115.11   28.05
   0  -6   7    0.63   13.94
   6   0   7  -18.17   22.66
   0   6  -7    2.59    8.60
  -6   6   7   13.24   11.61
   0   6  -8   90.21   11.04
  -6   6   8   53.28   12.75
   1  -7   7   41.95   14.51
  -1   7  -7   48.47    9.47
  -7   6   6   96.43   15.57
  -1   7  -6  105.29   11.29
   1  -7   6   95.23   16.05
   6   1   6  106.76   24.53
  -7   6   5   -9.53   11.65
  -1   7  -5   16.18    7.62
   1  -7   5   21.60   11.35
   6   1   5   16.89   21.45
  -7   6   4   18.38   11.49
  -1   7  -4    6.01    7.42
   1  -7   4   26.75   10.78
  -1   7  -3   78.44    9.47
  -7   6   3   53.18   10.74
   1  -7   3   54.66   11.21
  -7   6   3   55.82   12.33
   6   1   3   66.28   18.72
   1  -7   2  216.12   16.30
  -7   6   2  180.12   14.89
  -7   6   2  220.67   17.34
   6   1   2  197.30   24.45
  -1   7  -2  212.46   13.77
  -7   6   1    5.34   10.57
   1  -7   1   13.81   10.33
  -7   6   1   16.81    9.74
   6   1   1   26.61   16.77
  -1   7  -1   11.69    8.31
  -7   6   0    9.25   11.43
   6   1   0    1.12    6.32
   1  -7   0   26.79    9.29
  -1   7   0    2.89    7.76
  -7   6  -1   95.02   15.18
  -1   7   1  128.76   12.43
  -7   6  -2   65.62   14.28
  -6  -1   2   67.89   13.28
  -1   7   2   52.56   10.25
   7  -6   2   66.13   19.91
  -7   6  -3   -0.41   11.16
  -6  -1   3   -0.53   12.51
  -1   7   3   -9.05    7.80
   7  -6   3  -10.27   16.69
  -1   7   4   45.98   10.53
  -7   6  -4   20.21   12.86
  -6  -1   4   25.43   12.79
   7  -6   4   15.42   18.89
  -6  -1   5  107.29   13.43
  -7   6  -5   71.61   14.49
  -1   7   5  109.00   13.34
   7  -6   5  111.28   22.43
  -1   7   6    4.52   11.08
  -6  -1   6   -0.77   13.87
  -7   6  -6   11.96   11.33
   7  -6   6    1.67   21.33
   7  -6   7   26.93   22.68
  -1   7   7   12.33   12.75
   2  -7   8   83.23   14.71
  -7   5   7   72.92   13.47
   2  -7   7   59.96   13.98
   5   2   7   82.49   24.43
  -7   5   6   14.89   10.76
   2  -7   6   16.20   12.14
   5   2   6   -7.60   22.80
  -2   7  -5   18.89    7.21
  -7   5   5   19.50   10.39
   2  -7   5   18.64   10.43
   5   2   5   10.04   18.91
   2  -7   4  198.17   15.44
  -7   5   4  163.38   15.40
   5   2   4  193.26   24.10
  -2   7  -4  159.85   11.51
  -7   5   3   24.35   10.47
   5   2   3  -17.11   16.30
  -2   7  -3   -2.08    6.93
  -7   5   2   86.00   13.34
   5   2   2   65.58   18.17
  -2   7  -2  107.90   10.29
  -7   5   1   14.71   11.45
   5   2   1   11.98    6.09
   5   2   1   23.12   16.50
  -2   7  -1    7.01    7.23
   5   2   0  195.53   11.78
   7  -5   0  180.49   20.31
  -7   5   0  187.74   16.89
  -2   7   0  207.89   13.87
  -7   5  -1   19.42   10.90
  -2   7   1    9.41    6.89
   7  -5   1   18.19   17.01
   5   2  -1   -2.47    7.23
  -7   5  -2   -2.85   11.88
  -2   7   2   13.75    7.99
  -5  -2   2    8.29   11.23
   7  -5   2   22.57   16.89
   5   2  -2   10.02    6.38
  -5  -2   3  207.16   19.23
  -2   7   3  253.49   16.03
  -7   5  -3  180.80   23.35
   7  -5   3  138.56   22.45
  -5  -2   4  394.94   22.66
   7  -5   4  399.37   28.54
  -2   7   4  388.75   19.19
  -7   5  -4  381.17   21.17
  -2   7   5    5.95    9.94
  -5  -2   5  -11.10   12.16
  -7   5  -5  -10.96   11.41
   7  -5   5  -17.56   18.21
  -5  -2   6   26.00   12.57
  -7   5  -6   42.74   11.53
   7  -5   6   57.86   20.03
  -2   7   6   37.37   10.31
  -5  -2   7   32.64   15.75
  -7   5  -7   12.18   12.51
   7  -5   7   21.41   21.56
  -2   7   7   36.12   12.16
  -2   7   8   31.74   13.32
   4   3   7    6.19   25.22
  -7   4   7   17.89   12.06
  -7   4   6   87.87   13.45
   4   3   6   62.65   24.22
  -7   4   5  150.13   15.52
   4   3   5  197.93   27.73
  -7   4   4   -1.26   10.59
   4   3   4   -4.14   18.36
  -3   7  -4    6.52    6.05
  -7   4   3   65.16   12.08
   4   3   3   38.28   17.79
  -3   7  -3   45.39    8.07
   4   3   2  100.99    9.31
  -7   4   2   70.45   13.06
   4   3   2   58.45   16.20
  -3   7  -2   92.13    9.45
   7  -4  -2   83.06   19.60
   4   3   1  166.74   11.47
   7  -4  -1  178.29   20.70
   4   3   1  165.66   20.37
  -7   4   1  188.48   16.69
  -3   7  -1  159.46   11.45
  -7   4   0   40.38   12.26
   4   3   0   45.94    8.09
  -3   7   0   55.05    9.62
   7  -4   0   46.41   17.73
  -7   4  -1   76.99   13.57
  -3   7   1   36.94    9.25
   4   3  -1   74.81    9.60
   7  -4   1   79.86   17.56
  -4  -3   2  392.70   22.27
   4   3  -2  399.22   16.58
   7  -4   2  358.27   27.14
  -3   7   2  428.66   19.76
  -7   4  -2  385.41   21.43
  -4  -3   3  378.91   22.31
   4   3  -3  352.67   16.52
   7  -4   3  337.04   26.93
  -3   7   3  371.05   18.62
  -7   4  -3  390.01   22.47
  -3   7   4    8.11    8.35
  -7   4  -4    1.71   11.78
  -4  -3   4    7.68   12.31
   4   3  -4   16.58    8.41
  -4  -3   5   16.50   12.45
  -7   4  -5   30.23   12.00
   4   3  -5   21.98    7.90
   7  -4   5   33.60   18.34
  -3   7   5   11.78    9.13
   4   3  -6   72.31   10.57
  -4  -3   6   92.76   16.40
  -7   4  -6   88.01   14.47
   7  -4   6   32.92   19.27
  -3   7   6   95.04   14.06
   4   3  -7   29.91    8.86
  -4  -3   7   30.97   14.20
  -7   4  -7   34.04   13.61
   7  -4   7   50.26   21.96
  -3   7   7   18.93   11.92
  -3   7   8   20.05   13.75
   3   4   7    0.12   26.04
  -7   3   7   24.16   11.10
  -7   3   6   56.82   12.22
   3   4   6  110.79   27.63
  -7   3   5   20.43    9.66
   3   4   5   16.85   19.86
  -7   3   4   16.85   10.86
   3   4   4    1.79   18.78
   3   4   3  330.22   28.32
  -7   3   3  341.14   18.99
  -4   7  -3  358.50   15.38
   3   4   3  353.50   15.06
   3   4   2  405.78   16.44
   3   4   2  409.10   30.40
   7  -3  -2  386.20   24.73
  -7   3   2  429.05   20.17
  -4   7  -2  331.09   15.55
  -7   3   1   44.88   12.08
  -4   7  -1   76.61    9.56
   3   4   1   61.67    9.29
   3   4   1   58.90   19.25
   7  -3  -1   53.85   17.44
  -7   3   0   69.37   12.49
  -4   7   0   17.42    8.58
   7  -3   0   33.68   17.50
   3   4   0   58.96    8.52
   3   4  -1  193.53   13.20
   7  -3   1  169.61   22.19
  -4   7   1  175.23   13.22
  -7   3  -1  166.98   14.81
  -4   7   2   52.75   10.23
   3   4  -2   89.26   10.53
  -3  -4   2   93.47   15.14
  -7   3  -2  112.65   13.08
   7  -3   2   97.61   16.81
  -7   3  -3   50.34   12.82
  -3  -4   3   61.77   14.91
   3   4  -3   67.31    9.82
   7  -3   3   47.57   19.58
  -4   7   3   69.66   11.45
  -7   3  -4   -2.59    9.33
  -3  -4   4   -1.26   13.20
   7  -3   4   12.94   20.07
  -4   7   4    0.06    9.07
   3   4  -4   -2.20   14.36
  -3  -4   5  150.64   18.17
   3   4  -5  149.62   13.24
  -4   7   5  178.58   15.99
   7  -3   5  165.37   26.73
  -7   3  -5  145.45   15.48
  -3  -4   6  117.35   16.71
   3   4  -6   92.92   11.74
  -7   3  -6   93.31   15.28
  -4   7   6   65.30   13.43
   7  -3   6   87.59   22.92
  -3  -4   7   13.32   13.83
  -7   3  -7    1.55   11.45
   3   4  -7    9.43    8.94
  -4   7   7    0.00   12.71
   7  -3   7  -29.52   22.80
   2   5   7   28.20   27.71
  -7   2   7   26.04   12.20
   2   5   6   16.24   23.94
   5  -7   6   36.96   17.07
  -7   2   6   33.19   11.67
  -7   2   5    3.48   10.15
  -5   7  -5    7.78    9.11
   2   5   5   25.45   22.17
   2   5   4  410.71   33.33
  -7   2   4  391.89   20.60
  -5   7  -4  371.78   18.76
   2   5   4  395.33   16.83
   2   5   3  208.81   26.91
  -7   2   3  203.80   15.65
  -5   7  -3  177.37   14.91
   2   5   3  199.72   12.75
   2   5   2    4.67    6.70
  -5   7  -2    5.24    7.29
  -7   2   2   18.76    8.41
  -5   7  -2    6.38    7.82
   2   5   2    5.20   21.11
  -7   2   1    0.10    9.25
   2   5   1    9.25    7.27
  -5   7  -1   12.94    8.29
   2   5   1  -11.90   18.36
   7  -2  -1   16.16   14.55
   2   5   0  212.33   13.51
   7  -2   0  192.25   20.86
   2   5   0  176.35   22.19
  -5   7   0  203.27   14.18
  -7   2   0  228.86   15.91
  -5   7   0  185.30   13.77
  -5   7   1   14.20    8.54
  -7   2  -1   10.04   10.59
   2   5  -1   24.82    7.46
   7  -2   1   11.08   16.36
  -5   7   1   31.11    9.31
   2   5  -2  108.27   10.82
  -2  -5   2  112.65   16.56
  -5   7   2   99.02   12.16
  -7   2  -2  106.11   13.73
   7  -2   2  106.53   20.25
   2   5  -3    1.63   16.69
  -7   2  -3   -3.67   10.49
  -2  -5   3   -0.47   13.55
   7  -2   3    2.65   16.58
  -5   7   3   10.61    8.92
  -2  -5   4  184.75   18.60
   2   5  -4  189.23   14.38
  -5   7   4  178.25   16.26
   7  -2   4  189.96   26.93
  -7   2  -4  167.27   14.77
   2   5  -5   17.60   10.06
  -7   2  -5   13.59   11.27
  -2  -5   5    4.69   12.75
  -5   7   5   12.39   11.41
   7  -2   5   26.14   22.64
  -2  -5   6   19.99   12.04
  -7   2  -6   16.91   10.96
   2   5  -6   -7.31    9.56
  -5   7   6  -10.96   11.27
   7  -2   6    7.44   21.35
  -2  -5   7   62.40   15.10
  -7   2  -7  100.08   15.71
  -5   7   7   63.28   13.67
   2   5  -7   60.94   11.02
   7  -2   7   90.97   25.45
  -6   7  -7   29.05   13.83
   6  -7   7   48.63   23.82
  -7   1   7   29.18   11.90
  -6   7  -6    7.13   10.88
   1   6   6   -4.83   28.07
   6  -7   6   15.97   18.42
  -7   1   6   -4.60   10.70
  -7   1   5   86.18   10.86
   1   6   5   95.94    9.64
  -6   7  -5   94.17   12.14
   1   6   5   86.43   28.97
   6  -7   5  100.34   22.45
  -7   1   4   41.24   11.29
  -6   7  -4   14.14   10.80
   1   6   4   23.31    8.37
  -7   1   3    3.44    8.70
  -6   7  -3   18.07   10.82
   1   6   3    0.69   21.66
   1   6   3   14.06    7.54
  -7   1   2   52.93   10.19
  -6   7  -2   79.21   12.82
   1   6   2   58.66   19.64
   1   6   2   50.97    9.92
   1   6   1  113.71   20.19
  -6   7  -1   95.00   12.16
  -7   1   1  127.36   12.79
  -6   7  -1  125.71   13.53
   1   6   1  113.71   11.16
   1   6   0    9.58    6.68
  -7   1   0   -2.57    8.64
  -6   7   0   -9.47    9.78
   7  -1   0   -4.77   15.52
  -6   7   0   -3.57    8.31
  -6   7   1    8.41    9.53
  -7   1  -1   14.20    9.47
   1   6  -1   15.57    6.95
  -1  -6   1   31.38   10.06
   7  -1   1   20.90   17.40
  -6   7   1   12.77    9.27
   1   6  -2  234.15   14.24
  -1  -6   2  225.66   17.62
   7  -1   2  192.96   24.04
  -6   7   2  247.54   17.09
  -6   7   2  207.53   15.61
  -7   1  -2  191.74   14.81
  -6   7   3   44.48   11.57
  -1  -6   3   50.67   13.92
   1   6  -3   65.52    9.56
  -6   7   3   45.58   12.04
   7  -1   3   67.99   18.34
  -6   7   4   11.82   10.45
  -1  -6   4    4.91   11.27
  -6   7   4   30.30   12.55
   1   6  -4   14.49    8.11
   7  -1   4   18.36   19.60
  -6   7   5   14.38   11.02
  -1  -6   5   26.91   12.22
  -6   7   5   24.10   12.22
   7  -1   5   33.09   23.69
   1   6  -5   40.79    9.53
  -6   7   6   98.32   15.61
   1   6  -6  108.73   12.45
  -1  -6   6  122.77   18.97
  -6   7   6  110.28   16.36
   7  -1   6  111.75   24.00
   0   7   6   48.92   12.96
   0   7   5   22.43   10.96
  -7   7  -5   38.81   12.51
   0   7   5    6.17   26.71
   7  -7   5   38.18   19.88
  -7   7  -4   20.33   11.06
   0   7   4   33.60   10.37
   7  -7   4   14.61   20.50
  -7   7  -3   18.17   12.53
   0   7   3   26.20    8.96
   7  -7   3   23.55   18.40
  -7   7  -2   70.09   13.06
   0   7   2   57.92    9.70
  -7   7  -1    4.44   10.06
   0   7   1  -12.59    8.23
  -7   7   0   43.07   14.00
   0  -7   0   25.06   11.45
   0   7   0   34.72    9.09
   0  -7   1  389.44   22.11
  -7   7   1  345.48   19.78
  -7   7   1  380.95   22.19
   0   7  -1  405.66   18.56
  -7   7   2   53.77   14.04
   0  -7   2   78.85   14.65
  -7   7   2   45.86   11.45
   7   0   2   90.58   21.43
   0   7  -2   94.47   11.51
   0   7  -3   92.23   11.19
  -7   7   3   86.26   12.63
   0  -7   3   53.36   13.61
  -7   7   3   93.21   12.55
   7   0   3   46.82   20.43
  -7   7   4   -4.60   11.74
   0   7  -4   13.16    8.19
   0  -7   4   -9.49   12.10
  -7   7   4   14.16   12.33
   7   0   4  -21.03   21.37
  -7   7   5   41.36   13.32
   0  -7   5   40.38   12.82
   0   7  -5   34.29    9.07
  -7   7   5   35.65   13.49
   7   0   5   29.85   24.27
  -7   7   6    3.06   13.87
   1  -8   5   13.30   13.69
   1  -8   4   50.55   14.14
   7   1   4   10.43   26.38
  -8   7   3   -0.71   13.45
   7   1   3  -18.78   24.08
  -1   8  -3    3.97    8.98
  -8   7   2   42.52   13.53
  -1   8  -2   18.34    8.70
  -8   7   1   35.57   14.10
  -1   8  -1   76.85   11.10
  -8   7   0  219.18   20.86
  -1   8   0  259.23   16.75
  -8   7  -1   55.01   13.53
  -7  -1   1   35.80   13.55
  -1   8   1    5.05    9.41
   8  -7   1   33.96   19.21
   7   1  -2   32.41    9.56
  -8   7  -2   25.79   13.55
  -1   8   2   37.14    9.70
   8  -7   2   42.97   21.35
  -8   7  -3   23.63   13.16
  -1   8   3   20.43   10.94
   8  -7   3    0.00   19.66
   6   2   5  117.17   25.92
  -2   8  -5   61.08   10.00
  -8   6   4    1.53   12.16
   6   2   4   32.17   24.43
  -2   8  -4    9.49    8.64
  -8   6   3    8.01   11.94
   6   2   3   25.16   21.56
  -2   8  -3   -6.89    7.95
  -8   6   2   -6.95   11.84
   6   2   2   -7.25   22.37
  -2   8  -2    8.82    7.80
  -8   6   1    9.86   11.31
  -2   8  -1    8.29    8.19
   8  -6  -1   18.64   17.44
  -2   8   0   64.40   10.45
   8  -6   0   68.86   21.41
  -8   6  -1   13.47   13.37
   6   2  -1   17.34    8.41
  -2   8   1   17.15    8.43
   8  -6   1   19.01   17.28
  -6  -2   2  303.26   22.23
   6   2  -2  282.26   16.07
   8  -6   2  259.58   26.85
  -8   6  -2  264.67   19.80
  -2   8   2  314.73   18.46
  -2   8   3  109.45   14.53
  -8   6  -3  141.52   16.58
  -6  -2   3  154.45   20.15
   6   2  -3  123.00   12.79
   8  -6   3  152.27   24.02
  -2   8   4   40.60   10.88
  -8   6  -4   29.48   14.06
  -6  -2   4   11.02   13.71
   8  -6   4    4.07   19.29
   6   2  -4   22.53    9.17
  -2   8   5    5.15   11.59
  -6  -2   5    4.42   15.36
  -8   5   5   33.78   12.92
   5   3   5   32.74   24.90
  -8   5   4   -6.21   12.00
  -3   8  -4   12.84    8.19
  -8   5   3  -14.10   10.82
  -3   8  -3   16.24    7.86
   5   3   3   -6.11   20.84
  -8   5   2   -7.29   12.57
  -3   8  -2    7.97    7.44
   5   3   2   21.56   20.33
   8  -5  -2    7.11   15.97
  -8   5   1   82.17   16.20
  -3   8  -1   67.93   10.43
   8  -5  -1   70.57   20.86
  -8   5   0   -7.07   14.00
   5   3   0    7.05    7.25
  -3   8   0   18.62    8.25
   8  -5   0   21.74   16.07
   5   3  -1  259.60   15.20
   8  -5   1  272.21   25.83
  -8   5  -1  276.57   19.03
  -3   8   1  259.87   17.22
   5   3  -2   50.97    9.70
  -3   8   2   50.08   10.47
  -8   5  -2   62.59   13.24
  -5  -3   2   57.45   15.28
   8  -5   2   55.76   20.01
  -3   8   3    5.03    9.64
  -8   5  -3   -3.42   13.04
  -5  -3   3   12.26   13.16
   5   3  -3   26.10    9.15
   8  -5   3    2.83   21.64
  -3   8   4   57.72   12.69
  -8   5  -4   26.18   13.61
  -5  -3   4   44.11   17.28
   8  -5   4   78.54   21.41
   5   3  -4   23.88    8.66
  -5  -3   5  150.54   19.82
   5   3  -5  189.64   14.73
  -3   8   5  186.64   15.04
  -8   5  -5  149.91   16.97
   8  -5   5  162.91   22.92
  -8   4   5   -4.81   12.88
   4   4   5   11.43   25.22
  -8   4   4  110.41   13.34
   4   4   4   93.88   22.72
  -8   4   3   55.93   13.63
  -4   8  -3   41.18    8.74
   4   4   3   55.29   24.47
  -8   4   2   10.88   10.51
  -4   8  -2   19.99    9.01
   4   4   2    7.84    7.74
   4   4   2   13.59   22.82
  -8   4   1   -2.32   10.78
  -4   8  -1    9.19    7.99
   4   4   1    0.53    7.42
   8  -4  -1    3.04   16.44
   4   4   0  125.69   12.45
  -8   4   0  110.79   14.81
  -4   8   0   98.65   12.75
   8  -4   0  101.40   22.74
   4   4  -1   -0.94    8.05
  -4   8   1    3.87    8.64
  -8   4  -1    3.83   10.53
   8  -4   1   12.79   16.44
  -4   8   2   20.05    8.96
  -8   4  -2   10.84   11.67
   4   4  -2    9.07    9.05
  -4  -4   2   11.86   14.14
   8  -4   2  -21.21   18.78
  -4   8   3   58.31   12.16
  -8   4  -3   52.28   13.94
  -4  -4   3   43.15   14.28
   4   4  -3   54.74    9.92
   8  -4   3   75.20   21.72
   4   4  -4  141.88   14.00
  -4  -4   4  139.15   18.64
  -4   8   4  114.50   15.42
  -8   4  -4  145.26   16.77
   8  -4   4  198.77   22.15
   4   4  -5   -1.43    8.92
  -8   4  -5    3.28   12.04
  -4  -4   5  -11.96   13.47
   8  -4   5   -3.46   21.94
  -4   8   5  -17.07   12.14
  -8   3   5  175.89   17.30
   3   5   5  160.73   32.88
  -8   3   4   55.89   14.12
   3   5   4   57.80   24.27
  -8   3   3   -3.55   12.29
   3   5   3   -4.46   23.88
   3   5   3    7.09    8.43
  -8   3   2   48.98   12.16
   3   5   2   40.81    9.51
  -5   8  -2   65.83    9.25
   3   5   2   79.27   21.60
   3   5   1  272.91   15.71
  -8   3   1  272.56   19.38
  -5   8  -1  225.62   15.26
  -5   8   0   -3.87    8.76
  -8   3   0    3.97   10.78
   3   5   0   15.91    7.66
   3   5  -1   97.00   11.33
  -8   3  -1   88.40   12.73
   8  -3   1  120.82   20.88
  -5   8   1   68.96   11.94
  -8   3  -2   -8.62   12.73
  -3  -5   2    9.25   13.30
   8  -3   2    6.17   19.80
   3   5  -2    0.96    8.39
  -5   8   2   -4.32    9.53
   3   5  -3    5.24    7.97
  -8   3  -3   28.81   11.45
  -3  -5   3   13.57   13.32
   8  -3   3    7.09   19.60
  -5   8   3    6.93   10.80
   3   5  -4    9.72    8.82
  -8   3  -4    8.31   12.63
  -3  -5   4    8.19   13.41
   8  -3   4   -6.01   21.41
  -5   8   4   -3.77   11.78
  -8   3  -5   40.58   13.28
  -3  -5   5   20.03   13.02
   3   5  -5   36.33   11.31
   8  -3   5   36.67   27.34
  -5   8   5   40.75   13.75
  -6   8  -6   44.60   12.49
   6  -8   6   57.88   22.25
  -8   2   5   -3.10   12.90
  -6   8  -5   11.88   12.47
   6  -8   5    3.08   20.11
  -8   2   4    9.47   11.76
   2   6   4   26.81    9.86
   2   6   4   32.31   26.65
   2   6   3  115.15   27.89
  -8   2   3  124.24   14.42
   2   6   3  121.77   12.00
   2   6   2  326.28   25.49
  -8   2   2  301.25   18.62
   2   6   2  314.30   16.99
   2   6   1    8.94    8.52
  -8   2   1    0.86   10.41
  -6   8  -1   -0.20    9.88
  -8   2   0   36.06   12.37
   2   6   0   45.09   10.74
  -6   8   0   20.82   10.23
  -8   2  -1   14.93   10.08
   2   6  -1    6.70    7.62
  -2  -6   1    8.13   12.92
   8  -2   1    4.48   18.95
  -6   8   1   28.48   10.43
  -8   2  -2   -1.32    9.92
  -2  -6   2   23.33   15.67
   2   6  -2    8.05    7.99
   8  -2   2    9.90   21.19
  -6   8   2   -3.93   11.00
  -8   2  -3   -1.34   10.82
  -2  -6   3  -10.31   12.59
   2   6  -3   -1.22    8.41
   8  -2   3   -5.91   20.56
  -6   8   3   10.19   11.82
  -8   2  -4   29.24   12.00
  -2  -6   4  -13.79   14.79
  -6   8   4   45.94   13.89
   2   6  -4   19.93    9.49
   8  -2   4    2.02   24.53
  -7   8  -4   30.32   12.92
   1   7   4   51.97   11.31
  -7   8  -3   -4.60   13.55
   1   7   3   10.72   27.87
   1   7   3   15.20   10.70
  -7   8  -2   41.93   12.49
   1   7   2   41.05    9.74
  -7   8  -1   27.12   12.77
   1   7   1    8.03    9.13
  -1  -7   0  240.27   20.90
  -7   8   0  208.65   18.32
   1   7   0  249.60   16.24
   1   7  -1   73.96   10.72
  -7   8   1   25.26   14.65
  -1  -7   1   80.58   16.03
  -7   8   1   34.59   11.84
  -7   8   2   13.98   13.16
   1   7  -2   36.39    8.90
  -1  -7   2   32.48   15.10
  -7   8   2   22.84   13.24
   8  -1   2   36.63   23.33
   1   7  -3    3.77    9.27
  -1  -7   3    5.32   13.53
  -7   8   3   -1.06   13.06
   8  -1   3   12.02   24.90
   0  -8  -1  275.59   21.05
  -8   8  -1  219.67   20.37
  -8   8   0    2.14   14.73
   0  -8   0    8.11   14.61
  -8   8   1   20.11   15.12
   0  -8   1    3.91   14.53
  -8   8   2   37.63   14.36
   0  -8   2   28.34   13.06
  -8   8   2   20.46   14.89
   9  -6  -2    5.03   21.92
   9  -6  -1   38.49   20.37
   9  -6   0   23.63   21.01
  -6  -3   1   25.85   15.48
   6   3  -1   14.89   10.31
   6   3  -2    1.92   10.49
  -4   9  -3  -16.99   10.59
   5   4   3   32.92   30.42
  -4   9  -2   20.01   10.17
  -4   9  -1   42.09   10.68
   9  -5  -1   58.88   21.35
  -4   9   0   -9.07   10.43
   5   4   0   12.29    9.62
   9  -5   0   -6.42   22.59
  -5  -4   1   28.26   14.40
   5   4  -1   12.24    9.58
   5   4  -2  126.36   14.47
   4   5   3   65.91   31.29
  -5   9  -2   80.74   12.29
  -5   9  -1    9.96   10.61
  -9   4   1   10.43   12.67
   4   5   1    1.08   10.08
  -5   9   0    8.62   10.86
  -9   4   0   14.53   13.37
   4   5   0    4.56    9.41
   9  -4   0   13.75   22.68
  -5   9   1   48.29   11.55
  -9   4  -1   57.27   15.10
   4   5  -1   39.89   10.31
   9  -4   2   37.32   23.27
   4   5  -2    9.45    9.98
   3   6   3   -3.61   32.68
   3   6   2    6.46   10.64
   3   6   1   17.60   10.29
  -9   3   1   32.09   13.06
  -9   3   0    4.67   13.43
   3   6   0   32.54   10.21
  -6   9   0   30.50   12.26
  -9   3  -1   19.05   13.24
   9  -3   1   11.08   24.55
  -9   3  -2   17.20   13.79

_computing_structure_solution     'SHELXT 2014/4 (Sheldrick, 2014)'
;
_shelx_hkl_checksum              58071
loop_
_space_group_symop_operation_xyz
'x, y, z'
'-y, x-y, z'
'-x+y, -x, z'
'y, x, -z'
'x-y, -y, -z'
'-x, -x+y, -z'
'-x, -y, -z'
'y, -x+y, -z'
'x-y, x, -z'
'-y, -x, z'
'-x+y, y, z'
'x, x-y, z'
loop_
_atom_site_label
_atom_site_type_symbol
_atom_site_fract_x
_atom_site_fract_y
_atom_site_fract_z
_atom_site_U_iso_or_equiv
_atom_site_adp_type
_atom_site_occupancy
_atom_site_site_symmetry_order
_atom_site_calc_flag
_atom_site_refinement_flags_posn
_atom_site_refinement_flags_adp
_atom_site_refinement_flags_occupancy
_atom_site_disorder_assembly
_atom_site_disorder_group
Al1 Al 1.0000 1.0000 1.0000 0.0312(5) Uani 1 12 d S T P . .
O1 O 0.86995(17) 0.7399(3) 0.8850(2) 0.0418(6) Uani 1 2 d S T P . .
H1A H 0.9349 0.6587 0.8545 0.050 Uiso 1 1 d R U . . .
S1 S 0.3333 0.6667 0.73910(15) 0.0374(4) Uani 1 6 d S T P . .
O2 O 0.44987(18) 0.55013(18) 0.7935(3) 0.0485(6) Uani 1 2 d S T P . .
O3 O 0.3333 0.6667 0.5807(5) 0.0757(15) Uani 1 6 d S T P . .
N1 N 0.085(3) 0.170(6) 0.506(3) 0.056(7) Uani 0.3333 2 d S T P . .
H1 H 0.1521 0.3042 0.5020 0.067 Uiso 0.3333 2 d R U P . .
C2 C 0.176(4) 0.176(4) 0.5000 0.056(7) Uani 0.5 2 d S T P . .
H2 H 0.3007 0.3007 0.5000 0.068 Uiso 0.5 2 d R U P . .
loop_
_atom_site_aniso_label
_atom_site_aniso_U_11
_atom_site_aniso_U_22
_atom_site_aniso_U_33
_atom_site_aniso_U_23
_atom_site_aniso_U_13
_atom_site_aniso_U_12
Al1 0.0271(7) 0.0271(7) 0.0396(11) 0.000 0.000 0.0135(3)
O1 0.0315(8) 0.0366(12) 0.0590(12) -0.0138(10) -0.0069(5) 0.0183(6)
S1 0.0305(5) 0.0305(5) 0.0510(8) 0.000 0.000 0.0153(2)
O2 0.0328(9) 0.0328(9) 0.0831(15) 0.0020(5) -0.0020(5) 0.0189(10)
O3 0.090(2) 0.090(2) 0.047(2) 0.000 0.000 0.0449(12)
N1 0.065(15) 0.030(9) 0.062(9) 0.015(8) 0.008(4) 0.015(5)
C2 0.045(7) 0.045(7) 0.052(7) -0.008(4) 0.008(4) 0.002(9)
loop_
_atom_type_symbol
_atom_type_description
_atom_type_scat_dispersion_real
_atom_type_scat_dispersion_imag
_atom_type_scat_source
C C 0.0033 0.0016 'International Tables Vol C Tables 4.2.6.8 and 6.1.1.4'
H H 0.0000 0.0000 'International Tables Vol C Tables 4.2.6.8 and 6.1.1.4'
N N 0.0061 0.0033 'International Tables Vol C Tables 4.2.6.8 and 6.1.1.4'
O O 0.0106 0.0060 'International Tables Vol C Tables 4.2.6.8 and 6.1.1.4'
Al Al 0.0645 0.0514 'International Tables Vol C Tables 4.2.6.8 and 6.1.1.4'
S S 0.1246 0.1234 'International Tables Vol C Tables 4.2.6.8 and 6.1.1.4'
loop_
_geom_angle_atom_site_label_1
_geom_angle_atom_site_label_2
_geom_angle_atom_site_label_3
_geom_angle
_geom_angle_site_symmetry_1
_geom_angle_site_symmetry_3
_geom_angle_publ_flag
O1 Al1 O1 180.0 . 7_777 ?
O1 Al1 O1 88.53(9) . 9_657 ?
O1 Al1 O1 91.47(9) 7_777 9_657 ?
O1 Al1 O1 91.47(9) . 3_675 ?
O1 Al1 O1 88.53(9) 7_777 3_675 ?
O1 Al1 O1 180.0 9_657 3_675 ?
O1 Al1 O1 91.47(9) . 2_765 ?
O1 Al1 O1 88.53(9) 7_777 2_765 ?
O1 Al1 O1 88.53(9) 9_657 2_765 ?
O1 Al1 O1 91.47(9) 3_675 2_765 ?
O1 Al1 O1 88.53(9) . 8_567 ?
O1 Al1 O1 91.47(9) 7_777 8_567 ?
O1 Al1 O1 91.47(9) 9_657 8_567 ?
O1 Al1 O1 88.53(9) 3_675 8_567 ?
O1 Al1 O1 180.0 2_765 8_567 ?
Al1 O1 H1A 127.5 . . ?
O3 S1 O2 109.73(10) . 2_665 ?
O3 S1 O2 109.73(10) . 3_565 ?
O2 S1 O2 109.21(10) 2_665 3_565 ?
O3 S1 O2 109.73(10) . . ?
O2 S1 O2 109.21(11) 2_665 . ?
O2 S1 O2 109.21(10) 3_565 . ?
C2 N1 C2 167(5) . 9_556 ?
C2 N1 N1 33(5) . 8_556 ?
C2 N1 N1 151(6) 9_556 8_556 ?
C2 N1 N1 151(6) . 9_556 ?
C2 N1 N1 33(6) 9_556 9_556 ?
N1 N1 N1 118.8(11) 8_556 9_556 ?
C2 N1 C2 43(4) . 8_556 ?
C2 N1 C2 143(7) 9_556 8_556 ?
N1 N1 C2 10.8(19) 8_556 8_556 ?
N1 N1 C2 109.7(18) 9_556 8_556 ?
C2 N1 C2 143(7) . 2 ?
C2 N1 C2 43(4) 9_556 2 ?
N1 N1 C2 109.7(18) 8_556 2 ?
N1 N1 C2 10.8(19) 9_556 2 ?
C2 N1 C2 100(3) 8_556 2 ?
C2 N1 N1 64(5) . 3 ?
C2 N1 N1 123(5) 9_556 3 ?
N1 N1 N1 30.6(6) 8_556 3 ?
N1 N1 N1 89.999(5) 9_556 3 ?
C2 N1 N1 20.2(15) 8_556 3 ?
C2 N1 N1 80.1(16) 2 3 ?
C2 N1 N1 123(5) . 2 ?
C2 N1 N1 64(5) 9_556 2 ?
N1 N1 N1 89.999(18) 8_556 2 ?
N1 N1 N1 30.6(5) 9_556 2 ?
C2 N1 N1 80.1(16) 8_556 2 ?
C2 N1 N1 20.2(15) 2 2 ?
N1 N1 N1 60.000(6) 3 2 ?
C2 N1 H1 86.3 . . ?
C2 N1 H1 86.3 9_556 . ?
N1 N1 H1 119.4 8_556 . ?
N1 N1 H1 119.4 9_556 . ?
C2 N1 H1 129.7 8_556 . ?
C2 N1 H1 129.7 2 . ?
N1 N1 H1 149.9 3 . ?
N1 N1 H1 149.9 2 . ?
C2 N1 H2 33.7 . . ?
C2 N1 H2 138.8 9_556 . ?
N1 N1 H2 66.9 8_556 . ?
N1 N1 H2 168.6 9_556 . ?
C2 N1 H2 76.9 8_556 . ?
C2 N1 H2 174.6 2 . ?
N1 N1 H2 97.1 3 . ?
N1 N1 H2 156.9 2 . ?
H1 N1 H2 52.9 . . ?
N1 C2 N1 113(10) . 8_556 ?
N1 C2 C2 6(3) . 9_556 ?
N1 C2 C2 116(5) 8_556 9_556 ?
N1 C2 C2 116(5) . 8_556 ?
N1 C2 C2 6(3) 8_556 8_556 ?
C2 C2 C2 120.001(14) 9_556 8_556 ?
N1 C2 N1 18(4) . 9_556 ?
N1 C2 N1 96(7) 8_556 9_556 ?
C2 C2 N1 20.2(16) 9_556 9_556 ?
C2 C2 N1 99.9(16) 8_556 9_556 ?
N1 C2 N1 96(7) . 3 ?
N1 C2 N1 18(4) 8_556 3 ?
C2 C2 N1 99.9(16) 9_556 3 ?
C2 C2 N1 20.2(16) 8_556 3 ?
N1 C2 N1 80(3) 9_556 3 ?
N1 C2 H1 55.2 . . ?
N1 C2 H1 167.6 8_556 . ?
C2 C2 H1 51.7 9_556 . ?
C2 C2 H1 171.7 8_556 . ?
N1 C2 H1 71.9 9_556 . ?
N1 C2 H1 151.5 3 . ?
N1 C2 H2 123.3 . . ?
N1 C2 H2 123.3 8_556 . ?
C2 C2 H2 120.0 9_556 . ?
C2 C2 H2 120.0 8_556 . ?
N1 C2 H2 140.1 9_556 . ?
N1 C2 H2 140.1 3 . ?
H1 C2 H2 68.3 . . ?
loop_
_geom_bond_atom_site_label_1
_geom_bond_atom_site_label_2
_geom_bond_distance
_geom_bond_site_symmetry_2
_geom_bond_publ_flag
Al1 O1 1.8728(19) . ?
Al1 O1 1.8728(19) 7_777 ?
Al1 O1 1.8728(19) 9_657 ?
Al1 O1 1.8728(19) 3_675 ?
Al1 O1 1.873(2) 2_765 ?
Al1 O1 1.8728(19) 8_567 ?
O1 H1A 0.9154 . ?
S1 O3 1.450(5) . ?
S1 O2 1.474(2) 2_665 ?
S1 O2 1.474(2) 3_565 ?
S1 O2 1.474(2) . ?
N1 C2 0.607(15) . ?
N1 C2 0.607(15) 9_556 ?
N1 N1 1.02(4) 8_556 ?
N1 N1 1.02(4) 9_556 ?
N1 C2 1.575(11) 8_556 ?
N1 C2 1.575(11) 2 ?
N1 N1 1.75(7) 3 ?
N1 N1 1.75(7) 2 ?
N1 H1 0.8023 . ?
N1 H2 1.2967 . ?
C2 N1 0.607(15) 8_556 ?
C2 C2 1.21(3) 9_556 ?
C2 C2 1.21(3) 8_556 ?
C2 N1 1.575(11) 9_556 ?
C2 N1 1.575(11) 3 ?
C2 H1 0.9749 . ?
C2 H2 0.8600 . ?
loop_
_geom_hbond_atom_site_label_D
_geom_hbond_atom_site_label_H
_geom_hbond_atom_site_label_A
_geom_hbond_distance_DH
_geom_hbond_distance_HA
_geom_hbond_distance_DA
_geom_hbond_angle_DHA
_geom_hbond_site_symmetry_A
O1 H1A S1 0.92 2.91 3.7134(9) 147.2 1_655
O1 H1A O2 0.92 1.74 2.6413(17) 170.0 3_665
N1 H1 S1 0.80 3.06 3.65(4) 132.1 .
N1 H1 O3 0.80 2.28 3.04(4) 158.8 .
C2 H1 S1 0.97 3.06 3.702(15) 124.5 .
C2 H1 O3 0.97 2.28 3.075(18) 138.6 .
N1 H2 O3 1.30 2.52 3.661(9) 145.0 7_666
C2 H1 O3 0.97 2.28 3.075(18) 138.6 .
C2 H2 O3 0.86 2.52 3.075(18) 122.9 7_666
loop_
_geom_torsion_atom_site_label_1
_geom_torsion_atom_site_label_2
_geom_torsion_atom_site_label_3
_geom_torsion_atom_site_label_4
_geom_torsion
_geom_torsion_site_symmetry_1
_geom_torsion_site_symmetry_2
_geom_torsion_site_symmetry_3
_geom_torsion_site_symmetry_4
_geom_torsion_publ_flag
C2 N1 C2 N1 -119(50) 9_556 . . 8_556 ?
N1 N1 C2 N1 -20(7) 9_556 . . 8_556 ?
C2 N1 C2 N1 6(3) 8_556 . . 8_556 ?
C2 N1 C2 N1 -7(3) 2 . . 8_556 ?
N1 N1 C2 N1 6(3) 3 . . 8_556 ?
N1 N1 C2 N1 0.001(2) 2 . . 8_556 ?
N1 N1 C2 C2 119(50) 8_556 . . 9_556 ?
N1 N1 C2 C2 99(52) 9_556 . . 9_556 ?
C2 N1 C2 C2 125(48) 8_556 . . 9_556 ?
C2 N1 C2 C2 112(51) 2 . . 9_556 ?
N1 N1 C2 C2 125(48) 3 . . 9_556 ?
N1 N1 C2 C2 119(50) 2 . . 9_556 ?
C2 N1 C2 C2 -125(48) 9_556 . . 8_556 ?
N1 N1 C2 C2 -6(3) 8_556 . . 8_556 ?
N1 N1 C2 C2 -26(10) 9_556 . . 8_556 ?
C2 N1 C2 C2 -13(5) 2 . . 8_556 ?
N1 N1 C2 C2 0.000(1) 3 . . 8_556 ?
N1 N1 C2 C2 -6(3) 2 . . 8_556 ?
C2 N1 C2 N1 -99(53) 9_556 . . 9_556 ?
N1 N1 C2 N1 20(7) 8_556 . . 9_556 ?
C2 N1 C2 N1 26(10) 8_556 . . 9_556 ?
C2 N1 C2 N1 13(4) 2 . . 9_556 ?
N1 N1 C2 N1 26(10) 3 . . 9_556 ?
N1 N1 C2 N1 20(7) 2 . . 9_556 ?
C2 N1 C2 N1 -125(48) 9_556 . . 3 ?
N1 N1 C2 N1 -6(3) 8_556 . . 3 ?
N1 N1 C2 N1 -26(10) 9_556 . . 3 ?
C2 N1 C2 N1 0.000(1) 8_556 . . 3 ?
C2 N1 C2 N1 -13(5) 2 . . 3 ?
N1 N1 C2 N1 -6(3) 2 . . 3 ?

_cod_database_fobs_code 2108791
