#------------------------------------------------------------------------------
#$Date: 2022-01-01 06:19:30 +0200 (Sat, 01 Jan 2022) $
#$Revision: 271667 $
#$URL: file:///home/coder/svn-repositories/cod/cif/2/10/89/2108908.cif $
#------------------------------------------------------------------------------
#
# This file is available in the Crystallography Open Database (COD),
# http://www.crystallography.net/. The original data for this entry
# were provided by IUCr Journals, http://journals.iucr.org/.
#
# The file may be used within the scientific community so long as
# proper attribution is given to the journal article from which the
# data were obtained.
#
data_2108908
loop_
_publ_author_name
'Rejnhardt, Piotr'
'Drozd, Marek'
'Daszkiewicz, Marek'
_publ_section_title
;
 Low-temperature phase transition and high-pressure phase stability of
 1<i>H</i>-pyrazole-1-carboxamidine nitrate
;
_journal_coeditor_code           XK5086
_journal_issue                   6
_journal_name_full               'Acta Crystallographica Section B'
_journal_page_first              996
_journal_page_last               1002
_journal_paper_doi               10.1107/S2052520621010970
_journal_volume                  77
_journal_year                    2021
_chemical_formula_moiety         'C4 H7 N4, N O3'
_chemical_formula_sum            'C4 H7 N5 O3'
_chemical_formula_weight         173.15
_space_group_crystal_system      monoclinic
_space_group_IT_number           14
_space_group_name_Hall           '-P 2ybc'
_space_group_name_H-M_alt        'P 1 21/c 1'
_atom_sites_solution_hydrogens   geom
_atom_sites_solution_primary     direct
_audit_creation_date             2021-05-04
_audit_creation_method
;
Olex2 1.2
(compiled 2018.05.29 svn.r3508 for OlexSys, GUI svn.r5506)
;
_cell_angle_alpha                90
_cell_angle_beta                 99.71(3)
_cell_angle_gamma                90
_cell_formula_units_Z            4
_cell_length_a                   5.1374(19)
_cell_length_b                   10.305(10)
_cell_length_c                   13.935(5)
_cell_measurement_reflns_used    438
_cell_measurement_temperature    293(2)
_cell_measurement_theta_max      19.9360
_cell_measurement_theta_min      3.5060
_cell_volume                     727.2(8)
_computing_cell_refinement       'CrysAlisPro 1.171.39.46 (Rigaku OD, 2018)'
_computing_data_collection       'CrysAlisPro 1.171.39.46 (Rigaku OD, 2018)'
_computing_data_reduction        'CrysAlisPro 1.171.39.46 (Rigaku OD, 2018)'
_computing_molecular_graphics    'Olex2 (Dolomanov et al., 2009)'
_computing_publication_material  'Olex2 (Dolomanov et al., 2009)'
_computing_structure_refinement  'ShelXL (Sheldrick, 2015)'
_computing_structure_solution    'ShelXS (Sheldrick, 2008)'
_diffrn_ambient_temperature      293(2)
_diffrn_detector                 'CCD plate'
_diffrn_detector_area_resol_mean 8.2214
_diffrn_detector_type            'Sapphire2, large Be window'
_diffrn_measured_fraction_theta_full 0.413
_diffrn_measured_fraction_theta_max 0.413
_diffrn_measurement_details
;
List of Runs (angles in degrees, time in seconds):

  # Type    Start    End  Width  t~exp~   \w     \q     \k     \f   Frames
--------------------------------------------------------------------------
  1  \w    -20.00  32.00   0.50   40.00    --   25.00   0.00   0.00  104
  2  \w    -20.00  36.00   0.50   40.00    --   25.00   0.00 180.00  112
  3  \w     -3.00  47.00   0.50   40.00    --   25.00 -40.00-170.00  100
  4  \w     -3.00  47.00   0.50   40.00    --   25.00 -40.00  10.00  100
  5  \w      8.00  65.00   0.50   40.00    --   25.00 -82.00  30.00  114
  6  \w      8.00  65.00   0.50   40.00    --   25.00 -82.00-150.00  114
  7  \w     32.50  89.00   0.50   40.00    --   25.00-135.00-122.00  113
  8  \w     32.00  89.00   0.50   40.00    --   25.00-135.00  58.00  114
  9  \w     25.00  47.00   0.50   40.00    --  -25.00-135.00  58.00   44
 10  \w     25.00  47.00   0.50   40.00    --  -25.00-135.00-122.00   44
 11  \w      0.00  23.00   0.50   40.00    --  -25.00 -82.00-150.00   46
 12  \w      0.00  23.00   0.50   40.00    --  -25.00 -82.00  30.00   46
 13  \w    -19.00  17.00   0.50   40.00    --  -25.00 -40.00  10.00   72
 14  \w    -19.00  17.00   0.50   40.00    --  -25.00 -40.00-170.00   72
 15  \w    -33.00  22.00   0.50   40.00    --  -25.00   0.00 180.00  110
 16  \w    -33.00  22.00   0.50   40.00    --  -25.00   0.00   0.00  110
;
_diffrn_measurement_device       'four-circle diffractometer'
_diffrn_measurement_device_type  'Xcalibur, Sapphire2, large Be window'
_diffrn_measurement_method       '\w scans'
_diffrn_orient_matrix_type
'CrysAlisPro convention (1999,Acta A55,543-557)'
_diffrn_orient_matrix_UB_11      0.0620685000
_diffrn_orient_matrix_UB_12      -0.0605869000
_diffrn_orient_matrix_UB_13      -0.0049240000
_diffrn_orient_matrix_UB_21      0.0022358000
_diffrn_orient_matrix_UB_22      -0.0131409000
_diffrn_orient_matrix_UB_23      0.0499892000
_diffrn_orient_matrix_UB_31      -0.1256561000
_diffrn_orient_matrix_UB_32      -0.0302778000
_diffrn_orient_matrix_UB_33      -0.0114282000
_diffrn_radiation_monochromator  graphite
_diffrn_radiation_probe          x-ray
_diffrn_radiation_type           MoK\a
_diffrn_radiation_wavelength     0.71073
_diffrn_reflns_av_R_equivalents  0.0530
_diffrn_reflns_av_unetI/netI     0.0326
_diffrn_reflns_Laue_measured_fraction_full 0.413
_diffrn_reflns_Laue_measured_fraction_max 0.413
_diffrn_reflns_limit_h_max       5
_diffrn_reflns_limit_h_min       -5
_diffrn_reflns_limit_k_max       7
_diffrn_reflns_limit_k_min       -7
_diffrn_reflns_limit_l_max       16
_diffrn_reflns_limit_l_min       -16
_diffrn_reflns_number            3916
_diffrn_reflns_point_group_measured_fraction_full 0.413
_diffrn_reflns_point_group_measured_fraction_max 0.413
_diffrn_reflns_theta_full        25.038
_diffrn_reflns_theta_max         25.038
_diffrn_reflns_theta_min         2.966
_diffrn_source                   'fine-focus sealed X-ray tube'
_diffrn_source_type              'Enhance (Mo) X-ray Source'
_exptl_absorpt_coefficient_mu    0.135
_exptl_absorpt_correction_T_max  1.00000
_exptl_absorpt_correction_T_min  0.20476
_exptl_absorpt_correction_type   multi-scan
_exptl_absorpt_process_details
;
CrysAlisPro 1.171.39.46 (Rigaku Oxford Diffraction, 2018)
Empirical absorption correction using spherical harmonics,
 implemented in SCALE3 ABSPACK scaling algorithm.
;
_exptl_crystal_colour            colourless
_exptl_crystal_density_diffrn    1.582
_exptl_crystal_description       prism
_exptl_crystal_F_000             360
_refine_diff_density_max         0.152
_refine_diff_density_min         -0.169
_refine_diff_density_rms         0.037
_refine_ls_extinction_method     none
_refine_ls_goodness_of_fit_ref   1.106
_refine_ls_hydrogen_treatment    constr
_refine_ls_matrix_type           full
_refine_ls_number_parameters     109
_refine_ls_number_reflns         533
_refine_ls_number_restraints     54
_refine_ls_restrained_S_all      1.046
_refine_ls_R_factor_all          0.1198
_refine_ls_R_factor_gt           0.0534
_refine_ls_shift/su_max          0.000
_refine_ls_shift/su_mean         0.000
_refine_ls_structure_factor_coef Fsqd
_refine_ls_weighting_details
'w=1/[\s^2^(Fo^2^)+(0.0420P)^2^+1.1814P] where P=(Fo^2^+2Fc^2^)/3'
_refine_ls_weighting_scheme      calc
_refine_ls_wR_factor_gt          0.1139
_refine_ls_wR_factor_ref         0.1514
_reflns_Friedel_coverage         0.000
_reflns_number_gt                297
_reflns_number_total             533
_reflns_threshold_expression     'I > 2\s(I)'
_cod_data_source_file            xk5086sup1.cif
_cod_data_source_block           0.12GPa
_cod_database_code               2108908
_shelx_shelxl_version_number     2018/3
_chemical_oxdiff_formula         C4N5NO3H7
_shelx_space_group_comment
;
The symmetry employed for this shelxl refinement is uniquely defined
by the following loop, which should always be used as a source of
symmetry information in preference to the above space-group names.
They are only intended as comments.
;
_reflns_odcompleteness_completeness 40.83
_reflns_odcompleteness_iscentric 1
_reflns_odcompleteness_theta     24.98
_olex2_refinement_description
;
1. Fixed Uiso
 At 1.2 times of:
  All C(H) groups, All N(H,H) groups
2. Rigid body (RIGU) restrains
 C1, C2, C3, C4, N1, N2, N3, N4
 with sigma for 1-2 distances of 0.004 and sigma for 1-3 distances of 0.004
3.a Aromatic/amide H refined with riding coordinates:
 C1(H1), C2(H2), C3(H3)
3.b X=CH2 refined with riding coordinates:
 N3(H3A,H3B), N4(H4A,H4B)
;
_shelx_res_file
;
TITL new in P21/c #14
    new.res
    created by SHELXL-2018/3 at 13:58:45 on 04-May-2021
REM reset to P21/c #14
CELL 0.71073 5.137439 10.304723 13.934872 90 99.7058 90
ZERR 4 0.001857 0.010254 0.00492 0 0.0293 0
LATT 1
SYMM -X,0.5+Y,0.5-Z
SFAC C H N O
UNIT 16 28 20 12
RIGU C1 > N4

L.S. 99
PLAN  20
BOND
htab
fmap 2 53
acta
OMIT 2 4 4
OMIT 3 0 10
REM <olex2.extras>
REM <HklSrc "%.\\new.hkl">
REM </olex2.extras>

WGHT    0.042000    1.181400
FVAR       2.02613
C1    1    0.110667    0.784676    0.540243    11.00000    0.05697    0.06112 =
         0.08634   -0.01477   -0.00038    0.00949
AFIX  43
H1    2   -0.041811    0.824034    0.507598    11.00000   -1.20000
AFIX   0
C2    1    0.330625    0.855172    0.587373    11.00000    0.06514    0.06559 =
         0.07267    0.00491    0.00366   -0.00778
AFIX  43
H2    2    0.353075    0.944744    0.589048    11.00000   -1.20000
AFIX   0
C3    1    0.496962    0.766644    0.628412    11.00000    0.05793    0.06909 =
         0.06630    0.00078   -0.00058   -0.01288
AFIX  43
H3    2    0.662304    0.782080    0.665402    11.00000   -1.20000
AFIX   0
C4    1    0.475220    0.521661    0.628410    11.00000    0.04292    0.07031 =
         0.06472   -0.00122    0.01093    0.00525
N1    3    0.382542    0.646445    0.606841    11.00000    0.03503    0.06550 =
         0.06859   -0.00741    0.00382   -0.00361
N2    3    0.140277    0.660990    0.546547    11.00000    0.04539    0.06482 =
         0.07436   -0.01328   -0.00808    0.00316
N3    3    0.339103    0.421330    0.591682    11.00000    0.05696    0.07046 =
         0.09076   -0.00364   -0.01712    0.00647
AFIX  93
H3A   2    0.399302    0.344280    0.604577    11.00000   -1.20000
H3B   2    0.189102    0.432186    0.554556    11.00000   -1.20000
AFIX   0
N4    3    0.706931    0.506853    0.685814    11.00000    0.05714    0.06496 =
         0.07975   -0.01408   -0.01260   -0.00025
AFIX  93
H4A   2    0.769222    0.430297    0.699245    11.00000   -1.20000
H4B   2    0.794883    0.573809    0.709605    11.00000   -1.20000
AFIX   0

N5    3    0.247750    0.649369    0.825112    11.00000    0.05626    0.06827 =
         0.07001   -0.00277    0.00104   -0.00218
O1    4    0.483857    0.674138    0.858002    11.00000    0.04769    0.07066 =
         0.09856   -0.00427   -0.00748   -0.00776
O2    4    0.169730    0.535282    0.821102    11.00000    0.07797    0.07774 =
         0.15169   -0.00969   -0.02245   -0.01383
O3    4    0.089807    0.737101    0.793960    11.00000    0.05362    0.10313 =
         0.09377    0.01771   -0.00176    0.01016
HKLF 4




REM  new in P21/c #14
REM wR2 = 0.1514, GooF = S = 1.106, Restrained GooF = 1.046 for all data
REM R1 = 0.0534 for 297 Fo > 4sig(Fo) and 0.1198 for all 533 data
REM 109 parameters refined using 54 restraints

END

WGHT      0.0420      1.1813

REM Instructions for potential hydrogen bonds
EQIV $1 -x+1, y+1/2, -z+3/2
HTAB C2 O1_$1
EQIV $2 x+1, y, z
HTAB C3 O3_$2
EQIV $3 -x+1, y-1/2, -z+3/2
HTAB N3 O1_$3
EQIV $4 -x, -y+1, -z+1
HTAB N3 N2_$4
HTAB N4 O3_$3
HTAB N4 O2_$2
HTAB N4 O3_$2

REM Highest difference peak  0.152,  deepest hole -0.169,  1-sigma level  0.037
Q1    1   0.2990  0.9488  0.6644  11.00000  0.05    0.15
Q2    1   0.0216  0.4229  0.4822  11.00000  0.05    0.15
Q3    1   0.1247  0.5395  0.9476  11.00000  0.05    0.12
Q4    1   0.4351  0.5418  0.5033  11.00000  0.05    0.12
Q5    1  -0.0413  0.8678  0.7658  11.00000  0.05    0.12
Q6    1   0.3291  0.3992  0.4871  11.00000  0.05    0.11
Q7    1   0.1469  0.8352  0.6761  11.00000  0.05    0.11
Q8    1   0.9035  0.6568  0.7674  11.00000  0.05    0.11
Q9    1   0.3683  0.7380  0.8410  11.00000  0.05    0.11
Q10   1   0.2278  0.6673  0.4189  11.00000  0.05    0.10
Q11   1   0.2390  0.5932  0.7438  11.00000  0.05    0.10
Q12   1   0.5549  0.7999  0.7646  11.00000  0.05    0.10
Q13   1   0.2896  0.4324  0.7618  11.00000  0.05    0.10
Q14   1   0.3314  0.5221  0.7448  11.00000  0.05    0.10
Q15   1   0.4414  0.6227  0.9346  11.00000  0.05    0.10
Q16   1   0.2398  0.6329  0.7582  11.00000  0.05    0.10
Q17   1  -0.1469  0.7344  0.4975  11.00000  0.05    0.10
Q18   1   0.7570  0.9011  0.7240  11.00000  0.05    0.09
Q19   1   0.1802  0.4899  0.7151  11.00000  0.05    0.09
Q20   1   0.4855  0.6969  0.7141  11.00000  0.05    0.09
;
_shelx_res_checksum              58923
_shelx_hkl_file
;
   0   0  -2 1200.49 45.5705   3
   0   0  -2 1177.48 38.1972   6
   0   0   2 1245.01 42.8810  15
   0   0  -2 1203.63 44.9330   2
   0   0   2 1148.18 36.9153   6
   0   0   2 1204.29 42.7658   1
   0   0  -2 1235.11 46.0924  16
   0   0  -3 8.95054 6.53679   6
   0   0  -3-0.37135 6.02148   2
   0   0   3-0.56702 5.97773  15
   0   0   3 5.53682 7.27416   1
   0   0  -3 0.77668 6.71649   3
   0   0   3 3.65203 6.17323   4
   0   0  -3-6.59030 6.58139  16
   0   0  -4 22062.5 270.301   2
   0   0  -4 22569.9 281.905  16
   0   0   4 21939.2 264.207  14
   0   0   4 22149.4 256.663  15
   0   0  -4 21939.2 276.528   3
   0   0   4 22363.5 231.419   4
   0   0   4 21617.6 259.089   1
   0   0  -4 21791.5 236.091   6
   0   0  -4 21778.2 151.552   5
   0   0   5 1.66327 8.74375  14
   0   0   5 6.69891 4.51684   7
   0   0   5 3.90999 8.20014   4
   0   0  -5-3.30760 4.84804  12
   0   0  -5 0.70830 8.07268  13
   0   0  -5 4.99873 9.96901   6
   0   0  -5-10.3688 14.6533   3
   0   0   5 4.74452 10.5420  15
   0   0   5-2.56818 10.5679   1
   0   0  -5-4.58415 10.5216   2
   0   0  -5 26.3705 6.97610   8
   0   0  -5-3.79616 11.0158  16
   0   0   6 653.966 27.7555  10
   0   0  -6 709.299 33.0382  12
   0   0   6 786.969 61.5176  15
   0   0  -6 716.676 27.8005   8
   0   0  -6 740.921 55.3808  13
   0   0   6 727.618 53.7914   4
   0   0  -6 788.522 57.7225   6
   0   0   6 793.799 63.9522   1
   0   0  -6 775.163 66.8542   3
   0   0   6 739.594 61.3485  14
   0   0  -6 808.837 68.6663  16
   0   0  -6 720.639 62.3249   2
   0   0  -7-43.7042 13.2154  12
   0   0  -7-46.5703 22.1386  13
   0   0  -7-7.21577 21.1310   3
   0   0   7-24.5302 18.8594   4
   0   0  -7-5.16502 20.2566   6
   0   0  -7-34.4026 23.8228   2
   0   0   7-22.9650 21.5108  15
   0   0   7-37.0249 24.8108   1
   0   0   7-15.5466 18.2168  11
   0   0   7-37.5747 21.3219  14
   0   0  -7-21.9847 20.8493  16
   0   0   8 798.151 75.1353   1
   0   0  -8 718.911 63.8430  13
   0   0  -8 742.372 76.0309  16
   0   0  -8 770.706 77.8883   3
   0   0  -8 847.500 71.3711   6
   0   0   8 737.878 63.4660   4
   0   0   8 818.856 73.7533  15
   0   0   8 789.202 61.8337  11
   0   0   8 716.948 71.1314  14
   0   0  -8 749.468 74.1406   2
   0   0  -9-4.88164 23.0001   2
   0   0   9-1.51862 21.7386   4
   0   0  -9-30.0774 19.2154   6
   0   0   9-14.5787 22.3086  11
   0   0   9 4.11179 23.5826  15
   0   0  -9-17.7281 21.2503  13
   0   0   9-27.1798 25.2338  14
   0   0  -9 56.6080 32.6919  16
   0   0  -9 14.3952 24.2046   3
   0   0   9-39.1810 29.2437   1
   0   0 -10 156.835 49.5322   3
   0   0  10 236.825 45.7734  11
   0   0  10 222.872 48.6501  14
   0   0 -10 148.262 41.8554   2
   0   0  10 174.517 46.0010   1
   0   0  10 209.779 47.1139  15
   0   0 -10 227.055 47.4494   6
   0   0 -10 108.032 35.7916  13
   0   0  10 157.532 42.9160   4
   0   0 -10 127.011 41.9551  16
   0   0 -11-27.3436 28.7939   6
   0   0 -11 46.3507 33.4095  16
   0   0  11 26.0595 31.6414  14
   0   0 -11 4.34404 28.8904   2
   0   0 -11 9.15662 26.0428  13
   0   0  11-0.36686 29.1490  15
   0   0  11 5.99110 30.3980   1
   0   0 -11 9.07417 34.7415   3
   0   0  11 11.6955 26.6018  11
   0   0 -12 125.704 51.0741   3
   0   0 -12 154.918 50.8956   2
   0   0  12 144.956 49.6731  15
   0   0  12 132.783 52.3713   1
   0   0 -12-3.82996 34.0086  13
   0   0  12 157.006 48.9359  11
   0   0 -12 24.6984 56.4945  16
   0   0  12 158.712 52.8370  14
   0   0  13-37.9500 39.0701   1
   0   0  13-56.2076 43.4547  14
   0   0 -13 11.9803 36.8758   2
   0   0 -13-35.8309 49.1041   3
   0   0 -13-41.1022 51.5111  16
   0   0 -13 7.95373 37.4437  13
   0   0  13-15.6229 43.2532  15
   0   0  14 64.5902 46.2323   1
   0   0 -14 13.0027 63.2786  16
   0   0 -14 95.0383 53.5560   2
   0   0 -14 230.256 81.7028   3
   0   0  14 24.1410 47.9872  15
   0   0  14 33.3091 45.8541  14
   0   0 -15 1.59530 45.0982   2
   0   0 -15 44.2758 70.9028  16
   0   0  15 112.647 60.0541  14
   0   0  15-3.85082 57.0990  15
   0   0  15 124.991 63.9410   1
   0   0 -15-37.5826 53.1965   3
   0   0  16-35.1734 51.9586  14
   0   0  16 66.0451 61.5297   1
   0   0 -16-14.5849 62.9369  16
   0   0  16 8.42701 69.1613  15
   0   0 -16 27.5854 55.0526   2
   0  -1   2 250.832 23.3022  15
   0   1  -2 251.511 25.8402  13
   0   1  -2 251.714 25.2806  16
   0  -1   3 317.579 29.8044   4
   0  -1   3 293.379 29.1620   1
   0   1  -3 301.460 32.1372  16
   0   1  -3 269.049 27.9231   3
   0  -1   3 298.045 28.4198  14
   0  -1   3 321.461 30.1139  15
   0   1  -3 284.683 27.7290  13
   0   1  -3 312.833 32.2316   2
   0   1  -4 24605.5 293.706   3
   0   1  -4 24596.2 309.029   2
   0  -1   4 24565.2 211.767   5
   0  -1   4 24539.5 273.601   4
   0   1  -4 24652.2 233.772   6
   0   1  -4 25119.7 312.206  16
   0   1   4 24672.2 293.063  15
   0   1   4 24531.8 299.674   1
   0  -1   4 24615.0 284.288  14
   0  -1  -4 24492.7 319.579  16
   0  -1   4 24712.3 287.988  15
   0  -1  -4 24477.2 344.889   2
   0  -1  -4 24592.5 324.549   3
   0  -1   4 24775.0 289.823   1
   0   1  -4 24796.0 280.705  13
   0  -1   5 2111.40 94.4964   1
   0   1  -5 2065.48 100.874  16
   0   1   5 2139.35 94.3759  15
   0   1  -5 2126.47 101.681   2
   0   1   5 2194.05 97.7430   1
   0  -1  -5 2170.03 105.938   3
   0   1  -5 2108.61 96.4371   3
   0  -1  -5 2147.97 101.778  16
   0  -1   5 2097.71 87.0763   4
   0   1  -5 2142.48 91.4154  13
   0   1  -5 2178.80 78.7682   6
   0  -1  -5 2335.99 109.706   2
   0  -1   5 2081.30 92.9147  15
   0  -1   5 2171.65 94.8086  14
   0  -1   5 2046.85 61.9657   5
   0  -1  -6 116.554 18.9975   8
   0   1   6 176.769 33.0348   1
   0   1  -6 193.527 35.0251  16
   0  -1   6 202.312 26.3230  11
   0  -1   6 183.793 33.9746   1
   0  -1  -6 177.820 33.7842  16
   0   1   6 162.190 30.8377  15
   0   1  -6 207.927 29.2030   6
   0   1  -6 200.702 33.5035  13
   0  -1   6 211.287 33.4776  14
   0  -1   6 251.811 24.3014   5
   0  -1  -6 196.632 37.7956   3
   0  -1   6 184.445 31.7115  15
   0  -1   6 208.520 32.6001   4
   0   1  -6 196.843 37.0825   3
   0  -1  -6 170.080 35.3113   2
   0   1  -6 195.632 35.9282   2
   0  -1   7 281.610 27.3254   5
   0   1  -7 247.489 43.7180   3
   0   1  -7 263.419 34.4386   6
   0  -1  -7 249.861 43.5364   2
   0   1  -7 215.258 41.0843  16
   0  -1  -7 227.942 27.4447   8
   0   1  -7 277.866 46.0531   2
   0  -1   7 262.832 42.5840   1
   0  -1   7 269.218 42.9413  15
   0   1   7 240.047 40.6822   1
   0  -1   7 254.139 31.6459  11
   0  -1   7 210.171 37.5549  14
   0  -1   7 221.359 35.4301   4
   0   1  -7 254.493 39.2460  13
   0  -1  -7 230.535 46.6162   3
   0  -1  -7 228.821 41.5556  16
   0   1   7 206.851 37.3371  15
   0   1  -8-10.2554 21.8685   2
   0   1   8 45.3703 27.3698   1
   0  -1   8 36.3146 14.7801   5
   0  -1   8 52.2801 28.3266   1
   0  -1   8 46.2011 24.5070   4
   0   1  -8 58.9971 31.3405   3
   0   1  -8 17.2915 22.7157  16
   0  -1   8 28.5725 23.2916  15
   0  -1   8 3.48535 16.6416  11
   0   1  -8 61.7952 23.7528   6
   0  -1  -8 29.3009 21.1675  16
   0  -1  -8 47.0739 15.3773   8
   0  -1  -8 36.4085 25.6093   2
   0  -1  -8 15.3075 25.3912   3
   0   1  -8 33.5836 21.0405  13
   0  -1   8 41.6956 27.3434  14
   0   1   8 63.6089 28.2577  15
   0   1  -9 383.292 64.1135  16
   0   1   9 407.609 61.9286  14
   0   1   9 344.860 56.8472  15
   0   1  -9 409.412 52.7903   6
   0  -1   9 358.683 56.2809  15
   0   1  -9 385.968 61.6018   3
   0   1  -9 401.962 57.1242  13
   0  -1   9 410.987 48.4367  11
   0   1   9 353.133 56.2316   1
   0  -1   9 399.206 54.6198   4
   0  -1  -9 360.072 60.6086  16
   0  -1  -9 407.261 69.9074   3
   0  -1  -9 407.493 66.0453   2
   0   1  -9 386.911 61.9476   2
   0  -1   9 350.230 55.4863   1
   0  -1   9 392.039 58.4813  14
   0  -1  10 287.356 55.7015  15
   0  -1 -10 244.105 47.1013  13
   0   1 -10 292.242 64.3228   3
   0  -1 -10 278.147 70.0643   3
   0   1  10 308.700 60.8583   1
   0   1  10 332.567 58.2892  15
   0  -1 -10 292.271 60.0371  16
   0  -1  10 327.482 58.3798  14
   0   1 -10 346.025 50.3215   6
   0   1 -10 251.388 57.9342  16
   0  -1 -10 306.056 63.1205   2
   0   1  10 335.500 61.1852  14
   0  -1  10 268.212 54.8920   1
   0  -1  10 302.600 53.7876   4
   0   1 -10 322.217 60.5477   2
   0   1 -10 371.627 58.4123  13
   0   1  11-42.7047 41.7816  15
   0  -1  11 34.0675 33.1184   1
   0  -1  11 13.5314 32.4221  15
   0  -1 -11-22.7945 47.5502   3
   0   1  11 20.0765 37.5254   1
   0   1 -11-1.38821 28.5253   2
   0  -1 -11-63.7782 42.0788   2
   0   1 -11-71.2266 42.7706   3
   0   1 -11-27.6935 26.3142   6
   0   1 -11-6.59117 32.1052  16
   0   1  11 3.44147 28.5683  11
   0  -1  11 14.9110 29.4312   4
   0  -1  11 33.9403 32.6801  14
   0  -1 -11-27.2866 38.0449  16
   0   1 -11 17.4542 29.2572  13
   0   1  11-74.5395 37.6167  14
   0  -1 -11-54.8443 34.9530  13
   0   1 -12 5.59426 37.4032  13
   0  -1 -12-2.95722 39.5807  16
   0  -1 -12 59.1813 44.4494   3
   0   1  12 137.504 48.9985  14
   0   1  12-76.4389 41.1645  11
   0   1 -12-42.6420 42.0448   3
   0  -1 -12-72.1425 42.5457   2
   0  -1  12-0.44886 31.0571   4
   0  -1 -12-18.4956 33.5750  13
   0   1 -12-31.9094 36.3666   2
   0   1  12 63.7513 46.7483   1
   0  -1  12 7.97568 35.2224  15
   0   1  12-71.1701 43.9564  15
   0  -1  12 27.7206 33.6084  14
   0  -1  12 31.1439 33.4256   1
   0   1 -12 31.6250 39.4929  16
   0   1 -13 88.1193 56.9868   3
   0  -1  13 78.0907 46.8826  14
   0   1 -13 9.35912 48.6234  16
   0   1  13 172.929 64.1959   1
   0  -1 -13-7.42792 56.0874  16
   0   1  13 168.399 61.0164  15
   0   1 -13 4.92220 47.4865  13
   0  -1  13 56.3098 42.1127   1
   0   1  13 125.102 58.4528  14
   0  -1 -13-0.17782 43.4759   2
   0  -1  13 35.7552 30.9913   4
   0   1 -13 98.5621 48.8630   2
   0  -1  13 129.510 53.0913  15
   0  -1 -13-13.5239 54.8634  13
   0   1  14 46.4692 59.8153  14
   0   1 -14 90.0014 51.3614   2
   0   1  14 3.70809 58.7441  15
   0  -1  14 86.5260 51.0286  14
   0   1 -14-0.34624 46.2226  13
   0  -1  14-6.92542 39.6514  15
   0   1 -14 112.169 53.5329   3
   0  -1 -14-43.3561 63.5126  16
   0  -1  14-5.22953 38.8786   1
   0   1 -14 5.60212 48.4261  16
   0  -1  15 28.6068 40.0105  14
   0  -1  15 2.98637 45.8428  15
   0   1 -15 40.4843 58.1917  16
   0   1 -15-11.5330 46.8765   3
   0  -1  15 72.0473 50.3900   1
   0   1 -15 28.6189 42.4003   2
   0   1 -16 67.9318 68.3730   3
   0  -1  16 14.7425 43.6140  14
   0  -1  16 25.2943 57.7979   1
   0   1 -16-32.5802 75.0479  16
   0   1 -16-14.8226 46.3760   2
   0  -1  16-3.53553 51.5402  15
   0   2  -4 286.819 35.2750   2
   0  -2   4 253.765 32.2735   1
   0  -2   5 2935.17 149.136  14
   0   2  -5 3267.84 135.745   2
   0  -2   5 3372.03 129.839  15
   0  -2   5 3233.93 122.005   4
   0   2  -5 3329.38 137.999  16
   0   2  -5 3402.26 133.150   3
   0   2  -5 2951.52 132.969  13
   0  -2   5 3235.34 127.668   1
   0   2  -6 41.8930 24.5371   3
   0   2  -6 55.5000 27.7505  13
   0  -2   6 74.2090 28.2420  15
   0  -2   6 79.7548 32.0935   4
   0   2  -6 69.4117 27.7350  16
   0   2  -6 83.0360 23.1360   6
   0   2  -6 102.762 33.0147   2
   0  -2   6 91.7140 24.5833   5
   0  -2   6 98.4035 31.3612   1
   0  -2   6 80.1268 31.8991  14
   0  -2   7 1333.24 94.8279   1
   0  -2   7 1310.49 94.3080  15
   0   2  -7 1308.00 76.5091   6
   0   2  -7 1249.25 96.0799   3
   0   2  -7 1295.30 99.7507   2
   0  -2   7 1321.44 93.5802  14
   0   2  -7 1367.68 98.2680  13
   0  -2   7 1322.57 70.3040   5
   0   2  -7 1189.14 98.0520  16
   0  -2   7 1252.93 87.1222   4
   0  -2   8 102.030 32.0791   4
   0   2  -8 156.328 38.4460  13
   0  -2   8 160.563 38.1948  14
   0   2  -8 122.565 30.5687   6
   0   2  -8 124.098 37.5680   3
   0  -2   8 96.9234 31.7380   1
   0   2  -8 102.698 33.9773  16
   0   2  -8 105.928 35.2738   2
   0  -2   8 145.156 25.7650   5
   0  -2   8 102.512 34.7118  15
   0   2  -9 262.245 58.1390  16
   0  -2   9 310.787 35.4021   5
   0  -2   9 273.151 51.7832  14
   0   2  -9 317.538 57.5594   3
   0   2  -9 322.228 59.5695   2
   0  -2   9 340.989 57.7856   1
   0   2  -9 296.958 55.2242  13
   0  -2   9 334.889 60.3368  15
   0   2  -9 393.309 50.9495   6
   0  -2   9 272.636 48.3088   4
   0   2 -10 126.719 44.8807   2
   0  -2  10 140.418 47.7683  15
   0  -2  10 120.786 37.6252   4
   0   2 -10 166.670 39.5787   6
   0   2 -10 184.814 52.7192   3
   0   2 -10 104.174 44.9313  16
   0   2 -10 145.449 43.9292  13
   0  -2  10 144.314 43.2730  14
   0  -2  10 127.477 43.3927   1
   0   2 -11 36.6136 37.0412  13
   0  -2  11-98.2327 44.3500  14
   0   2 -11-65.0639 39.7038   2
   0  -2  11-65.8775 47.1437  15
   0  -2  11-23.7398 34.5057   4
   0   2 -11 0.46875 32.4162   3
   0  -2  11-16.6788 34.4989   1
   0   2 -11 41.6360 37.4964  16
   0   2 -11 9.24381 25.6726   6
   0  -2  12 186.409 51.2364   4
   0  -2  12 194.368 56.5724  15
   0  -2  12 146.657 52.0578   1
   0   2 -12 196.510 61.7817   2
   0  -2  12 235.845 60.3411  14
   0   2 -12 208.507 66.1114   3
   0   2 -12 24.5621 64.8533  16
   0   2 -12 0.10348 65.4844  13
   0   2 -13-16.2369 31.9706  13
   0   2 -13-0.11560 36.7849   2
   0  -2  13-30.1610 47.6098  15
   0  -2  13 216.449 73.6887   1
   0  -2  13 266.346 82.1340   4
   0   2 -13 18.5857 40.4866  16
   0  -2  13 29.6899 40.5575  14
   0   2 -13 9.12149 41.7658   3
   0  -2  14-1.19070 33.5204   4
   0  -2  14 40.8929 47.4552   1
   0   2 -14 1.92181 39.5736   2
   0  -2  14 4.91274 40.6300  15
   0   2 -14-10.8467 43.2141   3
   0  -2  14 34.3539 50.3545  14
   0   2 -14 10.6279 42.4272  16
   0  -2  15 61.5920 53.3997   1
   0  -2  15 6.78251 52.4470  15
   0   2 -15 101.660 63.7211   3
   0  -2  15 19.0417 47.7816  14
   0   2 -15 43.3775 74.0439  16
   0   2 -15 151.791 65.4641   2
   0   2 -16 4.44009 54.2085   2
   0  -2  16-40.5790 51.7044   1
   0   2 -16-16.7417 47.5056   3
   0  -2  16 15.2068 64.6159  15
   0   2 -16-3.58959 53.9826  16
   0   3  -8 182.296 41.2738   3
   0  -3   8 219.784 44.4248   1
   0   3  -8 290.708 52.5398   2
   0  -3   8 222.484 40.9649   4
   0  -3   9-3.22856 26.8251   4
   0   3  -9 43.8186 30.1011  16
   0   3  -9 12.7340 22.2332   6
   0  -3   9 2.14979 16.3225   5
   0  -3   9 21.7457 26.5926   1
   0  -3   9-5.34888 20.2556  15
   0   3  -9-9.70366 26.0413   3
   0   3  -9 1.81681 26.4729   2
   0  -3  10 3.93383 25.8609  15
   0  -3  10 11.3417 29.3078   1
   0   3 -10 6.63900 27.4295   2
   0   3 -10 69.2565 27.3688   6
   0   3 -10-23.5452 29.8373   3
   0  -3  10 29.5359 37.2008   4
   0   3 -10 29.4676 29.8774  16
   0   3 -11 90.0893 45.6021   2
   0  -3  11-27.9414 36.0439  15
   0   3 -11 10.8970 36.7127  16
   0  -3  11 68.3829 44.0874   4
   0   3 -11 16.6401 31.8231   3
   0  -3  11 27.8818 35.4659   1
   0  -3  12 21.3035 54.1239   4
   0   3 -12 3.12422 30.8439   3
   0   3 -12-5.03511 30.6357  16
   0  -3  12 8.74836 34.3441  15
   0   3 -12 10.6658 33.7248   2
   0  -3  12 79.8957 46.8330   1
   0   3 -13 41.7411 40.3526   3
   0  -3  13-82.0800 57.9410   1
   0   3 -13-7.55923 38.0097  16
   0  -3  13-141.006 93.4439   4
   0   3 -13 20.6586 40.2912   2
   0  -3  13 41.7242 40.2173  15
   0   3 -14 8.73046 55.0555  16
   0  -3  14 54.0981 56.7828   1
   0  -3  14 59.1511 47.9706  15
   0   3 -14 55.5704 42.8730   3
   0   3 -14-6.08843 41.9111   2
   0  -3  15-19.6015 55.5055   1
   0   3 -15-20.8452 50.7041   2
   1   0 -14-12.8082 57.8669  13
  -1   0  14-31.8125 59.3538  15
   1   0 -14 11.1872 38.2442   2
   1   0 -14-23.3124 75.5777  16
  -1   0  14-21.8722 42.1220  14
   1   0 -13 13.7507 52.2880  13
   1   0 -13 1.47164 36.7084   2
  -1   0  13-31.8029 39.3318  14
  -1   0  13-40.0448 42.4519   1
   1   0 -13 0.89635 48.1884  16
  -1   0  13-5.04516 40.4922  15
  -1   0  12 49.2025 42.4597   1
   1   0 -12-3.82702 34.4990   2
   1   0 -12 9.33580 45.3607  13
   1   0 -12-0.24787 39.0151  16
  -1   0  12 25.8610 38.7833  15
  -1   0  12-24.7558 34.4159  14
  -1   0  11 26.9286 22.7366  11
  -1   0  11-15.5425 28.8139  14
   1   0 -11-16.1533 28.1741   2
  -1   0  11 28.2426 35.0907  15
  -1   0  11-21.9191 32.0013   1
   1   0 -11 28.1654 23.4960  12
   1   0 -11-31.1911 32.9087  13
   1   0 -11 30.4828 38.5162  16
  -1   0  10 236.160 52.8090   1
   1   0 -10 249.617 57.1583   2
  -1   0  10 229.448 50.6327  15
   1   0 -10 211.679 55.2790  16
   1   0 -10 158.469 46.3271  13
  -1   0  10 209.382 47.1200  14
  -1   0   9 31.0620 26.0056  15
  -1   0   9-19.0344 25.0127   4
  -1   0   9-14.1263 23.4348   1
   1   0  -9 13.9184 27.6985   2
   1   0  -9 4.77635 21.8820  16
   1   0  -8 7651.54 243.055   2
   1   0  -8 7406.72 100.248   8
   1   0  -8 7391.50 245.735  16
  -1   0   8 7258.31 101.512   7
  -1   0   8 7624.81 231.617   1
  -1   0   8 7385.34 224.400  15
  -1   0   8 8223.70 250.641   4
   1   0  -7-10.1008 17.2789   2
  -1   0   7-29.2029 25.3199   4
   1   0  -7-21.2927 23.9218  16
  -1   0   7-15.7598 21.2306  15
  -1   0   7-15.0482 20.8364   1
  -1   0   6 552.407 55.9896  15
  -1   0   6 550.368 55.5703   1
   1   0  -6 548.962 57.8317   2
   1   0  -6 566.337 61.1924  16
  -1   0   6 556.816 57.9125   4
  -1   0   5 1.40698 12.1232  15
   1   0  -5-9.01997 16.7649  16
  -1   0   5 8.20036 13.9793   1
  -1   0   5 7.13077 12.1395   4
   1   0  -5-4.59794 11.3532   2
  -1   0   4 170762. 812.623   1
  -1   0   4 176404. 854.366   4
   1   0  -4 173361. 873.751   2
  -1   0   4 173187. 793.824  15
   1   0  -3-6.23943 12.4362  16
  -1   0   3 6.81866 7.94329  15
  -1   0   3-4.81556 10.7549   4
  -1   0   0 8273.82 159.970   8
  -1   0   0 9247.80 181.774   7
   1   0   0 8260.33 150.539  10
   1   0   1 11.0200 7.40055  10
  -1   0  -1 15.1807 10.7128   7
  -1   0  -1 17.3852 10.5373   8
  -1   0  -1 9.19538 8.71095   6
   1   0   1 13.9438 10.1523  11
  -1   0  -2 118.205 19.7868   7
  -1   0  -2 98.3314 19.8833   3
   1   0   2 90.2336 17.9631  14
   1   0   2 85.6974 16.7630  11
  -1   0  -2 108.562 21.2862   6
   1   0   2 110.882 19.1011  10
  -1   0  -2 82.4353 15.5055   8
   1   0   3-4.11138 9.58538  15
  -1   0  -3 3.36187 8.77962   7
  -1   0  -3 1.30296 9.21382   3
  -1   0  -3 4.26170 7.02197  16
  -1   0  -3 2.34127 9.68322   6
   1   0   3 9.01795 9.58169   1
  -1   0  -3-8.37288 7.68407   2
   1   0   3 4.95048 8.16319  14
   1   0   3-0.37343 7.87266  10
   1   0   3-13.9910 12.3229  11
  -1   0  -3 2.59048 7.49523   8
  -1   0  -4 2256.36 94.7430  16
   1   0   4 2248.31 95.4771  11
   1   0   4 2117.32 45.9789   5
   1   0   4 2274.89 87.7726   1
  -1   0  -4 2262.17 84.6540   8
   1   0   4 2194.35 100.213  14
  -1   0  -4 2205.68 89.9576   2
   1   0   4 2271.61 88.6757  10
   1   0   4 2277.77 89.9370  15
   1   0   4 2244.37 59.3013   4
  -1   0  -4 2178.74 102.288   3
  -1   0  -4 2361.79 104.114   6
  -1   0  -4 2277.89 86.0599   7
  -1   0  -5-10.4586 11.8640  16
  -1   0  -5-12.8935 14.5591   7
   1   0   5-10.2371 12.6105  10
   1   0   5-35.7739 19.4337  11
   1   0   5 7.15013 15.7889  14
   1   0   5-26.5286 18.2969  15
   1   0   5 8.98336 13.7649   1
  -1   0  -5 14.0609 15.9345   2
  -1   0  -5-6.06287 14.6150   6
   1   0   5-2.17033 10.3558   4
  -1   0  -5-32.0338 18.4129   8
  -1   0  -5 18.7411 18.6230   3
   1   0   6 3329.27 94.6726   4
  -1   0  -6 3202.12 134.630   2
  -1   0  -6 3562.47 116.697   7
  -1   0  -6 3240.46 138.380  16
   1   0   6 3382.17 132.084  15
   1   0   6 3449.16 135.838  11
   1   0   6 3186.80 117.525  10
  -1   0  -6 3416.04 142.931   6
  -1   0  -6 3287.71 148.413   3
   1   0   6 3340.82 131.710   1
   1   0   6 3298.11 144.283  14
  -1   0  -6 3396.65 126.961   8
   1   0   7-6.34713 21.0997  11
  -1   0  -7 12.8614 18.0379   2
   1   0   7-18.4023 23.2529  15
  -1   0  -7 66.5519 23.7437  13
  -1   0  -7-34.0121 27.2458   6
  -1   0  -7-21.3952 18.4629   7
   1   0   7-6.88140 17.7303  14
   1   0   7-2.33247 13.1912   9
  -1   0  -7-7.17829 18.7129  16
  -1   0  -7-3.24651 21.0769   3
   1   0   7-19.3584 12.4515   4
   1   0   7-21.2137 22.4530   1
   1   0   8 1059.24 68.8561   4
   1   0   8 1127.79 91.1214  15
  -1   0  -8 1087.53 90.9527   2
   1   0   8 1103.16 65.0962   9
   1   0   8 1079.50 94.6285  14
  -1   0  -8 1045.71 77.5516  13
   1   0   8 1204.97 93.5863  11
  -1   0  -8 1171.40 96.4432   6
  -1   0  -8 1178.01 72.6827   7
  -1   0  -8 1049.43 93.5667  16
   1   0   8 1092.62 89.9674   1
  -1   0  -8 1041.87 100.666   3
   1   0   9 25.3442 24.4744  15
   1   0   9-45.4638 33.8993  11
   1   0   9-44.5484 32.8560  14
  -1   0  -9 31.5729 21.6135  13
  -1   0  -9-2.04251 23.7624  16
   1   0   9-20.9257 22.2338   4
   1   0   9-14.0290 25.6244   1
  -1   0  -9 1.90814 23.0436   2
  -1   0  -9-40.5135 22.8057   7
  -1   0  -9-26.2872 31.5000   6
   1   0   9-39.5647 22.7957   9
  -1   0  -9-0.23818 29.4228   3
   1   0  10 481.858 74.4248  14
   1   0  10 533.624 71.5636  15
  -1   0 -10 576.894 85.9593   3
  -1   0 -10 469.508 61.3417  13
  -1   0 -10 666.862 85.1571   6
   1   0  10 597.077 78.1679   1
  -1   0 -10 621.854 81.5804   2
   1   0  10 582.182 78.6146   4
   1   0  10 708.708 83.3670  11
  -1   0 -10 421.430 72.2469  16
  -1   0 -11-69.0603 39.9929   2
  -1   0 -11-47.2547 40.0673  16
  -1   0 -11 0.68431 32.3374   6
  -1   0 -11-2.99160 35.8332   3
   1   0  11-0.08058 44.8551  15
   1   0  11 22.8859 33.8649  14
   1   0  11 23.9919 34.0751  11
   1   0  11-13.2141 37.4945   1
  -1   0 -12-95.4727 55.3527   3
   1   0  12-4.41705 36.3799  15
   1   0  12 26.6520 38.1303  14
  -1   0 -12-17.6698 36.7585   2
  -1   0 -12-3.71505 34.4020  16
   1   0  12-16.2027 40.4930  11
  -1   0 -12 1.33731 34.6546   6
   1   0  12 53.0057 41.7385   1
  -1   0 -13-23.4385 54.0488   6
   1   0  13 1.66165 53.7203  15
  -1   0 -13-68.2040 45.9528   2
  -1   0 -13-70.9844 55.0622   3
   1   0  13-72.3862 50.7228   1
   1   0  13-57.8835 45.3145  14
  -1   0 -13-19.4076 38.3260  16
  -1   0 -14 45.5719 41.7285   2
   1   0  14 21.3036 64.3366  15
   1   0  14 134.340 63.4923  14
  -1   0 -14 15.4104 51.9608  16
  -1   0 -14 28.8122 48.9357   3
   1   0  14 41.8644 44.4666   1
  -1   0 -15 8.85174 57.4663  16
   1   0  15-66.2661 52.6772  14
  -1   0 -15-2.29059 43.2035   2
   1   0  15-113.001 61.8591  15
  -1   0 -15 16.0237 59.1242   3
   1   0  15-22.3093 45.2977   1
   1   1 -16-13.5051 73.4356  16
   1   1 -16-10.5515 71.6983  13
   1   1 -16-220.751 82.9997   2
  -1  -1  16 26.4965 77.5248  15
  -1  -1  16-79.8804 59.4262  14
  -1  -1  16-93.3645 69.4308   1
   1   1 -15 17.3025 53.9451  16
  -1  -1  15 93.6982 57.5563  14
   1   1 -15 31.3837 55.2073   2
   1   1 -15 0.58295 48.9890  13
  -1  -1  15 74.1783 62.3488   1
  -1  -1  15-39.0451 57.7308  15
   1   1 -14-1.97673 41.1294  13
   1   1 -14 29.5849 60.1236  16
  -1  -1  14 95.8364 45.7852  14
  -1  -1  14 39.4965 48.2104   1
  -1  -1  14 183.278 64.8962  15
   1   1 -14 59.7755 49.9184   2
  -1  -1  13 94.9475 50.5064  15
   1   1 -13-10.0126 38.7878  13
  -1  -1  13 47.5264 48.0522   4
   1   1 -13-10.0481 36.5427   3
   1   1 -13-3.60142 39.1379  16
   1   1 -13-14.3926 39.9291   2
  -1  -1  13 4.86454 38.0887   1
  -1  -1  13 81.6370 44.1189  14
  -1  -1  12-43.3346 35.8710  14
  -1  -1  12-18.0776 32.2566   4
   1   1 -12-16.8808 40.9519  13
  -1  -1  12-74.4131 46.2637  15
  -1  -1  12-2.02798 35.8040   1
   1   1 -12-4.32135 42.6536  16
   1   1 -12-26.7904 32.5979   3
   1   1 -12-20.0375 32.4714   2
   1   1 -11-34.2563 31.5575  13
  -1  -1  11 40.1551 36.7469  15
   1   1 -11 26.5604 27.4261  12
   1   1 -11 29.3099 30.8270   2
   1   1 -11 75.8063 45.3141   3
  -1  -1  11 26.1628 33.9735   1
   1   1 -11-22.6189 37.0149  16
  -1  -1  11 8.06774 27.1634  14
  -1  -1  11-9.13820 30.1062   4
  -1  -1  10 25.6668 25.0301  14
  -1  -1  10 38.2310 27.0579  15
   1   1 -10 5.75730 25.5548  16
   1   1 -10 40.5393 21.9859  12
  -1  -1  10-19.6938 29.5063   4
  -1  -1  10 31.2605 28.2611   1
   1   1 -10-9.55615 27.0505  13
   1   1 -10 86.4296 38.5005   2
   1   1 -10 13.4160 28.8415   3
  -1  -1   9 52.4005 30.4096  15
  -1  -1   9 26.0065 15.9352  11
  -1  -1   9 87.5972 32.9585   1
  -1  -1   9 96.8836 30.5951  14
   1   1  -9 104.576 28.4174  12
  -1  -1   9 22.1405 22.2641   4
  -1  -1   9 97.3908 32.0502   5
   1   1  -9 118.913 39.7251  16
   1   1  -9 107.724 35.0768   3
   1   1  -9 94.8812 35.9952  13
   1   1  -9 90.6759 35.3790   2
  -1  -1   8 4804.96 153.615   5
  -1  -1   8 4220.24 99.7161  11
  -1  -1   8 4132.55 167.777   4
   1   1  -8 4230.59 140.175  12
   1   1  -8 4489.81 170.721   3
  -1  -1   8 4304.49 159.093  14
   1   1  -8 4298.33 177.961   2
   1   1  -8 4294.81 172.807  13
   1   1  -8 4158.43 180.169  16
  -1  -1   8 4243.89 168.679   1
  -1  -1   8 4199.36 167.959  15
   1   1  -7 22.9268 18.3948   2
  -1  -1   7 20.0674 20.0129   4
   1   1  -7 12.0789 13.0401  12
  -1  -1   7 33.3367 19.5373  15
   1   1  -7 26.1995 19.9685  13
   1   1  -7 8.29284 17.5570   3
  -1  -1   7 34.8895 16.6161   5
  -1  -1   7 5.88271 7.96618  11
  -1  -1   7 18.5630 16.5809  14
   1   1  -7 26.5746 16.1599  16
  -1  -1   7 37.9092 21.3962   1
  -1  -1   6 39.4888 8.09785  11
   1   1  -6 45.5328 18.4589   3
  -1  -1   6 41.5593 15.4616  14
   1   1  -6 40.5160 16.8144  13
  -1  -1   6 41.2331 19.7416  15
   1   1  -6 23.6124 7.42797   9
  -1  -1   6 10.8960 13.4232   5
  -1  -1   6 34.3335 16.6932   4
   1   1  -6 23.1059 13.2992  16
   1   1  -6 49.7987 20.7441   2
  -1  -1   6 4.53243 8.84928   7
  -1  -1   6 36.2232 17.1431   1
   1   1  -5 29.9594 16.2371  16
  -1  -1   5 22.4593 9.45896   7
  -1  -1   5 10.5004 10.1831   5
   1   1  -5 18.3623 12.4488   2
   1   1  -5 18.7150 11.0472   3
  -1  -1   5 9.96291 12.8516   4
   1   1  -5 32.7138 16.4783  13
  -1  -1   5 22.8262 13.8663   1
  -1  -1   5 27.4925 12.8816  14
  -1  -1   5 37.3428 17.7796  15
  -1  -1   4 2687.61 71.2259   8
   1   1  -4 2726.89 104.308  13
  -1  -1   4 2608.04 91.6861  15
   1   1  -4 2753.51 100.046   2
   1   1  -4 2660.42 79.1953   3
  -1  -1   4 2565.21 99.8194   4
   1   1  -4 2735.38 74.7670  10
  -1  -1   4 2667.59 95.1923   1
   1   1  -4 2588.78 97.2591  16
  -1  -1   4 2804.37 97.6176   5
  -1  -1   4 2755.21 72.2256   7
  -1  -1   4 2626.05 74.1808  14
  -1  -1   3 8036.92 138.943  15
  -1  -1   3 8168.81 133.099   7
   1   1  -3 8107.54 149.120  16
   1   1  -3 8101.52 165.376  13
   1   1  -3 8264.07 150.279   2
  -1  -1   3 8162.27 157.669   5
   1   1  -3 8119.95 131.585  10
  -1  -1   3 8185.62 129.387   8
  -1  -1   3 8051.72 162.683   4
  -1  -1   3 8361.26 146.414   1
   1   1  -2 864.773 40.3990  16
   1   1  -2 888.652 40.6080   2
   1   1  -2 904.338 29.7322  11
  -1  -1   2 891.043 50.9517   5
  -1  -1   2 908.737 46.5897   7
   1   1  -2 893.113 49.4010  13
  -1  -1   2 860.526 30.5478   6
  -1  -1   2 894.115 44.5143   8
  -1  -1   2 906.011 49.5069   4
  -1  -1   2 886.329 38.1043  15
  -1  -1   2 920.043 40.5642   1
   1   1  -1 80.0162 9.14570   2
  -1  -1   1 70.7219 8.65917  15
  -1  -1   1 71.5438 15.0710   5
   1   1  -1 80.2063 13.3370  13
   1   1  -1 66.9451 9.05017  16
   1   1  -1 82.0456 11.6723  11
  -1  -1   1 73.5708 12.4682   6
  -1  -1   1 74.4961 9.12181   2
  -1  -1   1 80.2552 15.5428   7
   1   1  -1 70.5090 8.25877   1
  -1  -1   1 87.2094 9.85730   1
  -1  -1   1 73.1656 12.9912   4
  -1  -1   1 84.0345 15.1151   8
   1   1   0 25137.6 171.085  14
   1   1   0 25294.7 192.709  13
  -1  -1   0 25125.9 169.270   3
   1   1   0 25214.6 175.915   3
  -1  -1   0 24896.2 240.550   5
  -1  -1   0 25604.3 260.570   7
  -1  -1   0 25119.3 250.541   8
  -1  -1   0 25115.6 189.381   4
  -1  -1   0 24966.9 235.039   6
  -1  -1  -1 6759.20 138.762   6
   1   1   1 6517.79 114.816  12
  -1  -1  -1 6742.60 119.532   5
  -1  -1  -1 6601.43 115.089   3
  -1  -1  -1 6308.98 133.719   8
   1   1   1 6650.57 115.226  14
   1   1   2 420.833 24.2204   1
  -1  -1  -2 402.862 35.7703   3
  -1  -1  -2 416.523 37.6532   7
   1   1   2 399.774 27.7530  12
  -1  -1  -2 416.854 39.0088   6
   1   1   2 404.957 34.8585  14
  -1  -1  -2 460.717 30.5766   5
   1   1   2 416.798 23.9615  15
  -1  -1  -2 400.364 24.8856  16
  -1  -1  -2 376.143 23.8991   2
  -1  -1  -2 393.833 35.2147   8
   1   1   3 5.52864 7.34177   1
  -1  -1  -3 7.81848 10.6375   6
   1   1   3 6.87502 10.3918  14
  -1  -1  -3 0.05700 6.58338   2
   1   1   3-9.49805 11.1401   9
  -1  -1  -3-2.77989 9.52650   7
   1   1   3 7.41552 5.34522  12
  -1  -1  -3-1.39231 7.20479  16
  -1  -1  -3 3.15294 9.94531   8
  -1  -1  -3-4.93904 9.23855   3
   1   1   3 7.12927 8.59193  15
  -1  -1  -3 0.96933 6.94213   5
   1  -1   4 1806.63 108.926  14
  -1  -1  -4 1766.33 92.2240   6
  -1  -1  -4 1634.28 73.0242   2
  -1  -1  -4 1478.80 38.5222  13
  -1   1  -4 1617.60 108.088   6
   1   1   4 1784.02 76.7566   9
  -1  -1  -4 1714.66 77.0977  16
  -1  -1  -4 1644.53 46.4506   5
  -1   1  -4 1540.30 97.6514   2
  -1  -1  -4 1795.84 83.7889   7
  -1   1  -4 1609.20 109.831   3
   1  -1   4 1530.12 101.918   1
   1   1   4 1663.97 69.7174   1
  -1  -1  -4 1708.19 89.7121   3
  -1  -1  -4 1716.11 76.9266   8
   1   1   4 1739.43 87.8878  14
   1   1   4 1723.62 71.5279  15
   1  -1   5 241.973 41.7023  14
   1   1   5 224.526 37.2573  14
  -1  -1  -5 262.732 39.4021   6
  -1  -1  -5 257.167 34.3345   7
  -1  -1  -5 257.589 32.4960   8
  -1   1  -5 261.428 40.2737   6
  -1  -1  -5 192.993 36.5252   3
   1   1   5 179.700 26.7439   9
   1  -1   5 89.9591 22.3548  15
   1  -1   5 236.237 29.3622   4
  -1   1  -5 222.030 38.2827   7
   1   1   5 245.700 32.0678  15
  -1   1  -5 203.836 38.8699   3
  -1  -1  -5 208.953 19.4827  13
  -1   1  -5 268.836 41.5031   2
   1  -1   5 233.604 38.3877   1
  -1  -1  -5 215.177 31.0637   2
   1   1   5 215.950 29.2975   1
  -1  -1  -5 258.154 35.7590  16
  -1   1  -6 304.231 49.2804   3
   1  -1   6 274.001 41.7271   1
   1   1   6 264.630 32.2757   9
  -1  -1  -6 293.846 35.7935   8
  -1  -1  -6 273.104 44.2083   6
  -1  -1  -6 274.259 39.1547   2
  -1   1  -6 319.300 36.0362   7
   1  -1   6 261.883 44.7335  14
   1   1   6 273.850 40.3935  11
  -1  -1  -6 281.158 27.2418  13
   1   1   6 284.380 44.9239  14
  -1  -1  -6 295.027 36.8990   7
   1   1   6 254.942 32.2169  10
   1  -1   6 302.875 44.1970  15
  -1   1  -6 286.530 44.3797  16
  -1  -1  -6 297.935 47.6856   3
   1   1   6 264.779 36.8307  15
   1  -1   6 285.372 34.6225   4
   1   1   6 274.908 38.3730   1
  -1   1  -6 292.922 46.0869   2
  -1   1  -6 285.785 44.7554   6
  -1  -1  -6 297.820 43.3553  16
   1   1   7-11.4230 22.7106  14
  -1   1  -7 32.1826 23.6746  16
  -1  -1  -7 6.42640 14.4408   7
  -1  -1  -7 28.5943 24.7108   6
   1  -1   7 30.6999 17.7671   4
  -1   1  -7 8.75742 14.0163   7
   1   1   7-18.3427 20.5088  11
   1  -1   7 13.8018 19.9183  15
  -1  -1  -7 17.7890 14.3614  13
   1  -1   7-35.1202 25.3842  14
  -1  -1  -7-8.50681 19.0085   2
  -1   1  -7 0.78354 19.5340   2
   1   1   7-13.6874 15.8947   9
  -1   1  -7-23.5902 24.9093   6
  -1  -1  -7 25.7707 24.5890   3
  -1   1  -7 28.2121 26.8600   3
  -1  -1  -7 50.1970 25.5879  16
   1   1   7-6.85373 13.2712  10
   1   1   7-16.5847 19.0056  15
   1   1   7-2.52859 16.9316   1
   1  -1   7 19.7214 17.6220   1
  -1  -1  -7-9.43208 16.2143   8
  -1  -1  -8 290.246 36.6206  13
   1  -1   8 275.363 39.8633   4
  -1   1  -8 277.631 35.1292   7
  -1  -1  -8 357.261 58.1864   6
  -1   1  -8 269.246 53.4905  16
  -1  -1  -8 264.458 47.9245   2
  -1  -1  -8 263.003 48.8457  16
  -1   1  -8 325.716 53.3707   6
   1  -1   8 242.858 46.3427   1
   1  -1   8 251.390 48.9541  14
   1   1   8 267.671 37.1187  10
   1   1   8 240.469 49.6291  14
   1  -1   8 309.469 53.8784  15
   1   1   8 270.538 43.6486  15
  -1   1  -8 290.289 52.5122   2
  -1   1  -8 300.963 58.8201   3
  -1  -1  -8 329.033 59.7405   3
   1   1   8 230.804 42.5855  11
  -1  -1  -8 309.209 39.8159   8
   1   1   8 282.824 46.4801   1
   1   1   9 191.921 45.2348  15
  -1  -1  -9 219.543 49.0860   6
   1   1   9 189.928 48.4957  14
   1   1   9 222.623 38.2046  10
  -1  -1  -9 215.640 53.2769   3
   1   1   9 247.335 48.1507  11
  -1  -1  -9 214.484 47.9208   2
   1  -1   9 396.789 63.7404   1
  -1  -1  -9 214.515 50.9501  16
   1   1   9 206.800 44.0895   1
  -1  -1  -9 162.992 29.9394  13
  -1  -1  -9 317.396 51.2024   8
  -1  -1 -10 66.3378 26.5062  13
  -1   1 -10-11.3044 33.5187   3
  -1   1 -10 46.3578 35.7855   6
  -1  -1 -10-5.85404 29.8475   6
   1  -1  10-28.9389 31.2752  14
   1  -1  10 92.6090 39.2259   1
   1   1  10 43.9644 34.5337   1
  -1   1 -10 36.3762 31.6757   2
  -1  -1 -10 30.7358 34.6210   3
   1   1  10 6.86183 26.0901  11
  -1   1 -10 27.3800 30.9974  16
   1  -1  10 10.3174 33.0018  15
   1   1  10-1.10862 27.9647  15
   1  -1  10 21.8467 22.1030   4
  -1  -1 -10 2.64990 26.8764   2
   1   1  10-8.18154 28.4323  14
  -1  -1 -10 72.1668 38.7379  16
  -1  -1 -11 38.7409 33.8695   6
  -1  -1 -11-33.1061 39.2563  16
   1   1  11 4.74124 35.4098  15
   1  -1  11-67.4088 45.2307  14
   1  -1  11 34.8556 35.3866  15
  -1   1 -11-3.79527 36.5890   3
  -1   1 -11 8.96499 31.0424   6
  -1  -1 -11-23.8714 36.9841   3
  -1   1 -11-9.04952 33.1452   2
   1   1  11-16.1461 28.9613  11
  -1  -1 -11-44.4873 41.5323   2
   1   1  11 25.6615 32.7784   1
   1   1  11-12.6216 35.5694  14
   1  -1  11 15.1771 33.2775   1
  -1   1 -11-15.1799 34.6980  16
  -1   1 -12 125.867 60.9521   3
  -1  -1 -12 180.553 61.8417   2
  -1   1 -12 173.495 51.6122   6
   1   1  12 0.80993 48.4457  15
   1   1  12 170.433 54.6746   1
  -1  -1 -12 135.488 58.8633   3
  -1  -1 -12 123.745 52.8738   6
   1   1  12 225.848 60.7239  14
   1   1  12 114.699 50.3783  11
  -1   1 -12 106.608 49.3127   2
   1  -1  12 6.41869 58.8043  15
   1  -1  12 105.846 50.4932  14
   1  -1  12 179.627 57.4775   1
  -1  -1 -12 134.764 54.1263  16
  -1   1 -12 3.35189 62.4188  16
   1  -1  13-30.3041 38.2483   1
   1   1  13 10.6909 41.8497   1
  -1  -1 -13 20.5643 45.1051  16
   1   1  13 32.0114 40.7610  11
   1   1  13-36.4921 43.7539  14
   1  -1  13-25.4219 42.4115  14
   1  -1  13-5.76581 46.9790  15
  -1   1 -13 71.8333 51.8879   3
  -1   1 -13 39.0587 44.8347   6
  -1  -1 -13-92.3419 62.5870   3
  -1  -1 -13 47.8082 45.3737   2
  -1  -1 -13-14.5832 45.9616   6
  -1   1 -13 29.7588 61.0105  16
   1   1  13 0.50111 39.4514  15
  -1   1 -13 9.59314 37.1205   2
   1   1  14-3.50441 47.9403  15
   1  -1  14-4.06775 43.5624  15
   1   1  14-2.20999 41.2818  11
   1  -1  14-90.1338 59.1979  14
   1   1  14 38.4838 46.5744  14
   1   1  14 20.3018 42.8110   1
  -1  -1 -14-27.1103 46.0308  16
  -1   1 -14-42.5666 57.6894   3
  -1   1 -14 32.0311 38.0432   2
  -1   1 -14-30.6388 45.6898  16
  -1  -1 -14 19.5546 48.3066   3
  -1  -1 -14-26.4642 50.4816   2
   1  -1  14 8.18412 43.0159   1
   1  -1  15-50.2955 57.0960   1
   1  -1  15 67.4981 83.9559  15
  -1   1 -15 9.52223 50.1739   2
   1   1  15-4.94096 42.2039  15
   1  -1  15 51.7521 55.6606  14
  -1  -1 -15-50.8357 113.739  16
  -1  -1 -15-46.3089 75.0767   3
  -1   1 -15 13.8191 49.1588  16
  -1   1 -15-27.5851 55.6971   3
   1   1  15-18.1267 51.6367  14
  -1  -2  16-45.0414 85.9836  15
   1   2 -16-279.805 91.5809   2
   1   2 -16-301.843 105.568  13
  -1  -2  16 100.237 80.0151   1
  -1  -2  16-94.5750 80.6333  14
   1   2 -16 235.372 102.697  16
  -1  -2  15 153.345 72.6309   1
  -1  -2  15 137.422 78.0671   4
  -1  -2  15-52.3822 52.4786  14
  -1  -2  15 41.6589 80.0648  15
   1   2 -15 81.5843 97.4149   3
  -1  -2  14-25.8125 37.2407  14
   1   2 -14-25.3101 44.5006   2
   1   2 -14-5.51547 38.7562  13
   1   2 -14 37.6624 47.0193  16
   1   2 -14 146.725 63.3896   3
  -1  -2  14-27.9470 42.2285  15
  -1  -2  14-24.7419 40.1889   1
  -1  -2  14 22.2663 37.5215   4
  -1  -2  13 30.2612 34.0686  14
  -1  -2  13 50.2234 47.5888  15
   1   2 -13-5.14796 41.8560  16
   1   2 -13 3.49074 35.0637  13
   1   2 -13-0.92858 36.9394   3
  -1  -2  13-12.6980 40.3578   1
   1   2 -13 15.0259 39.4701   2
  -1  -2  13 103.033 47.0872   4
  -1  -2  12 22.6658 34.8854   4
   1   2 -12-5.47454 32.4120  16
  -1  -2  12-48.6702 36.5865  14
   1   2 -12 9.04277 32.2676   3
   1   2 -12 22.5054 38.8673   2
  -1  -2  12 1.38378 36.0587  15
  -1  -2  12-23.4280 35.8936   1
   1   2 -12-6.43748 32.8019  13
  -1  -2  11 110.292 48.7089  15
  -1  -2  11 147.719 46.4277   4
   1   2 -11 179.651 56.7761  16
  -1  -2  11 93.5810 43.3522   1
   1   2 -11 147.526 44.2626   3
   1   2 -11 161.095 50.8159   2
   1   2 -11-0.85377 44.3311  13
  -1  -2  11 126.296 42.1067  14
  -1  -2  10-34.9993 32.5926   4
   1   2 -10-6.08860 26.2072  13
   1   2 -10 14.5360 27.4876  16
   1   2 -10 43.3996 33.8015   2
   1   2 -10-17.9037 27.3335   3
  -1  -2  10-8.22927 18.7872   5
  -1  -2  10-26.6554 31.7543  14
  -1  -2  10-1.48057 29.3524   1
  -1  -2  10-3.61658 33.5904  15
   1   2  -9 772.675 86.3479  13
  -1  -2   9 688.030 78.1594  15
   1   2  -9 751.611 70.4978  12
  -1  -2   9 697.131 71.7659  14
  -1  -2   9 702.872 77.7063   4
   1   2  -9 682.418 83.2657  16
  -1  -2   9 775.259 64.7997   5
   1   2  -9 747.250 76.5956   3
   1   2  -9 693.440 82.2532   2
  -1  -2   9 707.383 78.6653   1
  -1  -2   8 12.5944 18.1117  14
  -1  -2   8-33.6077 26.0811   4
   1   2  -8 24.3064 24.0168  13
  -1  -2   8-0.68354 21.3947   1
   1   2  -8 36.9195 22.4014  12
   1   2  -8-6.45589 20.9021  16
   1   2  -8 24.0774 23.9458   3
   1   2  -8 33.8843 25.5649   2
  -1  -2   8-12.4972 23.2988  15
  -1  -2   8-27.0196 20.8922   5
   1   2  -7-10.2612 9.89699  10
  -1  -2   7 3.92539 17.9437  15
   1   2  -7 17.7183 17.4348  12
   1   2  -7-25.1688 22.7619  13
  -1  -2   7 13.1449 15.2900  14
   1   2  -7-18.7465 24.3157   2
   1   2  -7-27.6986 18.3679   3
  -1  -2   7 2.71301 18.6500   1
   1   2  -7 18.8161 21.5528  16
  -1  -2   7-18.1456 17.5065   5
  -1  -2   7-12.5406 9.02909   8
  -1  -2   7-11.1541 18.2266   4
  -1  -2   6 250.870 40.8078   1
  -1  -2   6 215.339 32.5227  14
   1   2  -6 187.629 33.0226   3
  -1  -2   6 277.998 43.7866  15
   1   2  -6 189.820 40.5198  13
   1   2  -6 250.704 40.8459  12
   1   2  -6 166.438 37.0345  16
  -1  -2   6 222.307 37.4766   5
   1   2  -6 192.929 22.5935  10
  -1  -2   6 220.263 23.8144   8
   1   2  -6 205.539 38.9484   2
  -1  -2   6 204.242 41.0868   4
  -1  -2   5 2585.49 107.022  15
   1   2  -5 2625.21 91.0372   3
   1   2  -5 2613.98 120.097  13
   1   2  -5 2690.77 111.276  12
  -1  -2   5 2739.66 108.470   5
  -1  -2   5 2500.37 106.409   1
   1   2  -5 2468.70 112.832  16
  -1  -2   5 2616.61 75.0219   8
  -1  -2   5 2588.36 115.874   4
   1   2  -5 2674.74 116.452   2
  -1  -2   5 2648.29 90.2662  14
   1   2  -4 1593.66 83.2556  16
   1   2  -4 1666.08 89.8631  13
  -1  -2   4 1490.93 73.8952   1
  -1  -2   4 1508.61 75.3082  15
   1   2  -4 1538.01 58.8676   3
   1   2  -4 1563.09 82.0916  12
  -1  -2   4 1484.68 77.9746   5
  -1  -2   4 1479.15 84.1836   4
   1   2  -4 1520.12 79.0978   2
  -1  -2   4 1502.37 60.2513   8
  -1  -2   3 4362.73 113.527   7
  -1  -2   3 4187.85 109.002   1
   1   2  -3 4385.22 133.221  13
   1   2  -3 4237.17 112.514   9
   1   2  -3 4252.80 129.344  12
   1   2  -3 4156.13 78.4281   3
  -1  -2   3 4493.06 132.490   5
   1   2  -3 4266.94 122.489  16
   1   2  -3 4214.07 73.3584   6
  -1  -2   3 4269.43 107.882   8
  -1  -2   3 4209.72 129.994   4
   1   2  -3 4273.63 116.888   2
  -1  -2   3 4104.43 110.721  15
   1   2  -2 1935.26 83.5773  13
   1   2  -2 1845.00 82.0188  12
  -1  -2   2 2011.88 88.6530   5
  -1  -2   2 1930.93 77.8566   7
  -1  -2   2 1871.84 64.4354   1
   1   2  -2 1933.63 76.5006   9
  -1  -2   2 1916.81 75.9409   8
  -1  -2   2 1966.98 82.3944   4
   1   2  -2 1948.08 69.0828   2
  -1  -2   1 1147.35 62.6632   7
   1   2  -1 1272.74 65.5329  13
  -1  -2   1 1240.17 68.0350   5
   1   2  -1 1207.90 64.4299  12
   1   2  -1 1162.07 60.4512   9
  -1  -2   1 1200.29 60.8436   4
  -1  -2   1 1183.78 62.6492   8
  -1  -2   0 1361.22 71.0929   7
   1   2   0 1357.66 66.7811  12
  -1  -2   0 1449.59 71.4649   5
  -1  -2   0 1352.60 65.5704   6
   1   2   0 1356.88 67.2006   9
  -1  -2   0 1428.03 71.3432   8
   1   2   1 2705.39 98.2704   9
  -1  -2  -1 2640.93 98.1397   6
  -1  -2  -1 2734.28 95.0543   5
  -1  -2  -1 2621.50 98.9991   8
  -1  -2  -1 2739.09 104.235   7
  -1  -2  -2 404.485 42.6333   7
  -1  -2  -2 369.633 34.7718   5
  -1  -2  -2 342.632 37.6427   3
  -1  -2  -2 373.506 40.5429   6
   1   2   2 381.750 38.5053   9
  -1  -2  -2 365.349 39.3841   8
  -1  -2  -3 2572.02 107.898   7
   1   2   3 2489.87 77.9020  15
  -1  -2  -3 2581.66 106.451   3
  -1  -2  -3 2587.35 112.000   6
  -1  -2  -3 2524.61 83.4343   5
   1   2   3 2507.06 102.112   9
  -1  -2  -3 2563.00 87.0673  16
  -1  -2  -3 2384.34 100.512   8
   1   2   4 4241.96 115.208  15
  -1  -2  -4 4364.04 150.023   3
  -1  -2  -4 4183.68 152.776   6
  -1  -2  -4 4347.42 103.807   5
   1   2   4 4359.75 141.429   9
  -1  -2  -4 4166.16 136.383   8
  -1  -2  -4 4189.74 124.533  16
  -1  -2  -4 4016.68 139.903   7
  -1  -2  -5 1095.08 87.3074   6
  -1  -2  -5 1063.54 83.5500   3
  -1  -2  -5 1092.18 50.7610   5
  -1  -2  -5 994.418 69.0680  16
   1   2   5 1029.64 66.1303  15
  -1  -2  -5 1108.02 75.8956   8
   1   2   6 1295.28 79.4468  15
  -1  -2  -6 1401.80 85.8898   8
  -1  -2  -6 1409.18 102.323   6
  -1  -2  -6 1286.51 96.9020   3
  -1  -2  -6 1341.91 51.2430   5
  -1  -2  -6 1245.29 83.7940  16
   1   2   7 392.224 49.9040  15
  -1  -2  -7 451.105 66.0678   6
  -1  -2  -7 411.342 61.5605   3
  -1  -2  -7 352.288 50.4607  16
   1   2   7 425.449 61.7193  14
  -1  -2  -7 384.794 47.9826   8
   1   2   8 1291.95 94.4382  15
  -1  -2  -8 1202.30 108.498   3
  -1  -2  -8 972.184 60.9807  13
  -1   2  -8 1035.67 131.752   6
  -1   2  -8 822.207 113.752   3
   1  -2   8 1079.07 125.325   1
   1  -2   8 1064.40 132.417  14
  -1  -2  -8 1320.20 87.4011   8
   1  -2   8 1032.19 103.634   4
  -1  -2  -8 1476.81 118.989   6
  -1   2  -8 897.276 111.515   2
   1   2   8 1314.41 109.772  14
  -1  -2  -8 1207.56 101.201  16
  -1  -2  -9 81.8300 39.3738  16
   1   2   9 77.3726 36.4662  15
  -1  -2  -9 23.7129 16.4225  13
   1   2   9 46.7222 32.1103  14
   1  -2   9 146.392 52.4018  14
  -1  -2  -9 58.3328 33.0177   3
  -1   2  -9 115.996 49.7298   6
  -1   2  -9 115.803 51.6451   3
  -1  -2  -9 20.0155 29.1323   6
  -1   2  -9 87.9621 49.6477   2
   1  -2   9 112.265 41.9846   4
   1  -2   9 35.2204 38.1353   1
  -1  -2  -9 118.661 33.7082   8
   1   2  10 133.205 43.7652  11
   1  -2  10 148.735 45.9373   4
   1  -2  10 88.1582 49.1980  14
  -1  -2 -10 96.5772 43.2344   6
  -1  -2 -10 64.6526 37.2071   3
   1  -2  10 167.036 60.7995   1
   1   2  10 160.461 41.2731  10
  -1   2 -10 123.325 57.9801   2
  -1   2 -10 189.493 56.4933   6
  -1   2 -10 170.118 62.4668   3
  -1  -2 -10 63.2804 36.6422  16
   1   2  10 130.723 49.0472  14
   1   2  10 146.447 43.7355  15
  -1  -2 -10 122.096 34.2019   8
  -1  -2 -11 486.584 86.0109  16
   1   2  11 50.9146 78.7920  15
  -1  -2 -11 657.484 108.843   3
  -1   2 -11 422.780 75.9825   6
   1  -2  11 320.386 82.2611  14
  -1   2 -11 450.650 95.7676   2
   1  -2  11 180.694 49.9473   4
  -1   2 -11 369.962 85.2824   3
   1   2  11 581.722 90.4537  14
   1  -2  11 512.735 97.6404   1
   1   2  11 767.993 97.0263  11
   1   2  12 154.203 54.5275  14
   1   2  12 209.567 65.2309  11
  -1  -2 -12 67.6332 52.0195   3
   1  -2  12 192.424 73.5301   1
   1  -2  12 283.075 83.7302  14
   1   2  12 6.76187 51.3545  15
  -1   2 -12 87.0483 40.7028   6
  -1   2 -12 159.830 76.8803   2
  -1   2 -12 111.764 63.4963   3
  -1  -2 -12 147.777 65.5618  16
  -1   2 -13-162.503 87.9453   2
   1   2  13-39.1969 53.4891  14
   1  -2  13 71.0409 51.7894  14
  -1  -2 -13-91.6089 71.5583  16
  -1   2 -13 20.0777 46.7200   3
   1  -2  13-17.3188 59.5327   1
   1  -2  14-8.82429 55.6913  14
  -1   2 -14-39.9665 56.7838   3
  -1   2 -14-187.051 103.441   2
   1  -2  14-51.1130 89.7191   1
   1   3 -16-51.5144 49.1887   2
  -1  -3  16-9.09445 53.6513  15
   1   3 -16-38.4648 63.8126  13
  -1  -3  16-88.7945 51.7023   1
   1   3 -16 27.8330 58.9152  16
  -1  -3  16 105.485 104.358   4
   1   3 -15-46.8080 50.6506   3
  -1  -3  15-233.165 104.051  14
   1   3 -15-12.6487 51.1628   2
  -1  -3  15-1.04637 53.0810  15
   1   3 -15-148.440 68.1858  13
  -1  -3  15-33.5793 56.7863   1
  -1  -3  15-55.8915 56.5298   4
  -1  -3  14-2.63273 43.0073   4
  -1  -3  14 51.6120 58.7142  15
  -1  -3  14-49.8907 54.6676   1
  -1  -3  14 13.2208 40.3140  14
   1   3 -14-20.5710 46.3927   3
   1   3 -14-36.2873 70.6227  13
   1   3 -14-22.9350 47.8025   2
   1   3 -14-0.56461 54.6919  16
   1   3 -13 26.9280 46.9105   2
  -1  -3  13 92.8840 54.1066   4
   1   3 -13 90.7811 51.5241   3
  -1  -3  13 70.3672 49.3453  14
   1   3 -13 24.3696 50.0947  13
  -1  -3  13 127.159 57.4958   1
  -1  -3  13 75.7756 53.2047  15
   1   3 -13-6.68391 45.4305  16
  -1  -3  12 140.521 50.6318   4
  -1  -3  12 84.1303 44.3745  14
   1   3 -12 2.48528 41.7212  13
   1   3 -12 25.4309 43.5294   2
   1   3 -12-4.62264 35.5487   3
  -1  -3  12 66.5176 47.3600   1
   1   3 -12 11.7405 47.2327  16
  -1  -3  12 147.807 55.3811  15
  -1  -3  11 236.877 62.0917   1
  -1  -3  11 106.094 46.1054   4
  -1  -3  11 214.872 64.0183  15
  -1  -3  11 156.805 42.6168   5
   1   3 -11 4.51344 52.0599  13
   1   3 -11 11.3693 40.8877  16
   1   3 -11 117.694 53.8050   2
   1   3 -11 44.9711 32.8302   3
  -1  -3  11 131.303 49.8672  14
  -1  -3  10-28.1472 35.2842  15
  -1  -3  10 29.9822 30.3238  14
   1   3 -10-6.13660 30.8350  13
  -1  -3  10-25.4675 35.9054   1
  -1  -3  10-4.11615 34.6606   4
   1   3 -10 44.8535 35.9751   2
   1   3 -10 31.1479 29.8973   3
  -1  -3  10 15.2825 23.0633   5
   1   3 -10-20.1642 34.4953  16
  -1  -3   9 439.733 72.3382  15
  -1  -3   9 415.760 72.6599  14
   1   3  -9 579.157 83.6494   2
  -1  -3   8 298.269 26.8910   8
  -1  -3   8 389.438 59.7742  15
  -1  -3   8 375.400 58.2703   1
   1   3  -8 289.903 54.0021  13
   1   3  -8 308.089 26.4658   6
  -1  -3   8 254.130 53.2527   4
  -1  -3   8 416.077 54.5085   5
   1   3  -8 292.119 54.3273   2
   1   3  -8 279.380 45.4143   3
   1   3  -8 291.169 55.3437  16
  -1  -3   7 2292.92 126.966   1
  -1  -3   7 2316.77 126.419  15
   1   3  -7 2086.30 61.1782   6
   1   3  -7 2435.16 140.711  13
   1   3  -7 2246.66 135.037  16
   1   3  -7 2258.25 111.245   3
  -1  -3   7 2457.10 121.753   5
  -1  -3   7 2300.62 78.4168   8
  -1  -3   7 2396.56 136.582   4
   1   3  -7 2346.72 136.259   2
  -1  -3   6 186.467 41.8653   4
   1   3  -6 209.054 42.3625  13
  -1  -3   6 185.621 38.0971   5
  -1  -3   6 178.399 26.5695   8
  -1  -3   6 163.028 35.6556  15
   1   3  -6 162.104 37.2106   2
   1   3  -6 159.619 28.4559   3
  -1  -3   6 167.185 37.0241   1
   1   3  -6 158.471 36.2851  16
  -1  -3   5 505.015 56.5527   1
  -1  -3   5 363.882 47.9611  15
   1   3  -5 532.416 47.3238   3
   1   3  -5 401.117 53.0657  16
  -1  -3   5 583.095 63.8543   5
   1   3  -5 539.020 63.4542  13
  -1  -3   5 649.341 53.8669   8
  -1  -3   5 502.077 65.9035   4
   1   3  -5 450.042 55.5510   2
  -1  -3   4 5.76681 13.4802   1
  -1  -3   4-2.41601 11.8319   8
   1   3  -4 33.3732 19.9252  13
  -1  -3   4 27.0085 18.4394   4
   1   3  -4 5.14557 12.4156   2
  -1  -3   4 21.9711 19.7516   5
  -1  -3   3 3640.72 164.047   5
  -1  -3   3 3556.21 154.864   4
   1   3  -3 3789.00 157.884  13
  -1  -4  15-52.9496 47.0510   1
   1   4 -15 5.02832 36.0669   2
   1   4 -14-79.1662 55.8336   2
  -1  -4  14 31.6799 39.1273   1
   1   4 -13-13.9933 38.1059   2
  -1  -4  13 75.6541 48.6663   1
  -1  -4  13-80.1288 56.0183   4
  -1  -4  13-16.1194 37.6682  15
   1   4 -13-6.50186 38.3505  16
  -1  -4  12-76.0885 51.7008   4
  -1  -4  12-10.5006 33.2337   1
   1   4 -12 14.5213 49.1444  13
   1   4 -12 52.2546 50.4455   3
   1   4 -12 20.4487 38.4468  16
   1   4 -12-16.6864 41.0151   2
  -1  -4  12-12.8357 34.9834  15
   1   4 -11-3.76331 25.2198  16
  -1  -4  11-8.19261 27.5838  15
   1   4 -11 7.91627 38.6425  13
  -1  -4  11-50.1625 39.2970   4
   1   4 -11 28.6372 37.2123   2
   1   4 -11 38.6192 41.5076   3
  -1  -4  11-24.8661 26.5660   5
  -1  -4  11 40.2674 33.5907   1
   1   4 -10 343.968 65.7373  16
  -1  -4  10 218.156 53.3263   1
  -1  -4  10 269.739 58.1436  15
  -1  -4  10 188.139 49.0286   4
   1   4 -10 273.655 62.7449   2
   1   4 -10 42.2950 92.3798  13
   1   4 -10 264.084 57.5820   3
  -1  -4  10 254.564 44.3868   5
  -1  -4   9 6.75613 24.6738   4
   1   4  -9-29.1243 30.9935  13
   1   4  -9 3.04831 26.2639   2
   1   4  -9 25.2170 31.8088   3
  -1  -4   9 31.0085 24.4396   5
  -1  -4   9-22.7907 30.3995   1
   1   4  -8 67.5523 31.4790   2
   1   4  -8 119.880 45.1850  13
  -1  -4   8 11.4894 22.2411   4
   1   4  -8 75.5216 29.9631   3
  -1  -4   8 28.8948 24.5445   1
  -1  -4   8 74.7252 32.7290   5
  -1  -4   7 14.9805 19.1714   4
   1   4  -7-10.1417 27.4662  13
   1   4  -7 31.1263 22.9774   2
   1   4  -7 18.3757 17.4323   3
  -1  -4   7-9.75732 20.0257   1
  -2   0  -2 8649.51 274.867   7
  -2   0  -2 8652.51 264.762   6
  -2   0  -3 71.7787 37.2331   7
  -2   0  -3 92.1139 39.7814   6
  -2   0  -3 106.034 39.2627   3
  -2   0  -3 194.139 54.4608   2
  -2   0  -4 3769.65 158.817   7
   2   0   4 3548.04 119.536   1
  -2   0  -4 3663.58 166.549   6
  -2   0  -4 3446.70 152.759   3
   2   0   4 3333.82 145.055  11
   2   0   4 3730.53 179.964  14
  -2   0  -4 3532.49 126.242   2
   2   0   5 6.49173 17.6932   1
   2   0   5 28.8085 9.93569   4
   2   0   5-20.6126 23.9705  14
  -2   0  -5-1.26610 18.6470   7
  -2   0  -5-22.3040 25.8028   6
   2   0   5 6.06883 22.0016  11
  -2   0  -5 3.37821 14.6726   2
  -2   0  -5 10.8297 18.9498   3
   2   0   6 1393.76 88.6637   1
  -2   0  -6 1255.40 102.512   3
   2   0   6 1316.13 102.266  11
  -2   0  -6 1293.02 107.466   6
   2   0   6 1378.53 110.927  14
  -2   0  -6 1318.89 93.3091   7
   2   0   6 1266.42 46.7897   4
  -2   0  -6 1284.32 87.9991   2
  -2   0  -7-3.72549 24.9398   7
  -2   0  -7-21.3874 28.1506   6
   2   0   7-12.5564 23.7832   1
   2   0   7-9.52966 23.8469  11
  -2   0  -7 46.6243 29.0941   2
   2   0   7 5.49076 26.3075  14
  -2   0  -7 32.0894 31.4223   3
  -2   0  -8 9.89342 24.7363   2
   2   0   8-3.79841 31.1400  14
  -2   0  -8-1.12587 24.7709   7
   2   0   8-32.5664 34.8169  11
   2   0   8-44.6056 29.8542   1
  -2   0  -8-1.97234 29.0269   3
  -2   0  -8 11.1792 34.2114   6
   2   0   9-10.0568 32.5204   1
  -2   0  -9 51.9953 33.6743   7
   2   0   9-36.9074 39.1226  14
  -2   0  -9-9.72199 35.9514   6
  -2   0  -9-45.8096 31.9297   2
  -2   0  -9 4.16531 31.1011   3
   2   0   9-19.6654 29.3217   9
  -2   0 -10 328.303 75.7581   6
  -2   0 -10 342.456 66.1882   2
  -2   0 -10 347.967 79.6901   3
   2   0  10 330.426 70.0862  14
   2   0  10 385.009 66.1515   1
   2   0  11 36.2160 35.9289  14
   2   0  11 27.3408 35.5431   1
  -2   0 -11-35.1478 48.7404   3
  -2   0 -11 47.8080 46.5334   6
  -2   0 -11-35.1467 40.1008   2
   2   0  12 93.7597 50.1699   1
  -2   0 -12 49.9518 54.2974   3
  -2   0 -12 109.782 52.9692   2
   2   0  12 176.071 69.3421  14
  -2   0 -12 44.7321 54.0553   6
  -2   0 -13-31.0187 48.1347   2
   2   0  13 31.7473 51.1306  14
  -2   0 -13 47.9266 49.7688   6
  -2   0 -13 59.5085 53.2027   3
   2   0  13-40.1364 40.2086   1
   2   0  14 539.773 113.386  14
  -2   0 -14 282.635 94.0591   3
  -2   0 -14 317.217 91.2944   6
   2   0  14 208.647 66.2180   1
  -2   0 -14 238.484 88.9296   2
  -2  -1  14 12.1084 54.1163  15
   2   1 -14-11.3741 135.410  16
  -2  -1  13 50.8485 53.0358  14
   2   1 -13 98.5009 73.2504  13
   2   1 -13 7.06358 82.3671  16
  -2  -1  13-0.78663 39.7354  15
   2   1 -13-14.5743 42.2765   2
   2   1 -12 130.354 65.3095   2
   2   1 -12 19.7110 103.538  16
   2   1 -12 5.31100 102.243  13
  -2  -1  12 406.868 80.3652  15
   2   1 -12 244.709 63.0585  12
  -2  -1  12 232.380 61.4135  14
  -2  -1  12 332.554 74.4323   1
   2   1 -11 85.9556 53.5508   2
  -2  -1  11 35.4883 40.3408   1
  -2  -1  11 19.2682 39.6243  15
   2   1 -11-25.0226 38.4245  12
  -2  -1  11 114.796 44.3380  14
   2   1 -11 47.7971 56.1798  13
   2   1 -11-20.9291 51.1471  16
  -2  -1  11 88.0608 56.9649   4
   2   1 -10 108.549 51.3591  16
   2   1 -10 128.061 45.8733   2
  -2  -1  10 34.3816 32.6653  15
  -2  -1  10 95.0998 38.5544  14
   2   1 -10 78.3315 47.6593  13
  -2  -1  10 138.332 45.6434   1
  -2  -1  10 70.7732 41.6604   4
  -2  -1   9 26.9002 32.1951  15
   2   1  -9-2.67910 32.1851  13
   2   1  -9-17.8513 28.7691   2
  -2  -1   9-17.9952 27.1523   1
  -2  -1   9 17.9616 17.2730   7
   2   1  -9-29.8074 33.6097  16
  -2  -1   9 2.59561 20.0798  14
  -2  -1   9 11.7918 26.2817   4
  -2  -1   8 1230.84 97.8594  15
  -2  -1   8 848.441 93.8671   5
   2   1  -8 1192.65 107.024   2
  -2  -1   8 1169.48 100.817   4
  -2  -1   8 1183.54 99.4154   1
  -2  -1   8 1051.94 68.4234   7
   2   1  -8 1172.69 107.242  16
  -2  -1   7 2442.77 132.651   1
  -2  -1   7 2292.04 123.577  15
  -2  -1   7 2314.74 102.690   7
  -2  -1   7 2449.09 136.831   5
   2   1  -7 2257.74 136.553   2
  -2  -1   7 2067.63 125.765   4
   2   1  -7 2018.11 126.786  16
  -2  -1   6 484.198 53.9062  15
  -2  -1   6 533.609 25.7382   6
  -2  -1   6 537.139 62.4935   5
  -2  -1   6 484.627 50.7140   7
   2   1  -6 437.123 55.5540  16
   2   1  -6 473.837 61.2458   2
  -2  -1   6 542.205 61.6510   1
  -2  -1   6 463.120 58.8737   4
   2   1  -5 26.5169 16.4696  16
  -2  -1   5 66.2618 21.0728   7
  -2  -1   5 41.1135 10.6629   6
  -2  -1   5 18.7402 17.0426   5
   2   1  -5 5.62971 16.8460   2
  -2  -1   5 11.9778 18.3547   4
  -2  -1   4 2715.51 113.222   7
  -2  -1   4 2701.91 77.8235   6
  -2  -1   4 2528.77 117.758   5
  -2  -1   4 2676.55 122.460   4
  -2  -1   4 2305.29 122.281   8
  -2  -1   4 2763.16 103.235  15
   2   1  -4 2672.31 110.101  16
  -2  -1   3 1426.54 65.7033  15
  -2  -1   3 1382.62 82.9031   7
  -2  -1   3 1331.09 60.2765   6
  -2  -1   3 1331.32 83.6580   5
   2   1  -3 1610.97 93.5388  10
   2   1  -3 1415.69 71.4362  16
  -2  -1   3 1414.08 84.4981   8
  -2  -1   3 1431.72 84.8315   4
   2   1  -2 48.3744 13.9322  16
  -2  -1   2 43.5052 12.4951  15
  -2  -1   2 37.6140 16.1202   7
  -2  -1   2 31.1383 12.5906   6
  -2  -1   2 70.3499 22.7764   5
   2   1  -2 54.1982 18.9470  10
  -2  -1   2 41.0030 16.0333   8
  -2  -1   2 46.9198 18.5690   4
  -2  -1   1 377.017 43.1981   5
  -2  -1   1 392.006 46.3347   7
  -2  -1   1 362.982 40.1723   6
   2   1  -1 396.047 45.9469  10
  -2  -1   1 349.299 41.9704   8
  -2  -1   0 3114.04 116.941   5
  -2  -1   0 3229.49 119.746   6
  -2  -1   0 3123.52 93.6441   3
  -2  -1   0 3232.00 128.672   7
   2   1   0 3266.72 117.184  11
   2   1   0 3207.20 129.126  10
  -2  -1   0 3201.11 122.981   8
  -2  -1  -1 382.035 45.7994   8
  -2  -1  -1 432.537 39.3149   3
  -2  -1  -1 396.305 42.3820   5
   2   1   1 404.989 43.3648  11
   2   1   1 388.658 45.9409  10
  -2  -1  -1 436.481 51.1654   7
  -2  -1  -1 420.486 48.1191   6
  -2  -1  -1 389.384 19.5255   2
  -2  -1  -2 7.48916 16.2071   7
   2   1   2 14.9117 14.8437  14
   2   1   2-3.43087 6.54028  13
  -2  -1  -2 8.08604 17.6193   6
  -2  -1  -2-10.4672 15.3629   5
   2   1   2-24.0690 18.6877  10
  -2  -1  -2-6.75707 7.52791   2
  -2  -1  -2-15.6181 15.9831   3
   2   1   2-2.48531 7.21562   1
   2   1   2-12.6718 15.5205  11
  -2  -1  -2 7.30037 16.6491   8
  -2  -1  -3 506.264 59.9731   7
   2   1   3 507.382 35.3494   1
   2   1   3 459.200 51.8755  14
  -2  -1  -3 443.935 56.0330   6
  -2  -1  -3 484.511 52.5621   3
  -2  -1  -3 530.021 60.6254   5
   2   1   3 501.984 57.3308  11
   2   1   3 433.325 52.6798  10
  -2  -1  -3 456.340 52.8214   8
  -2  -1  -3 469.868 35.0737   2
  -2  -1  -4 1843.89 109.869   7
  -2  -1  -4 1866.10 117.730   6
  -2  -1  -4 1905.94 109.970   3
   2   1   4 1898.22 108.316  14
   2   1   4 1841.94 78.4005  12
   2   1   4 1884.97 110.335  11
   2   1   4 1892.31 107.155  10
   2   1   4 1907.04 76.5400   1
  -2  -1  -4 1812.97 103.510   8
  -2  -1  -4 1871.19 79.5242   2
   2   1   5 21.5187 23.2171  14
   2   1   5 69.6864 17.8709  12
  -2  -1  -5 70.6719 32.1391   6
  -2  -1  -5 54.1148 19.2008   2
   2   1   5 57.3762 29.0647  11
  -2  -1  -5 82.5255 30.8822   7
   2   1   5 34.7583 19.0033  10
  -2  -1  -5 52.7265 25.4339   3
   2   1   5 40.8693 16.5236  15
  -2  -1  -5 60.2347 25.4316   8
   2   1   5 65.4903 21.0765   1
   2   1   6 55.4411 22.6795  15
  -2  -1  -6-7.67261 29.3562   6
  -2  -1  -6 17.0775 16.3687   2
   2   1   6-12.5613 11.1543  12
   2   1   6 58.9337 29.2508  11
  -2  -1  -6 38.4922 21.6315  16
   2   1   6 68.9759 28.4213  10
   2   1   6 18.2522 18.1501   1
  -2  -1  -6 18.3538 25.6938   3
  -2  -1  -6 13.2264 22.0175   7
  -2  -1  -6 39.0254 23.6002   8
   2   1   6 42.1280 30.0930  14
  -2  -1  -7 839.915 81.5906   7
   2   1   7 772.491 73.5700  15
  -2  -1  -7 819.024 91.9883   6
  -2  -1  -7 807.449 91.3271   3
   2   1   7 805.728 87.4696  14
   2   1   7 772.093 83.9241  11
   2   1   7 826.289 81.1926  10
  -2  -1  -7 717.796 73.1862  16
   2   1   7 823.459 76.1642   9
  -2   1  -7 398.793 94.3002   2
  -2   1  -7 447.863 115.996   3
  -2  -1  -7 783.953 74.8280   8
  -2  -1  -7 658.981 64.5017   2
   2   1   7 738.873 69.4134   1
  -2  -1  -8 484.707 67.0957   7
   2  -1   8 332.673 64.6810   1
   2   1   8 517.572 67.0251  15
   2   1   8 545.042 77.4975  14
   2  -1   8 426.949 96.9551  14
  -2  -1  -8 451.383 79.1835   3
  -2  -1  -8 439.355 65.8380  16
  -2  -1  -8 442.500 74.1087   6
  -2   1  -8 373.848 93.6594   6
   2   1   8 465.803 69.8290  11
   2   1   8 280.498 53.4548  10
   2   1   8 487.518 64.4944   9
  -2   1  -8 300.655 73.3537   2
  -2   1  -8 266.439 92.4351   3
  -2   1  -8 392.597 77.0910   7
  -2  -1  -8 619.745 77.0576   8
  -2  -1  -8 402.340 56.5473   2
   2   1   8 511.857 64.4274   1
  -2  -1  -9-12.5349 43.1116   6
  -2  -1  -9-8.08129 26.7703  16
   2   1   9-23.3543 30.9815   1
  -2  -1  -9-88.4566 41.7891   7
   2  -1   9 150.386 67.6951  14
  -2   1  -9 14.8529 38.4869   7
  -2   1  -9-16.2049 50.5413   6
  -2  -1  -9 22.0359 26.7735   2
   2   1   9-24.9513 32.5696  11
   2  -1   9-37.6951 41.4665   1
   2   1   9 93.7479 42.2931  15
  -2   1  -9 26.1382 46.0415   2
  -2  -1  -9 13.2018 35.2031   3
  -2   1  -9-22.9927 65.2882   3
   2   1   9-11.0743 29.9858   9
  -2  -1  -9 109.458 59.8050   8
   2   1   9 14.0083 31.1348  14
   2   1  10-1.56811 41.1292  15
  -2  -1 -10 189.534 53.5601   2
   2   1  10 100.899 46.9404  14
   2  -1  10 146.218 67.7016  14
  -2  -1 -10 100.687 54.6082   6
  -2   1 -10 178.889 85.5952   6
   2   1  10 14.1658 31.7759  11
  -2  -1 -10 135.075 53.0453   3
  -2   1 -10 111.155 66.7559   2
  -2   1 -10 116.662 78.0878   3
  -2  -1 -10 32.7660 30.4788  16
   2  -1  10 76.4072 41.1755   1
   2   1  10 97.2054 42.6303   1
  -2  -1 -11-30.5622 38.3786  16
   2   1  11 6.98170 33.5643  15
   2  -1  11-45.1390 51.0469  14
  -2  -1 -11 40.2893 34.0721   2
  -2  -1 -11 11.8015 41.2057   6
  -2   1 -11-202.459 97.0240   6
  -2   1 -11 152.306 75.8232   2
  -2  -1 -11-19.9880 40.3904   3
   2   1  11 4.51779 36.7086  11
   2   1  11-51.7664 50.7080  14
   2  -1  11 73.8440 45.4489   1
   2   1  11-10.5583 37.6045   1
  -2   1 -11 39.7578 62.0966   3
  -2  -1 -12 83.4545 51.2879  16
  -2  -1 -12 47.2004 54.5821   3
   2   1  12 60.3898 48.1817  14
   2  -1  12-43.4431 52.8261  14
  -2   1 -12-164.438 90.3400   6
   2   1  12 42.2953 40.7163   1
  -2  -1 -12-37.1796 45.0257   6
   2   1  12 30.3654 43.4324  11
  -2   1 -12 10.5676 92.4445   3
   2   1  12 0.87006 48.9158  15
  -2  -1 -12 14.6007 35.6455   2
  -2  -1 -13 159.777 74.3689   2
  -2  -1 -13-10.1339 55.3887   3
   2   1  13 56.1956 92.9843  14
   2  -1  13 24.4055 49.2373  14
  -2  -1 -13 96.4665 65.0944   6
   2   1  13 15.5918 40.9098   1
   2   1  13 210.791 85.4867  11
  -2   1 -13-137.358 120.241   3
  -2  -1 -13-20.5892 40.4177  16
  -2  -1 -14 94.0353 68.4455   2
   2   1  14 39.6975 48.6434   1
   2   1  14-5.94318 50.5512  14
  -2  -1 -14-23.2403 54.8672   6
   2   1  14-17.2008 53.6100  15
  -2  -1 -14-46.4113 63.0934   3
  -2  -1 -14-20.8791 39.4021  16
   2   2 -16 3.60172 100.086  16
  -2  -2  16-44.2858 67.6553  15
  -2  -2  16-13.4708 52.1199   1
   2   2 -16-16.3211 53.1172   2
   2   2 -16-0.84925 84.1550  13
   2   2 -15-80.8771 61.2172   2
  -2  -2  15 140.725 66.5961   1
   2   2 -15-3.72509 84.8907  16
  -2  -2  15 9.29379 51.0279  15
   2   2 -15 8.83343 54.5018  13
   2   2 -14-4.85433 56.7067  16
  -2  -2  14-99.8265 51.3304   1
   2   2 -14 26.9557 43.6812   2
   2   2 -14-1.88322 48.7947  13
  -2  -2  14 33.7854 48.4094  15
  -2  -2  14-81.7823 51.2254   4
   2   2 -13 150.170 59.9976   2
  -2  -2  13 24.7675 48.8064  15
   2   2 -13 0.43714 51.2685  16
  -2  -2  13 167.027 57.9712  14
   2   2 -13 11.6865 47.1311  13
  -2  -2  13 155.429 54.9375   1
  -2  -2  13 69.1945 50.6835   4
  -2  -2  12 121.063 83.3611  15
  -2  -2  12 542.987 97.5814   1
   2   2 -11-6.29072 35.6335  16
  -2  -2  11 51.3522 46.4960  15
   2   2 -11 39.8814 41.6692   2
  -2  -2  11 34.1548 32.5150  14
   2   2 -11 97.0445 44.1611  13
   2   2 -11 62.5932 38.4152  12
  -2  -2  11 89.6350 42.7199   5
  -2  -2  11 36.3938 35.4693   1
  -2  -2  11-26.1930 39.9393   4
   2   2 -10-0.54167 29.7430  16
  -2  -2  10 34.9901 32.3241  15
   2   2 -10 66.0308 36.2315   2
  -2  -2  10 33.2801 25.3304  14
   2   2 -10 60.1676 36.9310  13
   2   2 -10 35.6573 32.5459  12
  -2  -2  10 40.0436 31.5305   5
  -2  -2  10 11.9208 29.9478   4
  -2  -2  10 43.9423 32.4394   1
  -2  -2   9 207.460 50.4094   4
  -2  -2   9 284.159 53.1718  15
   2   2  -9 253.578 52.0223   2
   2   2  -9 270.418 57.7357  13
  -2  -2   9 241.393 39.2806  14
   2   2  -9 295.922 52.8804  12
  -2  -2   9 184.297 43.3273   5
   2   2  -9 135.199 36.9091  16
  -2  -2   9 248.721 48.6303   1
   2   2  -8 206.158 48.2924  16
  -2  -2   8 186.374 33.3066   7
  -2  -2   8 267.848 49.8408  15
  -2  -2   8 198.592 46.4930   4
   2   2  -8 193.161 44.8401   2
   2   2  -8 203.996 47.2695  13
   2   2  -8 241.243 48.6713  12
  -2  -2   8 238.015 44.6774   5
  -2  -2   8 155.855 28.1588  14
   2   2  -8 192.563 33.4439   9
  -2  -2   8 261.355 48.5588   1
   2   2  -7 126.988 33.6263  16
  -2  -2   7 184.769 42.6280   4
  -2  -2   7 163.232 35.3499  15
   2   2  -7 234.945 43.4904   2
   2   2  -7 6.26216 45.9951  13
   2   2  -7 163.519 38.1285  12
  -2  -2   7 166.617 26.2406  14
  -2  -2   7 192.736 40.4813   5
   2   2  -7 142.343 27.5368   9
  -2  -2   7 198.098 33.2027   7
  -2  -2   7 235.687 41.3859   1
   2   2  -6 160.214 33.3098  16
  -2  -2   6 84.6616 24.9030  15
   2   2  -6 122.863 29.7279   2
  -2  -2   6 158.392 20.9662  14
   2   2  -6 9.95173 38.9317  13
  -2  -2   6 156.131 36.4629   5
   2   2  -6 180.362 39.6592  12
  -2  -2   6 156.824 32.1908   1
   2   2  -6 135.703 29.0260  10
   2   2  -6 139.648 27.6365   9
  -2  -2   6 180.133 40.8969   4
  -2  -2   6 155.666 28.7932   8
  -2  -2   6 91.9767 27.0266   7
   2   2  -5 156.411 29.2204  16
  -2  -2   5 171.897 37.8124   4
  -2  -2   5 165.241 28.3321  15
  -2  -2   5 151.635 32.4984   7
   2   2  -5 155.345 29.5532   2
   2   2  -5 189.717 37.3135  13
   2   2  -5 139.607 33.0362  12
   2   2  -5 164.812 31.1201  10
  -2  -2   5 193.094 38.0871   5
  -2  -2   5 157.919 17.3651  14
  -2  -2   5 148.673 28.8223   8
  -2  -2   5 153.434 29.0964   1
  -2  -2   4 924.123 73.2935   7
  -2  -2   4 820.938 55.2987  15
   2   2  -4 825.357 70.9630  12
  -2  -2   4 808.492 41.1273   6
   2   2  -4 715.012 53.3098  16
  -2  -2   4 843.885 73.8925   5
   2   2  -4 846.564 67.8705  10
   2   2  -4 741.473 54.5480   2
  -2  -2   4 861.474 65.7484   8
  -2  -2   4 773.054 67.6873   4
  -2  -2   4 796.263 56.4792   1
   2   2  -4 787.768 68.0146  13
  -2  -2   3 91.5161 23.6062   4
   2   2  -3 160.036 31.0768  12
  -2  -2   3 100.146 18.2758  15
  -2  -2   3 116.292 26.6108   7
   2   2  -3 115.407 19.9902   2
   2   2  -3 92.3879 23.2052  13
  -2  -2   3 106.920 18.6084   1
   2   2  -3 129.269 20.0145  11
   2   2  -3 123.459 27.0073  10
  -2  -2   3 130.304 29.6789   5
   2   2  -3 110.554 18.1873  16
  -2  -2   3 147.193 21.5447   6
  -2  -2   3 105.529 24.2518   8
  -2  -2   2 94.7824 21.9242   4
   2   2  -2 88.6560 21.0868  13
   2   2  -2 104.585 25.1379  12
  -2  -2   2 103.835 21.6086   6
   2   2  -2 114.280 16.8186  16
  -2  -2   2 134.640 31.4093   7
   2   2  -2 119.197 21.3585  11
  -2  -2   2 110.626 26.0057   5
  -2  -2   2 90.6915 14.3228  15
   2   2  -2 115.596 26.9135  10
  -2  -2   2 91.4367 26.1791   8
   2   2  -2 104.303 17.3863   2
  -2  -2   1 263.573 21.5306   3
  -2  -2   1 324.884 38.1065   6
   2   2  -1 286.118 35.0757  13
   2   2  -1 266.992 37.6051  12
   2   2  -1 276.739 33.5997  11
  -2  -2   1 242.729 36.1190   5
  -2  -2   1 280.321 43.1621   7
  -2  -2   1 308.600 41.0726   8
  -2  -2   1 252.746 31.9746   4
  -2  -2   0 6808.02 200.703   7
   2   2   0 6320.92 128.729  14
  -2  -2   0 6750.05 178.186   6
  -2  -2   0 6339.62 126.484   3
   2   2   0 6181.38 141.586  13
   2   2   0 6337.22 173.081  12
   2   2   0 6416.19 165.815  11
  -2  -2   0 6673.45 180.760   5
  -2  -2   0 6414.27 182.692   8
  -2  -2   0 6150.35 138.039   4
   2   2   1 943.580 57.5166  14
  -2  -2  -1 976.217 59.2202   3
   2   2   1 994.522 52.9318  13
  -2  -2  -1 1087.42 83.2941   7
   2   2   1 996.326 68.7834  12
   2   2   1 988.602 69.6311  11
  -2  -2  -1 1045.05 69.8746   5
  -2  -2  -1 973.596 74.2543   8
  -2  -2  -1 921.094 47.3602   4
  -2  -2  -1 987.378 74.2405   6
  -2  -2  -2 2958.23 113.077   3
  -2  -2  -2 3309.79 148.863   7
   2   2   2 3053.44 114.858  14
   2   2   2 2907.12 127.528  11
  -2  -2  -2 3064.88 118.776   5
  -2  -2  -2 3052.67 137.386   6
   2   2   2 2965.37 130.693   9
   2   2   2 2840.86 113.109  12
  -2  -2  -2 3048.15 78.8786   4
  -2  -2  -2 3106.02 135.860   8
  -2  -2  -3 3174.08 146.124   7
   2   2   3 2908.01 79.1041  15
   2   2   3 3031.85 125.650  14
  -2  -2  -3 2964.65 142.006   6
  -2  -2  -3 2999.38 124.722   3
   2   2   3 2925.51 110.847  12
   2   2   3 2842.20 131.904  11
  -2  -2  -3 2911.91 110.387   5
   2   2   3 2967.22 132.887   9
  -2  -2  -3 3063.95 136.772   8
   2   2   4 1826.94 74.8218  15
   2   2   4 1915.23 108.592  14
  -2  -2  -4 1931.33 122.472   6
   2   2   4 1925.23 89.6601  12
   2   2   4 1834.56 112.195  11
  -2  -2  -4 1808.50 82.9903   5
  -2  -2  -4 2026.01 119.391   7
   2   2   4 1903.73 111.089  10
   2   2   4 1945.97 110.721   9
  -2  -2  -4 1948.54 110.443   3
  -2  -2  -4 1999.59 113.928   8
  -2  -2  -4 1648.37 74.8428  16
  -2  -2  -5 268.967 36.1521  16
   2   2   5 322.115 38.6254  15
  -2  -2  -5 318.678 51.4893   7
   2   2   5 307.333 48.4052  14
  -2  -2  -5 346.926 58.2664   6
  -2  -2  -5 345.588 53.8318   3
   2   2   5 346.586 51.7169  11
  -2  -2  -5 308.756 35.3937   5
   2   2   5 276.176 45.7073  10
   2   2   5 322.282 48.0945   9
   2   2   5 290.325 35.5769   1
  -2  -2  -5 360.184 54.3544   8
  -2  -2  -5 211.991 41.8308   2
  -2  -2  -6 433.194 61.2076   7
   2   2   6 423.927 46.7988  15
   2   2   6 416.139 59.8466  14
  -2  -2  -6 429.124 68.2729   6
  -2  -2  -6 477.173 67.5592   3
   2   2   6 371.146 57.0021  11
   2   2   6 382.184 53.7418  10
  -2  -2  -6 393.847 49.6827  16
   2   2   6 422.158 57.4703   9
  -2  -2  -6 365.392 51.2639   2
  -2  -2  -6 478.558 60.9048   8
   2   2   6 471.039 50.7815   1
  -2  -2  -7 1376.39 108.349   7
   2   2   7 1288.54 86.3055  15
  -2  -2  -7 1431.89 123.752   6
  -2  -2  -7 1464.06 119.875   3
   2   2   7 1355.08 110.356  11
   2   2   7 1250.60 95.5901  10
   2   2   7 1419.82 102.733   9
   2   2   7 1350.53 111.618  14
  -2  -2  -7 1216.21 97.7529   2
  -2  -2  -7 1333.04 99.5899   8
   2   2   7 1335.23 92.1836   1
  -2  -2  -7 1134.10 87.1442  16
  -2  -2  -8 988.732 97.4213   7
   2   2   8 813.507 76.5761  15
   2   2   8 853.607 97.7332  14
  -2  -2  -8 921.205 108.709   6
  -2  -2  -8 800.421 104.449   3
   2   2   8 832.257 92.0151  11
   2   2   8 860.030 82.5418  10
   2   2   8 1067.44 97.9234   9
  -2  -2  -8 726.969 84.0713   2
  -2  -2  -8 908.984 86.3753   8
   2   2   8 884.944 82.4109   1
  -2  -2  -8 773.590 78.6647  16
   2   2   9 65.2164 37.0421  15
  -2  -2  -9 23.2715 30.8532  16
  -2  -2  -9 26.1566 29.5515   7
   2   2   9 64.8385 42.4857  14
   2   2   9 40.3163 32.3570   1
  -2  -2  -9 52.3055 52.4320   6
  -2  -2  -9 81.7339 53.6198   3
   2   2   9 54.7020 41.2967  11
   2   2   9 84.0675 36.6406  10
   2   2   9 66.0271 32.2084   9
  -2  -2  -9 80.4459 41.6730   8
  -2  -2  -9 53.7241 39.0258   2
   2   2  10-5.07482 31.7376   1
   2   2  10-38.4831 40.5502  14
  -2  -2 -10 5.47218 40.2529   6
  -2  -2 -10 16.0822 40.9829   3
   2   2  10 35.6830 35.2452  11
  -2  -2 -10 11.8026 29.7328  16
   2   2  10 23.4958 36.4013  10
  -2  -2 -10 133.456 52.5165   8
   2   2  10-5.40278 30.2500  15
  -2  -2 -10 66.2057 45.7824   2
  -2  -2 -11-7.49507 34.0179  16
   2   2  11 0.50664 34.3885  15
  -2  -2 -11 7.29886 39.2782   6
   2   2  11-3.54213 40.1483  14
  -2  -2 -11 14.7471 42.2044   3
   2   2  11 82.6309 54.3204  11
  -2  -2 -12-3.17145 39.5595  16
   2   2  12-2.51119 43.3729  14
  -2  -2 -12 39.3032 53.3893   3
   2   2  12 17.5384 48.3725  11
  -2  -2 -12-53.5758 59.5871   6
   2   2  12 9.07030 44.0049  15
  -2  -2 -13-12.5242 50.1945  16
   2   2  13-149.229 78.4343  14
  -2  -2 -13-56.0371 65.6778   3
  -2  -2 -13 18.3744 51.1611   6
   2   2  13-65.5591 67.9591  11
   2   2  14 7.58437 53.1087  14
  -2  -2 -14 6.40377 39.9507   6
  -2  -2 -14-65.3764 61.8705   3
   2   2  14 28.6354 65.6401  11
   2   3 -15 31.8231 67.1447  16
   2   3 -15-25.1224 50.3757   2
  -2  -3  15-0.70239 50.5159  15
   2   3 -15 17.2280 57.0657  13
  -2  -3  15 19.7951 48.0213   1
  -2  -3  15 28.4805 54.0432   4
   2   3 -14-14.1076 46.1997  16
   2   3 -14 0.26764 54.0997  13
  -2  -3  14 23.3387 46.6404  15
  -2  -3  14-82.9970 53.6827   1
   2   3 -14 45.3606 46.3956   2
  -2  -3  14-12.7694 46.3791   4
  -2  -3  13 54.2094 45.5326   4
   2   3 -13-2.94260 41.5748  16
   2   3 -13 23.0840 35.7909   2
  -2  -3  13-16.1627 43.3124  15
   2   3 -13-0.48605 40.0662  13
  -2  -3  13-27.1720 40.6378   1
  -2  -3  12 75.1276 44.6775   1
  -2  -3  12-1.74037 36.7820   4
  -2  -3  12-11.7941 32.0270   5
   2   3 -12 0.81917 39.4581  16
   2   3 -12-5.22890 51.4666  13
   2   3 -12 23.0152 35.6238   2
  -2  -3  12 16.6800 40.5082  15
   2   3 -11 43.8336 65.9837  16
  -2  -3  11 277.437 64.5388   4
  -2  -3  11 163.360 68.6910  15
  -2  -3  11 262.112 61.6132   1
  -2  -3  11 323.050 59.1120  14
   2   3 -11 84.2523 51.6356   2
   2   3 -11 37.2621 71.3695  13
   2   3 -11 277.066 61.3174  12
  -2  -3  11 213.337 48.6018   5
   2   3 -10-17.8157 33.7032  16
  -2  -3  10-33.7727 35.2590   4
  -2  -3  10-9.49180 23.2613  14
  -2  -3  10 54.3033 34.9926   1
   2   3 -10 42.4648 36.4078  13
   2   3 -10-5.47038 22.2950   3
  -2  -3  10-59.6377 35.4594  15
   2   3 -10-9.05813 28.2675  12
  -2  -3  10 14.7982 27.2263   5
   2   3 -10 2.62479 29.6006   2
  -2  -3   9 139.942 49.7534   4
  -2  -3   9 39.9947 41.8883  15
  -2  -3   9 104.971 38.0558  14
   2   3  -9 2.73198 39.5077  13
   2   3  -9 37.7047 24.8707   3
   2   3  -9 51.4544 44.7973   2
  -2  -3   9 16.5919 26.9811   1
   2   3  -9 76.1509 32.9896  12
   2   3  -9 79.5531 35.4537  16
  -2  -3   9 109.670 38.7662   5
   2   3  -8 46.1520 27.1766  16
  -2  -3   8 47.5001 28.7107  15
   2   3  -8 2.48207 24.7413  13
   2   3  -8 20.9384 17.5974   3
   2   3  -8 3.98795 24.9024   2
   2   3  -8-29.5796 26.4577  12
  -2  -3   8-10.9795 26.5998   4
  -2  -3   8-33.0905 31.9675   1
   2   3  -8 32.8336 21.1720  10
  -2  -3   8 14.9755 28.9947   5
  -2  -3   8 16.9100 16.7494   8
   2   3  -7 705.972 73.5728  16
   2   3  -7 601.955 56.3884   3
   2   3  -7 842.457 85.6301  12
  -2  -3   7 894.761 85.1486   5
   2   3  -7 805.599 66.7845  10
  -2  -3   7 885.972 65.5233   8
  -2  -3   7 739.545 81.7924   4
  -2  -3   7 794.923 73.4823   1
   2   3  -6 42.5949 19.0773  16
  -2  -3   6 60.4702 25.1556   7
  -2  -3   6 72.0647 30.4962  15
  -2  -3   6 79.8058 33.4960   4
   2   3  -6 11.4961 33.8910  13
   2   3  -6 102.119 34.3375  12
   2   3  -6 27.1333 31.1780   2
   2   3  -6 67.6914 23.1646  10
  -2  -3   6 111.300 34.6286   5
   2   3  -6 65.2344 24.9731   9
  -2  -3   6 102.106 27.2746   8
  -2  -3   6 96.0377 30.1295   1
   2   3  -5 2455.44 120.074  16
   2   3  -5 2558.38 137.121  12
  -2  -3   5 2714.52 136.559   5
  -2  -3   5 2604.29 111.238   1
   2   3  -5 2495.40 115.986   9
  -2  -3   5 2619.04 114.001   8
  -2  -3   5 2481.51 130.354   4
   2   3  -4-11.5306 13.6300  16
  -2  -3   4 20.2699 20.4907   7
  -2  -3   4 9.18815 14.4434  15
  -2  -3   4 2.94030 17.2449   4
  -2  -3   4-5.44225 15.9936   1
   2   3  -4-23.2661 18.1177  13
   2   3  -4-16.9547 19.2311  12
   2   3  -4 1.58195 11.1991  11
   2   3  -4 0.28767 14.3921   2
   2   3  -4 21.3823 19.2078   9
  -2  -3   4 30.5236 21.5817   5
  -2  -3   4 1.19901 15.5568   8
  -2  -3   3 108.580 26.6352   7
  -2  -3   3 103.507 26.9254   4
   2   3  -3 82.0899 24.2669  13
   2   3  -3 122.798 32.1671  12
  -2  -3   3 91.0196 18.6948   1
   2   3  -3 120.804 22.8510   2
   2   3  -3 94.3918 25.9734   9
  -2  -3   3 100.611 28.9815   5
  -2  -3   3 87.3956 24.8447   8
  -2  -3   2 163.339 35.4544   8
  -2  -3   2 200.250 24.0587   1
  -2  -3   2 164.404 37.5936   7
  -2  -3   2 165.748 33.7104   4
  -2  -3   2 122.310 28.5018   6
   2   3  -2 176.677 34.0602  13
   2   3  -2 183.758 37.8409  12
   2   3  -2 143.688 20.0059   2
   2   3  -2 207.356 41.2687   9
  -2  -3   2 117.663 36.6944   5
   2   3  -1 2061.53 58.1099  14
  -2  -3   1 2338.14 104.851   6
   2   3  -1 2241.57 107.659  13
   2   3  -1 2165.73 114.953  12
  -2  -3   1 2298.89 118.990   5
  -2  -3   1 2405.78 123.464   7
  -2  -3   1 2211.36 53.9966   1
   2   3  -1 2114.82 111.175   9
  -2  -3   1 2263.20 116.316   8
  -2  -3   1 2299.89 100.722   4
   2   3  -1 2125.23 57.2875   2
  -2  -3   0 414.206 57.4174   7
   2   3   0 371.956 33.6170  14
  -2  -3   0 372.294 47.6687   6
   2   3   0 431.115 53.9289  12
  -2  -3   0 418.408 52.9244   5
   2   3   0 399.243 52.3600   9
  -2  -3   0 382.317 53.2260   8
  -2  -3   0 441.810 45.9088   4
  -2  -3  -1 16.8826 18.1119   8
   2   3   1 41.5759 14.3081  14
  -2  -3  -1 30.9724 16.7018   6
   2   3   1 23.2390 15.7645  12
  -2  -3  -1-0.54221 17.3809   4
   2   3   1 20.4391 18.7894   9
  -2  -3  -1 4.39405 21.4216   5
  -2  -3  -1 16.9012 21.8048   7
  -2  -3  -2 442.563 60.5690   7
   2   3   2 351.456 19.4307  15
   2   3   2 406.698 43.0276  14
  -2  -3  -2 402.529 54.0894   6
   2   3   2 439.855 51.4750  12
  -2  -3  -2 463.220 50.9894   5
   2   3   2 431.349 54.9376   9
  -2  -3  -2 430.592 55.4975   8
  -2  -3  -2 416.442 33.2205   4
  -2  -3  -2 323.476 18.6808  16
  -2  -3  -3 3.08271 21.4681   8
  -2  -3  -3-14.0677 10.8560  16
   2   3   3 28.4356 11.6908  15
  -2  -3  -3 2.82496 20.0835   7
  -2  -3  -3-34.9086 26.1311   3
  -2  -3  -3-2.98097 8.52123   4
   2   3   3 24.0990 18.7953  14
  -2  -3  -3 6.78495 22.3552   6
   2   3   3 58.6405 27.4713   9
  -2  -3  -3 32.6552 19.3684   5
   2   3   4 954.125 51.3181  15
   2   3   4 1005.44 80.0864  14
  -2  -3  -4 1184.79 93.7187   3
  -2  -3  -4 970.754 90.3583   6
  -2  -3  -4 1060.67 72.0882   5
   2   3   4 993.638 84.2245   9
  -2  -3  -4 1033.21 88.5547   8
  -2  -3  -4 1164.41 97.3200   7
  -2  -3  -4 827.564 49.7077  16
  -2  -3  -5 72.6939 20.7350  16
  -2  -3  -5 91.8152 36.1279   7
   2   3   5 34.2465 17.6725  15
   2   3   5 140.808 38.7978  14
  -2  -3  -5 96.9715 40.4518   6
  -2  -3  -5 99.6670 36.8961   3
  -2  -3  -5 123.318 33.0753   5
   2   3   5 81.5420 31.1381   9
  -2  -3  -5 68.2371 35.4426   8
  -2  -3  -6 61.3139 22.5397  16
  -2  -3  -6 91.9713 36.6394   7
   2   3   6 88.1236 27.1599  15
   2   3   6 126.610 38.9916  14
  -2  -3  -6 63.5388 35.3864   6
  -2  -3  -6 117.953 42.6820   3
  -2  -3  -6 118.134 29.7106   5
   2   3   6 119.729 39.3302   9
  -2  -3  -6 124.570 44.0868   8
  -2  -3  -7 180.681 47.5909   7
   2   3   7 475.397 54.8259  15
   2   3   7 474.843 72.4054  14
  -2  -3  -7 480.411 77.7907   6
  -2  -3  -7 569.899 80.8969   3
  -2  -3  -7 577.359 74.8144   8
  -2  -3  -7 363.671 49.2888  16
  -2  -3  -8 35.8785 29.0666  16
   2   3   8 61.8123 46.7018  15
   2   3   8 14.1373 29.0054  14
  -2  -3  -8-60.3476 46.2938   6
  -2  -3  -8-28.4614 35.8977   3
   2   3   8 19.7461 30.5577  11
  -2  -3  -8-10.6546 32.2265   8
  -2  -3  -9 98.0218 36.7842  16
   2   3   9 131.334 39.3139  15
   2   3   9 142.661 48.8326  14
  -2  -3  -9 150.965 55.3435   6
  -2  -3  -9 183.210 64.5715   3
   2   3   9 213.582 61.9591  11
   2   3   9 138.940 41.0185  10
  -2  -3  -9 170.199 55.2806   8
   2   3  10 3.11435 31.0230  15
  -2  -3 -10 20.8001 31.7352  16
   2   3  10 23.7412 41.5913  14
  -2  -3 -10 80.3135 60.9663   6
  -2  -3 -10 5.58361 37.3347   3
   2   3  10 79.7970 42.0957  11
   2   3  10 8.48298 32.5306  10
  -2  -3 -10 58.4169 46.7116   8
  -2  -3 -11 191.480 63.1277  16
  -2  -3 -11 415.954 97.2600   6
  -2  -3 -11 540.146 109.423   3
   2   3  12 106.918 52.9572  14
   2   3  12 116.407 58.0239  11
  -2  -4  15-6.62432 52.2312   4
   2   4 -15 33.6258 62.8311  16
  -2  -4  15 5.10085 51.3931  15
   2   4 -15-6.29587 48.9178   2
   2   4 -15-3.60879 69.5824  13
  -2  -4  15-17.1802 49.0031   1
  -2  -4  14 110.908 51.0539   4
   2   4 -14-7.24060 55.5344  16
  -2  -4  14 68.9350 63.5150  15
   2   4 -14 118.194 61.0080   2
   2   4 -14 4.72315 58.7223  13
  -2  -4  14 6.07906 51.1451   1
  -2  -4  13-32.0913 41.8971   4
   2   4 -13 31.2152 66.1667  16
  -2  -4  13 13.0373 41.7717  15
  -2  -4  13 83.5917 50.7896   1
   2   4 -13-8.40085 39.5949   2
   2   4 -13 15.0864 56.7900  13
  -2  -4  12 31.9438 45.8611   4
  -2  -4  12 31.6643 38.4916  15
   2   4 -12 19.0291 60.2442  13
   2   4 -12-7.05368 37.5540   2
  -2  -4  12 83.3859 52.2774   1
   2   4 -12-14.0612 36.6245  16
  -2  -4  12 82.0792 44.0919   5
  -2  -4  11 76.2737 52.8936   4
   2   4 -11-8.38888 47.5883  13
   2   4 -11 2.79485 42.4994   2
  -2  -4  11 29.9590 38.5908  15
   2   4 -11 3.29864 36.7421  16
  -2  -4  11 40.3517 40.5754   1
  -2  -4  11-23.3046 32.3946   5
  -2  -4  10-8.46677 41.0031   4
  -2  -4  10-5.70015 36.0938  15
   2   4 -10-1.45301 40.0174  13
   2   4 -10-14.0450 32.8177   2
  -2  -4  10 20.1829 32.0226   5
   2   4 -10-2.83922 36.1553  16
  -2  -4  10-1.59520 38.2298   1
   2   4  -9 78.0164 36.9592  16
  -2  -4   9 143.161 49.0997   1
  -2  -4   9 172.630 55.5683   4
   2   4  -9 5.12298 40.8644  13
   2   4  -9 39.4928 48.8890   2
  -2  -4   9 20.6022 37.4699  15
  -2  -4   9 164.702 49.9140   5
  -2  -4   8 11.6497 30.0329   4
  -2  -4   8-4.89742 25.1504  15
   2   4  -8-7.99020 28.3401  13
   2   4  -8-10.2820 25.0904  16
  -2  -4   8 29.9116 29.4813   1
   2   4  -8-5.85923 25.2833   2
   2   4  -8 8.75245 19.5836  10
  -2  -4   8-15.6355 30.2895   5
  -2  -4   8-13.7580 18.7655   8
   2   4  -7 30.5945 26.9007  16
  -2  -4   7 1.80009 21.8996  15
  -2  -4   7 26.3188 30.6467   4
   2   4  -7-3.76170 24.0312  13
   2   4  -7 14.3269 25.5317  12
   2   4  -7 42.1394 19.0095   3
   2   4  -7-5.71270 23.6855   2
  -2  -4   7 64.4518 34.6375   5
  -2  -4   7 42.4974 27.1663   1
  -2  -4   7 3.66826 21.6476   8
  -2  -4   6 783.281 72.0514   1
   2   4  -6 810.944 88.3188  12
  -2  -4   6 875.883 87.5631   5
   2   4  -6 750.194 46.8569   3
  -2  -4   6 797.603 70.7070   8
  -2  -4   6 733.456 81.9113   4
  -2  -4   5 459.172 52.8418   1
   2   4  -5 408.935 28.9572   3
   2   4  -5 458.266 65.1986  12
  -2  -4   5 453.654 64.2136   5
  -2  -4   5 493.803 58.1149   8
  -2  -4   5 471.640 64.5308   4
   2   4  -5 315.756 51.4503   2
  -2  -4   4 72.1462 29.4983   8
  -2  -4   4 54.4217 26.6604   4
  -2  -4   4 46.4663 21.3159   1
   2   4  -4 13.4125 31.3608  13
   2   4  -4 110.660 37.3170  12
   2   4  -4 68.6939 27.9725   2
  -2  -4   4 114.172 37.9373   5
  -2  -4   3 44.3315 27.1504   8
  -2  -4   3 20.8732 14.5608   7
  -2  -4   3 42.2189 25.1716   4
  -2  -4   3 35.6442 17.7474   1
   2   4  -3 50.8082 24.8293  13
   2   4  -3 39.8919 25.8745  12
   2   4  -3 21.0752 15.9276   2
  -2  -4   3 39.4451 26.2605   5
  -2  -4   2 346.954 49.8385   7
  -2  -4   2 588.688 48.7690   1
  -2  -4   2 535.667 67.7350   5
   2   4  -2 544.830 66.3398   9
  -2  -4   2 606.682 68.2177   8
  -2  -4   2 607.476 65.4083   4
   2   4  -2 452.269 42.2587   2
  -2  -4   1 132.609 36.5585   8
  -2  -4   1 95.6734 31.6779   7
  -2  -4   1 114.783 32.9307   4
   2   4  -1 160.635 39.9161   9
  -2  -4   1 141.400 38.5005   5
  -2  -4   0 993.884 87.6443   5
   2   4   0 1002.91 88.8197   9
  -2  -4   0 830.444 81.0978   7
  -2  -4   0 991.199 85.6631   8
  -2  -4   0 633.127 64.1921   4
  -2  -4  -1 2.65893 20.0462   8
  -2  -4  -1 42.9913 26.9816   7
   2   4   1 12.0173 20.1493   9
  -2  -4  -1 36.5015 21.7306   5
  -2  -4  -2 62.1051 28.3002   8
  -2  -4  -2 52.4642 25.5366   7
   2   4   2 33.1960 29.1153   9
  -2  -4  -2 55.7358 24.8150   5
  -2  -4  -3 214.870 45.3395   8
  -2  -4  -3 125.735 36.5528   7
  -2  -4  -3 132.681 39.3437   6
  -2  -4  -3 191.451 38.8287   5
  -2  -4  -4 729.920 87.9593   6
  -2  -4  -4 870.276 76.8578   5
  -2  -4  -4 902.163 90.1846   8
  -2  -4  -5 41.1435 33.1291   8
  -2  -4  -5-23.6834 19.6969  16
   2   4   5 25.0419 16.3753  15
  -2  -4  -5 47.8739 35.6987   6
  -2  -4  -5 24.7266 27.6189   5
  -2  -4  -6 60.3456 35.8787   8
  -2  -4  -6 52.2119 22.1143  16
   2   4   6 42.4542 17.9996  15
   2   4   6 91.4531 35.4438  14
  -2  -4  -6 19.3152 24.8318   6
  -2  -4  -6 81.6675 31.3514   5
   2   4   7 31.4042 22.2073  14
  -2  -4  -7-0.32431 30.0354   6
   2   5 -14 56.0069 58.9990   2
  -2  -5  13 16.8255 36.7741   4
   2   5 -13-31.3475 67.3277  13
   2   5 -13-37.4445 53.5216   2
  -2  -5  13-10.0609 52.2710   1
  -2  -5  12 0.39440 35.4971   4
   2   5 -12 20.9259 62.0232  13
   2   5 -12-26.7983 56.9083   2
  -2  -5  12 7.00625 27.9417   5
  -2  -5  12 113.340 56.9212   1
  -2  -5  11-64.2217 57.3356   1
   2   5 -11-15.4982 39.9097  13
   2   5 -11-71.7886 54.9607   2
  -2  -5  11 13.0927 28.9655   5
  -2  -5  11 65.0405 49.3186   4
  -2  -5  10 5.95991 37.6993   4
   2   5 -10-4.01018 36.2923  13
   2   5 -10 6.38535 40.1504   2
  -2  -5  10 67.7592 54.2404   1
  -2  -5  10-19.5075 32.1697   5
  -2  -5   9-31.0745 41.0874   4
   2   5  -9 4.20313 44.3097  13
   2   5  -9 19.0672 50.4224   2
  -2  -5   9 120.717 49.4997   5
  -2  -5   9 72.2876 44.8469   1
  -2  -5   8-40.8747 47.6166   4
  -2  -5   8-16.7335 38.6076   1
   2   5  -8 0.93234 37.4106  13
   2   5  -8 0.40567 38.1543   2
  -2  -5   8-29.5607 47.8069   5
  -2  -5   8-9.47238 23.5686   8
  -2  -5   7 8.60493 32.9651   8
  -2  -5   7 13.5463 37.3521   4
   2   5  -7-5.09066 39.2779  13
   2   5  -7 9.51075 30.1336   2
  -2  -5   7-7.86121 44.6680   5
  -2  -5   7-49.0856 44.8789   1
  -2  -5   6 112.108 53.8751   8
  -2  -5   6 103.437 49.8293   4
  -2  -5   6 82.9646 42.9850   1
   2   5  -6 84.8029 56.8235   2
  -2  -5   6 144.432 69.9586   5
  -3   0  -8 74.8653 69.1336   6
  -3   0  -8 228.069 95.5838   3
  -3   0 -10 365.563 126.033   3
  -3  -1   4 304.831 61.4735   5
  -3  -1   3 234.182 51.7776   7
  -3  -1   3 235.989 53.0605   5
  -3  -1   2 23.5078 30.0588   7
  -3  -1   2 28.9314 26.9751   6
  -3  -1   2-5.22510 22.5539   5
  -3  -1   1 977.329 97.8092   7
  -3  -1   1 1069.87 96.1445   6
   3   1  -1 1015.31 95.6248  10
  -3  -1   1 962.288 98.3531   8
  -3  -1   0 1941.60 136.086   7
  -3  -1   0 2070.35 135.866   6
  -3  -1   0 1698.69 115.406   3
   3   1   0 2056.28 134.529  10
  -3  -1   0 1938.79 131.440   8
  -3  -1  -1 34.8393 32.0953   7
  -3  -1  -1 32.3659 27.8741   6
   3   1   1 36.2670 24.5757  10
  -3  -1  -1 18.0185 23.9826   3
  -3  -1  -1 25.3020 24.7767   8
  -3  -1  -2 149.430 46.3721   7
   3   1   2 214.314 21.7726   1
  -3  -1  -2 233.747 51.5533   6
   3   1   2 209.106 49.9279  10
  -3  -1  -2 216.382 43.4866   3
  -3  -1  -2 182.296 46.4312   8
  -3  -1  -2 208.461 24.0352   2
  -3  -1  -3 2209.67 146.829   7
   3   1   3 2184.76 76.9817   1
  -3  -1  -3 2252.82 130.701   3
  -3  -1  -3 2176.29 147.220   6
   3   1   3 2229.34 147.443  10
  -3  -1  -3 2246.84 147.900   8
  -3  -1  -3 2070.14 77.2707   2
   3   1   4 369.238 38.3687   1
  -3  -1  -4 345.863 62.8511   7
  -3  -1  -4 323.098 66.0013   6
   3   1   4 199.299 49.2257  11
   3   1   4 338.935 59.6909  10
  -3  -1  -4 340.931 57.8699   3
  -3  -1  -4 307.526 59.3004   8
  -3  -1  -4 330.083 38.0867   2
  -3  -1  -5 218.842 56.3181   7
   3   1   5 129.713 54.7558  14
   3   1   5 117.565 28.6685  12
  -3  -1  -5 141.688 53.0256   6
  -3  -1  -5 152.702 31.4915   2
   3   1   5 219.285 53.5829  11
   3   1   5 126.225 42.6808  10
  -3  -1  -5 164.799 49.2915   3
  -3  -1  -5 135.509 48.3022   8
   3   1   6 310.590 70.7645  14
  -3  -1  -6 360.880 68.5993   7
  -3  -1  -6 361.905 50.7970   2
  -3  -1  -6 359.378 73.9010   6
   3   1   6 391.326 70.4322  11
  -3  -1  -6 414.238 72.4678   3
  -3  -1  -7 76.9975 51.0875   7
   3   1   7 50.9393 43.9511  14
  -3  -1  -7 18.6562 25.3126   2
  -3  -1  -7 35.2124 50.5230   6
   3   1   7 102.096 46.0023  11
  -3  -1  -7-10.8151 36.3334   3
  -3  -1  -8 44.9215 41.3090   7
   3   1   8 8.77626 39.1724  14
  -3  -1  -8 40.9933 39.0597   6
   3   1   8 75.1219 44.5353  11
  -3  -1  -8 34.3073 43.0971   3
   3   1   8 94.0313 47.2493   9
  -3  -1  -9-146.773 64.3552   7
   3   1   9-97.1151 57.2821  14
  -3  -1  -9 15.6845 46.3465   6
  -3  -1  -9-23.8728 39.7777   3
   3   1   9-158.425 62.2626   9
   3   1  10 8.49799 45.6750  14
  -3  -1 -10 17.9497 50.6725   6
  -3  -1 -10 53.0178 54.2703   3
   3   1  11 10.2736 47.0294  14
  -3  -1 -11 75.7587 60.1313   6
  -3  -1 -11-7.38598 50.5808   3
   3   1  12 22.2073 54.4945  14
  -3  -1 -12 105.486 81.4337   6
  -3  -1 -12 112.955 71.7573   3
   3   2 -13 12.4900 187.059  13
   3   2 -12-45.6896 76.5010  16
  -3  -2  12-42.6920 62.1074  15
   3   2 -12-4.59150 86.0145  13
   3   2 -12-56.4932 96.0314  12
   3   2 -11-77.4037 59.5101  16
  -3  -2  11-8.91317 48.6414  15
   3   2 -11-2.65490 53.1605  13
   3   2 -11 44.4058 68.2549  12
  -3  -2  11-23.9761 45.8632   4
   3   2 -10 29.3162 34.8199  16
  -3  -2  10-28.3006 46.5975  15
   3   2 -10-2.13638 53.6911  13
   3   2 -10 15.0941 51.1581  12
  -3  -2  10 0.85592 37.9713   4
   3   2  -9-48.6753 33.9790  16
  -3  -2   9 17.4721 37.5325  15
  -3  -2   9-11.1605 31.8240   7
   3   2  -9-5.49082 33.4521  13
   3   2  -9-4.46508 45.5435  12
  -3  -2   9-9.94919 35.1039   5
   3   2  -9-27.9550 43.1933   9
  -3  -2   9-14.4029 36.0401   4
   3   2  -8 167.891 44.6837  16
  -3  -2   8 130.324 47.5376  15
  -3  -2   8 170.029 56.6159   7
   3   2  -8 13.3901 54.9108  13
  -3  -2   8 232.358 57.3204   4
   3   2  -7 139.636 40.5630  16
   3   2  -7-0.22838 53.1616  13
   3   2  -6 1.80262 18.2783  16
  -3  -2   6 19.0438 25.2633  15
  -3  -2   6 12.7083 33.2322   7
   3   2  -6 9.69792 39.5296  13
  -3  -2   6 81.5735 21.9834   6
  -3  -2   6 45.5871 29.3949   5
  -3  -2   6 11.5192 28.2812   4
  -3  -2   5-6.37510 17.2617  15
   3   2  -5 16.6323 15.4485  16
  -3  -2   5-26.3897 27.8848   7
   3   2  -5 6.53061 29.4989  13
  -3  -2   5-42.8983 19.7621   6
  -3  -2   5-15.7561 28.8167   5
   3   2  -5 45.9314 31.6030  10
  -3  -2   5-3.12813 25.4991   8
  -3  -2   5-27.7408 28.0543   4
  -3  -2   4 1377.11 103.574   7
  -3  -2   4 1456.34 82.2904   6
  -3  -2   4 1355.30 105.524   5
   3   2  -4 1030.00 65.7529  16
  -3  -2   4 1392.24 102.279   8
  -3  -2   4 1398.82 106.233   4
   3   2  -3 159.663 24.0350  16
  -3  -2   3 247.543 49.2253   7
   3   2  -3 24.7112 43.5018  13
  -3  -2   3 221.180 37.1347   6
  -3  -2   3 120.681 24.2601  15
  -3  -2   3 253.224 47.7493   5
   3   2  -3 278.610 54.4973  10
  -3  -2   3 226.522 45.0986   8
  -3  -2   3 224.420 43.4925   4
  -3  -2   2 517.618 66.3790   7
  -3  -2   2 551.035 58.6012   6
   3   2  -2 567.936 58.2498  13
  -3  -2   2 500.424 31.2073   3
  -3  -2   2 543.062 67.5254   5
   3   2  -2 593.837 72.5090  10
  -3  -2   2 500.888 61.4267   8
  -3  -2   2 544.234 66.1773   4
   3   2  -2 374.192 29.2315  16
  -3  -2   1 2325.15 137.136   7
  -3  -2   1 2215.30 118.359   6
   3   2  -1 2360.77 109.241  13
  -3  -2   1 2251.82 77.7255   3
  -3  -2   1 2318.70 131.902   5
   3   2  -1 2392.75 140.423  10
  -3  -2   1 2225.64 129.954   8
  -3  -2   0 539.729 70.1531   7
  -3  -2   0 504.927 61.8261   6
   3   2   0 580.134 52.0283  13
  -3  -2   0 572.225 46.4083   3
  -3  -2   0 511.827 63.7268   5
   3   2   0 599.394 67.6917  11
   3   2   0 637.917 75.7355  10
  -3  -2   0 636.674 73.6914   8
  -3  -2  -1 169.063 44.2164   7
   3   2   1 174.760 27.8447  13
  -3  -2  -1 230.398 47.2258   6
   3   2   1 192.623 43.2404  11
  -3  -2  -1 207.369 41.4576   5
   3   2   1 233.090 49.5832  10
  -3  -2  -1 180.484 30.9855   3
  -3  -2  -1 183.765 42.5373   8
  -3  -2  -2 58.5784 34.4024   7
   3   2   2 16.6332 15.9164  13
   3   2   2 72.5789 30.9483  12
  -3  -2  -2 26.8126 28.7909   6
   3   2   2 33.2764 24.9566  11
  -3  -2  -2 19.7344 20.5553   5
   3   2   2 40.6089 27.7242  10
  -3  -2  -2 74.0187 26.8721   3
  -3  -2  -2 38.6083 26.4329   8
  -3  -2  -3 1527.88 127.682   7
   3   2   3 1566.68 116.890  14
  -3  -2  -3 1314.11 111.712   6
  -3  -2  -3 1385.18 96.9558   3
   3   2   3 1382.03 98.6151  12
  -3  -2  -3 1291.83 98.6516   5
   3   2   3 1385.47 112.973  11
   3   2   3 1269.70 108.377  10
  -3  -2  -3 1290.27 107.941   8
   3   2   4 962.955 91.8806  14
  -3  -2  -4 814.609 96.1600   6
  -3  -2  -4 895.227 85.5481   3
   3   2   4 913.996 78.0546  12
   3   2   4 870.389 93.9009  11
   3   2   4 915.770 95.0635  10
  -3  -2  -4 771.276 88.0327   8
  -3  -2  -4 962.949 104.264   7
  -3  -2  -5-44.7618 38.0054   7
   3   2   5 9.25428 29.5311  14
  -3  -2  -5-35.9798 38.1909   6
   3   2   5-35.6342 25.2728  12
   3   2   5-7.80048 33.8188  11
  -3  -2  -5-34.2341 30.7813   3
   3   2   5 1.96673 27.5352  10
   3   2   5 43.8475 36.0215   9
  -3  -2  -5 9.63414 30.0981   8
  -3  -2  -6-21.7391 34.6987   7
   3   2   6 38.5327 29.6246  14
  -3  -2  -6 34.8986 39.2428   6
   3   2   6-17.1120 38.0622  11
  -3  -2  -6-4.49955 31.8911   3
   3   2   6 42.9845 35.9833  10
   3   2   6-28.2305 35.6805   9
  -3  -2  -6-51.8771 42.5472   8
  -3  -2  -7-9.80503 40.0597   7
   3   2   7-17.2379 32.8404  14
  -3  -2  -7-33.8229 43.1229   6
   3   2   7-43.0075 38.2179  11
  -3  -2  -7 37.8558 42.2605   3
   3   2   7-20.9281 32.7654  10
   3   2   7-38.8857 42.6077   9
  -3  -2  -7 38.6981 39.2850   8
  -3  -2  -8 90.2505 48.4492   7
   3   2   8 98.9267 47.6513  14
  -3  -2  -8 70.2655 50.6716   6
   3   2   8 11.4720 40.2293  11
  -3  -2  -8 67.2984 44.2911   3
   3   2   8 67.5245 42.1813  10
   3   2   8 98.0758 46.2187   9
  -3  -2  -8 62.1541 37.2171   8
  -3  -2  -9 45.2262 45.8720   7
   3   2   9 69.6564 46.9356  14
  -3  -2  -9-29.6020 47.4378   6
  -3  -2  -9 7.47295 35.1888   3
   3   2   9 4.21315 42.0986  11
   3   2   9 34.9353 40.0631  10
   3   2   9-0.08618 33.6407   9
  -3  -2  -9 43.2379 44.7682   8
   3   2  10-32.1100 45.1966  14
  -3  -2 -10 80.7046 51.7743   6
  -3  -2 -10 8.37147 47.5022   3
   3   2  10 30.7516 41.5281  11
   3   2  11 125.755 57.0129  14
  -3  -2 -11 229.571 83.4853   6
  -3  -2 -11 193.356 71.1249   3
   3   2  11 64.4336 57.3026  11
   3   2  12-96.1922 61.7758  14
  -3  -2 -12 17.0030 59.8329   6
  -3  -2 -12 2.78597 50.9339   3
   3   2  12 77.4389 55.5039  11
   3   3 -15-47.8267 88.4252  16
  -3  -3  15-53.3390 89.8008  15
   3   3 -15-49.7186 114.876  13
   3   3 -14 43.1124 70.2890  16
  -3  -3  14-19.2177 59.6687  15
   3   3 -14 9.08728 88.9144  13
  -3  -3  14-17.7196 53.9384   4
   3   3 -14-27.3504 50.7849   2
   3   3 -13-2.60475 39.8954   2
   3   3 -13 4.44802 41.8381  16
  -3  -3  13-106.608 63.4068  15
   3   3 -13 8.20224 75.9392  13
   3   3 -13-45.9574 64.4391  12
  -3  -3  13 20.5764 43.4822   1
  -3  -3  13 65.2920 59.6426   4
   3   3 -12-7.11774 44.0157   2
   3   3 -12 15.0437 54.9287  16
  -3  -3  12-26.0633 52.3496  15
  -3  -3  12-8.42758 39.0282   1
   3   3 -12-1.66528 48.4040  13
   3   3 -12 9.07198 45.6922  12
  -3  -3  12-101.465 53.1352   5
  -3  -3  12-13.4756 41.3377   4
   3   3 -11 32.9223 34.6244  16
   3   3 -11 57.6852 47.2474   2
  -3  -3  11 21.6499 45.7842  15
  -3  -3  11 85.4729 49.0188   1
   3   3 -11 6.72793 60.6226  13
   3   3 -11 0.11346 39.2472  12
  -3  -3  11 73.5381 46.5867   5
  -3  -3  11 29.0878 43.7322   4
   3   3 -10 18.5131 35.0820  16
   3   3 -10 17.4092 41.6107   2
  -3  -3  10-0.54047 33.3978  15
   3   3 -10 0.56885 49.5448  13
  -3  -3  10 6.16048 34.5408   1
   3   3 -10 107.989 56.1552  12
  -3  -3  10 6.50042 35.6305   5
  -3  -3  10 35.8681 42.7746   4
  -3  -3   9 185.132 56.4362   4
   3   3  -9 93.3217 41.5960  16
   3   3  -9 39.2480 50.5463   2
  -3  -3   9 332.884 62.1340   7
  -3  -3   9 84.1471 49.9664  15
   3   3  -9 4.28571 65.9877  13
  -3  -3   9 204.208 50.6826   1
   3   3  -9 226.843 62.2354  12
  -3  -3   9 171.945 51.2105   5
   3   3  -9 100.879 37.2271   9
  -3  -3   8-26.8272 34.5990   4
   3   3  -8-44.6774 34.7028  16
   3   3  -8 46.9124 34.3274   2
  -3  -3   8-66.5022 36.1410   7
  -3  -3   8-35.2496 31.5784  15
   3   3  -8 2.59073 42.2407  13
  -3  -3   8 5.57030 28.3626   1
   3   3  -8-51.6294 42.6421  12
  -3  -3   8-1.09486 30.5074   5
   3   3  -8 17.2987 29.1326   9
   3   3  -6 26.1156 25.1260   2
   3   3  -6 55.3827 28.6165  16
  -3  -3   6 29.6507 30.9573   4
  -3  -3   6 15.1475 22.9132  15
  -3  -3   6 6.17982 22.3270   1
   3   3  -6-7.24247 37.3182  13
   3   3  -6-0.93942 28.1584  12
  -3  -3   6-5.06474 25.9781   7
   3   3  -6 16.8033 25.4430  10
  -3  -3   6 13.3732 31.4822   5
   3   3  -6 121.237 42.9262   9
  -3  -3   6 66.2882 30.1962   8
   3   3  -5 110.106 29.2680  16
  -3  -3   5 59.9477 28.7993   4
  -3  -3   5 36.0495 26.4042  15
  -3  -3   5 39.9614 42.6562   7
   3   3  -5 1.79169 36.0511  13
   3   3  -5 160.471 46.0575  12
   3   3  -5 84.5241 41.8846  10
  -3  -3   5 144.493 47.1549   5
   3   3  -5 121.433 39.9954   9
  -3  -3   5 86.2378 32.8707   8
   3   3  -5 41.9326 28.1322   2
  -3  -3   4 28.0869 25.5580   4
   3   3  -4 40.4912 20.0394  16
  -3  -3   4 61.4957 29.1935  15
  -3  -3   4-11.5031 27.6262   7
   3   3  -4 2.25423 33.0205  13
  -3  -3   4 79.0851 25.7757   6
   3   3  -4 20.6316 27.4944  12
   3   3  -4 23.7597 29.7933  10
  -3  -3   4 23.8700 27.3687   5
   3   3  -4 15.5041 24.8313   9
  -3  -3   4 60.2084 29.3944   8
  -3  -3   3-19.4580 25.6832   4
  -3  -3   3 17.9340 25.4668   7
   3   3  -3-2.94999 22.4055  13
  -3  -3   3-17.9096 22.3006   6
   3   3  -3 5.83878 24.5849  12
   3   3  -3-2.51063 22.1163  11
   3   3  -3-19.3764 28.1285  10
  -3  -3   3-8.79872 29.6339   5
   3   3  -3-10.6255 25.6362   9
  -3  -3   3 3.74539 23.1387   8
  -3  -3   2 13.1694 20.7181   4
  -3  -3   2 33.7656 27.4340   7
   3   3  -2-15.6593 25.9297  13
  -3  -3   2-3.39700 19.6276   6
   3   3  -2-38.2802 28.0188  12
   3   3  -2 5.97784 23.0307  11
   3   3  -2-5.94327 23.1522  10
   3   3  -2 48.0255 32.9716   9
  -3  -3   2 29.8721 30.4066   5
  -3  -3   2-3.87596 24.2708   8
  -3  -3   1 36.9344 21.3967   4
  -3  -3   1 10.0458 24.9641   7
   3   3  -1 60.0982 24.3393  13
  -3  -3   1 24.7308 21.3752   6
   3   3  -1 40.2480 30.6211  12
   3   3  -1 60.6806 29.5154  11
   3   3  -1 30.1777 23.6466  10
  -3  -3   1 53.5866 26.3485   5
   3   3  -1 5.85922 24.2957   9
  -3  -3   1 43.1857 27.6279   8
  -3  -3   0 492.294 72.2046   7
  -3  -3   0 525.213 66.4667   6
   3   3   0 470.948 52.9524  13
   3   3   0 489.845 65.3561  12
   3   3   0 510.970 63.8319  11
  -3  -3   0 449.227 62.8553   5
   3   3   0 502.531 71.6171  10
  -3  -3   0 561.809 53.6664   3
   3   3   0 462.364 63.9485   9
  -3  -3   0 491.988 67.7173   8
  -3  -3   0 489.102 50.8947   4
  -3  -3  -1 49.2862 35.2240   7
   3   3   1 48.0074 23.0807  14
  -3  -3  -1 46.5918 29.6510   6
   3   3   1 83.0567 33.6323  12
  -3  -3  -1 29.8705 19.6016   3
   3   3   1 25.4924 24.4244  11
   3   3   1 49.5883 30.8230  10
  -3  -3  -1 35.4092 29.2438   5
   3   3   1 66.8084 33.6991   9
  -3  -3  -1 75.1300 27.8890   4
  -3  -3  -1 29.4946 29.0654   8
  -3  -3  -2 331.487 65.0160   7
   3   3   2 279.780 42.2041  14
  -3  -3  -2 277.390 55.2280   6
   3   3   2 294.305 51.6629  12
  -3  -3  -2 249.929 42.6217   3
   3   3   2 279.118 55.3998  11
   3   3   2 258.700 54.0286  10
  -3  -3  -2 277.404 51.4294   5
   3   3   2 320.533 58.9634   9
  -3  -3  -2 178.444 44.3928   8
  -3  -3  -3 620.280 85.6823   7
   3   3   3 571.851 66.2742  14
  -3  -3  -3 576.186 81.1678   6
  -3  -3  -3 569.359 63.1927   3
   3   3   3 556.842 66.9536  12
   3   3   3 537.007 71.9709  11
  -3  -3  -3 533.012 64.4636   5
   3   3   3 572.330 77.8711  10
   3   3   3 622.101 79.2244   9
  -3  -3  -3 578.395 79.0093   8
  -3  -3  -4 292.063 61.5637   7
   3   3   4 292.205 53.7693  14
  -3  -3  -4 277.113 60.6802   6
   3   3   4 331.468 51.9594  12
  -3  -3  -4 333.923 54.7790   3
   3   3   4 372.163 65.3166  11
   3   3   4 259.874 56.1303  10
  -3  -3  -4 255.975 45.1193   5
   3   3   4 287.609 57.1247   9
  -3  -3  -4 318.004 62.0993   8
  -3  -3  -5 1079.05 112.273   7
   3   3   5 1022.89 98.0460  14
  -3  -3  -5 1037.67 112.509   6
  -3  -3  -5 945.365 93.5410   3
   3   3   5 950.166 102.119  11
  -3  -3  -5 973.270 86.6465   5
   3   3   5 1013.54 104.284  10
   3   3   5 1089.87 106.507   9
  -3  -3  -5 1039.26 105.462   8
  -3  -3  -6 86.3618 50.0017   7
   3   3   6 13.7672 30.2752  14
  -3  -3  -6 35.5797 37.3988   6
  -3  -3  -6 77.8247 43.5623   3
   3   3   6 68.0286 48.1345  11
   3   3   6 53.8398 42.4577  10
   3   3   6 112.860 49.1560   9
  -3  -3  -6 106.824 48.6574   8
  -3  -3  -7 1586.52 137.689   7
   3   3   7 1440.94 127.651  14
  -3  -3  -7 1545.09 156.274   6
  -3  -3  -7 1437.29 131.719   3
   3   3   7 1592.47 144.065  11
   3   3   7 1536.41 134.522  10
   3   3   7 1580.88 131.441   9
  -3  -3  -7 1658.03 139.293   8
  -3  -3  -8 308.074 69.2958   7
   3   3   8 278.787 69.7955  14
  -3  -3  -8 248.078 74.2515   6
  -3  -3  -8 163.807 56.7565   3
   3   3   8 213.588 63.7139  11
   3   3   8 316.770 68.3261  10
   3   3   8 258.249 61.1246   9
  -3  -3  -8 280.643 68.5362   8
  -3  -3  -9 144.050 54.0036   7
   3   3   9 153.576 57.1565  14
  -3  -3  -9 142.978 66.7241   6
  -3  -3  -9 18.1719 43.5516   3
   3   3   9 113.930 54.2320  11
   3   3   9 59.0039 46.1335  10
   3   3   9-14.1140 41.9298   9
  -3  -3  -9 157.545 66.7328   8
   3   3  10 18.5766 41.9998  14
  -3  -3 -10-21.5704 46.3185   6
  -3  -3 -10 103.916 60.0996   3
   3   3  10 114.215 63.1429  11
   3   3  10 37.3158 46.1348  10
  -3  -3 -10-35.8255 51.4394   8
   3   3  11 91.0446 54.6643  14
  -3  -3 -11 107.235 65.3462   6
  -3  -3 -11 103.644 70.9706   3
   3   3  11 152.318 59.7379  11
   3   3  12 44.9779 46.9094  14
  -3  -3 -12 57.9968 61.5630   6
  -3  -3 -12-31.5717 59.8009   3
   3   3  12 104.919 65.1890  11
   3   4 -14-13.4116 43.8611  16
   3   4 -14-183.423 73.0456   2
  -3  -4  14 47.1955 65.7777  15
   3   4 -14 18.8474 61.1116  13
  -3  -4  14 69.8966 59.1692   1
  -3  -4  14-73.2312 61.7245   4
   3   4 -13-11.0513 53.5916  16
   3   4 -13-10.1359 41.6311   2
  -3  -4  13 47.4281 57.4606  15
   3   4 -13-0.15696 49.1912  13
  -3  -4  13 87.1426 53.5798   1
  -3  -4  13-77.2924 54.2013   5
  -3  -4  13-54.1602 58.3069   4
  -3  -4  12 62.3755 50.3908   4
   3   4 -12-9.68930 38.7867  16
   3   4 -12-17.4988 45.2469   2
  -3  -4  12 8.39020 45.9446  15
   3   4 -12-3.47925 49.9103  13
   3   4 -12-111.341 59.5993  12
  -3  -4  12-51.2424 51.4853   1
  -3  -4  12 11.0095 41.2135   5
  -3  -4  11-26.5303 45.2580   4
   3   4 -11 1.43578 31.9723  16
   3   4 -11-12.3506 33.8456   2
   3   4 -11 2.38448 43.3284  13
   3   4 -11-80.0610 45.7359  12
  -3  -4  11 18.5610 41.0921   1
  -3  -4  11-59.8467 46.4210   5
  -3  -4  10-20.0696 39.4602   4
   3   4 -10-41.8523 40.7096  16
   3   4 -10 44.8929 46.1420   2
   3   4 -10 9.82453 55.5507  13
   3   4 -10 90.4062 49.1854  12
  -3  -4  10 116.316 49.2605   1
  -3  -4  10-0.95610 38.2997   5
   3   4  -9-32.8673 39.3940  16
  -3  -4   9 22.8826 40.7956   4
  -3  -4   9 105.420 32.6011  15
   3   4  -9-12.8070 36.1286   2
   3   4  -9 13.1469 35.6294  13
   3   4  -9-13.4214 35.8039  12
  -3  -4   9 112.461 56.2567   5
  -3  -4   9 122.808 61.4519   1
   3   4  -8 25.9495 33.4001  16
  -3  -4   8 55.3002 38.8252   7
  -3  -4   8 72.1824 49.8315   4
  -3  -4   8 28.2698 42.9812  15
   3   4  -8 28.2098 39.4401   2
   3   4  -8 0.28601 31.2038  13
   3   4  -8 75.1078 42.6179  12
   3   4  -8 105.468 46.0412  10
  -3  -4   8 150.573 53.5851   5
  -3  -4   8-12.7387 34.6861   1
  -3  -4   8 95.4510 36.1270   8
   3   4  -7 46.1612 32.1259  16
  -3  -4   7 66.0068 38.1748   7
  -3  -4   7 74.7881 39.7984   4
  -3  -4   7 38.0796 31.1123  15
   3   4  -7 26.1044 27.3175   2
   3   4  -7-3.14281 30.2715  13
   3   4  -7 2.47195 29.5210  12
   3   4  -7 16.6251 27.7805  10
  -3  -4   7 18.7429 32.4789   5
  -3  -4   7 59.6821 30.1280   1
   3   4  -7 61.4395 28.5540   9
  -3  -4   7 97.2323 36.8905   8
   3   4  -6 2.94282 17.3335  16
  -3  -4   6 38.2446 37.4579   7
  -3  -4   6 148.591 50.1916   4
   3   4  -6 24.8429 23.8787   2
   3   4  -6-1.69406 26.7417  13
   3   4  -6-9.17431 34.0226  12
   3   4  -6 41.5672 32.1699  10
  -3  -4   6 11.3828 32.7969   5
  -3  -4   6 47.1514 27.3783   1
   3   4  -6 63.5284 36.0966   9
  -3  -4   6 131.645 42.2416   8
  -3  -4   5-14.8840 27.3377   7
  -3  -4   5 7.17581 28.7373   4
   3   4  -5-5.71138 17.0431   2
   3   4  -5-9.49026 29.7091  13
   3   4  -5 4.98018 27.9255  12
   3   4  -5-7.83309 26.9794  10
  -3  -4   5-44.1048 25.5792   1
  -3  -4   5-11.3486 30.7150   5
   3   4  -5 18.1813 26.2731   9
  -3  -4   5 7.97998 28.7814   8
   3   4  -4 1077.31 104.448  12
   3   4  -4 1215.46 80.9301  11
  -3  -4   4 1101.29 104.989   5
   3   4  -4 1162.45 99.9162   9
  -3  -4   4 1118.52 95.9610   8
  -3  -4   4 1046.98 94.2631   4
  -3  -4   4 925.433 62.2199   1
  -3  -4   3 63.2635 32.7961   4
  -3  -4   3 10.6122 26.5546   7
   3   4  -3-5.43319 27.3226  13
   3   4  -3-40.0454 33.6434  12
   3   4  -3 47.6439 25.5992  11
   3   4  -3 0.60206 26.1912   9
  -3  -4   3-5.21253 28.9226   5
  -3  -4   3 6.90133 27.4301   8
  -3  -4   2 320.368 50.9769   4
  -3  -4   2 268.868 56.2410   7
  -3  -4   2 176.922 40.6545   6
   3   4  -2 43.9290 53.1110  13
   3   4  -2 266.615 55.2061  12
   3   4  -2 285.923 47.2441  11
   3   4  -2 253.908 48.8880   9
  -3  -4   2 294.138 58.2794   5
  -3  -4   2 249.656 52.2855   8
  -3  -4   1 46.9850 24.1957   4
  -3  -4   1 60.9207 34.5483   7
  -3  -4   1 70.1601 36.4180   6
   3   4  -1 123.908 39.3978  12
   3   4  -1 75.4658 32.0258  11
   3   4  -1 90.0238 36.1528   9
  -3  -4   1 26.4828 26.3098   5
  -3  -4   1 75.5633 38.3931   8
  -3  -4   0 774.910 90.5431   7
   3   4   0 781.191 61.0568  14
  -3  -4   0 846.619 86.6614   6
   3   4   0 784.062 86.1993  12
   3   4   0 817.550 83.1459  11
  -3  -4   0 769.687 83.3907   5
   3   4   0 797.701 85.8550   9
  -3  -4   0 760.305 86.0850   8
  -3  -4   0 720.075 61.7447   4
  -3  -4  -1 71.5891 24.3664   4
  -3  -4  -1 81.9661 38.7277   7
   3   4   1 24.2597 16.7943  14
  -3  -4  -1 79.4537 38.5659   6
   3   4   1 69.4777 32.3450  12
   3   4   1 45.8144 33.0772  11
   3   4   1 37.5018 28.3505   9
  -3  -4  -1 69.6341 31.2419   5
  -3  -4  -1 41.9086 32.7193   8
  -3  -4  -2 62.4553 23.1750   4
  -3  -4  -2 37.5550 31.2331   7
   3   4   2 83.9090 28.9344  14
  -3  -4  -2 42.5047 36.8827   6
   3   4   2 0.81890 28.7826  12
   3   4   2 34.8797 32.8065  11
  -3  -4  -2 58.5052 34.1915   5
   3   4   2 90.3822 42.5892   9
  -3  -4  -2 34.6163 33.0575   8
  -3  -4  -3 41.3367 40.9834   7
   3   4   3 59.3089 33.4125  14
  -3  -4  -3 60.4228 41.2042   6
   3   4   3-6.73740 32.5131  11
  -3  -4  -3 13.2118 29.5518   5
   3   4   3 9.59321 30.2654   9
  -3  -4  -3-12.9308 35.3477   8
  -3  -4  -4 224.230 59.2898   7
   3   4   4 264.923 55.8920  14
  -3  -4  -4 261.347 62.2797   6
   3   4   4 187.923 51.0862  11
  -3  -4  -4 259.216 49.0442   5
   3   4   4 169.296 47.0775   9
  -3  -4  -4 204.497 52.0114   8
  -3  -4  -5 106.473 50.5944   7
   3   4   5 2.82840 29.2977  14
  -3  -4  -5 143.986 55.6199   6
   3   4   5 53.7394 39.9765  11
   3   4   5 118.611 50.1217  10
  -3  -4  -5 128.971 51.7849   5
   3   4   5 56.4385 41.2951   9
  -3  -4  -5 97.2807 54.9538   8
  -3  -4  -6 101.755 48.0143   7
   3   4   6 111.920 47.2760  14
  -3  -4  -6 155.284 53.4716   6
   3   4   6 143.675 54.0350  11
   3   4   6 111.375 44.2545  10
   3   4   6 167.020 55.3597   9
  -3  -4  -6 121.232 55.1600   8
  -3  -4  -7 57.0480 36.7961   7
   3   4   7 166.440 58.0745  14
  -3  -4  -7 133.064 61.5447   6
   3   4   7 100.574 51.5303  11
   3   4   7 87.2979 43.4452  10
   3   4   7 112.570 44.2986   9
  -3  -4  -7 140.130 58.3032   8
   3   4   8 330.774 73.3304  14
  -3  -4  -8 291.908 89.2432   6
   3   4   8 374.589 80.3386  11
   3   4   8 389.539 74.6810  10
  -3  -4  -8 454.285 88.6678   8
   3   4   9 64.3856 46.3131  14
  -3  -4  -9 121.812 67.8017   6
   3   4   9 130.644 57.6988  11
   3   4   9 13.0720 38.6523  10
  -3  -4  -9 218.461 78.2198   8
   3   4  10 16.4330 45.1997  14
  -3  -4 -10 95.2305 62.9096   6
   3   4  10 48.0591 47.2567  11
  -3  -4 -11 20.3869 51.0345   6
   3   4  11-24.4769 43.5124  11
  -3  -5  13-3.95543 54.5550   4
   3   5 -13 12.5001 43.7983   2
   3   5 -13-1.50869 52.3513  13
  -3  -5  13-64.9460 43.0008   5
  -3  -5  13 4.04772 62.1892   1
  -3  -5  12 6.71062 46.2743   4
   3   5 -12-29.0155 42.3736   2
   3   5 -12-5.59830 57.4001  13
  -3  -5  12 9.59273 35.7287   5
  -3  -5  12 27.5156 49.5658   1
  -3  -5  11 27.2203 40.7185   1
  -3  -5  11-19.1130 44.5567   4
   3   5 -11-13.1223 45.9273   2
   3   5 -11-140.043 63.1554  13
  -3  -5  11 42.3871 42.3822   5
  -3  -5  10 97.5560 57.7544   4
  -3  -5  10 92.1100 53.3013   1
   3   5 -10 4.00896 30.6974   2
   3   5 -10 6.81678 58.3742  13
  -3  -5  10 145.949 58.8259   5
  -3  -5   9 16.5886 39.3090   4
  -3  -5   9 83.7345 45.4843   1
   3   5  -9 4.32622 28.5559   2
   3   5  -9 0.11628 48.3267  13
  -3  -5   9 82.9992 54.0564   5
  -3  -5   8 292.961 69.9677   4
  -3  -5   8 319.947 60.0899   1
   3   5  -8 145.622 60.7764   2
   3   5  -8 26.4221 72.1123  13
   3   5  -8 319.039 75.6262  12
   3   5  -8 410.034 73.1644  10
  -3  -5   8 465.025 84.6647   5
  -3  -5   8 352.671 62.2405   8
  -3  -5   7-2.47291 34.9958   4
  -3  -5   7-30.0567 33.6526   1
   3   5  -7 9.36241 36.5737  13
   3   5  -7 22.8753 27.4843   2
   3   5  -7-20.3933 35.5480  12
   3   5  -7 41.5998 36.7609  10
  -3  -5   7 13.7022 37.6339   5
  -3  -5   7-8.78988 37.4775   8
  -3  -5   6 264.029 64.4131   4
   3   5  -6 181.986 53.2383   2
   3   5  -6 245.397 61.9680  12
  -3  -5   6 276.878 50.3047   1
  -3  -5   6 298.174 67.5391   5
  -3  -5   6 282.091 60.2754   8
  -3  -5   5-58.8021 41.2702   4
   3   5  -5 5.66735 31.0754  13
   3   5  -5 76.6376 43.4320  12
  -3  -5   5-12.1513 23.2945   1
  -3  -5   5-8.82743 36.4111   5
  -3  -5   5 45.7340 40.3434   8
  -3  -5   4 83.6973 63.1828   7
  -3  -5   4 405.312 66.3275   4
   3   5  -4 34.3052 64.0222  13
   3   5  -4 417.647 71.8192  12
   3   5  -4 393.891 52.4165  11
  -3  -5   4 328.971 68.2452   5
   3   5  -4 418.612 70.5238   9
  -3  -5   4 304.988 62.8113   8
  -3  -5   3 364.905 68.1532   7
  -3  -5   3 380.568 62.9445   4
   3   5  -3 505.290 84.3184  12
   3   5  -3 418.849 60.1626  11
   3   5  -3 501.620 81.0158   9
  -3  -5   3 401.503 69.8755   5
  -3  -5   3 413.793 69.8741   8
  -3  -5   2 20.3917 34.7304   7
  -3  -5   2 48.2394 32.1412   4
  -3  -5   2 53.6207 33.7222   5
   3   5  -2 62.1483 37.8522   9
  -3  -5   2 90.8435 40.5669   8
  -3  -5   1 106.361 40.0281   7
  -3  -5   1 135.455 38.4953   4
  -3  -5   1 157.109 47.5914   5
   3   5  -1 199.216 52.5957   9
  -3  -5   1 168.992 50.7103   8
  -3  -5   0 120.069 42.4140   7
  -3  -5   0 164.346 37.9272   4
  -3  -5   0 146.668 47.2024   5
   3   5   0 134.547 45.5080   9
  -3  -5   0 125.421 43.4608   8
  -3  -5  -1 104.277 46.7918   7
  -3  -5  -1 15.0444 23.8760   4
  -3  -5  -1 92.8291 42.5655   5
   3   5   1 39.3996 38.3767   9
  -3  -5  -1 42.3538 38.2515   8
  -3  -5  -2 1530.88 134.719   7
   3   5   2 1484.16 99.1794  14
  -3  -5  -2 1479.59 117.939   5
   3   5   2 1836.58 148.453   9
  -3  -5  -2 1414.09 126.585   8
  -3  -5  -3-47.0173 39.0874   7
   3   5   3 93.8002 35.6240  14
  -3  -5  -3-60.8759 38.0023   5
   3   5   3 71.6749 47.0970   9
  -3  -5  -3-5.08937 39.4695   8
   3   5   4-3.88457 30.7231  14
  -3  -5  -4-23.2833 29.9818   5
  -3  -5  -4 3.99496 37.9627   8
   3   5   5 246.495 59.1761  14
  -3  -5  -5 146.815 56.3368   8
  -3  -6  11 7.44346 63.0630   4
  -3  -6  10-38.6213 78.7013   4
  -3  -6  10-115.056 74.9827   5
  -3  -6   9-169.582 103.149   4
  -3  -6   9 184.881 86.1413   5
  -3  -6   8 185.731 94.7045   4
  -3  -6   8 134.829 85.1186   5
  -3  -6   7 18.8919 59.8044   4
  -3  -6   7 49.9703 70.5111   5
  -3  -6   7 5.25675 55.9299   8
  -3  -6   6-13.0422 71.0569   5
  -3  -6   6-56.9219 65.9590   8
  -4  -2   4 9.15867 47.7688   7
   4   2  -4 8.50538 23.9099  13
  -4  -2   4 99.9104 39.5171   6
  -4  -2   4 123.434 65.2662   5
  -4  -2   3-48.5136 47.5324   7
   4   2  -3-7.03544 25.8914  13
  -4  -2   3 29.8789 36.2757   6
  -4  -2   3-16.1209 36.9903   5
  -4  -2   2 16.5880 41.5881   7
   4   2  -2 9.14557 22.6789  13
  -4  -2   2 32.6054 31.6770   6
  -4  -2   2-54.0873 52.6726   8
  -4  -2   1 377.538 77.9629   7
  -4  -2   1 553.373 84.7281   6
   4   2  -1 369.867 60.1029  13
   4   2  -1 493.552 85.9435  10
  -4  -2   1 456.016 82.9194   8
  -4  -2   0 109.781 56.3403   7
  -4  -2   0 127.253 49.7351   6
   4   2   0 157.321 59.8954  10
  -4  -2   0 174.094 60.4697   8
  -4  -2  -1-18.8797 45.3250   7
  -4  -2  -1 35.2108 38.8215   6
   4   2   1-43.3725 41.0729  10
  -4  -2  -1-29.4360 26.6857   3
  -4  -2  -1-63.2348 54.0973   8
  -4  -2  -2 4.25325 46.6995   7
   4   2   2-25.6539 36.2013  12
  -4  -2  -2 56.6425 53.1691   6
  -4  -2  -2 31.5302 32.8238   3
   4   2   2 90.0505 48.9105  10
  -4  -2  -2 95.2333 55.7241   8
  -4  -2  -3 41.2709 48.9636   7
   4   2   3 20.5320 33.1915  12
  -4  -2  -3 113.054 56.5448   6
  -4  -2  -3 59.1269 41.9049   3
   4   2   3 14.1710 37.7681  10
  -4  -2  -3 88.8395 52.6766   8
  -4  -2  -4 258.420 72.6236   7
   4   2   4 162.686 48.7776  12
  -4  -2  -4 256.611 73.4557   6
  -4  -2  -4 179.684 55.9133   3
   4   2   4 176.213 54.9234  10
  -4  -2  -4 205.500 68.9947   8
  -4  -2  -5-30.6814 58.4063   7
  -4  -2  -5-61.8605 62.0196   6
  -4  -2  -5 72.0019 48.5075   3
   4   2   5 41.6481 38.8885  10
   4   2   5 25.6436 47.7567   9
  -4  -2  -5-11.8562 44.2800   8
  -4  -2  -6 34.4929 49.8628   7
  -4  -2  -6-10.4339 54.4005   6
  -4  -2  -6 134.692 64.0429   3
   4   2   6 39.7715 37.4604   9
  -4  -2  -7 158.667 67.5250   7
  -4  -2  -7 209.729 81.2752   6
  -4  -2  -7 100.554 63.2390   3
   4   2   7 114.668 46.4279   9
  -4  -2  -8-66.5654 64.4593   7
  -4  -2  -8 38.3681 54.0322   6
  -4  -2  -8 43.3450 61.6172   3
   4   2   8 11.9130 42.7431   9
  -4  -2  -9-171.635 98.9412   7
  -4  -2  -9 24.5875 57.3434   6
  -4  -2  -9-69.9612 81.4034   3
   4   2   9-31.7961 50.8761   9
  -4  -2 -10 169.640 100.420   6
  -4  -2 -10-31.0720 77.1368   3
   4   3 -11 4.11740 47.4688  13
   4   3 -10 16.4056 47.9739  13
   4   3 -10-79.1432 63.5987  12
  -4  -3  10-38.1402 57.9699   5
   4   3  -9-4.28983 30.9199  13
   4   3  -9 19.4745 49.5007  12
  -4  -3   9 0.13038 41.6600   5
  -4  -3   9 35.3469 50.1469   4
  -4  -3   8-48.6353 61.0173   7
   4   3  -8-11.7237 40.9098  13
   4   3  -8-44.3210 42.2805  12
  -4  -3   8 87.0697 56.4363   5
   4   3  -8-6.67711 62.2127   9
  -4  -3   8 11.7636 46.3458   4
  -4  -3   7 36.1046 55.2215   7
   4   3  -7 1.55694 28.6598  13
   4   3  -7 57.9900 41.0166  12
  -4  -3   7 61.4151 42.4874   5
   4   3  -7 18.8247 46.7012   9
  -4  -3   7 67.9068 48.1297   4
  -4  -3   6 42.3154 51.6799   7
   4   3  -6-4.23606 37.0392  13
   4   3  -6-20.2822 35.0261  12
  -4  -3   6 18.1050 37.9774   5
   4   3  -6-0.85114 34.3723   9
  -4  -3   6-0.86357 38.1240   8
  -4  -3   6-45.5965 38.7787   4
  -4  -3   5 1.29969 45.3299   7
   4   3  -5 5.21827 31.9813  13
   4   3  -5 4.82233 32.7859  12
  -4  -3   5-25.1818 36.3825   5
   4   3  -5-20.8749 42.9547  10
   4   3  -5 24.2742 33.6795   9
  -4  -3   5-28.7643 46.0947   8
  -4  -3   5 63.5650 43.4691   4
  -4  -3   4 68.3329 60.0714   7
   4   3  -4 4.53957 32.5816  13
  -4  -3   4 159.196 50.2604   6
   4   3  -4 97.4116 48.7309  12
  -4  -3   4 171.448 57.2447   5
   4   3  -4 69.6256 58.9951  10
  -4  -3   4 135.133 54.8448   8
  -4  -3   3 195.726 62.3985   7
   4   3  -3 29.9234 61.1925  13
  -4  -3   3 189.125 49.2198   6
   4   3  -3 218.042 62.0319  12
  -4  -3   3 172.469 53.4517   5
   4   3  -3 242.736 61.0197  10
  -4  -3   3 187.283 53.0859   8
  -4  -3   2 14.0487 37.8732   7
   4   3  -2 123.305 41.6833  13
  -4  -3   2 45.1778 29.2003   6
   4   3  -2 54.4784 35.7772  12
  -4  -3   2 70.7919 46.1153   5
   4   3  -2 78.0525 44.6083  10
  -4  -3   2 104.961 50.0216   8
  -4  -3   1 330.905 72.4605   7
   4   3  -1 310.196 52.3501  13
  -4  -3   1 323.234 62.7681   6
   4   3  -1 369.027 68.9425  12
  -4  -3   1 351.129 72.0291   5
   4   3  -1 358.080 76.4676  10
   4   3  -1 440.105 76.2277   9
  -4  -3   1 287.039 62.6973   8
  -4  -3   0 420.499 80.7597   7
  -4  -3   0 449.773 74.0856   6
   4   3   0 452.208 77.3493  12
  -4  -3   0 428.203 76.1153   5
   4   3   0 441.134 82.5108  10
   4   3   0 495.741 82.4044   9
  -4  -3   0 425.803 76.5784   8
  -4  -3  -1 1321.88 132.500   7
  -4  -3  -1 1307.22 120.026   6
   4   3   1 1386.47 123.020  12
  -4  -3  -1 1278.66 123.675   5
   4   3   1 1371.38 123.518  11
   4   3   1 1305.36 131.884  10
   4   3   1 1448.29 132.615   9
  -4  -3  -1 1196.04 120.972   8
  -4  -3  -2 4.49165 37.6419   7
  -4  -3  -2-5.73639 43.3628   6
   4   3   2-14.6422 32.1453  12
   4   3   2-55.9998 50.7399  11
  -4  -3  -2 8.69439 40.9199   5
   4   3   2-63.8569 44.0002  10
   4   3   2-79.2344 56.1967   9
  -4  -3  -2-7.56750 40.7389   8
  -4  -3  -3 1486.44 147.387   7
  -4  -3  -3 1453.80 136.582   6
  -4  -3  -3 1456.06 113.947   3
   4   3   3 1515.65 125.083  12
  -4  -3  -3 829.035 113.008   5
   4   3   3 1619.06 144.750  11
   4   3   3 1470.54 141.842  10
   4   3   3 1605.79 145.003   9
  -4  -3  -3 1401.18 137.087   8
  -4  -3  -4 29.5631 45.2486   7
  -4  -3  -4 106.178 50.6835   6
   4   3   4 136.042 46.8840  12
  -4  -3  -4 23.1670 27.9411   3
   4   3   4 87.7942 46.7831  11
   4   3   4 113.815 48.2505  10
   4   3   4 65.0351 46.6401   9
  -4  -3  -4 126.429 53.4034   8
  -4  -3  -5 113.424 54.5056   7
  -4  -3  -5 133.380 54.4640   6
  -4  -3  -5 110.853 42.6893   3
   4   3   5 229.643 71.2155  11
   4   3   5 142.125 58.5164  10
   4   3   5 94.8472 42.6583   9
  -4  -3  -5 224.375 67.5003   8
  -4  -3  -6-26.4191 43.1688   7
   4   3   6 78.5652 59.7209  14
  -4  -3  -6-18.3517 40.5838   6
  -4  -3  -6 9.88755 34.9404   3
   4   3   6 21.4916 46.7424  11
   4   3   6 34.0354 42.3924  10
   4   3   6-29.1332 47.3002   9
  -4  -3  -6 44.0298 41.8518   8
  -4  -3  -7 180.632 63.3499   7
   4   3   7 431.694 112.778  14
  -4  -3  -7 193.125 72.5490   6
  -4  -3  -7 183.135 59.0261   3
   4   3   7 247.639 74.8709  11
   4   3   7 257.052 76.9630  10
   4   3   7 244.676 70.3261   9
  -4  -3  -7 337.298 83.5679   8
  -4  -3  -8 2.36999 49.7979   7
   4   3   8-22.5586 59.3745  14
  -4  -3  -8 74.1272 57.0945   6
  -4  -3  -8 28.0254 40.3011   3
   4   3   8 105.056 68.8329  11
   4   3   8-33.0454 45.5727  10
   4   3   8 67.2767 45.6215   9
  -4  -3  -8-83.2822 64.3452   8
  -4  -3  -9 52.1635 54.4680   7
   4   3   9 20.4229 58.0381  14
  -4  -3  -9-91.2912 67.9928   6
  -4  -3  -9 2.77321 60.7625   3
   4   3   9 15.8116 53.2997  11
   4   3   9 50.8620 50.7736   9
  -4  -3  -9 126.293 78.6403   8
   4   4 -13-3.82533 56.4895  13
   4   4 -13-128.260 165.584  12
   4   4 -12 0.14940 48.6561  13
  -4  -4  12-1.69216 55.8142   5
  -4  -4  12 100.593 61.4848   4
   4   4 -11-1.58533 48.9669  13
   4   4 -11 66.3367 66.2210  12
  -4  -4  11-0.56042 51.1055   5
  -4  -4  11 128.262 65.7415   4
   4   4 -10 3.30432 42.0176  13
   4   4 -10 45.7400 61.5801  12
  -4  -4  10 12.2690 41.3926   5
  -4  -4  10 47.8376 50.2180   4
   4   4  -9-6.04268 38.6507  13
   4   4  -9 45.1459 52.4135  12
  -4  -4   9-59.0693 48.9205   5
  -4  -4   9 30.2914 49.3390   4
  -4  -4   8 64.2478 67.9610   7
   4   4  -8 5.32871 71.8987  13
   4   4  -8 336.384 81.4634  12
  -4  -4   8 347.184 80.1356   5
   4   4  -8 503.440 107.839   9
  -4  -4   8 332.010 80.0566   8
  -4  -4   8 339.906 75.3408   4
  -4  -4   7 26.2215 47.5767   7
   4   4  -7 3.89597 35.0452  13
   4   4  -7 101.046 59.0460  12
  -4  -4   7 30.5585 41.8213   5
   4   4  -7-38.5187 54.5528  10
   4   4  -7 123.449 64.7196   9
  -4  -4   7-25.7871 37.6893   8
  -4  -4   7-20.5226 40.7028   4
  -4  -4   6 83.3642 63.0423   7
   4   4  -6-7.21386 48.2784  13
   4   4  -6 132.621 52.8655  12
  -4  -4   6 165.210 58.0010   5
   4   4  -6 42.9515 42.3388  10
   4   4  -6 270.434 71.1498   9
  -4  -4   6 179.425 56.6719   8
  -4  -4   6 199.307 57.2052   4
  -4  -4   5-8.03847 41.1565   7
   4   4  -5 11.6492 32.0376  13
   4   4  -5-32.3630 40.5911  12
   4   4  -5 25.3520 38.6247  10
  -4  -4   5 32.7681 36.6865   5
   4   4  -5 15.1066 35.8160   9
  -4  -4   5 12.6763 34.5989   8
  -4  -4   5-32.2503 33.7906   4
  -4  -4   4 35.2770 48.1985   7
   4   4  -4 10.2750 40.8819  13
   4   4  -4 50.8391 39.7437  12
   4   4  -4 67.8730 44.4214  10
  -4  -4   4 176.162 57.3379   5
   4   4  -4 143.413 57.6376   9
  -4  -4   4 113.231 50.7459   8
  -4  -4   4 65.5570 40.0686   4
  -4  -4   3-10.7500 42.6603   7
  -4  -4   3 22.5492 35.4581   6
   4   4  -3-1.22628 38.3588  13
   4   4  -3 97.9838 73.0159  12
   4   4  -3 69.9970 56.1426  10
  -4  -4   3 49.2449 38.3245   5
  -4  -4   3 21.3802 35.5901   8
  -4  -4   3-29.5927 39.2152   4
  -4  -4   2-13.0493 34.7539   7
  -4  -4   2-34.0089 40.3836   6
   4   4  -2 59.1664 35.3269  13
   4   4  -2 14.5088 32.0898  12
   4   4  -2-31.6646 34.6837  11
   4   4  -2 35.2255 44.6572  10
  -4  -4   2-24.3307 42.0298   5
   4   4  -2 25.1053 43.1121   9
  -4  -4   2-33.1725 34.3050   8
  -4  -4   2-19.0195 36.8151   4
  -4  -4   1-11.8219 35.2343   7
  -4  -4   1-30.2896 34.9506   6
   4   4  -1 33.6382 39.9954  12
   4   4  -1 10.2837 32.6233  11
   4   4  -1 13.7641 34.4448  10
  -4  -4   1 18.6081 32.2058   5
   4   4  -1-53.3784 45.5392   9
  -4  -4   1-60.1284 38.5151   4
  -4  -4   1-32.9278 40.8375   8
  -4  -4   0 23.6535 35.5705   7
  -4  -4   0 76.5644 41.7720   6
   4   4   0 78.3898 41.1775  12
   4   4   0 100.941 48.1088  11
   4   4   0 127.990 52.5151  10
  -4  -4   0 81.4252 44.8014   5
   4   4   0 163.768 54.0812   9
  -4  -4   0 116.366 51.9086   8
  -4  -4  -1 63.1938 47.7002   7
  -4  -4  -1-1.41021 31.5435   6
   4   4   1 42.0375 37.0224  12
   4   4   1 5.83086 36.2473  11
   4   4   1 108.250 48.4788  10
  -4  -4  -1 34.5800 40.0017   5
   4   4   1 27.9398 35.9869   9
  -4  -4  -1 15.5700 35.3403   8
  -4  -4  -2 456.564 88.9126   7
  -4  -4  -2 501.826 82.8916   6
   4   4   2 481.360 81.1032  12
   4   4   2 403.945 79.3417  11
   4   4   2 354.489 75.7054  10
  -4  -4  -2 442.819 77.2170   5
   4   4   2 442.539 81.5235   9
  -4  -4  -2 421.902 82.0809   8
  -4  -4  -3 178.271 58.1597   7
  -4  -4  -3 135.043 50.4689   6
   4   4   3 247.636 59.9774  12
   4   4   3 191.998 65.2532  11
  -4  -4  -3 193.015 50.3463   5
   4   4   3 178.035 61.3299  10
   4   4   3 163.838 61.0289   9
  -4  -4  -3 174.729 62.1113   8
  -4  -4  -4 371.315 87.7078   7
  -4  -4  -4 413.199 84.1154   6
   4   4   4 349.079 72.3207  11
  -4  -4  -4 395.079 82.0014   5
   4   4   4 360.905 77.0198  10
   4   4   4 382.936 81.7817   9
  -4  -4  -4 379.418 79.3184   8
  -4  -4  -5 399.738 87.6814   7
  -4  -4  -5 332.532 82.4223   6
  -4  -4  -5 179.243 58.3116   3
   4   4   5 300.455 76.7188  11
   4   4   5 206.254 66.3370  10
   4   4   5 284.694 74.2665   9
  -4  -4  -5 233.960 70.2315   8
  -4  -4  -6 121.172 61.6111   7
  -4  -4  -6 77.3844 52.1084   6
  -4  -4  -6 104.267 51.8765   3
   4   4   6 78.2350 55.3966  11
   4   4   6 110.936 60.2138  10
   4   4   6 47.3780 53.1115   9
  -4  -4  -6 106.831 56.7599   8
  -4  -4  -7 203.633 60.8123   7
   4   4   7 195.530 66.5937  14
  -4  -4  -7 288.305 86.9561   6
  -4  -4  -7 192.722 74.6457   3
   4   4   7 364.409 90.5054  10
   4   4   7 241.977 66.5620   9
  -4  -4  -7 254.927 76.7110   8
  -4  -4  -8-20.1257 39.4998   7
   4   4   8 56.1182 47.3189  14
  -4  -4  -8-19.6167 55.1747   6
   4   4   8-122.069 79.4348  11
   4   4   8-8.13031 42.2271  10
   4   4   8-176.132 76.5760   9
  -4  -4  -8-49.5630 58.1343   8
  -4  -4  -9-62.5176 42.8774   7
   4   4   9 5.94935 48.8818  14
  -4  -4  -9 159.625 79.7501   6
   4   4   9 95.3239 71.3983  11
   4   4   9-117.775 63.6878  10
  -4  -4  -9-36.7377 71.5122   8
   4   5 -12 8.35949 60.6609  13
   4   5 -12 134.766 92.6920  12
  -4  -5  12-18.5701 52.2676   5
  -4  -5  12-27.6824 58.7405   4
   4   5 -11-6.49894 59.6246  13
   4   5 -11-75.0121 55.9448  12
  -4  -5  11 2.90021 45.8959   5
  -4  -5  11-114.883 68.9955   4
  -4  -5  10 34.2275 52.7116   4
   4   5 -10 15.2683 59.9892  13
   4   5 -10 56.8087 57.8581  12
  -4  -5  10 9.47035 43.7603   5
  -4  -5   9-19.2510 45.6557   4
   4   5  -9-3.04565 46.9156  13
  -4  -5   9-16.7750 43.2003   5
  -4  -5   8-37.7486 53.1942   4
  -4  -5   8-6.40368 40.5166   7
   4   5  -8 15.7171 60.1255  13
   4   5  -8-35.3777 45.3022  12
   4   5  -8 1.85843 47.6965  10
  -4  -5   8-9.13176 45.4288   5
  -4  -5   8-27.3329 34.0315   8
  -4  -5   7 24.6320 40.4442   4
  -4  -5   7 44.9675 67.8500   7
   4   5  -7-2.32405 56.6215  13
   4   5  -7 69.3470 53.2421  12
   4   5  -7 4.45237 48.3808  10
  -4  -5   7 100.591 58.2079   5
   4   5  -7 124.724 62.5908   9
  -4  -5   7 19.3596 39.3034   8
  -4  -5   6 159.199 59.0896   4
  -4  -5   6 46.8969 51.6026   7
   4   5  -6-10.1123 37.5931  13
   4   5  -6 104.557 52.9894  12
   4   5  -6 34.9295 43.8385  10
  -4  -5   6 109.460 60.6468   5
   4   5  -6 107.519 53.9153   9
  -4  -5   6 129.208 56.3514   8
  -4  -5   5 20.4811 33.7426   4
  -4  -5   5-5.36088 35.9835   7
   4   5  -5 1.42203 37.9398  13
   4   5  -5 69.2092 51.9003  12
   4   5  -5 15.1290 41.7611  10
  -4  -5   5 1.82043 41.9048   5
   4   5  -5 40.6996 44.6895   9
  -4  -5   5 113.340 52.0598   8
  -4  -5   4 55.0764 34.8757   4
  -4  -5   4 78.1015 64.2589   7
   4   5  -4-3.78496 53.8913  13
   4   5  -4 111.292 48.0163  12
   4   5  -4 111.398 61.1722  10
  -4  -5   4 119.032 52.9261   5
   4   5  -4 248.294 67.5379   9
  -4  -5   4 127.677 48.6106   8
  -4  -5   3 23.7893 28.9936   4
  -4  -5   3 28.3865 39.4819   7
   4   5  -3-0.67591 25.8366  13
   4   5  -3-20.6521 37.9235  12
   4   5  -3 29.2791 39.8560  10
  -4  -5   3 16.4330 41.6370   5
  -4  -5   3-1.65993 38.3735   8
  -4  -5   2 1436.12 142.664   7
   4   5  -2 1600.14 144.365  12
   4   5  -2 1674.00 130.203  11
  -4  -5   2 1590.20 144.501   5
   4   5  -2 1458.02 135.119   9
  -4  -5   2 1363.98 135.400   8
  -4  -5   2 1351.72 113.369   4
  -4  -5   1 121.220 54.5752   7
  -4  -5   1 65.0522 43.0967   6
   4   5  -1-99.4250 52.3148  12
   4   5  -1 32.0650 39.6280  11
   4   5  -1 29.8263 40.8716  10
  -4  -5   1-6.76850 37.9284   5
   4   5  -1 57.4650 43.3560   9
  -4  -5   1 54.3135 47.4413   8
  -4  -5   0-46.4873 54.4378   7
  -4  -5   0-51.6890 41.3288   6
   4   5   0 8.76050 37.5124  12
   4   5   0-2.15780 38.7896  11
   4   5   0 47.3475 43.5346  10
  -4  -5   0 47.0730 46.9151   5
   4   5   0 2.50004 41.9530   9
  -4  -5   0-59.7669 51.5112   8
  -4  -5  -1 278.264 71.3991   7
  -4  -5  -1 235.250 64.5986   6
   4   5   1 276.317 67.9661  11
   4   5   1 302.720 75.5106  10
  -4  -5  -1 156.022 50.1437   5
   4   5   1 264.485 66.8896   9
  -4  -5  -1 234.037 63.5135   8
  -4  -5  -2 1386.82 144.217   7
  -4  -5  -2 1336.45 138.730   6
   4   5   2 1389.21 137.351  11
  -4  -5  -2 1370.48 129.531   5
   4   5   2 1381.45 145.308  10
   4   5   2 1250.53 131.669   9
  -4  -5  -2 1314.31 138.313   8
  -4  -5  -3-12.5111 51.3709   7
  -4  -5  -3 7.13726 38.4741   6
   4   5   3 70.3254 47.4804  11
   4   5   3-53.7892 45.7790  10
  -4  -5  -3-20.4815 43.7985   5
   4   5   3-132.621 69.7558   9
  -4  -5  -3 102.265 62.0943   8
  -4  -5  -4 0.63572 46.8704   7
  -4  -5  -4-23.2160 42.1667   6
   4   5   4 3.45079 43.1564  11
   4   5   4 94.4466 50.7555  10
  -4  -5  -4 35.3846 36.0978   5
   4   5   4 148.130 78.2773   9
  -4  -5  -4 100.910 61.8734   8
  -4  -5  -5 0.52446 52.6745   7
  -4  -5  -5 107.303 53.3138   6
   4   5   5 16.1844 50.4333  11
   4   5   5 24.3052 44.7366  10
   4   5   5-52.6659 62.6216   9
  -4  -5  -5 130.587 63.3476   8
  -4  -5  -6 65.6122 49.6831   7
  -4  -5  -6 71.1392 59.5499   6
   4   5   6 61.5137 56.2739  11
   4   5   6 75.2503 58.5943  10
   4   5   6 10.0358 55.4881   9
  -4  -5  -6 51.5528 60.3266   8
  -4  -5  -7-48.0443 53.9915   6
   4   5   7-95.4347 60.3481  11
   4   5   7-77.5887 51.2212  10
  -4  -5  -7 70.0151 60.5287   8
  -4  -5  -8-31.0395 43.2718   6
   4   5   8-47.0095 57.2872  11
  -4  -6  11 176.142 86.1626   4
   4   6 -11-8.60488 77.9803  13
  -4  -6  11 48.4316 59.0257   5
  -4  -6  10-34.3293 61.2828   4
   4   6 -10 7.66463 48.3141  13
  -4  -6  10-23.1901 59.0419   5
  -4  -6   9 29.1071 60.3686   4
   4   6  -9-15.5548 51.7216  13
  -4  -6   9-10.9335 53.2111   5
  -4  -6   8 115.044 63.3109   4
   4   6  -8 5.50437 44.6071  13
  -4  -6   8-70.3758 69.9176   5
  -4  -6   7 7.43941 41.5174   4
   4   6  -7 14.4730 41.7380  13
   4   6  -7 66.4489 57.7232  10
  -4  -6   7 18.7579 56.8623   5
  -4  -6   7 42.9416 54.8208   8
  -4  -6   6 129.019 53.7142   4
   4   6  -6 64.1356 63.0470  10
  -4  -6   6 162.831 72.4733   5
  -4  -6   6 96.7262 58.0814   8
  -4  -6   5-10.2365 40.7766   4
   4   6  -5 36.7137 39.1095  10
  -4  -6   5 30.4072 48.1355   5
  -4  -6   5 9.24600 47.5857   8
  -4  -6   4-27.0277 37.2054   7
  -4  -6   4 41.6933 38.6730   4
   4   6  -4-4.14262 44.5649  10
  -4  -6   4 29.8510 51.3389   5
  -4  -6   4 135.430 60.2848   8
  -4  -6   3 212.413 66.7627   7
  -4  -6   3 44.5880 32.7910   4
   4   6  -3 248.711 72.4758  10
  -4  -6   3 261.727 74.9335   5
  -4  -6   3 234.235 74.3465   8
  -4  -6   2 225.849 67.1537   7
  -4  -6   2 135.168 47.4774   4
   4   6  -2 256.400 73.4368  10
  -4  -6   2 291.477 74.6909   5
   4   6  -2 234.528 68.1615   9
  -4  -6   2 317.769 80.7755   8
  -4  -6   1-10.9054 38.3806   7
   4   6  -1 26.6017 42.3012  11
   4   6  -1 30.1080 40.9785  10
  -4  -6   1 50.4225 53.5890   5
   4   6  -1-7.24107 42.2934   9
  -4  -6   1 33.2026 47.3853   8
  -4  -6   0 77.9275 49.7885   7
   4   6   0 50.1298 42.7194  11
   4   6   0 129.428 64.5185  10
  -4  -6   0-28.5654 53.6768   5
   4   6   0 35.8675 45.0192   9
  -4  -6   0 57.2743 46.9640   8
  -4  -6  -1-32.0907 41.5490   7
   4   6   1-71.2789 55.9312  11
   4   6   1 12.1015 43.4039  10
  -4  -6  -1-61.8294 53.4576   5
  -4  -6  -1 54.9706 52.1191   8
  -4  -6  -2 70.5478 44.7602   7
   4   6   2 77.0900 51.2896  11
   4   6   2 92.5730 59.6366  10
  -4  -6  -2 63.3289 51.6629   8
   4   6   3-14.1290 45.9943  11
   4   6   3 72.4910 51.9890  10
  -4  -6  -3-37.8653 60.3783   8
   5   3  -1 420.199 88.9536   9
  -5  -3   0-86.5502 83.4170   7
   5   3   0 54.9170 60.2519  12
   5   3   0-6.14625 49.3141   9
  -5  -3   0-83.8782 63.9546   8
  -5  -3  -1 31.8373 75.7952   7
   5   3   1 58.1652 53.0107   9
  -5  -3  -1-20.3757 67.8416   8
  -5  -3  -2-139.926 93.9318   7
   5   3   2 7.76592 58.1129   9
  -5  -3  -3 80.1230 95.5704   7
  -5  -3  -3 13.1466 73.4042   6
   5   3   3-43.1396 69.5078   9
  -5  -3  -4 2.02615 83.6495   7
  -5  -3  -4-62.7545 88.1154   6
   5   3   4-9.57305 52.5561   9
  -5  -3  -5-66.5906 92.4424   7
  -5  -3  -5 20.3403 85.5412   6
   5   3   5 1.46756 50.6096   9
  -5  -3  -6-87.7176 132.950   6
   5   4  -8-69.7918 47.5279  12
  -5  -4   8 6.51240 59.9618   5
   5   4  -7 18.6067 33.2881  12
  -5  -4   7-3.92814 52.3594   5
  -5  -4   6 42.9962 69.6738   7
   5   4  -6-46.7258 45.1268  12
  -5  -4   6-88.5743 72.2947   5
   5   4  -6-38.8335 36.7520   9
  -5  -4   5 46.3117 62.1339   7
   5   4  -5 86.2167 46.5388  12
  -5  -4   5 42.7169 47.9589   5
   5   4  -5 50.4303 40.4848   9
  -5  -4   5 105.276 78.2075   8
  -5  -4   4 24.8722 57.5122   7
   5   4  -4 19.9550 41.3137  12
  -5  -4   4 103.694 63.5413   5
   5   4  -4 39.8561 50.4666  10
   5   4  -4 36.6746 39.6595   9
  -5  -4   4 87.2573 58.0828   8
  -5  -4   3 37.9758 50.1342   7
   5   4  -3 16.8460 42.8174  12
  -5  -4   3 51.8639 51.4136   5
   5   4  -3 44.0503 55.2279  10
   5   4  -3 14.6638 42.4593   9
  -5  -4   3-25.6952 48.5306   8
  -5  -4   2 743.974 127.232   7
   5   4  -2 460.825 99.1709  12
  -5  -4   2 377.864 92.3153   5
   5   4  -2 517.494 114.509  10
   5   4  -2 336.475 74.3704   9
  -5  -4   2 404.774 92.4608   8
  -5  -4   1 108.639 58.2852   7
  -5  -4   1 88.8207 70.2725   6
   5   4  -1 36.4283 47.2506  12
  -5  -4   1-33.2344 66.3957   5
   5   4  -1 84.3015 59.6492  10
   5   4  -1 76.2611 50.9331   9
  -5  -4   1 120.208 65.9827   8
  -5  -4   0 227.120 79.6179   7
  -5  -4   0 171.680 71.3308   6
   5   4   0 142.786 64.4326  12
  -5  -4   0 263.156 85.2959   5
   5   4   0 239.727 76.8600  10
   5   4   0 203.146 76.8534   9
  -5  -4   0 206.148 77.1255   8
  -5  -4  -1 165.513 73.1099   7
  -5  -4  -1 147.920 62.5269   6
   5   4   1 304.005 83.6076  12
   5   4   1 183.909 78.8100  10
   5   4   1 343.573 95.1137   9
  -5  -4  -1 152.869 68.2696   8
  -5  -4  -2 189.271 77.8746   7
  -5  -4  -2 64.5415 55.4606   6
   5   4   2 76.4390 57.7810  12
   5   4   2 110.372 65.7447  10
   5   4   2 211.077 84.7126   9
  -5  -4  -2 103.618 63.4478   8
  -5  -4  -3 63.2657 58.4163   7
  -5  -4  -3 97.6151 63.9561   6
   5   4   3 168.390 74.7209  10
   5   4   3 51.1007 56.4776   9
  -5  -4  -3 136.728 68.8255   8
  -5  -4  -4 103.741 78.0682   7
  -5  -4  -4-42.0597 49.2132   6
   5   4   4-27.9561 64.2949  10
   5   4   4-18.8552 61.2907   9
  -5  -4  -4 30.6582 56.8952   8
  -5  -4  -5 6.32774 67.4326   7
  -5  -4  -5 96.0501 72.3461   6
   5   4   5 65.8123 67.1172  10
   5   4   5 89.4079 59.3140   9
  -5  -4  -5 29.2690 58.2992   8
   5   5  -8-4.66884 49.2064  13
   5   5  -8-19.0982 47.0428  12
  -5  -5   8 7.54781 53.2524   5
  -5  -5   8 26.4614 52.6054   4
  -5  -5   7 103.597 78.9509   7
   5   5  -7-11.8824 76.6703  13
   5   5  -7 94.4117 58.9041  12
  -5  -5   7 74.9903 56.7351   5
   5   5  -7 60.6667 51.9943  10
   5   5  -7 139.714 71.9764   9
  -5  -5   7-60.3799 70.8226   8
  -5  -5   7 43.8885 62.3780   4
  -5  -5   6 216.568 115.328   7
   5   5  -6 17.2527 108.931  13
   5   5  -6 267.074 80.4130  12
  -5  -5   6 252.424 77.5743   5
   5   5  -6 430.268 98.8966  10
   5   5  -6 494.765 100.735   9
  -5  -5   6 487.596 102.254   8
  -5  -5   5-5.04141 47.5139   7
   5   5  -5 37.6988 51.7458  12
   5   5  -5 11.5633 45.7175  10
   5   5  -5-26.8401 45.8826   9
  -5  -5   5 50.7166 57.3781   8
  -5  -5   4 59.1462 46.8038   7
   5   5  -4-63.4154 58.8218  12
  -5  -5   4 25.6587 45.7882   5
   5   5  -4-23.1049 52.8460  10
   5   5  -4 33.9632 50.5326   9
  -5  -5   4 91.1952 58.6893   8
  -5  -5   3 132.345 67.1784   7
   5   5  -3 35.4687 46.6110  12
  -5  -5   3 58.1310 53.7380   5
   5   5  -3 108.253 64.6091  10
   5   5  -3 144.953 75.5084   9
  -5  -5   3 61.6357 60.2608   8
  -5  -5   2 368.225 93.6407   7
   5   5  -2 380.518 90.8382  12
  -5  -5   2 293.643 79.5586   5
   5   5  -2 181.991 78.9893  10
   5   5  -2 385.773 91.9560   9
  -5  -5   2 333.221 87.5397   8
  -5  -5   1 52.9366 47.6582   7
  -5  -5   1 39.6603 62.3535   6
   5   5  -1 220.728 94.1830  12
  -5  -5   1 24.8775 42.8031   5
   5   5  -1 57.7616 56.4687  10
   5   5  -1 36.0741 59.8460   9
  -5  -5   1-53.9676 60.9363   8
  -5  -5   0 11.2308 48.0210   7
  -5  -5   0 25.3611 51.4736   6
   5   5   0 122.955 60.3127  12
  -5  -5   0 42.0148 53.7725   5
   5   5   0 48.4639 62.8919  10
   5   5   0-3.66758 59.9950   9
  -5  -5   0 27.7222 47.1345   8
  -5  -5  -1-47.6475 60.0307   7
  -5  -5  -1-135.159 75.7970   6
   5   5   1-70.2329 80.2726  12
   5   5   1-77.4629 69.1011  11
  -5  -5  -1-15.9640 53.8258   5
   5   5   1 36.3860 52.7011  10
   5   5   1 74.9170 60.9296   9
  -5  -5  -1 3.38815 48.2293   8
  -5  -5  -2-53.1850 52.6678   7
  -5  -5  -2-76.4033 61.9037   6
   5   5   2-33.6865 50.9593  11
  -5  -5  -2 18.9429 56.8427   5
   5   5   2 89.8835 66.8694  10
   5   5   2 108.956 63.1847   9
  -5  -5  -2-18.5360 47.4558   8
  -5  -5  -3 141.302 77.6338   7
  -5  -5  -3-45.0857 55.1017   6
   5   5   3-19.3151 55.5033  11
   5   5   3-49.0287 58.2083  10
   5   5   3-24.1136 55.7273   9
  -5  -5  -3-24.8097 47.5426   8
  -5  -5  -4 29.4815 53.7997   7
  -5  -5  -4-4.66806 62.9395   6
   5   5   4 360.021 108.137  11
   5   5   4 375.113 112.263  10
   5   5   4 93.1529 71.8730   9
  -5  -5  -4 22.3127 48.2330   8
  -5  -6   7-66.7322 52.8303   7
   5   6  -7 13.8553 56.3346  13
   5   6  -7 15.5373 54.1533  12
  -5  -6   7-23.3319 59.6309   5
   5   6  -7 39.2127 65.0622  10
  -5  -6   7 61.8303 74.0479   8
  -5  -6   7-14.1730 43.0777   4
  -5  -6   6 54.9235 50.8314   7
   5   6  -6-59.7055 60.0223  12
  -5  -6   6-6.67890 54.0091   5
   5   6  -6-81.7851 63.7888  10
   5   6  -6 118.584 72.2363   9
  -5  -6   6 89.0571 63.0082   8
  -5  -6   6 46.8019 53.2263   4
  -5  -6   5-67.1545 55.9262   7
   5   6  -5 12.4182 51.5459  12
   5   6  -5-76.7830 62.1293  10
  -5  -6   5-51.1569 49.5073   5
   5   6  -5-11.4859 49.8508   9
  -5  -6   5-36.9445 64.8490   8
  -5  -6   4-53.8120 61.1528   7
   5   6  -4 16.4646 52.7267  12
   5   6  -4-28.2614 49.5761  10
  -5  -6   4-16.6164 51.9003   5
   5   6  -4-83.6186 66.1732   9
  -5  -6   4 50.3630 54.6406   8
  -5  -6   3 89.0146 62.8426   7
   5   6  -3 6.17253 50.6328  12
   5   6  -3-64.3313 62.8819  10
  -5  -6   3-58.0702 55.7404   5
   5   6  -3-147.496 77.7773   9
  -5  -6   3-10.1536 51.1509   8
  -5  -6   2 15.4220 57.9624   7
   5   6  -2 33.1697 54.2901  10
  -5  -6   2-35.1517 58.2756   5
   5   6  -2 3.32196 51.6501   9
  -5  -6   2-46.2144 55.7697   8
  -5  -6   1 94.6755 60.5188   7
   5   6  -1-2.85879 50.3294  10
  -5  -6   1 84.8138 60.2286   5
   5   6  -1 16.2937 53.0093   9
  -5  -6   1 17.9218 49.2579   8
  -5  -6   0 38.8831 49.6603   7
   5   6   0 41.2945 55.2708  10
  -5  -6   0 8.03647 43.5416   5
   5   6   0 43.8672 61.6114   9
  -5  -6   0 88.9976 56.5784   8
  -5  -6  -1 0.90246 51.1305   7
   5   6   1-42.1252 50.4497  11
   5   6   1 14.7024 56.2337  10
  -5  -6  -1-119.982 68.1738   5
   5   6   1-88.9210 68.8550   9
  -5  -6  -1-98.1278 68.9959   8
  -5  -6  -2 2.50217 45.5137   7
   5   6   2-111.652 62.9376  11
   5   6   2 2.84924 50.3592  10
   5   6   2 15.6278 55.6065   9
  -5  -6  -2-22.2368 53.4484   8
   5   7  -3-47.2575 60.2636  10
  -5  -7   3 66.0608 70.0183   8
   0   0   0    0.00    0.00   0

TITL new in P2(1)/c
REM P2(1)/c (#14 in standard setting)
CELL 0.71073   5.137439  10.304723  13.934872  90.0000  99.7058  90.0000
ZERR    4.00   0.001857   0.010254   0.004920   0.0000   0.0293   0.0000
LATT  1
SYMM -x, y+1/2,-z+1/2
SFAC C H N O
UNIT 16.00 28.00 24.00 12.00
TREF
HKLF 4
END
;
_shelx_hkl_checksum              58762
_olex2_submission_special_instructions 'No special instructions were received'
_oxdiff_exptl_absorpt_empirical_details
;
Empirical correction (ABSPACK) includes:
- Absorption correction using spherical harmonics
- Frame scaling
;
_oxdiff_exptl_absorpt_empirical_full_max 3.273
_oxdiff_exptl_absorpt_empirical_full_min 0.682
loop_
_space_group_symop_operation_xyz
'x, y, z'
'-x, y+1/2, -z+1/2'
'-x, -y, -z'
'x, -y-1/2, z-1/2'
loop_
_atom_site_label
_atom_site_type_symbol
_atom_site_fract_x
_atom_site_fract_y
_atom_site_fract_z
_atom_site_U_iso_or_equiv
_atom_site_adp_type
_atom_site_occupancy
_atom_site_site_symmetry_order
_atom_site_calc_flag
_atom_site_refinement_flags_posn
_atom_site_refinement_flags_adp
_atom_site_refinement_flags_occupancy
_atom_site_disorder_assembly
_atom_site_disorder_group
C1 C 0.1107(16) 0.7847(14) 0.5402(7) 0.070(4) Uani 1 1 d . U . . .
H1 H -0.041811 0.824034 0.507598 0.084 Uiso 1 1 calc R . . . .
C2 C 0.3306(14) 0.8552(12) 0.5874(5) 0.069(3) Uani 1 1 d . U . . .
H2 H 0.353075 0.944744 0.589048 0.082 Uiso 1 1 calc R . . . .
C3 C 0.4970(17) 0.7666(14) 0.6284(5) 0.066(3) Uani 1 1 d . U . . .
H3 H 0.662304 0.782080 0.665402 0.079 Uiso 1 1 calc R . . . .
C4 C 0.4752(17) 0.5217(14) 0.6284(5) 0.059(3) Uani 1 1 d . U . . .
N1 N 0.3825(13) 0.6464(11) 0.6068(4) 0.057(3) Uani 1 1 d . U . . .
N2 N 0.1403(10) 0.6610(11) 0.5465(5) 0.064(4) Uani 1 1 d . U . . .
N3 N 0.3391(12) 0.4213(10) 0.5917(4) 0.076(3) Uani 1 1 d . U . . .
H3A H 0.399302 0.344280 0.604577 0.091 Uiso 1 1 calc R . . . .
H3B H 0.189102 0.432186 0.554556 0.091 Uiso 1 1 calc R . . . .
N4 N 0.7069(10) 0.5069(8) 0.6858(4) 0.070(4) Uani 1 1 d . U . . .
H4A H 0.769222 0.430297 0.699245 0.084 Uiso 1 1 calc R . . . .
H4B H 0.794883 0.573809 0.709605 0.084 Uiso 1 1 calc R . . . .
N5 N 0.2477(19) 0.6494(19) 0.8251(6) 0.066(6) Uani 1 1 d . . . . .
O1 O 0.4839(9) 0.6741(7) 0.8580(3) 0.075(3) Uani 1 1 d . . . . .
O2 O 0.1697(19) 0.5353(15) 0.8211(6) 0.107(6) Uani 1 1 d . . . . .
O3 O 0.0898(11) 0.7371(10) 0.7940(4) 0.085(4) Uani 1 1 d . . . . .
loop_
_atom_site_aniso_label
_atom_site_aniso_U_11
_atom_site_aniso_U_22
_atom_site_aniso_U_33
_atom_site_aniso_U_23
_atom_site_aniso_U_13
_atom_site_aniso_U_12
C1 0.057(5) 0.061(13) 0.086(6) -0.015(8) 0.000(4) 0.009(5)
C2 0.065(6) 0.066(12) 0.073(5) 0.005(6) 0.004(4) -0.008(4)
C3 0.058(5) 0.069(11) 0.066(5) 0.001(6) -0.001(4) -0.013(4)
C4 0.043(4) 0.070(11) 0.065(5) -0.001(6) 0.011(3) 0.005(4)
N1 0.035(4) 0.065(10) 0.069(4) -0.007(5) 0.004(3) -0.004(3)
N2 0.045(4) 0.065(13) 0.074(4) -0.013(6) -0.008(3) 0.003(4)
N3 0.057(5) 0.070(11) 0.091(4) -0.004(5) -0.017(3) 0.006(4)
N4 0.057(4) 0.065(14) 0.080(4) -0.014(4) -0.013(3) 0.000(3)
N5 0.056(7) 0.07(2) 0.070(4) -0.003(6) 0.001(4) -0.002(5)
O1 0.048(4) 0.071(12) 0.099(4) -0.004(4) -0.007(3) -0.008(3)
O2 0.078(6) 0.08(2) 0.152(6) -0.010(7) -0.022(4) -0.014(6)
O3 0.054(4) 0.103(15) 0.094(4) 0.018(5) -0.002(3) 0.010(4)
loop_
_atom_type_symbol
_atom_type_description
_atom_type_scat_dispersion_real
_atom_type_scat_dispersion_imag
_atom_type_scat_source
C C 0.0033 0.0016 'International Tables Vol C Tables 4.2.6.8 and 6.1.1.4'
H H 0.0000 0.0000 'International Tables Vol C Tables 4.2.6.8 and 6.1.1.4'
N N 0.0061 0.0033 'International Tables Vol C Tables 4.2.6.8 and 6.1.1.4'
O O 0.0106 0.0060 'International Tables Vol C Tables 4.2.6.8 and 6.1.1.4'
loop_
_geom_angle_atom_site_label_1
_geom_angle_atom_site_label_2
_geom_angle_atom_site_label_3
_geom_angle
_geom_angle_site_symmetry_1
_geom_angle_site_symmetry_3
_geom_angle_publ_flag
N2 C1 C2 113.8(8) . . ?
C3 C2 C1 104.9(12) . . ?
C2 C3 N1 107.8(9) . . ?
N3 C4 N1 120.6(9) . . ?
N3 C4 N4 120.9(12) . . ?
N4 C4 N1 118.6(12) . . ?
C3 N1 C4 131.8(10) . . ?
C3 N1 N2 109.9(11) . . ?
C4 N1 N2 118.1(11) . . ?
C1 N2 N1 103.4(9) . . ?
O2 N5 O1 119.8(19) . . ?
O2 N5 O3 119.1(11) . . ?
O3 N5 O1 121.1(17) . . ?
loop_
_geom_bond_atom_site_label_1
_geom_bond_atom_site_label_2
_geom_bond_distance
_geom_bond_site_symmetry_2
_geom_bond_publ_flag
C1 C2 1.409(14) . ?
C1 N2 1.285(14) . ?
C2 C3 1.313(15) . ?
C3 N1 1.382(16) . ?
C4 N1 1.386(16) . ?
C4 N3 1.304(14) . ?
C4 N4 1.326(9) . ?
N1 N2 1.387(9) . ?
N5 O1 1.249(9) . ?
N5 O2 1.24(2) . ?
N5 O3 1.243(19) . ?

_cod_database_fobs_code 2108908
