#------------------------------------------------------------------------------
#$Date: 2022-01-01 06:19:30 +0200 (Sat, 01 Jan 2022) $
#$Revision: 271667 $
#$URL: file:///home/coder/svn-repositories/cod/cif/2/10/89/2108915.cif $
#------------------------------------------------------------------------------
#
# This file is available in the Crystallography Open Database (COD),
# http://www.crystallography.net/. The original data for this entry
# were provided by IUCr Journals, http://journals.iucr.org/.
#
# The file may be used within the scientific community so long as
# proper attribution is given to the journal article from which the
# data were obtained.
#
data_2108915
loop_
_publ_author_name
'Rejnhardt, Piotr'
'Drozd, Marek'
'Daszkiewicz, Marek'
_publ_section_title
;
 Low-temperature phase transition and high-pressure phase stability of
 1<i>H</i>-pyrazole-1-carboxamidine nitrate
;
_journal_issue                   6
_journal_name_full               'Acta Crystallographica Section B'
_journal_page_first              996
_journal_page_last               1002
_journal_paper_doi               10.1107/S2052520621010970
_journal_volume                  77
_journal_year                    2021
_chemical_formula_moiety         'C4 H7 N4, N O3'
_chemical_formula_sum            'C4 H7 N5 O3'
_chemical_formula_weight         173.15
_space_group_crystal_system      monoclinic
_space_group_IT_number           14
_space_group_name_Hall           '-P 2ybc'
_space_group_name_H-M_alt        'P 1 21/c 1'
_atom_sites_solution_hydrogens   geom
_atom_sites_solution_primary     direct
_audit_creation_date             2021-07-12
_audit_creation_method
;
Olex2 1.2
(compiled 2018.05.29 svn.r3508 for OlexSys, GUI svn.r5506)
;
_cell_angle_alpha                90
_cell_angle_beta                 99.13(4)
_cell_angle_gamma                90
_cell_formula_units_Z            4
_cell_length_a                   5.0956(10)
_cell_length_b                   10.1775(10)
_cell_length_c                   13.792(9)
_cell_measurement_reflns_used    1269
_cell_measurement_temperature    293(2)
_cell_measurement_theta_max      21.9690
_cell_measurement_theta_min      3.9950
_cell_volume                     706.2(5)
_computing_cell_refinement       'CrysAlisPro 1.171.39.46 (Rigaku OD, 2018)'
_computing_data_collection       'CrysAlisPro 1.171.39.46 (Rigaku OD, 2018)'
_computing_data_reduction        'CrysAlisPro 1.171.39.46 (Rigaku OD, 2018)'
_computing_molecular_graphics    'Olex2 (Dolomanov et al., 2009)'
_computing_publication_material  'Olex2 (Dolomanov et al., 2009)'
_computing_structure_refinement  'ShelXL (Sheldrick, 2015)'
_computing_structure_solution    'ShelXS (Sheldrick, 2008)'
_diffrn_ambient_temperature      293(2)
_diffrn_detector                 'CCD plate'
_diffrn_detector_area_resol_mean 8.2214
_diffrn_detector_type            'Sapphire2, large Be window'
_diffrn_measured_fraction_theta_full 0.358
_diffrn_measured_fraction_theta_max 0.358
_diffrn_measurement_details
;
List of Runs (angles in degrees, time in seconds):

  # Type    Start    End  Width  t~exp~   \w     \q     \k     \f   Frames
--------------------------------------------------------------------------
  1  \w    -20.00  31.60   0.60   30.00    --   25.00   0.00   0.00   86
  2  \w    -20.00  35.80   0.60   30.00    --   25.00   0.00 180.00   93
  3  \w     -3.00  46.80   0.60   30.00    --   25.00 -40.00-170.00   83
  4  \w     -3.00  46.80   0.60   30.00    --   25.00 -40.00  10.00   83
  5  \w      8.00  65.00   0.60   30.00    --   25.00 -82.00  30.00   95
  6  \w      8.00  65.00   0.60   30.00    --   25.00 -82.00-150.00   95
  7  \w     32.50  88.90   0.60   30.00    --   25.00-135.00-122.00   94
  8  \w     32.00  89.00   0.60   30.00    --   25.00-135.00  58.00   95
  9  \w     25.00  46.60   0.60   30.00    --  -25.00-135.00  58.00   36
 10  \w     25.00  46.60   0.60   30.00    --  -25.00-135.00-122.00   36
 11  \w      0.00  22.80   0.60   30.00    --  -25.00 -82.00-150.00   38
 12  \w      0.00  22.80   0.60   30.00    --  -25.00 -82.00  30.00   38
 13  \w    -19.00  17.00   0.60   30.00    --  -25.00 -40.00  10.00   60
 14  \w    -19.00  17.00   0.60   30.00    --  -25.00 -40.00-170.00   60
 15  \w    -33.00  21.60   0.60   30.00    --  -25.00   0.00 180.00   91
 16  \w    -33.00  21.60   0.60   30.00    --  -25.00   0.00   0.00   91
;
_diffrn_measurement_device       'four-circle diffractometer'
_diffrn_measurement_device_type  'Xcalibur, Sapphire2, large Be window'
_diffrn_measurement_method       '\w scans'
_diffrn_orient_matrix_type
'CrysAlisPro convention (1999,Acta A55,543-557)'
_diffrn_orient_matrix_UB_11      -0.0564215000
_diffrn_orient_matrix_UB_12      -0.0155848000
_diffrn_orient_matrix_UB_13      0.0424116000
_diffrn_orient_matrix_UB_21      -0.1290724000
_diffrn_orient_matrix_UB_22      0.0035452000
_diffrn_orient_matrix_UB_23      -0.0280606000
_diffrn_orient_matrix_UB_31      0.0062122000
_diffrn_orient_matrix_UB_32      -0.0678261000
_diffrn_orient_matrix_UB_33      -0.0112394000
_diffrn_radiation_monochromator  graphite
_diffrn_radiation_probe          x-ray
_diffrn_radiation_type           MoK\a
_diffrn_radiation_wavelength     0.71073
_diffrn_reflns_av_R_equivalents  0.0603
_diffrn_reflns_av_unetI/netI     0.0378
_diffrn_reflns_Laue_measured_fraction_full 0.358
_diffrn_reflns_Laue_measured_fraction_max 0.358
_diffrn_reflns_limit_h_max       5
_diffrn_reflns_limit_h_min       -5
_diffrn_reflns_limit_k_max       12
_diffrn_reflns_limit_k_min       -12
_diffrn_reflns_limit_l_max       9
_diffrn_reflns_limit_l_min       -8
_diffrn_reflns_number            3896
_diffrn_reflns_point_group_measured_fraction_full 0.358
_diffrn_reflns_point_group_measured_fraction_max 0.358
_diffrn_reflns_theta_full        25.007
_diffrn_reflns_theta_max         25.007
_diffrn_reflns_theta_min         4.004
_diffrn_source                   'fine-focus sealed X-ray tube'
_diffrn_source_type              'Enhance (Mo) X-ray Source'
_exptl_absorpt_coefficient_mu    0.139
_exptl_absorpt_correction_T_max  1.00000
_exptl_absorpt_correction_T_min  0.31682
_exptl_absorpt_correction_type   multi-scan
_exptl_absorpt_process_details
;
CrysAlisPro 1.171.39.46 (Rigaku Oxford Diffraction, 2018)
Empirical absorption correction using spherical harmonics,
 implemented in SCALE3 ABSPACK scaling algorithm.
;
_exptl_crystal_colour            colourless
_exptl_crystal_density_diffrn    1.629
_exptl_crystal_description       prism
_exptl_crystal_F_000             360
_refine_diff_density_max         0.145
_refine_diff_density_min         -0.134
_refine_diff_density_rms         0.035
_refine_ls_extinction_coef       0.031(15)
_refine_ls_extinction_expression Fc^*^=kFc[1+0.001xFc^2^\l^3^/sin(2\q)]^-1/4^
_refine_ls_extinction_method     'SHELXL-2018/3 (Sheldrick 2018)'
_refine_ls_goodness_of_fit_ref   1.087
_refine_ls_hydrogen_treatment    constr
_refine_ls_matrix_type           full
_refine_ls_number_parameters     110
_refine_ls_number_reflns         445
_refine_ls_number_restraints     0
_refine_ls_restrained_S_all      1.087
_refine_ls_R_factor_all          0.0768
_refine_ls_R_factor_gt           0.0512
_refine_ls_shift/su_max          0.000
_refine_ls_shift/su_mean         0.000
_refine_ls_structure_factor_coef Fsqd
_refine_ls_weighting_details
'w=1/[\s^2^(Fo^2^)+(0.0676P)^2^+0.7303P] where P=(Fo^2^+2Fc^2^)/3'
_refine_ls_weighting_scheme      calc
_refine_ls_wR_factor_gt          0.1217
_refine_ls_wR_factor_ref         0.1404
_reflns_Friedel_coverage         0.000
_reflns_number_gt                332
_reflns_number_total             445
_reflns_threshold_expression     'I > 2\s(I)'
_cod_data_source_file            xk5086sup1.cif
_cod_data_source_block           0.46GPa
_cod_database_code               2108915
_shelx_shelxl_version_number     2018/3
_chemical_oxdiff_formula         C4N4NO3H7
_shelx_space_group_comment
;
The symmetry employed for this shelxl refinement is uniquely defined
by the following loop, which should always be used as a source of
symmetry information in preference to the above space-group names.
They are only intended as comments.
;
_reflns_odcompleteness_completeness 35.12
_reflns_odcompleteness_iscentric 1
_reflns_odcompleteness_theta     24.95
_olex2_refinement_description
;
1. Fixed Uiso
 At 1.2 times of:
  All C(H) groups, All N(H,H) groups
2.a Aromatic/amide H refined with riding coordinates:
 C1(H1), C2(H2), C3(H3)
2.b X=CH2 refined with riding coordinates:
 N3(H3A,H3B), N4(H4A,H4B)
;
_shelx_res_file
;
TITL instrument in P21/c #14
    instrument.res
    created by SHELXL-2018/3 at 16:11:16 on 12-Jul-2021
REM reset to P21/c #14
CELL 0.71073 5.09561 10.177467 13.791948 90 99.1269 90
ZERR 4 0.001015 0.000989 0.008966 0 0.0397 0
LATT 1
SYMM -X,0.5+Y,0.5-Z
SFAC C H N O
UNIT 16 28 20 12

L.S. 99
PLAN  20
BOND
fmap 2 53
ACTA
OMIT 2 7 8
OMIT 5 0 4
OMIT 4 3 1
OMIT 4 8 1
REM <olex2.extras>
REM <HklSrc "%.\\instrument.hkl">
REM </olex2.extras>

WGHT    0.067600    0.730300
EXTI    0.031225
FVAR       2.36400
C1    1    0.105735    0.790089    0.537981    11.00000    0.05975    0.04245 =
         0.07051    0.00524   -0.00743   -0.00087
AFIX  43
H1    2   -0.042104    0.829642    0.501271    11.00000   -1.20000
AFIX   0
C2    1    0.323346    0.859639    0.588464    11.00000    0.06446    0.03973 =
         0.05736   -0.00849    0.00798   -0.00203
AFIX  43
H2    2    0.345941    0.950315    0.591083    11.00000   -1.20000
AFIX   0
C3    1    0.492651    0.768060    0.632318    11.00000    0.06191    0.04370 =
         0.07150   -0.00812   -0.01681   -0.00652
AFIX  43
H3    2    0.653608    0.782846    0.673062    11.00000   -1.20000
AFIX   0
C4    1    0.476946    0.523695    0.629579    11.00000    0.03182    0.04027 =
         0.05461    0.00424    0.01038    0.00002
N1    3    0.380154    0.648600    0.604854    11.00000    0.04901    0.03657 =
         0.08141    0.00099   -0.02184   -0.00203
N2    3    0.135957    0.661981    0.548823    11.00000    0.03879    0.04021 =
         0.08589    0.00302   -0.00947   -0.00044
N3    3    0.338520    0.424310    0.590958    11.00000    0.06856    0.03443 =
         0.13219   -0.00316   -0.04392    0.00204
AFIX  93
H3A   2    0.397702    0.345696    0.601959    11.00000   -1.20000
H3B   2    0.187632    0.437084    0.554371    11.00000   -1.20000
AFIX   0
N4    3    0.706450    0.510058    0.685493    11.00000    0.05841    0.05413 =
         0.08771    0.00398   -0.03096    0.00197
AFIX  93
H4A   2    0.771876    0.432903    0.698098    11.00000   -1.20000
H4B   2    0.792603    0.578207    0.709816    11.00000   -1.20000
AFIX   0

N5    3    0.245553    0.647517    0.825263    11.00000    0.05658    0.04674 =
         0.09075   -0.00107   -0.01860    0.00236
O1    4    0.485710    0.673539    0.855835    11.00000    0.05094    0.04568 =
         0.10433   -0.00644   -0.02323   -0.00414
O2    4    0.166536    0.533603    0.823769    11.00000    0.06814    0.04603 =
         0.15340   -0.00217   -0.03005   -0.01415
O3    4    0.086473    0.737625    0.793407    11.00000    0.05538    0.05950 =
         0.09442    0.01176   -0.01439    0.00548
HKLF 4




REM  instrument in P21/c #14
REM wR2 = 0.1404, GooF = S = 1.087, Restrained GooF = 1.087 for all data
REM R1 = 0.0512 for 332 Fo > 4sig(Fo) and 0.0768 for all 445 data
REM 110 parameters refined using 0 restraints

END

WGHT      0.0678      0.7257

REM Highest difference peak  0.145,  deepest hole -0.134,  1-sigma level  0.035
Q1    1   0.3546  0.7575  0.8772  11.00000  0.05    0.15
Q2    1  -0.0144  0.3554  0.5452  11.00000  0.05    0.12
Q3    1   0.9539  0.7421  0.6541  11.00000  0.05    0.12
Q4    1   0.6567  0.7447  0.7387  11.00000  0.05    0.11
Q5    1   0.7272  0.6130  0.9071  11.00000  0.05    0.10
Q6    1   0.3959  0.9977  0.5949  11.00000  0.05    0.10
Q7    1   0.3358  0.8354  0.6965  11.00000  0.05    0.10
Q8    1  -0.0052  0.5862  0.5370  11.00000  0.05    0.10
Q9    1   0.9091  0.5082  0.7875  11.00000  0.05    0.10
Q10   1   0.8889  0.6179  0.7052  11.00000  0.05    0.10
Q11   1  -0.1183  0.8047  0.7804  11.00000  0.05    0.10
Q12   1   0.4237  0.9065  0.5234  11.00000  0.05    0.10
Q13   1   0.4648  0.9246  0.6822  11.00000  0.05    0.09
Q14   1   0.1908  1.0380  0.5527  11.00000  0.05    0.09
Q15   1  -0.0392  0.6284  0.8244  11.00000  0.05    0.09
Q16   1   0.0682  0.8393  0.8081  11.00000  0.05    0.09
Q17   1   0.1618  0.4255  0.5814  11.00000  0.05    0.09
Q18   1   0.1931  0.4585  0.5214  11.00000  0.05    0.09
Q19   1   0.3696  0.9167  0.5391  11.00000  0.05    0.09
Q20   1   0.6215  0.3633  0.6518  11.00000  0.05    0.09
;
_shelx_res_checksum              7915
_shelx_hkl_file
;
   0  -2   0 3216.51 104.043   7
   0   2   0 3326.94 104.446   9
   0  -2   0 3204.11 93.5716   5
   0  -2   0 3048.76 94.8593   6
   0  -2   0 3627.58 92.6169   3
   0   2   0 3199.15 94.4078  12
   0  -2   0 3387.16 105.046   8
   0   2   1 12131.3 129.220  14
   0   2   1 12172.0 160.925  13
   0  -2  -1 11994.5 124.314   3
   0   2   1 12160.4 179.244  11
   0  -2  -1 12142.2 197.397   5
   0  -2  -1 12084.3 162.150   4
   0  -2  -1 11868.4 203.385   7
   0  -2  -1 12578.5 204.450   8
   0  -2  -1 11927.2 182.458   6
   0  -2  -2 2091.16 91.0801   8
   0  -2  -2 2180.34 95.5593   5
   0   2   2 2095.38 90.9135  10
   0  -2  -2 1961.27 89.1914   7
   0  -2  -2 2037.13 83.4671   4
   0  -2  -2 2065.97 78.5555   6
   0  -3   0 9.89445 9.17219   6
   0  -3   0 9.61410 5.56897   4
   0  -3   0-1.72411 8.36295   7
   0  -3   0 1.10366 6.55566   5
   0  -3   0 6.48337 12.1751   8
   0   3   0 3.28955 6.65291   9
   0   3   0 2.61462 7.94297  12
   0  -3  -1 4087.55 137.377   5
   0  -3  -1 4225.22 146.028   8
   0  -3   1 3947.28 190.349   7
   0  -3  -1 4145.30 132.161   6
   0   3   1 4033.46 107.080  13
   0   3   1 4229.57 139.664  12
   0  -3  -1 4219.17 147.440   7
   0   3   1 3954.31 90.6426  14
   0  -3  -1 3865.16 91.7183   3
   0  -3   1 3487.21 174.201   8
   0  -3  -1 4100.64 110.360   4
   0  -3  -2 1499.23 89.6174   8
   0   3   2 1518.09 90.5996  10
   0  -3  -2 1529.05 89.8513   5
   0   3   2 1499.41 44.2897  16
   0  -3  -2 1439.74 89.4808   7
   0  -3  -2 1416.39 51.8904   3
   0  -3  -2 1509.09 42.6394  15
   0   3   2 1566.67 45.8692   1
   0   3   2 1469.49 76.9644  11
   0  -3  -2 1475.77 76.3227   4
   0  -3  -2 1475.31 79.5399   6
   0  -3  -2 1512.14 43.4787   2
   0   3   3 10875.6 259.330  10
   0  -3  -3 10944.6 267.576   5
   0  -3  -3 10832.2 264.731   7
   0  -3  -3 10434.1 217.641   6
   0  -3  -3 11190.3 262.154   8
   0  -4   0 1005.45 59.1439   4
   0  -4   0 1004.92 83.3209   8
   0  -4   0 978.701 81.1380   6
   0  -4   0 963.832 74.8241   5
   0  -4   0 989.059 82.4677   7
   0   4   0 959.279 80.3242   9
   0   4   0 1005.43 76.6443  12
   0  -4   1 1059.90 109.295   7
   0   4   1 1117.64 67.5724  13
   0  -4  -1 987.231 56.9338   3
   0  -4  -1 1067.72 85.0096   7
   0  -4  -1 1041.76 78.7721   5
   0   4   1 1008.19 78.5335  12
   0  -4  -1 1017.73 61.5292   4
   0  -4   1 910.732 97.8949   5
   0   4  -1 1141.65 100.387   9
   0   4   1 971.199 53.7434  14
   0  -4  -1 998.545 76.5928   6
   0  -4   1 1135.58 111.462   8
   0  -4   1 455.563 71.3460   6
   0   4   1 1053.54 85.2089   9
   0  -4  -1 1004.72 81.9278   8
   0  -4  -2 7542.62 234.168   8
   0  -4  -2 7579.38 234.034   7
   0   4   2 7315.44 178.667  13
   0  -4  -2 7182.17 204.878   6
   0   4   2 7397.18 200.942  11
   0   4   2 7555.90 231.466  10
   0  -4  -2 7378.89 140.130   3
   0  -4  -2 7252.24 220.037   5
   0  -4  -2 7227.86 180.895   4
   0  -4  -3 1755.59 100.240   4
   0  -4  -3 1817.42 117.590   5
   0   4   3 1874.65 104.979  11
   0  -4  -3 1915.24 61.6535  15
   0   4   3 1933.37 64.1948  16
   0  -4  -3 1804.19 120.781   7
   0   4   3 1779.04 118.254  10
   0  -4  -3 1911.87 107.229   6
   0  -4  -3 1750.56 67.1864   3
   0  -4  -3 1852.35 119.391   8
   0   4   4 623.365 76.7403  10
   0  -4  -4 675.493 80.7646   7
   0  -4  -4 681.795 78.0545   8
   0  -4  -4 694.272 69.3247   6
   0  -4  -4 592.585 77.5715   5
   0  -5   0 18.5488 15.8678   4
   0   5   0 17.7462 21.4872  12
   0  -5   0 32.3869 27.3872   6
   0  -5   0 21.3415 21.4599   8
   0   5   0 46.3076 29.5653   9
   0  -5   0 19.7301 19.1054   5
   0  -5   0 28.0525 25.0991   7
   0  -5   1 1735.87 158.500   7
   0   5   1 1565.60 116.600   9
   0  -5  -1 1581.47 108.344   5
   0  -5  -1 1726.25 120.767   8
   0   5   1 1129.94 84.2511  13
   0  -5  -1 1630.80 117.937   7
   0  -5   1 1632.16 144.747   5
   0   5  -1 1801.17 143.734   9
   0   5   1 1697.28 114.346  12
   0  -5  -1 1578.35 108.365   6
   0   5   1 1602.59 82.6041  14
   0  -5   1 1770.16 158.798   8
   0  -5  -1 1668.34 85.7968   4
   0   5   2 682.232 68.0404  11
   0   5   2 672.497 74.3357  12
   0   5   2 664.795 57.7626  13
   0  -5  -2 692.280 49.4675   3
   0  -5  -2 648.727 75.1880   7
   0  -5  -2 626.734 56.2857   4
   0  -5  -2 695.020 71.4699   6
   0  -5  -2 706.111 77.5730   5
   0  -5  -2 707.887 78.6977   8
   0   5   2 709.433 81.0312  10
   0  -5  -3 62.0970 22.6716   8
   0  -5  -3 76.9950 30.5037   7
   0  -5  -3 83.5758 24.9104   6
   0   5   3 76.9487 26.9209  10
   0   5   3 86.0552 25.1501  13
   0  -5  -3 53.6424 22.4143   5
   0  -5  -3 56.7383 20.6663   4
   0  -5  -3 76.1065 16.2774   3
   0   5   3 102.571 29.9536  11
   0  -5  -4 2713.64 165.941   8
   0  -5  -4 2755.01 169.842   5
   0  -5  -4 2482.38 90.7578   3
   0   5   4 2762.55 146.416  13
   0   5   4 2760.44 91.0081  16
   0   5   4 2587.21 165.173  10
   0  -5  -4 2844.50 88.4409  15
   0  -5  -4 2729.59 151.055   6
   0  -5  -4 2788.67 174.657   7
   0  -5  -5 5.16166 18.9267   6
   0  -5  -5-33.6779 39.9375   7
   0  -5  -5-23.4156 26.1453   8
   0  -5  -5-12.3020 18.2165   5
   0  -6   0 5190.51 245.778   8
   0  -6   0 5219.09 242.183   7
   0  -6   0 5378.83 175.951   4
   0   6   0 5116.31 174.543  14
   0   6   0 5028.93 233.167   9
   0  -6   0 5290.93 224.954   5
   0  -6   0 5512.98 255.872   6
   0  -6  -1 435.753 68.3969   8
   0   6   1 551.965 71.2904  12
   0   6   1 512.855 74.2214   9
   0  -6  -1 522.320 70.6707   5
   0  -6  -1 503.927 71.1252   7
   0  -6   1 400.920 84.0806   5
   0  -6  -1 511.494 53.1977   4
   0  -6   1 445.460 93.8685   7
   0  -6   1 460.731 95.1694   8
   0  -6  -1 547.831 73.3160   6
   0   6   1 511.941 48.3594  14
   0   6   2 19.3010 14.5740  13
   0   6   2 66.8758 30.8704  12
   0  -6  -2 50.6349 20.7997   4
   0  -6  -2 51.5358 23.6623   6
   0  -6  -2 48.7542 33.0098   8
   0   6   2 49.9027 21.1841  11
   0   6   2 51.0062 28.0361  10
   0   6   2 39.8675 28.8641   9
   0   6   2 32.5220 13.8057  14
   0  -6  -2 36.9913 25.0866   7
   0  -6  -2 48.6460 18.2229   5
   0  -6  -3 810.032 76.8294   4
   0   6   3 804.710 95.2390  10
   0  -6  -3 810.452 95.9440   8
   0  -6  -3 767.965 54.7061   3
   0  -6  -3 795.609 88.5543   6
   0   6   3 777.472 82.4512  11
   0   6   3 807.800 91.9202  12
   0   6   3 745.160 72.0047  13
   0  -6  -3 818.081 90.8800   5
   0  -6  -3 790.153 97.1428   7
   0   6   4 1133.84 95.0571  13
   0   6   4 1053.20 112.585  10
   0  -6  -4 1199.07 123.072   7
   0  -6  -4 1141.13 105.922   6
   0  -6  -4 1138.00 65.9584   3
   0  -6  -4 1117.69 115.122   5
   0  -6  -4 1102.72 117.308   8
   0  -6  -5 441.399 47.0788   3
   0  -6  -5 461.623 38.5277  15
   0  -6  -5 421.678 75.5682   8
   0   6   5 407.429 65.2881  13
   0  -6  -5 501.898 76.2539   6
   0   6   5 413.761 78.4749  10
   0  -6  -5 389.297 74.0676   5
   0  -6  -5 510.926 86.8346   7
   0  -7   0-10.4263 23.5570   7
   0  -7   0-5.32499 26.0557   8
   0  -7   0-9.71800 16.4788   4
   0  -7   0-16.6068 21.8738   6
   0   7   0 2.14877 29.2435   9
   0  -7   0-13.2321 17.1926   5
   0   7   0 33.0627 24.4628  14
   0   7   1 359.252 67.9612   9
   0  -7  -1 396.009 68.7297   5
   0  -7  -1 392.738 71.4161   8
   0   7   1 394.364 46.2355  14
   0  -7  -1 400.897 74.9323   6
   0   7   1 398.909 69.4277  12
   0   7   1 378.490 66.9834  11
   0  -7  -1 396.200 50.4443   4
   0  -7  -1 378.996 69.3979   7
   0  -7  -2 59.1972 28.1359   8
   0  -7  -2 15.3604 17.8695   7
   0   7   2 39.9802 19.2708  12
   0   7   2 74.1162 40.8839  10
   0  -7  -2 89.8994 29.7262   4
   0   7   2 91.1269 38.4086  11
   0   7   2 100.887 39.0298   9
   0  -7  -2 67.1243 29.6073   6
   0  -7  -2 24.8535 18.6290   5
   0  -7  -3-7.99105 17.0305   5
   0   7   3 1.44634 17.1274  11
   0   7   3-7.87476 36.6291  10
   0   7   3 12.4001 14.0775  13
   0  -7  -3 3.83115 12.4175   4
   0  -7  -3-32.1612 28.9415   6
   0   7   3-11.9755 26.9029  12
   0   7   3 15.5395 21.2441   9
   0  -7  -3 18.8830 25.0705   7
   0  -7  -3 7.97882 16.4024   8
   0  -7  -4 655.336 96.8604   8
   0  -7  -4 656.904 96.2651   5
   0  -7  -4 669.236 99.3931   7
   0   7   4 652.654 96.0512  12
   0  -7  -4 617.559 81.4691   6
   0   7   4 578.596 90.6276  10
   0   7   4 631.946 72.5422  13
   0  -7  -5 214.065 67.9789   7
   0  -7  -5 143.863 47.2485   6
   0   7   5 185.273 56.9874  10
   0   7   5 145.915 40.0228  13
   0  -7  -5 144.003 53.0977   5
   0  -7  -5 199.466 56.5728   8
   0   7   6 347.823 70.4849  13
   0  -7  -6 356.680 72.0018   6
   0  -7  -6 551.705 101.413   7
   0  -8   0 150.185 53.2080   5
   0  -8   0 143.640 61.7442   8
   0   8   0 152.742 34.2417  14
   0  -8   0 172.559 59.5729   7
   0   8   0 159.995 56.8974   9
   0  -8   0 141.578 31.8262   4
   0   8   1 3352.52 222.382   9
   0  -8  -1 3468.65 240.364   6
   0   8   1 3381.21 207.794  11
   0  -8  -1 3049.30 217.868   7
   0  -8  -1 3517.16 166.867   4
   0  -8  -1 3231.23 210.187   5
   0  -8  -1 3635.58 237.387   8
   0   8   2 498.828 78.1192  12
   0  -8  -2 499.058 89.0691   8
   0   8   2 524.763 87.7386   9
   0  -8  -2 520.575 86.8899   6
   0   8   2 583.307 97.2121  10
   0  -8  -2 498.950 88.1219   7
   0   8   2 541.558 82.0991  11
   0  -8  -2 562.583 84.6842   5
   0  -8  -2 540.781 72.0082   4
   0  -8  -3 1776.89 166.643   8
   0   8   3 1841.91 167.461  10
   0  -8  -3 1617.29 155.267   7
   0  -8  -3 1650.26 148.185   5
   0   8   3 1816.24 156.788  12
   0   8   3 1770.90 147.194  11
   0  -8  -3 1726.98 150.791   6
   0   8   3 1710.94 161.497   9
   0  -8  -3 1828.57 133.283   4
   0   8   4 56.5059 35.2493   9
   0   8   4 56.9272 33.8358  13
   0   8   4-12.1921 32.3198  11
   0  -8  -4 27.7026 37.7957   7
   0  -8  -4 45.5235 32.2736   6
   0   8   4-18.0282 28.5386  12
   0   8   4 48.0263 47.4758  10
   0  -8  -4 9.91706 20.8977   8
   0  -8  -4 69.3475 43.5811   5
   0  -8  -5 661.017 106.514   6
   0  -8  -5 592.859 100.389   5
   0  -8  -5 599.477 105.816   7
   0  -8  -5 612.247 106.703   8
   0   8   5 558.728 101.498  10
   0   8   5 545.217 96.3466  12
   0   8   5 532.144 75.7824  13
   0   8   6 16.9291 26.3663  13
   0  -8  -6 7.90793 24.4624   8
   0  -8  -6 21.2312 27.5880   6
   0   8   6-5.83820 29.2498  10
   0   8   6 0.38489 36.3058  12
   0  -8  -6-1.03184 51.0918   7
   0  -8  -6-10.6378 25.2438   5
   0  -9   0 64.3972 61.3424   5
   0  -9   0-40.6907 62.8883   7
   0  -9   0 30.7576 80.0990   8
   0  -9  -1 404.532 87.5867   5
   0  -9  -1 175.249 76.4201   6
   0  -9  -1 264.096 70.2369   7
   0   9   1 271.247 75.6745   9
   0   9   1 318.816 72.3278  11
   0  -9  -1 266.273 76.6148   8
   0   9   2 730.194 104.719  11
   0  -9  -2 760.374 120.402   6
   0   9   2 618.205 103.729   9
   0  -9  -2 595.796 97.6565   5
   0  -9  -2 631.424 109.306   7
   0   9   2 731.772 113.611  12
   0   9   2 644.207 108.812  10
   0  -9  -2 757.457 118.162   8
   0   9   3 529.279 99.4610   9
   0  -9  -3 539.905 98.5489   5
   0  -9  -3 626.587 106.135   6
   0  -9  -3 498.740 94.3869   8
   0   9   3 490.271 90.1682  10
   0  -9  -3 475.838 95.0103   7
   0   9   3 508.043 89.9954  11
   0   9   3 532.161 93.7601  12
   0   9   4 720.778 113.527  10
   0  -9  -4 827.551 118.981   5
   0  -9  -4 827.297 116.378   6
   0  -9  -4 839.716 125.458   7
   0   9   4 966.593 137.157   9
   0   9   4 755.707 114.431  12
   0  -9  -4 718.159 114.895   8
   0   9   4 867.921 116.435  11
   0  -9  -5 170.592 57.1641   8
   0  -9  -5 82.2092 57.7949   7
   0  -9  -5 94.7256 36.5111   6
   0   9   5 65.9618 42.4127  12
   0  -9  -5 99.0534 50.8685   5
   0   9   5 100.549 61.5154  10
   0   9   5 79.7494 42.0714   9
   0  -9  -6 786.344 136.165   8
   0  -9  -6 1066.46 162.829   7
   0   9   6 823.144 140.245   9
   0   9   6 921.236 147.956  12
   0   9   6 826.345 137.754  10
   0  -9  -6 464.399 99.5559   5
   0  10   1 166.119 74.3463  11
   0  10   1 131.305 70.3343  10
   0  10   1 126.243 50.1209   9
   0 -10  -1 164.505 95.0167   8
   0 -10  -1 54.2229 49.5013   5
   0 -10  -1 90.8174 40.1043   7
   0  10   2 24.1618 31.9773   9
   0 -10  -2-33.3088 49.8061   6
   0  10   2 71.1988 49.8212  10
   0 -10  -2 20.9670 37.1258   8
   0  10   2-75.1865 56.5866  11
   0 -10  -2-23.0777 34.7918   7
   0 -10  -2-62.2075 54.9664   5
   0  10   3 112.831 59.8115  10
   0 -10  -3 186.082 77.7983   5
   0 -10  -3 130.308 64.7195   6
   0  10   3 160.348 56.5569   9
   0  10   3 107.755 42.9669  11
   0 -10  -3 47.1463 30.0984   8
   0  10   3 117.717 32.0711  12
   0 -10  -3 142.758 61.2841   7
   0 -10  -4 262.312 80.1355   8
   0 -10  -4 246.966 74.2715   5
   0  10   4 295.109 88.0585   9
   0  10   4 303.548 85.1022  12
   0 -10  -4 304.507 87.0453   6
   0 -10  -4 367.642 99.5528   7
   0  10   4 262.128 71.1049  10
   0  10   4 257.180 68.4733  11
   0  10   5 14.2869 31.9711  12
   0 -10  -5 72.1516 47.5050   7
   0 -10  -5 4.82188 43.8292   8
   0 -10  -5 17.3667 31.7340   5
   0  10   5-9.49479 45.1079   9
   0  10   5 47.0762 47.5439  10
   0 -10  -5 26.7030 27.9532   6
   0 -10  -6 8.37193 45.4150   7
   0 -10  -6 5.19386 53.0049   8
   0  10   6 27.7676 52.4228   9
   0  10   6-63.8888 60.2176  10
   0  10   6-12.0836 40.9760  12
   0 -11  -2-23.5432 51.0881   5
   0  11   2 76.0324 53.1523  10
   0  11   2 128.113 59.5979   9
   0  11   2 43.3421 49.7833  11
   0 -11  -2 134.674 63.1820   7
   0 -11  -3 60.6072 47.3155   7
   0  11   3 9.39798 84.0190  10
   0  11   3 181.581 67.8719   9
   0  11   3 106.084 35.9674  11
   0 -11  -3 105.538 64.3751   8
   0 -11  -3 161.204 75.0591   5
   0  11   4 51.7987 32.7926   9
   0  11   4 10.6446 35.3821  12
   0  11   4-42.8901 65.6713  10
   0 -11  -4 47.4553 52.0083   8
   0 -11  -4 99.3241 71.6886   7
   0 -11  -4 43.6828 45.6063   6
   0 -11  -4 52.8589 32.5789   5
   0 -11  -5 16.1328 61.0277   8
   0 -11  -5-21.9494 40.4370   7
   0 -11  -5 18.6458 44.7300   5
   0  11   5 17.4248 35.8040   9
   0  11   5-17.4677 43.8236  12
   0 -11  -6-44.6730 54.1673   8
   0  11   6 26.5923 48.7224  12
   0  11   6 87.3659 66.6360  10
   0 -11  -6 18.7808 61.5564   7
   0  11   6-21.5870 66.5555   9
   0 -12  -2-17.2494 85.3787   8
   0  12   2 18.5266 94.9722  10
   1   0   0 9555.19 185.067  16
  -1   0   0 8919.50 175.128  15
  -1   0  -1 12.9995 6.75092  14
  -1   0  -1 7.82742 6.98070   1
  -1   0  -1 16.4170 8.80109   4
  -1   0  -1 11.0203 6.97618  11
   1   0   1 6.63323 4.02420   6
   1   0   1 20.9946 8.35492  16
  -1   0  -1 5.15044 5.85289  15
   1   0   1 9.02738 6.09270   3
   1   0   1 9.96691 5.22328  12
   1   0   1 12.7942 11.8380   2
  -1   0  -1 12.2524 5.99801   5
   1   0   1 12.3706 7.30370  13
  -1   0  -2 82.6200 18.9361   1
   1   0   2 60.0916 13.1903   6
   1   0   2 85.8473 19.5053  16
  -1   0  -2 99.0104 16.2356   5
  -1   0  -2 97.3309 19.8718   4
  -1   0  -2 84.9187 19.5325  15
   1   0   2 79.9133 17.6531   2
   1   0   2 69.1902 15.7062   3
  -1   0  -3 5.97059 8.07993   1
   1   0   3 5.68539 10.1131  16
   1   0   3-14.1135 13.5875   2
  -1   0  -3 3.46722 10.5429   4
  -1   0  -3-6.57221 8.36199  15
   1  -1   0 28614.1 300.306   2
  -1   1   0 28630.0 302.932  11
  -1   1   0 28027.0 324.040  14
   1  -1   0 29220.0 299.642   6
   1  -1   0 28889.3 239.259   7
   1  -1   0 28786.9 325.680   3
   1  -1   0 28578.1 307.362  16
  -1   1   0 28593.8 302.235  15
  -1   1   0 28693.9 303.595   1
   1  -1   1 8842.71 167.210   6
   1   1   1 8423.89 172.635  16
  -1   1  -1 8507.67 163.735  11
  -1   1  -1 8583.60 187.559  14
  -1  -1  -1 8596.19 128.988   8
   1  -1   1 8586.81 178.848  16
  -1   1  -1 8443.24 110.458   9
  -1   1  -1 8289.97 109.723  10
   1  -1   1 8500.63 148.848  13
  -1   1  -1 8598.55 178.973  15
  -1  -1  -1 8343.01 170.892  15
  -1  -1  -1 8139.03 174.077   1
   1  -1   1 8827.22 187.466   3
  -1   1  -1 8358.08 111.800   8
  -1   1  -1 8593.13 181.289   1
  -1  -1  -1 8456.59 168.248   5
   1   1   1 8429.60 168.658  12
  -1   1  -1 8386.14 143.602   4
   1  -1   1 8389.17 110.640   7
   1   1   1 8539.90 189.924  13
  -1  -1  -1 8536.71 185.654   4
   1   1   1 8520.81 138.207   3
  -1   1  -1 8420.43 107.776   7
   1  -1   1 8140.60 108.573   8
   1   1   1 8415.94 172.748   2
   1  -1   1 8485.25 175.295   2
  -1  -1  -1 8685.71 142.466  14
   1  -1   2 516.998 29.2846   5
   1   1   2 488.072 30.9707  10
  -1  -1  -2 457.945 30.8719   7
   1  -1   2 467.828 47.6131   3
   1   1   2 474.280 48.5298  13
  -1   1  -2 487.084 43.4381   4
  -1   1  -2 428.499 25.7964   7
  -1  -1  -2 463.362 44.4557  15
  -1   1  -2 448.440 47.1377  15
  -1  -1  -2 483.545 42.7079   5
  -1  -1  -2 468.750 36.0420  14
   1  -1   2 435.790 27.5906   8
   1  -1   2 430.730 44.2806  16
  -1   1  -2 463.631 47.5854   1
   1  -1   2 461.410 42.3243   6
   1   1   2 458.982 44.9200  16
  -1  -1  -2 460.971 46.1261   1
  -1  -1  -2 482.045 30.4944   8
   1  -1   2 477.786 47.5078   2
  -1  -1  -2 475.891 48.9559   4
   1   1   2 507.276 48.0274   2
   1   1   2 456.818 35.0333   3
  -1   1  -3 3.17924 7.24000  15
   1   1   3-2.41571 8.53789   2
   1  -1   3-8.57577 8.05675   2
  -1  -1  -3-3.23624 12.7802   1
   1  -1   3 11.3402 10.2481   3
  -1  -1  -3-12.4382 9.63493   7
   1  -1   3 18.4272 15.1279  16
  -1  -1  -3 8.30515 5.04617   5
  -1   1  -3 16.6987 9.17007   1
  -1  -1  -3-5.40442 7.00161   4
   1   1   3 15.6434 14.9890  16
  -1  -1  -3 2.55933 6.83543  15
  -1  -1  -4 2257.43 120.215  15
  -1  -1  -4 1864.28 122.178   1
  -1  -1  -4 2178.78 124.378   4
   1   1   4 1805.58 125.155   2
   1   1   4 2479.20 136.578  16
  -1   2   1 1536.74 85.4241  11
   1  -2  -1 1528.91 78.4533   7
  -1   2   1 1428.07 78.9938  14
   1  -2  -1 1545.47 82.9389   3
   1  -2  -1 1523.31 84.6536   6
   1  -2  -1 1251.23 80.0895   8
  -1   2   0 1680.79 74.3140   1
  -1   2   0 1599.66 84.7646  11
  -1   2   0 1644.92 87.0152  14
   1  -2   0 1641.78 71.6338   2
   1  -2   0 1629.23 84.9411   6
  -1   2   0 1636.18 75.5772  10
   1  -2   0 1699.70 75.9803   8
   1  -2   0 1573.88 72.3433   7
  -1   2   0 1637.22 46.8109   5
  -1   2   0 1650.35 72.4827  15
   1  -2   0 1637.55 73.3402  16
   1  -2   0 1671.78 85.5931   3
   1   2   1 3473.33 115.465  16
   1  -2   1 3340.54 101.901   7
   1  -2   1 3468.78 129.905   3
  -1   2  -1 3483.47 103.439   9
   1  -2   1 3457.65 114.031   2
  -1  -2  -1 3512.38 129.682   5
   1  -2   1 3428.82 78.7212  13
   1  -2   1 3362.62 112.311  16
  -1  -2  -1 3345.93 109.962   1
  -1   2  -1 3459.07 114.017  15
   1   2   1 3352.84 112.270   9
   1   2   1 3429.08 96.9141   6
   1  -2   1 3332.35 99.8406   8
  -1  -2  -1 3474.71 112.043   8
   1   2   1 3521.54 111.960   2
   1  -2   1 3684.29 131.758   6
  -1  -2  -1 3818.80 126.210   7
  -1  -2  -1 3447.40 113.085  15
   1   2   1 3278.26 129.966  12
   1   2   1 3496.27 132.051  13
  -1   2  -1 3388.56 115.452   1
  -1   2  -1 3517.63 132.927  14
  -1  -2  -1 3337.08 127.090   4
  -1  -2  -2 585.049 48.2550  15
   1   2   2 565.569 56.8910  13
   1  -2   2 583.340 56.1726   6
  -1  -2  -2 610.278 52.2530   1
   1  -2   2 585.567 57.8523   3
  -1  -2  -2 590.967 31.4436  14
  -1  -2  -2 592.943 55.6592   5
   1  -2   2 583.871 53.8206  16
   1   2   2 550.196 47.4543  16
  -1  -2  -2 545.619 43.7182   8
   1   2   2 596.719 50.0213   2
  -1   2  -2 648.892 60.1509   1
   1  -2   2 669.965 60.3583   2
   1  -2   2 584.479 43.7754   8
  -1  -2  -2 609.119 47.0541   7
   1   2   2 559.566 45.4230   9
   1   2   2 555.628 30.5878   3
  -1   2  -2 575.428 53.4909  15
  -1  -2  -2 596.976 57.6337   4
   1   2   2 594.828 57.1943  12
  -1  -2  -3 3374.68 129.417  15
  -1  -2  -3 3457.32 118.478   8
   1   2   3 3320.16 129.562  16
   1  -2   3 2612.25 148.340  16
  -1  -2  -3 3370.12 116.896   7
   1   2   3 3381.49 150.864  13
  -1  -2  -3 3389.76 139.505   5
   1  -2   3 2855.73 151.019   3
   1   2   3 3483.29 118.528  10
   1   2   3 3482.01 132.541   2
  -1   2  -3 3144.57 148.685  15
  -1  -2  -3 3415.60 150.760   4
  -1  -2  -3 3345.53 133.268   1
   1   2   4 6857.55 230.991   2
  -1  -2  -4 6423.20 194.984  15
  -1  -2  -4 6749.93 228.163   4
  -1  -2  -4 6781.73 217.963   5
   1   2   4 6607.21 205.595  16
  -1  -2  -4 6843.07 181.245   7
  -1  -2  -4 6357.32 218.075   1
  -1  -2  -5 780.305 75.5446  15
   1  -3  -2 662.503 64.9345   6
   1  -3  -2 656.953 64.5778   7
   1  -3  -2 612.864 66.9827   8
  -1   3   2 545.143 62.0969  10
   1  -3  -1 12099.3 267.541   6
  -1   3   1 12304.2 262.179  10
  -1   3   1 12307.7 188.590   1
   1  -3  -1 12177.7 252.227   7
   1  -3  -1 12063.4 184.442   2
  -1   3   1 12008.0 247.596  14
   1  -3  -1 12253.6 261.061   8
  -1   3   1 12024.5 268.097  11
   1  -3  -1 12267.3 249.377   3
   1  -3   0 218.685 26.5938   2
  -1   3   0 187.605 25.2896  15
   1  -3   0 178.329 22.5445   5
  -1   3   0 179.368 33.2116  14
   1  -3   0 165.599 30.3481   3
   1  -3   0 168.868 28.9674   8
  -1   3   0 177.188 21.8360  12
   1  -3   0 162.988 31.5848   6
  -1   3   0 191.183 35.9081  11
   1  -3   0 169.741 28.9857   7
  -1   3   0 173.294 28.0099  10
  -1  -3   0 104.484 33.4406   5
  -1   3   0 174.163 24.7668   1
   1  -3   0 174.527 24.2361  16
  -1   3  -1 34.7082 14.7106   1
   1   3   1 25.7602 12.8951   9
   1  -3   1 49.1706 16.0527   2
  -1   3  -1 31.1488 13.7697   9
  -1  -3  -1 25.9917 13.1724   8
  -1   3  -1 4.47200 7.50621  15
  -1   3  -1 9.31483 10.9672  14
   1  -3   1 33.5312 10.4263   6
   1   3   1 28.9201 10.6168   2
   1   3   1 34.5687 15.6380  13
   1   3   1 24.1593 12.3565  12
   1  -3   1 7.38150 7.30204   8
   1  -3   1 42.4835 11.1481   5
   1  -3   1 27.6591 11.2363   7
  -1  -3  -1 9.40246 12.5962   7
   1  -3   1 39.0922 14.0253  16
  -1  -3  -1 25.0790 14.6810   4
  -1  -3  -1 33.8528 14.6779   1
  -1  -3  -1 29.0478 10.2515   5
   1  -3   1 19.9836 12.3628   3
   1  -3   2-1.11614 6.85296   8
   1   3   2-9.09282 15.3511  12
  -1  -3  -2 3.99843 12.5914   4
   1  -3   2-6.80943 8.57535   3
  -1  -3  -2 0.44538 9.97208   7
   1   3   2 14.5709 9.88858  16
  -1  -3  -2 4.18870 5.90177   8
  -1  -3  -2-8.06292 13.5864   5
   1  -3   2 11.4756 9.69913   6
   1   3   2 9.80670 11.7742   9
   1   3   2 8.58366 9.18424  11
   1   3   2-35.9952 16.1661  13
  -1   3  -2-1.10319 13.2165  15
   1  -3   2 0.80023 11.6968  16
  -1  -3  -2-3.45942 7.02442  15
   1   3   2-2.18578 7.19495   2
  -1  -3  -2 5.99959 8.45825   1
  -1  -3  -3 4397.92 158.764   7
   1   3   3 4326.50 152.958  10
  -1  -3  -3 4577.20 183.493   4
   1   3   3 4363.89 179.090  13
  -1  -3  -3 4365.65 153.353   8
   1   3   3 4324.54 142.706  16
  -1  -3  -3 4236.52 100.857   6
  -1  -3  -3 4355.38 177.144   5
  -1  -3  -3 4333.76 140.326  15
  -1  -3  -3 4206.65 144.684   1
   1   3   3 4443.19 145.211   2
  -1  -3  -4 1788.00 107.463   7
   1   3   4 1886.60 111.113  10
   1   3   4 1811.53 105.083  16
  -1  -3  -4 1784.71 114.016   1
  -1  -3  -4 1820.98 69.4222   6
  -1  -3  -4 1647.34 119.593   5
  -1  -3  -4 1837.31 104.304  15
  -1  -3  -4 1882.06 112.406   8
   1   3   4 1935.32 128.469  13
  -1  -3  -4 1740.26 124.752   4
   1   3   4 1779.70 117.242   2
  -1  -3  -5 28.9539 24.8500   5
  -1  -3  -5 54.9962 24.2630  15
  -1  -3  -5 10.1824 13.3133   4
   1   3   5 15.7010 15.1346  16
  -1  -3  -5 26.4965 16.2718   7
  -1  -3  -5 18.4260 10.1279   6
   1  -4  -3 230.418 52.3688   8
   1  -4  -3 186.192 41.9365   6
   1  -4  -3 236.300 48.3171   7
   1  -4  -2 7925.73 247.660   7
   1  -4  -2 8303.00 253.544   8
  -1   4   2 8177.99 146.942   1
   1  -4  -2 8188.96 219.135   3
   1  -4  -2 7946.05 244.042   6
  -1   4   2 8309.81 256.342  10
   1  -4  -2 8130.20 145.269   2
  -1   4   2 8203.40 250.564  11
   1  -4  -1 4082.08 103.328   2
  -1   4   1 4002.96 104.332   1
  -1   4   1 4116.56 156.363  14
  -1   4   1 4025.61 173.989  11
  -1   4   1 4129.44 171.292  10
   1  -4  -1 4358.77 151.902   5
   1  -4  -1 3979.72 153.179   3
   1  -4  -1 4066.97 168.855   7
   1  -4  -1 4058.32 168.513   8
   1  -4  -1 3983.42 171.118   6
  -1   4   0 1321.09 99.7229  11
  -1   4   0 1287.12 63.6905  15
  -1   4   0 1377.66 73.5884  12
  -1   4   0 1341.81 92.0892  14
   1  -4   0 1248.93 69.8331   5
   1  -4   0 1265.13 90.6503   8
   1  -4   0 1286.72 88.9680   3
   1  -4   0 1225.71 91.1094   7
  -1   4   0 1460.62 73.9948   1
  -1  -4   0 959.268 116.099   5
  -1   4   0 1335.14 95.0604   9
   1  -4   0 1333.33 65.8504  16
   1  -4   0 1442.32 73.1911   2
   1  -4   0 1348.97 100.979   6
   1  -4   1 198.924 34.9950   8
   1   4   1 173.692 25.0006   2
   1  -4   1 158.452 24.9104  16
   1   4   1 197.966 38.0492  13
   1  -4   1 175.345 24.3970   5
  -1  -4  -1 185.329 38.7810   7
  -1   4  -1 165.094 34.2558  14
  -1  -4  -1 154.977 32.2253   4
  -1   4  -1 173.702 34.6125   9
  -1   4  -1 179.847 27.5021  15
   1  -4   1 165.673 36.4193   6
  -1  -4  -1 144.218 35.8991   5
  -1  -4  -1 182.085 27.8977   1
   1   4   1 153.816 37.4688  12
   1  -4   1 188.084 35.2547   3
   1   4   1 154.133 32.0126   9
  -1  -4  -1 195.565 39.2470   8
   1  -4   1 149.682 31.2173   7
   1  -4   2 3775.35 126.900   5
   1   4   2 3079.92 145.606   9
   1  -4   2 3144.42 195.620   7
  -1  -4  -2 3498.01 169.878   5
  -1  -4  -2 3455.72 159.130   4
   1  -4   2 3624.80 176.005   3
   1   4   2 3499.54 169.512  12
   1   4   2 3174.61 122.341  16
   1   4   2 3402.20 156.255  13
   1  -4   2 3457.48 140.091  16
   1   4   2 3431.41 115.620   2
  -1  -4  -2 3274.75 152.959   8
   1  -4   2 3488.73 158.316   8
   1  -4   2 3767.26 186.835   6
  -1  -4  -2 3326.15 153.285   7
  -1   4  -2 3252.67 133.328  15
  -1  -4  -2 3435.73 118.485   1
   1   4   3 792.952 88.2909  12
   1   4   3 931.251 62.5595  11
  -1  -4  -3 873.665 80.1332   7
  -1  -4  -3 926.455 90.4769   5
   1   4   3 840.900 76.9509  10
  -1  -4  -3 835.780 78.5091   8
  -1  -4  -3 855.334 63.9085   1
  -1  -4  -3 897.984 61.4161   6
  -1  -4  -3 822.049 82.0644   4
   1   4   3 826.246 81.3541  13
   1   4   3 865.315 61.6238  16
  -1  -4  -3 857.254 62.0672  15
   1   4   3 866.891 81.2436   9
   1   4   3 830.188 60.8349   2
   1   4   4 70.6406 27.2639  13
   1   4   4 72.6156 21.7197  16
  -1  -4  -4 64.7925 15.9463   6
  -1  -4  -4 90.5518 34.0929   4
  -1  -4  -4 73.2894 21.5196   7
  -1  -4  -4 89.7836 32.7539   5
   1   4   4 43.3968 13.1896   2
   1   4   4 99.9705 33.4776  10
  -1  -4  -4 59.3940 22.8205  15
  -1  -4  -4 95.3903 29.3616   8
   1   4   5-23.2616 31.7599  13
  -1  -4  -5 25.9103 29.0550   4
  -1  -4  -5-14.5876 14.6075   6
   1   4   5-5.19337 11.9561  10
   1   4   5 11.2136 11.1798  16
  -1  -4  -5-11.0053 17.9026   5
  -1  -4  -5 8.95294 14.7889   7
  -1  -4  -5 14.6240 11.9598  15
  -1  -4  -5-8.17533 16.7075   8
  -1  -4  -6-32.8345 28.2153   5
  -1  -4  -6 16.5415 18.0042   7
  -1  -4  -6-1.80529 16.1628   6
  -1  -4  -6 8.91494 15.8116  15
   1  -5  -3 417.379 53.8006   3
   1  -5  -3 402.858 60.5365   6
   1  -5  -3 417.632 65.5172   8
   1  -5  -3 393.742 63.8426   7
  -1   5   3 372.799 62.2486  10
   1  -5  -2 308.694 25.1072   2
  -1   5   2 288.488 27.0460  13
  -1   5   2 330.628 56.7330  11
   1  -5  -2 319.868 58.3175   8
   1  -5  -2 291.581 52.0235   6
   1  -5  -2 347.797 53.2999   5
  -1   5   2 239.968 39.4689  14
  -1   5   2 280.915 52.5510  10
   1  -5  -2 288.554 54.6776   7
  -1   5   2 297.756 26.0647   1
   1  -5  -2 287.316 43.3443   3
   1  -5  -1 42.4724 10.3381   2
  -1   5   1 74.8052 26.6125  14
  -1   5   1 37.1963 19.1067  12
  -1   5   1 55.9987 14.7963   1
  -1   5   1 64.0514 32.1297  10
  -1   5   1 39.8225 18.2762  11
   1  -5  -1 40.1838 19.9223   5
   1  -5  -1 61.7194 23.7251   6
   1  -5  -1 21.1067 13.4522   3
   1  -5  -1 103.148 32.6470   7
   1  -5  -1 36.7624 19.0068   8
   1  -5   0 3564.82 170.349   7
   1  -5   0 3546.89 179.390   6
  -1   5   0 3810.09 165.270  14
  -1   5   0 3801.99 144.443  12
  -1   5   0 3878.73 189.178  11
   1  -5   0 3621.26 160.895   3
  -1   5   0 3732.05 109.333  15
   1  -5   0 3512.91 137.020   5
   1  -5   0 3959.03 118.150  16
  -1   5   0 3744.22 176.996   9
   1  -5   0 3385.47 166.827   8
   1  -5   1 15.4012 12.9192   8
   1  -5   1 1.38722 12.0079   3
  -1  -5  -1 32.3386 16.6189   7
  -1   5  -1 8.76646 14.9203  14
   1  -5   1 21.2163 11.4990   5
   1  -5   1 15.7681 12.6270   7
   1  -5   1 20.3296 11.1137  16
   1   5   1 34.3050 19.3595   9
   1   5   1 0.51340 17.8489  13
  -1  -5  -1 14.2261 18.0173   4
   1   5   1 2.21568 12.3778  12
  -1   5  -1 36.4940 30.3387   9
  -1  -5  -1 6.95325 8.98500   1
  -1  -5  -1 40.4189 25.9741   8
  -1   5  -1 16.6330 13.6542  15
   1   5   1 8.56968 10.9031   2
  -1  -5  -1 12.5782 16.6587   5
   1  -5   1 25.4338 16.1530   6
  -1  -5  -2 7241.24 253.532   7
   1   5   2 7815.53 255.946  13
   1  -5   2 7672.94 210.002   5
  -1   5  -2 7432.59 204.989  15
   1   5   2 7254.46 163.976   2
   1  -5   2 8458.53 313.790   6
  -1  -5  -2 7388.98 170.675   1
  -1  -5  -2 7222.97 249.741   8
  -1  -5  -2 6764.69 255.185   5
   1  -5   2 6874.85 274.374   3
   1   5   2 7036.16 245.917   9
   1  -5   2 7786.22 270.525   8
   1  -5   2 7699.55 215.953  16
  -1  -5  -2 6981.26 240.021   4
   1  -5   2 6321.41 309.313   7
  -1  -5  -3 12.4343 10.7388   8
  -1  -5  -3-1.11571 12.5908   6
  -1  -5  -3 6.72295 12.3664   7
   1   5   3-22.7673 14.4512  10
   1   5   3-12.3358 9.63848   2
  -1  -5  -3 25.0531 9.60341  15
   1   5   3 7.08202 23.0096  12
   1   5   3 12.9658 14.3799  11
  -1  -5  -3 22.7379 23.1468   5
  -1  -5  -3 13.0047 13.2035   4
   1   5   3 7.29582 9.86633  16
  -1  -5  -3-2.59950 10.7132   1
   1   5   3-3.86439 19.5814   9
   1   5   3-24.2396 23.2526  13
  -1  -5  -4 6211.35 247.756   7
  -1  -5  -4 6232.58 179.044  15
  -1  -5  -4 6231.67 268.691   5
  -1  -5  -4 6477.93 186.067   6
  -1  -5  -4 6115.80 239.557   8
   1   5   4 6135.08 237.681  10
  -1  -5  -4 6228.89 250.867   4
   1   5   5 370.978 77.9555  13
  -1  -5  -5 523.104 82.9845   5
  -1  -5  -5 473.811 50.3181   6
  -1  -5  -5 497.268 72.8208   8
   1   5   5 528.840 75.6488  10
   1   5   5 275.909 56.0896  16
  -1  -5  -5 548.072 79.8930   7
  -1  -5  -5 533.186 61.5042  15
  -1  -5  -5 437.481 68.7205   4
  -1  -5  -6 479.379 78.8309   7
  -1  -5  -6 347.479 45.8022   6
  -1  -5  -6 428.199 77.4850   5
   1   5   6 138.221 75.4358  13
  -1  -5  -6 338.001 56.7688  15
   1   5   6 118.438 61.9175  16
  -1  -5  -6 286.145 57.1658   4
   1  -6  -4 3020.14 206.362   8
   1  -6  -4 2366.83 135.929   3
   1  -6  -4 2625.98 191.128   7
  -1   6   4 2540.56 189.793  10
   1  -6  -4 2676.57 183.746   6
   1  -6  -3 374.515 66.1610   6
  -1   6   3 433.567 70.1075  11
   1  -6  -3 295.916 56.2567   5
  -1   6   3 433.886 44.3943  13
   1  -6  -3 459.447 58.2404   3
  -1   6   3 496.602 81.8230  10
   1  -6  -3 467.068 78.3839   7
   1  -6  -3 434.856 71.2005   8
  -1   6   2 304.678 42.9971  14
   1  -6  -2 448.674 73.8739   7
  -1   6   2 460.371 63.6268  12
   1  -6  -2 413.953 64.5650   5
   1  -6  -2 365.318 64.8684   6
   1  -6  -2 382.123 66.3801   8
  -1   6   2 376.323 64.4337  11
  -1   6   2 358.729 64.2105  10
   1  -6  -2 411.671 55.1808   3
   1  -6  -1 1144.44 108.168   6
  -1   6   1 1199.42 115.105  10
   1  -6  -1 1179.76 95.7360   3
  -1   6   1 1162.59 94.6394  12
  -1   6   1 1187.21 96.5265  14
   1  -6  -1 1200.55 97.3606   5
   1  -6  -1 1173.25 111.577   7
  -1   6   1 1195.70 115.029  11
  -1   6   1 1166.68 110.628   9
   1  -6  -1 1104.08 106.410   8
   1  -6   0 1100.44 70.7340  16
  -1   6   0 1189.61 109.140   9
   1  -6   0 1247.71 103.046   3
  -1   6   0 1181.89 110.741  11
  -1   6   0 1445.99 71.8122  15
  -1   6   0 1312.61 100.144  12
   1  -6   0 1259.91 92.4359   5
   1  -6   0 1146.32 105.280   7
   1  -6   0 1190.10 111.909   6
  -1   6   0 1268.52 100.807  14
   1  -6   0 1151.17 107.749   8
  -1   6  -1 41.0145 27.8232  14
  -1  -6  -1 56.7000 25.4888   4
  -1   6  -1 37.1084 17.4340  15
   1  -6   1 66.1701 19.3312  16
  -1  -6  -1 83.8857 21.0519   1
   1  -6   1 73.9989 29.9651   3
   1  -6   1 56.3357 29.5411   8
   1   6   1 53.9563 17.1960   2
   1  -6   1 45.9856 23.5517   6
  -1  -6  -1 67.7695 30.6785   8
   1  -6   1 67.4563 23.0508   5
  -1   6  -1 48.1814 20.5651   9
   1   6   1 82.6665 37.8727  12
   1   6   1 79.3701 38.8010   9
   1  -6   1 56.0489 30.3438   7
  -1  -6  -1 67.4701 22.3020   5
  -1  -6  -1 84.5003 40.8326   7
   1  -6   2 2045.49 176.610   6
   1   6   2 1843.75 115.258  11
  -1   6  -2 1868.87 106.051  15
   1  -6   2 1867.62 110.270  16
  -1  -6  -2 1715.02 142.908   5
   1   6   2 1717.76 135.815   9
   1  -6   2 1889.53 122.021   5
  -1  -6  -2 2031.04 91.9348   1
   1   6   2 1803.79 142.418  12
  -1  -6  -2 1819.70 142.818   8
  -1  -6  -2 1901.34 147.379   7
   1  -6   2 1934.58 156.812   8
   1   6   2 1793.29 80.1602   2
  -1  -6  -2 1903.12 133.506   4
  -1  -6  -3 27.9650 14.7084   8
   1   6   3 42.6539 15.5667  11
  -1  -6  -3 49.9199 26.6667   7
   1   6   3 68.0512 27.0218   2
  -1  -6  -3-18.0349 26.7970   6
   1   6   3 9.46807 24.8400  13
   1   6   3 25.2336 20.0880  12
   1   6   3 38.3174 31.4312  10
   1   6   3 6.83443 20.9950   9
  -1  -6  -3 16.8206 21.7335   5
  -1  -6  -3 1.19173 15.0486   4
   1   6   4 59.5498 46.9867  12
  -1  -6  -4 124.140 34.1554   6
   1   6   4 91.2135 50.8356  13
  -1  -6  -4 185.771 53.1966   4
  -1  -6  -4 122.413 39.2309   8
   1   6   4 154.953 47.2859  10
   1   6   4 77.9333 31.1771  16
  -1  -6  -4 159.740 42.6836   7
   1   6   4 100.072 41.0924   9
  -1  -6  -4 142.841 47.0979   5
   1   6   5 199.794 74.9773  13
   1   6   5 188.095 50.2645  16
  -1  -6  -5 481.056 78.3323   7
  -1  -6  -5 396.482 73.2542   8
   1   6   5 459.973 82.7612  12
  -1  -6  -5 426.048 53.8406  15
  -1  -6  -5 351.730 47.7031   6
  -1  -6  -5 436.885 79.0700   5
   1   6   5 381.136 68.5739  10
  -1  -6  -5 425.050 70.7001   4
  -1  -6  -6 117.433 34.9889   4
  -1  -6  -6 190.974 58.4193   7
  -1  -6  -6 163.371 33.3039   6
  -1  -6  -6 154.243 48.2941   8
  -1  -6  -6 175.615 39.1709  15
   1   6   6 9.52581 49.8192  13
  -1  -6  -6 102.250 30.9501   5
   1   6   6 140.034 49.1264  10
   1   6   7-0.99297 28.4903  13
  -1  -6  -7 44.7965 39.4023   5
  -1  -6  -7 9.88413 26.7102  15
  -1  -6  -7 11.2118 31.2475   7
   1  -7  -4 43.4588 41.6396   6
  -1   7   4 78.0292 51.9608  10
   1  -7  -4 88.5415 43.8199   7
   1  -7  -4 49.3601 25.9676   3
   1  -7  -4 94.9852 42.6392   8
   1  -7  -3 477.899 66.7656   3
   1  -7  -3 370.816 71.7122   7
   1  -7  -3 482.615 80.8301   6
   1  -7  -3 433.949 72.0084   5
  -1   7   3 481.884 85.0379  10
  -1   7   3 441.215 73.1204  12
  -1   7   3 493.816 84.0098  11
   1  -7  -3 462.303 85.4790   8
  -1   7   2 26.7618 15.0670  12
  -1   7   2 2.95365 19.3174  10
   1  -7  -2 36.8492 24.6037   6
  -1   7   2 37.9636 24.7754   9
  -1   7   2 59.0331 40.3828  11
   1  -7  -2 65.5973 30.0786   3
   1  -7  -2 57.5873 30.5177   5
  -1   7   2 21.1564 20.6104  14
   1  -7  -2 58.0306 32.6085   7
   1  -7  -2 39.4494 28.0160   8
  -1   7   1 65.9118 38.2666  11
   1  -7  -1 96.6514 39.6865   6
   1  -7  -1 71.7298 34.2558   7
   1  -7  -1 98.8489 34.1957   5
  -1   7   1 87.1326 30.3139  12
  -1   7   1 105.903 36.9109  14
   1  -7  -1 44.3138 17.9336   3
  -1   7   1 3.11410 20.6816  10
  -1   7   1 77.4632 31.5047   9
   1  -7  -1 99.5377 38.7211   8
   1  -7   0 628.541 90.4792   6
  -1   7   0 655.112 78.8668  14
   1  -7   0 761.106 92.9654   3
  -1   7   0 687.904 94.8321  11
   1  -7   0 646.193 86.4937   7
  -1   7   0 697.869 92.7184   9
   1  -7   0 664.481 74.6031   5
   1  -7   0 604.336 85.8827   8
   1  -7   1 89.9622 32.7510   8
  -1  -7  -1 85.3982 43.8912   8
   1  -7   1 93.8217 47.7288   7
  -1   7  -1 103.201 42.0644   9
  -1  -7  -1 113.291 37.2222   4
   1  -7   1 153.414 52.1406   6
   1  -7   1 154.102 28.1881  16
  -1   7  -1 158.312 41.5408  14
  -1  -7  -1 81.4701 55.3973   7
   1  -7   1 85.1426 27.3463   5
   1   7   1 125.802 47.4524   9
  -1  -7  -1 170.192 65.8339   5
  -1  -7  -2 471.385 70.4955   4
  -1  -7  -2 522.720 90.5920   8
  -1  -7  -2 533.213 89.7246   7
   1  -7   2 433.210 58.3663  16
   1  -7   2 370.420 85.8632   8
   1   7   2 513.351 87.0325  12
   1   7   2 498.453 66.5943  11
   1  -7   2 473.419 99.4399   6
  -1   7  -2 454.019 54.4869  15
   1   7   2 435.772 79.3323   9
  -1  -7  -2 571.164 88.7282   5
   1  -7   2 385.435 66.4616   5
  -1   7  -2 510.560 83.1957  14
  -1  -7  -3 352.730 71.8857   8
  -1  -7  -3 393.975 66.5959   4
  -1  -7  -3 348.000 71.5097   5
   1   7   3 448.684 76.4541  13
   1   7   3 416.096 76.9926  12
   1   7   3 325.722 51.8957  11
   1   7   3 394.415 73.6260   9
   1   7   3 318.705 68.9635  10
  -1  -7  -3 368.708 70.3036   7
  -1  -7  -4 233.021 52.8489   6
  -1  -7  -4 150.278 48.0752   7
  -1  -7  -4 157.162 44.7223   4
   1   7   4 194.079 59.2422  12
   1   7   4 174.065 43.1434  13
   1   7   4 166.097 41.1797  11
   1   7   4 169.451 51.2338  10
   1   7   4 120.928 51.6813   9
  -1  -7  -4 170.930 50.1207   5
  -1  -7  -4 153.578 44.6397   8
  -1  -7  -5 222.470 41.3055   6
  -1  -7  -5 242.735 60.3298   7
  -1  -7  -5 207.516 52.7970   8
   1   7   5 114.588 51.2135  13
   1   7   5 117.166 47.4219  12
  -1  -7  -5 231.202 56.8519   4
   1   7   5 258.434 67.0611  10
  -1  -7  -5 173.822 52.9466   5
   1   7   5 185.937 67.8695   9
  -1  -7  -6 57.7287 28.6803   7
   1   7   6 82.5100 65.6878  12
   1   7   6 43.7162 50.0135   9
   1   7   6 6.81921 41.1786  13
   1   7   6 162.827 60.8365  10
  -1  -7  -6 203.706 62.6484   5
  -1  -7  -6 84.4018 43.2182   8
  -1  -7  -6 66.3623 34.7831   4
  -1  -7  -7 953.240 129.186   7
   1   7   7 496.584 146.059  12
  -1  -7  -7 1195.98 159.226   5
   1   7   7 193.059 124.987  13
   1  -8  -5 1469.52 167.186   6
   1  -8  -5 1202.47 156.452   7
   1  -8  -5 1511.97 177.664   8
   1  -8  -4 132.263 54.2349   7
  -1   8   4 129.081 41.2066  12
   1  -8  -4 227.411 68.5473   8
  -1   8   4 115.875 47.3667  10
   1  -8  -4 181.365 38.1888   3
   1  -8  -4 152.165 48.1857   6
  -1   8   3 1457.58 153.670  10
  -1   8   3 1412.54 147.483  11
  -1   8   3 1390.94 131.952  12
   1  -8  -3 1424.16 142.947   5
   1  -8  -3 1299.53 144.090   7
   1  -8  -3 1367.37 146.838   6
  -1   8   3 1380.30 151.346   9
   1  -8  -3 1520.30 126.281   3
   1  -8  -3 1423.14 155.676   8
   1  -8  -2 647.220 82.3438   3
   1  -8  -2 583.365 92.5291   7
   1  -8  -2 627.679 99.3665   6
  -1   8   2 589.919 95.7996  11
  -1   8   2 577.707 85.3155  12
   1  -8  -2 637.640 91.9916   5
  -1   8   2 457.844 66.5792  14
  -1   8   2 647.410 95.9052   9
  -1   8   2 596.475 98.1595  10
   1  -8  -2 604.838 93.8283   8
   1  -8  -1 1248.31 126.813   3
  -1   8   1 1108.92 113.409  14
   1  -8  -1 1045.55 121.155   7
  -1   8   1 1142.27 129.483  11
   1  -8  -1 1067.17 110.277   5
  -1   8   1 1085.87 128.253  10
  -1   8   1 1134.00 114.424  12
  -1   8   1 1107.44 124.310   9
   1  -8  -1 905.100 113.039   6
   1  -8  -1 936.576 116.687   8
  -1   8   0 4.68955 22.6610  14
   1  -8   0-44.5872 45.7373   8
   1  -8   0 20.4453 23.0750   7
   1  -8   0-20.5613 45.6618   6
  -1   8   0 49.6275 30.4120  10
  -1   8   0 9.88640 22.6105  11
  -1   8   0 11.7381 20.4926   9
   1  -8   0 32.0592 18.1902   5
   1  -8   1 276.378 80.8166   7
  -1  -8  -1 113.344 55.1629   8
  -1  -8  -1 254.001 84.7964   4
   1  -8   1 228.103 74.1607   6
   1  -8   1 206.711 62.1146   8
  -1   8  -1 234.043 62.8656  14
   1  -8   1 185.837 45.9858   5
  -1   8  -1 265.432 73.6639   9
  -1  -8  -1 138.060 50.9606   5
  -1  -8  -2-28.7878 50.7772   7
  -1  -8  -2-12.3638 35.4095   5
  -1  -8  -2-44.7506 33.0128   8
  -1  -8  -2 3.51797 24.1129   4
   1   8   2-29.8345 37.5495  12
   1   8   2 21.1930 21.1527  11
   1   8   2-8.92300 33.4151   9
  -1  -8  -3 468.798 86.4919   8
   1   8   3 443.154 86.9329  12
   1   8   3 470.622 99.5924  10
  -1  -8  -3 561.586 85.6406   4
   1   8   3 402.346 89.7997   9
  -1  -8  -3 498.298 99.1702   7
   1   8   3 334.980 82.7099  13
   1   8   3 499.460 73.7163  11
  -1  -8  -3 450.425 84.2886   5
  -1  -8  -4 76.5538 46.5506   4
  -1  -8  -4 41.1699 28.2293   7
   1   8   4 52.4709 41.0806  13
   1   8   4 86.9773 47.1381  12
   1   8   4-2.34310 34.2978   9
   1   8   4 58.0118 32.1928  10
  -1  -8  -4 49.5348 35.6287   5
  -1  -8  -4 56.1126 46.9449   6
  -1  -8  -4 60.5893 21.3028   8
  -1  -8  -5 66.9631 39.8489   7
  -1  -8  -5 43.0920 34.8980   4
   1   8   5 59.4718 30.3717  13
  -1  -8  -5 104.444 48.5985   5
  -1  -8  -5 158.219 60.7448   8
   1   8   5 26.4809 26.3642   9
   1   8   5 66.6250 58.5182  12
   1   8   5 93.5973 41.9959  10
  -1  -8  -6 192.307 60.0793   7
   1   8   6 297.289 65.8570  13
  -1  -8  -6 289.191 78.7430   5
   1   8   6 288.718 77.8681   9
   1   8   6 234.368 66.7626  10
  -1  -8  -6 377.913 88.8254   8
   1   8   7 5.60016 59.0581  13
  -1  -8  -7 311.725 84.1567   7
  -1  -8  -7 265.405 78.7418   5
   1   8   7 256.788 82.5032   9
   1   8   7 2.25602 46.7468  12
   1  -9  -5 257.035 82.9932   7
   1  -9  -5 167.499 63.3657   6
  -1   9   5 86.7765 26.9696  10
  -1   9   5 189.877 67.2510  12
   1  -9  -5 237.889 79.6540   8
   1  -9  -4 392.293 83.9170   7
  -1   9   4 363.815 76.6841  12
   1  -9  -4 402.133 87.6487   6
  -1   9   4 403.363 92.1385  10
  -1   9   4 431.957 91.7300   9
   1  -9  -4 437.141 96.2262   8
  -1   9   3 151.645 54.8619  12
  -1   9   3 190.081 61.8434  11
   1  -9  -3 244.535 59.2980   5
  -1   9   3 150.030 49.6032  10
  -1   9   3 167.059 58.9754   9
   1  -9  -3 211.886 63.4609   6
   1  -9  -3 237.060 68.8911   7
   1  -9  -3 237.978 69.7992   8
   1  -9  -2 1265.45 150.127   6
  -1   9   2 1189.69 144.339  10
   1  -9  -2 1439.71 145.814   5
  -1   9   2 1392.63 140.471  12
  -1   9   2 1304.03 149.166  11
   1  -9  -2 1232.63 144.936   7
  -1   9   2 1324.51 149.792   9
   1  -9  -2 1230.46 150.668   8
  -1   9   1 721.803 113.684   9
  -1   9   1 699.311 111.456  10
   1  -9  -1 676.409 107.641   7
  -1   9   1 817.876 119.777  11
   1  -9  -1 803.681 107.686   5
   1  -9  -1 781.193 124.222   6
   1  -9  -1 656.089 103.844   8
  -1   9   0 1561.18 164.534  11
   1  -9   0 1496.01 175.190   6
   1  -9   0 1623.22 175.434   7
  -1   9   0 1652.92 162.366  14
   1  -9   0 1469.18 147.610   5
  -1   9   0 1550.90 166.864  10
  -1   9   0 1528.23 162.649   9
   1  -9   0 1637.68 173.681   8
   1  -9   1 95.0284 64.4641   7
   1  -9   1 126.229 76.0459   8
  -1   9  -1 45.1455 29.2141  14
   1  -9   1 66.6795 64.6091   6
   1  -9   1 3.25049 56.0483   5
  -1   9  -1-14.8908 41.5260  11
  -1  -9  -2 1696.06 186.370   4
   1   9   2 1708.79 162.650  11
  -1  -9  -2 2004.01 224.623   5
   1   9   2 1721.39 193.893   9
  -1  -9  -2 1514.29 207.489   7
  -1  -9  -2 2072.01 225.173   8
  -1  -9  -3 149.841 61.0629   7
  -1  -9  -3 149.693 41.6733   4
   1   9   3 206.000 66.8117  12
   1   9   3 212.581 75.5597  10
  -1  -9  -3 204.049 68.2902   5
   1   9   3 173.650 57.8196   9
  -1  -9  -3 229.985 76.1740   8
  -1  -9  -4 262.035 66.8055   4
  -1  -9  -4 263.191 81.4617   5
   1   9   4 212.610 65.9124  12
   1   9   4 181.370 59.6411  10
   1   9   4 190.497 61.8844   9
   1   9   4 167.185 59.2617  13
  -1  -9  -4 234.830 77.7670   7
  -1  -9  -4 225.293 57.9521   8
  -1  -9  -5 22.8310 34.7638   4
   1   9   5 8.28575 32.3267  12
  -1  -9  -5 155.727 73.6524   7
   1   9   5 79.0399 41.7443  13
   1   9   5 57.3002 28.2709  10
  -1  -9  -5 116.444 53.6146   5
   1   9   5 125.506 61.8277   9
  -1  -9  -5 98.2698 52.0706   8
   1   9   6-0.21330 30.0555  12
  -1  -9  -6 60.4083 45.5688   7
   1   9   6-16.1729 42.1747  10
   1   9   6-20.4289 46.9248   9
  -1  -9  -6 63.1493 41.7476   8
   1   9   6-19.3552 38.3878  13
  -1  -9  -6-21.5390 48.0236   5
  -1  -9  -7 170.333 67.6229   5
   1   9   7 6.66257 92.9070  12
  -1  -9  -7 198.274 67.9112   7
   1   9   7 148.751 47.3861   9
   1 -10  -5-0.92307 43.1788   7
  -1  10   5-4.03924 26.7127  12
   1 -10  -5 39.6952 38.7654   6
   1 -10  -5 62.9735 37.6082   8
  -1  10   5-15.5247 30.1647  10
   1 -10  -4 523.620 104.378   6
  -1  10   4 494.943 96.8013  12
  -1  10   4 450.296 104.978  10
  -1  10   4 477.159 104.492   9
   1 -10  -4 438.156 96.1152   7
   1 -10  -4 578.310 116.823   8
   1 -10  -3 169.231 52.7301   7
  -1  10   3 65.2076 40.2477  11
   1 -10  -3 200.074 74.3823   5
  -1  10   3 172.019 57.7763  12
   1 -10  -3 97.8538 53.7888   6
  -1  10   3 194.757 65.6338  10
  -1  10   3 117.916 51.6006   9
   1 -10  -3 85.8100 45.3789   8
  -1  10   2-16.9164 31.4950  10
   1 -10  -2 15.8770 46.3972   7
   1 -10  -2 9.30634 35.3792   6
  -1  10   2 5.81576 27.8598  11
   1 -10  -2 41.7604 52.2557   5
  -1  10   2 4.45475 29.2674   9
   1 -10  -2-22.5410 40.3503   8
  -1  10   1 243.393 71.9986  11
   1 -10  -1 243.447 65.9908   7
  -1  10   1 263.418 71.1121  10
   1 -10  -1 239.218 58.6719   5
  -1  10   1 258.601 76.5701   9
   1 -10  -1 292.984 87.3296   6
   1 -10  -1 292.884 86.6376   8
   1 -10   0 10.2771 50.3004   8
   1 -10   0 32.2568 35.7531   7
  -1  10   0 10.9783 40.6041  10
  -1  10   0 53.5690 43.2006  11
   1 -10   0-31.3885 54.9120   6
  -1  10   0 3.02948 29.9484   9
  -1 -10  -2 80.5741 49.1076   8
   1  10   2 217.965 88.9873  10
  -1 -10  -2 67.0676 69.4595   5
  -1 -10  -3 51.1953 54.0444   7
   1  10   3 20.9481 51.1591  10
  -1 -10  -3 32.2502 40.3507   5
   1  10   3-89.6921 57.1867   9
  -1 -10  -3 37.4839 48.8360   8
  -1 -10  -4 32.5991 51.6737   7
   1  10   4 44.2484 36.8965  12
  -1 -10  -4 29.5140 27.9568   8
   1  10   4-37.5524 46.1844  10
  -1 -10  -4 19.3375 47.2240   5
   1  10   4-77.8976 63.5935   9
   1  10   5 723.944 128.362  12
  -1 -10  -5 637.308 130.288   7
   1  10   5 640.858 120.678  10
  -1 -10  -5 695.257 130.345   5
   1  10   5 803.993 136.482   9
  -1 -10  -5 733.960 129.546   8
  -1 -10  -6 85.2252 59.9746   7
   1  10   6 1.40752 54.5010  12
  -1 -10  -6 100.853 69.5815   5
   1  10   6 220.707 82.0550  10
   1  10   6 121.630 54.4513   9
  -1 -10  -6 148.920 71.2868   8
  -1 -10  -7-35.0215 29.3605   7
   1  10   7-0.54402 63.2044  12
  -1 -10  -7 59.3833 49.7574   5
   1  10   7-2.79260 61.9795   9
  -1 -10  -7-34.8822 25.7033   8
  -1  11   5 118.893 43.4745  10
   1 -11  -5 188.365 76.0760   7
  -1  11   5 162.170 75.2596   9
   1 -11  -5 133.775 64.5922   8
   1 -11  -4-71.0638 61.9107   7
  -1  11   4-43.5857 40.4467  12
  -1  11   4-51.8305 39.6671  10
  -1  11   4 80.0079 62.2301   9
   1 -11  -4 22.7697 37.3585   6
   1 -11  -4-4.45584 35.4985   8
   1 -11  -3-41.8370 44.1474   7
  -1  11   3 32.5690 34.3778  11
   1 -11  -3-0.48635 40.5680   5
  -1  11   3-25.6543 39.7490  10
  -1  11   3 73.1358 55.7112   9
   1 -11  -3-19.7394 64.9708   6
   1 -11  -3 13.7204 32.8423   8
   1 -11  -2 189.806 83.4095   7
   1 -11  -2 6.50826 51.0090   6
  -1  11   2 78.4468 54.5961  11
  -1  11   2 100.620 61.9180  10
  -1  11   2 43.3388 32.7558   9
   1 -11  -2 178.082 73.3604   8
   1 -11  -1-37.2349 57.0706   7
   1 -11  -1-0.61777 55.9021   6
  -1  11   1 16.6303 41.1505  11
  -1  11   1 25.4620 39.3014  10
  -1  11   1-6.59270 42.8150   9
   1 -11  -1 8.31309 43.7475   8
  -1  11   0 41.1246 43.6952  11
  -1  11   0 37.9879 69.5559  10
   1 -11   0 125.083 81.4785   8
   1  11   3 230.206 82.0480  10
  -1 -11  -3 148.628 129.633   5
  -1 -11  -3 259.413 93.2891   8
   1  11   4-8.42945 46.7502  10
  -1 -11  -4-17.5453 59.9819   5
  -1 -11  -4 83.0568 57.0208   7
   1  11   4-66.5008 81.7321   9
  -1 -11  -4 61.8648 66.6206   8
  -1 -11  -5 54.5172 55.9298   7
   1  11   5 0.49140 51.1352  12
   1  11   5-21.7808 41.4651  10
  -1 -11  -5 77.4088 80.1296   5
   1  11   5 154.483 59.9728   9
  -1 -11  -5-56.0160 48.9519   8
  -2   0   0 9.17473 10.6533   1
   2   0   0 23.0992 17.2752   2
  -2   0  -1-10.3786 13.0743  14
   2   0   1 11.4014 9.48538   6
  -2   0  -1 4.51288 12.9128   4
   2   0   1-18.0884 17.4439  13
   2   0   1 11.7236 18.9529  16
  -2   0  -1-10.4370 9.57957  15
  -2   0  -1 25.8108 15.1572   1
   2   0   1-3.50523 11.8180   3
   2   0   1 15.5501 15.8790   2
  -2   0  -1 8.74726 5.67777   5
  -2   0  -2 11077.4 286.096  15
  -2   0  -2 10933.2 203.138   5
  -2   0  -2 11078.1 289.644   1
   2   0   2 11253.3 265.106   3
   2   0   2 11029.2 286.905  16
   2   0   2 11136.8 194.342   6
   2   0   2 11153.1 284.073   2
   2   0   2 10759.9 272.022  13
  -2   0  -2 10925.1 269.289   4
  -2   0  -2 11126.6 263.591  14
   2   0   3 49.8470 25.1094  16
   2   0   3 52.5647 19.8269   6
  -2   0  -3-12.4028 17.3923  15
  -2   0  -3 31.0415 24.3958  14
   2   0   3 28.4184 24.9616  13
   2   0   3 50.7219 29.8461   2
   2   0   3 27.3160 18.1843  12
  -2   0  -3 30.9032 16.9783  11
   2   0   3 47.0285 28.1912   3
  -2   0  -3 8.45898 11.2976   1
  -2   0  -3 9.20292 10.0696   5
  -2   0  -3 28.0285 22.5386   4
  -2   0  -4 4380.76 198.245  15
  -2   0  -4 4512.12 187.560  14
   2   0   4 4503.00 186.872   3
   2   0   4 4641.86 205.920  16
  -2   0  -4 4383.24 129.194  11
  -2   0  -4 4421.26 208.740   1
   2   0   4 4508.45 197.026  13
  -2   0  -4 4391.89 196.936   4
   2   0   4 4556.98 202.308   2
   2   0   5-2.03625 3.88916   8
   2   0   5-27.2798 27.9776  16
  -2   0  -5-33.9426 17.8344  15
  -2   0  -5 24.4950 7.16220   7
   2   0   5 1.43212 21.8639   2
  -2   0  -5 18.2107 19.3165   4
  -2   0  -5-29.7089 29.6517   1
   2   0   6 1289.74 147.503  16
   2   0   6 1226.70 144.163   2
   2  -1   0 3999.16 162.905   2
  -2   1   0 4068.56 165.830  15
   2  -1   0 3055.39 126.549   6
  -2   1   0 3933.04 162.791   1
  -2   1   0 3767.90 155.850  14
   2  -1   0 3846.57 167.158  16
   2  -1   0 4015.05 161.560   3
  -2   1   0 3807.44 142.620   4
   2  -1   1 599.270 66.2753  16
   2   1   1 678.643 71.1879   2
   2   1   1 599.741 67.2964  16
   2   1   1 648.775 60.2573   3
  -2   1  -1 642.285 67.7151  14
  -2  -1  -1 654.255 63.6976   5
  -2   1  -1 607.806 65.4574  15
  -2  -1  -1 596.181 67.9186   1
   2  -1   1 600.765 61.0157  13
   2   1   1 645.216 72.8693  13
   2  -1   1 634.878 55.9641   6
   2  -1   1 608.430 66.1228   2
  -2   1  -1 599.835 67.0509   1
   2  -1   1 595.050 34.2220   7
  -2   1  -1 601.455 37.1377   5
  -2  -1  -1 634.867 68.5399  15
   2  -1   1 568.171 65.1983   3
  -2   1  -1 570.568 56.6364   4
  -2  -1  -1 642.304 71.1949   4
  -2  -1  -2-6.91810 19.6167  15
  -2   1  -2-18.9099 15.9899   4
  -2  -1  -2 0.83934 12.2408   4
   2  -1   2 2.18008 10.7907  16
   2   1   2-18.6019 19.4765  12
  -2  -1  -2 1.14180 4.43066   8
  -2  -1  -2-0.46071 8.81058  14
  -2   1  -2-0.80668 14.1788  14
   2  -1   2-1.50284 12.3216  13
   2   1   2-63.4668 23.4426  13
   2  -1   2-14.0129 16.2276   3
  -2   1  -2-6.48156 18.0879  15
   2  -1   2-9.49849 11.5926   6
  -2  -1  -2-15.1218 18.9626   1
  -2   1  -2-0.86326 12.4806  11
  -2   1  -2-16.8654 17.5211   1
   2   1   2 20.6975 22.6403  16
   2  -1   2-18.5624 18.8234   2
  -2   1  -2-7.48030 6.02073   5
   2   1   2-7.57030 18.7258   2
   2   1   2 4.03387 9.84701   3
  -2  -1  -2-2.68251 13.0734   5
   2   1   2-6.28292 6.24166   6
   2   1   3 642.780 73.3057   2
  -2   1  -3 728.053 78.3522  15
  -2   1  -3 705.245 77.5052  14
  -2  -1  -3 593.064 74.5667   1
   2   1   3 517.611 66.2283  16
   2  -1   3 628.016 66.5372  13
   2   1   3 612.309 73.5147  13
  -2  -1  -3 717.593 65.6875  14
   2  -1   3 660.813 74.9857  16
   2  -1   3 569.288 68.4273   3
   2   1   3 624.972 63.3913  12
   2  -1   3 599.997 42.8094  12
  -2   1  -3 689.882 60.3745  11
   2   1   3 645.787 62.5229   3
  -2  -1  -3 646.448 61.4185   5
  -2  -1  -3 643.203 72.8072  15
   2  -1   3 658.837 58.3526   6
  -2   1  -3 634.236 75.5706   1
  -2   1  -3 659.363 68.1889   4
  -2  -1  -3 608.512 71.8945   4
   2  -1   3 608.746 71.5668   2
   2  -1   4 3093.07 175.855  16
   2   1   4 2977.69 163.115  16
  -2  -1  -4 3056.88 172.226   1
  -2  -1  -4 3000.17 84.2411   7
  -2  -1  -4 3126.27 165.385  15
  -2   1  -4 3057.89 170.828  15
  -2   1  -4 3183.72 171.026  14
  -2  -1  -4 3191.50 144.178  14
  -2  -1  -4 3090.70 143.475   5
   2  -1   4 3118.75 167.584   3
   2  -1   4 3325.00 165.504  13
   2   1   4 3066.60 145.147  12
   2   1   4 2956.02 167.556  13
   2   1   4 3038.57 144.488   3
  -2   1  -4 2862.85 151.584   4
   2  -1   4 3167.16 174.768   2
  -2  -1  -4 3203.80 174.805   4
   2   1   4 3145.11 165.901   2
  -2   1  -4 3131.63 178.728   1
   2   1   5 111.402 34.5802  16
  -2   1  -5 51.1127 31.8329  15
  -2  -1  -5 82.3131 16.8403   7
   2   1   5 53.8249 34.0200  13
   2  -1   5 37.8782 19.4017   2
  -2  -1  -5 59.5404 23.5585  14
   2   1   5 72.7452 27.6947   2
  -2  -1  -5 46.7979 31.7093   4
   2  -1   5 66.3639 29.0055  16
  -2   1  -5 75.9351 40.1494   1
  -2  -1  -5 27.4750 15.4987   5
  -2  -1  -5 71.0496 32.4910  15
  -2  -1  -5 78.0842 38.6133   1
   2   1   6 33.7313 17.6457  16
  -2  -1  -6 41.8844 31.2281  15
  -2  -1  -6 51.1655 17.2687   7
  -2  -1  -6 0.13280 21.7189   1
   2   1   6-26.7196 36.6490   2
  -2  -1  -6 53.5673 30.0893   4
   2  -2   0 9140.06 190.498   7
  -2   2   0 8950.78 260.806  14
   2  -2   0 9248.73 247.519   2
  -2   2   0 9329.38 251.984   1
   2  -2   0 9693.81 253.276   6
  -2   2   0 9317.75 252.358  15
   2  -2   0 9498.58 261.897  16
   2  -2   0 9449.60 270.528   3
  -2   2   0 9291.29 194.612   4
   2   2   1 996.751 87.6987  16
   2   2   1 1191.45 77.4751   3
   2  -2   1 1270.31 96.5258  16
  -2   2  -1 1311.52 101.540  14
  -2   2  -1 1299.15 97.1838   1
   2  -2   1 1290.41 90.8279   6
   2  -2   1 1411.32 87.1737  13
   2   2   1 1436.26 118.110  13
   2   2   1 1478.67 109.655   2
  -2   2  -1 1347.94 95.1389  11
  -2  -2  -1 1455.18 108.172   5
  -2  -2  -1 1445.69 109.274   1
   2  -2   1 1262.06 92.0673   2
   2  -2   1 1371.24 66.5504   7
  -2  -2  -1 967.496 82.5578  15
  -2   2  -1 1293.94 95.8909  15
  -2   2  -1 1307.32 75.6255   4
  -2  -2  -1 1454.60 114.088   4
   2  -2   1 1240.16 98.2957   3
   2  -2   2 3754.54 169.330  16
   2   2   2 4031.07 176.559  16
   2   2   2 3808.02 164.981  12
  -2  -2  -2 3884.73 169.959  15
   2   2   2 4171.56 177.397   2
  -2   2  -2 3954.52 174.824   1
  -2   2  -2 3976.28 175.024  15
   2  -2   2 3856.07 157.367   6
   2   2   2 3999.58 186.864  13
   2  -2   2 3811.80 175.264   3
  -2  -2  -2 3960.45 176.496   1
   2  -2   2 3805.79 140.302  13
  -2   2  -2 3806.40 158.082  11
  -2  -2  -2 3946.29 167.469   5
  -2   2  -2 3753.83 109.913  10
  -2   2  -2 3855.56 177.918  14
  -2   2  -2 4174.55 118.664   9
   2  -2   2 3691.25 114.364   8
   2  -2   2 4607.85 127.479   7
  -2  -2  -2 3872.31 120.369   8
  -2   2  -2 3952.59 143.079   4
   2   2   2 4119.42 139.357   3
  -2  -2  -2 4067.30 187.326   4
   2  -2   2 3696.85 164.397   2
   2   2   3 4136.25 181.382  16
  -2   2  -3 4105.48 190.213   1
  -2  -2  -3 4036.61 176.911  15
  -2  -2  -3 4311.01 147.648  14
  -2  -2  -3 3984.89 169.090   5
  -2   2  -3 4004.54 189.024  14
   2  -2   3 4121.08 168.913   6
   2   2   3 4224.22 182.020   2
   2  -2   3 3894.16 152.036  13
   2  -2   3 4018.86 188.371   3
   2   2   3 4037.18 190.689  13
   2   2   3 3981.20 137.907   3
   2   2   3 4016.56 171.578  12
  -2  -2  -3 4077.30 185.078   1
  -2   2  -3 4056.93 101.995  10
   2   2   3 4201.80 123.593  10
  -2  -2  -3 4298.44 124.037   8
   2  -2   3 4148.71 103.679   8
  -2   2  -3 4028.98 183.631  15
  -2   2  -3 4216.28 163.851   4
   2  -2   3 3938.77 182.960  16
   2  -2   3 3935.15 180.462   2
  -2  -2  -3 4015.02 190.034   4
  -2  -2  -4 2643.07 158.823   1
  -2  -2  -4 2612.18 142.465   5
  -2   2  -4 2841.75 169.170  15
  -2  -2  -4 2712.31 122.233  14
   2   2   4 2806.80 136.364   3
   2  -2   4 2843.37 170.578   3
   2  -2   4 2934.55 174.898  16
   2   2   4 2729.77 166.217  13
   2   2   4 2545.81 148.014  12
  -2  -2  -4 2623.10 104.242   7
  -2  -2  -4 2622.48 150.793  15
   2   2   4 2608.79 152.126  16
   2   2   4 2641.97 103.878   9
   2  -2   4 2813.18 172.113   2
   2  -2   4 2708.22 89.0327   8
  -2  -2  -4 2578.59 161.175   4
  -2   2  -4 2896.46 178.257   1
   2   2   4 2681.37 151.536   2
   2   2   5 377.320 64.1422  16
   2   2   5 408.860 68.1536   2
  -2  -2  -5 338.620 63.7687   4
  -2  -2  -5 383.392 50.8843  14
  -2   2  -5 377.647 69.9183  15
   2   2   5 333.052 60.5729  13
  -2  -2  -5 321.042 55.9036  15
  -2  -2  -5 382.297 42.6896   7
   2  -2   5 348.919 69.1837  16
  -2   2  -5 374.149 70.7644   1
  -2  -2  -5 407.770 62.5185   5
   2   2   5 409.787 44.8131   9
   2  -2   5 308.972 67.6029   2
  -2  -2  -5 401.938 67.6236   1
   2   2   6 781.072 96.5913  16
   2   2   6 812.867 104.876  13
  -2  -2  -6 748.256 63.7198   7
  -2  -2  -6 646.010 86.4388  15
   2   2   6 799.983 109.257   2
  -2  -2  -6 682.350 94.2824   4
  -2  -2  -6 826.988 108.394   1
   2  -3  -1 2799.92 130.727   2
   2  -3  -1 2859.61 132.077   7
  -2   3   1 2779.71 147.504  14
   2  -3  -1 3397.44 169.260   6
  -2   3   1 2762.19 129.338   1
   2  -3  -1 3030.50 160.866   3
   2  -3   0 478.381 52.1446   7
   2  -3   0 437.058 55.1261   2
   2  -3   0 476.645 60.0439  16
   2  -3   0 443.220 60.4380   6
  -2   3   0 449.318 57.7718   1
  -2   3   0 437.861 55.9183  15
   2  -3   0 439.473 63.5904   3
  -2   3   0 464.929 62.7606  11
  -2   3   0 444.507 63.4896  14
  -2   3   0 484.390 39.4697   4
  -2  -3  -1 35.5701 22.1003   8
  -2   3  -1 114.408 20.3455   4
   2  -3   1 90.9205 21.6103   7
  -2   3  -1 88.4023 26.5157  15
  -2  -3  -1 77.3858 29.7883   4
   2  -3   1 85.9042 22.9471  16
  -2   3  -1 85.5788 30.7954  14
   2   3   1 70.8635 31.6018  13
   2  -3   1 72.6645 23.6800  13
   2  -3   1 108.828 29.8721   6
  -2   3  -1-5.17456 20.5106  11
  -2  -3  -1 96.1267 31.1665   1
   2  -3   1 67.4800 19.0643   2
  -2   3  -1 95.4845 25.1825  10
  -2   3  -1 98.2377 27.1955   1
   2  -3   1 71.5311 25.7439   3
  -2  -3  -1 52.4007 27.6752   5
   2   3   1 62.5426 20.9876   2
   2  -3   1 82.2846 20.9431   8
   2  -3   2 547.082 65.2752  16
   2  -3   2 563.076 53.5884   7
   2   3   2 567.620 68.8285  16
  -2  -3  -2 591.972 70.8105  15
  -2   3  -2 523.019 62.8677  15
  -2   3  -2 567.057 73.2450  14
   2  -3   2 518.622 46.6142  13
  -2   3  -2 549.263 65.4148   1
   2   3   2 545.789 27.3331   6
   2  -3   2 572.258 67.1906   6
   2  -3   2 542.282 70.0622   3
   2   3   2 547.020 45.9300   3
   2   3   2 569.481 72.5321  12
  -2  -3  -2 567.776 67.6334   1
   2   3   2 618.274 69.2794   2
  -2   3  -2 572.134 68.2875  11
   2   3   2 615.237 82.8054  13
  -2   3  -2 565.133 51.4853  10
  -2  -3  -2 571.707 71.4012   5
  -2   3  -2 567.874 53.1394   9
   2  -3   2 556.461 51.4827   8
  -2  -3  -2 536.998 54.9218   8
   2  -3   2 543.581 61.4841   2
  -2  -3  -2 451.753 68.6429   4
  -2  -3  -3 4.75098 8.36967   8
   2  -3   3 35.2739 13.2031   8
   2   3   3 27.8350 19.2352  12
   2  -3   3 36.7060 21.4041  16
  -2  -3  -3 43.1137 17.3203   1
   2   3   3 10.7385 19.1346  16
  -2  -3  -3 32.4363 22.2597   7
   2   3   3 1.02719 18.8447  13
  -2  -3  -3 20.8110 22.3834  15
   2  -3   3 15.2880 15.4568   2
  -2  -3  -3 36.8022 25.0568   4
  -2   3  -3 14.6898 24.6637  14
  -2   3  -3 0.72381 17.6996  15
   2  -3   3 13.7704 10.9310  13
   2  -3   3-21.6143 11.8675   6
  -2   3  -3 39.5679 27.1456   1
   2   3   3 8.47755 10.1430   3
   2  -3   3 30.4771 19.7375   3
   2   3   3 20.0757 15.1858  10
   2   3   3 4.84875 13.1409   2
  -2  -3  -3 9.30611 12.5789   5
   2   3   3 3.43050 9.61897   9
   2   3   4 1792.35 127.411  16
  -2   3  -4 1934.10 145.136  15
  -2  -3  -4 1740.50 122.609  15
  -2  -3  -4 2007.85 95.5354  14
   2  -3   4 900.215 117.201   6
   2  -3   4 1933.64 148.702  16
   2  -3   4 1953.14 152.262   3
  -2  -3  -4 1811.64 105.468   7
  -2  -3  -4 1830.91 131.672   1
  -2  -3  -4 1695.81 127.934   5
   2   3   4 1870.65 105.278  10
   2   3   4 1861.99 105.402   9
  -2  -3  -4 1822.74 102.860   8
   2  -3   4 2105.86 159.221   2
   2  -3   4 1912.42 99.7150   8
  -2   3  -4 1941.70 151.672   1
  -2  -3  -4 1630.30 136.868   4
   2   3   4 1787.82 125.640   2
   2  -3   5 42.7661 28.5435  16
   2   3   5 151.922 43.4722  16
  -2  -3  -5 158.133 33.9851   7
   2   3   5 124.907 30.9156   9
  -2  -3  -5 87.5152 26.5228   4
  -2  -3  -5 160.232 40.5456  15
  -2   3  -5 138.553 47.0463  15
   2   3   5 199.913 47.5830  12
  -2  -3  -5 159.936 30.4321  14
   2   3   5 145.942 42.9098   2
   2   3   5 75.7898 38.9716  13
  -2  -3  -5 95.8384 32.6200   5
  -2  -3  -5 145.336 38.6107   1
  -2  -3  -6 236.658 55.8279   4
  -2  -3  -6 206.722 47.5612  15
   2   3   6 200.994 51.1389  16
  -2  -3  -6 202.907 39.8910   7
  -2  -3  -6 228.572 41.8531  14
   2   3   6 4.00831 53.3948  13
  -2  -3  -6 211.924 54.3112   1
  -2  -3  -6 209.212 53.3979   5
   2   3   6 210.454 52.2552   2
  -2  -3  -7 782.260 75.0471   7
  -2  -3  -7 749.227 94.7013  15
   2   3   7 682.337 101.139  13
  -2  -3  -7 762.883 107.285   4
   2  -4  -2 291.385 56.5787   6
   2  -4  -2 196.219 42.1723   3
   2  -4  -1 198.647 41.4810   7
  -2   4   1 160.254 35.3938  14
  -2   4   1 193.772 38.4425   1
   2  -4  -1 175.520 44.5442   6
  -2   4   1 202.850 50.9888  11
   2  -4  -1 210.183 41.4726   2
   2  -4  -1 174.347 38.1778   3
  -2   4   1 180.402 18.6314   4
   2  -4   0 1572.79 102.016   2
   2  -4   0 1539.85 107.225  16
  -2   4   0 1589.51 104.994  15
  -2   4   0 1607.66 103.587   1
  -2   4   0 1670.41 127.921  14
   2  -4   0 1574.85 123.293   6
   2  -4   0 1521.32 119.629   3
  -2   4   0 1558.70 63.2619  12
   2  -4   0 1569.40 105.364   7
  -2   4   0 1517.87 123.209  11
  -2   4   0 1632.79 114.657  10
   2  -4   0 1625.28 112.164   8
  -2  -4  -1 25.5167 29.5113   8
  -2   4  -1-7.65027 11.7497  15
   2  -4   1 11.9073 12.6308   7
  -2   4  -1 15.0199 21.4339  14
  -2  -4  -1 20.8961 19.4434   1
   2  -4   1 18.2574 17.2044  16
   2  -4   1 21.6075 16.5702   6
  -2  -4  -1 10.9433 15.6625   4
  -2   4  -1-3.01127 13.8662  11
   2  -4   1 15.8683 17.2158   2
  -2   4  -1 14.7020 16.5002  10
   2  -4   1 0.43347 13.8923   3
  -2   4  -1 13.4807 9.97104   9
  -2  -4  -1 4.64105 27.8700   5
   2   4   1 9.71465 25.7012   2
   2  -4   1 34.4641 20.0660   8
  -2   4  -1 33.6402 22.6375   1
  -2  -4  -2 90.8693 27.6275   8
   2  -4   2 60.6303 20.7781   7
  -2   4  -2 61.9993 21.5023   1
  -2  -4  -2 96.8280 39.7140   4
   2  -4   2 102.170 33.0123   2
   2  -4   2 92.7432 19.9754  13
  -2   4  -2 66.1183 30.5915  14
   2   4   2 23.7774 37.2109  13
   2  -4   2 85.8125 28.2509   6
   2  -4   2 91.9374 30.6975  16
   2   4   2 41.1209 38.1936  12
  -2   4  -2 62.6853 26.8194  11
  -2   4  -2 112.679 33.5867  15
  -2   4  -2 81.6601 23.8664  10
   2  -4   2 66.0931 28.2532   3
   2   4   2 87.1350 30.6395   2
   2   4   2 68.6700 13.3609   3
  -2  -4  -2 101.024 32.2983   1
  -2   4  -2 76.5403 24.2541   9
  -2  -4  -2 97.0885 35.9542   5
   2  -4   2 71.0330 22.5682   8
  -2  -4  -3 698.696 92.6226   7
  -2   4  -3 510.487 69.6228  15
   2  -4   3 553.818 79.1726   3
  -2  -4  -3 595.381 69.2174  15
  -2  -4  -3 577.625 69.6859   1
  -2   4  -3 586.361 81.7577  14
   2   4   3 204.671 69.2204  16
   2   4   3 611.961 71.7029   2
   2   4   3 299.941 72.8863  13
   2  -4   3 601.479 76.1070  16
   2   4   3 378.989 73.1278  12
   2  -4   3 563.549 78.1352   6
  -2  -4  -3 539.315 76.7674   5
   2  -4   3 590.063 52.8284  13
   2   4   3 675.410 83.3560   9
   2  -4   3 629.822 85.1149   2
  -2  -4  -3 532.705 62.2584   8
   2  -4   3 548.169 60.2599   8
  -2   4  -3 690.504 87.6547   1
  -2  -4  -3 500.315 74.5064   4
   2  -4   4 3053.48 189.396  16
  -2  -4  -4 2636.15 154.753   1
  -2  -4  -4 2716.37 155.357  15
  -2   4  -4 3062.66 183.430  15
   2  -4   4 2895.00 200.876   3
  -2  -4  -4 2768.01 150.641   7
  -2  -4  -4 2612.43 166.539   5
   2   4   4 2677.18 141.251  10
   2   4   4 2741.69 146.788   9
  -2  -4  -4 2710.42 142.239   8
   2  -4   4 2913.91 147.676   8
  -2  -4  -4 2606.41 175.914   4
   2   4   4 2668.15 149.735   2
   2   4   5 23.7377 27.1182  16
  -2  -4  -5 37.9441 22.8955   4
   2   4   5 1.85166 19.8254  13
   2   4   5 17.8469 16.5002   2
  -2  -4  -5 37.7876 27.6257  15
   2   4   5 1.04197 31.8787  12
   2   4   5 37.3181 17.3629  10
  -2  -4  -5 61.5765 28.5672   7
  -2  -4  -5 0.33232 18.1287   5
   2   4   5 25.1583 20.3390   9
  -2  -4  -5 35.9988 23.5136   1
  -2  -4  -5 17.0192 15.4837   8
  -2  -4  -6 227.145 60.8358   4
   2   4   6 114.826 46.6934   2
  -2  -4  -6 139.372 49.2448  15
   2   4   6 4.99117 58.0988  13
  -2  -4  -6 152.647 36.7472   7
  -2  -4  -6 109.481 34.5116   1
   2   4   6 20.2723 37.8220  16
   2   4   6 4.67222 44.8255  12
  -2  -4  -6 167.315 51.8214   5
   2   4   6 172.792 48.2678   9
  -2  -4  -7 269.565 64.6540   4
   2   4   7 65.5439 64.2369  16
  -2  -4  -7 314.836 54.1922   7
   2   4   7 23.8901 80.2922  13
  -2  -4  -7 327.779 70.5342  15
  -2  -4  -7 215.421 56.5592   5
   2  -5  -2 4071.06 160.369   2
   2  -5  -2 4084.24 204.526   7
  -2   5   2 3977.30 160.738   1
   2  -5  -2 3958.36 214.635   6
   2  -5  -2 4194.22 211.691   3
  -2   5   1 68.8835 25.7878  14
   2  -5  -1 104.791 33.6869   7
  -2   5   1 61.6928 27.7812   1
   2  -5  -1 56.8075 23.7555   6
  -2   5   1 106.639 41.8752  11
  -2   5   1 83.9682 30.4684  10
   2  -5  -1 80.0576 21.8835   2
   2  -5  -1 86.2175 31.0795   3
   2  -5  -1 56.4554 27.9842   8
   2  -5   0 4956.50 200.811  16
  -2   5   0 4771.18 178.638   1
  -2   5   0 4829.33 185.727  15
  -2   5   0 5110.21 233.477  14
   2  -5   0 4761.89 205.297   7
   2  -5   0 4729.89 225.620   6
   2  -5   0 4623.56 216.403   3
  -2   5   0 4891.60 137.884  12
  -2   5   0 4934.52 237.622  11
  -2   5   0 4858.42 211.883  10
   2  -5   0 4844.00 210.854   8
   2  -5   0 4655.37 174.937   2
   2  -5   1 1279.66 99.9476  16
  -2   5  -1 1311.11 117.543  14
  -2   5  -1 1296.80 96.9577  15
   2  -5   1 1246.85 101.550   7
   2  -5   1 1273.27 118.308   6
   2  -5   1 1166.11 109.724   3
  -2   5  -1 1264.90 120.414  11
  -2   5  -1 1401.63 109.448  10
  -2   5  -1 1239.82 101.899   9
   2  -5   1 1274.64 104.319   8
   2  -5   1 1435.49 107.060   2
  -2   5  -1 1443.71 107.398   1
   2  -5   2 155.313 38.7125   8
   2  -5   2 101.769 29.7855   7
   2  -5   2 195.781 47.8155   2
  -2  -5  -2 78.6321 35.8120   4
  -2   5  -2 112.594 42.9450  14
  -2  -5  -2 176.864 46.2471   8
   2  -5   2 121.050 39.4861   6
   2   5   2 101.784 46.5374  12
  -2   5  -2 152.354 46.5830  11
  -2  -5  -2 155.165 43.4110   1
   2  -5   2 94.0405 32.0874   3
   2  -5   2 100.943 29.8837  16
  -2   5  -2 159.372 43.2977   1
  -2   5  -2 136.974 37.7291  10
   2   5   2 46.2386 51.7178  13
   2   5   2 128.726 32.7988   2
  -2   5  -2 103.098 29.4353  15
  -2   5  -2 189.543 42.8925   9
  -2  -5  -2 146.835 43.6749   5
   2   5   3 424.739 60.4277   2
  -2   5  -3 521.012 69.7883  15
  -2  -5  -3 420.627 72.5007   4
  -2   5  -3 529.909 82.1890  14
   2  -5   3 437.954 41.3057  13
   2   5   3 306.089 87.0229  13
  -2  -5  -3 432.939 63.0682   1
  -2  -5  -3 547.373 94.0562   7
   2  -5   3 427.449 73.3840   6
   2  -5   3 432.913 64.5787  16
   2   5   3 265.307 72.7495  12
   2  -5   3 430.079 76.8562   3
  -2  -5  -3 461.019 76.6451   5
   2   5   3 519.084 79.1027   9
  -2  -5  -3 435.996 67.3018   8
   2  -5   3 442.642 62.1368   8
  -2  -5  -4 9.36067 18.9457   4
   2  -5   4-3.74795 23.1230  16
   2   5   4-3.59577 20.4966  16
  -2   5  -4-6.44708 29.3644  15
  -2  -5  -4 15.2434 17.5374   7
  -2   5  -4-19.3830 33.5284  14
   2  -5   4-35.9545 20.6236   6
   2   5   4 15.1606 42.4198  13
  -2  -5  -4-18.7442 17.1129   1
   2  -5   4-9.64516 24.1955   3
   2   5   4 17.7319 16.2341   2
   2   5   4-45.2390 28.9570  12
   2   5   4 28.8341 20.9937  10
   2  -5   4 11.5441 20.7989   8
  -2  -5  -4 16.1024 20.9308  15
  -2  -5  -4 14.2235 23.7560   5
   2   5   4 67.8923 33.1399   9
  -2  -5  -4-0.52483 20.6382   8
  -2  -5  -5 256.122 77.5302   4
   2   5   5 68.3365 21.8321   2
  -2  -5  -5 58.2851 28.5665   7
   2   5   5 63.4787 49.4229  10
  -2  -5  -5 228.724 69.1474   1
  -2  -5  -5 308.297 74.6947   5
  -2  -5  -5 89.9998 48.1609   8
  -2  -5  -6 1676.27 137.893  15
  -2  -5  -6 1417.54 122.666   7
  -2  -5  -6 1594.26 156.682   5
   2   5   6 1510.58 130.554   9
  -2  -5  -6 1570.93 159.503   4
   2   5   7 15.4370 34.4955  16
  -2  -5  -7-57.6988 42.2880  15
  -2  -5  -7-6.07494 27.6825   7
  -2  -5  -7 35.8599 48.4157   4
   2   5   7-0.66408 44.0100  13
   2   5   7 5.23540 47.6018  12
  -2  -5  -7-65.0607 37.2064   5
   2   5   7-9.81392 20.1214   9
   2  -6  -3 13.9131 23.4748   7
   2  -6  -3 17.4735 21.1428   6
  -2   6   3 21.7005 13.7855   1
   2  -6  -3 45.2072 23.5334   2
   2  -6  -3 28.9964 26.4569   3
   2  -6  -2 1015.19 77.2988   2
   2  -6  -2 1008.19 112.013   7
  -2   6   2 938.383 75.4281   1
   2  -6  -2 995.509 116.264   6
   2  -6  -2 969.540 105.953   3
  -2   6   2 941.238 116.642  11
  -2   6   2 782.409 103.215  10
   2  -6  -2 963.725 113.414   8
   2  -6  -1 517.787 77.2853   7
  -2   6   1 486.661 77.5885  14
  -2   6   1 490.278 55.4754  12
   2  -6  -1 554.145 87.4113   6
  -2   6   1 508.314 86.6325  11
  -2   6   1 439.069 73.2592  10
  -2   6   1 489.606 57.9766   1
   2  -6  -1 474.862 73.3741   3
   2  -6  -1 502.744 76.4121   8
   2  -6  -1 564.655 60.6093   2
  -2   6   0 165.374 35.8870   1
  -2   6   0 101.415 31.4366  15
   2  -6   0 128.902 38.9538   7
  -2   6   0 170.198 45.6579  14
   2  -6   0 204.369 47.4377   2
   2  -6   0 128.419 46.8578   6
  -2   6   0 174.997 51.5877  11
  -2   6   0 151.229 42.6479  10
   2  -6   0 161.140 46.4776   3
  -2   6   0 130.506 39.4397   9
   2  -6   0 104.870 34.5995   8
   2  -6   1 149.281 40.6175   7
   2  -6   1 172.476 39.5099  16
  -2   6  -1 189.332 38.8028  15
  -2   6  -1 92.6351 23.8388  14
   2  -6   1 167.958 48.3298   6
   2  -6   1 181.346 55.1401   2
  -2   6  -1 144.393 43.5396   1
  -2   6  -1 182.469 53.3763  11
   2  -6   1 137.135 42.0436   3
  -2   6  -1 142.091 41.6152  10
  -2   6  -1 129.179 41.0948   9
   2  -6   1 120.854 37.4195   8
   2  -6   2 17.1838 26.4847   8
  -2  -6  -2-26.7375 28.7076   8
   2  -6   2 15.2290 28.7615  16
  -2   6  -2 32.3088 24.4949  15
   2  -6   2 113.960 53.0507   7
  -2  -6  -2-12.7586 23.5866   4
  -2   6  -2 50.7915 29.5485  14
   2  -6   2-25.7160 36.9038   6
  -2  -6  -2 14.7503 23.3647   1
   2   6   2 1.43655 29.0535  13
  -2   6  -2 41.2839 27.0877  11
   2  -6   2 20.2189 24.6388   3
  -2   6  -2 15.9513 18.2191  10
   2   6   2 16.1481 19.1323   2
  -2   6  -2-25.7742 31.7286   9
  -2  -6  -2 23.3168 21.7208   5
  -2  -6  -3 46.8129 26.8850   8
  -2  -6  -3 53.1190 43.2468   4
  -2   6  -3 42.2425 33.5931  14
   2  -6   3 8.57178 16.2881  16
   2  -6   3 35.7752 24.7392   8
  -2  -6  -3 7.98577 35.9500   7
   2   6   3-6.99095 32.9941  13
   2  -6   3 52.0602 39.6837   6
  -2  -6  -3 14.9183 18.8542   1
   2  -6   3 39.9099 42.7220   3
   2   6   3-0.13434 33.6512  12
   2   6   3-8.37845 13.8974   2
  -2   6  -3 46.8933 31.0505  15
  -2  -6  -3-28.3263 32.7316   5
   2  -6   4 33.5162 26.7971   8
   2  -6   4 18.1829 34.4153  16
  -2  -6  -4 109.113 43.6432   7
  -2   6  -4 51.4383 32.3838  15
  -2  -6  -4 184.014 50.7618   1
  -2   6  -4 100.649 59.7222  14
   2   6   4 26.4063 48.1245  13
   2   6   4 116.945 28.1279   2
   2   6   4 9.29299 35.5830  12
   2   6   4 172.969 46.4113  10
  -2  -6  -4 79.7094 39.9423   4
  -2  -6  -4 101.529 41.4379   5
   2   6   4 114.735 49.0435   9
  -2  -6  -4 104.294 31.9562   8
   2   6   5 211.689 85.9207  16
  -2  -6  -5 729.341 94.0488   7
  -2  -6  -5 904.622 99.6937  15
   2   6   5 431.092 103.054  12
   2   6   5 897.113 115.746  13
  -2  -6  -5 789.538 113.430   5
   2   6   5 803.156 100.421  10
   2   6   5 770.362 98.8891   9
  -2  -6  -5 800.228 99.1931   8
   2   6   5 918.551 110.896   2
  -2  -6  -5 841.025 117.404   4
  -2  -6  -5 1071.51 126.236   1
  -2  -6  -6 1936.08 151.797  15
  -2  -6  -6 1655.99 166.386   5
   2   6   6 1722.97 154.629  10
  -2  -6  -6 1487.30 135.803   7
   2   6   6 1610.73 144.708   9
  -2  -6  -6 1868.78 161.673   8
  -2  -6  -6 1611.31 164.470   4
  -2  -6  -7 93.2377 48.0215  15
  -2  -6  -7 18.2070 19.8248   7
   2   6   7 37.6968 47.2513  13
   2   6   7 2.12522 47.6184  12
  -2  -6  -7 77.5746 47.1532   4
  -2  -6  -7 36.4206 46.8900   5
   2   6   7 35.7835 26.0074   9
   2   6   8 167.566 110.004  12
  -2  -6  -8 232.832 68.0456   5
   2   6   8 13.3027 116.834  13
   2  -7  -3 17.4480 27.7105   7
   2  -7  -3 16.4140 26.8912   6
   2  -7  -3-18.5196 31.4477   3
   2  -7  -2 173.408 54.9852   7
  -2   7   2 153.046 43.4265  12
   2  -7  -2 223.481 62.8213   6
  -2   7   2 259.303 81.0159  11
  -2   7   2 176.752 66.5612  10
   2  -7  -2 215.486 52.5693   3
   2  -7  -2 221.088 59.7934   8
  -2   7   1 874.481 106.112  14
   2  -7  -1 861.788 114.773   6
   2  -7  -1 797.833 99.8460   3
  -2   7   1 898.547 118.249  11
   2  -7  -1 894.410 111.109   7
  -2   7   1 773.754 106.626  10
  -2   7   1 944.603 117.455   9
   2  -7  -1 874.894 107.593   8
   2  -7   0 12.9199 19.5313   7
  -2   7   0 31.0096 27.0044  14
   2  -7   0 40.6363 20.5164   6
  -2   7   0 7.69829 33.0561  11
   2  -7   0 16.2232 17.7168   3
  -2   7   0 31.7196 26.4147  10
  -2   7   0 51.7127 38.4606   9
   2  -7   0-9.24184 24.4397   8
   2  -7   1 306.320 64.2929   7
   2  -7   1 363.458 69.2008  16
  -2   7  -1 283.932 63.8818  14
   2  -7   1 304.167 66.5770   6
  -2   7  -1 364.356 75.8696  11
   2  -7   1 268.901 61.3493   3
  -2   7  -1 281.634 65.7289  10
  -2   7  -1 308.469 61.2671   9
   2  -7   1 299.468 67.3953   8
   2  -7   2-18.9375 24.6721   8
  -2  -7  -2-46.5298 58.2314   8
  -2   7  -2 29.9986 26.1932  14
   2  -7   2 4.89792 24.7463  16
  -2  -7  -2-42.4649 31.6277   4
  -2   7  -2 26.7413 27.9719  15
   2  -7   2 33.3774 32.4459   7
   2  -7   2-35.8299 29.6015   6
   2  -7   2 21.9370 29.6542   3
  -2   7  -2-44.2386 38.9846  11
  -2   7  -2 0.83904 18.9832  10
  -2  -7  -2 29.4120 33.5955   1
  -2   7  -2 44.7686 30.8265   9
  -2  -7  -2-51.5678 55.2538   5
   2  -7   3 1037.23 119.340  16
  -2   7  -3 1286.33 148.665  14
  -2   7  -3 1064.33 106.987  15
   2  -7   3 1112.66 151.540   6
  -2  -7  -3 1335.06 156.757   5
  -2  -7  -3 1275.83 136.109   8
   2  -7   3 976.165 118.859   8
  -2  -7  -3 1392.53 153.989   4
  -2  -7  -4-10.5119 25.9744   4
   2   7   4 0.15232 33.3071  13
  -2  -7  -4-21.5503 40.1118   7
   2   7   4-7.98522 46.9824  12
   2   7   4-5.02407 20.7986  10
  -2  -7  -4-1.72747 24.5998   5
   2   7   4 34.9875 37.9604   9
  -2  -7  -4-4.06610 25.2250   8
  -2  -7  -5 697.655 109.222   4
   2   7   5 295.578 108.411  13
   2   7   5 743.191 114.202  12
  -2  -7  -5 747.323 109.955   7
   2   7   5 883.559 111.020  10
   2   7   5 792.633 119.121   9
  -2  -7  -5 725.210 112.431   5
  -2  -7  -5 669.708 98.6385   8
  -2  -7  -6 231.108 55.5662   7
   2   7   6 9.62533 78.2458  13
   2   7   6 42.8440 79.3325  12
   2   7   6 378.059 82.6090  10
  -2  -7  -6 280.180 71.1786   5
  -2  -7  -6 297.568 75.0249   4
   2   7   6 298.112 68.8729   9
  -2  -7  -6 388.753 79.2714   8
  -2  -7  -7 229.908 72.6426   4
  -2  -7  -7 236.701 64.6741   7
   2   7   7 18.8900 96.7048  13
   2   7   7 46.2867 100.754  12
  -2  -7  -7 363.547 88.9934   5
   2   7   7 170.412 57.4386   9
   2   7   8 9.20740 81.5355  13
   2   7   8 6.89813 84.3647  12
   2  -8  -3 1.75933 32.1989   7
  -2   8   3 28.1672 20.8178  12
   2  -8  -3-72.2096 54.8289   6
  -2   8   3 10.2550 24.9139  10
   2  -8  -3 10.4896 29.8639   3
   2  -8  -3 15.1450 35.8714   8
   2  -8  -2 10.2315 33.2270   7
   2  -8  -2-16.6934 41.2672   6
  -2   8   2 25.8722 30.8979  11
  -2   8   2 10.1443 28.1933  10
   2  -8  -2 29.1045 20.8212   3
  -2   8   2 35.4419 27.4621   9
   2  -8  -2-5.86737 28.5311   8
   2  -8  -1 136.461 49.6245   7
  -2   8   1-12.4790 28.7987  14
   2  -8  -1 100.308 33.1819   6
  -2   8   1 118.224 58.9730  11
   2  -8  -1 69.4552 42.4782   3
  -2   8   1 127.014 51.9105  10
  -2   8   1 85.6059 40.2707   9
   2  -8  -1 62.3932 35.9379   8
   2  -8   0 56.1828 36.7094   7
  -2   8   0 139.923 52.0230  14
   2  -8   0 55.5813 34.9452   6
  -2   8   0 77.3575 43.7300  11
   2  -8   0 41.4345 32.1274   3
  -2   8   0 55.6725 36.2688  10
  -2   8   0 79.8882 42.3064   9
   2  -8   0 33.8830 37.7669   8
   2  -8   1-35.5346 32.0203   7
  -2   8  -1-74.4608 40.2614  14
   2  -8   1-52.8000 34.8837   6
   2  -8   1-16.9061 40.4194   3
  -2   8  -1-2.46198 30.8321  11
  -2   8  -1 6.61682 29.4408  10
  -2   8  -1-54.1167 45.2693   9
   2  -8   1 103.766 40.3334   8
   2  -8   2 200.114 64.2206   8
  -2   8  -2 136.348 59.5177  14
   2  -8   2 132.882 58.2847   6
   2  -8   2 129.844 53.2987   3
  -2   8  -2 192.751 64.0065  11
  -2   8  -2 112.712 28.2746  10
  -2   8  -3 1190.53 154.390  14
   2  -8   3 862.158 147.533   6
  -2   8  -3 1173.10 153.881  11
  -2  -8  -3 1669.72 195.345   5
  -2  -8  -3 1489.07 166.076   8
  -2  -8  -3 1864.65 201.778   4
  -2  -8  -4 126.614 80.9382   7
  -2  -8  -4 34.1181 26.7109   4
   2   8   4 43.0336 43.1084  13
   2   8   4 48.8833 56.2432  12
   2   8   4 102.190 41.5257  10
  -2  -8  -4 55.4706 29.6467   5
   2   8   4 78.4455 53.8544   9
  -2  -8  -4-6.28583 33.4373   8
  -2  -8  -5 80.0041 55.4443   4
  -2  -8  -5-16.9378 38.4292   7
   2   8   5 19.8527 40.5893  13
   2   8   5-0.37584 45.4612  12
   2   8   5 36.3789 49.5227  10
  -2  -8  -5 50.0775 40.0196   5
   2   8   5 41.5143 42.1832   9
  -2  -8  -5 49.8712 36.3723   8
  -2  -8  -6 31.8936 38.0295   4
   2   8   6 4.16740 44.0392  13
   2   8   6-0.60700 38.6494  12
  -2  -8  -6 23.2944 35.7877   7
   2   8   6 24.6086 42.6974  10
  -2  -8  -6 42.5503 26.8882   5
   2   8   6 46.1429 45.2855   9
  -2  -8  -6-14.2673 42.0243   8
  -2  -8  -7 738.387 125.220   4
  -2  -8  -7 705.228 113.394   7
   2   8   7 919.214 146.868  12
  -2  -8  -7 858.174 142.253   5
   2   8   7 468.524 105.217   9
   2   8   8 3.24807 88.5393  13
   2   8   8-0.23350 52.5477  12
  -2  -8  -8 35.4622 55.5617   5
   2  -9  -3 9.52287 40.5983   7
   2  -9  -3-51.1201 40.3138   6
   2  -9  -3-30.5448 47.4095   3
  -2   9   3 9.03586 41.4890  10
  -2   9   3-57.2127 49.0990   9
   2  -9  -3-33.9960 36.3029   8
   2  -9  -2 925.482 135.275   7
   2  -9  -2 886.281 133.116   6
   2  -9  -2 1021.52 132.587   3
  -2   9   2 876.510 133.263  11
  -2   9   2 905.043 140.050  10
  -2   9   2 903.083 127.320   9
   2  -9  -2 1038.24 139.010   8
   2  -9  -1-35.4170 38.1394   7
  -2   9   1 39.4215 25.2705  14
   2  -9  -1 17.3824 39.8019   6
   2  -9  -1 83.5606 42.7659   3
  -2   9   1 12.9705 36.1929  11
  -2   9   1 79.5693 36.3858  10
  -2   9   1 47.3098 28.0866   9
   2  -9  -1 59.9470 39.1099   8
  -2   9   0 129.642 58.2319  14
   2  -9   0 36.8987 32.8412   6
   2  -9   0 54.0308 42.4536   7
   2  -9   0 63.6430 41.1705   3
  -2   9   0 95.1556 57.2342  11
  -2   9   0 32.4636 28.7959  10
  -2   9   0 104.381 40.5745   9
   2  -9   0 65.6055 35.3335   8
   2  -9   1 15.3474 45.8280   7
   2  -9   1 27.4939 34.5955   6
  -2   9  -1-4.14129 48.1536  14
   2  -9   1-13.5287 35.1957   3
  -2   9  -1 56.3124 43.1835  11
  -2   9  -1 71.1896 59.6018  10
  -2   9  -1 55.8546 56.0618   9
   2  -9   1 59.7721 49.1340   8
   2  -9   2 84.6662 48.8569   6
  -2   9  -2 99.6739 48.9030  14
  -2   9  -2 56.4438 33.6225  11
  -2   9  -2 103.798 50.5573  10
   2  -9   2 12.2083 29.2693   8
  -2  -9  -3 73.0821 71.0745   8
   2   9   3 80.1267 51.0857  10
  -2  -9  -3 85.1517 48.5801   5
  -2  -9  -4 46.1007 51.5936   4
   2   9   4 71.9165 35.4283  10
  -2  -9  -4 44.4859 64.6908   5
  -2  -9  -4 22.2092 47.2587   8
  -2  -9  -5-82.2021 49.5620   7
  -2  -9  -5 8.19230 45.2327   4
   2   9   5 5.15599 39.2367  13
   2   9   5 2.83291 57.2987  12
   2   9   5-7.90385 45.2906  10
  -2  -9  -5-11.4869 40.8153   5
   2   9   5 64.1898 57.7344   9
  -2  -9  -5 30.9298 27.6590   8
  -2  -9  -6 166.495 74.6283   7
  -2  -9  -6 157.735 68.5094   4
   2   9   6-0.22937 32.8739  12
   2   9   6-7.97576 42.0391  10
   2   9   6 70.7866 76.8750  13
  -2  -9  -6 89.2554 44.4716   5
   2   9   6 30.0741 48.5328   9
  -2  -9  -6 82.4876 39.5731   8
  -2  -9  -7 418.978 98.9581   4
  -2  -9  -7 294.656 79.2888   7
   2   9   7 56.0497 115.122  13
   2   9   7 37.1209 96.5525  12
  -2  -9  -7 314.202 87.2976   5
   2   9   7 225.817 79.8028   9
  -2  -9  -7 196.487 72.7444   8
   2   9   8-0.26516 52.8248  12
  -2  -9  -8 26.3871 58.2140   5
   2 -10  -3 73.3946 44.7861   7
   2 -10  -3 104.862 54.5652   6
  -2  10   3 34.3278 52.2902  10
  -2  10   3-14.1891 48.5692   9
   2 -10  -3 112.788 63.9142   8
   2 -10  -2 359.889 96.2343   7
   2 -10  -2 306.859 88.2493   6
  -2  10   2 301.964 93.3117  11
  -2  10   2 355.230 98.5395  10
  -2  10   2 263.110 77.4242   9
   2 -10  -2 380.314 95.0749   8
   2 -10  -1 42.3175 46.2968   6
   2 -10  -1 79.2483 67.1495   3
   2 -10  -1-3.35720 38.8005   7
  -2  10   1 28.2050 35.0355  11
  -2  10   1 87.5630 34.4492  10
  -2  10   1 88.1568 50.7896   9
   2 -10  -1 28.0480 26.9470   8
  -2  10   0 40.9610 41.7020  14
   2 -10   0 67.9107 53.5163   6
   2 -10   0-29.8112 54.7410   7
  -2  10   0 7.23070 39.1644  11
  -2  10   0-48.1606 69.9671  10
  -2  10   0 1.01996 27.9594   9
   2 -10   0-36.7040 40.4934   8
   2 -10   1 556.578 117.753   7
  -2  10  -1 651.957 144.048  14
   2 -10   1 771.124 146.259   6
  -2  10  -1 698.588 137.875  11
  -2  10  -1 525.342 117.376  10
   2 -10   1 517.197 109.309   8
   2  10   4 86.7434 86.8403  10
  -2 -10  -4-90.7891 102.588   5
  -2 -10  -4 18.4042 53.5591   8
  -2 -10  -5-12.7281 79.6288   4
   2  10   5 145.988 89.7031  10
  -2 -10  -5 31.1206 54.9305   5
  -2 -10  -5-23.9951 46.8175   8
  -2 -10  -6-106.095 78.9568   7
  -2 -10  -6-32.4229 57.1068   4
   2  10   6-128.783 65.7178  13
   2  10   6 59.1131 89.9372  12
   2  10   6 73.9293 66.0904  10
  -2 -10  -6 22.0550 53.7096   5
   2  10   6 43.7666 74.0414   9
  -2 -10  -6 56.3546 33.8102   8
   2 -11  -3 86.7304 61.1493   7
   2 -11  -3 45.9966 40.0374   6
  -2  11   3 51.9209 53.9784  10
  -2  11   3 219.083 80.5235   9
   2 -11  -3 93.3548 54.9885   8
   2 -11  -2 11.4897 41.2685   7
   2 -11  -2 40.0599 34.0731   6
  -2  11   2 77.4155 63.4960  11
  -2  11   2 33.2687 35.7145  10
  -2  11   2-10.9712 28.9418   9
   2 -11  -2 55.7050 58.7643   8
   2 -11  -1 110.006 55.2483   7
   2 -11  -1 125.625 60.1302   6
  -2  11   1 262.398 94.3859  11
  -2  11   1 140.570 52.1105  10
  -2  11   1 257.898 85.4452   9
   2 -11  -1 124.074 42.1805   8
   2 -11   0-7.63369 78.4871   7
   2 -11   0-44.7177 57.9811   6
  -2  11   0 140.275 96.1814  11
  -2  11   0-9.52366 46.2836  10
  -2  11   0 25.2682 48.7903   9
   2 -11   0 0.79608 39.3856   8
  -2  11  -1-38.7712 54.4974  11
   2 -11   1 56.5740 49.5434   6
   3   0   1-30.4305 32.0392  16
  -3   0  -1-30.7435 36.6048  15
  -3   0  -1-1.60333 12.3472   4
   3   0   1-16.1976 13.0606   6
  -3   0  -1 10.8450 18.0057   1
   3   0   1-1.75040 15.2436   3
   3   0   1 9.55661 17.6384   2
  -3   0  -1-27.2398 16.6931   5
   3   0   2 1295.44 129.324  16
  -3   0  -2 1380.55 128.516  15
  -3   0  -2 1164.15 105.478  14
  -3   0  -2 1335.04 128.303   1
   3   0   2 1358.66 89.1020   6
   3   0   2 1205.44 122.093  13
   3   0   2 1228.34 116.310   3
   3   0   2 1268.81 122.099   2
  -3   0  -2 1106.85 80.7291   5
  -3   0  -2 1216.28 112.092   4
   3   0   3-36.2483 26.8346  16
  -3   0  -3 35.2600 35.0175  15
  -3   0  -3 16.1812 18.0308   4
  -3   0  -3 7.85985 16.9596  14
   3   0   3 0.59985 16.8475  13
   3   0   3 14.4741 12.9027   6
  -3   0  -3-18.9886 26.6851   1
   3   0   3-31.0399 28.5040   2
   3   0   3-25.8257 24.7372   3
  -3   0  -3-6.19735 10.9408   5
   3   0   4 45.3406 31.9984  16
  -3   0  -4 47.1280 30.3196   4
  -3   0  -4 26.1938 31.0654  15
  -3   0  -4 22.3384 18.5666  14
   3   0   4-22.8299 19.5386   6
   3   0   4 33.3481 16.8770  13
   3   0   4 61.2663 35.0967   2
   3   0   4 59.3311 25.1472   3
  -3   0  -4 47.5637 22.9259   5
  -3   0  -4 26.4959 28.5251   1
   3   0   5 37.7180 35.0042  16
  -3   0  -5-4.29140 23.4973   4
  -3   0  -5 31.8744 37.5007  15
  -3   0  -5-10.8036 24.2869  14
   3   0   5 14.9062 23.9397  13
  -3   0  -5 3.30606 26.8965   1
   3   0   5 0.49493 27.4941   2
   3   0   5 24.8429 23.4796  12
   3   0   5 3.24305 16.8872   3
  -3   0  -6 2333.51 190.791  15
   3   0   6 2511.58 200.580  16
  -3   0  -6 2310.83 170.001  14
   3   0   6 2732.71 207.050  13
   3   0   6 2552.90 156.938  12
   3   0   6 2566.40 202.659   2
   3   0   7 34.2023 33.1723  16
  -3   0  -7 36.2808 41.8820  15
   3   0   7 87.8491 50.0207   2
  -3   0  -7 44.5460 48.2538  14
   3   0   7 61.3779 50.5339  13
   3   0   7 0.74633 31.6759  12
  -3   0  -7-2.64041 35.3196   1
   3  -1   1 11.6059 15.9941  16
  -3   1  -1 60.5433 27.7633  15
  -3   1  -1 20.3960 10.9633   4
  -3  -1  -1 13.2255 23.0820   4
  -3   1  -1 18.5583 18.7604   1
  -3   1  -1 3.39735 16.5481  14
  -3  -1  -1 15.8241 22.4238   1
   3  -1   1-1.76867 8.61990   7
   3  -1   1 22.3312 13.1592   6
   3  -1   1 43.2760 29.5809   2
   3  -1   1 44.1953 26.1910   3
   3   1   1 32.9808 24.6298   3
   3   1   1 34.3768 28.6376   2
  -3   1  -1 43.4444 15.7120   5
   3   1   2 464.445 92.2887  16
   3  -1   2 347.478 66.8778  16
  -3  -1  -2 416.047 76.9697   4
  -3  -1  -2 568.894 87.2801  15
  -3   1  -2 387.797 70.0507  15
  -3   1  -2 366.057 60.9897   4
  -3   1  -2 370.948 65.6074  14
   3  -1   2 354.610 52.7379   6
  -3   1  -2 344.383 67.1528   1
   3   1   2 366.570 41.6806   6
   3   1   2 430.447 86.2702  13
   3  -1   2 378.767 65.1659  13
   3   1   2 492.640 79.5141   3
  -3   1  -2 370.291 38.8290   5
  -3  -1  -2 454.885 81.8272   1
   3  -1   2 425.047 73.1395   2
   3  -1   2 376.989 66.0193   3
   3  -1   3 3308.27 198.175  16
   3   1   3 3519.45 207.466  16
   3   1   3 3378.14 200.715   2
  -3   1  -3 3426.06 204.265  15
  -3  -1  -3 3552.10 206.608  15
  -3   1  -3 3424.45 203.171   1
  -3  -1  -3 3419.30 204.790   1
  -3   1  -3 3495.43 198.386  14
  -3  -1  -3 3623.01 184.095  14
   3   1   3 3330.51 110.726   6
   3  -1   3 3345.41 151.748   6
   3  -1   3 3266.28 177.878  13
   3   1   3 3453.84 200.585  13
   3   1   3 3456.87 178.140   3
  -3   1  -3 3447.41 125.032   5
  -3  -1  -3 3431.67 161.052   5
  -3   1  -3 3542.31 189.708   4
   3  -1   3 3408.98 192.275   3
  -3  -1  -3 3435.36 198.773   4
   3  -1   3 3078.39 189.313   2
  -3  -1  -4 40.6366 76.6531   1
  -3   1  -4 425.585 68.4450   4
  -3   1  -4 414.608 76.0218  15
  -3  -1  -4 406.310 69.4464  15
  -3  -1  -4 387.000 72.9573   4
  -3   1  -4 402.307 68.3990  14
   3  -1   4 440.072 63.2131   6
  -3  -1  -4 450.880 67.9774  14
   3  -1   4 370.815 64.9059  13
   3   1   4 421.138 71.6047  13
   3   1   4 430.522 76.5706  16
   3  -1   4 363.736 68.1754  16
   3   1   4 371.867 59.0924  12
   3  -1   4 361.876 67.5210   2
  -3   1  -4 463.608 60.7283  11
   3   1   4 367.866 70.5566   2
   3  -1   4 381.446 66.6087   3
   3   1   4 414.303 63.8371   3
  -3   1  -4 387.021 70.1671   1
  -3  -1  -4 396.910 57.5688   5
  -3   1  -5 239.853 55.9373   4
   3   1   5 253.848 68.1403  16
  -3  -1  -5 281.987 73.1183  15
  -3  -1  -5 245.937 56.1503   4
   3  -1   5 240.363 64.7304  16
  -3   1  -5 242.313 74.0588   1
  -3   1  -5 280.962 63.1137  15
  -3   1  -5 283.741 58.9586  14
  -3  -1  -5 292.967 61.7281  14
   3  -1   5 303.360 63.0461  13
   3   1   5 257.580 65.7782  13
   3  -1   5 194.076 52.6828   2
  -3  -1  -5 6.38290 51.9038   1
   3   1   5 224.769 83.7072   2
   3   1   5 250.119 52.4464  12
   3  -1   5 113.086 38.3968  12
   3   1   5 252.807 60.7517   3
   3  -1   5 262.550 60.0417   3
  -3   1  -5 261.991 41.6513  11
  -3  -1  -5 265.423 49.5101   5
   3   1   6 732.662 107.439  16
  -3  -1  -6 66.2842 96.8723   4
  -3   1  -6 649.186 89.7336  15
  -3  -1  -6 625.222 107.896  15
   3  -1   6 711.359 113.798  16
  -3  -1  -6 632.149 86.2578  14
   3  -1   6 752.453 114.690   2
  -3   1  -6 628.281 86.3658  14
   3  -1   6 761.280 110.035  13
   3   1   6 671.978 106.414   2
   3   1   6 583.357 96.7222  13
   3   1   6 757.396 92.6747  12
  -3   1  -6 602.240 66.2443  11
  -3   1  -6 644.052 105.903   1
  -3  -1  -6 74.8013 103.420   1
  -3  -1  -7 6.93269 42.3187   4
   3  -1   7 19.3951 50.6453  16
   3   1   7 53.6909 53.9552  16
   3  -1   7 46.4265 54.0500   2
  -3  -1  -7 38.7876 28.4790  14
  -3   1  -7 140.505 69.8566  15
  -3  -1  -7 84.7211 46.2113  15
   3   1   7 78.5464 56.9530   2
  -3   1  -7 38.9911 41.9064  14
   3  -1   7 98.2331 45.3170  13
   3   1   7 72.5724 54.2060  13
  -3   1  -7 95.3903 53.1951   1
   3   1   7 69.3281 39.3523  12
  -3  -1  -7-8.45152 39.8002   1
  -3   2   0 388.487 60.9321  14
  -3   2   0 437.451 66.8066   1
   3  -2   0 290.989 51.5937   6
   3  -2   0 294.662 53.1254   3
   3  -2   0 310.579 56.1514   2
  -3   2   0 343.669 49.2843   4
   3  -2   1 277.960 59.7536  16
   3  -2   1 248.902 30.7590   7
  -3   2  -1 336.178 65.0700  15
  -3   2  -1 267.838 48.1034   4
  -3   2  -1 256.312 58.1810  14
   3  -2   1 256.882 48.4961   6
  -3   2  -1 219.156 22.9911   5
  -3   2  -1 236.480 52.0410   1
   3  -2   1 201.739 50.1400   2
   3  -2   1 276.738 57.1438   3
  -3  -2  -2 27.2906 13.6718   8
   3   2   2 60.1648 25.5951  16
  -3   2  -2 4.87738 20.4617  15
  -3   2  -2 50.7964 28.3062   4
  -3  -2  -2 29.0674 25.7911  15
  -3  -2  -2 25.4419 23.2041   4
  -3   2  -2 1.44044 18.8234  14
   3  -2   2 60.0554 29.8278  13
   3   2   2 36.0293 31.6695  13
   3  -2   2 8.45341 14.0304   6
   3   2   2 1.46066 7.69911   6
   3  -2   2 61.5699 30.0493  16
   3  -2   2 17.9758 17.1419   2
   3  -2   2 18.5048 23.0892   3
   3   2   2 31.3147 27.4374   2
   3   2   2 49.8402 27.1619   3
  -3   2  -2 75.4540 35.5133   1
  -3  -2  -2 65.6490 26.3388   5
  -3  -2  -2 44.9358 22.8552   1
   3  -2   3 1789.17 146.145  16
   3   2   3 1916.81 155.735  16
   3   2   3 2028.10 158.472   2
  -3   2  -3 1846.39 154.466   1
  -3   2  -3 2072.23 157.614  15
  -3  -2  -3 2058.79 157.006  15
  -3  -2  -3 1888.74 159.366   1
  -3   2  -3 1965.04 152.589  14
   3  -2   3 1927.24 127.854   6
   3  -2   3 1937.56 130.881  13
   3   2   3 1832.58 162.053  13
   3  -2   3 1824.66 146.455   3
   3   2   3 1919.94 126.199   3
  -3   2  -3 2070.84 136.521  11
  -3  -2  -3 1993.76 138.308   5
  -3   2  -3 2073.10 140.329   4
  -3  -2  -3 2118.39 166.568   4
   3  -2   3 1928.90 150.056   2
  -3   2  -4 1364.45 136.023   1
   3  -2   4 1380.19 132.230  16
   3   2   4 1435.36 135.982  16
  -3   2  -4 1478.13 139.526  15
  -3  -2  -4 1377.76 130.495  15
  -3   2  -4 1379.28 132.032  14
  -3  -2  -4 1496.67 117.807  14
   3  -2   4 1505.67 121.065   6
   3  -2   4 1394.71 131.255   3
   3   2   4 1288.15 102.901   3
   3  -2   4 1354.12 114.774  13
   3   2   4 1353.52 135.111  13
   3   2   4 1359.78 118.961  12
  -3   2  -4 1483.24 114.592  11
  -3  -2  -4 1367.35 115.506   5
  -3   2  -4 1375.52 118.167   4
   3  -2   4 1340.28 130.397   2
  -3  -2  -4 1334.85 132.566   4
   3   2   4 1456.23 134.352   2
   3  -2   5-26.7725 25.0260  16
   3   2   5 4.29578 19.7146  16
  -3  -2  -5 0.66885 20.8317   4
  -3   2  -5 40.7389 37.4215  15
  -3  -2  -5-0.37660 34.2072  15
  -3  -2  -5-17.3464 21.6445  14
   3  -2   5 13.8841 26.4749   2
   3  -2   5 11.7976 18.5177  13
   3   2   5-1.86052 23.8459  13
   3   2   5-43.0938 33.5937   3
   3   2   5 0.71852 19.7031  12
  -3  -2  -5-33.5167 30.4550   1
   3   2   5 7.46761 27.8677   2
   3  -2   5-14.7059 19.8765   3
  -3   2  -5-11.2840 21.1673  11
  -3  -2  -5 13.8487 19.6786   5
  -3   2  -5-18.7944 40.2739  14
  -3   2  -5-10.5182 25.7277   1
  -3  -2  -6 9.57012 45.0035   1
   3  -2   6 71.6232 40.0793  16
  -3  -2  -6 1.45448 38.4471   4
  -3   2  -6 99.1827 38.3684  15
   3  -2   6 89.4657 46.4577   2
  -3  -2  -6 90.4613 39.4936  15
  -3   2  -6 89.3490 38.3304  14
  -3  -2  -6 92.5922 28.0594  14
   3   2   6 90.1158 50.8210   2
   3  -2   6 95.0928 42.6988  13
   3   2   6 62.5023 24.9110  13
   3   2   6 46.9603 27.4880  12
  -3   2  -6 92.9047 28.8865  11
  -3   2  -6 155.466 63.4472   1
   3   2   6 59.7955 46.1067  16
  -3  -2  -6 72.2882 32.4189   5
  -3  -2  -7 5.55437 50.3919   4
   3   2   7 113.122 52.1331  16
  -3  -2  -7 59.5436 27.2081  15
   3   2   7 136.739 60.9254   2
  -3  -2  -7 42.7299 35.6724  14
   3   2   7 40.8865 46.2826  13
   3   2   7 41.3100 22.2474  12
  -3  -2  -7 5.85827 48.8504   1
   3   2   8 87.8073 60.1938  16
  -3  -2  -8 190.485 61.7710  15
  -3  -2  -8 77.6551 40.1719  14
   3   2   8 61.4256 43.8716  13
   3  -3   0 783.678 69.5652   7
  -3   3   0 764.885 95.8898  14
  -3   3   0 737.959 90.4510   1
   3  -3   0 788.082 91.5769   6
   3  -3   0 719.397 87.4565   2
   3  -3   0 682.271 91.5153   3
  -3   3   0 833.215 71.8063   4
   3  -3   1 71.6359 34.1063  16
  -3   3  -1 61.4340 20.7878   4
   3  -3   1 47.9406 18.0687   7
  -3   3  -1 57.8156 32.4136   1
  -3   3  -1 61.7304 25.8460  14
  -3   3  -1 24.4341 29.7558  15
   3  -3   1 97.9619 35.4067   6
   3  -3   1 51.1514 30.9698   2
   3  -3   1 133.847 45.3177   3
   3  -3   2 504.815 54.0317   7
   3  -3   2 459.872 78.8143  16
  -3  -3  -2 422.745 79.7791   1
  -3   3  -2 493.489 78.4773  15
  -3  -3  -2 448.053 83.1212   4
  -3   3  -2 463.157 78.9966  14
  -3   3  -2 506.151 80.1648   1
   3  -3   2 438.213 75.9270  13
   3   3   2 471.328 64.8439   3
   3   3   2 490.883 93.8732  13
   3  -3   2 416.066 67.8349   6
  -3   3  -2 525.789 77.6228  11
  -3  -3  -2 565.858 88.8042   5
   3  -3   2 449.046 72.5067   2
   3  -3   2 363.789 69.5655   3
  -3   3  -2 503.903 54.3080   9
   3   3   2 406.987 73.5148   2
  -3  -3  -2 444.865 58.9846   8
  -3   3  -2 487.260 60.1826   4
   3  -3   3 887.255 104.276  16
   3   3   3 1007.71 114.115  16
   3   3   3 1040.81 117.469   2
  -3   3  -3 1058.69 115.141   1
  -3   3  -3 988.443 110.456  15
  -3  -3  -3 997.117 109.827  15
  -3  -3  -3 946.604 110.321   1
  -3   3  -3 939.104 113.028  14
   3  -3   3 956.812 98.4389   6
   3  -3   3 1001.82 91.1899  13
   3  -3   3 912.799 108.008   3
   3   3   3 935.476 120.084  13
   3   3   3 976.402 86.5069   3
  -3   3  -3 1029.44 104.759  11
  -3  -3  -3 1088.38 114.002   5
  -3  -3  -3 1031.63 75.3351   8
  -3   3  -3 979.957 89.5910   4
   3  -3   3 909.913 104.212   2
  -3  -3  -3 1023.86 125.170   4
   3  -3   4 551.866 87.5987  16
  -3   3  -4 567.926 85.0489  15
  -3   3  -4 542.929 89.2842   1
  -3  -3  -4 575.429 88.6524  15
  -3  -3  -4 66.2821 88.8568   1
  -3   3  -4 589.227 94.8945  14
   3  -3   4 626.755 87.9959   6
   3   3   4 521.321 66.9477   3
   3  -3   4 613.972 77.9794  13
   3  -3   4 588.013 91.2094   2
   3   3   4 497.929 88.7368  13
   3   3   4 474.841 90.5600  12
  -3   3  -4 602.513 85.2540  11
  -3  -3  -4 635.777 85.3958   5
   3  -3   4 520.487 85.0572   3
   3   3   4 628.098 92.2387  16
  -3  -3  -4 18.3937 98.2144   4
   3   3   4 632.737 88.5673   2
   3  -3   5 1871.91 173.059  16
   3   3   5 1898.31 163.230  16
  -3   3  -5 1967.86 173.430  15
  -3  -3  -5 1940.94 165.143  15
  -3   3  -5 2142.67 186.713  14
  -3  -3  -5 2035.15 134.163  14
   3  -3   5 1883.64 170.859   3
   3  -3   5 1876.75 145.503  13
   3   3   5 1705.88 162.439  13
   3   3   5 1775.70 149.180  12
  -3   3  -5 2049.43 157.990  11
  -3  -3  -5 1879.38 149.586   5
   3  -3   5 2037.45 179.109   2
   3   3   5 1868.71 155.527   2
  -3   3  -5 1845.21 172.336   1
  -3  -3  -6-9.23583 39.5503   1
   3  -3   6 8.06197 41.2091  16
  -3  -3  -6-2.16501 39.8563   4
   3  -3   6 40.4128 58.1783   2
  -3   3  -6-20.1117 29.9429  15
  -3  -3  -6 14.1910 25.6624  15
  -3   3  -6-11.4042 48.2907  14
   3   3   6-120.935 53.9544  16
   3  -3   6 9.39495 24.5789  13
   3   3   6 24.5503 30.5128   2
   3   3   6-15.3547 32.3625  13
  -3   3  -6 31.9382 28.6508   1
   3   3   6 40.7197 35.2096  12
  -3   3  -6 75.3710 48.3901  11
  -3  -3  -6-6.80815 26.6831   5
   3   3   7 3123.29 227.390  16
  -3  -3  -7 2998.95 217.982  15
   3   3   7 3410.33 241.742  12
   3   3   7 3601.93 259.637   2
   3   3   8 412.392 84.5987  16
  -3  -3  -8 428.866 85.8171  15
   3   3   8 8.95090 92.6167  13
   3   3   8 209.830 67.9919  12
  -3  -3  -8 36.4370 97.1582   4
   3  -4  -1 44.0089 19.0642   6
   3  -4  -1 32.1046 19.7064   3
   3  -4  -1 47.6886 28.7932   2
   3  -4   0 1136.44 111.016   2
   3  -4   0 1177.08 96.9281   7
  -3   4   0 1218.84 130.993  14
  -3   4   0 1113.80 112.827   1
   3  -4   0 1254.22 126.580   6
   3  -4   0 1182.56 129.377   3
  -3   4   0 1228.63 79.8209   4
   3  -4   1 151.161 45.2424  16
  -3   4  -1 119.736 28.2854   4
   3  -4   1 101.252 26.3934   7
  -3   4  -1 115.482 48.1865  14
  -3   4  -1 136.448 38.9251   1
   3  -4   1 166.416 46.1336   6
  -3   4  -1 164.066 47.1996  11
   3  -4   1 149.861 47.9915   2
  -3   4  -1 135.776 42.8161  15
  -3   4  -1 157.069 36.8157   9
   3  -4   1 99.0571 42.7620   3
  -3  -4  -2 59.6168 34.5825   8
   3  -4   2 99.9394 39.1188  16
   3  -4   2 114.169 35.0262   7
  -3   4  -2 75.5651 30.3590  15
  -3  -4  -2 43.2594 34.9689   4
  -3   4  -2 61.1875 40.8409  14
   3   4   2-8.50404 40.0532  13
   3  -4   2 101.023 37.5531   6
   3  -4   2 43.3204 24.5012   2
  -3   4  -2 107.631 42.9782  11
   3  -4   2 53.6347 27.0278   3
   3   4   2 30.2627 25.4721   2
  -3   4  -2 48.1871 18.0660   9
   3   4   2 48.9331 16.5839   3
  -3  -4  -2 8.77206 22.6872   5
  -3   4  -2 74.6218 38.8681   1
  -3  -4  -2 8.93827 39.5569   1
  -3  -4  -3 108.108 34.1211   8
  -3  -4  -3 116.292 44.4268   1
   3   4   3 26.1131 33.9499  16
  -3   4  -3 117.732 44.8044  15
  -3  -4  -3 189.730 67.1916   4
  -3   4  -3 99.7348 36.2157  14
  -3   4  -3 133.743 46.5121   1
   3  -4   3 118.781 40.6921  13
   3   4   3 0.30962 44.4795  13
   3  -4   3 102.811 38.4538   6
   3  -4   3 86.3893 33.1905   2
  -3   4  -3 100.648 27.9539  11
   3  -4   3 130.365 48.5822  16
   3  -4   3 106.025 46.8595   3
   3   4   3 71.4181 37.4579   2
  -3  -4  -3 90.1493 41.2345   5
   3  -4   4 371.046 74.6448  16
  -3  -4  -4 577.402 98.4159  15
  -3   4  -4 438.147 76.7479  15
  -3   4  -4 401.708 80.1441  14
   3  -4   4 411.621 80.8746   2
   3  -4   4 373.696 57.6378  13
   3  -4   4 455.346 78.5967   6
  -3   4  -4 452.865 79.6843  11
   3  -4   4 432.935 84.9338   3
   3   4   4 445.180 79.6014   2
  -3   4  -4 412.858 78.8101   1
   3  -4   5 75.9488 46.5240  16
  -3   4  -5 72.3070 38.8528  15
   3  -4   5 114.648 53.4757   2
  -3  -4  -5 24.7795 45.2935   4
  -3  -4  -5 117.104 65.9386  15
  -3   4  -5 142.708 60.0135  14
   3  -4   5 103.494 40.6623  13
   3   4   5 1.07706 36.7291  13
   3   4   5 79.3064 39.2187  16
   3   4   5 170.739 54.7702   2
  -3  -4  -5 3.20839 36.5176   1
   3  -4   5 79.4612 45.7221   3
   3   4   5 85.0492 52.6015  12
  -3   4  -5 77.8913 43.4490   1
  -3   4  -5 59.1459 33.2677  11
  -3  -4  -5 94.3848 37.9273   5
   3  -4   6 244.496 69.9324  16
   3   4   6 391.765 76.0179  16
  -3  -4  -6 47.8365 90.4136   4
  -3   4  -6 349.503 87.5980  15
  -3  -4  -6 427.504 80.4716  15
  -3   4  -6 320.559 80.5385  14
   3   4   6 355.379 72.2646   2
   3   4   6 15.2984 97.9637  13
   3   4   6 179.784 86.6471  12
  -3  -4  -6 349.023 75.8423   5
  -3  -4  -6 51.6257 87.5350   1
  -3  -4  -7 5.66209 79.9704   4
   3   4   7 311.222 75.5405  16
  -3  -4  -7 305.824 75.4290  15
   3   4   7 403.763 90.4608   2
   3   4   7 8.23136 67.8746  13
   3   4   7 149.917 84.4631  12
  -3  -4  -7 42.4665 91.9551   1
  -3  -4  -7 335.309 75.4528   5
  -3  -4  -8 75.2306 116.794   4
   3   4   8 679.784 114.058  16
  -3  -4  -8 648.454 107.415  15
   3   4   8 58.7286 130.960  13
   3   4   8 200.137 101.021  12
   3  -5  -1 364.968 64.3328   7
  -3   5   1 240.527 57.0617  14
  -3   5   1 371.970 64.7204   1
   3  -5  -1 394.855 80.9298   6
   3  -5  -1 321.985 57.9902   2
   3  -5  -1 321.628 70.2863   3
   3  -5   0 385.652 64.8987   7
  -3   5   0 363.498 76.0148  14
   3  -5   0 383.144 77.3344   6
  -3   5   0 446.513 85.8596  11
  -3   5   0 374.145 66.0141   1
   3  -5   0 369.445 64.3683   2
   3  -5   0 337.136 75.5096   3
   3  -5   1 49.9807 26.3557  16
   3  -5   1 98.9850 35.9892   7
  -3   5  -1 62.4168 31.6853  15
  -3   5  -1 114.649 48.0028  14
   3  -5   1 95.5859 35.8436   6
   3  -5   1 51.5875 22.1978   2
  -3   5  -1 41.0224 22.9961  11
   3  -5   1 89.7266 44.8537   3
  -3   5  -1 106.265 36.0904   9
  -3   5  -1 91.3470 42.5414   1
   3  -5   2 3160.56 195.133  16
   3  -5   2 4126.10 210.704   7
  -3   5  -2 3339.81 195.837  15
  -3   5  -2 3294.42 220.781  14
   3  -5   2 3191.01 206.701   6
   3  -5   2 3114.49 211.767   3
  -3   5  -2 3231.82 214.583  11
  -3   5  -2 3567.92 188.176   9
   3  -5   2 3330.35 198.741   2
  -3   5  -2 3211.22 194.792   1
  -3  -5  -3 181.283 51.5027   8
   3  -5   3 146.219 47.4657  16
  -3   5  -3 156.136 49.5942  15
  -3  -5  -3 196.842 59.4964   4
  -3   5  -3 156.009 54.6649  14
   3  -5   3 223.835 60.8496   2
   3  -5   3 211.931 62.6694   6
   3   5   3-1.81375 51.6001  13
  -3   5  -3 169.425 53.5449  11
   3  -5   3 104.344 42.5027   3
   3   5   3 141.134 50.4874   2
  -3  -5  -3 134.213 35.8752   5
  -3   5  -3 116.537 36.4347   1
  -3  -5  -3 24.9169 62.4938   1
  -3  -5  -4-7.47068 38.2233   1
   3  -5   4 16.9065 36.0807  16
   3   5   4-1.53180 19.3038  16
  -3   5  -4 6.97076 32.7943  15
   3  -5   4 17.6387 31.7587   2
  -3  -5  -4-22.5115 38.1190   4
  -3   5  -4 111.192 51.9417  14
   3  -5   4 15.5502 34.2895   6
   3   5   4-0.16753 31.4141  13
   3  -5   4-29.7696 32.1495   3
  -3   5  -4 63.8386 39.3469  11
  -3   5  -4 64.8432 27.0718   1
   3   5   4 34.1403 33.0552   2
  -3  -5  -4-37.3219 22.7784   5
  -3  -5  -5 80.5336 114.673   1
   3   5   5 138.244 110.134  16
   3  -5   5 619.885 100.850  16
  -3   5  -5 798.448 118.299  15
  -3  -5  -5 894.752 114.990  15
  -3  -5  -5 705.880 111.558   4
  -3   5  -5 770.049 118.215  14
   3   5   5 177.629 118.375  13
   3   5   5 444.243 118.515  12
   3  -5   5 695.669 119.780   3
  -3   5  -5 759.547 112.788  11
  -3  -5  -5 804.151 112.066   5
   3   5   5 742.903 100.845   2
  -3  -5  -6 3752.61 250.888  15
  -3  -5  -6 3484.32 243.818   5
   3   5   6 3692.61 239.631   2
  -3  -5  -6 3422.22 253.267   4
  -3  -5  -7 2.64101 50.5055   4
   3   5   7 57.7851 46.2199  16
   3   5   7 32.5412 43.3310   2
  -3  -5  -7 57.4061 37.8661  15
   3   5   7-1.94950 40.5531  13
  -3  -5  -7 19.4779 55.6716   1
   3   5   7 0.18270 37.9799  12
  -3  -5  -7 23.7218 23.6913   5
  -3  -5  -8-7.66661 33.7573   4
  -3  -5  -8-79.3419 61.5040  15
   3   5   8 3.97416 50.8763  13
   3   5   8-1.22118 63.2132  12
  -3  -5  -8 44.1512 38.0934   5
   3   5   8 23.4674 33.8477  16
   3  -6  -1 97.6325 44.4232   7
  -3   6   1 61.8868 40.0708  14
  -3   6   1 90.2341 36.4571   1
   3  -6  -1 51.9304 35.1433   6
   3  -6  -1 84.5466 35.5490   2
   3  -6  -1 68.2995 41.8364   3
   3  -6   0 314.560 65.2597   7
  -3   6   0 399.880 80.6699  14
   3  -6   0 286.762 70.9475   6
   3  -6   0 268.461 59.8074   2
  -3   6   0 397.521 82.6642  11
   3  -6   0 335.756 82.1247   3
  -3   6   0 385.679 72.2949   9
  -3   6   0 291.671 59.0404   1
   3  -6   1 930.007 114.718  16
   3  -6   1 860.212 94.9553   7
  -3   6  -1 964.352 108.403  15
  -3   6  -1 928.020 122.118  14
   3  -6   1 888.851 122.461   6
   3  -6   1 945.874 122.223   3
  -3   6  -1 976.717 130.585  11
  -3   6  -1 863.127 98.0747   9
   3  -6   1 714.832 107.860   8
   3  -6   1 961.646 109.027   2
  -3   6  -1 902.714 104.707   1
   3  -6   2 1480.82 140.145  16
   3  -6   2 1788.99 162.408   7
  -3   6  -2 1301.28 123.658  15
  -3   6  -2 1346.95 146.058  14
   3  -6   2 1301.41 144.500   6
   3  -6   2 1241.46 138.544   3
  -3   6  -2 1220.35 139.913  11
  -3   6  -2 1559.28 148.702  10
  -3   6  -2 1643.86 147.940   9
   3  -6   2 1555.09 151.144   8
   3  -6   2 1468.96 148.021   2
  -3   6  -2 1446.28 140.600   1
  -3  -6  -3-23.5397 33.7562   8
   3  -6   3 104.687 41.8611  16
   3  -6   3 40.6021 30.1631   2
  -3   6  -3 35.8165 28.7221  15
  -3  -6  -3 63.3702 35.5230   4
  -3   6  -3 29.5981 29.5856  14
   3  -6   3 30.4764 21.9115   6
   3   6   3-0.21524 32.7001  13
  -3  -6  -3-5.97595 30.6548   1
  -3   6  -3 49.7199 36.8837   1
   3  -6   3-6.48753 38.3573   3
  -3   6  -3 55.9281 42.2749  11
   3   6   3 105.574 85.1361   2
  -3  -6  -3 57.0625 26.6350   5
   3  -6   4 485.430 94.8791  16
  -3   6  -4 462.495 79.8154  15
  -3  -6  -4 486.970 102.766   4
  -3   6  -4 561.436 110.701  14
   3  -6   4 472.379 102.483   6
   3   6   4 565.352 108.098  13
   3  -6   4 509.408 94.8423   3
  -3   6  -4 489.027 95.6009  11
   3   6   4 447.530 82.8776   2
  -3  -6  -4 44.7080 104.342   1
  -3  -6  -4 478.317 101.089   5
   3  -6   5 74.8226 40.6129  16
  -3   6  -5 85.5246 28.3268  15
  -3  -6  -5 153.510 57.5442   4
  -3  -6  -5 10.3693 58.2898   1
  -3   6  -5 112.752 41.4699  14
   3   6   5 6.29602 60.1355  13
   3   6   5 188.861 57.4275   2
   3   6   5 41.1635 84.9903  12
  -3   6  -5 143.497 64.3578  11
  -3  -6  -5 186.129 66.4511   5
   3   6   6 47.2168 60.3556  16
  -3  -6  -6 145.827 44.0198   4
  -3  -6  -6 127.058 33.8245  15
   3   6   6 29.8175 82.7614  13
   3   6   6 102.402 59.9237  12
  -3  -6  -6 4.36446 54.0986   1
  -3  -6  -6 111.418 54.7959   5
  -3  -6  -7 18.9957 43.7801   4
  -3  -6  -7 13.6078 46.9610  15
   3   6   7-1.91738 48.4788  13
   3   6   7 26.7589 47.2733  12
  -3  -6  -7 5.05057 45.3190   5
  -3  -6  -8-2.71925 38.3362   4
  -3  -6  -8 71.2103 58.5721  15
   3   6   8 3.86261 41.4312  13
   3   6   8 11.3791 55.5594  12
  -3  -6  -8-40.3012 59.1940   5
   3  -7  -2 9.06929 27.2220   7
   3  -7  -2-49.3056 50.6136   6
   3  -7  -2-23.6419 44.7022   3
   3  -7  -1 406.030 78.8511   7
  -3   7   1 301.930 67.7626  14
   3  -7  -1 418.507 88.3386   6
   3  -7  -1 447.300 87.4699   3
  -3   7   1 404.601 81.1056   9
   3  -7   0-28.5336 22.6516   7
  -3   7   0 83.8032 46.8294  14
   3  -7   0 7.46826 34.1194   6
  -3   7   0 70.1001 31.5098  11
   3  -7   0 67.5840 45.1063   3
  -3   7   0 25.9092 30.6311   9
   3  -7   1 242.209 60.5728   7
   3  -7   1 295.603 62.9103   2
  -3   7  -1 238.534 57.4907  14
   3  -7   1 311.468 77.2410   6
  -3   7  -1 319.288 69.2445  11
   3  -7   1 294.645 73.3485   3
  -3   7  -1 334.261 81.0831  10
  -3   7  -1 237.509 47.1785   9
   3  -7   1 328.146 75.7890   8
   3  -7   2 1045.56 133.765  16
   3  -7   2 457.398 109.325   2
  -3   7  -2 817.217 121.405  14
   3  -7   2 826.072 124.259   6
  -3   7  -2 773.227 122.246  11
   3  -7   2 785.385 113.762   3
  -3   7  -2 992.122 130.472  10
  -3   7  -2 999.136 132.103   9
   3  -7   2 1093.90 142.135   8
   3  -7   3 1020.01 132.023  16
  -3   7  -3 992.461 124.528  15
  -3   7  -3 903.386 130.486  14
   3  -7   3 893.815 135.598   6
   3  -7   3 805.338 126.390   3
  -3   7  -3 875.106 124.738  11
   3  -7   4 453.838 102.876  16
  -3   7  -4 647.713 107.339  15
  -3  -7  -4 781.328 137.439   4
  -3   7  -4 886.192 139.571  14
   3  -7   4 659.438 136.759   6
   3   7   4 225.157 126.390  13
   3  -7   4 868.100 139.889   3
  -3   7  -4 822.963 129.653  11
  -3  -7  -4 923.805 148.309   5
  -3  -7  -5 87.6539 79.2861   4
   3   7   5 34.7820 84.9699  13
  -3  -7  -5 75.5075 54.5514   5
  -3  -7  -6 90.1186 53.4162   4
   3   7   6 26.1865 53.3228  13
   3   7   6 6.65098 55.6502  12
  -3  -7  -6 65.9112 39.6250   5
  -3  -7  -7 155.849 62.8628   4
   3   7   7 11.2652 71.7632  13
   3   7   7 1.30905 71.3295  12
  -3  -7  -7 78.1179 56.1878   5
  -3  -7  -8 5.37596 50.2945   4
   3   7   8-6.11150 39.5494  13
   3   7   8 4.84643 44.2112  12
  -3  -7  -8 45.8260 37.7823   5
   3  -8  -2 34.7466 28.6335   7
   3  -8  -2-2.72019 36.5475   6
   3  -8  -2-14.0125 29.3398   3
  -3   8   2-38.5467 54.2023   9
   3  -8  -1 1467.47 154.714   7
   3  -8  -1 1518.82 175.372   6
   3  -8  -1 1637.85 170.541   3
  -3   8   1 1638.27 161.603   9
   3  -8   0 33.1702 26.1081   7
  -3   8   0 89.5610 49.0749  14
   3  -8   0 102.049 56.1328   6
  -3   8   0 106.668 55.5435  11
   3  -8   0 112.772 50.5962   3
  -3   8   0 120.309 49.0893   9
   3  -8   0 96.7607 53.9933   8
   3  -8   1-5.11236 26.6525   7
  -3   8  -1 21.4889 45.1046  14
   3  -8   1-53.1282 46.2289   6
  -3   8  -1 57.5851 56.0925  11
   3  -8   1 0.16946 27.5521   3
  -3   8  -1 40.1822 39.4145  10
  -3   8  -1-20.5686 40.3923   9
   3  -8   1-27.1371 60.4812   8
  -3   8  -2 55.8918 40.5435  14
   3  -8   2-7.75204 42.6309   6
   3  -8   2 107.765 61.7421   3
  -3   8  -2 138.672 79.1621  11
  -3   8  -2 126.798 65.2489  10
   3  -8   2 91.7587 54.1140   8
  -3   8  -3 351.543 93.2768  14
   3  -8   3 375.623 91.9050   6
   3  -8   3 482.183 107.218   3
  -3   8  -3 362.901 94.7751  11
  -3  -8  -4 0.29325 58.0247   4
  -3   8  -4-2.78386 49.5518  14
  -3   8  -4 34.5306 54.6360  11
  -3  -8  -4-24.5756 66.2615   5
  -3  -8  -5 230.124 91.0761   4
   3   8   5 20.5016 86.5134  13
  -3  -8  -5 218.367 90.9626   5
  -3  -8  -6 234.952 84.2234   4
   3   8   6 20.3303 48.5256  13
   3   8   6 23.1822 89.4346  12
  -3  -8  -6 244.203 86.6458   5
  -3  -8  -7 209.104 75.2566   4
   3   8   7 56.5208 117.894  13
   3   8   7 101.232 93.5836  12
  -3  -8  -7 316.526 88.1489   5
   3  -9  -2 47.1741 30.5529   7
   3  -9  -2 81.5111 39.5171   3
  -3   9   2 20.0328 29.7329   9
   3  -9  -1-30.3429 48.4639   7
   3  -9  -1 104.022 66.9088   6
  -3   9   1-42.7476 43.6077  11
   3  -9  -1-57.7960 41.8317   3
  -3   9   1 79.3984 57.9988   9
   3  -9   0-59.6035 47.2319   7
  -3   9   0-19.8049 35.0039  14
   3  -9   0 39.6566 49.3249   6
   3  -9   0 10.0728 29.3603   3
  -3   9   0 6.51940 35.2062  11
  -3   9   0 68.5850 70.3737  10
  -3   9   0 46.9033 46.1775   9
   3  -9   0-52.4655 62.8607   8
   3  -9   1 87.1703 56.5930   7
  -3   9  -1-80.2678 50.3372  14
   3  -9   1-51.0463 49.5204   6
   3  -9   1-39.2008 49.6423   3
  -3   9  -1 35.3644 46.7080  11
  -3   9  -1 8.09696 45.4740   9
   3  -9   1 112.784 50.0751   8
  -3   9  -2 59.9394 59.0898  14
   3  -9   2 114.970 73.2511   6
   3  -9   2 74.5708 44.8847   3
  -3   9  -2 202.167 69.5143  11
  -3   9  -2-14.7878 53.5500  10
   3  -9   2-36.7692 58.2502   8
  -3   9  -3 445.429 116.318  14
   3  -9   3 319.444 109.947   6
  -3   9  -3 475.345 114.828  11
  -3  -9  -5 207.560 94.3962   4
  -3  -9  -5 87.1219 65.6316   5
  -3  -9  -6 23.7935 54.3423   4
   3   9   6 0.33122 38.5299  13
  -3  -9  -6-80.6521 55.0724   5
   3 -10  -2-44.1503 34.0166   7
   3 -10  -2 41.1848 54.7043   6
  -3  10   2-40.7830 50.3104   9
   3 -10  -1 12.9885 28.4630   7
   3 -10  -1-28.0685 38.0978   6
   3 -10  -1 19.6811 31.9698   3
  -3  10   1 10.8262 32.7711   9
   3 -10   0 8.39120 37.0274   7
  -3  10   0-72.8237 42.3394  14
   3 -10   0 1.91538 35.6971   6
   3 -10   0 30.0409 37.2674   3
  -3  10   0-40.3710 34.7755  11
  -3  10   0-8.09556 37.1382  10
  -3  10   0-8.64744 35.7390   9
   3 -10   0-13.6325 45.6377   8
  -3  10  -1-68.3026 59.4188  14
   3 -10   1 77.4511 62.6822   6
   3 -10   1-67.6391 67.1404   3
  -3  10  -1 60.8673 54.8701  11
  -3  10  -1-61.6948 71.0989  10
   3 -10   1 11.4210 46.2539   8
  -3  10  -2-13.8242 60.3392  14
  -3  10  -2 20.0988 45.5627  11
   4   0   2 1018.26 136.427  16
   4   0   2 849.713 122.078   2
  -4   0  -2 1076.59 132.425  15
  -4   0  -2 1099.36 138.570   1
   4   0   2 950.403 123.843   3
   4   0   3-8.19132 34.5490  16
  -4   0  -3-19.8034 29.0568  15
  -4   0  -3-0.92598 19.0206   4
  -4   0  -3 42.6673 26.2791  14
   4   0   3-29.1451 41.0282  13
  -4   0  -3 27.5532 41.5788   1
   4   0   3 47.1389 44.0107   2
   4   0   3-103.646 48.6478   3
   4   0   4 1698.14 174.505  16
  -4   0  -4 1715.66 172.959  15
  -4   0  -4 1766.55 161.064  14
   4   0   4 1654.74 172.354  13
   4   0   4 1710.39 170.917   2
   4   0   5-5.49892 35.8113  16
  -4   0  -5 1.27280 37.6897   4
  -4   0  -5 45.6383 53.9772  15
  -4   0  -5 50.7123 36.4408  14
   4   0   5 15.2621 29.1857  13
   4   0   5 18.2437 47.4813   2
  -4   0  -5-7.13718 35.3863   1
   4   0   5-27.8018 30.0402   3
   4   0   6 1288.89 164.519  16
  -4   0  -6 1951.90 195.291  15
  -4   0  -6 2067.49 187.043  14
   4   0   6 1929.83 189.924   3
   4   0   6 2055.50 199.885  13
   4   0   6 2028.88 195.572   2
   4   0   7 24.9988 38.3098  16
  -4   0  -7-109.418 62.9813  15
   4   0   7-23.8726 40.1614   2
  -4   0  -7 0.62703 35.4767  14
   4   0   7 32.1307 45.3277  13
  -4   0  -7 0.21511 54.0438   1
  -4   0  -7-0.34488 33.3333   4
   4   0   8 102.422 65.4873  16
   4   0   8 87.5726 70.7280   2
  -4   0  -8 230.370 81.0671  15
  -4   0  -8 129.289 51.5341  14
   4   0   8 103.776 69.5862  13
  -4   0  -8 20.7508 90.6055   1
   4  -1   2 567.414 100.960  16
  -4   1  -2 794.318 116.223  15
  -4   1  -2 682.920 106.326   1
  -4   1  -2 298.436 60.7949  14
   4  -1   2 556.645 76.0943   6
   4  -1   2 699.176 109.091   3
   4  -1   2 586.212 102.082   2
  -4   1  -2 549.719 82.0418   4
   4  -1   3-105.915 63.1004  16
   4   1   3 11.8810 36.2666  16
  -4   1  -3 48.6213 37.3139   4
  -4   1  -3-99.1415 65.6422  15
  -4  -1  -3-42.8174 58.0152  15
  -4  -1  -3 2.52727 40.5562   4
  -4   1  -3 44.3238 37.4770  14
  -4   1  -3-32.5234 44.8999   1
   4   1   3 5.35530 26.5496  13
   4  -1   3-56.1394 49.8076  13
   4  -1   3 11.7584 37.2212   2
   4   1   3 16.9962 30.6456   2
   4  -1   3-105.344 60.5639   3
   4   1   3 18.3094 23.7541   3
  -4  -1  -3 12.6473 36.6150   1
   4  -1   4 11.3995 36.0877  16
   4   1   4-6.69532 35.1164  16
  -4   1  -4 6.61089 21.6616   4
  -4  -1  -4-4.80328 23.6122   4
  -4   1  -4 19.0684 41.7445  15
  -4  -1  -4-10.3330 34.9131  15
  -4  -1  -4-12.4441 27.4794   1
  -4   1  -4 17.8535 36.9978  14
  -4  -1  -4 20.5556 28.8392  14
   4  -1   4-15.7743 36.2701  13
   4   1   4 25.1696 44.1101  13
   4  -1   4-44.3648 48.5015   2
   4   1   4 5.57244 39.7173   2
   4  -1   4 13.3658 33.4954   3
   4   1   4 27.1805 27.6056   3
  -4   1  -4-9.68803 33.4958   1
  -4   1  -5-7.95041 27.0147   4
   4  -1   5 53.0878 43.6298  16
   4   1   5 69.4156 45.3059  16
  -4  -1  -5 13.4808 32.2353   4
  -4   1  -5-95.6660 55.4738  15
  -4  -1  -5-13.4206 45.2378  15
  -4   1  -5 68.2621 52.3377  14
  -4  -1  -5-7.00414 28.6222  14
   4  -1   5-13.4523 24.1690  13
   4   1   5 29.7806 31.4091  13
  -4   1  -5 24.1944 29.8443   1
   4  -1   5 40.6824 31.3656   2
   4   1   5-34.3200 36.5167   2
   4   1   5 17.5739 24.9857   3
   4  -1   5-18.1348 32.3944   3
  -4  -1  -5-0.70443 37.9478   1
  -4   1  -6 63.2219 23.7827   4
   4  -1   6 46.6571 39.4024  16
   4   1   6 107.088 51.7248  16
  -4  -1  -6 53.3953 50.1100   4
  -4   1  -6 229.267 80.8626  15
  -4  -1  -6 60.6804 36.1959  15
  -4  -1  -6 19.3542 67.8674   1
  -4   1  -6 129.137 52.8499  14
  -4  -1  -6 120.333 60.3924  14
   4  -1   6 207.790 69.5449   2
   4  -1   6 179.200 64.5723  13
   4   1   6 101.756 51.3885  13
   4   1   6 82.9488 47.4707   2
   4   1   6 155.555 65.8995   3
   4  -1   6 105.524 46.9561   3
  -4   1  -6 138.795 66.0670   1
  -4  -1  -7 4.82760 74.6754   4
   4  -1   7 493.471 123.741  16
   4   1   7 501.531 115.283  16
  -4   1  -7 451.473 104.896  15
  -4  -1  -7 322.266 87.3984  15
   4  -1   7 385.169 102.748   2
   4   1   7 417.043 93.8809   2
  -4   1  -7 405.859 90.1636  14
  -4  -1  -7 425.638 85.5267  14
   4  -1   7 392.632 105.591  13
   4   1   7 536.724 119.841  13
  -4   1  -7 19.9060 78.2382   1
  -4  -1  -7 34.3625 87.5961   1
   4  -1   8 145.380 63.4826  16
   4   1   8 454.129 106.359  16
  -4   1  -8 266.942 92.3854  15
   4   1   8 441.243 119.846   2
  -4  -1  -8 434.819 107.533  15
   4   1   8 412.563 119.487  13
  -4  -1  -8 28.5781 110.603   1
   4  -2   2 16.3633 23.4006  16
  -4   2  -2 10.7705 18.1640   4
  -4   2  -2 44.0230 37.3267  15
  -4   2  -2 26.7959 35.1004  14
   4  -2   2 49.6935 36.3789   6
   4  -2   2 15.1106 34.1336   2
   4  -2   2-6.86652 24.0542   3
  -4   2  -2 44.6249 45.6453   1
   4  -2   3 104.450 30.8562  16
  -4  -2  -3 1.98447 33.4806   1
   4   2   3 53.1032 29.1972  16
  -4   2  -3 119.334 47.1566   4
  -4   2  -3 95.6784 43.6982   1
  -4   2  -3 134.932 49.0062  15
  -4  -2  -3 37.5028 35.3937  15
  -4  -2  -3 0.88194 23.5498   4
  -4   2  -3 84.5095 45.8677  14
   4   2   3 80.3783 45.4514  13
   4  -2   3 181.750 50.9466   6
   4  -2   3 75.2570 42.3517   2
   4  -2   3 149.811 59.9142   3
   4   2   3 29.8610 26.1849   3
   4   2   3 94.4786 64.4421   2
  -4  -2  -3 68.0017 33.2556   5
  -4   2  -4 465.103 87.8409   4
   4  -2   4 487.615 100.078  16
   4   2   4 482.714 101.045  16
  -4   2  -4 538.604 103.266  15
  -4  -2  -4 63.6109 95.2604   4
  -4  -2  -4 467.558 83.8644  15
  -4   2  -4 432.934 91.2797  14
  -4  -2  -4 63.6383 106.962   1
   4  -2   4 485.055 90.9259  13
   4   2   4 394.224 89.4552  13
   4  -2   4 426.574 86.7612   2
   4   2   4 508.302 98.8977   2
   4  -2   4 445.158 87.8903   3
   4   2   4 421.461 82.6518   3
  -4   2  -4 427.043 83.7674   1
  -4  -2  -4 408.274 72.8654   5
  -4   2  -5 59.9830 38.4887   4
   4  -2   5-1.93933 27.5972  16
   4   2   5-23.7843 34.3008  16
  -4  -2  -5-26.2583 34.9207   4
  -4   2  -5-33.5069 35.0146  15
  -4  -2  -5-35.1154 39.3597  15
  -4   2  -5 35.6780 36.8202   1
  -4   2  -5 33.1563 41.2543  14
   4  -2   5 18.1331 32.8883  13
   4   2   5 71.4935 50.6158  13
   4  -2   5 47.8069 50.3627   2
   4   2   5 45.7170 46.6513   2
   4  -2   5 31.7007 27.0196   3
  -4  -2  -5-5.56673 34.4858   1
   4  -2   6 157.662 60.9032  16
   4   2   6 225.328 75.4566  16
  -4  -2  -6 25.5748 80.7566   4
  -4   2  -6 159.690 71.4910  15
  -4  -2  -6 111.428 52.2289  15
  -4   2  -6 134.605 42.1070  14
   4  -2   6 186.205 68.9699   2
  -4  -2  -6 9.86989 50.8957   1
   4  -2   6 202.280 61.9450  13
   4   2   6 126.173 36.8881  13
   4   2   6 272.463 86.1575   2
   4  -2   6 179.196 63.0984   3
  -4   2  -6 174.698 74.3194   1
  -4  -2  -7-9.65501 71.8181   4
   4  -2   7 350.624 108.675  16
   4   2   7 304.928 81.0661  16
  -4   2  -7 414.558 105.520  15
  -4  -2  -7 321.102 73.9119  15
   4  -2   7 331.577 101.134   2
  -4   2  -7 416.434 101.774  14
   4   2   7 450.577 105.586   2
   4  -2   7 304.192 98.1379  13
   4   2   7 444.300 111.705  13
  -4   2  -7 334.069 90.2664   1
  -4  -2  -7 35.0259 101.054   1
  -4  -2  -8-31.3723 57.8108   4
   4   2   8-27.8832 38.6964  16
  -4  -2  -8-105.515 76.1629  15
   4   2   8-39.9852 39.0086   2
   4   2   8-24.0250 72.6787  13
  -4  -2  -8 6.38753 73.4664   1
   4  -3   1 1087.55 122.723   2
  -4   3  -1 1492.64 146.646   1
  -4   3  -1 1333.79 140.540  14
   4  -3   1 1141.31 115.289   6
   4  -3   1 1171.87 134.096   3
   4  -3   2 106.129 52.2788  16
  -4   3  -2 10.6283 33.8809  15
  -4   3  -2 79.3607 42.7927  14
  -4   3  -2 5.29165 33.2779   1
   4  -3   2 27.3414 30.9011   6
   4  -3   2-25.3999 40.5734   2
   4  -3   2-24.9847 26.7654   3
   4  -3   3 2628.72 212.818  16
  -4   3  -3 2797.83 222.128   1
  -4   3  -3 2766.16 216.134  15
  -4   3  -3 2737.26 223.218  14
   4  -3   3 2998.80 200.728   6
   4  -3   3 2746.65 221.556   3
   4  -3   3 2700.93 211.617   2
   4  -3   4 135.353 58.9299  16
   4   3   4 135.194 61.2436  16
  -4   3  -4 145.315 54.0102  15
  -4  -3  -4 8.53897 63.1573   4
  -4  -3  -4 8.69767 33.6010  15
  -4   3  -4 85.7172 41.8020  14
  -4  -3  -4 9.40988 37.5332   1
   4  -3   4 109.554 43.0755   6
   4  -3   4 67.9847 32.8408  13
   4   3   4 141.419 60.8161  13
  -4   3  -4 116.371 57.1476   1
   4  -3   4 74.5177 47.8644   2
   4  -3   4 149.057 46.1739   3
   4   3   4 155.399 59.5913   2
  -4  -3  -4 116.756 45.5912   5
   4  -3   5 215.664 83.8918  16
   4   3   5 315.322 78.2594  16
  -4  -3  -5 10.7703 78.4815   4
  -4   3  -5 282.129 77.1907  15
  -4  -3  -5 420.907 99.3277  15
  -4   3  -5 263.917 79.7515  14
   4  -3   5 300.005 82.2003   2
   4  -3   5 292.411 66.9366  13
   4   3   5 221.432 64.3898  13
   4  -3   5 296.058 80.5002   3
   4   3   5 337.983 86.2084   2
  -4  -3  -5 329.539 71.2575   5
  -4  -3  -5 20.9651 79.1988   1
  -4   3  -5 344.160 93.7379   1
   4  -3   6-30.9726 32.4294  16
   4   3   6 43.7250 33.7556  16
  -4  -3  -6-5.46430 43.9461   4
  -4   3  -6-25.1519 38.4436  15
  -4  -3  -6-63.3580 65.9375  15
   4  -3   6-82.9329 68.7988   2
  -4   3  -6-42.6034 37.0307  14
  -4  -3  -6 14.6366 42.6708   1
   4   3   6 4.66463 29.0959  13
   4   3   6 3.97261 40.3450   2
   4  -3   6 1.44574 42.1257   3
  -4   3  -6-19.6694 46.2210   1
  -4  -3  -6-1.90485 29.9565   5
   4  -3   7 261.598 108.364  16
  -4  -3  -7 50.2404 107.091   4
   4   3   7 547.822 108.147  16
   4  -3   7 260.776 96.1190   2
  -4   3  -7 878.075 166.049  15
  -4  -3  -7 596.226 118.602  15
  -4   3  -7 765.328 165.040  14
   4   3   7 521.303 115.326   2
   4   3   7 478.628 113.495  13
  -4  -3  -7 35.5688 108.829   1
  -4  -3  -8 3.86214 64.0256   4
   4   3   8 119.047 58.1474  16
  -4  -3  -8 81.8772 34.6038  15
   4   3   8 109.472 35.9832   2
   4   3   8 0.49353 42.9612  13
  -4  -3  -8 28.0310 104.822   1
   4   3   9 14.6740 57.8945  13
  -4   4  -1-22.3298 37.7173  14
   4  -4   1 19.3339 25.1541   6
  -4   4  -1 10.0650 29.3060   1
   4  -4   1-2.45567 20.8959   2
   4  -4   1 5.14201 37.9272   3
   4  -4   2 925.565 130.289  16
  -4   4  -2 1040.32 137.457   1
  -4   4  -2 1022.76 130.467  15
  -4   4  -2 962.860 132.051  14
   4  -4   2 971.913 122.380   6
   4  -4   2 924.941 129.184   3
   4  -4   2 1047.98 132.112   2
   4  -4   3 340.600 81.8317  16
  -4   4  -3 393.619 86.7752  15
  -4   4  -3 346.807 83.6044  14
   4  -4   3 426.783 84.7457   6
   4  -4   3 384.461 82.2519   2
  -4   4  -3 410.279 82.8000   1
   4  -4   3 417.533 95.2745   3
   4  -4   4 580.081 102.652  16
  -4   4  -4 811.774 131.715   1
  -4   4  -4 718.965 115.236  15
  -4  -4  -4 19.1184 121.848   4
  -4  -4  -4 112.917 113.259   1
   4  -4   4 826.913 125.004   6
  -4   4  -4 760.498 131.168  14
   4  -4   4 770.466 122.361   2
   4   4   4 50.2744 147.153  13
  -4   4  -4 786.156 112.837  11
   4  -4   4 637.667 110.914   3
   4   4   4 447.782 101.029   2
  -4  -4  -4 594.796 107.323   5
   4  -4   5 748.875 130.342  16
   4   4   5 528.151 113.904  16
  -4  -4  -5 50.2383 121.080   4
  -4   4  -5 710.430 124.956  15
  -4  -4  -5 593.970 102.079  15
   4  -4   5 768.571 133.035   2
  -4   4  -5 802.035 123.190  14
   4   4   5 29.6649 138.694  13
   4  -4   5 766.053 129.320   3
   4   4   5 824.145 130.474   2
  -4   4  -5 576.495 91.9268  11
  -4  -4  -5 68.9449 126.288   1
  -4   4  -5 683.848 126.154   1
  -4  -4  -5 697.731 116.837   5
   4  -4   6 157.765 74.1502  16
   4   4   6 252.494 75.5167  16
  -4  -4  -6 5.98072 83.1396   4
   4  -4   6 55.6812 49.5692   2
  -4   4  -6 242.259 73.0973  15
  -4  -4  -6 241.822 78.7260  15
  -4  -4  -6 17.1985 75.3495   1
  -4   4  -6 278.353 90.6280  14
   4   4   6 38.3910 86.3300  13
   4  -4   6 97.4632 38.5603   3
  -4   4  -6 75.1692 47.7372   1
  -4  -4  -6 167.831 58.1351   5
   4   4   6 549.217 152.649   2
  -4  -4  -7 36.6952 120.239   4
   4   4   7 465.523 104.388  16
  -4  -4  -7 469.559 106.657  15
   4   4   7 611.210 125.350   2
   4   4   7 96.9335 117.958  13
  -4  -4  -7 418.505 92.4555   5
  -4  -4  -7 18.9101 119.033   1
  -4  -4  -8 15.2205 31.8888   4
   4   4   8-21.9283 56.2323  16
   4   4   8 36.4876 62.2134   2
  -4  -4  -8-31.0278 56.0583  15
   4   4   8-99.0473 76.1935  13
  -4  -4  -8-16.5442 51.3552   1
   4   4   8 46.7200 54.7815  12
   4   4   9 23.4539 46.0104  13
  -4   5  -1 429.295 85.4187   1
  -4   5  -1 464.352 96.0798  14
   4  -5   1 394.401 79.6225   6
   4  -5   1 362.529 78.6804   2
   4  -5   1 411.253 84.6516   3
   4  -5   2 2013.97 189.448  16
  -4   5  -2 2520.66 214.996   1
  -4   5  -2 2297.04 195.777  15
  -4   5  -2 2491.90 217.590  14
   4  -5   2 2563.15 203.985   6
   4  -5   2 2342.34 210.690   3
   4  -5   2 2357.92 196.285   2
   4  -5   3-42.5337 62.3917  16
  -4   5  -3 23.4484 42.0859  15
  -4   5  -3 33.6957 46.2492   1
  -4   5  -3-9.61909 36.8638  14
   4  -5   3 85.3841 47.3910   2
   4  -5   3 42.9483 30.3218   6
  -4   5  -3 40.3759 27.9472  11
   4  -5   3 156.202 58.8990   3
   4  -5   4 35.3707 46.6636  16
  -4   5  -4 4.73215 31.7130  15
  -4  -5  -4 0.27659 45.0361   4
   4  -5   4-64.4510 64.7272   2
  -4   5  -4-7.99453 34.8038  14
   4  -5   4 49.6503 54.0907   6
   4   5   4-0.53883 37.9719  13
   4  -5   4-12.4350 30.5953   3
  -4   5  -4 26.8540 35.7961  11
  -4   5  -4-18.0149 46.4202   1
   4  -5   5 37.3410 48.8044  16
  -4  -5  -5-4.26755 46.4489   4
   4  -5   5 118.614 70.6726   2
  -4   5  -5-27.6615 39.6841  15
  -4   5  -5-4.38793 42.9222  14
   4   5   5-3.00550 44.8177  13
   4  -5   5 51.8434 47.0465   3
   4   5   5 21.3156 44.1152   2
  -4  -5  -5 23.7208 54.5988   1
  -4   5  -5-16.1080 47.5344  11
  -4  -5  -5 19.6643 44.7750   5
   4  -5   6 188.636 99.6526  16
  -4  -5  -6 16.1150 43.1800   1
   4   5   6 29.8744 35.5951  16
  -4  -5  -6-3.68403 59.1970   4
  -4   5  -6-5.00484 42.3211  15
  -4  -5  -6 98.9167 52.5655  15
  -4   5  -6 67.0047 62.3471  14
   4   5   6 105.796 58.1415   2
   4   5   6-1.46076 73.0157  13
  -4  -5  -6 10.8652 27.7535   5
  -4  -5  -7 6.90903 80.4492   4
   4   5   7-122.249 82.5555  16
  -4  -5  -7-72.5245 51.4859  15
   4   5   7 7.21164 45.7099   2
   4   5   7 19.3381 47.8683  13
  -4  -5  -7 8.59298 49.5611   1
  -4  -5  -7 147.088 63.7666   5
  -4  -5  -8-24.3957 55.0170   4
   4   5   8 48.5961 80.5469  16
   4   5   8-78.0791 90.7125   2
  -4  -5  -8-102.619 76.8375  15
   4   5   8-5.24896 37.4668  13
  -4  -5  -8 17.7213 49.2640   1
   4   5   8 8.84786 68.5271  12
  -4  -5  -8 5.90001 41.2828   5
  -4   6   0 41.0481 33.5426  14
   4  -6   0 22.4396 25.8290   6
   4  -6   0 30.4271 35.4256   3
  -4   6  -1-23.4183 43.3273  14
   4  -6   1 6.04923 38.2402   6
   4  -6   1-9.88974 36.3580   2
  -4   6  -1-30.1311 27.3816   1
   4  -6   1-9.40515 36.3667   3
   4  -6   2 167.178 66.2735  16
  -4   6  -2 124.100 45.1573  15
  -4   6  -2 209.469 62.8907   1
  -4   6  -2 199.561 83.1919  14
   4  -6   2 281.420 70.0750   2
   4  -6   2 283.298 77.0996   6
   4  -6   2 226.625 86.1490   3
   4  -6   3 57.4758 40.9297  16
  -4   6  -3 235.327 73.0434  15
   4  -6   3 59.8069 34.7229   2
  -4   6  -3 84.8041 71.1971  14
   4  -6   3 84.5495 37.2360   6
   4  -6   3-12.8054 52.6978   3
  -4   6  -3 88.7072 62.1348  11
  -4   6  -3 51.2173 42.7092   1
   4  -6   4 26.0570 56.7066  16
   4  -6   4 126.344 79.5898   2
  -4   6  -4-4.16279 40.9234  15
  -4   6  -4-0.64799 55.9768  14
   4  -6   4-1.36303 39.9752   6
   4  -6   4 76.4949 47.4728   3
  -4   6  -4 69.3412 36.6495   1
  -4   6  -4 79.8019 57.3795  11
   4  -6   5-52.1302 63.0516  16
  -4  -6  -5-27.6295 74.8519   4
  -4   6  -5-32.5836 37.1447  15
  -4   6  -5 53.9745 52.4891  14
   4   6   5 67.0812 123.182  13
   4  -6   5-0.24225 36.2829   3
  -4   6  -5 101.525 70.5327  11
  -4  -6  -5-9.45465 33.1841   5
  -4  -6  -6 18.5340 112.074   4
   4   6   6 111.326 76.4006   2
   4   6   6 157.494 130.547  13
  -4  -6  -6 266.801 89.7360   5
  -4  -6  -6 2.98044 92.7831   1
  -4  -6  -7 5.71727 70.7524   4
   4   6   7 16.8738 39.8606  13
  -4  -6  -7-37.5857 51.8967   1
  -4  -6  -7-52.5037 62.2852   5
  -4   7   0 96.4338 43.0536  14
   4  -7   0 146.353 64.3848   6
   4  -7   0 260.726 73.9657   3
  -4   7  -1 76.7171 33.2064  14
   4  -7   1 54.4929 36.2398   6
   4  -7   1 106.949 43.7522   3
   4  -7   2 25.1886 43.6547   2
  -4   7  -2 15.6755 49.8548  14
   4  -7   2-15.8583 48.6688   6
  -4   7  -2-19.0264 42.9819  11
   4  -7   2-30.8167 49.7377   3
   4  -7   3-82.0092 65.7322  16
   4  -7   3-111.202 99.7796   2
  -4   7  -3-46.2953 71.6830  14
   4  -7   3-91.5731 63.4986   6
   4  -7   3 52.1049 38.6936   3
  -4   7  -3-42.4862 54.8345  11
   4  -7   4-30.9499 67.5343  16
  -4   7  -4 228.100 99.4043  15
   4  -7   4 339.167 235.421   6
  -4   7  -4-2.84042 51.7811  14
   4  -7   4 162.421 198.810   3
  -4   7  -4-99.2662 75.1874  11
  -4  -7  -6 2.25144 101.549   4
   4   7   6-8.12692 53.8631  13
  -4  -7  -6-24.3574 83.6358   5
   4  -8   0 40.0437 35.1142   6
   4  -8   0 4.63832 32.0691   3
  -4   8  -1 198.816 55.2598  14
   4  -8   1 145.429 61.7205   3
  -4   8  -2 111.735 69.3904  14
   4  -8   2 109.153 39.4719   6
   4  -8   2 80.0019 50.8555   3
  -4   8  -2 154.777 52.8044  11
  -4   8  -3 88.7204 47.6129  14
   4  -8   3 230.294 97.9501   6
   4  -8   3 145.257 50.8340   3
  -4   8  -3 309.550 107.282  11
  -4   8  -4-46.6783 44.9639  14
   4  -8   4-6.36689 66.1633   6
  -4   8  -4-120.507 73.4204  11
   4  -9   0-202.918 75.4967   6
   4  -9   0 54.9810 46.5259   3
  -5   0  -4-10.9489 71.0157   1
   5   0   4 35.8625 32.0037  16
  -5   0  -4 26.1279 35.9906  15
   5   0   4 166.790 74.5209   2
  -5   0  -5-31.6094 41.6745   4
   5   0   5 33.4192 67.8667  16
  -5   0  -5 15.5107 60.9541  15
   5   0   5-4.92365 40.1883  13
   5   0   5 21.2132 37.8321   2
  -5   0  -5-5.84424 34.4673   1
   5   0   5-61.7341 71.0363   3
  -5   0  -6 46.0482 37.3205   4
  -5   0  -6 2.34020 55.5368   1
  -5   0  -6 18.1336 46.6516  15
  -5   0  -6-10.5650 32.3723  14
   5   0   6 55.9093 53.1695   2
   5   0   6-64.9088 73.7424  13
   5   0   6 123.268 74.9749   3
  -5   0  -7 48.1183 27.0565   4
   5   0   7-144.029 88.3535  16
  -5   0  -7-57.8287 46.1823  15
   5   0   7-66.0885 64.8589   2
  -5   0  -7 17.3841 42.0445  14
   5   0   7-20.6965 68.1879  13
  -5   0  -7 20.5911 40.6962   1
   5  -1   4 262.819 85.8446  16
  -5   1  -4 310.932 95.3302  15
   5  -1   4 194.318 70.1284   2
   5  -1   4 175.836 63.2916   3
  -5   1  -4 19.8568 89.1715   1
  -5   1  -5-23.2891 33.4760   4
   5  -1   5 13.1556 48.8102  16
   5   1   5 95.4157 61.6180  16
  -5  -1  -5-2.13086 29.4483   4
  -5  -1  -5-2.26474 47.3654  15
  -5   1  -5-80.1209 60.2253  14
  -5   1  -5-10.9464 40.6682   1
   5   1   5 140.038 82.3184  13
   5  -1   5-48.3608 56.4895   2
   5   1   5 18.9021 54.4971   2
   5  -1   5 19.0415 45.3566   3
  -5  -1  -5-19.0515 101.695   1
  -5   1  -6 14.2412 48.6648   4
  -5   1  -6 18.0240 58.2469   1
  -5  -1  -6 1.26646 33.2375   4
   5  -1   6-56.4940 61.8102  16
   5   1   6 36.2366 46.8567  16
  -5   1  -6 39.8931 72.3198  15
  -5  -1  -6-48.1696 60.7402  15
  -5  -1  -6-7.64448 58.3848   1
  -5   1  -6 66.4557 60.0016  14
   5  -1   6 109.086 63.9336   2
   5   1   6-91.6570 62.8542   2
   5  -1   6 57.0079 58.7262  13
   5   1   6-65.6683 46.4937  13
   5  -1   6-30.7175 43.0464   3
  -5   2  -3 37.4134 24.8856   1
   5  -2   3 45.4342 28.3050   2
   5  -2   4 79.8489 34.2284  16
  -5   2  -4 145.465 71.0649  15
  -5   2  -4 82.0997 37.8744  14
   5  -2   4 97.8320 59.3491   2
   5  -2   4 77.7554 51.3964   3
  -5   2  -4 100.674 54.1276   1
   5  -2   5 29.4020 49.6088  16
   5   2   5 24.0187 38.8154  16
  -5  -2  -5 10.4950 62.0626   4
  -5   2  -5 144.888 76.4565  15
  -5   2  -5 61.8255 44.6538  14
  -5   2  -5 62.7291 62.2769   1
   5  -2   5-13.1754 43.9843   2
   5   2   5 65.1983 65.2668   2
   5  -2   5-44.5777 53.9245   3
  -5  -2  -5-19.8556 81.0283   1
   5  -2   6 159.108 74.6720  16
  -5  -2  -6-1.64464 43.2709   4
   5   2   6-8.91698 38.9960  16
  -5   2  -6-35.3113 64.4194  15
  -5  -2  -6-35.3754 59.8482  15
  -5   2  -6 22.1886 52.7355  14
   5  -2   6-2.27344 52.4114   2
  -5  -2  -6-5.87239 74.5823   1
   5   2   6-11.5066 69.4613  13
   5   2   6-57.8182 48.8965   2
   5  -2   6-157.338 113.863   3
  -5   2  -6 1.83112 58.3450   1
  -5   3  -3 45.8013 36.7059  14
   5  -3   3 93.1291 57.4288   2
   5  -3   3 10.0044 27.1973   3
  -5   3  -3 85.1308 51.1262   1
   5  -3   4 221.157 91.3865  16
  -5   3  -4 24.1086 32.8399  15
  -5   3  -4 87.1658 40.4754  14
  -5   3  -4 145.071 64.2215   1
   5  -3   4-11.3670 45.2939   2
   5  -3   4-52.5834 55.0365   3
  -5   3  -5 124.316 53.2688   1
   5  -3   5 83.9333 52.7464  16
  -5   3  -5 15.7468 49.8194  15
  -5   3  -5 60.2343 40.7016  14
   5  -3   5 86.2304 63.8650   2
   5  -3   5 79.3739 60.3187   3
   5  -3   6 192.711 96.3118  16
   5   3   6 27.1184 38.4674  16
  -5  -3  -6 12.8684 75.5846   4
  -5   3  -6 181.432 86.2620  15
   5  -3   6 315.487 104.138   2
  -5   3  -6 187.878 88.0475  14
  -5  -3  -6 24.1758 112.643   1
   5   3   6 7.46605 82.6185  13
   5   3   6 235.665 109.733   2
   5  -3   6 162.910 67.8656   3
  -5   3  -6 182.042 82.6079   1
  -5   4  -3 235.702 65.6499  14
   5  -4   3 120.089 50.9840   2
  -5   4  -3 136.491 59.6918   1
   5  -4   3 136.620 71.2330   3
   5  -4   4-102.091 67.6195  16
  -5   4  -4-18.6315 33.1131   1
  -5   4  -4-112.869 77.2921  15
  -5   4  -4 65.5702 76.4943  14
   5  -4   4 17.9048 31.8080   2
   5  -4   4 38.4297 47.0886   3
   5  -4   5 82.6269 73.0502  16
  -5   4  -5 67.6967 55.5737  15
   5  -4   5 66.8159 71.4642   2
  -5   4  -5 50.2580 61.1271  14
   5  -4   5 85.3493 68.8604   3
  -5   4  -5 6.77730 52.9968   1
  -5   5  -3-30.6730 28.6971  14
  -5   5  -3-64.1985 32.7587   1
   5  -5   3-28.9352 63.8935   2
   5  -5   3 38.5644 37.7709   3
   5  -5   4-50.0915 30.3864  16
  -5   5  -4-83.6688 60.5565  15
  -5   5  -4 23.4439 40.2960  14
   5  -5   4 38.7902 57.1668   2
   5  -5   4 8.46262 41.4183   3
  -5   5  -4 45.9239 39.2941   1
  -5   6  -2-12.5518 43.0039  14
   5  -6   2 30.6115 40.3161   3
   0   0   0    0.00    0.00   0

TITL instrument in P2(1)/c
REM P2(1)/c (#14 in standard setting)
CELL 0.71073   5.095610  10.177467  13.791948  90.0000  99.1269  90.0000
ZERR    4.00   0.001015   0.000989   0.008966   0.0000   0.0397   0.0000
LATT  1
SYMM -x, y+1/2,-z+1/2
SFAC C H N O
UNIT 16.00 28.00 20.00 12.00
TREF
HKLF 4
END
;
_shelx_hkl_checksum              76435
_olex2_submission_special_instructions 'No special instructions were received'
_oxdiff_exptl_absorpt_empirical_details
;
Empirical correction (ABSPACK) includes:
- Absorption correction using spherical harmonics
- Frame scaling
;
_oxdiff_exptl_absorpt_empirical_full_max 2.629
_oxdiff_exptl_absorpt_empirical_full_min 0.770
loop_
_space_group_symop_operation_xyz
'x, y, z'
'-x, y+1/2, -z+1/2'
'-x, -y, -z'
'x, -y-1/2, z-1/2'
loop_
_atom_site_label
_atom_site_type_symbol
_atom_site_fract_x
_atom_site_fract_y
_atom_site_fract_z
_atom_site_U_iso_or_equiv
_atom_site_adp_type
_atom_site_occupancy
_atom_site_site_symmetry_order
_atom_site_calc_flag
_atom_site_refinement_flags_posn
_atom_site_refinement_flags_adp
_atom_site_refinement_flags_occupancy
_atom_site_disorder_assembly
_atom_site_disorder_group
C1 C 0.1057(15) 0.7901(5) 0.5380(9) 0.059(9) Uani 1 1 d . . . . .
H1 H -0.042104 0.829642 0.501271 0.071 Uiso 1 1 calc R . . . .
C2 C 0.3233(17) 0.8596(5) 0.5885(10) 0.054(9) Uani 1 1 d . . . . .
H2 H 0.345941 0.950315 0.591083 0.065 Uiso 1 1 calc R . . . .
C3 C 0.4927(16) 0.7681(5) 0.6323(10) 0.062(8) Uani 1 1 d . . . . .
H3 H 0.653608 0.782846 0.673062 0.074 Uiso 1 1 calc R . . . .
C4 C 0.4769(15) 0.5237(4) 0.6296(9) 0.042(9) Uani 1 1 d . . . . .
N1 N 0.3802(12) 0.6486(3) 0.6049(8) 0.059(9) Uani 1 1 d . . . . .
N2 N 0.1360(11) 0.6620(3) 0.5488(7) 0.057(7) Uani 1 1 d . . . . .
N3 N 0.3385(13) 0.4243(4) 0.5910(8) 0.085(8) Uani 1 1 d . . . . .
H3A H 0.397702 0.345696 0.601959 0.102 Uiso 1 1 calc R . . . .
H3B H 0.187632 0.437084 0.554371 0.102 Uiso 1 1 calc R . . . .
N4 N 0.7064(13) 0.5101(4) 0.6855(8) 0.071(8) Uani 1 1 d . . . . .
H4A H 0.771876 0.432903 0.698098 0.086 Uiso 1 1 calc R . . . .
H4B H 0.792603 0.578207 0.709816 0.086 Uiso 1 1 calc R . . . .
N5 N 0.2456(14) 0.6475(4) 0.8253(8) 0.068(9) Uani 1 1 d . . . . .
O1 O 0.4857(10) 0.6735(3) 0.8558(6) 0.071(6) Uani 1 1 d . . . . .
O2 O 0.1665(10) 0.5336(3) 0.8238(7) 0.094(7) Uani 1 1 d . . . . .
O3 O 0.0865(10) 0.7376(3) 0.7934(7) 0.073(7) Uani 1 1 d . . . . .
loop_
_atom_site_aniso_label
_atom_site_aniso_U_11
_atom_site_aniso_U_22
_atom_site_aniso_U_33
_atom_site_aniso_U_23
_atom_site_aniso_U_13
_atom_site_aniso_U_12
C1 0.060(7) 0.042(3) 0.07(2) 0.005(4) -0.007(11) -0.001(3)
C2 0.064(7) 0.040(3) 0.06(2) -0.008(4) 0.008(11) -0.002(3)
C3 0.062(6) 0.044(3) 0.07(2) -0.008(4) -0.017(10) -0.007(3)
C4 0.032(6) 0.040(3) 0.05(2) 0.004(4) 0.010(11) 0.000(2)
N1 0.049(6) 0.037(3) 0.08(2) 0.001(3) -0.022(10) -0.002(2)
N2 0.039(5) 0.040(3) 0.086(16) 0.003(3) -0.009(8) -0.0004(19)
N3 0.069(6) 0.034(3) 0.132(19) -0.003(3) -0.044(10) 0.002(2)
N4 0.058(5) 0.054(3) 0.088(18) 0.004(3) -0.031(9) 0.002(2)
N5 0.057(6) 0.047(3) 0.09(2) -0.001(3) -0.019(10) 0.002(2)
O1 0.051(4) 0.046(2) 0.104(14) -0.006(3) -0.023(7) -0.0041(18)
O2 0.068(5) 0.046(3) 0.153(18) -0.002(3) -0.030(9) -0.014(2)
O3 0.055(5) 0.059(3) 0.094(17) 0.012(3) -0.014(9) 0.005(2)
loop_
_atom_type_symbol
_atom_type_description
_atom_type_scat_dispersion_real
_atom_type_scat_dispersion_imag
_atom_type_scat_source
C C 0.0033 0.0016 'International Tables Vol C Tables 4.2.6.8 and 6.1.1.4'
H H 0.0000 0.0000 'International Tables Vol C Tables 4.2.6.8 and 6.1.1.4'
N N 0.0061 0.0033 'International Tables Vol C Tables 4.2.6.8 and 6.1.1.4'
O O 0.0106 0.0060 'International Tables Vol C Tables 4.2.6.8 and 6.1.1.4'
loop_
_geom_angle_atom_site_label_1
_geom_angle_atom_site_label_2
_geom_angle_atom_site_label_3
_geom_angle
_geom_angle_site_symmetry_1
_geom_angle_site_symmetry_3
_geom_angle_publ_flag
N2 C1 C2 111.9(5) . . ?
C3 C2 C1 105.9(4) . . ?
C2 C3 N1 106.2(5) . . ?
N3 C4 N1 117.7(5) . . ?
N3 C4 N4 122.6(4) . . ?
N4 C4 N1 119.6(4) . . ?
C3 N1 C4 128.9(4) . . ?
N2 N1 C3 111.8(4) . . ?
N2 N1 C4 119.2(4) . . ?
C1 N2 N1 104.0(4) . . ?
O2 N5 O1 120.3(4) . . ?
O2 N5 O3 119.5(5) . . ?
O3 N5 O1 120.2(4) . . ?
loop_
_geom_bond_atom_site_label_1
_geom_bond_atom_site_label_2
_geom_bond_distance
_geom_bond_site_symmetry_2
_geom_bond_publ_flag
C1 C2 1.404(8) . ?
C1 N2 1.319(6) . ?
C2 C3 1.347(8) . ?
C3 N1 1.372(6) . ?
C4 N1 1.386(6) . ?
C4 N3 1.298(6) . ?
C4 N4 1.302(6) . ?
N1 N2 1.363(5) . ?
N5 O1 1.258(6) . ?
N5 O2 1.226(5) . ?
N5 O3 1.256(5) . ?

_cod_database_fobs_code 2108915
