#------------------------------------------------------------------------------
#$Date: 2021-03-13 07:56:10 +0200 (Sat, 13 Mar 2021) $
#$Revision: 263024 $
#$URL: file:///home/coder/svn-repositories/cod/cif/2/10/87/2108792.cif $
#------------------------------------------------------------------------------
#
# This file is available in the Crystallography Open Database (COD),
# http://www.crystallography.net/. The original data for this entry
# were provided by IUCr Journals, http://journals.iucr.org/.
#
# The file may be used within the scientific community so long as
# proper attribution is given to the journal article from which the
# data were obtained.
#
data_2108792
loop_
_publ_author_name
'Zarychta, Bartosz'
'Czapla, Zbigniew'
'Przes\/lawski, Janusz'
'Szklarz, Przemys\/law'
_publ_section_title
;
 Structure, ferroelasticity and Goldilocks zone phase transitions in
 C~3~H~5~N~2~Al(SO~4~)~2~&#x00B7;6H~2~O
;
_journal_coeditor_code           XK5078SUP1
_journal_issue                   2
_journal_name_full               'Acta Crystallographica Section B'
_journal_page_first
;
;
_journal_paper_doi               10.1107/S2052520621001256
_journal_volume                  77
_journal_year                    2021
_chemical_formula_moiety         'C3 H17 Al N2 O14 S2'
_chemical_formula_sum            'C3 H17 Al N2 O14 S2'
_chemical_formula_weight         396.29
_chemical_name_common            'Imidazolium hexa-aqua-aluminium disulphate'
_space_group_crystal_system      trigonal
_space_group_IT_number           164
_space_group_name_Hall           '-P 3 2"'
_space_group_name_H-M_alt        'P -3 m 1'
_atom_sites_solution_hydrogens   difmap
_audit_creation_method           SHELXL-2013
_cell_angle_alpha                90
_cell_angle_beta                 90
_cell_angle_gamma                120
_cell_formula_units_Z            1
_cell_length_a                   6.8680(4)
_cell_length_b                   6.8680(4)
_cell_length_c                   9.1617(10)
_cell_measurement_reflns_used    2563
_cell_measurement_temperature    350.0(1)
_cell_measurement_theta_max      25.962
_cell_measurement_theta_min      3.425
_cell_volume                     374.25(5)
_computing_cell_refinement       'CrysAlis RED (Oxford Diffraction, 2007)'
_computing_data_collection       'CrysAlis CCD (Oxford Diffraction, 2007)'
_computing_data_reduction        'CrysAlis RED (Oxford Diffraction, 2007)'
_computing_molecular_graphics    'SHELXTL (Sheldrick, 2008)'
_computing_structure_refinement  'SHELXL-2013 (Sheldrick, 2013)'
_computing_structure_solution    'SHELXS-2013 (Sheldrick, 2013)'
_diffrn_ambient_temperature      350.0(1)
_diffrn_detector_area_resol_mean 10.4508
_diffrn_measured_fraction_theta_full 0.997
_diffrn_measured_fraction_theta_max 0.997
_diffrn_measurement_device       '4-circle kappa geometry goniometer'
_diffrn_measurement_device_type  'Oxford Diffraction Xcalibur System'
_diffrn_measurement_method       \w--scan
_diffrn_radiation_monochromator  graphite
_diffrn_radiation_source         'Enhance (Mo) X-ray Source'
_diffrn_radiation_type           MoK\a
_diffrn_radiation_wavelength     0.71073
_diffrn_reflns_av_R_equivalents  0.0222
_diffrn_reflns_av_unetI/netI     0.0124
_diffrn_reflns_Laue_measured_fraction_full 0.997
_diffrn_reflns_Laue_measured_fraction_max 0.997
_diffrn_reflns_limit_h_max       8
_diffrn_reflns_limit_h_min       -8
_diffrn_reflns_limit_k_max       8
_diffrn_reflns_limit_k_min       -8
_diffrn_reflns_limit_l_max       11
_diffrn_reflns_limit_l_min       -7
_diffrn_reflns_number            2563
_diffrn_reflns_point_group_measured_fraction_full 0.997
_diffrn_reflns_point_group_measured_fraction_max 0.997
_diffrn_reflns_theta_full        25.242
_diffrn_reflns_theta_max         25.962
_diffrn_reflns_theta_min         3.425
_diffrn_standards_decay_%        0
_diffrn_standards_interval_count 0
_diffrn_standards_interval_time  0
_diffrn_standards_number         0
_exptl_absorpt_coefficient_mu    0.490
_exptl_absorpt_correction_type   none
_exptl_crystal_colour            colorless
_exptl_crystal_density_diffrn    1.758
_exptl_crystal_description       irregular
_exptl_crystal_F_000             206
_exptl_crystal_size_max          0.4
_exptl_crystal_size_mid          0.36
_exptl_crystal_size_min          0.34
_refine_diff_density_max         0.316
_refine_diff_density_min         -0.290
_refine_diff_density_rms         0.048
_refine_ls_extinction_method     none
_refine_ls_goodness_of_fit_ref   1.114
_refine_ls_hydrogen_treatment    constr
_refine_ls_matrix_type           full
_refine_ls_number_parameters     32
_refine_ls_number_reflns         317
_refine_ls_number_restraints     7
_refine_ls_restrained_S_all      1.101
_refine_ls_R_factor_all          0.0365
_refine_ls_R_factor_gt           0.0300
_refine_ls_shift/su_max          0.000
_refine_ls_shift/su_mean         0.000
_refine_ls_structure_factor_coef Fsqd
_refine_ls_weighting_details
'w=1/[\s^2^(Fo^2^)+(0.0346P)^2^+0.2265P] where P=(Fo^2^+2Fc^2^)/3'
_refine_ls_weighting_scheme      calc
_refine_ls_wR_factor_gt          0.0777
_refine_ls_wR_factor_ref         0.0800
_reflns_Friedel_coverage         0.000
_reflns_number_gt                279
_reflns_number_total             317
_reflns_threshold_expression     'I > 2\s(I)'
_cod_data_source_file            xk5078sup1.cif
_cod_data_source_block           III
_cod_original_cell_volume        374.25(6)
_cod_database_code               2108792
_shelx_space_group_comment
;
The symmetry employed for this shelxl refinement is uniquely defined
by the following loop, which should always be used as a source of
symmetry information in preference to the above space-group names.
They are only intended as comments.
;
_shelxl_version_number           2013-4
_shelx_res_file
;
TITL 1_a.res in P-3m1
CELL  0.71073   6.8680   6.8680   9.1617   90.000   90.000  120.000
ZERR    1.000   0.0004   0.0004   0.0010    0.000    0.000    0.000
LATT  1
SYMM -Y, X-Y, Z
SYMM -X+Y, -X, Z
SYMM Y, X, -Z
SYMM X-Y, -Y, -Z
SYMM -X, -X+Y, -Z
SFAC C H N O AL S
UNIT 3 17 2 14 1 2
L.S. 10
HTAB
OMIT 0 52
CONF
ACTA
BOND $H
EQIV $1 x+1, y, z
HTAB O1 S1_$1
EQIV $2 -x+y+1, -x+1, z
HTAB O1 O2_$2
EQIV $3 -x+1, -y+1, -z+1
HTAB N1 S1_$3
HTAB N1 O3_$3
HTAB C2 S1_$3
HTAB C2 O3_$3
HTAB N1 O3
HTAB C2 O3
HTAB C2 O3_$3
LIST 6
FMAP 2
PLAN 10
SIMU 0.1 N1 > C2
DELU 0.1 N1 > C2
WGHT    0.034600    0.226500
FVAR       1.71693
AL1   5    1.000000    1.000000    1.000000    10.08333    0.02565    0.02565 =
         0.03825    0.00000    0.00000    0.01283
O1    4    0.869698    0.739397    0.885019    10.50000    0.03062    0.03574 =
         0.05650   -0.01336   -0.00668    0.01787
AFIX   3
H1A   2    0.934630    0.658700    0.854539    11.00000   -1.20000
AFIX   0
S1    6    0.333333    0.666667    0.739020    10.16667    0.02812    0.02812 =
         0.04922    0.00000    0.00000    0.01406
O2    4    0.449654    0.550346    0.793234    10.50000    0.03142    0.03142 =
         0.08128    0.00214   -0.00214    0.01799
O3    4    0.333333    0.666667    0.581270    10.16667    0.08559    0.08559 =
         0.04659    0.00000    0.00000    0.04279
N1    3    0.170650    0.085325    0.493026    10.16667    0.03046    0.05827 =
         0.05723   -0.00566   -0.01133    0.01523
AFIX   3
H1    2    0.328864    0.164432    0.505520    10.16667   -1.20000
AFIX   0
C2    1    0.175522    0.175522    0.500000    10.25000    0.04132    0.04132 =
         0.05342   -0.00904    0.00904    0.00103
AFIX   3
H2    2    0.300616    0.280143    0.500000    10.25000   -1.20000
REM #####
REM #####
AFIX   0
HKLF 4

REM  1_a.res in P-3m1
REM R1 =  0.0300 for     279 Fo > 4sig(Fo)  and  0.0365 for all     317 data
REM     32 parameters refined using      7 restraints

END

WGHT      0.0346      0.2265

REM Instructions for potential hydrogen bonds
HTAB O1 S1_$1
HTAB O1 O2_$2
HTAB N1 S1_$3
HTAB N1 O3_$3
HTAB C2 S1_$3
HTAB C2 O3_$3
HTAB N1 O3
HTAB C2 O3
HTAB C2 O3_$3

REM Highest difference peak  0.316,  deepest hole -0.290,  1-sigma level  0.048
Q1    1   0.2110  0.6055  0.6088  10.50000  0.05    0.32
Q2    1   0.4409  0.5591  0.8740  10.50000  0.05    0.28
Q3    1   0.4111  0.5889  0.7565  10.50000  0.05    0.16
Q4    1   0.9358  0.8717  0.9078  10.50000  0.05    0.13
Q5    1   0.3999  0.4543  0.7672  11.00000  0.05    0.13
Q6    1   0.9570  0.7562  0.8376  11.00000  0.05    0.11
Q7    1   0.8614  0.7227  0.7612  10.50000  0.05    0.10
Q8    1   0.8245  0.7481  0.9841  11.00000  0.05    0.09
Q9    1   0.6667  0.3333  0.8410  10.16667  0.05    0.09
Q10   1   0.4462  0.7231  0.5057  10.50000  0.05    0.09
;
_shelx_res_checksum              85267
_shelx_hkl_file
;
   0   0   2  343.44    8.65
   0   0   2  358.42    8.43
   0   0   2  348.71    8.65
   0   0   2  358.11    8.35
   0   0   3 9976.13   55.30
   0   0   3 9957.25   52.96
   0   0   3 9999.00   52.81
   0   0   3 9997.80   55.67
   0   0   4 1074.57   21.22
   0   0   4 1076.07   21.37
   0   0   4 1061.78   20.31
   0   0   4 1097.44   20.54
   0   0   5  103.22    8.28
   0   0   5   97.95    7.67
   0   0   5   94.49    7.97
   0   0   5  101.57    7.82
   0   0   6   54.47    6.85
   0   0   6   67.33    8.05
   0   0   6   54.47    7.45
   0   0   6   72.38    7.45
   0   0   7   20.84    5.94
   0   0   7   31.90    6.92
   0   0   7   30.39    7.30
   0   0   7   37.24    7.30
   0   0   8  876.93   28.21
   0   0   8  870.61   26.56
   0   0   8  817.80   28.29
   0   0   9   36.11    8.35
   0   0   9   37.17    8.05
   0   0   9   21.22    6.85
   0   0  10   76.21   11.89
   0   0  10   70.42   12.11
   0   0  11    4.44   11.21
   0   0  11    4.97   10.53
   1  -1  12   -8.50   13.02
  -1   0  12   13.47   14.22
   0   1  12    8.95   13.32
   0   1  11   11.44   10.76
   1  -1  11   25.50   10.91
  -1   0  11   18.58   10.31
   1  -1  11   17.83   11.51
   0   1  10  140.54   14.07
   1  -1  10  112.25   13.84
  -1   0  10  139.03   14.82
  -1   0  10  126.84   13.69
   0   1  10  108.41   14.37
   1  -1  10  118.87   13.69
   1  -1   9   13.02    7.82
   1  -1   9    8.58    7.07
   0   1   9   12.79    7.82
   0   1   9    5.34    7.75
  -1   0   9    3.91    6.70
  -1   0   9   11.89    7.37
  -1   0   9    7.52    6.85
   0   1   8   34.76    6.70
  -1   0   8   40.55    7.30
   1  -1   8   31.90    8.13
  -1   0   8   30.32    7.90
   1  -1   8   32.35    8.73
  -1   0   8   61.62    8.13
   0   1   8   49.73    9.33
   0   1   8   36.86    7.90
  -1   0   8   32.65    7.90
  -1   0   7  142.19   10.46
  -1   0   7  154.98   12.41
  -1   0   7  151.52   11.96
   1  -1   7  153.25   12.26
  -1   0   7  154.68   11.74
   1  -1   7  144.22   12.49
   0   1   7  142.49   12.34
   0   1   7  142.94   10.16
   1  -1   7  146.78    9.48
   0   1   7  165.06   12.56
   0   1   6  571.86   20.54
   1  -1   6  569.07   16.02
  -1   0   6  568.47   17.98
   0   1   6  555.23   16.93
   0   1   6  555.60   20.69
  -1   0   6  564.48   19.64
  -1   0   6  534.46   19.79
  -1   0   6  570.12   19.79
   1  -1   6  523.48   19.49
   1  -1   6  529.80   20.39
   1  -1   5 2630.79   29.72
   1  -1   5 2614.31   40.78
  -1   0   5 2645.38   39.65
   0   1   5 2709.56   32.95
   0   1   5 2750.41   40.18
   1  -1   5 2643.96   38.90
   0   1   5 2646.96   40.40
  -1   0   5 2724.91   38.75
  -1   0   5 2683.75   34.31
  -1   0   5 2602.20   37.47
   1  -1   4  197.11    7.15
  -1   0   4  193.73    8.43
  -1   0   4  178.61    9.63
   0   1   4  188.99    7.67
   1  -1   4  175.75    9.86
   1  -1   4  177.85    9.78
   0   1   4  176.57   10.16
   0   1   4  183.50   10.16
  -1   0   4  189.29    9.48
  -1   0   4  186.05    9.93
   0   1   3  574.26   15.35
  -1   0   3  580.58   11.59
   1  -1   3  566.06   15.05
   1  -1   3  568.77   14.67
  -1   0   3  556.36   13.62
  -1   0   3  573.13   14.97
   0   1   3  569.15   15.20
   1  -1   3  546.58    9.18
   0   1   3  575.69   10.98
  -1   0   2 9868.62   36.26
   0   1   2 9881.11   35.44
   0   1   2 9940.54   53.34
   0   1   2 9898.64   54.85
   1  -1   2 9841.69   52.74
  -1   0   2 9882.01   48.30
   1  -1   2 9936.48   52.14
  -1   0   2 9886.22   52.74
   1  -1   1 2973.93   22.57
  -1   0   1 3064.29   24.15
   1  -1   1 3005.00   25.43
   0   1   1 2965.21   26.26
  -1   0   1 3004.63   22.80
   0   1   1 2986.65   24.60
   0   1   0  486.99    9.48
  -1   1   0  510.46    9.40
  -1   0   0  502.26    7.67
  -1   1   0  510.69    7.97
   0  -1   0  491.58    8.73
   0  -1   1 7518.98   30.85
   1   0   1 7476.47   38.60
  -1   1   1 7638.45   40.55
   1   0   1 7563.29   37.39
  -1   1   1 7542.53   37.47
   0  -1   1 7497.91   38.44
  -1   1   2 3952.58   30.92
  -1   1   2 3853.50   34.76
   1   0   2 3915.26   30.32
   0  -1   2 3977.33   33.48
   1   0   2 3977.86   33.63
   0  -1   2 3939.64   26.63
  -1   1   2 3931.59   23.10
  -1   1   3 2211.96   26.71
   0  -1   3 2179.99   23.77
  -1   1   3 2122.06   29.72
   1   0   3 2145.60   29.04
   0  -1   3 2145.98   28.59
  -1   1   3 2206.77   23.17
   1   0   3 2167.42   25.50
  -1   1   3 2162.68   27.39
   0  -1   3 2151.62   28.97
   0  -1   4  664.17   15.72
  -1   1   4  720.22   16.02
   1   0   4  669.13   16.18
   0  -1   4  658.15   18.28
  -1   1   4  687.79   17.68
   1   0   4  691.78   18.81
  -1   1   4  676.58   17.00
   0  -1   4  667.93   18.36
  -1   1   4  699.38   19.11
  -1   1   5   30.85    4.74
   0  -1   5   29.87    4.89
  -1   1   5   37.17    5.64
   1   0   5   31.45    4.81
   0  -1   5   37.92    6.24
  -1   1   5   28.06    6.24
   0  -1   5   28.36    5.87
   1   0   5   28.66    5.79
   1   0   5   27.99    6.32
  -1   1   5   34.46    6.02
   1   0   6 1022.43   24.23
  -1   1   6  994.60   25.28
   0  -1   6 1001.14   27.08
   0  -1   6 1032.89   24.45
   1   0   6  966.31   26.93
  -1   1   6 1009.19   27.46
   1   0   6  944.79   26.93
  -1   1   6 1012.50   26.56
  -1   1   6 1029.43   24.83
   0  -1   7   61.32    8.95
  -1   1   7   58.16    8.88
   1   0   7   62.44    7.90
   1   0   7   74.71    9.78
  -1   1   7   57.55    8.13
   0  -1   7   69.06    8.35
   1   0   7   61.39    9.03
  -1   1   7   60.19    7.75
  -1   1   7   62.97    8.58
  -1   1   8  363.98   19.03
  -1   1   8  354.73   19.11
   0  -1   8  357.81   19.56
   1   0   8  385.95   20.31
  -1   1   8  365.94   18.43
   0  -1   8  373.31   17.83
   1   0   8  367.82   17.68
  -1   1   8  388.06   18.81
  -1   1   9   61.47    8.88
   0  -1   9   70.64   10.98
   0  -1   9   77.87   10.53
  -1   1   9   63.57    9.71
  -1   1   9   82.83   11.21
  -1   1   9   81.70   11.59
   1   0   9   79.82   11.74
  -1   1  10   56.05    9.03
  -1   1  10   47.32    8.50
   0  -1  10   51.46    9.78
  -1   1  10   45.97   10.91
   1   0  10   46.65    9.63
  -1   1  10   47.92    9.63
   0  -1  10   45.44    8.73
   0  -1  11   24.98   11.36
  -1   1  11   23.77   10.91
   1   0  11   17.00   10.68
   1   0  12   13.47   12.87
   0  -1  12   12.26   13.84
   1   1  12   42.13   14.44
   1  -2  11   24.07   12.26
   1   1  11   26.78   10.98
  -2   1  11   24.75   10.53
   1   1  10   -6.55    9.48
   1  -2  10    6.62    9.40
  -2   1  10   -3.91    9.71
   1  -2  10    7.60    8.88
   1  -2   9    3.69    9.18
   1  -2   9   17.00    8.73
  -2   1   9    3.91    7.97
  -2   1   9   14.14    8.35
  -2   1   9    9.93    6.77
   1   1   9   -2.48    8.35
   1   1   9   10.46    7.82
  -2   1   8  160.78   14.67
   1   1   8  157.39   14.52
  -2   1   8  171.46   12.87
   1   1   8  183.35   13.69
   1  -2   8  168.83   14.90
  -2   1   8  158.44   13.84
   1  -2   8  171.61   13.32
   1   1   7  293.64   17.68
  -2   1   7  291.38   16.55
   1   1   7  274.83   16.40
  -2   1   7  296.35   14.82
  -2   1   7  282.58   17.45
   1  -2   7  272.05   15.57
   1  -2   7  245.94   16.33
   1   1   6  121.35   11.36
   1   1   6  120.90   10.68
  -2   1   6  131.58    9.40
   1  -2   6  126.32   11.29
   1  -2   6  130.68   10.46
  -2   1   6  122.93   10.61
  -2   1   6  126.02   11.89
  -2   1   5  140.84   10.38
  -2   1   5  121.88   10.31
   1   1   5  121.50    9.86
  -2   1   5  135.42    8.35
   1  -2   5  140.01   10.91
   1  -2   5  149.57   10.08
   1   1   5  140.39   10.68
   1   1   4 1681.26   31.37
   1  -2   4 1679.15   28.66
  -2   1   4 1698.86   24.68
  -2   1   4 1703.15   30.09
   1   1   4 1681.94   30.55
   1  -2   4 1636.87   30.47
  -2   1   4 1631.83   31.52
  -2   1   3  619.55   13.02
   1  -2   3  607.14   16.10
   1   1   3  573.51   16.85
  -2   1   3  582.54   17.23
   1  -2   3  594.20   16.55
  -2   1   3  587.20   16.40
   1   1   3  601.72   16.93
   1   1   2   27.01    4.06
   1  -2   2   34.76    4.59
  -2   1   2   32.80    4.21
   1  -2   2   32.58    4.21
  -1   2  -2   33.70    2.48
   1   1   2   28.81    4.89
  -2   1   2   31.37    3.08
   1   1   1  433.57   10.61
   1   1   1  441.55   13.69
  -2   1   1  431.17    8.80
  -1   2  -1  416.20    8.28
   1  -2   1  404.31   10.16
  -2   1   1  397.99   11.29
   1   1   0 3886.45   24.45
   2  -1   0 3875.01   31.90
  -1   2   0 3900.44   30.24
  -2   1   0 3904.88   32.43
  -1  -1   0 3914.96   35.21
   1  -2   0 3915.34   25.35
  -1  -1   0 3933.32   25.73
  -1  -1   1  398.52   11.96
  -1   2   1  446.29   12.26
  -2   1  -1  422.44   10.91
   1  -2  -1  442.68    7.82
  -1  -1   1  413.11   10.68
  -1   2   1  424.47   10.76
   2  -1   1  444.71   12.11
  -1  -1   2   30.55    4.14
   2  -1   2   31.00    4.59
  -1  -1   2   24.38    4.21
  -1   2   2   34.01    3.69
  -1   2   2   27.46    4.74
  -1   2   3  613.01   13.84
  -1  -1   3  568.54   16.33
  -1  -1   3  634.37   17.38
  -1   2   3  591.79   17.83
   2  -1   3  605.33   12.04
   2  -1   3  609.47   17.30
  -1  -1   3  608.72    9.86
  -1  -1   4 1674.26   20.99
  -1   2   4 1702.55   32.50
   2  -1   4 1659.59   21.67
   2  -1   4 1677.80   31.07
  -1  -1   4 1658.76   31.00
  -1  -1   4 1672.61   30.17
  -1   2   4 1700.89   25.65
  -1  -1   5  156.86   10.76
  -1  -1   5  134.07   10.53
  -1  -1   5  143.10    7.75
  -1   2   5  123.16   10.31
   2  -1   5  140.39    7.60
  -1   2   5  148.29    8.73
   2  -1   5  145.65   11.21
   2  -1   5  144.15   11.13
  -1   2   5  135.12   11.13
  -1  -1   6  129.55   11.44
  -1   2   6  133.39   11.96
  -1  -1   6  133.24   10.98
   2  -1   6  148.59    8.73
  -1   2   6  124.21   11.36
  -1   2   6  124.74    8.80
   2  -1   6  135.80   11.59
  -1  -1   6  126.92    8.50
   2  -1   6  136.02   11.89
  -1  -1   7  272.95   16.85
   2  -1   7  272.72   16.85
  -1   2   7  304.55   17.60
  -1  -1   7  259.93   16.02
  -1  -1   7  273.70   13.24
   2  -1   7  263.39   16.63
  -1   2   7  269.49   16.78
  -1   2   7  287.02   14.44
  -1  -1   8  158.07   14.37
  -1   2   8  166.57   14.82
  -1   2   8  163.78   12.34
  -1  -1   8  151.75   14.14
   2  -1   8  155.43   14.29
  -1   2   8  170.33   15.57
  -1   2   9   11.96    8.28
  -1   2   9   19.11    8.13
   2  -1   9   12.11    8.35
  -1  -1   9   11.06    8.20
   2  -1  10   -0.15    9.48
  -1  -1  10    6.77    9.03
  -1   2  10   -7.67    9.63
  -1   2  10    3.16    9.63
  -1   2  11   28.59   12.04
   2  -1  11   26.33   12.26
  -1  -1  11   10.53   11.51
   2  -1  12   44.39   13.32
  -1  -1  12   45.82   14.90
   2  -2  12   11.74   14.07
   0   2  11   15.50   12.87
   2  -2  11   -4.89   11.74
   2  -2  11    0.08   12.19
  -2   0  11    9.10   12.49
  -2   0  11   -5.72   11.74
   2  -2  10   37.99   11.13
   0   2  10   37.62    9.78
  -2   0  10   32.88    8.80
   2  -2  10   48.30   11.89
   0   2  10   48.68   11.36
  -2   0  10   45.29   10.53
  -2   0   9  133.62   13.39
   2  -2   9  134.37   15.35
   0   2   9  126.39   14.14
  -2   0   9  123.23   13.69
   0   2   9  131.81   15.20
   2  -2   9  132.49   13.32
  -2   0   8    1.43    6.55
  -2   0   8    4.21    5.94
   0   2   8    5.57    6.92
   0   2   8    3.24    7.30
   2  -2   8    4.97    7.37
   2  -2   8   -0.83    6.55
  -2   0   7  870.84   26.78
   0   2   7  869.86   29.57
   2  -2   7  811.40   29.19
  -2   0   7  872.49   22.87
   2  -2   7  819.68   27.76
   0   2   7  773.33   28.21
  -2   0   7  822.46   28.29
   2  -2   6   13.47    6.47
   2  -2   6   13.09    5.94
  -2   0   6    8.50    3.91
  -2   0   6   13.24    5.64
  -2   0   6   14.97    6.55
   0   2   6    3.16    7.30
   0   2   6    9.03    5.94
   0   2   6   10.61    3.69
  -2   0   5 2096.18   35.13
   2  -2   5 2109.42   38.29
   0   2   5 2097.23   26.56
   0   2   5 2027.11   38.44
  -2   0   5 2034.86   37.99
   0   2   5 2126.57   39.72
   2  -2   5 2073.08   37.92
   0   2   4  662.59   12.94
   2  -2   4  677.56   20.16
   2  -2   4  690.27   20.76
  -2   0   4  639.94   19.71
   0   2   4  691.70   21.52
  -2   0   4  664.24   18.28
   0   2   4  716.15   21.37
   0   2   3  195.76   11.06
   0   2   3  181.09    5.94
   2  -2   3  180.56   10.38
  -2   0   3  182.59   10.08
   2  -2   3  187.26    9.86
  -2   0   3  192.22    9.48
   0   2   3  197.94   10.83
  -2   0   2  479.02   13.39
   0   2   2  472.32    8.80
   2  -2   2  479.69   15.05
  -2   0   2  458.03   13.62
   0   2   2  459.00   15.05
   2  -2   2  464.65   13.09
   2  -2   1 8648.85   58.61
   0   2   1 8634.85   59.21
  -2   0   1 8528.62   51.76
   2  -2   1 8531.78   45.29
  -2   0   1 8499.73   53.34
   2  -2   0    8.43    1.58
  -2   2   0    2.33    2.41
   0   2   0    7.67    3.99
  -2   0   0    6.47    2.33
   2   0   0    3.31    2.03
   0  -2   0    4.06    3.24
  -2   2   0    1.81    3.31
   0  -2   1 3212.35   33.25
  -2   2   1 3187.97   33.86
  -2   0  -1 3245.23   24.45
   0   2  -1 3298.42   32.88
  -2   2   1 3156.53   33.10
   2   0   1 3194.59   30.17
   2   0   2 1015.74   19.79
  -2   2   2 1024.99   20.16
  -2   0  -2 1041.92   13.39
   2   0   2 1037.33   20.76
   0  -2   2 1020.25   20.69
  -2   2   2 1043.95   21.82
   0  -2   2 1023.64   16.48
  -2   2   3  101.49    7.30
   0  -2   3  105.10    6.17
  -2   2   3   97.35    4.29
  -2   2   3  108.34    8.43
   0  -2   3   97.95    7.60
   2   0   3   94.34    7.82
   2   0   3  102.24    7.52
   0  -2   4  493.61   13.77
   0  -2   4  479.84   17.30
   2   0   4  502.26   15.72
  -2   2   4  502.56   11.96
  -2   2   4  469.91   18.13
  -2   2   4  503.47   16.40
   2   0   4  477.81   17.53
   0  -2   5  472.17   18.73
  -2   2   5  451.48   19.11
   2   0   5  488.12   19.11
   0  -2   5  478.72   14.82
   2   0   5  462.54   16.33
  -2   2   5  465.85   16.78
  -2   2   5  478.72   13.62
  -2   2   6 1656.51   38.44
   0  -2   6 1672.08   30.47
  -2   2   6 1671.48   28.89
   0  -2   6 1572.32   36.34
   2   0   6 1585.49   37.02
   2   0   6 1651.77   31.90
  -2   2   6 1653.50   34.01
   0  -2   7  244.89   13.39
  -2   2   7  259.93   15.12
   2   0   7  236.46   16.48
  -2   2   7  220.74   16.48
   0  -2   7  245.49   16.55
  -2   2   7  241.88   12.71
   2   0   7  235.93   13.54
  -2   2   8   68.01   11.06
   0  -2   8   56.28    9.40
   0  -2   8   61.01    8.65
   2   0   8   57.18   10.46
  -2   2   8   49.81    7.97
   2   0   9   -1.05    8.35
  -2   2   9    2.63    7.30
  -2   2   9   -2.56    8.28
   0  -2   9    7.75    8.13
  -2   2  10   22.12    9.18
   0  -2  10   25.88    9.10
   2   0  10   26.18    9.86
  -2   2  10   23.85   11.44
   2   0  11   -0.23   12.41
   0  -2  11    1.96   10.98
  -2   2  11    0.90   12.19
  -3   2  11    3.46   13.24
   1  -3  11   15.42   13.17
   2   1  11   12.11   12.64
   1  -3  10    8.58    9.71
  -3   2  10  -13.92    9.55
   2   1  10    0.83   10.61
   1  -3   9  105.10   13.92
   2   1   9  102.62   13.84
  -3   2   9  103.67   12.26
  -3   2   9   84.11   12.41
  -3   2   8   80.20   12.41
   1  -3   8   73.50   11.29
   2   1   8   91.18   11.74
   2   1   8   86.22   10.68
  -3   2   8   77.87   10.98
   1  -3   8   75.99    9.63
   1  -3   7   15.95    5.79
   2   1   7   15.87    8.58
   2   1   7    9.33    6.47
  -3   2   7   14.14    7.45
  -3   2   7    9.55    6.77
   1  -3   7   10.46    7.67
   1  -3   6   87.12    9.03
  -3   2   6  104.35    7.67
  -3   2   6   97.80   10.53
   2   1   6  100.14   10.76
  -3   2   6  100.59   11.89
   2   1   6   76.36    9.63
   1  -3   6   99.23   10.83
  -3   2   5 1353.39   22.95
  -3   2   5 1378.52   34.68
   1  -3   5 1395.22   32.95
  -3   2   5 1305.16   31.00
   2   1   5 1421.47   32.65
   1  -3   5 1366.40   29.12
   2   1   5 1371.44   33.40
  -3   2   4  115.56    9.33
   1  -3   4  105.18    9.40
   2   1   4  127.37   10.53
  -3   2   4  117.06   10.61
   2   1   4  127.45   10.23
   1  -3   4  109.99    8.65
  -3   2   4  115.56    6.09
   2   1   3  163.26   10.01
   1  -3   3  163.03   10.23
  -3   2   3  156.86   10.91
  -1   3  -3  158.59    7.22
  -3   2   3  157.84    6.02
   2   1   3  159.50   10.98
   1  -3   3  153.40    9.40
  -3   2   3  151.60    9.93
   2   1   2  474.05   17.45
  -3   2   2  462.24   15.80
   1  -3   2  494.82   15.42
   1  -3   2  488.87   14.97
  -3   2   2  465.17    9.03
  -1   3  -2  487.74   12.11
  -3   2   2  457.05   16.33
   2   1   2  472.85   14.52
   2   1   1   54.77    7.45
  -1   3  -1   66.96    5.27
   1  -3   1   64.02    5.72
  -3   2   1   60.94    6.09
   2   1   1   64.93    5.34
  -2  -1  -1   65.15    3.61
  -1   3   0 1879.73   27.46
   3  -2   0 1875.51   29.12
  -2  -1   0 1781.55   22.12
  -3   2   0 1895.60   29.34
  -2  -1   0 1809.61   30.09
   1  -3   0 1894.40   24.30
   2   1   0 1790.87   20.01
   3  -2   1  577.80   17.08
  -1   3   1  601.35   17.15
  -2  -1   1  584.27   14.67
  -3   2  -1  613.46   16.85
  -1   3   1  610.30   15.20
  -2  -1   1  574.41   17.38
   1  -3  -1  622.34   13.54
   3  -2   2 4726.14   50.48
  -2  -1   2 4772.56   46.80
  -1   3   2 4700.86   51.16
  -2  -1   2 4686.94   49.43
  -1   3   2 4728.47   40.40
  -3   2  -2 4721.55   47.32
  -1   3   3 1739.26   25.13
   3  -2   3 1775.90   19.86
  -2  -1   3 1775.60   32.20
  -2  -1   3 1757.55   31.67
  -1   3   3 1754.39   34.23
   3  -2   3 1785.46   33.63
   3  -2   4   47.55    7.75
   3  -2   4   47.77    3.61
  -2  -1   4   54.77    7.45
  -1   3   4   50.93    8.43
  -2  -1   4   53.42    7.00
  -1   3   4   48.68    4.97
  -2  -1   5   43.41    8.20
  -2  -1   5   48.75    7.37
  -1   3   5   37.77    8.88
  -1   3   5   45.29    5.42
   3  -2   5   44.91    8.35
  -2  -1   6  443.81   19.94
  -1   3   6  449.15   15.72
  -1   3   6  477.89   22.50
  -2  -1   6  428.83   20.61
   3  -2   6  475.71   21.74
  -2  -1   7  114.28   12.94
   3  -2   7  124.51   13.69
  -2  -1   7  121.95   12.34
  -1   3   7  116.16   13.77
  -2  -1   8  183.87   16.10
  -2  -1   8  181.92   14.75
  -1   3   8  209.68   17.98
   3  -2   8  206.22   17.23
  -1   3   9   -0.75    9.40
  -2  -1   9    1.73    8.05
  -2  -1   9   -4.81    8.05
   3  -2   9   -0.68    8.28
   3  -2  10   82.91   14.22
  -2  -1  10   76.44   13.39
  -2  -1  10   91.26   13.32
  -1   3  10   64.70   12.49
   3  -2  11   44.24   13.99
  -1   3  11   45.07   13.47
  -2  -1  11   81.10   14.22
  -1   3  12   12.79   14.29
   1   2  11   83.96   14.44
  -3   1  11   63.57   12.71
   2  -3  11   86.97   14.44
   2  -3  10   82.98   12.49
   1   2  10   81.40   13.62
   1   2  10   56.95   11.59
   2  -3  10   64.02   12.64
  -3   1  10   57.40    9.78
   2  -3   9    2.33    8.80
   1   2   9   -0.30    8.13
   2  -3   9    7.15    9.10
  -3   1   9   -3.61    7.82
   1   2   9    7.30    9.33
   2  -3   8  211.63   17.15
  -3   1   8  192.45   13.32
  -3   1   8  199.07   15.95
   1   2   8  179.36   16.02
   1   2   8  204.49   16.63
   2  -3   8  197.11   15.42
   2  -3   7  127.30   12.41
  -3   1   7  135.87   13.02
   2  -3   7  120.90   13.02
   1   2   7  128.50   13.77
   1   2   7  140.31   14.22
  -3   1   7  121.35   10.46
  -3   1   6  482.03   21.22
   2  -3   6  450.13   20.54
   1   2   6  448.85   20.99
   2  -3   6  453.21   19.94
  -3   1   6  474.13   17.60
   1   2   6  491.35   21.89
   1   2   5   44.91    8.58
   1   2   5   40.48    8.43
  -3   1   5   38.29    7.00
   2  -3   5   48.38    8.05
   2  -3   5   57.55    8.65
  -3   1   5   50.48    6.09
   1   2   4   49.65    8.05
  -3   1   4   53.19    7.00
   2  -3   4   45.44    7.52
   2  -3   4   46.12    6.77
  -3   1   4   60.86    6.17
   1   2   4   48.00    7.90
   2  -3   3 1752.35   32.35
   1   2   3 1750.25   34.76
   2  -3   3 1780.57   30.24
  -3   1   3 1795.31   26.48
  -3   1   3 1709.47   31.75
   1   2   3 1778.69   31.75
  -3   1   2 4679.72   40.33
  -2   3  -2 4580.63   25.58
   1   2   2 4646.39   46.65
   1   2   2 4602.53   53.42
   2  -3   2 4777.90   43.64
  -3   1   2 4720.42   48.30
   2  -3   2 4632.39   49.96
   3  -1  -1  624.29   14.14
   2  -3   1  582.99   13.39
  -2   3  -1  593.15   12.19
   1   2   1  634.98   19.49
  -3   1   1  585.25   14.44
  -3   1   1  595.48   16.33
   1   2   1  624.07   15.35
  -2   3   0 1876.94   25.43
   1   2   0 1848.13   32.05
  -2   3   0 1861.29   29.49
   2  -3   0 1867.01   19.49
   3  -1   0 1848.88   25.50
  -3   1   0 1828.64   26.71
  -1  -2   0 1870.77   29.94
  -2   3   1   58.01    6.47
  -1  -2   1   63.80    6.62
   2  -3  -1   62.29    2.86
  -3   1  -1   73.65    5.42
  -2   3   1   67.94    6.02
   3  -1   1   63.72    6.02
  -3   1  -2  477.59   13.32
  -2   3   2  482.63   15.20
  -1  -2   2  475.10    8.95
   3  -1   2  488.57   15.87
  -2   3   2  490.15   16.70
  -1  -2   2  467.13   16.25
   3  -1   3  151.82   10.16
  -1  -2   3  161.90   10.46
   3  -1   3  153.33    8.88
  -3   1  -3  151.07    8.13
  -2   3   3  157.31   10.83
  -2   3   3  163.18    9.40
  -1  -2   3  141.14    5.04
  -1  -2   3  145.58   10.23
   3  -1   4  117.97    7.90
  -2   3   4  116.09   10.53
  -1  -2   4  117.89    9.71
  -1  -2   4  113.08    5.49
  -1  -2   4  114.06    9.25
  -2   3   4  121.43    8.58
   3  -1   4  116.24   10.38
  -1  -2   5 1353.39   32.65
  -2   3   5 1375.66   28.66
  -1  -2   5 1338.42   32.95
  -2   3   5 1321.34   34.46
  -1  -2   5 1364.22   20.92
   3  -1   5 1346.92   24.90
   3  -1   5 1392.89   33.63
  -1  -2   6   87.80   10.53
  -2   3   6   77.79    7.82
   3  -1   6   91.11   11.13
  -2   3   6   74.11   11.13
   3  -1   7    7.52    8.20
  -2   3   7    9.71    7.60
  -1  -2   7   13.54    6.92
  -2   3   7    5.79    5.34
   3  -1   8   84.34   12.04
  -1  -2   8   83.43   11.81
  -2   3   8  100.51   13.39
  -2   3   8   93.59    9.55
   3  -1   9  124.06   15.12
  -2   3   9   95.32   13.92
  -1  -2   9   98.56   13.47
   3  -1  10   13.39    9.48
  -2   3  10   -7.00   11.13
  -1  -2  10   19.03   10.01
   3  -1  11   21.59   13.62
  -1  -2  11    9.78   11.51
  -2   3  11    4.29   13.84
   3  -3  11   61.92   13.84
  -3   0  11   59.74   13.99
   0   3  11   53.27   15.57
   0   3  10    7.37   11.36
   3  -3  10   -0.30   11.74
   3  -3  10   10.01   10.23
   0   3  10   11.44   10.08
  -3   0  10    4.06    9.33
   3  -3   9   -4.06   10.23
  -3   0   9    5.27    8.35
   0   3   9    7.37   10.01
  -3   0   9   -2.26    9.18
   3  -3   9    4.21    8.58
   0   3   9   -2.03    8.88
   0   3   8   88.93   13.17
   3  -3   8  102.17   13.39
  -3   0   8  102.92   11.59
   3  -3   8   97.73   13.09
  -3   0   8   80.50   12.34
   0   3   8   95.70   12.71
   0   3   7  102.47   13.02
   3  -3   7   95.85   11.66
  -3   0   7  101.34   12.34
   0   3   7  109.77   12.64
  -3   0   7   98.63   10.76
   3  -3   7  115.18   12.34
   3  -3   6 1168.39   33.40
   0   3   6 1124.22   34.53
  -3   0   6 1138.07   30.09
   3  -3   6 1114.37   32.43
  -3   0   6 1137.62   33.10
   0   3   6 1145.82   34.23
   0   3   5    6.39    7.00
   3  -3   5    5.27    6.47
  -3   0   5    2.33    6.24
   3  -3   5    7.00    5.49
  -3   0   5    1.35    5.19
   0   3   5    4.44    6.77
   3  -3   4 2484.38   40.40
   0   3   4 2372.81   44.24
  -3   0   4 2590.39   43.03
  -3   0   4 2494.69   39.42
   0   3   4 2382.59   24.30
   3  -3   4 2460.08   43.79
   3  -3   3 5679.20   62.44
  -3   0   3 5761.06   56.43
   0   3   3 5850.96   65.45
   0   3   3 5804.47   36.79
   3  -3   3 5803.26   56.28
  -3   0   3 5635.12   59.28
   3  -3   2   58.31    8.28
   0   3   2   67.94    4.59
  -3   0   2   65.60    6.70
   0   3   2   71.85    8.50
   3  -3   2   55.22    5.64
   3   0  -2   55.52    3.24
  -3   0   2   54.92    6.77
  -3   0   1  537.77   16.93
   0  -3  -1  551.54   16.25
   3   0  -1  542.89   10.91
  -3   3  -1  534.69   18.13
   3  -3   1  536.19   13.09
   0   3   1  543.04   18.51
   3  -3   1  529.20   18.43
  -3   0   1  552.07   15.72
   3   0   0   57.93    4.51
  -3   3   0   56.73    5.27
   0   3   0   56.43    6.92
   0  -3   0   56.58    6.17
  -3   0   0   64.78    5.42
  -3   3   0   71.47    7.67
  -3   3   1   29.64    5.42
   0   3  -1   35.44    6.02
   0  -3   1   31.37    5.49
   3   0   1   29.94    4.36
  -3   0  -1   32.50    3.54
  -3   3   1   32.20    5.87
  -3   3   2  241.73   12.34
  -3   3   2  245.04   12.41
   0  -3   2  243.31   10.23
   0   3  -2  257.83   12.04
   3   0   2  245.49   13.24
   0  -3   2  252.64   12.49
  -3   0  -2  250.15    8.35
   3   0   2  245.49   11.36
  -3   0  -3    5.42    2.18
   0  -3   3    6.17    3.69
  -3   3   3    5.19    4.29
   0  -3   3    5.27    4.36
  -3   3   3    5.79    4.81
   3   0   3    1.20    5.12
   3   0   3    4.29    3.91
   0  -3   4   19.56    6.24
  -3   3   4   19.64    5.94
   3   0   4   20.16    6.09
  -3   3   4   20.99    7.07
   3   0   4   19.94    5.72
   0  -3   4   23.10    4.36
   0  -3   5  479.92   15.27
   3   0   5  480.67   18.73
  -3   3   5  477.96   21.74
   0  -3   5  475.86   20.61
  -3   3   5  459.30   19.03
   3   0   5  455.84   20.24
  -3   3   6  113.98   10.76
   0  -3   6   99.08   11.89
   3   0   6   97.88   10.08
   3   0   6  104.20   11.66
  -3   3   6  106.76   12.49
   0  -3   7  894.76   31.60
  -3   3   7  917.78   29.12
  -3   3   7  942.61   33.48
   3   0   7  935.24   27.69
   3   0   7  902.66   31.82
   0  -3   8   49.05   11.29
   3   0   8   42.28    9.25
  -3   3   8   43.49   10.23
  -3   3   8   41.68    7.82
  -3   3   9   66.13   10.68
  -3   3   9   50.03   10.53
   3   0   9   49.20   10.83
   0  -3   9   55.67   11.36
  -3   3  10   43.26   12.87
   3   0  10   32.65   10.98
   0  -3  10   32.43   10.31
   3   0  11   25.73   13.02
  -3   3  11   40.10   13.17
   0  -3  11   36.56   12.19
  -4   3  11   22.72   14.29
   3   1  10   30.70   12.11
  -4   3  10   30.92   12.26
   1  -4  10   39.65   14.14
   3   1   9   15.20    9.48
  -4   3   9   13.77   10.08
  -4   3   9    3.76   11.21
   1  -4   9   15.72    9.33
   3   1   8   30.17    8.65
  -4   3   8   33.55   10.53
   3   1   8   44.31   12.11
  -4   3   8   49.05    8.50
   1  -4   8   40.33   10.61
   1  -4   7  129.93   13.84
   3   1   7  149.94   14.22
  -4   3   7  141.29   12.87
  -4   3   7  129.18   15.35
   3   1   7  154.23   15.20
   1  -4   6  326.97   19.11
   3   1   6  336.90   18.88
  -4   3   6  389.04   22.34
  -4   3   6  338.25   18.51
   1  -4   6  326.97   16.55
   3   1   6  339.83   19.64
   1  -4   5   12.34    6.24
   3   1   5   17.38    6.39
  -4   3   5   17.00    6.24
   1  -4   5   22.65    5.72
   3   1   5   13.77    7.60
  -4   3   5   19.18    7.52
   1  -4   4    0.53    4.74
   1  -4   4    0.75    4.81
  -4   3   4    7.07    5.04
   3   1   4    3.31    5.42
  -4   3   4    3.01    5.79
   3   1   4    0.83    6.32
   1  -4   3  194.41   11.44
   3   1   3  188.16   14.07
  -4   3   3  171.53   12.87
  -1   4  -3  187.33   10.16
  -4   3   3  192.83   12.87
   3   1   3  181.46   11.44
   1  -4   3  182.22   11.96
   1  -4   2    7.45    4.06
   1  -4   2   15.35    5.42
   3   1   2   10.68    3.99
  -1   4  -2   13.92    4.66
   3   1   2   10.46    7.22
  -4   3   2   13.99    5.64
  -4   3   1   38.22    6.77
   1  -4   1   42.58    6.17
   3   1   1   33.86    8.13
  -3  -1  -1   31.82    3.54
  -1   4  -1   37.32    5.87
   3   1   1   38.90    4.89
  -4   3   0   67.86    8.20
  -3  -1   0   64.10    5.42
   4  -3   0   81.70    9.48
  -1   4   0   86.59    8.35
   1  -4   0   88.48    7.30
   3   1   0   78.62    5.27
  -3  -1   0   61.32    8.28
  -3  -1   1 3745.31   42.13
  -4   3  -1 3681.89   49.20
   4  -3   1 3632.98   50.41
  -1   4   1 3638.25   48.68
   1  -4  -1 3709.50   40.55
  -3  -1   1 3696.33   50.56
  -4   3  -2   25.35    6.77
  -3  -1   2   18.58    6.32
  -1   4   2   14.60    4.36
   1  -4  -2   11.81    4.36
   4  -3   2   13.92    6.85
  -1   4   2   13.69    6.55
  -3  -1   2   14.22    5.04
  -3  -1   3   69.29    8.43
   4  -3   3   95.55   10.38
  -1   4   3   80.20    6.70
  -4   3  -3   86.22    9.33
  -1   4   3   84.49   10.31
  -3  -1   3   92.16    8.95
   1  -4  -3   86.97    7.30
  -3  -1   4    2.03    5.49
   4  -3   4    3.76    7.30
  -3  -1   4    5.79    5.49
  -1   4   4    5.49    3.61
  -1   4   4   20.61    7.75
  -1   4   5 1030.63   33.55
   4  -3   5  991.21   31.60
  -3  -1   5  977.37   30.32
  -3  -1   5  975.79   29.72
  -1   4   6   20.24    9.33
  -3  -1   6   36.56    9.25
   4  -3   6   17.00    8.88
  -3  -1   6   25.96    8.20
  -1   4   7  128.05   14.97
  -3  -1   7  113.23   13.47
  -3  -1   7  117.37   12.87
   4  -3   7  114.51   14.07
  -3  -1   8   14.52    7.82
   4  -3   8   12.64    8.88
  -3  -1   8   14.75    8.65
  -1   4   8    8.95    9.40
  -1   4   9  161.75   17.30
  -3  -1   9  151.30   14.90
  -3  -1   9  175.67   16.70
   4  -3   9  170.25   17.30
   4  -3  10   17.76   13.47
  -3  -1  10   16.93   10.98
  -1   4  10    8.58   12.26
  -3  -1  10    7.75   10.91
  -1   4  11   12.71   15.20
  -3  -1  11    6.47   12.71
  -4   2  11   17.68   13.17
   2   2  10   -3.54   13.09
  -4   2  10  -16.78   12.26
   2  -4  10   -7.00   12.34
   2   2   9   19.03    9.86
   2  -4   9   21.82    9.55
   2   2   9   22.50   10.38
  -4   2   9   18.96    8.58
  -4   2   8  145.05   14.44
   2   2   8  151.97   14.97
   2  -4   8  138.96   14.52
   2   2   8  146.03   15.87
   2  -4   8  153.55   14.44
   2   2   7  243.08   18.13
   2  -4   7  241.13   17.76
   2   2   7  259.41   17.98
  -4   2   7  246.32   17.45
   2  -4   7  236.24   16.25
   2  -4   6  338.48   18.13
   2   2   6  298.38   18.73
  -4   2   6  290.63   17.68
   2  -4   6  300.33   17.83
   2   2   6  281.30   18.43
   2   2   5   10.31    6.39
  -4   2   5   21.67    6.62
   2  -4   5    7.22    6.09
   2   2   5   10.38    6.85
   2  -4   5   16.10    6.47
   2   2   4  134.37   12.79
  -4   2   4  145.13   11.74
   2  -4   4  151.37   11.74
  -4   2   4  137.90    7.90
   2   2   4  147.68   11.89
   2  -4   4  141.67   11.36
   2  -4   3  179.73   12.49
   2  -4   3  167.25   10.83
   2   2   3  163.03   13.09
  -4   2   3  163.48    7.82
  -4   2   3  162.73   11.59
   2   2   3  193.05   11.96
   2  -4   2  285.14   14.67
   2  -4   2  274.45   12.04
   2   2   2  249.78   15.57
  -2   4  -2  269.56    9.40
  -4   2   2  263.70    9.93
   2   2   2  246.84   11.89
  -4   2   2  232.17   12.56
   2   2   1  518.66   20.99
  -4   2   1  546.65   18.66
  -2   4  -1  540.56   14.82
  -4   2   1  550.56   14.37
   2   2   1  512.19   14.97
   2  -4   1  570.95   15.42
   4  -2  -1  550.11   17.23
   4  -2   0 3472.51   42.96
  -2  -2   0 3422.40   34.08
  -2   4   0 3429.63   40.55
  -4   2   0 3392.76   44.01
   2   2   0 3382.00   51.16
  -2  -2   0 3414.88   47.40
   2  -4   0 3408.86   33.55
  -4   2  -1  538.60   17.68
  -2   4   1  519.27   17.38
  -2  -2   1  550.94   16.02
  -2   4   1  497.82   17.30
  -2  -2   1  558.46   19.94
   2  -4  -1  547.10   12.26
   4  -2   1  537.17   18.06
   4  -2   2  261.74   13.77
  -2   4   2  240.60   12.04
   2  -4  -2  253.84    8.05
  -4   2  -2  275.51   12.79
  -2  -2   2  245.79   12.19
  -2   4   2  239.24   13.47
  -2  -2   2  258.66   14.14
  -2   4   3  184.17   10.91
   4  -2   3  165.21   12.04
  -4   2  -3  174.77   10.91
  -2  -2   3  170.18   11.36
  -2   4   3  170.03   12.64
   4  -2   3  151.07    8.95
  -2  -2   3  162.28   12.11
   4  -2   4  146.18   12.34
  -4   2  -4  146.18   10.46
  -2   4   4  124.81   11.96
  -2  -2   4  133.47   11.96
  -2  -2   4  139.86   11.36
  -2   4   4  147.46   10.08
   4  -2   5   16.78    6.85
  -2   4   5   14.75    5.49
  -2  -2   5    4.44    7.07
  -2  -2   5   11.74    6.92
  -2   4   5   10.68    6.92
   4  -2   6  298.45   19.26
  -2   4   6  307.11   15.12
  -2  -2   6  291.46   17.98
  -2  -2   6  297.78   18.66
  -2   4   6  318.99   19.71
  -2  -2   7  235.41   17.45
  -2  -2   7  232.77   17.76
  -2   4   7  256.02   19.71
   4  -2   7  236.76   18.21
  -2  -2   8  135.95   14.82
  -2   4   8  152.57   16.33
   4  -2   8  140.46   16.40
  -2  -2   9   16.40    8.88
   4  -2   9   15.87   10.23
  -2   4   9   17.60   10.38
   4  -2  10   -9.03   12.56
  -2   4  10    6.55   11.96
  -2  -2  10    1.28   11.06
  -2   4  11   34.83   15.05
  -2  -2  11   23.92   12.56
   1   3  10   10.38   12.79
   3  -4  10   16.18   12.94
  -4   1  10   36.34   11.81
   3  -4  10   19.41   11.89
   1   3  10   18.73   13.17
   3  -4   9  170.78   17.76
   1   3   9  155.89   17.15
  -4   1   9  164.39   15.95
   1   3   9  150.02   16.55
   3  -4   9  136.70   14.44
   3  -4   8   18.58    8.88
   3  -4   8    4.89    8.58
   1   3   8    8.80    9.48
  -4   1   8    7.22    9.10
   1   3   8    2.78    9.40
   3  -4   7  136.70   13.62
   1   3   7  116.91   13.69
   3  -4   7  125.26   13.24
  -4   1   7  132.41   13.69
   1   3   7  128.58   14.44
  -4   1   6   28.06    6.47
   1   3   6   21.97    9.40
   3  -4   6   35.89    9.63
   1   3   6   20.24    8.20
  -4   1   6   25.43    8.58
   3  -4   6   24.53    7.67
  -4   1   5 1016.41   25.88
   1   3   5  963.67   32.12
  -4   1   5  947.57   30.24
   3  -4   5  999.71   29.34
   1   3   5 1014.16   31.37
   3  -4   5  946.07   30.09
   1   3   4    7.22    7.07
  -4   1   4    1.88    5.94
   1   3   4    6.47    6.24
  -4   1   4    5.94    4.14
   3  -4   4    2.48    6.70
   3  -4   4    7.67    5.12
   3  -4   3   79.07   10.23
  -4   1   3   77.19    7.52
   3  -4   3   78.92    7.97
   1   3   3   76.59   10.08
  -4   1   3   86.22    8.88
  -4   1   2   20.69    5.72
  -4   1   2   15.05    5.04
   4  -1  -2   17.60    3.99
   3  -4   2   18.81    7.37
   1   3   2   14.90    7.45
   3  -4   2   14.29    4.06
   4  -1  -1 3803.54   38.07
  -1  -3  -1 3721.68   48.53
   3  -4   1 3696.11   36.34
  -3   4  -1 3743.13   36.19
   1   3   1 3685.57   53.79
  -4   1   1 3693.47   44.24
  -4   1   1 3709.95   45.89
   3  -4   1 3610.26   51.61
   4  -1   0   75.99    6.77
   3  -4   0   69.89    4.66
  -3   4   0   75.23    8.65
  -3   4   0   67.03    6.09
   1   3   0   96.30   10.46
  -1  -3   0   87.05    8.95
  -4   1   0   66.36    6.70
  -3   4   1   36.19    6.70
  -4   1  -1   38.82    5.12
  -1  -3   1   38.90    6.62
   4  -1   1   28.89    5.42
  -3   4   1   30.17    5.72
   1   3  -1   34.16    7.82
  -4   1  -2   14.37    3.84
  -1  -3   2   13.39    5.57
   4  -1   2   15.57    4.81
  -3   4   2   31.97    6.09
  -3   4   2   14.44    5.19
   1   3  -2   14.29    6.47
  -4   1  -3  177.03    9.86
  -3   4   3  187.78   11.66
  -3   4   3  177.63   12.87
  -1  -3   3  181.77   13.02
   4  -1   3  197.19   12.19
   4  -1   3  175.97   12.34
  -3   4   4   -3.24    4.66
  -1  -3   4    1.28    6.39
  -4   1  -4    3.24    3.46
   4  -1   4    2.71    5.34
   4  -1   4   -3.84    4.89
  -3   4   4    0.38    6.77
  -1  -3   5   16.25    7.90
   4  -1   5   10.16    5.72
  -3   4   5   10.76    5.42
  -3   4   5   12.19    7.30
   4  -1   5   17.45    5.72
  -1  -3   6  310.79   19.34
  -3   4   6  314.03   20.46
  -3   4   6  357.51   17.45
   4  -1   6  330.50   19.79
  -3   4   7  121.80   13.92
  -1  -3   7  132.49   14.44
  -3   4   7  139.79   12.64
   4  -1   7  143.32   14.60
  -1  -3   8   36.41    9.18
   4  -1   8   43.11   12.19
  -3   4   8   36.56   11.44
  -3   4   8   39.42    7.97
  -1  -3   9   11.81    9.55
   4  -1   9   27.16   10.23
  -3   4   9   19.03    9.71
   4  -1  10   43.41   13.62
  -3   4  10   31.90   13.32
  -1  -3  10   50.33   14.60
   4  -4  10   19.94   13.69
  -4   0  10   36.26   13.39
   0   4  10   47.02   14.52
   4  -4   9    5.12   11.44
   4  -4   9    5.57   10.16
  -4   0   9  -10.61    9.25
   0   4   9  -19.34   11.44
   4  -4   8   35.74   10.01
   0   4   8   16.63   10.16
  -4   0   8   19.94    9.71
  -4   0   8   32.80    8.88
   4  -4   8   29.34    9.25
   4  -4   7  187.41   16.85
  -4   0   7  185.68   14.52
   4  -4   7  169.35   15.80
   0   4   7  164.24   16.93
  -4   0   7  191.02   17.23
   4  -4   6  605.18   27.16
   4  -4   6  626.78   26.03
  -4   0   6  641.75   26.93
   0   4   6  622.41   28.44
  -4   0   6  609.10   24.07
  -4   0   5   -2.78    5.57
  -4   0   5   -0.45    5.64
   4  -4   5   10.08    8.20
   0   4   5   -2.33    8.13
   4  -4   5   10.16    5.72
   4  -4   4   31.37    8.88
   0   4   4   35.89    8.80
   4  -4   4   31.37    6.77
  -4   0   4   23.17    7.37
  -4   0   4   42.51    7.67
   4  -4   3  316.28   14.52
   0   4   3  310.57   18.21
  -4   0   3  307.11   15.72
   4  -4   3  295.67   17.45
  -4   0   3  288.15   15.35
   4  -4   2  630.01   24.07
   0   4   2  627.98   15.42
  -4   0   2  662.51   21.37
  -4   4  -2  645.96   23.55
   0   4   2  606.99   23.55
   4  -4   2  625.95   17.83
  -4   0   2  612.26   21.52
   0  -4  -2  661.08   20.84
  -4   0   1   25.81    5.42
  -4   4  -1   19.03    6.62
   0  -4  -1   14.82    5.79
  -4   0   1   25.43    6.70
   4  -4   1   22.50    7.75
   0   4   1   13.92    7.45
   0   4   0  421.24   18.51
   4  -4   0  397.09   19.11
  -4   4   0  401.00   18.28
  -4   4   0  412.73   14.90
  -4   0   0  383.84   14.22
   0  -4   0  421.84   17.00
   4   0   0  409.05   12.94
   0  -4   1  432.97   17.53
  -4   4   1  411.23   18.51
  -4   4   1  435.15   16.93
   0   4  -1  432.30   18.28
  -4   0  -1  444.56   14.14
   4   0   1  442.75   15.12
  -4   4   2   65.68    8.73
   0  -4   2   58.46    8.20
  -4   4   2   54.17    8.13
   0   4  -2   63.12    8.43
  -4   0  -2   66.81    5.19
   4   0   2   57.70    9.63
   4   0   2   63.65    7.60
   0  -4   3  134.59    8.80
   0  -4   3  127.22   11.59
   4   0   3  149.26   13.02
   0   4  -3  144.30   11.51
   4   0   3  136.70   11.06
  -4   4   3  137.53   11.44
  -4   4   3  142.57   12.41
  -4   4   4  237.06   16.33
   0   4  -4  229.24   13.62
   0  -4   4  218.48   14.75
   4   0   4  206.74   14.90
  -4   4   4  207.42   14.75
   4   0   4  229.16   15.12
  -4   4   5  778.45   29.49
   4   0   5  754.75   26.18
   0  -4   5  726.54   27.23
  -4   4   5  737.90   26.71
   4   0   5  751.82   27.16
   0  -4   6    3.69    7.00
   4   0   6   13.02    7.07
  -4   4   6   20.39    7.00
  -4   4   6   10.08    8.88
   4   0   6    9.71    6.62
   4   0   7   98.11   13.17
  -4   4   7  100.36   11.74
  -4   4   7  107.51   14.22
   0  -4   7  104.80   13.09
   0  -4   8    5.94    9.33
   4   0   8   -5.42    8.50
  -4   4   8   -8.50   10.23
  -4   4   8    8.65    9.18
   0  -4   9   70.72   13.69
   4   0   9   30.47   10.61
  -4   4   9   55.00   12.49
  -4   4   9   57.25   10.91
   4   0  10   11.36   14.60
  -4   4  10   -4.74   13.77
   0  -4  10    8.13   13.32
  -5   4  10    2.56   13.77
   4   1   9   10.16   11.59
  -5   4   9   -0.90   12.41
   1  -5   9    3.01   11.96
  -5   4   8   80.35   10.38
   1  -5   8   84.56   13.47
   4   1   8   96.30   14.60
  -5   4   7   48.45   10.23
   4   1   7   49.20   10.53
  -5   4   7   37.54   11.89
   4   1   7   45.14    9.71
   1  -5   7   40.85   10.38
  -5   4   6  140.16   15.27
   4   1   6  147.23   15.42
   1  -5   6  136.47   13.77
  -5   4   6  151.60   14.97
   4   1   6  140.01   14.52
   1  -5   5    9.33    6.77
   4   1   5    0.60    6.85
  -5   4   5    2.56    7.75
  -5   4   5    5.34    7.97
   4   1   5    2.18    7.52
  -5   4   4  610.15   25.43
   1  -5   4  632.87   21.89
   1  -5   4  628.66   24.83
   4   1   4  616.85   26.56
   4   1   4  674.85   24.75
   4   1   3  395.36   22.12
   1  -5   3  355.33   16.85
   1  -5   3  380.08   18.81
   4   1   3  383.69   17.60
  -5   4   3  370.90   20.01
   1  -5   2    9.25    5.42
   4   1   2   10.16    4.81
  -1   5  -2   10.83    5.57
   4   1   2    5.87    9.63
  -5   4   2    9.71    6.70
  -1   5  -1   37.17    7.67
  -5   4   1   32.58    7.75
   1  -5   1   41.00    6.77
   5  -4  -1   33.93    8.80
   4   1   1   39.20   10.61
   5  -4   0 1028.53   30.77
  -5   4   0 1047.86   30.55
  -1   5   0 1028.15   28.44
  -4  -1   0 1037.10   23.02
   1  -5   0  981.66   25.50
  -4  -1   0 1009.34   30.55
   1  -5  -1    3.99    4.97
  -4  -1   1    6.09    7.75
   5  -4   1    2.93    7.90
  -4  -1   1    7.75    4.51
  -1   5   1    4.81    6.77
  -5   4  -1    7.22    6.85
  -5   4  -2  228.41   15.65
  -1   5   2  230.82   12.04
   5  -4   2  229.99   16.10
  -1   5   2  223.97   15.87
  -4  -1   2  214.19   15.35
   1  -5  -2  211.78   12.41
  -4  -1   2  231.12   13.24
  -4  -1   3    6.85    7.00
  -5   4  -3   10.68    7.60
   5  -4   3   21.59    8.35
  -4  -1   3   10.98    6.17
  -1   5   3    7.60    6.77
   5  -4   4  376.70   21.37
  -4  -1   4  374.97   19.71
  -5   4  -4  394.38   20.39
  -1   5   4  394.83   22.27
  -4  -1   4  350.29   18.88
  -4  -1   5   48.60    9.40
   5  -4   5   39.72   10.61
  -1   5   5   37.17   11.06
  -4  -1   5   55.30    9.18
  -4  -1   6    7.45    7.52
   5  -4   6   -2.18    8.43
  -4  -1   6    3.54    7.22
  -1   5   6   -1.73    9.25
  -4  -1   7  179.96   17.00
  -1   5   7  162.36   17.23
  -4  -1   7  185.83   16.93
   5  -4   7  196.51   18.36
  -4  -1   8   89.15   13.17
   5  -4   8  121.05   16.18
  -4  -1   8   93.89   13.32
  -1   5   8   87.20   13.32
  -4  -1   9    7.90   11.13
   5  -4   9   -2.18   13.24
  -4  -1   9    3.39   10.98
  -1   5   9   11.21   12.49
  -5   3  10   30.39   13.77
   3   2   9  125.11   16.70
  -5   3   9  131.89   14.90
   2  -5   9  124.44   16.40
   3   2   8   83.06   13.02
   3   2   8   65.15   12.87
  -5   3   8   74.56   12.41
   2  -5   8   64.93   11.36
  -5   3   7   -0.60    8.28
   3   2   7   -2.11    8.73
   3   2   7   11.89    8.80
   2  -5   7   -2.03    8.20
   2  -5   6   60.41    9.25
  -5   3   6   53.87   10.08
   3   2   6   44.24   10.16
   2  -5   6   60.04    9.10
   3   2   6   41.53   10.16
   2  -5   5   71.92    9.33
   2  -5   5   75.61   10.76
  -5   3   5   82.53   10.38
   3   2   5   96.07   12.71
   3   2   5   83.59   10.23
   2  -5   4  560.57   22.34
   3   2   4  534.09   24.98
   2  -5   4  572.38   22.72
  -5   3   4  544.77   23.40
   3   2   4  525.29   21.67
   2  -5   3  163.33   13.32
   3   2   3  220.06   17.30
   2  -5   3  186.13   12.64
  -5   3   3  208.85   14.44
   3   2   3  208.93   13.09
   2  -5   2  731.58   24.90
   5  -3  -2  702.31   23.47
   3   2   2  669.13   27.76
   2  -5   2  731.65   21.97
   3   2   2  733.08   21.29
  -5   3   2  739.85   25.58
   5  -3  -1 3598.98   51.16
  -2   5  -1 3599.96   45.07
   3   2   1 3515.92   59.74
  -5   3   1 3575.05   53.49
  -3  -2  -1 3638.33   56.28
   2  -5   1 3574.08   44.54
   3   2   1 3618.76   42.06
  -5   3   0   15.42    6.47
   2  -5   0   19.26    4.51
  -3  -2   0   26.26    8.35
   5  -3   0   15.50    7.37
  -3  -2   0   22.87    4.66
  -2   5   0   12.34    5.72
   3   2   0   24.75   10.61
  -3  -2   1   64.63    9.55
   5  -3   1   59.81    9.25
  -5   3  -1   61.01    9.18
  -3  -2   1   70.42    7.45
  -2   5   1   56.35    8.05
  -2   5   1   48.60    8.43
   5  -3   2  519.57   21.52
  -5   3  -2  517.91   20.69
  -2   5   2  535.07   19.11
  -3  -2   2  530.40   19.11
  -2   5   2  519.34   21.52
  -3  -2   2  520.32   22.04
   5  -3   3  541.08   22.95
  -2   5   3  589.38   19.71
  -5   3  -3  574.19   21.82
  -3  -2   3  584.04   21.82
  -2   5   3  584.42   23.85
  -3  -2   3  553.57   23.47
  -2   5   4  119.17    9.25
   5  -3   4  102.47   12.19
  -3  -2   4  107.51   12.11
  -5   3  -4  113.15   11.29
  -3  -2   4  113.90   11.59
  -2   5   4  118.42   12.87
  -5   3  -5  398.89   19.03
  -3  -2   5  402.80   20.69
  -2   5   5  408.67   22.42
  -3  -2   5  406.94   21.52
   5  -3   5  371.58   21.44
  -3  -2   6   60.71   11.36
   5  -3   6   63.42   11.89
  -3  -2   6   45.89    9.71
  -2   5   6   66.66   12.19
  -3  -2   7  206.37   17.68
  -2   5   7  181.31   18.36
  -3  -2   7  206.89   17.30
   5  -3   7  214.87   18.81
  -3  -2   8   18.21    9.33
  -2   5   8   19.03   10.68
   5  -3   8   12.56    9.93
  -3  -2   8   10.46    8.88
  -3  -2   9   49.05   13.17
   5  -3   9   33.70   12.94
  -2   5   9   33.03   12.79
  -3  -2  10   43.86   13.62
   5  -3  10   24.30   13.84
  -2   5  10   41.00   13.62
  -5   2  10   36.41   13.62
   2   3  10   49.13   14.52
   3  -5  10   58.01   13.92
   2   3   9   31.22   12.19
   3  -5   9   27.54   11.74
   2   3   9   23.92   12.49
  -5   2   9   32.12   11.89
   3  -5   9   48.23   10.38
   2   3   8    8.73    9.55
   3  -5   8   11.44    9.86
  -5   2   8   25.65    9.10
   3  -5   8   -4.74    8.73
   2   3   8   15.50   10.76
   3  -5   7  197.72   16.78
   3  -5   7  213.67   17.98
   2   3   7  204.94   17.91
  -5   2   7  205.46   16.70
   2   3   7  229.24   18.96
   2   3   6   61.54   10.08
   3  -5   6   48.45   10.46
   2   3   6   66.28   12.11
   3  -5   6   53.27    9.63
  -5   2   6   56.28    9.78
   3  -5   5  384.37   20.69
   3  -5   5  380.99   19.94
   2   3   5  395.13   22.72
  -5   2   5  365.71   20.46
   2   3   5  370.68   20.61
   3  -5   4   99.46   12.11
   3  -5   4  111.65   10.83
   2   3   4  108.34   13.39
  -5   2   4  116.01   11.89
   2   3   4  116.31   15.35
   3  -5   3  572.46   20.09
   2   3   3  555.91   25.28
   3  -5   3  564.93   23.77
  -5   2   3  622.19   23.77
   2   3   3  545.52   21.07
   5  -2  -2  537.40   17.98
   3  -5   2  479.02   21.59
   3  -5   2  517.69   17.45
   2   3   2  561.40   25.05
  -5   2   2  525.36   16.93
  -5   2   2  525.44   20.99
   5  -2  -1   68.09    7.45
  -5   2   1   67.26    7.07
  -2  -3  -1   58.98    9.78
  -3   5  -1   69.44    6.47
   3  -5   1   64.17    6.09
  -5   2   1   58.16    8.65
   2   3   1   44.01   10.61
  -2  -3   0   14.52    8.43
   5  -2   0   20.76    5.79
  -3   5   0   14.90    7.52
  -3   5   0   20.84    5.49
  -5   2   0   24.83    6.55
   2   3   0   10.61    8.65
  -5   2  -1 3583.55   49.35
   5  -2   1 3583.48   49.88
  -2  -3   1 3545.11   54.77
  -3   5   1 3609.59   52.66
  -3   5   1 3659.77   50.33
   2   3  -1 3604.47   58.53
   5  -2   2  765.81   25.05
  -5   2  -2  705.85   22.04
  -3   5   2  721.72   23.85
  -3   5   2  762.57   25.20
   2   3  -2  754.45   28.06
  -2  -3   2  750.84   26.26
  -3   5   3  187.56   12.87
  -5   2  -3  196.14   12.34
   5  -2   3  205.77   12.87
   5  -2   3  180.41   13.84
  -3   5   3  207.87   14.75
  -2  -3   3  167.17   13.99
  -5   2  -4  564.26   20.01
  -3   5   4  525.59   23.92
  -2  -3   4  530.18   24.30
  -3   5   4  538.00   20.92
   5  -2   4  516.48   22.87
  -2  -3   5   72.07   11.21
  -3   5   5   84.34   11.89
  -3   5   5  100.06   10.61
   5  -2   5   77.57   10.98
  -2  -3   6   67.26   11.44
   5  -2   6   59.74   10.53
  -3   5   6   62.82    8.28
  -3   5   6   48.45   10.98
  -2  -3   7   14.90    7.97
   5  -2   7   -3.31    9.18
  -3   5   7    4.44   10.83
  -2  -3   8   73.28   12.56
   5  -2   8   63.42   12.94
  -3   5   8   58.38   13.54
   5  -2   9  138.28   18.73
  -3   5   9  127.67   17.68
  -2  -3   9  140.46   17.76
  -2  -3  10   30.77   14.22
  -3   5  10   30.92   13.54
   4  -5  10   21.89   14.52
   1   4  10    9.40   15.50
   4  -5   9   27.16   12.94
  -5   1   9  -11.89   10.91
   1   4   9    1.05   12.79
   4  -5   9    3.01   11.21
   4  -5   8  101.57   14.52
  -5   1   8  101.11   12.79
   1   4   8  100.21   15.27
   4  -5   8   91.79   13.39
   4  -5   7  183.27   17.76
  -5   1   7  203.06   17.83
   4  -5   7  200.27   16.85
   1   4   7  197.04   19.03
   4  -5   6    2.03    9.48
   1   4   6    1.13    9.93
  -5   1   6    0.15    7.15
   4  -5   6    3.84    6.92
  -5   1   5   43.41    7.45
   4  -5   5   47.70    9.86
   1   4   5   35.21   11.59
   4  -5   5   39.72    7.97
  -5   1   5   44.09    9.78
   4  -5   4  349.39   20.31
  -5   1   4  377.15   17.38
   4  -5   4  365.56   17.91
   1   4   4  382.57   22.50
  -5   1   4  370.30   19.56
  -5   1   3    6.02    5.94
  -5   1   3    9.55    5.27
   1   4   3    7.67    8.50
   4  -5   3    6.47    9.10
  -1  -4  -3   10.53    6.24
   4  -5   3    7.90    4.89
   4  -5   2  215.85   16.63
   1   4   2  217.35   16.40
  -5   1   2  221.94   14.14
  -5   1   2  223.22   13.69
  -1  -4  -2  214.42   14.67
  -5   1   1    2.56    5.12
  -1  -4  -1    5.94    5.94
  -5   1   1    2.78    5.72
   4  -5   1    7.75    8.50
   1   4   1   21.82    8.88
  -4   5  -1    6.24    7.97
   5  -1   0 1032.36   24.00
  -4   5   0 1010.17   30.47
  -4   5   0 1013.93   24.68
   1   4   0  979.10   31.37
  -1  -4   0 1021.91   29.57
  -5   1   0 1046.58   26.33
  -1  -4   1   36.41    8.20
   5  -1   1   44.16    7.30
  -5   1  -1   39.35    6.39
  -4   5   1   33.86    7.07
   1   4  -1   42.06   10.16
  -4   5   1   44.16    9.25
  -1  -4   2    1.43    6.77
   5  -1   2   12.41    5.49
  -4   5   2    9.78    6.77
  -4   5   2   11.89    6.02
  -5   1  -2   11.13    4.59
   1   4  -2   12.79    7.60
  -4   5   3  392.42   19.64
  -4   5   3  396.03   20.09
   5  -1   3  382.87   19.26
   1   4  -3  366.99   19.79
  -1  -4   3  353.90   19.56
   5  -1   3  362.63   18.36
  -1  -4   4  674.10   27.23
  -4   5   4  681.25   27.16
   5  -1   4  631.37   24.00
   1   4  -4  653.18   25.35
  -4   5   4  619.10   24.45
   5  -1   4  646.71   25.35
  -1  -4   5    7.60    6.47
   5  -1   5    8.43    7.60
  -4   5   5    8.35    6.32
  -4   5   5    6.77    7.22
  -4   5   6  137.30   12.79
  -4   5   6  156.19   16.85
  -1  -4   6  150.17   15.80
   5  -1   6  138.73   14.90
  -1  -4   7   24.60    9.33
  -4   5   7   47.32    9.33
   5  -1   7   65.68   11.74
  -4   5   7   58.01   12.79
  -1  -4   8   74.11   13.02
  -4   5   8   69.52   10.68
   5  -1   8   86.67   13.77
  -4   5   8   58.38   13.32
  -1  -4   9    5.34   11.21
   5  -1   9    5.12   12.64
  -4   5   9   -3.01   11.89
   0   5   9   21.59   13.24
   5  -5   9   31.30   14.52
  -5   0   9   21.89   13.69
   5  -5   8   73.96   13.92
  -5   0   8   86.07   13.92
   0   5   8   71.10   14.97
   5  -5   7   -5.72    9.25
  -5   0   7  -10.08    9.55
   0   5   7    1.13   10.61
   5  -5   6  100.74   15.27
   0   5   6  127.30   16.33
  -5   0   6  128.80   14.60
  -5   0   6  123.61   13.17
   5  -5   5  428.38   24.60
  -5   0   5  392.35   22.19
   0   5   5  424.85   25.20
  -5   0   5  421.69   21.29
   5  -5   4  151.07   15.42
   0   5   4  150.02   15.42
  -5   0   4  150.84   13.17
  -5   0   4  129.10   12.04
   0  -5  -4  142.19   12.26
  -5   0   3   13.99    6.17
   0  -5  -3    8.73    5.79
   5  -5   3    4.74    7.45
  -5   5  -3   13.69    7.75
   0   5   3   10.53    7.97
  -5   0   3   12.26    6.09
  -5   5  -2    3.61    7.45
  -5   0   2    7.97    6.85
   0  -5  -2    2.86    5.94
   5  -5   2    5.72    9.10
   0   5   2    7.37    7.22
  -5   0   2    0.60    5.72
  -5   0   1   29.79    5.72
  -5   5  -1   35.28    9.48
   0  -5  -1   30.92    7.75
  -5   0   1   34.68    9.25
   5  -5   1   35.59    9.25
   0   5   1   30.39    9.03
   5  -5   0  248.42   17.30
  -5   5   0  246.02   17.00
   0   5   0  237.66   16.48
  -5   0   0  229.09   12.49
   0  -5   0  236.76   15.27
  -5   0   0  241.73   16.40
   0  -5   1    7.07    7.45
  -5   5   1    6.47    7.97
  -5   5   1    7.82    6.47
   0   5  -1    6.39    6.55
  -5   5   2 2021.62   45.14
  -5   5   2 1972.57   42.28
   0   5  -2 1934.50   41.53
   5   0   2 2001.15   47.32
   0  -5   2 1970.16   42.88
   5   0   2 2006.04   37.69
  -5   5   3  642.50   26.41
   5   0   3  711.19   28.59
  -5   5   3  716.08   27.61
   0   5  -3  737.45   26.03
   0  -5   3  694.94   26.86
   5   0   3  733.46   25.05
   0  -5   4   -0.08    6.92
   5   0   4    5.64    6.85
  -5   5   4   -1.35    6.55
  -5   5   4    2.86    8.05
   5   0   4   -2.86    8.20
   0  -5   5   37.17    8.95
   5   0   5   16.25    7.75
  -5   5   5   23.70    8.05
  -5   5   5   30.02   10.61
   5   0   5   30.55    9.33
  -5   5   6  246.09   20.54
   0  -5   6  228.19   18.36
  -5   5   6  241.50   17.45
   5   0   6  231.35   17.30
   0  -5   7   10.46    8.65
  -5   5   7    5.49    8.35
   5   0   7   -4.51    9.78
  -5   5   7   -2.11   10.08
   0  -5   8   91.18   13.62
  -5   5   8  105.55   12.87
   5   0   8   95.02   13.84
  -5   5   8  101.94   16.18
   0  -5   9   10.68   11.74
   5   0   9   17.38   13.92
  -5   5   9   14.14   13.09
  -5   5   9    6.55   11.51
   1  -6   8   -6.32   12.79
  -6   5   8   12.79   12.56
   5   1   8   13.84   11.74
  -6   5   7  140.54   15.87
   1  -6   7  135.05   14.60
   5   1   7  145.35   16.33
   1  -6   6   46.27    9.86
   5   1   6   31.00    8.95
  -6   5   6   44.84    9.18
   5   1   6   39.12   10.38
   5   1   5  383.47   23.85
   1  -6   5  338.33   21.52
  -6   5   5  355.71   22.04
   5   1   5  372.18   21.89
   1  -6   4   87.42   11.96
   5   1   4  117.06   15.57
  -6   5   4  100.44   13.69
   5   1   4  125.19   12.34
   1  -6   3   80.73   10.68
  -6   5   3   69.59   10.38
   5   1   3   76.36   11.81
  -6   5   2   97.50   12.26
   1  -6   2  112.40   11.06
   6  -5  -2  120.37   14.22
   1  -6   2  101.11   10.98
   5   1   2  100.81   14.97
  -6   5   1  504.90   24.75
   6  -5  -1  489.40   24.30
  -1   6  -1  520.32   22.65
   5   1   1  486.01   26.63
   1  -6   1  515.50   21.97
  -5  -1  -1  470.14   24.53
   1  -6   0   13.24    6.47
  -6   5   0   18.81    7.97
  -5  -1   0   22.12    8.50
   6  -5   0   23.32   10.31
  -1   6   0   14.60    7.97
   6  -5   1  167.02   15.80
  -6   5  -1  172.89   15.65
  -1   6   1  184.62   14.97
  -5  -1   1  171.68   15.50
  -5  -1   2   32.50   10.08
   6  -5   2   36.86   10.38
  -5  -1   2   31.15    7.07
  -1   6   2   36.79   10.01
  -6   5  -2   44.39    9.63
  -5  -1   3   35.13    7.52
   6  -5   3   43.94   10.98
  -6   5  -3   43.71   11.06
  -5  -1   3   37.39    7.45
  -1   6   3   52.14   10.53
  -5  -1   4   40.78    9.03
   6  -5   4   55.67   12.64
  -5  -1   4   51.69    9.93
  -1   6   4   52.06   11.51
  -6   5  -4   54.09   10.46
  -5  -1   5   21.44    7.97
   6  -5   5   22.19   10.16
  -5  -1   5   15.42    7.75
  -1   6   5   20.61    9.55
  -6   5  -5   15.12    9.03
   6  -5   6  329.30   23.92
  -6   5  -6  300.41   20.84
  -1   6   6  323.81   25.35
  -5  -1   6  341.34   21.44
  -5  -1   6  296.57   21.14
  -5  -1   7   11.29   10.91
   6  -5   7   20.76   10.91
  -5  -1   7   10.83   10.76
  -1   6   7    2.63   11.89
  -6   5  -7   12.26   10.53
  -5  -1   8    1.81   12.41
   6  -5   8    2.11   12.79
  -5  -1   8   30.85   12.94
  -1   6   8   17.76   14.97
  -6   4   9    3.39   13.99
   4   2   8   -5.27   11.13
   4   2   8   10.31   13.17
   2  -6   8    5.64   10.83
  -6   4   8    2.03   11.96
   2  -6   7  103.07   14.14
  -6   4   7  110.82   13.39
   4   2   7  108.26   14.14
   4   2   7  124.29   14.97
   2  -6   6  132.56   14.44
   4   2   6  159.65   17.00
  -6   4   6  152.35   15.95
   4   2   6  139.03   14.97
   4   2   5   86.59   11.13
  -6   4   5   92.99   12.19
   2  -6   5  106.23   11.74
   4   2   5   91.18   13.39
   2  -6   4   10.46    6.55
   4   2   4   10.01    6.47
   2  -6   4    3.76    7.00
  -6   4   4    8.58    6.70
   4   2   4   18.21    8.80
   2  -6   3  300.56   17.98
   4   2   3  277.69   20.61
   2  -6   3  292.96   17.00
  -6   4   3  300.18   19.18
   6  -4  -2  370.15   19.94
   2  -6   2  348.48   19.34
   4   2   2  335.62   22.34
   2  -6   2  361.73   17.30
  -6   4   2  350.44   20.16
  -6   4   1  220.36   16.02
   6  -4  -1  246.69   17.08
   4   2   1  214.49   18.51
   2  -6   1  228.26   13.92
  -4  -2  -1  230.67   17.91
  -6   4   0   24.07    7.37
  -4  -2   0   13.32    9.10
   6  -4   0   16.25    8.50
  -2   6   0    8.05    6.24
   4   2   0   16.93   10.98
   6  -4   1  887.01   30.47
  -6   4  -1  885.73   29.87
  -2   6   1  894.16   27.84
  -2   6   1  907.10   29.49
  -4  -2   1  877.38   31.37
   6  -4   2  429.74   22.34
  -6   4  -2  446.06   21.89
  -2   6   2  422.89   18.66
  -4  -2   2  450.13   19.26
  -2   6   2  442.23   22.19
  -4  -2   2  459.98   23.25
  -4  -2   3   57.10   11.06
   6  -4   3   52.81   10.01
  -4  -2   3   41.68    8.20
  -2   6   3   48.75   10.61
  -6   4  -3   58.01   10.46
  -4  -2   4   11.51    8.20
   6  -4   4   18.06    8.20
  -6   4  -4   12.41    6.92
  -2   6   4   13.39    9.55
  -4  -2   4   14.44    7.22
   6  -4   5  177.78   16.70
  -6   4  -5  159.35   15.42
  -4  -2   5  159.42   14.75
  -2   6   5  154.08   17.30
  -4  -2   5  161.30   15.57
  -4  -2   6   72.83   11.89
   6  -4   6   79.82   12.11
  -6   4  -6   88.93   12.49
  -4  -2   6   78.77   11.74
  -2   6   6   52.29   12.56
  -4  -2   7   14.60   10.46
   6  -4   7   13.24    9.71
  -4  -2   7   20.76    9.93
  -2   6   7   15.72   10.83
  -4  -2   8   26.78   11.36
   6  -4   8   27.46   13.47
  -4  -2   8    8.95   11.13
  -2   6   8   12.11   14.07
  -4  -2   9   31.45   12.71
   3   3   9   34.31   14.60
   3   3   9   12.64   13.62
  -6   3   9   15.42   11.89
   3  -6   9   -2.93   13.77
   3   3   8  107.74   15.80
   3   3   8   83.74   15.35
  -6   3   8  112.70   15.80
   3  -6   8   87.05   14.44
   3   3   7   39.72    9.40
   3  -6   7   37.02   10.68
   3   3   7   44.61   10.46
   3  -6   7   31.97    9.40
  -6   3   7   46.34    9.48
  -6   3   6   35.51    9.03
   3   3   6   41.68    9.40
   3  -6   6   44.91   10.01
   3   3   6   35.21    9.63
   3  -6   6   40.40    9.40
   3   3   5   27.39    8.95
  -6   3   5   28.44    9.33
   3  -6   5   38.37    8.65
   3   3   5   19.94   10.31
   3  -6   5   40.63    8.88
   3  -6   4  255.87   18.13
   3  -6   4  263.47   16.18
   3   3   4  275.06   20.69
  -6   3   4  255.87   17.60
   3   3   4  262.57   16.63
   3  -6   3   42.58    7.37
   3   3   3   58.83    9.10
  -6   3   3   44.99    9.86
   3  -6   3   48.15   10.23
   3   3   3   42.73   11.44
   6  -3  -2  368.12   17.83
   3  -6   2  382.34   21.22
   3   3   2  352.70   23.10
  -3  -3  -2  400.77   21.89
  -6   3   2  392.80   19.86
   6  -3  -1  255.57   15.57
   3   3   1  262.19   20.39
  -3  -3  -1  236.24   17.83
  -6   3   1  267.08   17.00
   6  -3   0 3174.13   51.54
  -3   6   0 3003.50   54.17
  -3   6   0 3216.79   48.83
   3   3   0 3112.89   61.84
  -3  -3   0 3170.07   57.33
  -6   3   0 3098.60   53.12
  -6   3  -1  248.35   16.02
   6  -3   1  255.12   16.02
  -3   6   1  225.33   15.42
  -3   6   1  241.73   15.35
   3   3  -1  277.16   20.69
  -3  -3   1  283.78   19.34
   6  -3   2  396.63   20.46
  -6   3  -2  358.19   18.66
  -3   6   2  380.46   18.81
  -3   6   2  354.13   19.34
   3   3  -2  356.31   22.12
  -3  -3   2  347.28   20.54
  -3  -3   3   47.17    9.55
  -3   6   3   50.41    8.13
   6  -3   3   55.22   10.23
  -6   3  -3   57.55    8.58
  -3   6   3   49.50    9.25
   6  -3   4  247.45   17.91
  -3   6   4  263.24   15.72
  -6   3  -4  235.78   15.57
  -3   6   4  256.10   18.66
  -3  -3   4  249.55   18.21
  -3  -3   5   25.73    9.10
   6  -3   5   20.46    8.80
  -3   6   5   26.26    9.03
  -3  -3   6   28.89    8.80
   6  -3   6   43.71   10.83
  -3   6   6   20.92    9.55
  -3  -3   7   38.22   10.01
   6  -3   7   45.59   11.89
  -3   6   7   45.37   12.26
  -3  -3   8  103.07   15.05
   6  -3   8   81.03   14.07
  -3   6   8  108.04   15.42
  -3  -3   9    6.39   13.17
   4  -6   9   30.70   15.57
   2   4   9   12.41   15.12
   4  -6   9   28.81   13.32
   4  -6   8   24.15   12.79
   2   4   8   16.40   13.24
  -6   2   8    8.13    9.86
   4  -6   8   30.02   10.83
   4  -6   7    8.50   11.44
   2   4   7   20.24   12.34
  -6   2   7   26.48    9.33
   4  -6   7   21.52    9.03
   4  -6   6   88.78   13.17
   2   4   6   64.63   12.56
   4  -6   6   76.59   10.83
  -6   2   6   82.01   11.21
   4  -6   5  151.52   15.20
   4  -6   5  153.85   12.87
   2   4   5  139.03   17.15
  -6   2   5  155.66   14.60
  -6   2   4   15.80    7.07
   4  -6   4   11.74    8.88
   2   4   4   17.23   10.08
   4  -6   4   17.60    6.32
  -6   2   3   56.28    9.18
   4  -6   3   46.34   10.98
  -2  -4  -3   47.55    9.86
   2   4   3   50.93   10.98
   4  -6   2  450.58   23.85
   2   4   2  441.70   24.83
  -2  -4  -2  431.54   21.97
  -6   2   2  449.90   21.52
   4  -6   1  891.83   32.88
  -4   6  -1  909.88   31.60
   2   4   1  893.56   33.78
  -2  -4  -1  909.05   31.22
  -6   2   1  877.38   26.18
  -6   2   1  904.09   28.74
  -2  -4   0    6.77    7.90
   6  -2   0   18.81    6.24
  -6   2   0   16.33    6.62
  -4   6   0    8.65    8.35
   2   4   0   17.83    8.88
   6  -2   1  228.34   14.60
  -4   6   1  214.42   16.55
  -4   6   1  206.67   14.07
   2   4  -1  243.01   18.51
  -2  -4   1  231.72   17.23
  -6   2  -1  231.65   14.67
   6  -2   2  339.23   18.36
  -4   6   2  355.86   19.94
  -4   6   2  380.23   19.79
   2   4  -2  340.89   21.52
  -2  -4   2  326.14   19.64
  -6   2  -2  368.20   17.68
  -4   6   3  303.19   18.06
  -4   6   3  291.61   18.51
   2   4  -3  329.98   21.22
  -2  -4   3  329.75   20.84
   6  -2   3  314.48   18.21
  -2  -4   4    7.82    8.13
   6  -2   4   12.49    7.75
  -4   6   4   13.39    8.05
   2   4  -4    4.06    8.13
  -4   6   4   15.80    6.70
   6  -2   5   98.71   12.41
  -2  -4   5  109.32   13.69
  -4   6   5  101.49   13.62
  -4   6   5  102.39   11.51
  -4   6   6  149.42   15.50
  -2  -4   6  127.52   15.80
  -4   6   6  157.62   13.62
   6  -2   6  136.93   15.87
  -2  -4   7  125.04   16.33
  -4   6   7  129.55   16.70
   6  -2   7  120.00   15.80
  -2  -4   8    4.66   12.11
   6  -2   8    6.32   13.24
  -4   6   8    9.40   12.41
   5  -6   9   -3.46   14.67
   5  -6   8   16.18   12.49
  -6   1   8   19.41   11.29
   1   5   8   28.89   15.05
   5  -6   8    0.30   11.29
   5  -6   7   25.35   11.96
   1   5   7   -9.40   11.74
  -6   1   7   12.94   10.98
   5  -6   7    9.86   10.16
   5  -6   6  337.27   24.07
   5  -6   6  293.19   19.86
   1   5   6  297.02   23.62
  -6   1   6  303.87   20.92
   5  -6   5   29.19   10.31
   1   5   5   11.13    9.33
  -6   1   5   12.64    8.73
   5  -6   4   49.28   11.74
  -1  -5  -4   47.17    8.80
   1   5   4   51.99   13.17
  -6   1   4   44.84    9.33
  -6   1   3   38.90    8.05
  -5   6  -3   53.72   10.83
  -6   1   3   38.90    7.30
  -1  -5  -3   50.33    8.05
   5  -6   3   39.57   11.13
   1   5   3   50.63   11.51
  -6   1   2   49.28    8.58
  -6   1   2   40.02    8.43
  -1  -5  -2   33.63    7.67
   5  -6   2   51.31   12.34
  -5   6  -2   37.99   10.53
   1   5   2   40.63   10.91
   5  -6   1  180.71   17.08
  -5   6  -1  196.06   16.78
   1   5   1  157.01   15.72
  -6   1   1  197.04   13.92
  -1  -5  -1  189.59   15.05
  -6   1   1  215.09   15.05
  -5   6   0   22.57    8.95
  -6   1   0   26.11    6.39
  -1  -5   0    6.70    7.30
  -6   1   0   21.07    7.67
   5  -6   0   44.54   10.98
   1   5   0   23.32   10.01
  -5   6   1  467.66   24.07
   1   5  -1  499.78   24.83
  -1  -5   1  483.23   23.17
  -5   6   2   85.32   11.21
  -5   6   2   94.57   10.98
   1   5  -2  124.44   12.71
   6  -1   2  128.88   13.62
  -1  -5   2   99.91   12.64
   6  -1   2   91.94    9.86
  -5   6   3   90.88   11.44
   6  -1   3   74.26   10.16
  -5   6   3   83.89   10.46
  -1  -5   3   99.23   12.34
   1   5  -3   79.90   11.74
   6  -1   3   78.92   12.56
  -1  -5   4   81.48   12.49
  -5   6   4   99.53   12.71
   6  -1   4  101.34   12.11
  -5   6   4  103.22   12.26
  -5   6   5  395.66   24.38
  -1  -5   5  366.69   23.40
  -5   6   5  408.67   22.80
   6  -1   5  364.96   21.97
  -1  -5   6   44.01   10.53
   6  -1   6   56.05   11.66
  -5   6   6   39.12    9.78
  -5   6   6   44.01   11.44
  -5   6   7  152.57   18.51
  -1  -5   7  129.78   16.25
  -5   6   7  122.63   13.77
   6  -1   7  157.01   17.23
  -1  -5   8    0.98   13.09
   6  -1   8    6.62   14.07
  -5   6   8   15.57   12.94
   6  -6   7   92.46   16.48
  -6   0   7   90.66   14.44
   0   6   7  110.37   17.38
  -6   6  -6   14.60   10.31
   6  -6   6   11.29   11.59
  -6   0   6   21.37   11.13
   0   6   6   26.03   12.71
  -6   0   5   -2.93    9.48
   6  -6   5    7.52   10.83
  -6   0   5    5.12    8.65
   0   6   5   -3.91   11.13
  -6   6  -5    7.60    9.93
   6  -6   4  100.89   15.50
  -6   6  -4   83.96   12.11
  -6   0   4   94.57   11.81
  -6   0   4  116.31   12.94
   0   6   4   85.47   13.54
  -6   0   3    6.55    7.97
   6  -6   3   10.08    9.55
  -6   6  -3   -4.59    8.20
   0   6   3   -1.43    8.80
  -6   0   3   -6.55    7.82
  -6   6  -2   -1.28    8.13
   0  -6  -2    5.57    6.92
  -6   0   2    2.33    7.67
   6  -6   2    2.86   10.38
   0   6   2   -1.05    8.35
  -6   0   2    3.61    6.77
   0  -6  -1    4.97    6.70
  -6   0   1    7.30    9.03
   6  -6   1    7.97    9.48
   0   6   1    6.32    7.90
  -6   6  -1    5.57    8.80
   6  -6   0  211.93   18.43
  -6   6   0  239.70   18.96
   0   6   0  264.00   18.66
   0  -6   0  241.35   17.08
  -6   0   0  228.26   17.91
   0  -6   1   46.04    9.93
  -6   6   1   57.86   10.91
  -6   0  -1   63.42   11.29
   6  -6  -1   65.00   13.24
   0   6  -1   57.33   10.53
   6   0   1   71.02   13.62
  -6   6   2   -5.19    8.20
   0  -6   2    5.79    7.60
   0   6  -2   -2.86    7.90
   6   0   2   -0.15    9.40
  -6   6   3  408.90   23.17
   6   0   3  401.45   24.90
   0  -6   3  416.65   22.95
  -6   6   3  404.53   23.70
  -6   6   4  539.05   27.99
   6   0   4  547.18   27.84
   0  -6   4  602.32   28.06
  -6   6   4  572.08   28.29
   0  -6   5   38.75   10.23
   6   0   5   37.69    9.55
  -6   6   5   49.96   10.38
  -6   6   5   54.24   12.11
  -6   6   6  142.87   17.00
   0  -6   6  152.50   16.33
  -6   6   6  125.04   15.20
   6   0   6  142.12   16.33
   0  -6   7    9.78   11.36
   6   0   7   20.99   11.66
  -6   6   7   10.38   11.29
  -6   6   7    7.82   13.32
  -6   6   8   57.25   13.92
   6   0   8   79.22   13.54
   1  -7   6  124.06   13.99
  -7   6   6  108.34   14.82
   1  -7   5   20.84   10.23
  -7   6   5   15.35   12.04
   6   1   5   21.37   13.17
   1  -7   4   30.17   10.23
  -7   6   4   15.95   10.53
   6   1   4   28.44   12.49
   1  -7   3   75.84   10.76
   7  -6  -3   61.69   13.02
  -7   6   3   74.11   11.74
   6   1   3   51.01   13.02
  -7   6   2  220.81   19.64
   7  -6  -2  248.65   19.79
   6   1   2  243.91   22.27
   1  -7   2  253.99   18.06
  -6  -1  -2  250.98   20.31
  -7   6   1   18.36    9.55
  -6  -1  -1   11.51    9.10
   7  -6  -1   -4.66    9.33
   6   1   1    6.77   11.29
  -7   6   0  -12.56    8.80
  -6  -1   0  -13.17    8.95
   7  -6   0   -1.88   10.91
  -1   7   0   -1.58    8.95
   6   1   0    9.40   11.06
   7  -6   1  119.85   16.10
  -7   6  -1  123.53   15.05
  -6  -1   1  111.20   14.90
  -1   7   1  116.01   14.22
  -6  -1   2   62.14   12.71
   7  -6   2   79.00   13.32
  -7   6  -2   64.02   12.34
  -1   7   2   59.21   11.36
  -6  -1   3    7.67    9.48
   7  -6   3    3.46   10.01
  -1   7   3   -5.94    9.93
  -7   6  -3    0.45   10.01
  -6  -1   4   37.32   10.16
  -7   6  -4   14.60   11.36
   7  -6   4   18.58   10.16
  -6  -1   4   26.18    9.55
  -1   7   4   31.00   10.76
  -6  -1   5  111.57   14.60
   7  -6   5  115.86   16.63
  -7   6  -5   99.08   14.37
  -6  -1   5  118.19   14.22
  -1   7   5   85.92   13.77
  -6  -1   6   -9.78   12.04
   7  -6   6   11.44   13.09
  -6  -1   6    5.42   11.96
  -7   6  -6    5.87   12.79
  -1   7   6    2.56   14.97
  -7   6  -7   39.42   14.44
   5   2   8    6.09   14.07
   2  -7   7   73.43   11.89
  -7   5   7   88.10   15.42
   5   2   7   85.47   14.14
   5   2   7   73.58   15.27
   2  -7   6    1.81   11.74
  -7   5   6   10.23   12.56
   5   2   6   -6.77   13.32
   2  -7   5   14.37   10.31
  -7   5   5    6.47   10.31
   5   2   5   17.08   12.56
   5   2   4  201.10   20.09
   2  -7   4  185.60   16.63
  -7   5   4  194.03   17.15
   2  -7   3    4.66    8.05
   7  -5  -3   -0.30    8.58
  -7   5   3    5.57    8.95
   5   2   3   -0.98   10.91
   7  -5  -2  132.71   15.35
   2  -7   2  109.01   13.39
  -7   5   2  104.27   14.52
   5   2   2  115.79   16.33
  -5  -2  -2  109.39   14.44
  -5  -2  -1   21.37   10.31
   7  -5  -1   19.18    8.65
   5   2   1   21.59   12.34
  -7   5   1   14.07    7.97
  -7   5   0  214.72   17.60
   7  -5   0  222.09   17.68
  -2   7   0  233.90   17.45
   5   2   0  224.57   21.74
  -5  -2   0  219.46   18.81
  -7   5  -1   -1.81    8.43
  -5  -2   1    4.06    9.55
   7  -5   1    7.07    8.35
  -2   7   1   -5.04    8.28
   5   2  -1    3.61   11.59
  -5  -2   2    6.32    8.80
   7  -5   2    8.95    8.58
  -7   5  -2    1.58    8.65
  -2   7   2   11.44    9.40
   7  -5   3  201.48   19.18
  -7   5  -3  209.45   17.83
  -2   7   3  214.79   18.58
  -5  -2   3  228.49   19.49
   7  -5   4  398.44   25.81
  -7   5  -4  379.18   23.10
  -5  -2   4  432.30   23.40
  -2   7   4  424.17   25.96
  -5  -2   4  459.08   26.26
  -5  -2   5   11.74    9.40
  -7   5  -5   -1.50    9.63
   7  -5   5    0.90   11.51
  -5  -2   5    1.20   10.68
  -2   7   5   -7.75   11.44
  -5  -2   6   42.58   11.51
   7  -5   6   66.81   13.02
  -5  -2   6   39.57   11.36
  -2   7   6   49.43   13.69
  -5  -2   7   -3.31   12.41
   7  -5   7  -17.08   14.44
  -5  -2   7  -13.54   13.77
  -2   7   7   31.52   15.12
  -5  -2   8   25.13   14.07
   4   3   8   18.88   12.79
   4   3   8    6.24   15.42
   3  -7   8    4.66   13.24
  -7   4   7   -0.30   12.04
   4   3   7    6.02   12.94
   4   3   7    3.08   13.77
   3  -7   7   26.63   11.21
   4   3   6   73.73   13.77
  -7   4   6   90.36   13.02
   4   3   6   75.76   16.10
   3  -7   6   88.85   12.64
   3  -7   5  173.87   16.63
   3  -7   5  183.12   15.20
   4   3   5  170.63   19.18
  -7   4   5  181.92   17.76
  -7   4   4    1.88    8.43
   3  -7   4   -2.11    9.40
   4   3   4    7.30   10.76
   3  -7   3   58.83   11.44
  -7   4   3   72.60   11.74
  -4  -3  -3   81.48   13.09
   4   3   3   81.33   14.60
  -4  -3  -2   77.04   13.77
   3  -7   2   95.77   13.92
  -7   4   2   82.46   11.51
   4   3   2   66.73   15.12
   7  -4  -1  228.26   16.48
   4   3   1  189.89   20.31
  -4  -3  -1  213.44   18.51
  -7   4   1  221.49   16.93
  -3   7   0   46.12    9.78
  -4  -3   0   42.58   10.91
   7  -4   0   50.93    8.58
   4   3   0   56.05   13.24
  -7   4   0   41.30    8.13
  -4  -3   1   79.15   12.71
   7  -4   1   75.76   11.06
  -3   7   1   71.85   10.83
  -3   7   1   62.37    9.78
   4   3  -1   78.85   14.29
  -7   4  -1   75.31   11.13
   7  -4   2  443.43   23.77
  -7   4  -2  426.73   22.65
  -3   7   2  401.30   20.84
  -3   7   2  414.31   22.57
   4   3  -2  429.36   27.39
  -4  -3   2  433.80   24.98
   7  -4   3  377.00   22.87
  -7   4  -3  370.45   21.07
  -3   7   3  380.23   22.65
  -4  -3   3  381.21   24.15
  -4  -3   4    7.52    9.10
   7  -4   4    9.78    8.88
  -7   4  -4    1.20    8.65
  -3   7   4   12.19    9.40
  -4  -3   5   20.99    9.86
   7  -4   5   22.65   10.53
  -3   7   5   34.38   11.74
  -4  -3   6   64.17   13.32
   7  -4   6   87.80   12.94
  -3   7   6   89.90   13.39
  -4  -3   7   25.50   12.11
   7  -4   7   37.39   12.11
  -3   7   7    2.86   14.52
   3   4   8   16.78   16.25
   4  -7   8   14.75   12.41
   4  -7   7   10.01   13.47
   3   4   7   29.42   15.05
   4  -7   7   18.28   11.89
  -7   3   7   17.98   11.29
  -7   3   6   69.37   11.89
   4  -7   6   66.43   11.74
   3   4   6   84.71   15.20
  -7   3   5   27.61    9.86
   4  -7   5   30.70   10.68
   3   4   5   31.82   11.74
  -7   3   4    8.05    9.18
   4  -7   4   -1.20   10.01
  -3  -4  -4    6.32    9.48
   3   4   4   -3.76   11.51
   4  -7   3  372.71   23.47
   3   4   3  390.69   26.86
  -7   3   3  381.14   22.80
  -3  -4  -3  373.69   23.17
   4  -7   2  435.76   25.73
   3   4   2  422.74   26.41
  -3  -4  -2  441.85   24.90
  -7   3   2  420.03   22.95
  -4   7  -1   62.37   11.29
  -3  -4  -1   72.60   12.34
   4  -7   1   83.66   13.77
  -7   3   1   81.03   10.31
   3   4   1   95.10   15.65
  -3  -4   0   53.57   11.89
  -7   3   0   45.89    9.93
  -4   7   0   23.92    8.80
   3   4   0   63.12   13.62
   7  -3   1  193.58   15.35
  -4   7   1  198.02   16.25
   3   4  -1  197.56   19.94
  -3  -4   1  206.97   17.98
  -7   3  -1  193.05   15.72
  -3  -4   2   90.81   13.47
   7  -3   2   89.00   11.44
  -4   7   2   91.11   11.59
  -4   7   2   71.10   10.61
   3   4  -2   94.80   14.82
  -7   3  -2   78.54   10.23
  -3  -4   3   93.14   13.84
  -4   7   3   82.68   10.91
   7  -3   3   81.55   11.29
  -4   7   3   58.68   11.36
   3   4  -3   80.20   12.71
  -3  -4   4   -6.62   10.23
   7  -3   4   -0.98    9.10
  -4   7   4    3.84    9.40
   3   4  -4   18.66   10.38
  -4   7   4    3.84    8.88
  -4   7   5  170.48   16.63
   3   4  -5  178.83   18.73
  -3  -4   5  181.24   17.68
   7  -3   5  156.41   15.72
  -3  -4   6   89.08   13.24
   7  -3   6   94.04   13.77
  -4   7   6  105.55   15.35
  -3  -4   7   15.05   12.87
   7  -3   7   15.50   11.51
  -4   7   7   10.98   12.87
   5  -7   8   51.99   16.48
   5  -7   7   10.23   13.39
   2   5   7   20.54   13.62
  -7   2   7    4.74   11.51
   5  -7   6   42.28   12.34
   2   5   6   31.37   14.14
  -7   2   6   54.39   13.32
   5  -7   5    7.37   10.61
  -2  -5  -5   10.38   10.16
   2   5   5    3.39   10.91
  -7   2   5   -6.24   10.61
   5  -7   4  420.03   25.88
   2   5   4  450.50   28.59
  -7   2   4  430.64   23.92
  -2  -5  -4  398.06   23.92
   5  -7   3  195.38   19.34
  -5   7  -3  205.77   18.96
   2   5   3  236.08   21.07
  -7   2   3  212.46   16.70
  -2  -5  -3  233.08   18.66
  -7   2   2    9.18    8.20
  -2  -5  -2   13.39    8.28
   5  -7   2    4.06    9.03
  -5   7  -2    1.28    8.20
   2   5   2    9.10   10.23
  -7   2   1    7.75    8.05
  -2  -5  -1    3.61    8.65
   5  -7   1   17.15   10.08
  -5   7  -1   -3.54    8.80
   2   5   1   10.16    9.55
   5  -7   0  226.68   20.46
  -5   7   0  240.52   18.96
   2   5   0  236.24   19.34
  -2  -5   0  214.27   17.38
  -7   2   0  235.18   16.02
  -2  -5   1   23.17    9.78
  -5   7   1   11.96    7.97
   2   5  -1    9.10    9.33
  -5   7   2  120.22   13.02
   2   5  -2  124.66   15.80
  -2  -5   2  104.12   13.92
  -5   7   3    6.02    9.10
  -2  -5   3   17.53    9.18
   7  -2   3    8.58    8.28
  -5   7   3    1.58    8.80
   2   5  -3    6.09    9.48
  -5   7   4  193.80   17.45
   2   5  -4  203.96   19.11
  -2  -5   4  204.11   18.51
   7  -2   4  185.45   16.33
  -5   7   4  210.35   16.70
  -2  -5   5   13.77    9.63
   7  -2   5   14.14   10.83
  -5   7   5   10.98   10.53
  -5   7   5   17.08   11.51
  -2  -5   6    5.49   12.34
   7  -2   6   33.18   11.06
  -5   7   6    7.30   12.71
  -2  -5   7   70.64   16.63
   7  -2   7   69.74   13.62
  -5   7   7   94.04   14.44
   6  -7   6    6.09   12.64
  -6   7  -6    9.55   13.84
   1   6   6    8.43   14.44
  -7   1   6    8.88   13.17
  -6   7  -5  108.49   15.20
   6  -7   5   68.39   14.75
   1   6   5  131.81   18.21
  -7   1   5  110.59   12.64
  -6   7  -4   51.46   10.61
   6  -7   4   36.34   11.66
   1   6   4   26.71   11.81
  -7   1   4   34.53   10.01
  -1  -6  -3   -1.81    9.40
   6  -7   3   14.07   10.68
   1   6   3    2.71   10.98
  -6   7  -3    5.04   10.31
  -7   1   3    7.97    9.10
  -7   1   2   76.14   10.91
  -1  -6  -2   71.32   11.74
   6  -7   2   56.20   13.17
  -6   7  -2   57.78   12.64
   1   6   2   59.28   13.39
  -6   7  -1  145.73   17.15
  -7   1   1   96.45   13.77
   6  -7   1   96.15   15.57
   1   6   1  131.74   14.37
  -1  -6  -1  146.41   14.75
  -1  -6   0    5.94    8.58
  -7   1   0   -4.89    8.73
   6  -7   0   -1.28    9.18
  -6   7   0    4.51    9.03
   1   6   0    9.25    9.71
  -1  -6   1   14.52    9.25
  -6   7   1    3.69    8.80
  -7   1  -1    3.76    8.95
   6  -7  -1    7.67   11.21
   1   6  -1   16.25    9.33
  -6   7   2  247.67   20.31
   1   6  -2  241.80   19.11
   7  -1   2  225.93   20.99
  -1  -6   2  257.60   19.64
  -1  -6   3   70.27   12.04
   7  -1   3   52.66   11.44
  -6   7   3   61.17   10.53
  -1  -6   4   20.24   10.23
  -6   7   4   34.08   11.06
  -6   7   4   16.48    9.48
  -1  -6   5   14.52   10.98
  -6   7   5   10.61   11.21
  -6   7   5   15.20   12.11
  -1  -6   6  134.74   16.78
   7  -1   6  120.98   13.17
  -6   7   6  131.28   16.40
  -6   7   6  103.30   15.27
   7  -1   7   42.96   14.07
  -6   7   7   36.04   14.37
  -7   0   6   61.17   12.56
   7  -7   5   26.86   14.44
  -7   0   5   33.70   12.26
  -7   7  -5    9.93   13.24
   0   7   5   23.40   13.54
   7  -7   4   39.42   13.54
  -7   7  -4   40.85   12.87
  -7   0   4   25.05   11.51
   0   7   4   18.66   13.09
  -7   7  -3   31.00   12.49
  -7   0   3   28.44   11.06
   7  -7   3   49.05   12.94
   0   7   3   40.48   11.74
  -7   0   2   67.94   12.26
   7  -7   2   56.80   13.24
   0   7   2   54.54   11.66
  -7   7  -2   55.07   11.36
  -7   0   1    9.40   10.98
   7  -7   1   -1.81   11.29
  -7   7  -1   -0.53   10.83
   0   7   1  -10.61   10.91
   0  -7   0   49.65   10.68
  -7   7   0   42.36   10.08
  -7   0   0   51.69   13.09
   7  -7   0   46.04   11.21
   0   7   0   48.38   11.44
  -7   7   1  452.76   27.76
   7  -7  -1  413.79   26.93
   7   0   1  428.08   29.19
   0  -7   1  466.08   25.58
  -7   0  -1  431.54   26.56
   0  -7   2   86.52   13.02
  -7   0  -2   64.02   12.41
   7  -7  -2   84.34   15.05
   7   0   2   82.23   17.38
  -7   7   2   87.27   14.07
   0  -7   3   99.84   13.99
  -7   7   3   90.81   14.44
   7   0   3  115.11   16.48
   0  -7   4   16.10   12.49
  -7   7   4   23.25   12.79
   0  -7   5   33.03   12.34
  -7   7   5   34.01   13.77
   8  -7  -4   49.88   15.50
   7   1   4   33.40   15.57
  -7  -1  -3    5.12   13.02
   8  -7  -3   -9.48   14.97
  -8   7   3   -9.10   13.84
   7   1   3   27.84   15.57
  -7  -1  -2   28.06   13.02
   8  -7  -2   35.81   12.56
  -8   7   2   24.53   13.39
   7   1   2   36.56   14.90
  -7  -1  -1   62.67   14.82
   8  -7  -1   32.28   13.32
   7   1   1   59.81   15.27
  -8   7   1   69.44   13.84
  -8   7   0  270.54   22.87
   8  -7   0  294.84   24.00
   7   1   0  260.91   25.58
  -7  -1   0  292.36   23.10
  -8   7  -1   13.84   12.41
  -7  -1   1   35.13   12.87
   8  -7   1   16.93   12.26
   7   1  -1   45.22   14.14
  -7  -1   2   32.28   12.64
   8  -7   2   46.80   13.62
  -8   7  -2   42.43   13.77
  -1   8   2   32.73   13.62
  -7  -1   3   25.28   12.26
   8  -7   3   -2.78   15.12
  -8   7  -3   12.79   14.44
  -1   8   3    0.75   13.39
  -7  -1   4   60.11   12.64
   6   2   6  -10.83   17.15
   6   2   5  115.94   16.02
  -8   6   4    3.54   13.84
   6   2   4    3.76   14.67
  -6  -2  -3    0.08   11.74
   8  -6  -3   -8.95   12.64
  -8   6   3  -14.67   10.98
   6   2   3  -15.95   14.44
  -6  -2  -2   10.46   11.29
   8  -6  -2   27.08   11.66
  -8   6   2   13.02   11.66
   6   2   2    5.49   13.69
  -6  -2  -1   -0.68   11.74
   8  -6  -1   20.16   11.51
  -8   6   1   24.07   12.11
   6   2   1   -4.74   13.17
  -6  -2   0   48.00   12.94
   8  -6   0   44.24   11.29
   6   2   0   51.76   13.62
  -8   6   0   47.92   11.89
  -8   6  -1   15.35   11.81
  -6  -2   1   -4.21   11.66
   8  -6   1    6.62   12.04
   6   2  -1    2.33   12.34
   8  -6   2  326.44   24.00
  -8   6  -2  299.43   22.72
  -2   8   2  321.02   23.62
   6   2  -2  334.72   27.84
  -6  -2   2  300.33   22.57
   8  -6   3  163.03   18.81
  -8   6  -3  160.40   16.25
  -2   8   3  130.38   15.80
  -6  -2   3  160.85   19.94
   8  -6   4   23.77   13.92
  -8   6  -4    9.48   13.69
  -2   8   4    4.14   14.52
  -6  -2   5   25.13   12.94
  -2   8   5    9.25   13.54
  -8   6  -5   -1.05   12.64
   5   3   6  144.30   20.61
  -8   5   5   36.41   13.99
   5   3   5   38.75   16.48
  -8   5   4    9.78   10.76
  -5  -3  -4   20.01   12.19
   5   3   4   14.90   15.20
  -5  -3  -3   21.82   11.13
  -8   5   3    8.88   12.19
   5   3   3    4.81   13.47
  -5  -3  -2    3.39   10.98
   3  -8   2   10.38   11.13
  -8   5   2  -16.40   11.21
   5   3   2  -13.32   13.54
  -5  -3  -1  100.96   16.02
   8  -5  -1  115.86   14.60
  -3   8  -1  105.25   13.99
   3  -8   1  112.70   15.05
  -8   5   1   84.41   12.49
   5   3   1   98.63   18.51
  -3   8   0    8.05   10.38
  -5  -3   0   -4.06   10.38
   8  -5   0   18.13   11.06
  -8   5   0    0.08    9.25
   5   3   0   11.96   12.49
  -8   5  -1  283.11   20.39
   8  -5   1  277.92   20.24
   5   3  -1  292.96   26.33
  -5  -3   1  294.92   23.02
  -8   5  -2   64.85   11.96
  -5  -3   2   73.43   14.07
   8  -5   2   54.77   12.11
   5   3  -2   60.41   15.72
  -8   5  -3    3.69    9.71
  -5  -3   3    6.02   10.61
   8  -5   3  -10.53   12.41
  -3   8   3    4.89   11.59
   5   3  -3   15.65   14.29
  -5  -3   4   52.89   15.20
   8  -5   4   46.34   12.71
  -8   5  -4   52.29   10.83
  -3   8   4   67.03   13.39
   8  -5   5  208.47   20.31
  -3   8   5  225.70   21.07
  -5  -3   5  199.45   20.84
  -8   4   5  -10.53   13.47
   4  -8   5  -19.56   14.14
  -4  -4  -5    6.17   11.96
   4   4   5   -7.75   15.80
  -8   4   4  139.86   16.85
   4  -8   4  145.88   17.76
   4   4   4  172.36   20.92
  -4  -4  -4  147.84   16.48
  -8   4   3   69.14   13.39
  -4  -4  -3   70.80   13.92
   4  -8   3   68.69   12.87
   4   4   3   44.54   12.79
  -4  -4  -2   19.26   10.08
  -8   4   2   16.85   10.23
   4  -8   2   11.81   10.61
   4   4   2   -2.18   13.17
  -4   8  -2   22.19   11.13
  -4  -4  -1   10.68   10.23
   4  -8   1   -3.08   10.53
  -8   4   1   -1.13    9.48
  -4   8  -1    1.28    9.55
   4   4   1    5.57   12.04
  -4   8   0  118.87   15.27
  -4  -4   0  144.98   16.40
   4   4   0  155.06   20.84
  -8   4   0  139.11   15.05
  -4   8   1    6.09    9.78
  -4  -4   1   -0.83    9.40
  -8   4  -1   24.15   10.68
   4   4  -1   -9.86   12.04
  -4  -4   2   12.79   10.68
   8  -4   2  -10.61   10.38
  -4   8   2    9.71   10.01
   4   4  -2   17.15   11.89
  -8   4  -2   11.96    9.86
  -4  -4   3   58.23   12.49
   8  -4   3   56.88   11.29
  -4   8   3   64.78   11.74
   4   4  -3   54.17   13.54
   8  -4   4  132.86   16.70
   4   4  -4  184.40   22.50
  -4   8   4  139.48   15.87
  -4  -4   4  180.19   20.09
  -4  -4   5   -7.82   12.19
   8  -4   5    5.04   11.66
  -4   8   5    6.77   14.29
   4   4  -5   26.48   13.92
   4   4  -6   40.02   16.93
   5  -8   6  -10.83   15.95
  -3  -5  -6   15.72   13.62
   5  -8   5  182.44   18.88
   3   5   5  202.83   22.72
  -8   3   5  205.24   18.88
  -3  -5  -5  197.34   18.96
  -8   3   4   37.84   12.19
   5  -8   4   63.87   13.69
  -3  -5  -4   58.31   13.32
   3   5   4   32.35   13.92
  -8   3   3    5.57   10.46
  -3  -5  -3    7.37   10.31
   5  -8   3    1.50   13.09
   3   5   3   -1.50   14.44
  -5   8  -3    0.90   10.68
  -8   3   2   46.34   11.36
  -3  -5  -2   72.98   12.04
  -5   8  -2   56.50   12.87
   5  -8   2   62.29   14.07
   3   5   2   66.58   14.07
   5  -8   1  314.86   25.73
  -5   8  -1  298.83   23.17
   3   5   1  324.79   26.18
  -3  -5  -1  353.90   24.30
  -8   3   1  325.76   21.97
  -5   8   0    3.16   11.21
  -3  -5   0    5.19    9.03
  -8   3   0   21.97    9.86
   5  -8   0   28.74   10.98
   3   5   0   -1.66   11.96
  -3  -5   1   99.38   13.09
  -5   8   1  109.01   14.67
   3   5  -1   93.97   15.12
  -3  -5   2   -0.90    9.71
  -5   8   2   11.81   11.36
   3   5  -2   -8.58   11.59
  -5   8   3   14.07   11.66
  -3  -5   3   -4.51   10.53
   3   5  -3    8.43   11.81
  -3  -5   4   -1.28   11.36
   8  -3   4  -11.89   11.81
  -5   8   4    6.55   11.44
   3   5  -4  -17.68   14.14
  -3  -5   5   32.43   12.71
   8  -3   5   27.16   11.96
  -5   8   5   43.56   12.56
   8  -3   6  133.84   17.68
   6  -8   5   24.90   13.99
  -8   2   5   24.15   13.62
  -2  -6  -4   30.32   12.71
   6  -8   4   32.12   14.82
   2   6   4   18.06   15.35
  -8   2   4   35.06   11.44
  -6   8  -4   10.61   14.29
   6  -8   3  168.30   20.09
  -8   2   3  157.31   16.48
   2   6   3  143.77   20.84
  -2  -6  -3  146.48   16.48
  -6   8  -3  127.00   17.60
   6  -8   2  358.19   26.63
  -6   8  -2  314.86   24.23
   2   6   2  346.90   26.56
  -8   2   2  299.43   21.07
  -2  -6  -2  331.71   22.95
  -6   8  -1   12.19   10.61
  -2  -6  -1   -2.63   11.36
   6  -8   1   10.76   12.41
   2   6   1   10.61   12.64
  -2  -6   0   58.23   10.38
   6  -8   0   43.11   13.47
  -6   8   0   58.46   12.34
   2   6   0   65.23   13.24
  -2  -6   1   10.91    9.86
   6  -8  -1    3.69   11.66
  -6   8   1   19.71   11.36
   2   6  -1   12.64   12.34
  -6   8   2   -3.31   12.19
  -2  -6   2    5.27   11.66
   2   6  -2   23.55   13.09
  -2  -6   3   11.51   12.26
   2   6  -3    4.06   13.09
  -6   8   3   13.84   12.41
  -2  -6   4   18.58   11.89
  -6   8   4   19.18   13.09
  -6   8   5  114.96   14.44
  -6   8   5   96.15   15.65
  -8   1   4   54.77   13.32
   7  -8   3   -1.73   13.02
   1   7   3    4.51   13.99
   7  -8   2   24.15   14.22
   1   7   2   34.83   13.32
  -7   8  -2   40.18   13.24
  -1  -7  -1    8.20   11.13
   7  -8   1   -4.29   14.44
  -7   8  -1   29.72   13.84
   1   7   1   39.42   13.99
   7  -8   0  283.56   25.50
  -7   8   0  285.66   23.47
   1   7   0  265.43   21.74
  -1  -7   0  287.70   22.50
  -1  -7   1   61.17   12.04
  -7   8   1   65.45   12.49
  -8   1  -1   29.57   12.56
   7  -8  -1   56.35   15.27
   1   7  -1   66.36   14.22
   8  -1   1   40.85   14.90
  -7   8   2   44.61   14.14
  -1  -7   2   52.51   11.81
  -8   1  -2   50.93   13.24
   7  -8  -2   48.07   14.97
   8  -1   2   28.81   14.22
  -1  -7   3   24.90   13.69
  -7   8   3    1.73   14.29
  -7   8   4   37.32   14.52
   0   8   2    8.88   15.87
   0   8   1  351.12   25.35
  -8   0   1  288.52   23.77
  -8   0   0   -4.81   14.07
  -8   0  -1   30.32   14.90
   8   0   1   -9.71   16.48
   8   0   2   41.38   17.91
   9  -6   0   27.01   14.97
   9  -6   1   -4.29   14.52
  -9   6  -3   20.16   15.12
   4  -9   2   34.38   15.72
  -4   9  -2   24.53   13.39
   4  -9   1   57.10   14.75
  -9   5   1   74.56   14.22
  -4   9  -1   52.21   14.07
  -9   5   0   -2.18   12.11
  -9   5  -1    9.86   13.62
   9  -5   3   61.17   15.35
   5  -9   3   46.72   16.33
  -5   9  -2  135.65   17.45
   5  -9   2  154.98   19.79
  -9   4   2  142.19   17.00
  -9   4   1   38.44   13.32
   5  -9   1   10.91   15.72
  -5   9  -1    3.01   13.62
  -5   9   0    4.81   13.77
  -4  -5   0   -3.54   12.11
  -9   4   0   -2.63   12.94
   5  -9   0   -4.21   15.65
   4   5   0   -8.65   16.48
  -5   9   1   44.99   13.77
   4   5  -1   46.04   16.55
  -6   9   0   51.69   14.67
  -6   9   1   19.49   15.50
  -6   9   2    3.84   14.52
  -6   9   3   23.10   16.18
   3   6  -3   -8.43   16.93

_computing_structure_solution     'SHELXT 2014/4 (Sheldrick, 2014)'
;
_shelx_hkl_checksum              71487
loop_
_space_group_symop_operation_xyz
'x, y, z'
'-y, x-y, z'
'-x+y, -x, z'
'y, x, -z'
'x-y, -y, -z'
'-x, -x+y, -z'
'-x, -y, -z'
'y, -x+y, -z'
'x-y, x, -z'
'-y, -x, z'
'-x+y, y, z'
'x, x-y, z'
loop_
_atom_site_label
_atom_site_type_symbol
_atom_site_fract_x
_atom_site_fract_y
_atom_site_fract_z
_atom_site_U_iso_or_equiv
_atom_site_adp_type
_atom_site_occupancy
_atom_site_site_symmetry_order
_atom_site_calc_flag
_atom_site_refinement_flags_posn
_atom_site_refinement_flags_adp
_atom_site_refinement_flags_occupancy
_atom_site_disorder_assembly
_atom_site_disorder_group
Al1 Al 1.0000 1.0000 1.0000 0.0299(5) Uani 1 12 d S T P . .
O1 O 0.86970(15) 0.7394(3) 0.88502(18) 0.0404(5) Uani 1 2 d S T P . .
H1A H 0.9346 0.6587 0.8545 0.048 Uiso 1 1 d R U . . .
S1 S 0.3333 0.6667 0.73902(13) 0.0352(3) Uani 1 6 d S T P . .
O2 O 0.44965(15) 0.55035(15) 0.7932(2) 0.0470(5) Uani 1 2 d S T P . .
O3 O 0.3333 0.6667 0.5813(4) 0.0726(13) Uani 1 6 d S T P . .
N1 N 0.171(6) 0.085(3) 0.493(2) 0.052(5) Uani 0.3333 2 d S TU P . .
H1 H 0.3289 0.1644 0.5055 0.062 Uiso 0.3333 2 d R U P . .
C2 C 0.176(3) 0.176(3) 0.5000 0.054(6) Uani 0.5 2 d S TU P . .
H2 H 0.3006 0.2801 0.5000 0.065 Uiso 0.25 1 d R U P . .
loop_
_atom_site_aniso_label
_atom_site_aniso_U_11
_atom_site_aniso_U_22
_atom_site_aniso_U_33
_atom_site_aniso_U_23
_atom_site_aniso_U_13
_atom_site_aniso_U_12
Al1 0.0257(6) 0.0257(6) 0.0383(10) 0.000 0.000 0.0128(3)
O1 0.0306(7) 0.0357(11) 0.0565(11) -0.0134(9) -0.0067(4) 0.0179(5)
S1 0.0281(4) 0.0281(4) 0.0492(7) 0.000 0.000 0.0141(2)
O2 0.0314(7) 0.0314(7) 0.0813(13) 0.0021(5) -0.0021(5) 0.0180(8)
O3 0.086(2) 0.086(2) 0.047(2) 0.000 0.000 0.0428(10)
N1 0.030(9) 0.058(12) 0.057(8) -0.006(3) -0.011(7) 0.015(4)
C2 0.041(6) 0.041(6) 0.053(6) -0.009(4) 0.009(4) 0.001(9)
loop_
_atom_type_symbol
_atom_type_description
_atom_type_scat_dispersion_real
_atom_type_scat_dispersion_imag
_atom_type_scat_source
C C 0.0033 0.0016 'International Tables Vol C Tables 4.2.6.8 and 6.1.1.4'
H H 0.0000 0.0000 'International Tables Vol C Tables 4.2.6.8 and 6.1.1.4'
N N 0.0061 0.0033 'International Tables Vol C Tables 4.2.6.8 and 6.1.1.4'
O O 0.0106 0.0060 'International Tables Vol C Tables 4.2.6.8 and 6.1.1.4'
Al Al 0.0645 0.0514 'International Tables Vol C Tables 4.2.6.8 and 6.1.1.4'
S S 0.1246 0.1234 'International Tables Vol C Tables 4.2.6.8 and 6.1.1.4'
loop_
_geom_angle_atom_site_label_1
_geom_angle_atom_site_label_2
_geom_angle_atom_site_label_3
_geom_angle
_geom_angle_site_symmetry_1
_geom_angle_site_symmetry_3
_geom_angle_publ_flag
O1 Al1 O1 180.0 . 7_777 ?
O1 Al1 O1 88.51(7) . 9_657 ?
O1 Al1 O1 91.49(7) 7_777 9_657 ?
O1 Al1 O1 91.49(7) . 3_675 ?
O1 Al1 O1 88.51(7) 7_777 3_675 ?
O1 Al1 O1 180.0 9_657 3_675 ?
O1 Al1 O1 91.49(7) . 2_765 ?
O1 Al1 O1 88.51(7) 7_777 2_765 ?
O1 Al1 O1 88.51(8) 9_657 2_765 ?
O1 Al1 O1 91.49(7) 3_675 2_765 ?
O1 Al1 O1 88.51(7) . 8_567 ?
O1 Al1 O1 91.49(7) 7_777 8_567 ?
O1 Al1 O1 91.49(7) 9_657 8_567 ?
O1 Al1 O1 88.51(8) 3_675 8_567 ?
O1 Al1 O1 180.0 2_765 8_567 ?
Al1 O1 H1A 127.4 . . ?
O3 S1 O2 109.75(9) . 2_665 ?
O3 S1 O2 109.75(9) . 3_565 ?
O2 S1 O2 109.19(9) 2_665 3_565 ?
O3 S1 O2 109.75(9) . . ?
O2 S1 O2 109.19(9) 2_665 . ?
O2 S1 O2 109.19(9) 3_565 . ?
C2 N1 C2 167(4) . 8_556 ?
C2 N1 N1 33(5) . 9_556 ?
C2 N1 N1 150(5) 8_556 9_556 ?
C2 N1 N1 150(5) . 8_556 ?
C2 N1 N1 33(5) 8_556 8_556 ?
N1 N1 N1 118.5(10) 9_556 8_556 ?
C2 N1 C2 43(3) . 9_556 ?
C2 N1 C2 142(6) 8_556 9_556 ?
N1 N1 C2 11.2(16) 9_556 9_556 ?
N1 N1 C2 109.4(16) 8_556 9_556 ?
C2 N1 C2 142(6) . 3 ?
C2 N1 C2 43(3) 8_556 3 ?
N1 N1 C2 109.4(16) 9_556 3 ?
N1 N1 C2 11.2(16) 8_556 3 ?
C2 N1 C2 100(3) 9_556 3 ?
C2 N1 N1 123(5) . 3 ?
C2 N1 N1 63(5) 8_556 3 ?
N1 N1 N1 90.00(2) 9_556 3 ?
N1 N1 N1 30.8(5) 8_556 3 ?
C2 N1 N1 79.9(14) 9_556 3 ?
C2 N1 N1 20.0(14) 3 3 ?
C2 N1 N1 63(5) . 2 ?
C2 N1 N1 123(5) 8_556 2 ?
N1 N1 N1 30.8(5) 9_556 2 ?
N1 N1 N1 90.002(8) 8_556 2 ?
C2 N1 N1 20.0(14) 9_556 2 ?
C2 N1 N1 79.9(14) 3 2 ?
N1 N1 N1 59.999(4) 3 2 ?
C2 N1 H1 86.6 . . ?
C2 N1 H1 86.6 8_556 . ?
N1 N1 H1 118.5 9_556 . ?
N1 N1 H1 118.5 8_556 . ?
C2 N1 H1 129.3 9_556 . ?
C2 N1 H1 129.3 3 . ?
N1 N1 H1 149.3 3 . ?
N1 N1 H1 149.3 2 . ?
C2 N1 H2 38.2 . . ?
C2 N1 H2 135.4 8_556 . ?
N1 N1 H2 70.7 9_556 . ?
N1 N1 H2 165.0 8_556 . ?
C2 N1 H2 80.9 9_556 . ?
C2 N1 H2 174.5 3 . ?
N1 N1 H2 160.7 3 . ?
N1 N1 H2 100.9 2 . ?
H1 N1 H2 49.0 . . ?
N1 C2 N1 115(10) 9_556 . ?
N1 C2 C2 7(2) 9_556 9_556 ?
N1 C2 C2 117(5) . 9_556 ?
N1 C2 C2 117(5) 9_556 8_556 ?
N1 C2 C2 7(2) . 8_556 ?
C2 C2 C2 120.000(11) 9_556 8_556 ?
N1 C2 N1 19(4) 9_556 2 ?
N1 C2 N1 97(6) . 2 ?
C2 C2 N1 20.0(14) 9_556 2 ?
C2 C2 N1 100.1(14) 8_556 2 ?
N1 C2 N1 97(6) 9_556 8_556 ?
N1 C2 N1 19(4) . 8_556 ?
C2 C2 N1 100.1(14) 9_556 8_556 ?
C2 C2 N1 20.0(14) 8_556 8_556 ?
N1 C2 N1 80(3) 2 8_556 ?
N1 C2 H1 169.3 9_556 . ?
N1 C2 H1 59.8 . . ?
C2 C2 H1 175.6 9_556 . ?
C2 C2 H1 56.6 8_556 . ?
N1 C2 H1 156.7 2 . ?
N1 C2 H1 76.4 8_556 . ?
N1 C2 H2 131.2 9_556 . ?
N1 C2 H2 113.8 . . ?
C2 C2 H2 128.8 9_556 . ?
C2 C2 H2 111.2 8_556 . ?
N1 C2 H2 148.6 2 . ?
N1 C2 H2 131.1 8_556 . ?
H1 C2 H2 54.7 . . ?
loop_
_geom_bond_atom_site_label_1
_geom_bond_atom_site_label_2
_geom_bond_distance
_geom_bond_site_symmetry_2
_geom_bond_publ_flag
Al1 O1 1.8741(17) . ?
Al1 O1 1.8741(17) 7_777 ?
Al1 O1 1.8741(17) 9_657 ?
Al1 O1 1.8741(17) 3_675 ?
Al1 O1 1.8741(17) 2_765 ?
Al1 O1 1.8741(17) 8_567 ?
O1 H1A 0.9117 . ?
S1 O3 1.445(4) . ?
S1 O2 1.4702(19) 2_665 ?
S1 O2 1.4702(19) 3_565 ?
S1 O2 1.4702(19) . ?
N1 C2 0.607(12) . ?
N1 C2 0.607(12) 8_556 ?
N1 N1 1.02(4) 9_556 ?
N1 N1 1.02(4) 8_556 ?
N1 C2 1.577(10) 9_556 ?
N1 C2 1.577(10) 3 ?
N1 N1 1.76(6) 3 ?
N1 N1 1.76(6) 2 ?
N1 H1 0.9480 . ?
N1 H2 1.1819 . ?
C2 N1 0.607(12) 9_556 ?
C2 C2 1.21(2) 9_556 ?
C2 C2 1.21(2) 8_556 ?
C2 N1 1.577(11) 2 ?
C2 N1 1.577(11) 8_556 ?
C2 H1 1.0944 . ?
C2 H2 0.7982 . ?
loop_
_geom_hbond_atom_site_label_D
_geom_hbond_atom_site_label_H
_geom_hbond_atom_site_label_A
_geom_hbond_distance_DH
_geom_hbond_distance_HA
_geom_hbond_distance_DA
_geom_hbond_angle_DHA
_geom_hbond_site_symmetry_A
O1 H1A S1 0.91 2.91 3.7106(8) 147.3 1_655
O1 H1A O2 0.91 1.74 2.6400(15) 170.0 3_665
N1 H1 S1 0.95 3.01 3.64(4) 125.0 7_666
N1 H1 O3 0.95 2.16 3.03(4) 151.5 7_666
C2 H2 S1 0.80 3.21 3.700(13) 122.1 7_666
C2 H2 O3 0.80 2.47 3.074(15) 133.8 7_666
N1 H2 O3 1.18 2.66 3.658(8) 141.7 .
C2 H2 O3 0.80 2.66 3.074(15) 114.5 .
C2 H2 O3 0.80 2.47 3.074(15) 133.8 7_666
loop_
_geom_torsion_atom_site_label_1
_geom_torsion_atom_site_label_2
_geom_torsion_atom_site_label_3
_geom_torsion_atom_site_label_4
_geom_torsion
_geom_torsion_site_symmetry_1
_geom_torsion_site_symmetry_2
_geom_torsion_site_symmetry_3
_geom_torsion_site_symmetry_4
_geom_torsion_publ_flag
C2 N1 C2 N1 -111(43) 8_556 . . 9_556 ?
N1 N1 C2 N1 -22(6) 8_556 . . 9_556 ?
C2 N1 C2 N1 7(2) 9_556 . . 9_556 ?
C2 N1 C2 N1 -8(2) 3 . . 9_556 ?
N1 N1 C2 N1 -0.001(2) 3 . . 9_556 ?
N1 N1 C2 N1 7(2) 2 . . 9_556 ?
C2 N1 C2 C2 -118(42) 8_556 . . 9_556 ?
N1 N1 C2 C2 -7(2) 9_556 . . 9_556 ?
N1 N1 C2 C2 -29(8) 8_556 . . 9_556 ?
C2 N1 C2 C2 -15(5) 3 . . 9_556 ?
N1 N1 C2 C2 -7(2) 3 . . 9_556 ?
N1 N1 C2 C2 0.000(2) 2 . . 9_556 ?
N1 N1 C2 C2 111(43) 9_556 . . 8_556 ?
N1 N1 C2 C2 89(44) 8_556 . . 8_556 ?
C2 N1 C2 C2 118(41) 9_556 . . 8_556 ?
C2 N1 C2 C2 103(43) 3 . . 8_556 ?
N1 N1 C2 C2 111(43) 3 . . 8_556 ?
N1 N1 C2 C2 118(41) 2 . . 8_556 ?
C2 N1 C2 N1 -118(42) 8_556 . . 2 ?
N1 N1 C2 N1 -7(2) 9_556 . . 2 ?
N1 N1 C2 N1 -29(8) 8_556 . . 2 ?
C2 N1 C2 N1 0.000(1) 9_556 . . 2 ?
C2 N1 C2 N1 -15(5) 3 . . 2 ?
N1 N1 C2 N1 -7(2) 3 . . 2 ?
C2 N1 C2 N1 -89(44) 8_556 . . 8_556 ?
N1 N1 C2 N1 22(6) 9_556 . . 8_556 ?
C2 N1 C2 N1 29(8) 9_556 . . 8_556 ?
C2 N1 C2 N1 14(3) 3 . . 8_556 ?
N1 N1 C2 N1 22(6) 3 . . 8_556 ?
N1 N1 C2 N1 29(8) 2 . . 8_556 ?

_cod_database_fobs_code 2108792
