#------------------------------------------------------------------------------
#$Date: 2022-03-16 04:56:31 +0200 (Wed, 16 Mar 2022) $
#$Revision: 273718 $
#$URL: file:///home/coder/svn-repositories/cod/cif/2/10/89/2108931.cif $
#------------------------------------------------------------------------------
#
# This file is available in the Crystallography Open Database (COD),
# http://www.crystallography.net/. The original data for this entry
# were provided by IUCr Journals, http://journals.iucr.org/.
#
# The file may be used within the scientific community so long as
# proper attribution is given to the journal article from which the
# data were obtained.
#
data_2108931
loop_
_publ_author_name
'Hasija, Avantika'
'Som, Shubham'
'Chopra, Deepak'
_publ_section_title
;
 Investigation of crystal structures, energetics and isostructurality in
 halogen-substituted phosphoramidates
;
_journal_issue                   2
_journal_name_full               'Acta Crystallographica Section B'
_journal_page_first
;
;
_journal_paper_doi               10.1107/S2052520622000889
_journal_volume                  78
_journal_year                    2022
_chemical_formula_moiety         'C18 H15 Br N O3 P'
_chemical_formula_sum            'C18 H15 Br N O3 P'
_chemical_formula_weight         404.19
_space_group_crystal_system      triclinic
_space_group_IT_number           2
_space_group_name_Hall           '-P 1'
_space_group_name_H-M_alt        'P -1'
_atom_sites_solution_hydrogens   mixed
_atom_sites_solution_primary     dual
_audit_creation_date             2021-05-28
_audit_creation_method
;
Olex2 1.3
(compiled 2020.11.12 svn.r5f609507 for OlexSys, GUI svn.r6272)
;
_cell_angle_alpha                79.7190(10)
_cell_angle_beta                 86.2930(10)
_cell_angle_gamma                73.6770(10)
_cell_formula_units_Z            2
_cell_length_a                   8.4356(2)
_cell_length_b                   9.2086(2)
_cell_length_c                   11.2129(2)
_cell_measurement_reflns_used    7959
_cell_measurement_temperature    100.15
_cell_measurement_theta_max      30.23
_cell_measurement_theta_min      2.52
_cell_volume                     822.39(3)
_computing_cell_refinement       'Bruker SAINT'
_computing_data_collection       'Bruker APEX2'
_computing_data_reduction        'Bruker SAINT'
_computing_molecular_graphics    'Olex2 1.3 (Dolomanov et al., 2009)'
_computing_publication_material  'Olex2 1.3 (Dolomanov et al., 2009)'
_computing_structure_refinement  'SHELXL 2018/3 (Sheldrick, 2015)'
_computing_structure_solution    'SHELXS-97 (Sheldrick 2008)'
_diffrn_ambient_temperature      100.15
_diffrn_measured_fraction_theta_full 0.999
_diffrn_measured_fraction_theta_max 0.992
_diffrn_measurement_device_type  'Bruker APEX-II CCD'
_diffrn_measurement_method       '\f and \w scans'
_diffrn_radiation_type           MoK\a
_diffrn_radiation_wavelength     0.71073
_diffrn_reflns_av_R_equivalents  0.0253
_diffrn_reflns_av_unetI/netI     0.0278
_diffrn_reflns_Laue_measured_fraction_full 0.999
_diffrn_reflns_Laue_measured_fraction_max 0.992
_diffrn_reflns_limit_h_max       11
_diffrn_reflns_limit_h_min       -11
_diffrn_reflns_limit_k_max       12
_diffrn_reflns_limit_k_min       -12
_diffrn_reflns_limit_l_max       11
_diffrn_reflns_limit_l_min       -15
_diffrn_reflns_number            16599
_diffrn_reflns_point_group_measured_fraction_full 0.999
_diffrn_reflns_point_group_measured_fraction_max 0.992
_diffrn_reflns_theta_full        25.242
_diffrn_reflns_theta_max         28.699
_diffrn_reflns_theta_min         1.846
_exptl_absorpt_coefficient_mu    2.613
_exptl_absorpt_correction_T_max  0.745
_exptl_absorpt_correction_T_min  0.523
_exptl_absorpt_correction_type   multi-scan
_exptl_absorpt_process_details   SADABS-2014/2
_exptl_crystal_colour            colourless
_exptl_crystal_density_diffrn    1.632
_exptl_crystal_description       block
_exptl_crystal_F_000             408
_exptl_crystal_size_max          0.285
_exptl_crystal_size_mid          0.187
_exptl_crystal_size_min          0.12
_refine_diff_density_max         0.403
_refine_diff_density_min         -0.369
_refine_diff_density_rms         0.065
_refine_ls_extinction_method     none
_refine_ls_goodness_of_fit_ref   1.053
_refine_ls_hydrogen_treatment    constr
_refine_ls_matrix_type           full
_refine_ls_number_parameters     217
_refine_ls_number_reflns         4229
_refine_ls_number_restraints     0
_refine_ls_restrained_S_all      1.053
_refine_ls_R_factor_all          0.0292
_refine_ls_R_factor_gt           0.0252
_refine_ls_shift/su_max          0.001
_refine_ls_shift/su_mean         0.000
_refine_ls_structure_factor_coef Fsqd
_refine_ls_weighting_details
'w=1/[\s^2^(Fo^2^)+(0.0269P)^2^+0.3561P] where P=(Fo^2^+2Fc^2^)/3'
_refine_ls_weighting_scheme      calc
_refine_ls_wR_factor_gt          0.0581
_refine_ls_wR_factor_ref         0.0593
_reflns_Friedel_coverage         0.000
_reflns_number_gt                3852
_reflns_number_total             4229
_reflns_threshold_expression     'I > 2\s(I)'
_cod_data_source_file            aw5064sup1.cif
_cod_data_source_block           2Br
_cod_database_code               2108931
_shelx_shelxl_version_number     2018/3
_shelx_space_group_comment
;
The symmetry employed for this shelxl refinement is uniquely defined
by the following loop, which should always be used as a source of
symmetry information in preference to the above space-group names.
They are only intended as comments.
;
_shelx_estimated_absorpt_t_max   0.745
_shelx_estimated_absorpt_t_min   0.523
_olex2_refinement_description
;
1. Fixed Uiso
 At 1.2 times of:
  All C(H) groups, All N(H) groups
2.a Riding coordinates:
 N1(H1)
2.b Aromatic/amide H refined with riding coordinates:
 C2(H2), C3(H3), C4(H4), C5(H5), C6(H6), C9(H9), C10(H10), C11(H11), C12(H12),
 C14(H14), C15(H15), C16(H16), C17(H17), C18(H18)
;
_shelx_res_file
;
TITL 2B P -1 R = 0.03
    ahp2b_t_pl.res
    created by SHELXL-2018/3 at 20:32:36 on 28-May-2021
CELL 0.71073 8.4356 9.2086 11.2129 79.719 86.293 73.677
ZERR 2 0.0002 0.0002 0.0002 0.001 0.001 0.001
LATT 1
SFAC C H Br N O P
UNIT 36 30 2 2 6 2

L.S. 5
PLAN  5
SIZE 0.12 0.187 0.285
TEMP -173
CONF
BOND $H
fmap 2
acta
MORE -1
REM <olex2.extras>
REM <HklSrc "%.\\AHP2B_T.hkl">
REM </olex2.extras>

WGHT    0.026900    0.356100
FVAR       0.27107
BR1   3   -0.141689    0.811406    0.248844    11.00000    0.02218    0.01430 =
         0.02073   -0.00314   -0.01148   -0.00079
P1    6    0.257483    0.836501    0.485996    11.00000    0.01010    0.00961 =
         0.01067   -0.00134   -0.00169   -0.00265
O1    5    0.365706    0.716871    0.589306    11.00000    0.01265    0.01476 =
         0.01173    0.00058   -0.00226   -0.00264
O2    5    0.397488    0.805268    0.384428    11.00000    0.01253    0.01249 =
         0.01210    0.00026   -0.00035   -0.00223
O3    5    0.199242    0.994830    0.508445    11.00000    0.01460    0.01167 =
         0.01743   -0.00414   -0.00173   -0.00383
N1    4    0.105756    0.774279    0.453441    11.00000    0.00940    0.00992 =
         0.01530   -0.00380   -0.00202   -0.00194
AFIX   3
H1    2    0.005286    0.832989    0.463291    11.00000   -1.20000
AFIX   0
C1    1    0.316036    0.676296    0.708922    11.00000    0.01406    0.01461 =
         0.01178   -0.00097   -0.00352   -0.00760
C2    1    0.187071    0.769557    0.766062    11.00000    0.01713    0.01575 =
         0.01687   -0.00392   -0.00313   -0.00731
AFIX  43
H2    2    0.124090    0.865163    0.723817    11.00000   -1.20000
AFIX   0
C3    1    0.151710    0.719964    0.887055    11.00000    0.02237    0.02428 =
         0.01893   -0.00981    0.00270   -0.01174
AFIX  43
H3    2    0.063270    0.782185    0.927783    11.00000   -1.20000
AFIX   0
C4    1    0.244426    0.580568    0.948642    11.00000    0.02889    0.03055 =
         0.01361   -0.00089   -0.00272   -0.01725
AFIX  43
H4    2    0.219843    0.547778    1.031240    11.00000   -1.20000
AFIX   0
C5    1    0.372812    0.489509    0.889300    11.00000    0.02409    0.02100 =
         0.01740    0.00509   -0.00741   -0.01028
AFIX  43
H5    2    0.436445    0.394187    0.931529    11.00000   -1.20000
AFIX   0
C6    1    0.409340    0.536313    0.768628    11.00000    0.01639    0.01632 =
         0.01729   -0.00070   -0.00409   -0.00555
AFIX  43
H6    2    0.496856    0.473439    0.727623    11.00000   -1.20000
AFIX   0
C7    1    0.118461    0.635144    0.410789    11.00000    0.01142    0.01130 =
         0.01237   -0.00285    0.00139   -0.00539
C8    1    0.018296    0.630997    0.317953    11.00000    0.01176    0.01114 =
         0.01383   -0.00178   -0.00027   -0.00229
C9    1    0.026429    0.496275    0.276318    11.00000    0.01467    0.01691 =
         0.01648   -0.00570   -0.00005   -0.00754
AFIX  43
H9    2   -0.043828    0.496699    0.213295    11.00000   -1.20000
AFIX   0
C10   1    0.137651    0.360907    0.327149    11.00000    0.01480    0.01374 =
         0.02192   -0.00777    0.00360   -0.00548
AFIX  43
H10   2    0.144066    0.267819    0.299304    11.00000   -1.20000
AFIX   0
C11   1    0.239557    0.362038    0.418891    11.00000    0.01198    0.01218 =
         0.02294   -0.00329    0.00137   -0.00212
AFIX  43
H11   2    0.316382    0.269425    0.453639    11.00000   -1.20000
AFIX   0
C12   1    0.230150    0.497480    0.460329    11.00000    0.01250    0.01446 =
         0.01511   -0.00132   -0.00179   -0.00475
AFIX  43
H12   2    0.300721    0.496528    0.523315    11.00000   -1.20000
AFIX   0
C13   1    0.374839    0.909165    0.273974    11.00000    0.01088    0.01311 =
         0.01097   -0.00129    0.00183   -0.00137
C14   1    0.446800    1.029060    0.259573    11.00000    0.01303    0.01647 =
         0.01471   -0.00504   -0.00006   -0.00446
AFIX  43
H14   2    0.509470    1.041320    0.322628    11.00000   -1.20000
AFIX   0
C15   1    0.425172    1.131243    0.150521    11.00000    0.01971    0.01540 =
         0.01749   -0.00354    0.00189   -0.00798
AFIX  43
H15   2    0.473587    1.214355    0.138547    11.00000   -1.20000
AFIX   0
C16   1    0.333160    1.112228    0.059182    11.00000    0.02215    0.01818 =
         0.01448    0.00098   -0.00101   -0.00668
AFIX  43
H16   2    0.316969    1.183460   -0.014513    11.00000   -1.20000
AFIX   0
C17   1    0.264803    0.989533    0.075210    11.00000    0.02036    0.02461 =
         0.01490   -0.00342   -0.00314   -0.00999
AFIX  43
H17   2    0.203368    0.976110    0.011911    11.00000   -1.20000
AFIX   0
C18   1    0.285703    0.886002    0.183474    11.00000    0.01699    0.01698 =
         0.01742   -0.00283    0.00061   -0.00847
AFIX  43
H18   2    0.239740    0.801333    0.194903    11.00000   -1.20000
AFIX   0
HKLF 4




REM  2B P -1 R = 0.03
REM wR2 = 0.0593, GooF = S = 1.053, Restrained GooF = 1.053 for all data
REM R1 = 0.0252 for 3852 Fo > 4sig(Fo) and 0.0292 for all 4229 data
REM 217 parameters refined using 0 restraints

END

WGHT      0.0267      0.3591

REM Highest difference peak  0.403,  deepest hole -0.369,  1-sigma level  0.065
Q1    1   0.1767  0.7954  0.4762  11.00000  0.05    0.40
Q2    1   0.3745  0.6187  0.7498  11.00000  0.05    0.36
Q3    1   0.4216  0.9586  0.2581  11.00000  0.05    0.35
Q4    1   0.3198  0.8331  0.4261  11.00000  0.05    0.34
Q5    1   0.3973  0.5247  0.8313  11.00000  0.05    0.32
;
_shelx_res_checksum              46543
_shelx_hkl_file
;
  -1   0   0   46.38    1.14
  -1   0   0   45.92    1.11
  -1   0   0   47.27    1.13
   1   0   0   45.33    1.13
   1   0   0   44.76    1.11
   1   0   0   46.36    1.12
  -2   0   0  391.21    8.45
  -2   0   0  381.12    8.43
  -2   0   0  381.42    8.40
  -2   0   0  397.07    8.46
  -2   0   0  361.27    8.94
   2   0   0  390.26    8.41
   2   0   0  404.46    8.48
   2   0   0  398.15    8.41
   2   0   0  397.55    8.46
  -3   0   0   91.08    2.35
  -3   0   0   85.55    2.88
  -3   0   0   89.64    2.35
  -3   0   0   89.47    2.30
   3   0   0   92.89    2.39
   3   0   0   88.24    2.29
   3   0   0   89.23    2.30
   3   0   0   92.48    2.37
  -4   0   0  131.24    3.33
  -4   0   0  125.66    4.06
  -4   0   0  129.59    3.11
  -4   0   0  128.40    3.27
  -4   0   0  125.97    3.33
   4   0   0  127.75    3.25
   4   0   0  128.51    3.33
   4   0   0  130.08    3.38
   4   0   0  130.17    3.26
  -5   0   0    5.80    0.51
  -5   0   0    4.90    0.58
  -5   0   0    6.07    0.59
  -5   0   0    7.01    1.06
   5   0   0    5.86    0.64
   5   0   0    5.80    0.58
   5   0   0    5.25    0.56
   5   0   0    5.48    0.61
  -6   0   0    0.10    0.26
  -6   0   0    0.47    0.45
  -6   0   0    0.99    0.29
  -6   0   0    0.64    0.35
   6   0   0    0.43    0.31
   6   0   0    0.58    0.37
   6   0   0    0.38    0.34
   6   0   0    0.14    0.25
  -7   0   0   97.11    4.05
  -7   0   0   99.06    3.17
   7   0   0   99.51    3.19
   7   0   0  100.39    3.06
   7   0   0   98.79    3.22
  -8   0   0  104.43    4.53
  -8   0   0  106.45    3.53
   8   0   0  111.36    3.60
   8   0   0  102.36    4.49
   8   0   0  113.37    3.66
   8   0   0  107.36    3.39
  -9   0   0   -0.04    0.64
   9   0   0    0.43    0.72
 -10   0   0   27.80    2.95
  10   0   0   25.17    2.73
  10  -1   0    7.23    1.64
 -10   1   0    4.11    1.35
   9  -1   0    0.75    0.62
  -9   1   0    0.31    0.79
   8  -1   0    4.21    0.78
   8  -1   0    4.72    0.86
  -8   1   0    3.98    1.13
  -8   1   0    3.58    0.77
   7  -1   0   56.54    2.29
   7  -1   0   50.70    2.17
  -7   1   0   48.12    2.13
  -7   1   0   46.03    2.81
   6  -1   0   57.03    2.15
   6  -1   0   55.40    2.19
   6  -1   0   53.50    1.87
  -6   1   0   57.20    2.12
  -6   1   0   54.77    2.86
  -6   1   0   55.59    2.14
   5  -1   0  135.43    3.91
   5  -1   0  143.47    3.55
   5  -1   0  138.02    3.55
   5  -1   0  136.16    3.52
   5  -1   0  140.04    3.83
  -5   1   0  137.67    3.79
  -5   1   0  142.81    3.55
  -5   1   0  145.13    3.42
  -5   1   0  136.73    3.85
  -5   1   0  131.79    4.68
   4  -1   0   82.94    2.45
   4  -1   0   82.85    2.22
   4  -1   0   87.12    2.54
   4  -1   0   81.59    2.19
   4  -1   0   82.00    2.20
  -4   1   0   83.20    2.21
  -4   1   0   80.68    2.46
  -4   1   0   85.18    2.12
  -4   1   0   86.09    2.44
  -4   1   0   73.87    3.01
   3  -1   0    3.79    0.30
   3  -1   0    3.45    0.42
   3  -1   0    3.08    0.29
   3  -1   0    2.80    0.30
   3  -1   0    3.05    0.41
  -3   1   0    2.81    0.37
  -3   1   0    3.53    0.43
  -3   1   0    3.58    0.62
  -3   1   0    3.07    0.30
   2  -1   0   54.01    1.34
   2  -1   0   55.60    1.56
   2  -1   0   54.40    1.37
   2  -1   0   55.57    1.35
   2  -1   0   55.98    1.61
  -2   1   0   56.20    1.35
  -2   1   0   52.22    1.56
  -2   1   0   51.77    1.80
  -2   1   0   57.20    1.56
   1  -1   0  173.53    3.82
   1  -1   0  164.71    3.57
   1  -1   0  171.59    3.55
   1  -1   0  166.55    3.55
   1  -1   0  169.11    3.78
  -1   1   0  166.99    3.75
  -1   1   0  167.91    3.57
  -1   1   0  164.48    3.55
  -1   1   0  163.92    3.60
  -1   1   0  169.89    3.78
  -1   1   0  157.68    3.78
  -1   1   0  167.47    3.55
   0  -1   0   47.13    1.13
   0  -1   0   49.12    1.09
   0   1   0   48.60    1.13
   0   1   0   43.86    1.11
   0   1   0   48.29    1.13
  -1  -1   0    5.21    0.20
  -1  -1   0    6.20    0.30
   1   1   0    6.49    0.22
   1   1   0    6.04    0.29
  -2  -1   0  481.16   10.48
  -2  -1   0  456.22   10.15
   2   1   0  482.43   10.14
   2   1   0  469.00   10.00
   2   1   0  463.94   10.15
   2   1   0  459.61   10.43
  -3  -1   0  156.64    3.58
  -3  -1   0  155.03    3.63
  -3  -1   0  153.47    3.74
  -3  -1   0  151.21    4.19
   3   1   0  154.05    3.72
   3   1   0  160.19    3.61
   3   1   0  149.78    3.72
   3   1   0  153.95    4.18
   3   1   0  155.76    3.62
  -4  -1   0   19.30    0.91
  -4  -1   0   20.63    0.83
  -4  -1   0   18.82    1.24
  -4  -1   0   19.80    0.82
   4   1   0   18.03    0.88
   4   1   0   20.52    0.92
   4   1   0   20.93    0.86
   4   1   0   19.76    1.25
   4   1   0   19.88    0.85
  -5  -1   0   43.59    1.53
  -5  -1   0   48.38    1.69
  -5  -1   0   48.33    1.52
  -5  -1   0   45.73    2.21
   5   1   0   39.34    2.06
   5   1   0   46.14    1.63
   5   1   0   48.42    1.60
   5   1   0   44.25    1.57
  -6  -1   0   65.13    2.97
  -6  -1   0   66.64    2.16
  -6  -1   0   69.54    2.29
  -6  -1   0   63.57    2.03
   6   1   0   68.76    2.21
   6   1   0   67.29    2.27
   6   1   0   67.58    2.26
   6   1   0   66.36    2.20
   6   1   0   61.47    2.87
  -7  -1   0    0.60    0.33
  -7  -1   0    1.27    0.69
  -7  -1   0    0.52    0.39
  -7  -1   0    0.48    0.37
   7   1   0    0.58    0.40
   7   1   0    0.79    0.39
   7   1   0    0.73    0.64
   7   1   0    1.24    0.43
   7   1   0    1.11    0.42
  -8  -1   0   10.47    1.59
   8   1   0   11.55    1.08
   8   1   0   10.70    1.05
   8   1   0   10.21    1.54
  -9  -1   0   27.18    2.68
   9   1   0   25.52    2.56
   9   1   0   28.36    1.65
   9   1   0   24.83    1.57
 -10  -1   0   38.49    2.95
  10   1   0   32.80    3.11
 -11  -1   0   19.74    2.69
  11   1   0   19.93    2.55
  10  -2   0   50.65    2.85
 -10   2   0   54.30    3.63
   9  -2   0    7.26    1.24
  -9   2   0    7.35    1.67
   8  -2   0    9.33    1.26
  -8   2   0    8.26    1.14
  -8   2   0   10.12    1.78
   7  -2   0    1.78    0.59
   7  -2   0    1.89    0.63
  -7   2   0    1.51    0.60
  -7   2   0    2.16    0.92
  -7   2   0    2.71    0.74
   6  -2   0   77.41    2.80
   6  -2   0   79.74    2.74
  -6   2   0   76.89    2.68
  -6   2   0   74.17    2.72
  -6   2   0   68.71    3.40
   5  -2   0   19.80    1.15
   5  -2   0   21.04    1.25
   5  -2   0   19.54    0.89
  -5   2   0   22.71    1.18
  -5   2   0   17.99    1.14
  -5   2   0   20.05    1.61
   4  -2   0  125.29    3.48
   4  -2   0  126.17    2.98
   4  -2   0  125.96    3.56
   4  -2   0  120.51    3.03
   4  -2   0  123.53    2.98
  -4   2   0  122.25    3.49
  -4   2   0  125.05    3.42
  -4   2   0  125.03    4.12
  -4   2   0  125.35    2.98
   3  -2   0  359.26    7.75
   3  -2   0  356.51    7.81
   3  -2   0  367.41    7.76
   3  -2   0  355.08    8.25
   3  -2   0  361.17    8.35
  -3   2   0  359.72    7.76
  -3   2   0  364.76    8.23
  -3   2   0  356.61    8.78
  -3   2   0  360.45    8.32
   2  -2   0  116.09    2.60
   2  -2   0  123.88    3.14
   2  -2   0  122.62    2.63
   2  -2   0  114.99    2.64
   2  -2   0  117.03    3.04
  -2   2   0  115.08    3.31
  -2   2   0  118.62    2.60
  -2   2   0  118.97    3.09
  -2   2   0  122.22    2.64
  -2   2   0  122.74    3.04
   1  -2   0   65.19    1.78
   1  -2   0   61.49    1.39
   1  -2   0   62.66    1.70
  -1   2   0   62.95    1.92
  -1   2   0   62.12    1.69
  -1   2   0   63.31    1.54
  -1   2   0   64.61    1.76
  -1   2   0   61.28    1.40
   0  -2   0  111.54    2.61
   0  -2   0  113.40    2.54
   0  -2   0  114.50    2.65
   0  -2   0  109.99    2.60
   0  -2   0  113.04    2.63
   0   2   0  111.49    2.59
   0   2   0  109.52    2.61
   0   2   0  112.44    2.64
   0   2   0  112.61    2.61
  -1  -2   0  200.60    4.46
  -1  -2   0  195.43    4.51
  -1  -2   0  207.40    4.38
   1   2   0  195.38    4.35
   1   2   0  202.72    4.45
   1   2   0  201.62    4.52
   1   2   0  200.46    4.42
  -2  -2   0   20.43    0.81
  -2  -2   0   20.04    0.92
  -2  -2   0   21.23    0.61
  -2  -2   0   21.99    0.79
   2   2   0   20.54    0.63
   2   2   0   21.56    0.94
   2   2   0   19.40    0.75
   2   2   0   20.65    0.80
  -3  -2   0    9.67    0.71
  -3  -2   0    9.75    0.53
  -3  -2   0    8.59    0.56
  -3  -2   0    6.51    0.37
   3   2   0   10.19    0.57
   3   2   0    8.81    0.42
   3   2   0    8.60    0.68
   3   2   0    8.93    0.56
  -4  -2   0  357.78    8.34
  -4  -2   0  360.83    8.18
  -4  -2   0  357.33    8.87
   4   2   0  362.58    8.03
   4   2   0  374.26    7.96
   4   2   0  357.86    8.86
   4   2   0  366.94    8.28
  -5  -2   0  308.27    7.09
  -5  -2   0  296.39    8.00
  -5  -2   0  299.11    7.27
   5   2   0  303.49    6.97
   5   2   0  317.69    6.94
   5   2   0  301.71    7.20
   5   2   0  297.91    7.97
  -6  -2   0    0.00    0.29
  -6  -2   0   -0.02    0.31
  -6  -2   0    0.15    0.27
   6   2   0    0.27    0.23
   6   2   0   -0.11    0.20
   6   2   0    0.35    0.38
   6   2   0    0.24    0.29
  -7  -2   0  154.12    4.39
  -7  -2   0  152.75    4.09
  -7  -2   0  147.12    5.26
   7   2   0  136.39    5.10
   7   2   0  156.57    4.41
   7   2   0  158.14    4.37
   7   2   0  151.06    4.10
  -8  -2   0   38.73    2.54
  -8  -2   0   39.60    1.92
   8   2   0   39.00    1.90
   8   2   0   37.69    1.84
   8   2   0   36.33    1.68
   8   2   0   36.79    2.46
  -9  -2   0    0.05    0.67
   9   2   0    0.29    0.64
   9   2   0    0.64    0.51
 -10  -2   0    7.12    1.51
  10   2   0    4.97    0.94
 -11  -2   0    5.42    1.56
  11   2   0    5.57    1.46
   9  -3   0    0.25    0.72
  -9   3   0    0.67    0.94
   8  -3   0   71.99    3.25
  -8   3   0   82.81    4.34
  -8   3   0   82.74    3.32
  -8   3   0   77.34    3.16
   7  -3   0   32.87    1.85
   7  -3   0   29.83    1.90
  -7   3   0   27.52    2.72
  -7   3   0   30.81    1.88
  -7   3   0   31.27    1.76
   6  -3   0   13.05    1.30
   6  -3   0   14.78    1.28
  -6   3   0   14.24    1.26
  -6   3   0   13.60    1.89
  -6   3   0   12.37    1.23
   5  -3   0    1.95    0.56
   5  -3   0    2.43    0.57
  -5   3   0    2.01    0.55
  -5   3   0    1.89    0.66
  -5   3   0    4.00    0.71
   4  -3   0   38.01    1.62
   4  -3   0   38.24    1.69
  -4   3   0   39.32    1.68
  -4   3   0   37.39    1.99
  -4   3   0   37.28    1.58
   3  -3   0   43.89    1.74
   3  -3   0   47.26    1.19
   3  -3   0   48.52    1.71
  -3   3   0   46.30    1.65
  -3   3   0   42.62    1.70
  -3   3   0   44.76    1.97
   2  -3   0    4.23    0.53
   2  -3   0    4.78    0.51
  -2   3   0    4.32    0.36
  -2   3   0    4.95    0.50
  -2   3   0    3.29    0.54
  -2   3   0    4.92    0.30
  -2   3   0    4.09    0.49
   1  -3   0   18.21    0.72
   1  -3   0   16.39    0.49
   1  -3   0   16.96    0.81
   1  -3   0   16.86    0.76
  -1   3   0   16.76    0.52
  -1   3   0   15.58    0.91
  -1   3   0   16.45    0.78
  -1   3   0   15.76    0.73
  -1   3   0   16.56    0.64
   0  -3   0  364.28    8.00
   0  -3   0  369.75    8.18
   0  -3   0  368.03    8.12
   0  -3   0  364.80    8.15
   0  -3   0  378.94    8.10
   0   3   0  373.60    8.17
   0   3   0  378.24    8.10
   0   3   0  361.15    8.00
   0   3   0  370.92    8.52
   0   3   0  370.89    8.13
   0   3   0  364.84    7.88
  -1  -3   0    5.90    0.40
  -1  -3   0    6.33    0.41
  -1  -3   0    4.52    0.30
  -1  -3   0    5.77    0.39
   1   3   0    5.71    0.35
   1   3   0    6.17    0.36
   1   3   0    5.22    0.38
   1   3   0    5.84    0.38
   1   3   0    6.20    0.52
  -2  -3   0   56.82    1.69
  -2  -3   0   55.96    1.42
  -2  -3   0   55.35    1.64
  -2  -3   0   55.89    1.54
   2   3   0   55.73    1.60
   2   3   0   55.60    1.54
   2   3   0   58.01    1.90
   2   3   0   55.43    1.41
   2   3   0   55.62    1.46
   2   3   0   54.94    1.67
  -3  -3   0    1.83    0.36
  -3  -3   0    1.32    0.35
  -3  -3   0    1.71    0.32
  -3  -3   0    1.64    0.20
   3   3   0    1.50    0.29
   3   3   0    1.24    0.35
   3   3   0    1.22    0.29
   3   3   0    1.48    0.21
  -4  -3   0   64.08    2.43
  -4  -3   0   66.24    2.02
  -4  -3   0   61.80    2.10
   4   3   0   66.26    1.78
   4   3   0   67.35    2.06
   4   3   0   66.78    2.45
  -5  -3   0    0.11    0.26
  -5  -3   0   -0.08    0.25
  -5  -3   0    0.24    0.30
   5   3   0    0.17    0.15
   5   3   0    0.16    0.17
   5   3   0    0.09    0.24
   5   3   0    0.28    0.30
  -6  -3   0    1.15    0.54
  -6  -3   0    1.39    0.39
  -6  -3   0    1.43    0.44
   6   3   0    1.17    0.42
   6   3   0    1.34    0.33
   6   3   0    1.77    0.64
  -7  -3   0   74.31    3.40
  -7  -3   0   76.05    2.79
  -7  -3   0   85.03    2.65
   7   3   0   81.26    2.77
   7   3   0   79.90    2.45
   7   3   0   72.37    3.35
  -8  -3   0   11.24    1.05
  -8  -3   0   12.91    1.69
   8   3   0   10.01    1.49
   8   3   0   12.72    1.21
  -9  -3   0   43.27    2.85
   9   3   0   38.64    2.07
   9   3   0   44.00    2.86
 -10  -3   0   17.16    2.28
  10   3   0   18.10    1.63
  10   3   0   15.89    2.16
 -11  -3   0   10.01    1.91
  11   3   0   11.04    1.92
   9  -4   0   13.19    1.73
  -9   4   0   13.50    2.26
   8  -4   0   21.72    2.04
  -8   4   0   26.59    2.98
  -8   4   0   26.42    2.20
   7  -4   0   38.17    2.24
  -7   4   0   33.46    2.10
  -7   4   0   37.68    2.08
  -7   4   0   37.15    2.81
   6  -4   0   37.79    2.12
   6  -4   0   44.63    2.09
  -6   4   0   40.90    2.12
  -6   4   0   40.55    1.96
  -6   4   0   35.14    2.50
   5  -4   0  295.39    7.77
   5  -4   0  297.92    7.55
  -5   4   0  291.90    7.43
  -5   4   0  290.08    8.45
  -5   4   0  291.88    7.64
   4  -4   0    0.39    0.39
   4  -4   0    0.48    0.37
  -4   4   0    0.77    0.40
  -4   4   0    0.74    0.42
  -4   4   0    1.26    0.55
   3  -4   0  100.27    3.19
   3  -4   0   99.19    3.05
  -3   4   0  102.37    3.03
  -3   4   0  103.53    2.34
  -3   4   0  104.49    2.40
  -3   4   0  110.62    3.60
  -3   4   0  101.38    3.16
   2  -4   0   91.07    2.70
   2  -4   0   91.46    2.79
   2  -4   0   91.65    2.52
  -2   4   0   95.16    2.79
  -2   4   0   88.62    2.28
  -2   4   0   92.08    3.08
  -2   4   0   91.53    2.64
  -2   4   0   89.91    2.35
   1  -4   0   30.91    1.14
   1  -4   0   29.08    1.01
   1  -4   0   29.47    0.84
   1  -4   0   29.82    1.25
   1  -4   0   30.65    1.18
  -1   4   0   31.93    1.25
  -1   4   0   30.25    0.88
  -1   4   0   28.93    1.02
  -1   4   0   29.22    1.15
  -1   4   0   30.84    1.46
   0  -4   0   14.50    0.66
   0  -4   0   12.72    0.69
   0  -4   0   13.16    0.67
   0  -4   0   12.88    0.57
   0   4   0   12.14    0.56
   0   4   0   12.93    0.88
   0   4   0   13.18    0.48
   0   4   0   13.13    0.66
   0   4   0   14.24    0.70
   0   4   0   13.35    0.65
  -1  -4   0   36.13    1.26
  -1  -4   0   37.84    1.24
  -1  -4   0   37.88    1.28
  -1  -4   0   35.41    1.16
   1   4   0   37.23    1.16
   1   4   0   38.77    1.20
   1   4   0   36.53    1.23
   1   4   0   38.72    1.58
   1   4   0   37.29    1.15
   1   4   0   37.75    1.25
  -2  -4   0  166.02    4.10
  -2  -4   0  163.03    3.81
  -2  -4   0  163.70    3.98
  -2  -4   0  168.80    4.13
   2   4   0  161.16    3.96
   2   4   0  168.20    4.12
   2   4   0  164.99    3.89
   2   4   0  162.85    3.97
   2   4   0  162.21    4.45
   2   4   0  167.20    3.77
  -3  -4   0    9.02    0.43
  -3  -4   0    9.58    0.69
  -3  -4   0    7.82    0.66
   3   4   0    7.88    0.53
   3   4   0    8.18    0.59
   3   4   0    7.92    0.83
   3   4   0    7.72    0.46
   3   4   0    9.05    0.44
  -4  -4   0   14.88    0.88
  -4  -4   0   12.97    1.03
  -4  -4   0   15.91    0.96
  -4  -4   0   14.73    0.60
   4   4   0   14.66    1.07
   4   4   0   14.36    0.71
   4   4   0   15.15    0.68
   4   4   0   15.21    0.86
   4   4   0   15.50    0.79
  -5  -4   0  126.23    4.19
  -5  -4   0  126.09    3.75
  -5  -4   0  131.25    3.61
   5   4   0  130.34    3.66
   5   4   0  127.90    4.17
   5   4   0  132.42    3.26
  -6  -4   0   13.35    1.42
  -6  -4   0   14.26    1.06
  -6  -4   0   13.28    0.92
   6   4   0   12.97    1.45
   6   4   0   13.82    0.99
   6   4   0   13.71    0.86
  -7  -4   0    0.12    0.39
  -7  -4   0    0.17    0.43
  -7  -4   0    0.66    0.53
   7   4   0    0.32    0.38
   7   4   0   -0.04    0.40
  -8  -4   0    1.03    0.66
  -8  -4   0    0.99    0.47
   8   4   0    1.21    0.60
   8   4   0    1.40    0.69
  -9  -4   0   10.31    1.64
  -9  -4   0   12.89    1.22
   9   4   0   14.27    1.41
   9   4   0   11.01    1.69
 -10  -4   0   10.22    1.80
  10   4   0   12.83    1.95
  10   4   0   16.97    1.70
 -11  -4   0    4.81    1.47
  11   4   0    2.92    1.16
   8  -5   0    7.67    1.40
  -8   5   0   10.06    2.10
  -8   5   0    7.78    1.32
   7  -5   0   37.24    2.34
  -7   5   0   34.31    2.19
  -7   5   0   41.08    3.04
  -7   5   0   35.47    2.09
   6  -5   0    1.40    0.76
  -6   5   0    1.75    0.91
  -6   5   0    1.16    0.70
  -6   5   0    1.60    0.69
   5  -5   0   21.32    1.53
   5  -5   0   20.69    1.42
  -5   5   0   18.95    2.04
  -5   5   0   20.69    1.42
  -5   5   0   21.37    1.52
   4  -5   0    1.08    0.48
   4  -5   0    1.05    0.50
  -4   5   0    0.65    0.53
  -4   5   0    0.48    0.41
  -4   5   0    0.65    0.49
   3  -5   0  345.32    8.57
   3  -5   0  351.11    8.42
  -3   5   0  338.26    9.01
  -3   5   0  346.17    8.32
  -3   5   0  344.46    7.53
  -3   5   0  347.96    8.52
   2  -5   0   78.95    2.14
   2  -5   0   77.23    2.51
   2  -5   0   80.33    2.66
  -2   5   0   79.22    2.62
  -2   5   0   78.68    2.47
  -2   5   0   76.83    2.96
  -2   5   0   75.96    2.10
   1  -5   0   38.88    1.47
   1  -5   0   40.95    1.62
   1  -5   0   40.74    1.53
   1  -5   0   38.70    1.12
   1  -5   0   38.92    1.32
  -1   5   0   39.56    1.34
  -1   5   0   38.34    1.85
  -1   5   0   40.50    1.16
  -1   5   0   39.82    1.58
  -1   5   0   40.34    1.51
   0  -5   0  151.62    3.91
   0  -5   0  153.75    3.65
   0  -5   0  148.13    3.83
   0  -5   0  149.19    3.79
   0   5   0  155.68    3.92
   0   5   0  155.20    4.49
   0   5   0  147.45    3.83
   0   5   0  151.65    3.66
   0   5   0  151.91    3.44
   0   5   0  152.19    3.79
  -1  -5   0  261.01    6.17
  -1  -5   0  265.17    6.01
  -1  -5   0  259.67    6.05
  -1  -5   0  263.39    6.17
  -1  -5   0  260.04    6.08
   1   5   0  257.06    6.71
   1   5   0  260.50    6.08
   1   5   0  258.15    6.04
   1   5   0  257.97    5.88
   1   5   0  266.11    6.01
   1   5   0  260.58    6.03
   1   5   0  259.67    6.09
  -2  -5   0    1.15    0.23
  -2  -5   0    1.31    0.36
  -2  -5   0    1.72    0.37
  -2  -5   0    0.64    0.26
   2   5   0    1.12    0.23
   2   5   0    1.11    0.27
   2   5   0    1.16    0.22
   2   5   0    0.51    0.33
   2   5   0    0.83    0.24
   2   5   0    1.70    0.35
  -3  -5   0  139.41    3.79
  -3  -5   0  141.07    3.38
  -3  -5   0  143.85    3.64
  -3  -5   0  142.41    3.86
   3   5   0  142.26    3.34
   3   5   0  143.04    3.55
   3   5   0  143.59    3.65
   3   5   0  139.62    3.68
   3   5   0  142.54    3.43
   3   5   0  144.54    4.28
  -4  -5   0   86.69    2.78
  -4  -5   0   94.30    2.93
   4   5   0   95.66    2.37
   4   5   0   94.69    2.49
   4   5   0   94.19    3.30
   4   5   0   93.10    2.77
  -5  -5   0   83.62    2.86
  -5  -5   0   83.93    2.71
   5   5   0   82.45    3.20
   5   5   0   87.13    2.73
  -6  -5   0    0.13    0.33
  -6  -5   0    0.07    0.38
  -6  -5   0   -0.01    0.35
   6   5   0    0.14    0.33
   6   5   0    0.17    0.41
  -7  -5   0   63.56    2.40
  -7  -5   0   68.28    3.22
   7   5   0   59.05    2.41
   7   5   0   61.72    3.05
  -8  -5   0   23.65    2.29
  -8  -5   0   28.15    1.59
   8   5   0   24.42    1.58
   8   5   0   26.03    2.09
  -9  -5   0    0.20    0.62
  -9  -5   0    0.53    0.61
   9   5   0    0.88    0.64
   9   5   0    0.19    0.61
 -10  -5   0    2.43    0.80
 -10  -5   0    2.95    1.22
  10   5   0    2.60    0.95
  10   5   0    0.87    0.88
 -11  -5   0    4.22    1.37
  11   5   0    3.85    1.27
   8  -6   0   38.96    2.72
  -8   6   0   41.40    2.71
  -8   6   0   41.66    4.03
   7  -6   0   19.03    2.00
  -7   6   0   19.25    1.93
  -7   6   0   18.65    2.50
   6  -6   0   25.02    1.93
  -6   6   0   26.78    1.76
  -6   6   0   24.16    2.65
  -6   6   0   23.06    1.78
   5  -6   0   25.17    1.83
  -5   6   0   25.66    1.63
  -5   6   0   27.91    2.21
  -5   6   0   25.46    1.74
   4  -6   0    6.94    0.97
   4  -6   0    8.01    1.14
  -4   6   0    6.24    1.20
  -4   6   0    8.51    1.14
  -4   6   0    7.10    0.94
   3  -6   0   14.79    1.39
   3  -6   0   13.57    1.20
  -3   6   0   16.75    1.33
  -3   6   0   13.70    1.26
  -3   6   0   14.53    1.60
  -3   6   0   14.74    0.67
   2  -6   0    0.21    0.35
   2  -6   0    0.42    0.42
  -2   6   0    0.82    0.44
  -2   6   0    0.31    0.33
  -2   6   0    0.35    0.24
  -2   6   0    0.06    0.38
   1  -6   0  117.34    3.60
   1  -6   0  122.67    3.51
   1  -6   0  122.42    3.25
  -1   6   0  123.14    3.24
  -1   6   0  121.86    4.08
  -1   6   0  126.81    3.52
  -1   6   0  126.21    3.62
   0  -6   0  255.67    6.10
   0  -6   0  257.72    6.25
   0  -6   0  261.41    6.17
   0  -6   0  259.91    6.29
   0  -6   0  254.65    5.90
   0   6   0  256.78    6.25
   0   6   0  251.43    6.89
   0   6   0  243.88    6.06
   0   6   0  249.41    6.15
   0   6   0  254.19    6.07
  -1  -6   0    5.54    0.57
  -1  -6   0    6.58    0.65
  -1  -6   0    6.15    0.58
  -1  -6   0    6.58    0.67
  -1  -6   0    5.07    0.63
   1   6   0    6.77    0.67
   1   6   0    7.64    1.02
   1   6   0    5.33    0.63
   1   6   0    6.10    0.45
   1   6   0    7.06    0.66
   1   6   0    6.99    0.65
  -2  -6   0  127.07    3.22
  -2  -6   0  122.74    3.50
  -2  -6   0  127.37    3.51
  -2  -6   0  126.26    3.20
  -2  -6   0  123.81    3.44
   2   6   0  129.18    3.30
   2   6   0  130.51    3.21
   2   6   0  121.93    4.04
   2   6   0  128.93    3.21
   2   6   0  128.42    3.32
   2   6   0  128.99    3.44
  -3  -6   0   37.60    1.54
  -3  -6   0   32.60    1.35
  -3  -6   0   30.99    1.41
   3   6   0   30.66    1.32
   3   6   0   30.77    1.30
   3   6   0   33.20    1.23
   3   6   0   33.94    1.82
   3   6   0   31.10    1.07
  -4  -6   0   19.90    1.20
  -4  -6   0   18.16    1.13
   4   6   0   17.42    1.01
   4   6   0   17.46    0.90
   4   6   0   18.33    1.37
  -5  -6   0   35.70    1.65
  -5  -6   0   37.37    1.80
   5   6   0   38.08    2.13
   5   6   0   39.33    1.67
  -6  -6   0   27.84    1.49
   6   6   0   25.37    1.45
   6   6   0   26.07    1.84
  -7  -6   0   46.15    2.08
  -7  -6   0   49.87    2.76
   7   6   0   46.31    2.10
   7   6   0   41.31    2.53
  -8  -6   0    0.96    0.71
  -8  -6   0    1.15    0.61
   8   6   0    1.24    0.61
   8   6   0    0.99    0.70
  -9  -6   0   33.17    1.88
  -9  -6   0   33.38    2.65
   9   6   0   35.91    2.04
   9   6   0   33.47    2.61
 -10  -6   0   16.48    2.31
 -10  -6   0   11.62    1.38
  10   6   0   17.92    2.34
 -11  -6   0    0.72    0.92
  11   6   0    0.27    0.81
   7  -7   0    0.32    0.78
  -7   7   0    0.34    0.82
  -7   7   0    0.65    1.20
   6  -7   0   33.62    2.30
  -6   7   0   32.60    3.22
  -6   7   0   39.20    2.40
   5  -7   0   45.35    2.53
  -5   7   0   44.98    2.92
  -5   7   0   48.95    2.53
  -5   7   0   50.10    2.39
   4  -7   0    3.71    0.89
  -4   7   0    6.26    1.22
  -4   7   0    4.50    0.96
  -4   7   0    4.29    0.86
   3  -7   0   71.35    2.76
   3  -7   0   73.61    2.99
  -3   7   0   77.16    3.44
  -3   7   0   73.92    2.04
  -3   7   0   69.65    2.70
  -3   7   0   77.04    2.97
   2  -7   0   52.06    2.12
   2  -7   0   49.45    2.24
  -2   7   0   51.32    2.23
  -2   7   0   47.22    2.02
  -2   7   0   49.66    2.60
  -2   7   0   47.13    1.65
   1  -7   0    7.69    0.94
   1  -7   0    7.61    0.85
  -1   7   0    8.11    0.92
  -1   7   0    7.31    0.84
  -1   7   0    6.07    0.65
  -1   7   0    5.66    1.03
   0  -7   0   20.45    1.10
   0  -7   0   21.69    1.16
   0  -7   0   21.46    1.23
   0   7   0   22.79    1.23
   0   7   0   20.45    1.13
   0   7   0   21.54    1.10
   0   7   0   22.08    1.59
  -1  -7   0   87.97    2.66
  -1  -7   0   93.04    2.78
  -1  -7   0   85.83    2.64
  -1  -7   0   91.10    2.80
  -1  -7   0   92.51    2.87
   1   7   0   92.48    2.73
   1   7   0   89.95    2.73
   1   7   0   88.53    2.73
   1   7   0   97.68    3.54
  -2  -7   0  238.13    6.05
  -2  -7   0  242.39    6.01
  -2  -7   0  237.79    5.99
   2   7   0  235.70    6.79
   2   7   0  233.96    5.93
   2   7   0  243.63    5.81
  -3  -7   0   10.23    0.95
  -3  -7   0   11.78    1.05
  -3  -7   0   12.48    1.03
   3   7   0   13.59    0.85
   3   7   0   11.29    0.74
   3   7   0   11.70    1.33
   3   7   0   14.73    1.13
  -4  -7   0   99.63    3.20
  -4  -7   0   97.45    3.24
   4   7   0   98.27    3.01
   4   7   0  100.08    3.77
  -5  -7   0   83.00    2.89
  -5  -7   0   86.90    3.09
   5   7   0   82.92    2.80
   5   7   0   80.09    3.43
  -6  -7   0    2.36    0.63
   6   7   0    2.60    0.67
   6   7   0    1.71    0.70
  -7  -7   0   15.52    1.40
   7   7   0   16.11    1.47
   7   7   0   20.98    2.28
  -8  -7   0   24.63    1.64
   8   7   0   29.79    2.36
   8   7   0   27.65    1.79
  -9  -7   0   37.54    2.05
   9   7   0   28.83    2.85
   9   7   0   29.26    1.93
 -10  -7   0    1.83    0.83
  10   7   0    5.68    1.43
   6  -8   0    3.33    1.10
  -6   8   0    4.07    1.19
  -6   8   0    4.33    1.47
   5  -8   0    1.02    0.86
  -5   8   0    1.14    0.75
  -5   8   0    2.20    1.02
   4  -8   0   30.36    2.10
  -4   8   0   31.22    1.88
  -4   8   0   29.62    2.33
  -4   8   0   27.19    1.91
   3  -8   0  100.22    3.75
   3  -8   0   98.77    3.97
  -3   8   0   98.77    2.64
  -3   8   0   95.24    3.61
  -3   8   0  101.16    3.50
  -3   8   0   96.74    4.21
   2  -8   0    0.61    0.52
   2  -8   0    0.08    0.50
  -2   8   0    0.16    0.47
  -2   8   0    1.00    0.37
  -2   8   0    1.06    0.69
  -2   8   0   -0.23    0.44
   1  -8   0   33.12    1.64
   1  -8   0   32.95    1.78
  -1   8   0   29.71    1.57
  -1   8   0   25.56    1.93
  -1   8   0   29.21    1.36
  -1   8   0   30.29    1.69
   0  -8   0    7.92    0.88
   0  -8   0    8.33    0.94
   0  -8   0    7.32    0.91
   0   8   0    7.67    0.89
   0   8   0    8.48    0.93
   0   8   0    7.72    0.81
   0   8   0    8.14    1.30
  -1  -8   0    4.78    0.74
  -1  -8   0    3.80    0.63
   1   8   0    2.99    0.58
   1   8   0    5.24    0.73
   1   8   0    2.30    0.77
  -2  -8   0    5.02    0.74
  -2  -8   0    5.60    0.78
   2   8   0    4.72    0.96
   2   8   0    5.34    0.70
  -3  -8   0    0.52    0.40
  -3  -8   0    1.63    0.55
  -3  -8   0    1.22    0.45
   3   8   0    1.65    0.53
   3   8   0    1.09    0.61
  -4  -8   0   67.93    2.60
  -4  -8   0   69.44    2.43
  -4  -8   0   70.39    2.66
   4   8   0   67.65    2.40
   4   8   0   65.39    3.11
  -5  -8   0   17.59    1.49
   5   8   0   18.97    1.27
   5   8   0   22.23    2.14
  -6  -8   0    2.92    0.75
   6   8   0    3.30    0.94
   6   8   0    4.18    0.78
  -7  -8   0   62.34    2.64
   7   8   0   58.76    3.24
   7   8   0   58.15    2.54
  -8  -8   0    7.22    1.14
   8   8   0    5.10    0.97
   8   8   0    4.96    1.29
  -9  -8   0   68.71    3.06
   9   8   0   64.31    3.79
 -10  -8   0    3.57    1.05
  10   8   0    3.08    1.20
   5  -9   0   10.19    1.60
  -5   9   0   12.66    2.07
  -5   9   0   14.64    1.79
   4  -9   0    0.01    0.74
  -4   9   0    0.01    0.80
  -4   9   0    0.30    0.67
   3  -9   0    1.05    0.76
  -3   9   0    1.47    0.71
  -3   9   0    1.44    0.70
  -3   9   0   -0.10    0.62
  -3   9   0    1.08    0.36
   2  -9   0   56.96    2.71
   2  -9   0   57.08    2.90
  -2   9   0   70.67    2.86
  -2   9   0   68.67    2.70
  -2   9   0   58.74    2.08
  -2   9   0   55.31    3.16
   1  -9   0   27.96    1.75
  -1   9   0   26.65    1.59
  -1   9   0   28.02    1.40
  -1   9   0   26.52    2.15
  -1   9   0   27.64    1.68
   0   9   0   13.60    1.54
   0   9   0   10.34    1.00
   0   9   0   15.10    1.82
  -1  -9   0    1.99    0.58
   1   9   0    2.84    0.92
   1   9   0    1.67    0.55
  -2  -9   0  118.45    3.72
  -2  -9   0  116.64    3.71
   2   9   0  109.75    4.48
   2   9   0  124.50    3.67
  -3  -9   0    3.81    0.74
  -3  -9   0    7.37    0.98
   3   9   0    4.48    0.75
   3   9   0    5.30    1.09
  -4  -9   0    3.92    0.78
  -4  -9   0    4.68    0.77
   4   9   0    2.73    0.89
  -5  -9   0   34.25    1.88
   5   9   0   34.98    1.75
   5   9   0   34.90    2.43
  -6  -9   0   17.68    1.60
   6   9   0   16.73    1.47
   6   9   0   21.23    2.26
  -7  -9   0    2.07    0.73
   7   9   0    2.83    1.03
   7   9   0    2.69    0.80
  -8  -9   0    5.60    1.12
   8   9   0    5.72    1.08
   8   9   0    7.15    1.53
  -9  -9   0   13.00    1.54
   9   9   0   14.34    2.14
   3 -10   0    3.15    1.06
  -3  10   0    3.71    0.48
  -3  10   0    5.03    1.11
  -3  10   0    4.83    1.38
   2 -10   0   42.19    2.47
  -2  10   0   44.13    1.78
  -2  10   0   46.04    3.02
  -2  10   0   41.86    2.34
  -1  10   0    0.15    0.44
  -1  10   0   -1.00    0.65
   0  10   0   36.38    2.55
   0  10   0   33.76    1.72
   1  10   0   18.59    2.06
   1  10   0   22.48    1.43
  -2 -10   0   32.06    1.76
  -2 -10   0   34.74    1.86
   2  10   0   32.53    2.42
   2  10   0   32.62    1.74
  -3 -10   0    4.28    0.82
  -3 -10   0    3.90    0.79
   3  10   0    5.48    1.23
   3  10   0    5.02    0.88
  -4 -10   0   32.05    1.80
  -4 -10   0   38.76    2.02
   4  10   0   35.45    2.53
  -5 -10   0   12.01    1.41
   5  10   0   16.56    2.04
  -6 -10   0    1.28    0.67
   6  10   0    3.07    1.12
  -7 -10   0    2.69    0.92
   7  10   0    5.02    1.00
   7  10   0    3.21    1.15
  -8 -10   0    1.92    0.81
   8  10   0    2.00    1.12
  -1  11   0   34.41    2.74
  -1  11   0   36.05    1.81
   0  11   0   44.86    3.04
   0  11   0   44.49    2.08
   1  11   0    0.47    0.57
   1  11   0   -0.15    0.74
   2  11   0   15.71    2.09
   2  11   0   19.89    1.65
  -3 -11   0    9.85    1.27
  -3 -11   0    9.99    1.23
   3  11   0   10.66    1.76
   3  11   0   10.10    1.20
  -4 -11   0   20.56    1.83
  -4 -11   0   19.69    1.68
   4  11   0   21.76    2.47
  -5 -11   0   -0.29    0.59
   5  11   0   -0.24    0.68
  -6 -11   0   18.01    1.74
   6  11   0   17.32    2.28
  -7 -11   0   21.98    2.03
   7  11   0   19.67    2.55
   1  12   0   13.25    2.05
   2  12   0   89.50    3.37
   2  12   0   86.85    4.49
  -3 -12   0    1.45    0.77
   3  12   0   -0.23    0.57
   3  12   0    0.77    0.88
  -4 -12   0   34.94    2.21
  -4 -12   0   39.44    2.26
   4  12   0   36.65    2.92
  -5 -12   0   13.14    1.60
   5  12   0   13.12    2.15
   4  12  -1    2.33    1.08
  -4 -12   1    0.26    0.61
   3  12  -1    3.69    0.92
   3  12  -1    7.33    1.60
  -3 -12   1    4.58    1.05
   2  12  -1   18.15    2.31
   7  11  -1    9.22    1.89
  -7 -11   1    9.78    1.42
   6  11  -1    0.53    0.88
  -6 -11   1    0.14    0.72
   5  11  -1   21.01    2.51
  -5 -11   1   25.23    2.09
   4  11  -1   24.70    2.67
  -4 -11   1   24.03    1.75
   3  11  -1   23.16    2.58
   3  11  -1   23.48    1.63
  -3 -11   1   25.38    1.72
  -3 -11   1   24.26    1.76
   2  11  -1    1.40    0.65
   2  11  -1    0.52    0.76
   1  11  -1    5.79    1.46
   1  11  -1    4.46    0.88
   0  11  -1   21.99    2.50
   0  11  -1   23.64    1.54
  -1  11  -1    0.58    0.93
   8  10  -1    6.34    1.52
  -8 -10   1    9.33    1.33
   7  10  -1    4.85    0.98
   7  10  -1    3.42    1.14
  -7 -10   1    5.25    1.09
   6  10  -1   24.74    2.57
  -6 -10   1   31.39    2.02
   5  10  -1   12.51    1.86
  -5 -10   1   10.02    1.31
   4  10  -1    2.88    0.98
  -4 -10   1    2.96    0.83
   3  10  -1   37.52    2.57
   3  10  -1   34.99    1.89
  -3 -10   1   42.41    2.06
  -3 -10   1   39.22    2.03
   2  10  -1   78.31    3.83
   2  10  -1   81.43    2.95
  -2 -10   1   83.09    3.09
   1  10  -1    0.45    0.48
   1  10  -1    0.56    0.70
   0  10  -1   47.53    2.03
   0  10  -1   45.96    2.88
  -1  10  -1   13.04    1.89
  -1  10  -1   15.41    1.22
  -2  10  -1   26.99    2.70
  -2  10  -1   23.81    1.84
  -2  10  -1   22.05    1.84
  -2  10  -1   22.98    1.22
   2 -10   1   22.70    2.05
  -3  10  -1    1.62    0.83
  -3  10  -1    2.39    1.09
   3 -10   1    2.88    1.06
   9   9  -1    0.19    0.79
  -9  -9   1   -0.29    0.55
   8   9  -1   33.81    2.33
   8   9  -1   30.29    3.00
  -8  -9   1   38.54    2.26
   7   9  -1   17.29    1.58
   7   9  -1   18.82    2.29
  -7  -9   1   18.28    1.70
   6   9  -1   13.10    1.33
   6   9  -1   10.16    1.65
  -6  -9   1   11.83    1.33
   5   9  -1   11.05    1.13
   5   9  -1   11.88    1.64
  -5  -9   1   12.44    1.38
   4   9  -1   13.15    1.75
  -4  -9   1   13.64    1.38
   3   9  -1    8.29    1.35
   3   9  -1    7.36    0.96
  -3  -9   1    5.27    0.86
  -3  -9   1    6.94    0.93
   2   9  -1   21.04    1.31
   2   9  -1   20.97    2.06
  -2  -9   1   20.45    1.38
  -2  -9   1   20.19    1.38
   1   9  -1    4.78    1.05
   1   9  -1    7.57    0.91
  -1  -9   1    8.48    0.99
   0   9  -1  148.17    5.39
   0   9  -1  153.83    4.49
   0   9  -1  146.19    4.20
  -1   9  -1    2.60    0.74
  -1   9  -1    3.12    1.00
  -1   9  -1    2.94    0.76
  -1   9  -1    2.64    0.60
   1  -9   1    2.96    0.81
  -2   9  -1   12.18    1.43
  -2   9  -1   13.43    0.93
  -2   9  -1   13.55    1.84
  -2   9  -1   15.51    1.48
   2  -9   1   13.52    1.52
  -3   9  -1   29.94    2.44
  -3   9  -1   31.18    1.95
  -3   9  -1   30.26    2.06
  -3   9  -1   28.70    1.04
   3  -9   1   25.99    1.93
  -4   9  -1    2.53    1.04
  -4   9  -1    2.57    0.95
   4  -9   1    3.72    1.09
  10   8  -1   11.09    2.00
 -10  -8   1   12.21    1.52
   9   8  -1    0.79    0.90
  -9  -8   1   -0.44    0.52
   8   8  -1   20.86    2.35
   8   8  -1   21.19    1.80
  -8  -8   1   24.37    1.69
   7   8  -1   14.05    1.39
   7   8  -1   13.51    1.86
  -7  -8   1   16.07    1.54
   6   8  -1   60.18    2.49
   6   8  -1   65.43    3.29
  -6  -8   1   62.48    2.62
   5   8  -1   72.20    2.63
   5   8  -1   72.63    3.40
  -5  -8   1   72.23    2.81
   4   8  -1   11.84    1.51
   4   8  -1   12.25    1.07
  -4  -8   1   13.83    1.28
   3   8  -1  117.34    4.38
   3   8  -1  118.33    3.54
  -3  -8   1  116.02    3.68
  -3  -8   1  119.89    3.73
  -3  -8   1  117.93    3.58
   2   8  -1  129.90    4.62
   2   8  -1  128.10    3.70
   2   8  -1  132.63    3.75
  -2  -8   1  126.86    3.81
  -2  -8   1  120.89    3.81
   1   8  -1    3.27    0.63
   1   8  -1    2.04    0.52
   1   8  -1    2.30    0.74
  -1  -8   1    2.40    0.57
  -1  -8   1    4.13    1.17
   0   8  -1    2.91    0.56
   0   8  -1    4.31    0.74
   0   8  -1    3.22    0.65
   0   8  -1    4.87    0.99
   0  -8   1    2.66    0.63
   0  -8   1    2.72    0.59
   0  -8   1    3.18    0.63
  -1   8  -1   94.39    3.23
  -1   8  -1   97.27    2.87
  -1   8  -1   92.75    3.29
  -1   8  -1   96.40    3.92
   1  -8   1   97.70    3.39
   1  -8   1   98.69    3.28
  -2   8  -1   60.23    3.03
  -2   8  -1   53.21    2.35
  -2   8  -1   56.66    2.51
  -2   8  -1   57.16    1.89
   2  -8   1   60.04    2.52
   2  -8   1   59.67    2.61
  -3   8  -1   12.70    1.45
  -3   8  -1   12.25    0.65
  -3   8  -1   11.54    1.66
  -3   8  -1   13.75    1.39
   3  -8   1   13.45    1.52
  -4   8  -1    1.52    0.75
  -4   8  -1    1.62    0.93
  -4   8  -1    2.12    0.75
   4  -8   1    1.34    0.75
  -5   8  -1   40.39    2.48
  -5   8  -1   35.29    2.73
   5  -8   1   37.83    2.51
  -6   8  -1   23.29    2.27
  -6   8  -1   26.34    2.96
   6  -8   1   23.25    2.29
  10   7  -1   17.17    2.37
 -10  -7   1   19.02    1.79
 -10  -7   1   18.12    2.53
   9   7  -1    0.13    0.67
   9   7  -1    0.62    0.63
  -9  -7   1   -0.15    0.54
   8   7  -1   12.04    1.78
   8   7  -1   12.73    1.44
  -8  -7   1   14.52    1.41
   7   7  -1    3.88    1.08
   7   7  -1    2.52    0.70
  -7  -7   1    3.30    0.74
   6   7  -1   61.62    3.11
   6   7  -1   64.64    2.47
  -6  -7   1   60.22    2.50
   5   7  -1   24.81    1.83
   5   7  -1   28.10    1.48
  -5  -7   1   31.34    1.61
   4   7  -1   17.21    1.08
   4   7  -1   19.65    1.82
   4   7  -1   18.20    1.08
  -4  -7   1   19.64    1.23
  -4  -7   1   16.60    1.20
   3   7  -1   99.87    3.08
   3   7  -1  105.90    3.03
   3   7  -1  109.90    3.09
   3   7  -1   98.79    3.78
  -3  -7   1  103.31    3.28
  -3  -7   1  105.81    3.15
  -3  -7   1  105.03    3.28
   2   7  -1   49.36    1.71
   2   7  -1   50.79    1.83
   2   7  -1   49.73    2.42
   2   7  -1   50.17    1.83
  -2  -7   1   45.05    1.83
  -2  -7   1   46.57    1.85
  -2  -7   1   44.56    1.89
   1   7  -1   34.87    1.47
   1   7  -1   33.17    1.94
   1   7  -1   35.58    1.49
   1   7  -1   37.78    1.56
  -1  -7   1   32.93    1.53
  -1  -7   1   36.45    1.46
  -1  -7   1   35.47    1.53
  -1  -7   1   33.84    1.54
  -1  -7   1   34.75    1.48
   0   7  -1   23.64    1.28
   0   7  -1   22.22    1.12
   0   7  -1   22.78    1.27
   0   7  -1   21.37    1.58
   0  -7   1   23.18    1.20
   0  -7   1   23.92    1.33
   0  -7   1   23.22    1.25
  -1   7  -1    5.56    0.76
  -1   7  -1    6.42    0.66
  -1   7  -1    5.97    0.83
  -1   7  -1    6.11    1.06
   1  -7   1    5.01    0.75
   1  -7   1    6.14    0.70
   1  -7   1    7.02    0.92
  -2   7  -1    0.97    0.33
  -2   7  -1    1.15    0.53
  -2   7  -1    1.15    0.68
  -2   7  -1    1.09    0.51
   2  -7   1    0.63    0.45
   2  -7   1    1.40    0.60
  -3   7  -1   12.82    1.36
  -3   7  -1   13.11    1.60
  -3   7  -1   11.61    0.60
  -3   7  -1   11.36    1.20
   3  -7   1   14.28    1.43
   3  -7   1   13.95    1.32
  -4   7  -1   47.26    2.26
  -4   7  -1   41.60    2.59
  -4   7  -1   40.07    2.28
   4  -7   1   45.37    2.44
  -5   7  -1   14.39    1.47
  -5   7  -1   11.50    1.72
  -5   7  -1   15.70    1.72
   5  -7   1   17.29    1.81
  -6   7  -1    0.80    0.75
  -6   7  -1    0.25    0.93
   6  -7   1    0.54    0.75
  -7   7  -1   25.39    2.40
  -7   7  -1   16.79    2.54
   7  -7   1   16.30    1.90
  10   6  -1    2.67    1.03
 -10  -6   1    4.12    1.35
 -10  -6   1    7.84    1.20
   9   6  -1    0.63    0.68
   9   6  -1    0.06    0.56
  -9  -6   1   -0.15    0.60
  -9  -6   1    0.89    0.67
   8   6  -1   58.08    3.25
   8   6  -1   61.19    2.62
  -8  -6   1   57.98    3.29
  -8  -6   1   62.43    2.58
   7   6  -1   24.91    1.52
   7   6  -1   22.92    1.88
  -7  -6   1   24.48    1.97
  -7  -6   1   26.68    1.55
   6   6  -1   38.31    1.79
   6   6  -1   39.24    2.33
  -6  -6   1   40.24    1.84
   5   6  -1   36.26    1.66
   5   6  -1   39.64    2.17
  -5  -6   1   38.69    1.74
  -5  -6   1   41.36    1.90
   4   6  -1   10.63    0.88
   4   6  -1    9.44    0.76
   4   6  -1    7.64    1.06
   4   6  -1    8.48    0.81
  -4  -6   1    7.68    0.84
  -4  -6   1    8.16    0.89
   3   6  -1    0.34    0.26
   3   6  -1    0.62    0.42
   3   6  -1    0.26    0.21
   3   6  -1    0.44    0.32
   3   6  -1    1.22    0.36
  -3  -6   1    0.34    0.32
  -3  -6   1    0.23    0.28
  -3  -6   1    0.24    0.29
   2   6  -1    1.54    0.36
   2   6  -1    0.98    0.28
   2   6  -1    1.90    0.56
   2   6  -1    1.11    0.30
   2   6  -1    0.37    0.30
   2   6  -1    1.54    0.32
  -2  -6   1    1.08    0.36
  -2  -6   1    1.30    0.38
  -2  -6   1    0.95    0.34
  -2  -6   1    1.43    0.32
   1   6  -1   84.82    2.27
   1   6  -1   82.97    2.48
   1   6  -1   84.04    2.51
   1   6  -1   83.98    2.56
   1   6  -1   89.51    2.54
   1   6  -1   82.27    3.09
  -1  -6   1   91.37    2.65
  -1  -6   1   84.73    2.62
  -1  -6   1   83.73    2.52
  -1  -6   1   86.71    2.55
   0   6  -1  307.99    8.15
   0   6  -1  312.66    7.54
   0   6  -1  313.23    7.33
   0   6  -1  297.47    7.74
   0   6  -1  314.87    7.53
   0  -6   1  315.40    7.24
   0  -6   1  323.00    7.52
   0  -6   1  317.87    7.44
   0  -6   1  317.67    7.59
   0  -6   1  325.10    7.53
  -1   6  -1    2.56    0.52
  -1   6  -1    2.28    0.41
  -1   6  -1    3.00    0.56
  -1   6  -1    2.00    0.61
   1  -6   1    1.83    0.44
   1  -6   1    2.60    0.45
   1  -6   1    1.64    0.46
  -2   6  -1  148.49    4.90
  -2   6  -1  155.64    3.83
  -2   6  -1  158.60    4.42
  -2   6  -1  159.95    4.53
   2  -6   1  156.88    4.58
   2  -6   1  157.49    4.44
  -3   6  -1   89.75    3.19
  -3   6  -1   90.76    2.20
  -3   6  -1   90.12    3.06
  -3   6  -1   87.58    3.54
   3  -6   1   92.19    3.14
   3  -6   1   89.40    3.23
  -4   6  -1    1.97    0.66
  -4   6  -1    2.81    0.71
  -4   6  -1    1.96    0.77
   4  -6   1    2.09    0.64
   4  -6   1    2.75    0.80
  -5   6  -1   58.49    2.71
  -5   6  -1   54.30    3.05
  -5   6  -1   58.08    2.54
   5  -6   1   55.07    2.70
  -6   6  -1   20.00    1.72
  -6   6  -1   19.51    1.90
  -6   6  -1   22.24    2.44
   6  -6   1   16.95    1.78
  -7   6  -1   28.22    2.10
  -7   6  -1   28.01    3.03
   7  -6   1   29.03    2.19
  11   5  -1    1.90    1.03
 -11  -5   1    1.70    1.10
  10   5  -1    6.28    1.47
 -10  -5   1   10.67    1.91
   9   5  -1    6.77    1.05
   9   5  -1    5.77    1.31
  -9  -5   1    5.88    0.95
  -9  -5   1    4.83    1.26
   8   5  -1    0.45    0.63
   8   5  -1    0.53    0.56
  -8  -5   1    0.50    0.65
  -8  -5   1   -0.22    0.39
   7   5  -1    2.69    0.81
   7   5  -1    1.17    0.52
  -7  -5   1    0.98    0.59
  -7  -5   1    1.22    0.54
   6   5  -1   22.49    1.69
   6   5  -1   23.05    1.35
  -6  -5   1   21.74    1.27
  -6  -5   1   23.72    1.43
  -6  -5   1   23.95    1.75
   5   5  -1  127.64    4.30
   5   5  -1  124.99    3.40
   5   5  -1  127.50    3.47
   5   5  -1  127.99    3.67
  -5  -5   1  130.72    3.87
  -5  -5   1  123.54    4.30
  -5  -5   1  126.45    3.68
   4   5  -1   19.07    0.94
   4   5  -1   18.24    0.87
   4   5  -1   19.63    1.35
   4   5  -1   18.17    1.02
  -4  -5   1   18.85    1.12
  -4  -5   1   18.79    1.07
   3   5  -1   57.76    1.68
   3   5  -1   54.12    1.81
   3   5  -1   55.89    1.72
   3   5  -1   54.56    1.46
   3   5  -1   56.70    2.29
   3   5  -1   54.01    1.77
   3   5  -1   53.41    1.80
  -3  -5   1   55.41    1.47
  -3  -5   1   53.32    1.92
  -3  -5   1   55.76    1.99
   2   5  -1  132.16    3.33
   2   5  -1  132.98    3.21
   2   5  -1  128.89    3.41
   2   5  -1  128.46    3.39
   2   5  -1  128.95    3.28
   2   5  -1  130.32    3.94
  -2  -5   1  135.46    3.55
  -2  -5   1  134.24    3.46
  -2  -5   1  130.16    3.22
  -2  -5   1  127.18    3.53
   1   5  -1    0.75    0.26
   1   5  -1    0.54    0.23
   1   5  -1    0.49    0.23
   1   5  -1    0.20    0.28
   1   5  -1    0.13    0.16
   1   5  -1    0.42    0.25
   1   5  -1    0.31    0.20
  -1  -5   1    0.41    0.24
  -1  -5   1    0.42    0.22
  -1  -5   1    0.65    0.27
  -1  -5   1    0.59    0.25
   0   5  -1    1.71    0.37
   0   5  -1    1.45    0.36
   0   5  -1    2.15    0.24
   0   5  -1    1.73    0.31
   0   5  -1    1.67    0.36
   0   5  -1    2.11    0.51
   0   5  -1    1.74    0.34
   0  -5   1    2.17    0.40
   0  -5   1    2.13    0.32
   0  -5   1    1.92    0.38
   0  -5   1    2.91    0.44
   0  -5   1    1.83    0.37
  -1   5  -1   21.84    0.90
  -1   5  -1   21.08    1.10
  -1   5  -1   21.83    1.10
  -1   5  -1   19.57    1.27
  -1   5  -1   19.92    0.83
   1  -5   1   20.50    1.11
   1  -5   1   19.85    1.11
   1  -5   1   18.68    1.04
   1  -5   1   20.11    0.78
  -2   5  -1  155.24    3.74
  -2   5  -1  159.94    4.41
  -2   5  -1  158.38    4.78
  -2   5  -1  159.99    4.30
   2  -5   1  155.91    4.30
   2  -5   1  157.39    4.45
  -3   5  -1    8.92    0.91
  -3   5  -1   10.04    1.23
  -3   5  -1    8.19    0.93
  -3   5  -1    9.15    0.36
   3  -5   1    9.65    0.97
   3  -5   1   10.54    1.11
  -4   5  -1   15.58    1.66
  -4   5  -1   12.40    1.17
  -4   5  -1   13.75    1.33
   4  -5   1   16.37    1.26
   4  -5   1   13.95    1.21
  -5   5  -1   83.92    3.19
  -5   5  -1   79.10    3.62
  -5   5  -1   80.23    3.00
   5  -5   1   84.14    3.25
   5  -5   1   85.00    3.10
  -6   5  -1    1.20    0.68
  -6   5  -1    1.57    0.86
  -6   5  -1    1.83    0.66
   6  -5   1    0.42    0.69
  -7   5  -1   11.74    1.40
  -7   5  -1   13.83    1.60
  -7   5  -1   14.94    2.23
   7  -5   1   17.48    1.78
  -8   5  -1    7.74    1.40
  -8   5  -1    9.33    2.01
   8  -5   1    8.41    1.44
  11   4  -1   18.57    2.43
 -11  -4   1   22.34    2.72
  10   4  -1   48.61    3.24
  10   4  -1   49.48    2.55
 -10  -4   1   47.93    3.26
   9   4  -1    1.70    0.66
   9   4  -1    0.53    0.66
  -9  -4   1    1.76    0.61
  -9  -4   1    1.27    0.81
   8   4  -1   73.82    2.79
   8   4  -1   66.65    3.42
  -8  -4   1   74.10    2.65
  -8  -4   1   65.23    3.42
   7   4  -1   61.71    3.08
   7   4  -1   64.73    2.46
  -7  -4   1   69.59    2.40
  -7  -4   1   59.18    3.04
   6   4  -1    0.52    0.43
   6   4  -1    1.39    0.46
   6   4  -1    1.09    0.35
  -6  -4   1    0.78    0.37
  -6  -4   1    0.61    0.41
  -6  -4   1    0.11    0.40
   5   4  -1    0.40    0.35
   5   4  -1    1.29    0.32
   5   4  -1    1.10    0.38
  -5  -4   1    1.25    0.39
  -5  -4   1    1.67    0.56
  -5  -4   1    0.71    0.36
   4   4  -1   57.48    1.86
   4   4  -1   59.10    1.83
   4   4  -1   60.64    2.01
   4   4  -1   57.47    2.36
   4   4  -1   62.42    1.84
  -4  -4   1   61.56    2.03
  -4  -4   1   58.98    2.10
  -4  -4   1   62.07    2.45
   3   4  -1  186.74    4.47
   3   4  -1  186.60    5.07
   3   4  -1  184.92    4.48
   3   4  -1  182.48    4.41
   3   4  -1  183.13    4.57
  -3  -4   1  188.04    4.67
  -3  -4   1  189.17    4.75
   2   4  -1    2.61    0.33
   2   4  -1    2.16    0.33
   2   4  -1    2.79    0.49
   2   4  -1    3.06    0.45
   2   4  -1    3.48    0.38
   2   4  -1    2.84    0.39
   2   4  -1    2.80    0.39
   2   4  -1    2.42    0.27
  -2  -4   1    2.39    0.39
  -2  -4   1    2.28    0.35
  -2  -4   1    2.47    0.40
   1   4  -1   36.22    1.23
   1   4  -1   34.59    1.25
   1   4  -1   34.78    1.20
   1   4  -1   35.50    1.52
   1   4  -1   37.66    1.28
   1   4  -1   35.78    1.18
  -1  -4   1   36.41    1.26
  -1  -4   1   35.63    1.30
  -1  -4   1   36.70    1.20
  -1  -4   1   35.79    1.26
   0   4  -1  242.36    5.58
   0   4  -1  240.07    5.72
   0   4  -1  249.31    5.73
   0   4  -1  239.91    5.69
   0   4  -1  240.50    5.33
   0   4  -1  240.44    6.11
   0  -4   1  245.81    5.56
   0  -4   1  248.13    5.76
   0  -4   1  241.29    5.68
  -1   4  -1  126.51    3.34
  -1   4  -1  124.34    3.67
  -1   4  -1  128.10    3.06
  -1   4  -1  126.77    3.06
  -1   4  -1  124.54    3.39
   1  -4   1  122.00    2.97
   1  -4   1  125.88    3.43
   1  -4   1  126.61    3.22
   1  -4   1  122.29    3.32
  -2   4  -1   26.17    0.87
  -2   4  -1   24.87    1.41
  -2   4  -1   26.78    1.22
  -2   4  -1   27.13    1.29
  -2   4  -1   27.49    0.83
  -2   4  -1   26.65    0.91
   2  -4   1   27.07    0.81
   2  -4   1   27.04    1.24
   2  -4   1   28.25    1.34
  -3   4  -1   41.03    1.76
  -3   4  -1   40.41    1.95
  -3   4  -1   41.30    1.65
   3  -4   1   40.86    1.70
   3  -4   1   40.35    1.78
  -4   4  -1   64.56    2.35
  -4   4  -1   65.71    2.49
  -4   4  -1   68.61    2.87
   4  -4   1   65.61    2.53
   4  -4   1   65.39    2.42
  -5   4  -1   96.53    3.24
  -5   4  -1  102.07    4.00
  -5   4  -1   96.25    3.39
   5  -4   1   93.48    3.40
   5  -4   1   99.87    3.32
  -6   4  -1   26.70    2.17
  -6   4  -1   32.29    1.76
  -6   4  -1   27.53    1.76
   6  -4   1   31.23    1.77
   6  -4   1   31.29    1.89
  -7   4  -1  118.40    5.19
  -7   4  -1  123.05    4.09
  -7   4  -1  114.40    4.19
   7  -4   1  116.40    4.28
  -8   4  -1   39.53    3.68
  -8   4  -1   33.78    2.19
   8  -4   1   34.88    2.34
  -9   4  -1    6.24    1.60
  -9   4  -1    3.65    1.05
   9  -4   1    5.60    1.31
  11   3  -1    8.15    1.77
 -11  -3   1   12.13    2.15
  10   3  -1    6.73    1.50
  10   3  -1    7.30    1.13
 -10  -3   1   11.60    2.01
   9   3  -1   22.03    2.39
   9   3  -1   29.45    1.77
  -9  -3   1   23.27    2.46
   8   3  -1   45.54    2.79
   8   3  -1   52.97    2.24
  -8  -3   1   42.21    2.71
  -8  -3   1   52.22    2.03
   7   3  -1    4.93    1.04
   7   3  -1    4.22    0.60
   7   3  -1    4.48    0.73
  -7  -3   1    2.90    0.84
  -7  -3   1    4.35    0.64
  -7  -3   1    3.83    0.69
   6   3  -1  205.05    4.91
   6   3  -1  198.48    5.18
   6   3  -1  175.64    5.86
  -6  -3   1  182.26    5.94
  -6  -3   1  204.19    5.33
  -6  -3   1  203.89    5.04
   5   3  -1   88.71    3.36
   5   3  -1  102.56    2.94
   5   3  -1   97.90    2.67
   5   3  -1   98.98    2.52
  -5  -3   1   98.25    3.01
  -5  -3   1   99.75    2.82
  -5  -3   1   93.04    3.43
   4   3  -1   15.66    0.60
   4   3  -1   14.42    0.71
   4   3  -1   12.87    0.81
   4   3  -1   14.46    1.06
  -4  -3   1   13.70    1.05
  -4  -3   1   15.45    0.82
  -4  -3   1   13.83    0.86
   3   3  -1    0.32    0.19
   3   3  -1   -0.04    0.18
   3   3  -1    0.05    0.23
   3   3  -1    0.22    0.19
   3   3  -1   -0.04    0.19
  -3  -3   1    0.19    0.24
  -3  -3   1   -0.11    0.22
  -3  -3   1    0.26    0.23
   2   3  -1  198.10    4.53
   2   3  -1  194.27    4.71
   2   3  -1  195.98    4.95
   2   3  -1  195.95    4.58
   2   3  -1  192.79    4.56
   2   3  -1  198.67    4.53
  -2  -3   1  194.94    4.66
   1   3  -1  201.61    5.07
   1   3  -1  211.70    4.75
   1   3  -1  209.87    4.68
   1   3  -1  208.99    4.81
   1   3  -1  208.30    4.82
   1   3  -1  205.34    4.67
   1   3  -1  207.57    4.73
  -1  -3   1  201.44    4.76
  -1  -3   1  213.82    4.85
  -1  -3   1  207.05    4.83
  -1  -3   1  203.02    4.93
   0   3  -1    6.10    0.38
   0   3  -1    5.72    0.42
   0   3  -1    7.00    0.66
   0   3  -1    6.07    0.29
   0   3  -1    6.16    0.43
   0  -3   1    5.37    0.36
   0  -3   1    6.14    0.42
  -1   3  -1  111.46    2.98
  -1   3  -1  116.42    3.04
  -1   3  -1  115.16    2.78
  -1   3  -1  114.52    2.74
  -1   3  -1  117.25    3.26
  -1   3  -1  115.41    3.01
   1  -3   1  120.16    3.09
   1  -3   1  114.82    2.72
   1  -3   1  115.04    3.01
  -2   3  -1  276.82    6.14
  -2   3  -1  285.10    6.64
  -2   3  -1  286.71    6.74
  -2   3  -1  276.06    6.96
  -2   3  -1  275.47    6.09
  -2   3  -1  283.47    6.16
   2  -3   1  289.80    6.20
   2  -3   1  284.28    6.68
   2  -3   1  293.82    6.79
   2  -3   1  277.98    6.16
  -3   3  -1  123.49    2.81
  -3   3  -1  124.04    3.47
  -3   3  -1  119.49    3.73
  -3   3  -1  121.33    3.34
   3  -3   1  114.53    2.88
   3  -3   1  119.22    2.70
   3  -3   1  121.49    3.40
   3  -3   1  123.34    3.50
   3  -3   1  123.25    2.81
  -4   3  -1   62.20    2.28
  -4   3  -1   61.90    2.64
  -4   3  -1   62.13    2.18
   4  -3   1   61.39    2.21
   4  -3   1   63.64    2.36
  -5   3  -1   15.75    1.13
  -5   3  -1   18.75    1.82
  -5   3  -1   16.85    1.19
   5  -3   1   16.19    1.12
   5  -3   1   16.72    1.21
  -6   3  -1    0.64    0.48
  -6   3  -1    2.63    0.65
  -6   3  -1    0.54    0.62
   6  -3   1    1.28    0.57
   6  -3   1    1.94    0.62
  -7   3  -1   76.54    2.92
  -7   3  -1   81.18    3.96
  -7   3  -1   74.24    3.05
   7  -3   1   78.85    3.36
   7  -3   1   71.86    3.13
  -8   3  -1    0.96    0.76
  -8   3  -1    1.32    0.69
  -8   3  -1    1.10    0.92
   8  -3   1   -0.34    0.55
  -9   3  -1   44.10    3.19
  -9   3  -1   40.76    2.42
   9  -3   1   34.40    2.32
  11   2  -1   44.60    3.32
 -11  -2   1   40.13    3.15
  10   2  -1    7.67    1.13
  10   2  -1   12.54    2.07
 -10  -2   1    8.48    1.68
   9   2  -1   12.14    1.27
   9   2  -1   13.13    1.84
  -9  -2   1   15.78    2.09
   8   2  -1    3.69    0.65
   8   2  -1    3.40    0.72
   8   2  -1    3.69    1.01
  -8  -2   1    2.68    0.75
  -8  -2   1    3.48    1.04
   7   2  -1   10.69    0.94
   7   2  -1   13.33    1.69
   7   2  -1   12.09    1.12
  -7  -2   1   11.51    1.06
  -7  -2   1   12.80    0.90
  -7  -2   1   12.44    1.58
   6   2  -1  134.85    3.78
   6   2  -1  133.59    3.61
   6   2  -1  128.58    4.55
   6   2  -1  139.10    3.56
  -6  -2   1  137.39    3.87
  -6  -2   1  137.09    3.60
  -6  -2   1  117.19    4.46
   5   2  -1  118.81    4.14
   5   2  -1  131.96    3.54
   5   2  -1  132.16    3.37
   5   2  -1  134.29    3.29
  -5  -2   1  130.75    3.39
  -5  -2   1  132.12    3.60
  -5  -2   1  115.06    4.13
   4   2  -1   28.70    1.00
   4   2  -1   28.42    1.19
   4   2  -1   30.86    1.09
   4   2  -1   29.48    1.55
  -4  -2   1   30.89    1.14
  -4  -2   1   31.37    1.59
  -4  -2   1   29.37    1.23
   3   2  -1  427.28    9.38
   3   2  -1  419.90   10.03
   3   2  -1  432.01    9.41
   3   2  -1  437.47    9.65
   3   2  -1  435.17    9.57
  -3  -2   1  443.10    9.24
  -3  -2   1  433.18    9.64
  -3  -2   1  412.06   10.01
  -3  -2   1  425.73    9.49
   2   2  -1  582.34   12.34
   2   2  -1  589.04   12.14
   2   2  -1  571.97   12.18
   2   2  -1  575.76   12.25
   2   2  -1  557.71   12.53
  -2  -2   1  507.37   12.10
  -2  -2   1  576.16   12.26
  -2  -2   1  554.34   12.53
  -2  -2   1  580.57   12.35
   1   2  -1   67.48    1.76
   1   2  -1   69.27    1.76
   1   2  -1   68.44    1.79
   1   2  -1   67.08    1.72
   1   2  -1   67.82    1.81
   1   2  -1   69.63    1.74
   1   2  -1   70.91    2.16
  -1  -2   1   67.74    1.76
  -1  -2   1   70.35    1.76
  -1  -2   1   68.73    1.82
   0   2  -1   81.97    2.06
   0   2  -1   84.54    2.10
   0   2  -1   82.81    2.10
   0   2  -1   84.76    2.02
   0   2  -1   83.42    1.93
   0   2  -1   83.56    2.11
   0  -2   1   85.37    2.05
   0  -2   1   83.85    2.05
  -1   2  -1   99.93    2.68
  -1   2  -1  100.17    2.30
  -1   2  -1   96.28    2.52
  -1   2  -1   98.40    2.52
  -1   2  -1   94.35    2.35
  -1   2  -1   97.77    2.27
  -1   2  -1  100.72    2.57
   1  -2   1   95.83    2.52
   1  -2   1  104.51    2.20
   1  -2   1  102.22    2.35
   1  -2   1   99.37    2.57
  -2   2  -1   27.69    0.81
  -2   2  -1   26.78    1.19
  -2   2  -1   26.58    1.03
  -2   2  -1   25.84    1.07
   2  -2   1   27.85    0.87
   2  -2   1   26.17    1.05
   2  -2   1   26.97    1.10
   2  -2   1   27.53    0.80
  -3   2  -1   29.84    0.94
  -3   2  -1   29.39    1.08
  -3   2  -1   28.20    1.44
  -3   2  -1   30.68    1.29
  -3   2  -1   30.63    1.22
   3  -2   1   31.14    1.26
   3  -2   1   31.36    0.98
   3  -2   1   32.54    1.34
   3  -2   1   29.82    0.90
   3  -2   1   31.74    0.95
  -4   2  -1   64.43    2.65
  -4   2  -1   62.87    2.20
  -4   2  -1   64.66    2.14
  -4   2  -1   60.01    1.90
   4  -2   1   68.01    1.81
   4  -2   1   63.79    1.76
   4  -2   1   63.89    1.75
   4  -2   1   65.21    2.26
   4  -2   1   64.03    2.16
  -5   2  -1  115.89    3.43
  -5   2  -1  121.57    3.57
  -5   2  -1  111.41    4.22
   5  -2   1  118.06    3.49
   5  -2   1  116.51    3.01
   5  -2   1  117.94    3.59
  -6   2  -1    2.19    0.62
  -6   2  -1    2.64    0.60
  -6   2  -1    4.91    1.06
   6  -2   1    1.66    0.56
   6  -2   1    1.92    0.56
  -7   2  -1  117.73    3.78
  -7   2  -1  119.39    3.93
  -7   2  -1  118.56    4.85
   7  -2   1  119.30    3.85
   7  -2   1  111.09    3.96
  -8   2  -1    9.69    1.71
  -8   2  -1    9.90    1.23
  -8   2  -1    7.57    1.09
   8  -2   1    6.90    1.08
  -9   2  -1    1.62    0.98
  -9   2  -1    0.89    0.79
   9  -2   1    1.01    0.74
 -10   2  -1   -0.08    0.90
 -10   2  -1   -0.55    0.77
  10  -2   1    0.24    0.79
  11   1  -1    1.95    1.21
 -11  -1   1    0.09    0.99
  10   1  -1    0.64    0.78
 -10  -1   1    1.11    0.97
   9   1  -1    3.17    1.02
   9   1  -1    3.27    0.75
   9   1  -1    1.84    0.61
  -9  -1   1    1.71    0.93
   8   1  -1   57.54    2.27
   8   1  -1   50.15    2.97
   8   1  -1   60.73    2.36
  -8  -1   1   52.78    3.04
   7   1  -1   10.66    1.50
   7   1  -1   12.67    0.94
   7   1  -1   12.06    1.06
   7   1  -1   10.89    1.00
  -7  -1   1   11.88    1.55
  -7  -1   1   13.03    0.99
   6   1  -1    1.08    0.35
   6   1  -1    0.31    0.29
   6   1  -1    0.43    0.41
   6   1  -1    0.74    0.35
  -6  -1   1    1.19    0.35
  -6  -1   1    0.96    0.55
  -6  -1   1    1.19    0.38
   5   1  -1    8.94    0.64
   5   1  -1    8.70    1.10
   5   1  -1    8.56    0.73
   5   1  -1    6.69    0.63
  -5  -1   1    8.66    0.58
  -5  -1   1    6.92    1.01
  -5  -1   1    9.02    0.77
   4   1  -1   25.21    1.05
   4   1  -1   23.28    0.95
   4   1  -1   25.44    1.01
   4   1  -1   22.33    1.37
   4   1  -1   26.35    1.08
  -4  -1   1   25.95    1.07
  -4  -1   1   21.16    1.36
  -4  -1   1   25.87    0.95
   3   1  -1   31.76    1.11
   3   1  -1   33.38    1.04
   3   1  -1   29.92    1.41
   3   1  -1   32.94    1.14
   3   1  -1   32.77    1.07
  -3  -1   1   29.69    1.43
  -3  -1   1   31.21    1.02
  -3  -1   1   32.32    1.14
   2   1  -1  197.86    5.01
   2   1  -1  206.24    4.63
   2   1  -1  208.19    4.71
   2   1  -1  213.78    4.75
  -2  -1   1  210.21    4.75
  -2  -1   1  213.25    4.64
  -2  -1   1  196.49    5.01
   1   1  -1  240.52    5.27
   1   1  -1  240.47    5.22
   1   1  -1  236.49    5.23
   1   1  -1  234.96    5.16
  -1  -1   1  237.23    5.21
   0   1  -1   83.61    1.91
   0   1  -1   85.03    1.99
   0   1  -1   83.11    2.00
   0   1  -1   83.55    1.99
   0  -1   1   83.33    1.99
  -1   1  -1   16.17    0.66
  -1   1  -1   16.02    0.64
  -1   1  -1   17.16    0.65
   1  -1   1   16.51    0.64
   1  -1   1   17.22    0.60
  -2   1  -1  178.02    4.22
  -2   1  -1  170.46    4.41
  -2   1  -1  176.18    3.99
  -2   1  -1  177.23    4.15
   2  -1   1  185.58    4.26
   2  -1   1  177.11    3.99
   2  -1   1  176.19    4.18
   2  -1   1  177.80    3.99
  -3   1  -1  191.86    5.22
  -3   1  -1  196.57    4.76
  -3   1  -1  185.72    4.50
  -3   1  -1  198.59    4.49
  -3   1  -1  195.43    4.68
   3  -1   1  195.70    4.73
   3  -1   1  196.82    4.49
   3  -1   1  195.03    4.49
   3  -1   1  203.17    4.81
  -4   1  -1  120.81    2.99
  -4   1  -1  114.30    3.25
  -4   1  -1  115.48    3.18
  -4   1  -1  120.72    3.00
  -4   1  -1  116.95    3.88
   4  -1   1  117.53    3.30
   4  -1   1  117.11    2.96
   4  -1   1  115.00    2.96
   4  -1   1  120.46    2.99
   4  -1   1  118.11    3.22
  -5   1  -1   12.70    0.73
  -5   1  -1   14.88    1.57
  -5   1  -1   13.21    0.75
  -5   1  -1   12.43    0.88
  -5   1  -1   13.96    0.90
   5  -1   1   14.01    0.95
   5  -1   1   14.32    0.77
   5  -1   1   14.36    0.92
   5  -1   1   12.79    0.75
   5  -1   1   13.25    0.74
  -6   1  -1   10.80    1.43
  -6   1  -1   13.83    1.39
  -6   1  -1   14.54    1.03
  -6   1  -1   12.34    1.06
   6  -1   1   11.93    0.81
   6  -1   1   11.71    1.02
   6  -1   1   11.81    1.08
  -7   1  -1   81.03    2.90
  -7   1  -1   77.09    2.76
  -7   1  -1   72.45    3.51
   7  -1   1   78.35    2.80
   7  -1   1   78.47    2.95
  -8   1  -1   24.84    1.62
  -8   1  -1   21.44    2.28
   8  -1   1   22.44    1.61
   8  -1   1   23.45    1.56
  -9   1  -1   68.10    3.71
  -9   1  -1   64.22    2.87
   9  -1   1   69.14    3.73
   9  -1   1   64.21    2.95
 -10   1  -1   21.04    2.67
  10  -1   1   16.24    2.26
  10   0  -1    0.20    0.68
 -10   0   1    0.29    0.84
   9   0  -1   10.39    1.74
  -9   0   1   10.79    1.84
   8   0  -1   59.13    2.41
   8   0  -1   61.04    2.51
   8   0  -1   63.00    2.36
   8   0  -1   51.77    3.14
  -8   0   1   59.08    3.31
   7   0  -1   -0.50    0.31
   7   0  -1    0.19    0.36
   7   0  -1   -0.16    0.34
  -7   0   1    0.09    0.43
   6   0  -1   90.99    2.85
   6   0  -1   89.04    2.81
   6   0  -1   87.37    2.68
  -6   0   1   92.39    2.72
  -6   0   1   80.87    3.53
   5   0  -1  173.71    4.58
   5   0  -1  182.48    4.50
   5   0  -1  181.05    4.59
  -5   0   1  179.67    4.21
  -5   0   1  170.82    5.47
  -5   0   1  179.90    4.47
   4   0  -1   17.73    0.83
   4   0  -1   17.71    0.87
   4   0  -1   18.91    0.86
   4   0  -1   17.95    0.89
  -4   0   1   17.62    1.26
  -4   0   1   17.68    0.81
  -4   0   1   17.25    0.86
  -4   0   1   18.04    0.70
   3   0  -1    0.46    0.19
   3   0  -1    0.61    0.20
   3   0  -1    0.46    0.20
   3   0  -1    0.54    0.21
  -3   0   1    0.89    0.39
  -3   0   1    0.96    0.22
   2   0  -1  113.98    2.72
   2   0  -1  112.36    2.72
   2   0  -1  117.93    2.78
   2   0  -1  114.95    2.76
  -2   0   1  118.94    2.78
  -2   0   1  107.80    3.19
  -2   0   1  110.08    2.70
  -2   0   1  116.23    2.52
   1   0  -1  218.84    4.75
   1   0  -1  216.65    4.75
   1   0  -1  217.21    4.75
  -1   0   1  215.68    4.74
  -1   0   1  212.97    4.74
   0   0  -1  241.20    5.24
   0   0  -1  264.65    5.28
   0   0   1  259.70    5.31
   0   0   1  214.64    5.25
  -1   0  -1    2.96    0.19
  -1   0  -1    3.17    0.20
  -1   0  -1    2.86    0.19
  -1   0  -1    3.29    0.21
   1   0   1    2.92    0.19
   1   0   1    2.98    0.20
   1   0   1    2.96    0.19
  -2   0  -1  441.12    9.63
  -2   0  -1  448.12    9.62
  -2   0  -1  449.21    9.67
  -2   0  -1  430.89    9.62
  -2   0  -1  439.72    9.62
   2   0   1  449.32    9.64
   2   0   1  448.28    9.64
   2   0   1  455.60    9.69
   2   0   1  446.55    9.63
   2   0   1  445.67    9.63
  -3   0  -1   27.50    0.92
  -3   0  -1   25.72    1.31
  -3   0  -1   27.86    0.99
  -3   0  -1   29.22    0.99
  -3   0  -1   28.31    1.03
   3   0   1   26.87    0.97
   3   0   1   28.00    0.98
   3   0   1   26.71    0.98
   3   0   1   28.42    1.04
  -4   0  -1   52.46    1.68
  -4   0  -1   51.92    1.62
  -4   0  -1   49.69    1.63
  -4   0  -1   50.70    1.51
  -4   0  -1   50.79    2.15
   4   0   1   52.68    1.62
   4   0   1   48.73    1.67
   4   0   1   50.02    1.59
   4   0   1   50.67    1.65
  -5   0  -1  295.49    7.14
  -5   0  -1  299.43    7.11
  -5   0  -1  297.62    6.89
  -5   0  -1  311.94    7.09
  -5   0  -1  298.86    8.03
   5   0   1  293.24    7.18
   5   0   1  298.97    7.02
   5   0   1  315.25    7.10
   5   0   1  300.34    7.14
  -6   0  -1    1.66    0.61
  -6   0  -1    2.37    0.46
  -6   0  -1    2.02    0.48
  -6   0  -1    2.04    0.38
  -6   0  -1    3.01    0.56
   6   0   1    1.54    0.41
   6   0   1    2.78    0.48
   6   0   1    2.49    0.54
   6   0   1    2.86    0.51
  -7   0  -1    6.16    1.15
  -7   0  -1    6.41    0.84
   7   0   1    7.57    0.86
   7   0   1    8.22    0.94
   7   0   1    6.56    0.78
  -8   0  -1    2.88    0.97
  -8   0  -1    2.36    0.64
   8   0   1    2.34    0.66
   8   0   1    2.00    0.58
   8   0   1    1.18    0.73
   8   0   1    2.38    0.57
  -9   0  -1    4.73    1.25
   9   0   1    2.72    1.01
 -10   0  -1    0.18    0.77
  10   0   1    0.44    0.74
  10  -1  -1   27.62    3.02
 -10   1   1   23.26    2.84
   9  -1  -1    1.65    0.77
  -9   1   1    2.97    1.08
   8  -1  -1   15.36    1.37
   8  -1  -1   12.76    1.32
  -8   1   1   15.53    1.99
   7  -1  -1    6.19    0.84
   7  -1  -1    6.63    0.94
   7  -1  -1    6.59    0.75
  -7   1   1    5.56    1.21
   6  -1  -1   26.88    1.24
   6  -1  -1   29.54    1.46
   6  -1  -1   31.28    1.53
  -6   1   1   26.40    1.39
  -6   1   1   26.46    2.00
   5  -1  -1    0.52    0.31
   5  -1  -1    0.52    0.22
   5  -1  -1    0.70    0.36
   5  -1  -1    0.33    0.25
  -5   1   1    0.32    0.43
  -5   1   1    0.18    0.31
  -5   1   1    0.51    0.24
   4  -1  -1   34.45    1.37
   4  -1  -1   32.19    1.36
   4  -1  -1   35.62    1.22
   4  -1  -1   36.68    1.18
  -4   1   1   33.31    1.32
  -4   1   1   34.37    1.88
  -4   1   1   34.10    1.37
  -4   1   1   35.15    1.16
   3  -1  -1    3.74    0.44
   3  -1  -1    2.89    0.32
   3  -1  -1    3.40    0.32
   3  -1  -1    3.64    0.42
  -3   1   1    3.77    0.30
  -3   1   1    3.15    0.40
  -3   1   1    4.73    0.70
  -3   1   1    3.39    0.41
   2  -1  -1  601.86   12.95
   2  -1  -1  620.06   13.13
   2  -1  -1  627.46   13.19
  -2   1   1  606.27   13.15
  -2   1   1  581.60   13.52
  -2   1   1  604.60   13.09
  -2   1   1  611.01   12.88
   1  -1  -1  630.53   13.49
   1  -1  -1  627.57   13.44
  -1   1   1  628.42   13.44
  -1   1   1  636.65   13.42
   0  -1  -1  116.92    2.62
   0  -1  -1  116.35    2.61
   0  -1  -1  118.82    2.66
   0  -1  -1  122.33    2.63
   0   1   1  118.35    2.63
   0   1   1  119.51    2.61
   0   1   1  119.13    2.58
  -1  -1  -1    1.77    0.21
  -1  -1  -1    1.23    0.18
  -1  -1  -1    1.34    0.08
  -1  -1  -1    1.06    0.09
  -1  -1  -1    1.29    0.09
   1   1   1    1.82    0.21
   1   1   1    1.60    0.20
   1   1   1    1.33    0.08
   1   1   1    1.19    0.09
  -2  -1  -1 1000.00   20.75
   2   1   1  946.98   20.67
  -3  -1  -1  123.09    2.95
  -3  -1  -1  125.34    3.11
  -3  -1  -1  121.69    3.00
  -3  -1  -1  121.48    3.43
  -3  -1  -1  127.20    2.95
  -3  -1  -1  122.61    2.95
   3   1   1  122.82    3.42
   3   1   1  121.52    3.09
   3   1   1  124.56    2.97
   3   1   1  121.25    3.09
   3   1   1  122.09    2.94
  -4  -1  -1  139.21    3.60
  -4  -1  -1  141.44    3.47
  -4  -1  -1  138.85    3.45
  -4  -1  -1  135.34    4.11
  -4  -1  -1  139.07    3.46
   4   1   1  142.71    4.13
   4   1   1  142.25    3.50
   4   1   1  140.66    3.60
   4   1   1  142.86    3.61
   4   1   1  138.47    3.45
  -5  -1  -1  125.44    3.45
  -5  -1  -1  125.74    4.13
  -5  -1  -1  127.77    3.34
  -5  -1  -1  127.01    3.28
   5   1   1  127.40    3.45
   5   1   1  122.26    4.06
   5   1   1  124.83    3.40
   5   1   1  129.07    3.34
   5   1   1  126.30    3.36
  -6  -1  -1    4.41    0.89
  -6  -1  -1    4.76    0.57
  -6  -1  -1    4.15    0.61
  -6  -1  -1    4.10    0.57
   6   1   1    4.31    0.59
   6   1   1    3.98    0.58
   6   1   1    4.17    0.56
   6   1   1    3.98    0.55
   6   1   1    3.66    0.81
  -7  -1  -1  218.19    5.69
  -7  -1  -1  214.68    5.57
  -7  -1  -1  226.15    6.77
  -7  -1  -1  215.31    5.42
   7   1   1  222.54    5.72
   7   1   1  219.31    5.62
   7   1   1  209.90    5.61
   7   1   1  211.70    6.63
   7   1   1  210.33    5.59
  -8  -1  -1   62.59    3.20
   8   1   1   60.13    3.15
   8   1   1   58.32    2.32
   8   1   1   60.32    2.38
  -9  -1  -1    8.39    1.59
   9   1   1    6.03    0.88
   9   1   1    7.06    1.47
 -10  -1  -1    1.75    0.95
  10   1   1    0.56    0.75
 -11  -1  -1   13.60    2.23
  11   1   1   17.40    2.39
  10  -2  -1    5.35    1.17
 -10   2   1    7.57    1.80
   9  -2  -1    7.04    1.20
  -9   2   1    6.53    1.54
   8  -2  -1  116.22    4.08
  -8   2   1  117.71    5.18
   7  -2  -1   20.22    1.39
   7  -2  -1   22.31    1.55
  -7   2   1   26.86    2.76
  -7   2   1   23.55    1.54
   6  -2  -1   32.72    1.74
   6  -2  -1   37.57    1.76
  -6   2   1   34.83    1.67
  -6   2   1   30.09    2.22
  -6   2   1   32.46    1.69
   5  -2  -1   51.07    1.64
   5  -2  -1   51.91    1.97
   5  -2  -1   46.22    1.94
  -5   2   1   52.16    1.93
  -5   2   1   49.14    1.96
  -5   2   1   50.45    2.63
   4  -2  -1  245.37    5.55
   4  -2  -1  245.98    6.07
   4  -2  -1  253.26    5.56
   4  -2  -1  253.01    5.71
   4  -2  -1  252.67    6.19
  -4   2   1  250.83    5.56
  -4   2   1  236.21    6.83
  -4   2   1  245.40    6.04
  -4   2   1  245.58    6.11
   3  -2  -1    5.46    0.30
   3  -2  -1    4.84    0.52
   3  -2  -1    5.98    0.31
   3  -2  -1    5.73    0.38
   3  -2  -1    6.70    0.65
  -3   2   1    6.08    0.31
  -3   2   1    5.01    0.53
  -3   2   1    4.17    0.52
  -3   2   1    5.64    0.75
   2  -2  -1    1.32    0.12
   2  -2  -1    1.58    0.31
   2  -2  -1    2.13    0.31
   2  -2  -1    1.16    0.18
  -2   2   1    1.55    0.37
  -2   2   1    1.55    0.18
  -2   2   1    1.63    0.12
  -2   2   1    1.21    0.19
  -2   2   1    0.98    0.25
  -2   2   1    1.92    0.31
   1  -2  -1  521.24   11.29
   1  -2  -1  512.17   11.19
   1  -2  -1  532.70   11.18
  -1   2   1  513.89   11.27
  -1   2   1  498.24   11.50
  -1   2   1  528.93   11.18
   0  -2  -1  757.07   16.45
   0  -2  -1  781.92   16.46
   0   2   1  786.90   16.45
  -1  -2  -1  739.29   15.59
  -1  -2  -1  734.66   15.67
   1   2   1  742.78   15.67
   1   2   1  726.42   15.66
  -2  -2  -1  520.00   11.43
  -2  -2  -1  535.98   11.64
  -2  -2  -1  526.57   11.37
   2   2   1  523.39   11.44
   2   2   1  522.75   11.60
  -3  -2  -1   39.97    1.36
  -3  -2  -1   40.66    1.55
  -3  -2  -1   40.02    1.09
  -3  -2  -1   39.66    1.29
   3   2   1   41.81    1.56
   3   2   1   39.77    1.08
   3   2   1   38.80    1.35
  -4  -2  -1   81.65    2.32
  -4  -2  -1   85.18    2.81
  -4  -2  -1   83.54    2.13
  -4  -2  -1   82.14    2.45
   4   2   1   87.49    2.18
   4   2   1   82.60    2.44
   4   2   1   83.35    2.79
   4   2   1   84.43    2.14
  -5  -2  -1    9.00    0.63
  -5  -2  -1    7.84    0.54
  -5  -2  -1    7.63    0.73
  -5  -2  -1    9.75    1.11
   5   2   1    9.00    0.80
   5   2   1    9.32    0.58
   5   2   1    8.39    0.56
   5   2   1    9.57    1.09
   5   2   1    7.99    0.74
  -6  -2  -1   16.13    1.04
  -6  -2  -1   18.40    1.45
  -6  -2  -1   17.90    0.91
  -6  -2  -1   16.44    0.94
   6   2   1   17.26    0.92
   6   2   1   15.67    0.88
   6   2   1   17.68    1.09
   6   2   1   17.92    1.06
   6   2   1   17.58    1.40
  -7  -2  -1   43.43    1.72
  -7  -2  -1   42.46    1.92
  -7  -2  -1   46.88    2.54
   7   2   1   49.06    2.56
   7   2   1   48.32    1.94
   7   2   1   45.70    1.95
   7   2   1   43.71    1.71
  -8  -2  -1   27.68    1.44
  -8  -2  -1   31.54    2.21
  -8  -2  -1   29.34    1.65
   8   2   1   29.55    1.65
   8   2   1   30.79    1.61
   8   2   1   27.43    2.12
  -9  -2  -1  134.66    5.36
   9   2   1  135.18    5.38
   9   2   1  136.50    4.29
 -10  -2  -1   27.30    2.78
  10   2   1   25.86    1.72
  10   2   1   32.61    3.00
 -11  -2  -1    7.89    1.67
  11   2   1    5.39    1.43
   9  -3  -1    5.23    1.15
  -9   3   1    2.13    1.12
   8  -3  -1   30.71    2.02
  -8   3   1   37.29    2.90
   7  -3  -1   -0.26    0.47
   7  -3  -1    0.26    0.53
  -7   3   1    0.02    0.49
  -7   3   1   -0.13    0.55
   6  -3  -1  131.57    4.02
   6  -3  -1  129.44    4.14
  -6   3   1  131.18    3.96
  -6   3   1  127.69    4.05
  -6   3   1  117.23    4.93
   5  -3  -1   84.11    2.96
   5  -3  -1   84.13    2.85
  -5   3   1   90.07    2.88
  -5   3   1   84.77    3.60
  -5   3   1   84.18    2.92
   4  -3  -1    6.82    0.81
   4  -3  -1    6.56    0.46
   4  -3  -1    5.93    0.69
  -4   3   1    6.41    0.76
  -4   3   1    7.99    0.79
  -4   3   1    6.19    0.96
   3  -3  -1  170.85    3.84
   3  -3  -1  165.74    4.29
   3  -3  -1  166.02    4.41
  -3   3   1  175.36    3.74
  -3   3   1  165.26    4.37
  -3   3   1  161.66    4.23
  -3   3   1  161.60    4.77
  -3   3   1  158.39    3.67
   2  -3  -1  130.29    3.43
   2  -3  -1  128.23    3.31
   2  -3  -1  126.11    2.91
  -2   3   1  129.16    3.07
  -2   3   1  124.19    3.68
  -2   3   1  124.00    2.98
  -2   3   1  123.56    3.37
  -2   3   1  125.71    3.26
   1  -3  -1   29.71    1.04
   1  -3  -1   29.38    1.02
   1  -3  -1   30.03    1.12
  -1   3   1   27.12    0.99
  -1   3   1   28.76    0.69
  -1   3   1   28.97    1.29
  -1   3   1   27.33    0.69
  -1   3   1   28.85    1.09
  -1   3   1   28.31    0.95
   0  -3  -1   14.14    0.57
   0  -3  -1   13.78    0.51
   0  -3  -1   13.76    0.62
   0  -3  -1   14.84    0.64
   0   3   1   13.52    0.51
   0   3   1   13.26    0.59
   0   3   1   12.89    0.77
   0   3   1   14.27    0.58
   0   3   1   13.27    0.50
   0   3   1   13.56    0.61
   0   3   1   13.79    0.56
  -1  -3  -1   41.51    1.24
  -1  -3  -1   41.72    1.06
  -1  -3  -1   40.60    1.23
  -1  -3  -1   41.01    1.06
  -1  -3  -1   41.03    1.23
   1   3   1   41.09    1.23
   1   3   1   42.48    1.50
   1   3   1   41.77    1.08
  -2  -3  -1  579.61   12.74
  -2  -3  -1  590.91   12.53
  -2  -3  -1  582.89   12.69
   2   3   1  576.72   13.01
   2   3   1  595.31   12.39
   2   3   1  578.39   12.74
  -3  -3  -1    0.37    0.26
  -3  -3  -1    0.32    0.10
  -3  -3  -1    0.27    0.23
  -3  -3  -1    0.78    0.30
   3   3   1    0.17    0.23
   3   3   1    0.12    0.23
   3   3   1    0.54    0.13
  -4  -3  -1  356.16    7.84
  -4  -3  -1  363.08    8.39
  -4  -3  -1  373.32    8.81
  -4  -3  -1  356.15    8.24
   4   3   1  368.51    8.78
   4   3   1  346.93    7.82
  -5  -3  -1  104.92    3.47
  -5  -3  -1   97.83    2.45
  -5  -3  -1   99.66    2.85
  -5  -3  -1   98.53    3.01
   5   3   1   98.44    2.47
   5   3   1  101.49    3.01
   5   3   1   98.40    2.94
   5   3   1  100.57    3.40
   5   3   1   99.61    2.55
  -6  -3  -1   14.92    1.06
  -6  -3  -1   15.94    1.30
  -6  -3  -1   15.66    0.99
   6   3   1   16.81    1.34
   6   3   1   14.93    0.79
   6   3   1   17.37    1.10
   6   3   1   17.30    1.06
  -7  -3  -1   12.51    1.55
  -7  -3  -1   13.47    0.98
  -7  -3  -1   10.58    1.08
   7   3   1   13.91    1.19
   7   3   1   11.81    1.47
   7   3   1   11.97    1.17
  -8  -3  -1    5.77    0.80
  -8  -3  -1    5.15    1.14
   8   3   1    5.36    1.11
   8   3   1    5.64    0.82
  -9  -3  -1   85.87    4.12
  -9  -3  -1   89.40    3.38
   9   3   1   85.56    3.25
   9   3   1   85.22    4.09
 -10  -3  -1   10.40    1.76
  10   3   1    7.04    1.48
  10   3   1    7.14    1.11
 -11  -3  -1   41.58    3.14
  11   3   1   36.88    2.99
   9  -4  -1    9.44    1.54
  -9   4   1   10.11    2.15
   8  -4  -1   10.40    1.49
  -8   4   1    9.77    1.90
   7  -4  -1    0.15    0.56
  -7   4   1    2.33    1.04
  -7   4   1   -0.10    0.52
  -7   4   1   -0.66    0.47
   6  -4  -1   28.24    1.78
   6  -4  -1   26.21    1.61
  -6   4   1   25.83    2.56
  -6   4   1   30.28    1.77
  -6   4   1   26.79    1.59
   5  -4  -1    1.90    0.55
   5  -4  -1    1.84    0.59
  -5   4   1    2.16    0.78
  -5   4   1    1.75    0.63
  -5   4   1    2.29    0.58
   4  -4  -1  182.08    4.82
   4  -4  -1  167.34    4.91
  -4   4   1  174.51    4.74
  -4   4   1  179.84    5.50
  -4   4   1  173.24    4.88
   3  -4  -1   80.76    2.68
   3  -4  -1   78.03    2.55
  -3   4   1   81.82    2.10
  -3   4   1   82.42    3.03
  -3   4   1   76.35    2.60
  -3   4   1   79.01    2.51
  -3   4   1   80.98    2.00
   2  -4  -1    3.52    0.45
   2  -4  -1    3.40    0.52
   2  -4  -1    3.47    0.50
  -2   4   1    4.06    0.40
  -2   4   1    3.46    0.52
  -2   4   1    3.67    0.66
  -2   4   1    2.80    0.43
  -2   4   1    3.52    0.40
   1  -4  -1  219.17    5.23
   1  -4  -1  219.13    4.75
   1  -4  -1  218.55    5.37
   1  -4  -1  224.66    4.96
   1  -4  -1  223.13    5.23
  -1   4   1  222.59    4.75
  -1   4   1  216.10    5.20
  -1   4   1  215.91    5.34
  -1   4   1  214.22    4.75
  -1   4   1  221.51    5.10
  -1   4   1  225.40    5.78
   0  -4  -1  329.81    7.19
   0  -4  -1  321.39    7.43
   0  -4  -1  326.01    7.28
   0  -4  -1  326.09    7.33
   0  -4  -1  328.69    7.45
   0   4   1  328.37    7.20
   0   4   1  330.79    7.38
   0   4   1  326.34    7.19
   0   4   1  331.22    7.94
   0   4   1  326.65    7.43
   0   4   1  331.86    7.33
  -1  -4  -1   67.06    1.78
  -1  -4  -1   69.91    1.78
  -1  -4  -1   69.36    1.94
  -1  -4  -1   71.09    1.87
  -1  -4  -1   71.66    1.94
   1   4   1   70.57    1.85
   1   4   1   69.36    1.81
   1   4   1   67.55    1.94
   1   4   1   68.75    1.92
   1   4   1   71.38    2.34
  -2  -4  -1    6.36    0.32
  -2  -4  -1    6.74    0.59
  -2  -4  -1    5.03    0.50
  -2  -4  -1    6.66    0.30
  -2  -4  -1    6.74    0.48
   2   4   1    6.66    0.48
   2   4   1    6.71    0.51
   2   4   1    6.79    0.74
   2   4   1    6.67    0.36
  -3  -4  -1  145.95    3.79
  -3  -4  -1  142.82    3.13
  -3  -4  -1  141.21    3.69
   3   4   1  145.06    3.14
   3   4   1  144.80    4.11
   3   4   1  144.92    3.53
  -4  -4  -1  158.86    4.52
  -4  -4  -1  146.63    3.41
  -4  -4  -1  152.69    4.12
  -4  -4  -1  148.40    3.97
   4   4   1  161.60    3.61
   4   4   1  156.50    4.48
   4   4   1  147.56    3.48
  -5  -4  -1    2.10    0.46
  -5  -4  -1    2.20    0.57
  -5  -4  -1    1.74    0.42
   5   4   1    2.85    0.32
   5   4   1    1.83    0.52
   5   4   1    2.70    0.51
  -6  -4  -1   88.32    2.83
  -6  -4  -1   93.12    3.05
  -6  -4  -1   87.05    3.41
   6   4   1   92.77    3.04
   6   4   1   89.69    2.91
   6   4   1   92.32    3.48
  -7  -4  -1   92.84    3.76
  -7  -4  -1   89.27    2.98
  -7  -4  -1   90.20    3.18
   7   4   1   91.17    3.08
   7   4   1   92.34    3.73
   7   4   1   94.76    3.23
  -8  -4  -1   18.94    1.28
  -8  -4  -1   18.83    2.01
   8   4   1   20.16    2.13
   8   4   1   15.34    1.36
  -9  -4  -1    0.17    0.50
  -9  -4  -1    0.26    0.66
   9   4   1    0.72    0.57
   9   4   1    0.65    0.73
 -10  -4  -1   -0.03    0.69
  10   4   1    1.06    0.85
  10   4   1    0.56    0.64
 -11  -4  -1   16.01    2.29
  11   4   1   11.38    1.92
   8  -5  -1   32.97    2.37
  -8   5   1   34.15    3.51
   7  -5  -1    9.55    1.36
  -7   5   1    6.39    1.66
  -7   5   1    9.47    1.25
  -7   5   1    5.95    1.13
   6  -5  -1   24.73    1.82
  -6   5   1   23.03    2.49
  -6   5   1   22.01    1.54
  -6   5   1   17.91    1.67
   5  -5  -1    3.91    0.76
   5  -5  -1    4.14    0.84
  -5   5   1    2.94    0.90
  -5   5   1    4.60    0.86
  -5   5   1    3.59    0.75
   4  -5  -1   34.16    1.66
   4  -5  -1   33.48    1.77
  -4   5   1   31.47    2.01
  -4   5   1   33.52    1.61
  -4   5   1   31.17    1.68
   3  -5  -1   32.61    1.65
   3  -5  -1   38.40    1.64
  -3   5   1   33.22    1.90
  -3   5   1   31.69    1.07
  -3   5   1   30.79    1.46
  -3   5   1   32.68    1.60
   2  -5  -1  101.95    3.14
   2  -5  -1  100.92    2.98
  -2   5   1   99.69    3.50
  -2   5   1  105.42    3.15
  -2   5   1  100.30    2.95
  -2   5   1   98.37    2.64
   1  -5  -1  210.54    4.58
   1  -5  -1  210.13    4.83
   1  -5  -1  202.34    5.11
   1  -5  -1  203.76    5.26
   1  -5  -1  205.06    5.11
  -1   5   1  215.88    4.58
  -1   5   1  207.59    5.09
  -1   5   1  203.25    4.59
  -1   5   1  212.27    5.26
  -1   5   1  204.01    5.72
  -1   5   1  209.74    4.96
   0  -5  -1  172.99    4.04
   0  -5  -1  173.14    4.23
   0  -5  -1  170.19    4.17
   0  -5  -1  175.55    4.37
   0   5   1  170.34    4.21
   0   5   1  171.60    4.05
   0   5   1  175.59    4.34
   0   5   1  178.39    4.27
   0   5   1  169.28    4.86
   0   5   1  170.68    4.04
  -1  -5  -1   60.78    1.87
  -1  -5  -1   61.37    1.75
  -1  -5  -1   56.31    1.78
  -1  -5  -1   56.44    1.63
  -1  -5  -1   56.21    1.74
   1   5   1   60.29    1.73
   1   5   1   59.89    2.27
   1   5   1   53.64    1.76
   1   5   1   55.00    1.73
   1   5   1   57.34    1.67
  -2  -5  -1  116.88    3.15
  -2  -5  -1  115.24    3.15
  -2  -5  -1  112.74    3.05
  -2  -5  -1  115.53    2.75
  -2  -5  -1  120.31    2.82
  -2  -5  -1  115.69    2.79
   2   5   1  115.75    3.07
   2   5   1  119.37    3.63
   2   5   1  117.44    2.85
  -3  -5  -1   13.02    0.85
  -3  -5  -1   12.58    0.47
  -3  -5  -1   14.07    0.83
  -3  -5  -1   14.77    0.76
   3   5   1   14.08    0.62
   3   5   1   15.31    1.09
   3   5   1   13.72    0.77
   3   5   1   14.46    0.47
  -4  -5  -1    5.82    0.66
  -4  -5  -1    5.91    0.73
   4   5   1    6.81    0.92
   4   5   1    5.68    0.28
  -5  -5  -1   27.33    1.45
  -5  -5  -1   28.00    1.35
   5   5   1   31.34    1.76
   5   5   1   28.25    1.37
  -6  -5  -1   74.63    2.75
  -6  -5  -1   78.07    2.63
  -6  -5  -1   78.59    3.22
   6   5   1   69.16    2.55
   6   5   1   75.48    3.14
  -7  -5  -1   30.02    1.55
  -7  -5  -1   28.89    2.00
   7   5   1   30.69    2.05
   7   5   1   31.52    1.65
  -8  -5  -1   29.55    2.18
  -8  -5  -1   29.24    1.68
   8   5   1   30.76    2.20
   8   5   1   34.53    1.86
  -9  -5  -1   51.66    2.36
  -9  -5  -1   55.50    3.19
   9   5   1   52.92    3.10
   9   5   1   51.67    2.47
 -10  -5  -1    0.88    0.67
 -10  -5  -1    1.15    0.89
  10   5   1    0.47    0.67
  10   5   1    1.97    0.96
 -11  -5  -1   10.14    1.86
  11   5   1    6.26    1.47
   8  -6  -1    0.79    0.82
  -8   6   1    0.55    1.12
   7  -6  -1   15.41    1.76
  -7   6   1   16.09    2.42
   6  -6  -1   49.22    2.66
  -6   6   1   45.67    2.48
  -6   6   1   44.25    2.30
  -6   6   1   49.68    3.18
   5  -6  -1   28.69    1.88
  -5   6   1   30.45    2.28
  -5   6   1   28.55    1.84
  -5   6   1   28.60    1.69
   4  -6  -1  146.24    4.34
   4  -6  -1  134.50    4.45
  -4   6   1  140.21    4.43
  -4   6   1  141.28    4.22
  -4   6   1  134.01    4.95
   3  -6  -1   12.03    1.24
   3  -6  -1   14.63    1.08
  -3   6   1   15.43    1.17
  -3   6   1   15.53    1.08
  -3   6   1   14.45    0.73
  -3   6   1   13.41    1.55
   2  -6  -1   38.85    1.82
   2  -6  -1   41.29    1.72
  -2   6   1   38.50    2.12
  -2   6   1   38.03    1.38
  -2   6   1   37.04    1.61
  -2   6   1   41.09    1.81
   1  -6  -1    2.33    0.37
   1  -6  -1    2.14    0.49
   1  -6  -1    1.81    0.41
  -1   6   1    2.05    0.39
  -1   6   1    1.35    0.38
  -1   6   1    1.81    0.61
  -1   6   1    2.58    0.52
   0  -6  -1    8.12    0.68
   0  -6  -1    9.90    0.90
   0  -6  -1    9.03    0.83
   0  -6  -1    8.72    0.55
   0  -6  -1    8.77    0.62
   0   6   1    9.37    0.72
   0   6   1    8.58    0.73
   0   6   1    9.61    0.78
   0   6   1    9.46    0.61
   0   6   1    7.58    0.98
   0   6   1    8.63    0.54
  -1  -6  -1   80.41    2.44
  -1  -6  -1   81.41    2.41
  -1  -6  -1   82.53    2.40
  -1  -6  -1   81.38    2.53
  -1  -6  -1   85.45    2.34
   1   6   1   83.93    2.41
   1   6   1   83.63    2.36
   1   6   1   90.61    3.14
   1   6   1   85.85    2.51
  -2  -6  -1   57.30    2.01
  -2  -6  -1   61.85    1.70
  -2  -6  -1   60.42    2.00
  -2  -6  -1   60.97    2.03
  -2  -6  -1   59.31    1.76
   2   6   1   61.79    1.78
   2   6   1   62.34    2.01
   2   6   1   64.48    2.55
  -3  -6  -1    0.22    0.28
  -3  -6  -1    0.51    0.30
  -3  -6  -1    0.60    0.34
   3   6   1    0.43    0.21
   3   6   1    0.62    0.31
   3   6   1    0.41    0.37
  -4  -6  -1  239.97    6.14
  -4  -6  -1  247.39    6.29
   4   6   1  246.31    6.10
   4   6   1  243.05    6.80
  -5  -6  -1   87.05    2.82
  -5  -6  -1   87.24    2.97
   5   6   1   83.03    2.77
   5   6   1   82.15    3.30
  -6  -6  -1    8.87    0.95
   6   6   1    9.09    0.97
   6   6   1    7.42    1.16
  -7  -6  -1   30.82    1.66
   7   6   1   31.49    1.70
   7   6   1   28.61    2.04
  -8  -6  -1    5.83    0.89
  -8  -6  -1    6.11    1.23
   8   6   1    7.52    1.40
   8   6   1    6.46    1.00
  -9  -6  -1    7.57    1.48
  -9  -6  -1    9.08    1.20
   9   6   1    5.82    1.31
   9   6   1    7.36    1.15
 -10  -6  -1    0.48    0.60
 -10  -6  -1    0.56    0.79
  10   6   1    0.11    0.72
 -11  -6  -1   28.06    3.07
  11   6   1   30.81    3.20
   7  -7  -1   14.06    1.89
  -7   7   1   11.59    2.14
   6  -7  -1    0.36    0.66
  -6   7   1    0.21    0.93
  -6   7   1    0.59    0.72
   5  -7  -1    1.67    0.79
  -5   7   1    2.68    0.86
  -5   7   1    1.98    0.97
  -5   7   1    2.23    0.71
   4  -7  -1   79.88    3.14
   4  -7  -1   84.44    3.38
  -4   7   1   91.07    3.95
  -4   7   1   85.52    3.10
  -4   7   1   78.67    3.25
   3  -7  -1  148.34    4.41
   3  -7  -1  145.51    4.59
  -3   7   1  148.14    4.58
  -3   7   1  147.46    4.35
  -3   7   1  146.69    3.63
  -3   7   1  129.89    4.99
   2  -7  -1   -0.10    0.30
   2  -7  -1    0.20    0.39
  -2   7   1    0.39    0.30
  -2   7   1    0.66    0.44
  -2   7   1    0.50    0.41
  -2   7   1   -0.05    0.52
   1  -7  -1  152.21    4.40
   1  -7  -1  152.47    4.20
  -1   7   1  144.95    4.94
  -1   7   1  155.95    4.36
  -1   7   1  152.71    4.17
  -1   7   1  146.88    3.97
   0  -7  -1   77.35    2.47
   0  -7  -1   83.21    2.46
   0  -7  -1   77.83    2.62
   0  -7  -1   77.92    2.64
   0   7   1   78.25    2.48
   0   7   1   81.36    3.22
   0   7   1   84.31    2.65
   0   7   1   79.90    2.49
  -1  -7  -1   16.62    0.88
  -1  -7  -1   17.17    0.98
  -1  -7  -1   16.30    0.91
  -1  -7  -1   17.51    1.08
  -1  -7  -1   17.18    1.00
   1   7   1   19.29    1.44
   1   7   1   16.30    0.94
   1   7   1   17.26    1.01
   1   7   1   17.28    0.92
   1   7   1   16.54    0.90
  -2  -7  -1   12.91    0.93
  -2  -7  -1   11.04    0.82
  -2  -7  -1   13.39    0.93
   2   7   1   11.98    1.31
   2   7   1   12.24    0.73
   2   7   1   13.62    0.92
  -3  -7  -1   53.11    1.97
  -3  -7  -1   47.27    1.94
  -3  -7  -1   49.99    1.85
   3   7   1   48.17    2.39
   3   7   1   52.10    1.84
   3   7   1   51.61    1.90
  -4  -7  -1   34.53    1.60
  -4  -7  -1   33.25    1.65
  -4  -7  -1   32.23    1.40
   4   7   1   34.20    1.52
   4   7   1   30.22    1.89
  -5  -7  -1    4.97    0.75
  -5  -7  -1    8.05    0.96
   5   7   1    7.48    0.88
   5   7   1    5.55    0.99
  -6  -7  -1   32.52    1.69
   6   7   1   31.36    2.10
   6   7   1   32.68    1.71
  -7  -7  -1   62.79    2.61
   7   7   1   64.34    3.23
   7   7   1   64.13    2.61
  -8  -7  -1    5.04    0.90
   8   7   1    4.21    0.92
   8   7   1    4.96    1.14
  -9  -7  -1    0.32    0.59
   9   7   1    0.20    0.69
   9   7   1    0.97    0.66
 -10  -7  -1    1.92    0.76
  10   7   1    0.79    0.87
   6  -8  -1   25.08    2.38
  -6   8   1   18.92    2.55
   5  -8  -1    6.35    1.28
  -5   8   1    5.53    1.15
  -5   8   1    5.68    1.40
   4  -8  -1    0.45    0.73
  -4   8   1    0.40    0.68
  -4   8   1    0.16    0.59
  -4   8   1   -0.49    0.57
   3  -8  -1    1.72    0.72
   3  -8  -1    3.56    0.76
  -3   8   1    4.53    0.94
  -3   8   1    3.77    0.52
  -3   8   1    3.63    1.03
  -3   8   1    4.67    0.87
   2  -8  -1   32.35    1.87
   2  -8  -1   31.89    1.68
  -2   8   1   31.66    2.19
  -2   8   1   30.10    1.36
  -2   8   1   30.71    1.77
  -2   8   1   31.27    1.68
   1  -8  -1   59.25    2.46
   1  -8  -1   66.18    2.40
  -1   8   1   58.42    2.28
  -1   8   1   59.81    2.14
  -1   8   1   65.44    2.53
  -1   8   1   66.76    3.12
   0  -8  -1    2.49    0.61
   0   8   1    3.98    0.62
   0   8   1    3.99    0.69
   0   8   1    2.29    0.52
   0   8   1    3.72    0.90
  -1  -8  -1  194.74    5.11
  -1  -8  -1  200.04    5.28
   1   8   1  185.72    6.02
   1   8   1  194.01    5.11
  -2  -8  -1   68.10    2.41
  -2  -8  -1   64.49    2.35
   2   8   1   63.33    2.97
   2   8   1   68.64    2.37
  -3  -8  -1   15.33    1.08
  -3  -8  -1   16.00    1.07
  -3  -8  -1   15.37    1.11
   3   8   1   16.50    1.29
   3   8   1   14.86    0.96
   3   8   1   14.65    1.62
  -4  -8  -1    6.64    0.81
  -4  -8  -1    5.65    0.81
  -4  -8  -1    6.69    0.87
   4   8   1    4.83    0.99
   4   8   1    5.23    0.75
  -5  -8  -1    2.45    0.64
   5   8   1    2.93    0.87
   5   8   1    2.84    0.64
  -6  -8  -1   30.79    1.74
   6   8   1   31.75    2.20
   6   8   1   28.94    1.64
  -7  -8  -1    4.94    0.93
   7   8   1    7.16    1.03
   7   8   1    8.03    1.39
  -8  -8  -1   53.08    2.55
   8   8   1   51.88    3.16
   8   8   1   53.78    2.58
  -9  -8  -1   93.68    3.61
   9   8   1   89.09    4.46
 -10  -8  -1    8.78    1.38
  10   8   1    8.50    1.75
   5  -9  -1    9.32    1.55
  -5   9   1    7.36    1.69
   4  -9  -1   77.84    3.58
  -4   9   1   83.58    3.59
  -4   9   1   79.70    4.17
   3  -9  -1   93.69    3.84
  -3   9   1   99.39    3.79
  -3   9   1   89.47    4.35
  -3   9   1   99.71    3.56
  -3   9   1  101.68    2.79
   2  -9  -1   -0.03    0.51
  -2   9   1    0.23    0.41
  -2   9   1    1.89    0.66
  -2   9   1    1.84    0.82
  -2   9   1    0.66    0.62
   1  -9  -1    2.65    0.72
  -1   9   1    1.92    0.86
  -1   9   1    1.47    0.61
  -1   9   1    3.29    0.96
  -1   9   1    2.79    0.60
   0   9   1   28.19    1.49
   0   9   1   36.55    2.38
  -1  -9  -1   34.51    2.25
  -1  -9  -1   35.80    1.81
   1   9   1   34.62    1.67
   1   9   1   34.58    2.32
  -2  -9  -1   27.77    1.56
  -2  -9  -1   27.20    1.49
   2   9   1   27.46    1.50
   2   9   1   27.12    2.02
  -3  -9  -1   77.30    2.70
  -3  -9  -1   75.84    2.77
   3   9   1   68.45    3.37
  -4  -9  -1  146.94    4.28
  -4  -9  -1  157.51    4.60
   4   9   1  141.93    5.32
  -5  -9  -1    2.50    0.72
   5   9   1    1.10    0.49
   5   9   1    1.67    0.78
  -6  -9  -1    2.77    0.74
   6   9   1    1.97    0.86
   6   9   1    3.64    0.79
  -7  -9  -1    7.00    1.08
   7   9   1    8.86    1.57
   7   9   1    7.80    1.09
  -8  -9  -1    0.19    0.60
   8   9   1    0.02    0.71
   8   9   1    0.13    0.65
  -9  -9  -1    3.78    0.95
   9   9   1    3.62    1.36
   3 -10  -1    9.85    1.49
  -3  10   1    9.82    0.81
  -3  10   1    9.05    1.71
   2 -10  -1   31.88    2.11
  -2  10   1   30.22    2.87
  -2  10   1   30.14    1.50
  -1  10   1   36.44    2.66
  -1  10   1   39.11    1.81
   0  10   1   18.17    2.17
   0  10   1   17.26    1.38
   1  10   1   14.07    1.24
   1  10   1   15.49    1.89
  -2 -10  -1    7.74    1.01
  -2 -10  -1    8.95    1.17
   2  10   1    9.24    1.53
   2  10   1    9.21    1.11
  -3 -10  -1   12.72    1.27
  -3 -10  -1   13.88    1.36
   3  10   1   11.82    1.73
  -4 -10  -1   10.81    1.14
  -4 -10  -1   11.18    1.24
   4  10   1   10.28    1.60
  -5 -10  -1   27.70    1.76
   5  10   1   26.64    2.63
  -6 -10  -1   64.71    2.85
   6  10   1   62.96    3.54
   6  10   1   60.40    3.71
  -7 -10  -1   14.77    1.60
   7  10   1   14.30    1.55
   7  10   1   17.70    2.31
  -8 -10  -1   21.62    1.95
   8  10   1   22.95    2.77
  -9 -10  -1   21.76    2.06
   9  10   1   20.31    2.62
  -2  11   1   22.90    2.69
  -1  11   1    0.09    0.51
  -1  11   1    0.59    0.82
   0  11   1   -0.48    0.48
   0  11   1    0.08    0.77
   1  11   1   35.43    2.69
   1  11   1   39.70    2.00
  -2 -11  -1   21.42    1.80
   2  11   1   22.02    1.52
   2  11   1   19.19    2.34
  -3 -11  -1    3.29    0.80
  -3 -11  -1    3.21    0.83
   3  11   1    3.81    1.20
  -4 -11  -1   13.16    1.35
  -4 -11  -1   14.25    1.51
   4  11   1   18.08    2.29
  -5 -11  -1    5.80    1.08
   5  11   1    7.04    1.51
  -6 -11  -1   11.18    1.42
   6  11   1   12.11    1.91
  -7 -11  -1    1.52    0.84
   7  11   1    1.41    0.89
   1  12   1   15.27    2.18
   2  12   1    5.72    1.47
   2  12   1    3.59    0.94
  -3 -12  -1   15.23    1.65
   3  12   1   17.57    2.36
   3  12   1   13.56    2.01
  -4 -12  -1   35.90    2.16
  -4 -12  -1   31.26    1.96
   4  12   1   32.56    3.18
  -5 -12  -1    2.39    0.87
   5  12   1    3.52    1.28
   6  11  -2    0.19    0.70
  -6 -11   2    1.34    0.76
   5  11  -2    0.52    0.86
  -5 -11   2    1.99    0.84
   4  11  -2    6.29    1.51
  -4 -11   2    7.04    1.16
   3  11  -2   29.80    1.83
   3  11  -2   21.34    2.38
  -3 -11   2   27.11    1.86
  -3 -11   2   25.82    1.79
   2  11  -2    8.32    1.14
   2  11  -2    6.45    1.47
  -2 -11   2    7.78    1.15
   1  11  -2   15.54    1.44
   1  11  -2   15.67    2.03
   0  11  -2   13.98    2.04
   0  11  -2   12.95    1.36
  -1  11  -2    2.26    1.09
   8  10  -2   40.19    3.10
  -8 -10   2   40.54    2.45
   7  10  -2   37.49    2.85
  -7 -10   2   31.26    2.10
   6  10  -2    0.19    0.67
  -6 -10   2    0.23    0.67
   5  10  -2   47.19    3.04
  -5 -10   2   52.62    2.59
   4  10  -2    3.05    1.04
  -4 -10   2    3.32    0.82
   3  10  -2    2.70    0.70
   3  10  -2    2.77    0.98
  -3 -10   2    2.74    0.76
  -3 -10   2    3.40    0.79
   2  10  -2    1.79    0.65
   2  10  -2    1.49    0.84
  -2 -10   2    1.70    0.62
   1  10  -2   62.12    3.31
   1  10  -2   55.19    2.33
   0  10  -2   16.76    2.06
   0  10  -2   19.14    1.32
  -1  10  -2   -0.57    0.69
  -1  10  -2    0.04    0.63
  -1  10  -2    0.06    0.42
  -2  10  -2   12.05    0.92
  -2  10  -2   12.07    1.84
  -2  10  -2   16.47    1.79
   2 -10   2   11.49    1.56
  -3  10  -2    5.05    1.32
  -3  10  -2    4.73    1.13
   3 -10   2    4.27    1.16
   9   9  -2    2.34    1.12
  -9  -9   2    3.74    1.04
   8   9  -2   16.23    2.21
  -8  -9   2   16.50    1.69
   7   9  -2    3.88    1.19
   7   9  -2    5.17    1.00
  -7  -9   2    4.19    0.94
   6   9  -2   32.01    1.85
   6   9  -2   36.39    2.56
  -6  -9   2   31.23    1.96
   5   9  -2   21.29    2.25
  -5  -9   2   18.52    1.63
   4   9  -2    1.23    0.80
  -4  -9   2    0.40    0.57
   3   9  -2   30.51    1.65
   3   9  -2   32.52    2.29
  -3  -9   2   34.54    1.78
  -3  -9   2   35.75    1.90
   2   9  -2    1.17    0.50
   2   9  -2    1.37    0.67
  -2  -9   2    1.42    0.63
  -2  -9   2    2.33    0.68
   1   9  -2    7.04    0.90
   1   9  -2    6.54    0.89
   1   9  -2    6.15    1.23
  -1  -9   2    7.62    1.00
   0   9  -2    2.49    0.60
   0   9  -2    1.91    0.77
   0   9  -2    2.69    0.73
  -1   9  -2   37.81    1.64
  -1   9  -2   37.77    2.07
  -1   9  -2   35.93    2.48
  -1   9  -2   38.21    2.01
   1  -9   2   35.66    2.19
   1  -9   2   41.03    2.14
  -2   9  -2  109.36    3.98
  -2   9  -2  111.99    3.93
  -2   9  -2  113.02    3.07
  -2   9  -2  108.37    4.60
   2  -9   2  105.44    4.04
  -3   9  -2    2.03    0.94
  -3   9  -2    1.31    0.84
  -3   9  -2    0.36    0.64
   3  -9   2    1.71    0.81
  -4   9  -2   31.34    2.29
  -4   9  -2   36.93    2.78
   4  -9   2   30.57    2.38
   9   8  -2   -0.52    0.70
  -9  -8   2    1.24    0.80
   8   8  -2   14.76    2.05
   8   8  -2   14.23    1.51
  -8  -8   2   15.20    1.60
   7   8  -2    4.30    0.88
   7   8  -2    3.03    0.99
  -7  -8   2    2.58    0.75
   6   8  -2   14.37    1.33
   6   8  -2   14.25    1.83
  -6  -8   2   15.95    1.49
   5   8  -2    7.20    0.94
   5   8  -2    6.25    1.19
  -5  -8   2    5.84    0.91
   4   8  -2   52.57    2.77
   4   8  -2   52.59    2.09
  -4  -8   2   57.55    2.40
   3   8  -2  145.43    4.30
   3   8  -2  152.79    4.38
   3   8  -2  147.75    5.19
  -3  -8   2  166.00    4.62
  -3  -8   2  152.84    4.43
  -3  -8   2  157.32    4.61
   2   8  -2  141.54    4.06
   2   8  -2  141.27    4.16
   2   8  -2  139.62    4.93
  -2  -8   2  148.72    4.23
  -2  -8   2  142.81    4.28
   1   8  -2  116.35    4.28
   1   8  -2  113.45    3.54
   1   8  -2  116.96    3.42
   1   8  -2  111.65    3.56
  -1  -8   2  114.38    3.53
  -1  -8   2  109.53    3.55
   0   8  -2   54.47    2.23
   0   8  -2   51.64    2.71
   0   8  -2   53.13    2.00
   0   8  -2   51.78    2.21
   0  -8   2   56.16    2.30
   0  -8   2   54.13    2.23
   0  -8   2   57.24    2.19
  -1   8  -2    0.87    0.66
  -1   8  -2    1.44    0.44
  -1   8  -2    1.67    0.59
  -1   8  -2    0.80    0.56
   1  -8   2    1.08    0.50
   1  -8   2    1.23    0.58
  -2   8  -2    1.65    0.63
  -2   8  -2    2.45    0.46
  -2   8  -2    2.28    0.75
  -2   8  -2    1.68    0.78
   2  -8   2    1.93    0.61
   2  -8   2    2.81    0.80
  -3   8  -2   25.60    2.09
  -3   8  -2   23.45    1.63
  -3   8  -2   22.06    1.68
   3  -8   2   21.59    1.69
  -4   8  -2   13.67    1.61
  -4   8  -2   16.96    1.61
  -4   8  -2   15.29    1.96
   4  -8   2   15.38    1.71
  -5   8  -2   29.40    2.15
  -5   8  -2   31.85    2.61
   5  -8   2   23.76    2.34
  10   7  -2    1.64    1.01
 -10  -7   2    2.67    0.89
 -10  -7   2    1.68    1.15
   9   7  -2    9.64    1.82
  -9  -7   2    9.76    1.25
   8   7  -2   43.61    2.26
   8   7  -2   40.45    2.85
  -8  -7   2   42.27    2.24
   7   7  -2    1.07    0.56
   7   7  -2    0.68    0.65
  -7  -7   2    0.18    0.47
   6   7  -2    3.64    0.73
   6   7  -2    2.10    0.76
  -6  -7   2    3.36    0.73
   5   7  -2    2.23    0.55
   5   7  -2    1.56    0.54
   5   7  -2    1.91    0.75
  -5  -7   2    1.90    0.56
   4   7  -2    4.85    0.68
   4   7  -2    3.85    0.86
   4   7  -2    5.06    0.71
  -4  -7   2    4.60    0.77
  -4  -7   2    4.91    0.77
   3   7  -2    1.80    0.50
   3   7  -2    1.24    0.39
   3   7  -2    1.64    0.48
   3   7  -2    2.40    0.72
  -3  -7   2    1.45    0.50
  -3  -7   2    2.52    0.56
  -3  -7   2    1.76    0.52
   2   7  -2    1.99    0.50
   2   7  -2    2.10    0.45
   2   7  -2    2.39    0.53
   2   7  -2    2.07    0.66
  -2  -7   2    3.29    0.64
  -2  -7   2    2.48    0.53
  -2  -7   2    2.20    0.50
   1   7  -2  288.43    6.85
   1   7  -2  279.48    6.92
   1   7  -2  283.66    7.75
   1   7  -2  287.55    7.05
   1   7  -2  280.20    6.91
  -1  -7   2  279.29    6.88
  -1  -7   2  282.97    7.00
  -1  -7   2  278.43    6.95
  -1  -7   2  276.81    7.02
   0   7  -2   51.16    2.49
   0   7  -2   54.53    2.12
   0   7  -2   54.68    1.90
   0   7  -2   58.65    2.19
   0  -7   2   53.84    2.10
   0  -7   2   53.85    2.05
   0  -7   2   54.88    2.16
  -1   7  -2  132.20    4.04
  -1   7  -2  127.73    3.95
  -1   7  -2  132.61    3.52
  -1   7  -2  136.54    4.56
   1  -7   2  129.04    3.73
   1  -7   2  129.51    3.97
   1  -7   2  130.86    4.06
  -2   7  -2   74.58    3.23
  -2   7  -2   75.60    2.88
  -2   7  -2   75.17    2.15
  -2   7  -2   71.71    2.75
   2  -7   2   72.65    2.89
   2  -7   2   74.60    2.80
  -3   7  -2   22.45    0.68
  -3   7  -2   20.92    1.53
  -3   7  -2   23.39    1.52
  -3   7  -2   22.97    1.80
   3  -7   2   21.87    1.65
   3  -7   2   23.81    1.60
  -4   7  -2    6.95    1.15
  -4   7  -2    6.11    1.01
  -4   7  -2    7.76    1.38
   4  -7   2    6.29    1.12
  -5   7  -2   25.93    2.57
  -5   7  -2   27.66    2.01
  -5   7  -2   26.26    1.83
   5  -7   2   28.20    2.04
  -6   7  -2   16.08    1.82
  -6   7  -2   15.05    2.14
   6  -7   2   15.07    1.87
  10   6  -2   16.97    2.31
 -10  -6   2   25.18    1.99
 -10  -6   2   21.82    2.69
   9   6  -2    4.55    1.02
   9   6  -2    3.63    1.20
  -9  -6   2    4.93    0.93
  -9  -6   2    3.32    1.22
   8   6  -2   15.45    1.52
   8   6  -2   14.39    1.87
  -8  -6   2   13.24    1.89
  -8  -6   2   15.63    1.45
   7   6  -2   29.13    2.21
   7   6  -2   37.87    1.87
  -7  -6   2   33.30    2.36
  -7  -6   2   34.02    1.78
   6   6  -2  191.72    6.23
   6   6  -2  197.84    5.39
  -6  -6   2  194.82    5.41
   5   6  -2    4.88    0.70
   5   6  -2    4.79    0.69
   5   6  -2    4.12    0.91
  -5  -6   2    6.14    0.87
  -5  -6   2    5.67    0.83
   4   6  -2   29.45    1.25
   4   6  -2   27.19    1.27
   4   6  -2   25.46    1.69
   4   6  -2   26.78    1.36
   4   6  -2   26.95    1.31
  -4  -6   2   30.22    1.53
  -4  -6   2   25.87    1.42
   3   6  -2  126.93    3.40
   3   6  -2  119.53    3.46
   3   6  -2  125.16    4.14
   3   6  -2  127.01    3.47
   3   6  -2  127.63    3.60
  -3  -6   2  125.68    3.71
  -3  -6   2  130.43    3.76
   2   6  -2   10.29    0.90
   2   6  -2    9.47    0.70
   2   6  -2    8.36    0.70
   2   6  -2    9.20    0.64
   2   6  -2    9.18    0.87
   2   6  -2    9.03    1.09
  -2  -6   2    8.08    0.83
  -2  -6   2    7.49    0.77
  -2  -6   2   10.20    0.69
  -2  -6   2    9.75    0.88
   1   6  -2    2.40    0.45
   1   6  -2    1.88    0.42
   1   6  -2    2.29    0.47
   1   6  -2    2.49    0.37
   1   6  -2    1.52    0.50
   1   6  -2    2.69    0.48
  -1  -6   2    2.06    0.44
  -1  -6   2    2.26    0.46
  -1  -6   2    2.85    0.54
  -1  -6   2    2.03    0.41
   0   6  -2    0.95    0.45
   0   6  -2    0.88    0.35
   0   6  -2    0.99    0.33
   0   6  -2    1.39    0.42
   0   6  -2    0.97    0.37
   0  -6   2    1.05    0.40
   0  -6   2    0.94    0.29
   0  -6   2    1.07    0.39
  -1   6  -2  112.32    3.38
  -1   6  -2  107.40    3.37
  -1   6  -2  111.49    3.77
  -1   6  -2  108.02    2.93
   1  -6   2  107.36    3.32
   1  -6   2  107.98    3.42
  -2   6  -2  134.57    4.39
  -2   6  -2  126.51    3.91
  -2   6  -2  124.19    3.82
  -2   6  -2  128.59    3.20
   2  -6   2  126.48    3.97
   2  -6   2  126.12    3.87
  -3   6  -2    5.43    0.82
  -3   6  -2    6.16    1.06
  -3   6  -2    4.48    0.83
   3  -6   2    5.09    0.92
   3  -6   2    4.80    0.81
  -4   6  -2   79.09    3.00
  -4   6  -2   78.80    3.46
  -4   6  -2   79.35    3.13
   4  -6   2   78.03    3.18
   4  -6   2   83.43    3.13
  -5   6  -2   69.51    3.12
  -5   6  -2   79.75    3.06
  -5   6  -2   70.76    3.54
   5  -6   2   72.42    3.21
  -6   6  -2    3.36    0.91
  -6   6  -2    0.96    0.75
  -6   6  -2    1.84    1.04
   6  -6   2    1.50    0.80
  -7   6  -2   34.68    3.37
  -7   6  -2   26.88    2.38
   7  -6   2   34.39    2.41
 -11  -5   2    8.70    1.80
  10   5  -2   10.53    1.83
 -10  -5   2   11.89    2.00
   9   5  -2    7.47    1.50
   9   5  -2    9.49    1.28
  -9  -5   2    8.13    1.08
  -9  -5   2   10.13    1.76
   8   5  -2   37.71    1.96
   8   5  -2   29.02    2.26
  -8  -5   2   34.30    2.46
  -8  -5   2   36.91    1.82
   7   5  -2    0.49    0.58
   7   5  -2    0.20    0.44
  -7  -5   2    0.43    0.55
  -7  -5   2    0.44    0.48
   6   5  -2   12.60    1.08
   6   5  -2   10.35    1.35
   6   5  -2   12.98    1.16
  -6  -5   2   12.49    1.10
  -6  -5   2   11.83    1.47
   5   5  -2    3.53    0.54
   5   5  -2    2.99    0.54
   5   5  -2    3.81    0.78
   5   5  -2    3.46    0.57
  -5  -5   2    4.65    0.71
  -5  -5   2    3.24    0.74
  -5  -5   2    4.99    0.71
   4   5  -2  147.46    4.04
   4   5  -2  154.19    4.11
   4   5  -2  157.42    4.19
   4   5  -2  147.30    4.65
   4   5  -2  151.63    3.98
  -4  -5   2  155.35    4.22
  -4  -5   2  150.97    4.29
   3   5  -2   20.80    1.01
   3   5  -2   18.86    0.78
   3   5  -2   19.57    1.29
   3   5  -2   20.26    1.07
   3   5  -2   22.95    1.01
   3   5  -2   19.21    0.99
   3   5  -2   19.01    1.00
  -3  -5   2   19.77    1.10
  -3  -5   2   21.15    1.12
   2   5  -2   14.12    0.76
   2   5  -2   14.25    0.81
   2   5  -2   13.92    0.78
   2   5  -2   14.65    0.73
   2   5  -2   15.35    1.09
   2   5  -2   15.30    0.90
  -2  -5   2   12.67    0.85
  -2  -5   2   13.82    0.87
  -2  -5   2   14.00    0.84
   1   5  -2  149.15    3.82
   1   5  -2  147.58    3.58
   1   5  -2  143.77    3.87
   1   5  -2  145.17    3.73
   1   5  -2  147.14    3.77
   1   5  -2  146.04    4.28
  -1  -5   2  144.67    3.88
  -1  -5   2  147.74    3.82
  -1  -5   2  143.19    3.82
   0   5  -2   25.70    1.41
   0   5  -2   24.70    1.16
   0   5  -2   27.06    1.21
   0   5  -2   25.30    0.88
   0   5  -2   26.99    1.07
   0   5  -2   24.78    1.19
   0  -5   2   24.37    1.12
   0  -5   2   27.58    1.25
   0  -5   2   25.43    1.07
  -1   5  -2   21.43    0.92
  -1   5  -2   23.68    1.03
  -1   5  -2   21.68    1.16
  -1   5  -2   23.67    1.20
  -1   5  -2   21.30    1.14
  -1   5  -2   22.20    1.34
   1  -5   2   23.70    1.19
   1  -5   2   23.16    1.21
   1  -5   2   22.68    0.93
  -2   5  -2    2.09    0.50
  -2   5  -2    2.30    0.62
  -2   5  -2    2.61    0.32
  -2   5  -2    2.56    0.55
   2  -5   2    2.71    0.56
   2  -5   2    2.90    0.56
  -3   5  -2   63.14    2.37
  -3   5  -2   60.80    2.40
  -3   5  -2   63.25    2.69
   3  -5   2   62.00    2.37
   3  -5   2   62.34    2.48
  -4   5  -2   51.72    2.56
  -4   5  -2   52.08    2.22
  -4   5  -2   53.02    2.35
   4  -5   2   53.29    2.30
   4  -5   2   58.22    2.48
  -5   5  -2    1.07    0.55
  -5   5  -2    1.86    0.76
  -5   5  -2    1.16    0.63
   5  -5   2    0.39    0.47
   5  -5   2    1.14    0.67
  -6   5  -2   66.54    3.00
  -6   5  -2   67.92    2.88
  -6   5  -2   67.87    3.55
   6  -5   2   63.12    2.99
  -7   5  -2   67.35    4.35
  -7   5  -2   75.16    3.33
  -7   5  -2   68.83    4.00
   7  -5   2   65.29    3.24
  -8   5  -2   -0.31    0.70
  -8   5  -2    1.68    1.16
   8  -5   2    1.62    0.84
  11   4  -2    4.05    1.31
 -11  -4   2    7.71    1.74
  10   4  -2    0.13    0.78
 -10  -4   2    0.50    0.82
   9   4  -2   10.27    1.63
   9   4  -2   12.48    1.38
  -9  -4   2   10.99    1.76
   8   4  -2   29.88    2.26
   8   4  -2   34.27    1.85
  -8  -4   2   36.97    1.75
  -8  -4   2   30.77    2.32
   7   4  -2    0.31    0.45
   7   4  -2   -0.02    0.39
  -7  -4   2    0.96    0.61
  -7  -4   2    0.07    0.34
   6   4  -2  123.43    3.67
   6   4  -2  123.93    3.45
   6   4  -2  115.68    4.29
  -6  -4   2  111.76    4.26
  -6  -4   2  120.66    3.79
  -6  -4   2  125.99    3.60
   5   4  -2   36.73    1.48
   5   4  -2   33.28    1.87
   5   4  -2   33.97    1.54
   5   4  -2   39.03    1.50
  -5  -4   2   33.80    1.62
  -5  -4   2   36.83    1.54
  -5  -4   2   31.61    1.84
   4   4  -2    6.59    0.62
   4   4  -2    8.68    1.00
   4   4  -2    8.95    0.75
   4   4  -2    9.31    0.79
   4   4  -2    8.37    0.50
   4   4  -2    7.50    0.73
  -4  -4   2    9.46    0.86
  -4  -4   2    9.02    1.05
  -4  -4   2    6.93    0.75
   3   4  -2   22.98    1.04
   3   4  -2   26.04    1.05
   3   4  -2   22.97    1.03
   3   4  -2   22.33    1.05
   3   4  -2   24.36    1.33
   3   4  -2   24.15    0.86
  -3  -4   2   23.15    1.15
  -3  -4   2   23.51    1.12
   2   4  -2   70.95    2.09
   2   4  -2   72.83    1.96
   2   4  -2   70.76    2.12
   2   4  -2   72.96    2.10
   2   4  -2   69.00    2.05
   2   4  -2   74.83    2.23
   2   4  -2   74.61    2.48
  -2  -4   2   70.53    2.23
  -2  -4   2   74.05    2.24
  -2  -4   2   71.11    2.13
   1   4  -2   95.96    2.50
   1   4  -2   91.25    2.49
   1   4  -2   93.20    2.64
   1   4  -2   93.67    2.56
   1   4  -2   92.23    2.61
   1   4  -2   91.01    2.84
  -1  -4   2   91.58    2.54
  -1  -4   2   91.39    2.59
   0   4  -2   32.03    1.27
   0   4  -2   31.08    1.24
   0   4  -2   30.34    1.23
   0   4  -2   30.93    1.18
   0   4  -2   31.15    1.43
   0   4  -2   32.16    1.00
   0   4  -2   32.55    1.13
   0  -4   2   33.09    1.20
   0  -4   2   32.02    1.17
  -1   4  -2  345.06    7.56
  -1   4  -2  340.72    8.00
  -1   4  -2  344.88    7.96
  -1   4  -2  336.02    7.94
  -1   4  -2  340.00    7.74
  -1   4  -2  335.59    8.24
   1  -4   2  338.57    7.75
   1  -4   2  335.09    7.63
   1  -4   2  347.53    8.04
  -2   4  -2   65.96    2.45
  -2   4  -2   62.53    2.17
  -2   4  -2   67.90    1.73
  -2   4  -2   65.89    2.27
  -2   4  -2   63.50    1.84
  -2   4  -2   65.42    1.67
   2  -4   2   67.14    2.23
   2  -4   2   69.29    2.34
   2  -4   2   61.79    1.82
  -3   4  -2    1.05    0.42
  -3   4  -2    0.39    0.34
  -3   4  -2    0.66    0.40
   3  -4   2    0.87    0.38
   3  -4   2    0.97    0.42
  -4   4  -2   10.67    1.06
  -4   4  -2   10.36    1.08
  -4   4  -2    9.92    1.23
   4  -4   2   11.63    1.19
   4  -4   2   10.31    1.02
  -5   4  -2   45.31    2.17
  -5   4  -2   48.39    2.58
  -5   4  -2   47.84    2.09
   5  -4   2   47.09    2.26
   5  -4   2   51.09    2.19
  -6   4  -2   16.30    1.96
  -6   4  -2   13.68    1.46
  -6   4  -2   15.42    1.40
   6  -4   2   13.18    1.41
   6  -4   2   16.97    1.49
  -7   4  -2    8.69    1.58
  -7   4  -2    8.66    1.29
  -7   4  -2    7.74    1.14
   7  -4   2   10.51    1.42
  -8   4  -2   13.65    1.64
  -8   4  -2   18.02    2.51
   8  -4   2   12.55    1.65
  -9   4  -2   20.28    2.10
  -9   4  -2   25.28    2.93
   9  -4   2   21.67    2.17
  11   3  -2    4.49    1.36
 -11  -3   2    6.32    1.58
  10   3  -2   10.22    1.77
  10   3  -2    8.90    1.27
 -10  -3   2   11.54    1.98
   9   3  -2    4.40    0.85
   9   3  -2    5.68    1.33
  -9  -3   2    5.33    1.28
   8   3  -2    0.46    0.60
   8   3  -2    0.70    0.50
  -8  -3   2    0.21    0.42
  -8  -3   2    0.84    0.67
   7   3  -2    8.90    1.37
   7   3  -2    9.24    0.89
   7   3  -2   10.73    1.09
  -7  -3   2    7.71    0.93
  -7  -3   2    7.86    0.80
  -7  -3   2    9.48    1.44
   6   3  -2  178.24    4.53
   6   3  -2  171.75    4.71
   6   3  -2  168.38    5.53
  -6  -3   2  164.12    5.51
  -6  -3   2  171.42    4.54
  -6  -3   2  180.87    4.88
   5   3  -2   88.65    3.36
   5   3  -2   92.27    2.84
   5   3  -2   97.51    2.53
   5   3  -2   90.65    2.66
  -5  -3   2   92.30    2.74
  -5  -3   2   97.66    2.98
  -5  -3   2   88.62    3.36
   4   3  -2  165.09    4.11
   4   3  -2  159.47    4.83
   4   3  -2  178.57    4.28
   4   3  -2  166.32    4.34
   4   3  -2  176.69    4.09
  -4  -3   2  173.03    4.49
  -4  -3   2  170.88    4.32
  -4  -3   2  161.75    4.85
  -4  -3   2  170.74    4.09
   3   3  -2  216.27    5.16
   3   3  -2  213.54    5.16
   3   3  -2  209.23    4.95
   3   3  -2  219.72    5.03
   3   3  -2  222.79    5.17
   3   3  -2  210.35    5.55
  -3  -3   2  214.84    5.18
  -3  -3   2  204.31    5.55
  -3  -3   2  215.30    5.30
   2   3  -2   41.45    1.44
   2   3  -2   39.21    1.21
   2   3  -2   37.41    1.51
   2   3  -2   40.39    1.28
   2   3  -2   36.39    1.33
   2   3  -2   39.56    1.34
   2   3  -2   41.27    1.32
  -2  -3   2   37.55    1.39
  -2  -3   2   40.04    1.37
   1   3  -2   24.77    0.96
   1   3  -2   23.28    0.88
   1   3  -2   25.02    1.09
   1   3  -2   24.33    0.99
   1   3  -2   24.82    0.96
   1   3  -2   22.62    0.96
   1   3  -2   23.35    0.86
   1   3  -2   22.64    0.87
  -1  -3   2   22.93    0.95
  -1  -3   2   24.55    0.92
   0   3  -2  100.50    2.54
   0   3  -2  103.46    2.67
   0   3  -2  102.68    2.47
   0   3  -2  102.37    2.73
   0   3  -2  104.35    2.70
   0   3  -2  103.31    2.71
   0   3  -2  101.81    2.85
   0  -3   2  100.26    2.63
   0  -3   2   98.44    2.60
  -1   3  -2   98.70    2.74
  -1   3  -2   98.77    2.43
  -1   3  -2   99.71    2.39
  -1   3  -2   93.84    2.82
  -1   3  -2   99.52    2.71
  -1   3  -2   96.12    2.70
   1  -3   2   99.09    2.54
  -2   3  -2   91.36    2.65
  -2   3  -2   87.52    2.01
  -2   3  -2   90.39    2.80
  -2   3  -2   86.48    2.58
  -2   3  -2   89.10    2.66
  -2   3  -2   88.38    2.31
   2  -3   2   87.08    2.35
   2  -3   2   88.06    2.69
   2  -3   2   91.79    2.65
  -3   3  -2    4.44    0.68
  -3   3  -2    4.83    0.42
  -3   3  -2    5.90    0.66
  -3   3  -2    6.66    0.76
   3  -3   2    5.44    0.66
   3  -3   2    5.43    0.68
   3  -3   2    6.27    0.55
   3  -3   2    5.68    0.41
  -4   3  -2  144.10    4.05
  -4   3  -2  140.75    4.15
  -4   3  -2  143.84    4.55
   4  -3   2  146.32    4.23
   4  -3   2  146.53    4.12
  -5   3  -2   11.95    1.46
  -5   3  -2   10.39    1.02
  -5   3  -2   10.39    1.10
   5  -3   2    9.28    1.10
   5  -3   2    9.77    1.02
  -6   3  -2    8.23    1.05
  -6   3  -2    9.72    1.52
  -6   3  -2    8.17    1.02
   6  -3   2    9.42    1.15
   6  -3   2    9.63    1.09
  -7   3  -2   15.29    1.43
  -7   3  -2   17.99    1.64
  -7   3  -2   13.67    1.84
   7  -3   2   11.89    1.38
  -8   3  -2   13.10    2.01
  -8   3  -2   14.21    1.58
  -8   3  -2   10.86    1.38
   8  -3   2   10.18    1.44
  -9   3  -2    5.61    1.53
  -9   3  -2    4.30    1.06
   9  -3   2    3.24    0.99
  11   2  -2   43.30    3.33
 -11  -2   2   44.52    3.36
  10   2  -2    0.18    0.53
  10   2  -2    0.50    0.82
 -10  -2   2   -0.64    0.64
   9   2  -2   11.05    1.24
   9   2  -2   10.80    1.69
  -9  -2   2    7.97    1.53
   8   2  -2   36.53    1.88
   8   2  -2   35.02    2.49
   8   2  -2   39.67    1.83
  -8  -2   2   37.69    2.59
   7   2  -2    2.92    0.56
   7   2  -2    2.91    0.62
   7   2  -2    3.33    0.88
  -7  -2   2    4.04    0.67
  -7  -2   2    3.68    0.96
  -7  -2   2    3.29    0.55
   6   2  -2   14.17    0.89
   6   2  -2   14.48    0.99
   6   2  -2   16.23    0.97
   6   2  -2   16.72    1.73
  -6  -2   2   14.06    1.00
  -6  -2   2   14.32    0.87
  -6  -2   2   13.40    1.52
   5   2  -2   14.36    0.81
   5   2  -2   13.69    0.88
   5   2  -2   15.11    0.82
   5   2  -2   12.42    1.35
  -5  -2   2   12.59    1.33
  -5  -2   2   15.65    0.85
  -5  -2   2   12.61    0.88
   4   2  -2  171.78    4.18
   4   2  -2  172.70    4.30
   4   2  -2  174.44    4.10
   4   2  -2  154.74    4.78
  -4  -2   2  174.52    4.39
  -4  -2   2  152.80    4.76
  -4  -2   2  171.57    4.18
  -4  -2   2  171.99    3.87
   3   2  -2  125.67    3.12
   3   2  -2  126.68    3.69
   3   2  -2  129.29    3.41
   3   2  -2  130.07    3.25
   3   2  -2  126.61    3.31
   3   2  -2  131.45    3.15
  -3  -2   2  132.37    3.27
  -3  -2   2  130.61    3.41
  -3  -2   2  123.85    3.69
   2   2  -2    1.13    0.23
   2   2  -2    1.31    0.26
   2   2  -2    1.54    0.30
   2   2  -2    1.29    0.25
   2   2  -2    1.04    0.20
   2   2  -2    1.10    0.25
   2   2  -2    2.29    0.40
  -2  -2   2    0.98    0.24
  -2  -2   2    1.43    0.31
   1   2  -2  196.03    4.55
   1   2  -2  196.53    4.45
   1   2  -2  187.61    4.55
   1   2  -2  198.15    4.48
   1   2  -2  194.36    4.43
   1   2  -2  195.69    4.59
   1   2  -2  188.58    4.53
   1   2  -2  192.84    4.63
  -1  -2   2  195.08    4.56
   0   2  -2  221.32    5.09
   0   2  -2  220.74    5.12
   0   2  -2  216.03    4.93
   0   2  -2  223.49    5.11
   0   2  -2  218.40    5.09
   0  -2   2  225.63    5.11
   0  -2   2  224.10    4.98
  -1   2  -2   78.46    1.83
  -1   2  -2   75.72    2.15
  -1   2  -2   73.84    1.83
  -1   2  -2   77.99    2.13
  -1   2  -2   79.65    2.16
  -1   2  -2   65.46    2.00
  -1   2  -2   78.26    2.12
   1  -2   2   81.05    2.07
  -2   2  -2  700.11   15.94
  -2   2  -2  760.32   15.83
  -2   2  -2  634.21   15.51
  -2   2  -2  762.24   15.92
  -2   2  -2  750.22   15.84
   2  -2   2  742.33   15.84
   2  -2   2  731.24   15.55
   2  -2   2  727.20   15.67
  -3   2  -2  127.21    3.50
  -3   2  -2  132.98    3.63
  -3   2  -2  133.32    3.86
  -3   2  -2  128.72    3.44
  -3   2  -2  133.26    3.24
   3  -2   2  136.43    3.32
   3  -2   2  131.31    3.57
   3  -2   2  133.59    3.67
   3  -2   2  134.55    3.25
  -4   2  -2   10.62    1.16
  -4   2  -2   10.70    0.90
  -4   2  -2   11.82    0.77
  -4   2  -2    9.67    0.90
  -4   2  -2   11.42    0.63
   4  -2   2   10.73    0.81
   4  -2   2   10.48    0.63
   4  -2   2   11.02    0.62
   4  -2   2    8.45    0.86
  -5   2  -2    4.70    0.64
  -5   2  -2    4.72    0.71
  -5   2  -2    4.30    0.89
  -5   2  -2    4.28    0.65
   5  -2   2    3.68    0.66
   5  -2   2    3.55    0.63
  -6   2  -2  186.25    5.24
  -6   2  -2  184.88    6.07
  -6   2  -2  183.37    5.07
   6  -2   2  183.97    5.30
   6  -2   2  180.41    5.12
  -7   2  -2   20.97    2.21
  -7   2  -2   22.69    1.50
  -7   2  -2   23.31    1.61
   7  -2   2   22.55    1.52
   7  -2   2   25.46    1.69
  -8   2  -2   26.66    2.68
  -8   2  -2   25.59    1.69
  -8   2  -2   30.71    1.95
   8  -2   2   28.50    1.97
  -9   2  -2   14.56    1.58
  -9   2  -2   20.68    2.45
  -9   2  -2   15.68    1.64
   9  -2   2   15.69    1.69
 -10   2  -2   19.36    2.01
 -10   2  -2   21.53    2.69
  10  -2   2   18.40    1.98
  10  -2   2   18.77    2.46
  11   1  -2    3.06    1.33
 -11  -1   2    2.39    1.29
  10   1  -2   30.06    3.09
 -10  -1   2   36.56    3.44
   9   1  -2   68.89    3.08
   9   1  -2   69.19    3.75
   9   1  -2   64.17    2.69
  -9  -1   2   68.44    3.74
   8   1  -2   14.25    1.29
   8   1  -2   12.23    1.75
   8   1  -2   13.46    1.21
  -8  -1   2   13.42    1.78
   7   1  -2   38.06    1.73
   7   1  -2   34.51    2.30
   7   1  -2   40.04    1.74
   7   1  -2   37.41    1.73
  -7  -1   2   40.60    1.78
  -7  -1   2   38.34    2.43
   6   1  -2  131.87    4.69
   6   1  -2  132.11    3.67
   6   1  -2  128.45    3.72
   6   1  -2  131.71    3.71
  -6  -1   2  124.97    4.64
  -6  -1   2  134.09    3.75
  -6  -1   2  134.38    3.45
   5   1  -2    0.38    0.29
   5   1  -2    1.24    0.36
   5   1  -2    0.86    0.42
   5   1  -2    1.02    0.33
  -5  -1   2    0.30    0.24
  -5  -1   2    1.56    0.55
  -5  -1   2    1.14    0.29
   4   1  -2    0.31    0.22
   4   1  -2    0.36    0.25
   4   1  -2    0.25    0.28
   4   1  -2    0.77    0.26
  -4  -1   2    0.31    0.11
  -4  -1   2    0.37    0.20
  -4  -1   2    0.17    0.26
  -4  -1   2    0.01    0.18
   3   1  -2   85.57    2.33
   3   1  -2   84.85    2.29
   3   1  -2   85.92    2.30
   3   1  -2   73.21    2.66
   3   1  -2   89.74    2.39
  -3  -1   2   87.56    2.38
  -3  -1   2   85.89    2.07
  -3  -1   2   79.30    2.74
  -3  -1   2   89.09    2.24
   2   1  -2  530.63   13.14
   2   1  -2  606.19   12.88
   2   1  -2  614.05   12.92
   2   1  -2  616.21   12.85
   2   1  -2  610.91   12.77
   2   1  -2  627.77   13.00
  -2  -1   2  547.35   13.17
  -2  -1   2  612.98   12.96
   1   1  -2  852.98   18.45
   1   1  -2  869.65   18.47
   1   1  -2  878.58   18.49
   1   1  -2  863.65   18.45
   1   1  -2  883.26   18.40
  -1  -1   2  840.91   18.43
  -1  -1   2  867.92   18.48
   0   1  -2   43.99    1.18
   0   1  -2   37.47    1.15
   0   1  -2   38.19    1.18
   0   1  -2   38.92    1.15
   0   1  -2   36.60    1.09
   0   1  -2   38.08    1.04
   0  -1   2   38.42    1.15
   0  -1   2   35.71    1.10
   0  -1   2   37.46    1.17
  -1   1  -2  413.99    8.89
  -1   1  -2  413.24    8.92
  -1   1  -2  409.69    8.88
  -1   1  -2  383.97    8.90
  -1   1  -2  401.50    8.85
   1  -1   2  407.49    8.92
  -2   1  -2  174.85    4.33
  -2   1  -2  169.70    4.22
  -2   1  -2  171.26    4.14
  -2   1  -2  175.67    4.18
  -2   1  -2  173.03    4.05
  -2   1  -2  178.36    4.18
   2  -1   2  177.28    4.09
   2  -1   2  174.53    4.05
  -3   1  -2    0.66    0.25
  -3   1  -2    0.42    0.18
  -3   1  -2    0.11    0.25
  -3   1  -2    0.52    0.23
  -3   1  -2    0.32    0.22
   3  -1   2    0.45    0.24
   3  -1   2    0.26    0.20
   3  -1   2    0.21    0.16
   3  -1   2    0.30    0.17
  -4   1  -2   88.16    2.57
  -4   1  -2   89.99    3.15
  -4   1  -2   90.44    2.51
  -4   1  -2   87.17    2.67
  -4   1  -2   87.24    2.45
   4  -1   2   86.63    2.42
   4  -1   2   91.64    2.46
   4  -1   2   86.79    2.62
   4  -1   2   91.60    2.74
  -5   1  -2   67.62    2.25
  -5   1  -2   67.26    2.09
  -5   1  -2   69.25    2.12
  -5   1  -2   68.68    2.92
  -5   1  -2   67.05    2.33
   5  -1   2   65.13    2.26
   5  -1   2   65.37    2.36
   5  -1   2   65.69    2.07
  -6   1  -2   44.19    1.94
  -6   1  -2   49.47    1.96
  -6   1  -2   44.74    1.89
  -6   1  -2   43.58    2.43
   6  -1   2   45.07    2.00
   6  -1   2   46.39    1.67
   6  -1   2   44.91    1.89
  -7   1  -2   45.18    2.08
  -7   1  -2   39.03    2.43
  -7   1  -2   42.11    1.92
   7  -1   2   44.41    2.00
   7  -1   2   39.84    2.02
  -8   1  -2   43.71    2.10
  -8   1  -2   51.77    2.89
  -8   1  -2   42.45    2.16
   8  -1   2   40.52    2.18
   8  -1   2   48.64    2.20
  -9   1  -2   98.45    4.47
  -9   1  -2   92.50    3.57
   9  -1   2   88.39    3.58
   9  -1   2   93.18    4.39
 -10   1  -2    1.35    0.99
  10  -1   2    0.23    0.73
  10   0  -2    0.25    0.83
 -10   0   2    1.34    1.07
   9   0  -2    1.59    0.90
  -9   0   2    1.09    0.88
   8   0  -2    0.72    0.62
   8   0  -2    0.77    0.53
   8   0  -2   -0.49    0.45
   8   0  -2    0.59    0.46
  -8   0   2    0.80    0.74
   7   0  -2   43.89    1.92
   7   0  -2   37.04    1.71
   7   0  -2   43.44    1.91
  -7   0   2   39.87    2.50
   6   0  -2  141.19    4.00
   6   0  -2  141.97    4.02
   6   0  -2  139.60    3.90
  -6   0   2  141.69    3.86
  -6   0   2  141.82    4.98
   5   0  -2    0.10    0.27
   5   0  -2    0.15    0.26
   5   0  -2    0.17    0.25
  -5   0   2    0.00    0.32
  -5   0   2    0.13    0.18
  -5   0   2    0.03    0.22
   4   0  -2  375.91    8.48
   4   0  -2  372.58    8.52
   4   0  -2  375.07    8.55
   4   0  -2  382.18    8.46
  -4   0   2  365.74    9.44
  -4   0   2  369.48    8.43
  -4   0   2  365.94    8.16
   3   0  -2   12.96    0.67
   3   0  -2   14.17    0.68
   3   0  -2   14.00    0.71
   3   0  -2   12.90    0.68
  -3   0   2   13.48    0.49
  -3   0   2   13.80    0.67
  -3   0   2   13.64    1.01
   2   0  -2  666.36   14.14
   2   0  -2  649.93   14.12
   2   0  -2  664.58   14.15
   2   0  -2  680.82   14.18
  -2   0   2  608.56   14.61
  -2   0   2  667.73   14.12
   1   0  -2  222.37    4.86
   1   0  -2  220.64    4.91
   1   0  -2  213.91    4.88
   1   0  -2  208.79    4.86
   1   0  -2  217.82    4.91
  -1   0   2  217.54    4.87
  -1   0   2  217.71    4.91
   0   0  -2  117.81    2.70
   0   0  -2  117.91    2.83
   0   0  -2  117.33    2.78
   0   0  -2  110.69    2.74
   0   0   2  115.09    2.76
   0   0   2  117.78    2.83
  -1   0  -2    2.25    0.22
  -1   0  -2    2.73    0.26
  -1   0  -2    2.74    0.29
  -1   0  -2    3.12    0.30
   1   0   2    2.51    0.28
   1   0   2    2.52    0.24
  -2   0  -2   29.28    0.96
  -2   0  -2   28.31    0.97
  -2   0  -2   27.77    0.98
  -2   0  -2   27.72    0.94
  -2   0  -2   29.71    0.94
  -2   0  -2   27.90    0.97
   2   0   2   28.34    0.96
   2   0   2   29.57    0.98
  -3   0  -2  235.36    5.47
  -3   0  -2  236.08    5.44
  -3   0  -2  229.96    5.42
  -3   0  -2  235.74    5.54
  -3   0  -2  238.73    5.92
  -3   0  -2  234.86    5.47
   3   0   2  239.46    5.49
   3   0   2  238.88    5.48
   3   0   2  236.28    5.48
  -4   0  -2  166.78    4.16
  -4   0  -2  177.78    4.35
  -4   0  -2  171.46    4.85
  -4   0  -2  170.81    4.25
  -4   0  -2  172.55    4.25
   4   0   2  170.49    4.35
   4   0   2  173.28    4.26
   4   0   2  172.94    4.26
   4   0   2  169.77    4.28
  -5   0  -2    0.17    0.23
  -5   0  -2    0.26    0.22
  -5   0  -2    0.02    0.27
  -5   0  -2    0.00    0.26
  -5   0  -2    0.46    0.26
   5   0   2    0.31    0.27
   5   0   2    0.46    0.31
   5   0   2    0.23    0.23
  -6   0  -2  103.41    3.85
  -6   0  -2  108.38    3.26
  -6   0  -2  102.86    3.00
  -6   0  -2  108.14    3.17
  -6   0  -2  106.10    3.14
   6   0   2  115.54    3.15
   6   0   2  105.46    3.13
   6   0   2  107.00    3.30
   6   0   2  107.35    3.21
  -7   0  -2  227.83    5.97
  -7   0  -2  223.18    6.06
  -7   0  -2  233.35    7.01
   7   0   2  225.96    6.02
   7   0   2  233.24    5.88
   7   0   2  226.49    6.95
   7   0   2  239.06    6.19
  -8   0  -2    3.11    0.75
  -8   0  -2    3.86    0.76
  -8   0  -2    2.49    0.87
   8   0   2    2.29    0.63
   8   0   2    3.14    0.77
   8   0   2    3.16    0.95
  -9   0  -2   18.91    2.17
   9   0   2   18.32    2.11
 -10   0  -2   10.75    1.81
  10   0   2   10.41    1.73
  10  -1  -2    1.07    0.96
 -10   1   2    0.21    0.97
   9  -1  -2   43.37    2.34
  -9   1   2   36.98    2.86
   8  -1  -2   28.32    1.68
   8  -1  -2   26.93    1.74
  -8   1   2   29.09    2.36
   7  -1  -2    2.34    0.62
   7  -1  -2    2.16    0.53
   7  -1  -2    1.65    0.53
  -7   1   2    1.87    0.82
   6  -1  -2   83.33    2.59
   6  -1  -2   83.45    2.78
   6  -1  -2   79.05    2.78
  -6   1   2   81.31    3.67
   5  -1  -2   57.24    1.82
   5  -1  -2   57.94    1.90
   5  -1  -2   58.14    2.06
   5  -1  -2   52.99    2.03
  -5   1   2   57.59    1.81
  -5   1   2   55.64    2.76
   4  -1  -2  148.90    3.80
   4  -1  -2  152.38    4.03
   4  -1  -2  152.85    3.74
   4  -1  -2  154.45    3.99
  -4   1   2  153.44    4.83
  -4   1   2  148.82    3.70
   3  -1  -2    2.84    0.32
   3  -1  -2    3.20    0.38
   3  -1  -2    3.73    0.46
   3  -1  -2    3.59    0.45
  -3   1   2    4.44    0.73
  -3   1   2    3.49    0.28
  -3   1   2    3.10    0.33
   2  -1  -2  441.77    9.50
   2  -1  -2  426.82    9.33
   2  -1  -2  424.09    9.39
   2  -1  -2  439.73    9.55
  -2   1   2  431.02    9.30
  -2   1   2  418.08    9.91
   1  -1  -2    6.56    0.41
   1  -1  -2    7.52    0.43
   1  -1  -2    7.65    0.41
   1  -1  -2    6.47    0.38
   1  -1  -2    7.84    0.45
  -1   1   2    8.22    0.42
  -1   1   2    7.68    0.39
   0  -1  -2   66.55    1.64
   0  -1  -2   67.81    1.71
   0  -1  -2   67.83    1.73
   0   1   2   66.05    1.70
   0   1   2   66.53    1.64
  -1  -1  -2   12.20    0.36
  -1  -1  -2   11.46    0.51
  -1  -1  -2   11.28    0.50
  -1  -1  -2   11.77    0.37
   1   1   2   11.80    0.52
   1   1   2   11.52    0.43
   1   1   2   11.53    0.51
  -2  -1  -2  195.33    4.35
  -2  -1  -2  194.16    4.56
  -2  -1  -2  197.93    4.56
  -2  -1  -2  195.78    4.49
  -2  -1  -2  196.83    4.43
  -2  -1  -2  191.77    4.31
   2   1   2  195.89    4.36
   2   1   2  194.84    4.55
   2   1   2  200.13    4.56
  -3  -1  -2  352.88    8.09
  -3  -1  -2  349.21    7.84
  -3  -1  -2  350.37    7.74
  -3  -1  -2  343.95    7.61
  -3  -1  -2  344.32    7.83
  -3  -1  -2  349.91    7.70
   3   1   2  350.79    7.64
   3   1   2  341.43    8.05
   3   1   2  340.44    7.82
   3   1   2  339.21    7.82
  -4  -1  -2   12.37    0.91
  -4  -1  -2   13.69    0.72
  -4  -1  -2   12.02    0.68
  -4  -1  -2   13.31    0.68
  -4  -1  -2   15.17    0.82
   4   1   2   15.58    0.73
   4   1   2   14.81    0.97
   4   1   2   14.57    0.80
   4   1   2   13.87    0.74
   4   1   2   13.88    0.90
  -5  -1  -2   65.65    2.59
  -5  -1  -2   67.38    2.09
  -5  -1  -2   69.17    2.23
  -5  -1  -2   66.57    2.04
  -5  -1  -2   67.86    2.07
   5   1   2   68.08    2.61
   5   1   2   68.58    2.20
   5   1   2   64.76    2.05
   5   1   2   66.91    2.12
  -6  -1  -2   66.15    2.22
  -6  -1  -2   68.97    2.38
  -6  -1  -2   71.67    2.92
  -6  -1  -2   69.23    2.21
  -6  -1  -2   72.33    2.31
   6   1   2   72.06    2.92
   6   1   2   68.54    2.31
   6   1   2   69.73    2.26
   6   1   2   68.24    2.36
  -7  -1  -2   78.29    3.32
  -7  -1  -2   79.51    2.63
  -7  -1  -2   76.34    2.70
  -7  -1  -2   74.33    2.48
   7   1   2   78.65    2.63
   7   1   2   77.78    2.68
   7   1   2   82.91    3.39
   7   1   2   74.62    2.63
   7   1   2   78.22    2.60
  -8  -1  -2    4.88    1.08
  -8  -1  -2    5.32    1.11
   8   1   2    6.84    1.23
   8   1   2    3.99    0.87
   8   1   2    4.73    0.77
   8   1   2    5.59    0.81
  -9  -1  -2   41.24    2.71
   9   1   2   40.02    2.64
   9   1   2   37.59    1.92
 -10  -1  -2    2.16    1.05
  10   1   2    1.64    0.96
 -11  -1  -2    2.65    1.19
  11   1   2    1.04    1.09
  10  -2  -2    1.69    0.96
 -10   2   2    1.01    1.07
   9  -2  -2   22.77    1.99
  -9   2   2   21.97    2.71
   8  -2  -2    5.72    1.00
  -8   2   2    3.85    1.23
   7  -2  -2   20.17    1.40
   7  -2  -2   22.64    1.57
  -7   2   2   22.63    2.43
   6  -2  -2   93.10    3.20
   6  -2  -2   90.88    3.11
   6  -2  -2   99.20    3.02
  -6   2   2   94.41    4.11
   5  -2  -2    3.00    0.47
   5  -2  -2    2.82    0.58
   5  -2  -2    2.20    0.49
  -5   2   2    2.72    0.77
   4  -2  -2    0.82    0.32
   4  -2  -2    0.47    0.24
   4  -2  -2    0.48    0.18
   4  -2  -2    0.62    0.32
  -4   2   2    0.41    0.37
  -4   2   2    0.82    0.20
   3  -2  -2  231.45    5.27
   3  -2  -2  224.74    5.59
   3  -2  -2  224.33    5.50
   3  -2  -2  222.37    5.09
  -3   2   2  233.49    6.12
  -3   2   2  231.70    5.09
  -3   2   2  230.62    5.46
  -3   2   2  223.37    5.06
   2  -2  -2  176.66    4.41
   2  -2  -2  184.65    4.20
   2  -2  -2  183.91    4.35
   2  -2  -2  178.13    4.05
   2  -2  -2  179.95    4.28
  -2   2   2  176.57    4.70
  -2   2   2  179.20    4.29
  -2   2   2  179.55    3.99
   1  -2  -2  110.32    2.52
   1  -2  -2  108.18    2.69
   1  -2  -2  102.45    2.64
   1  -2  -2  110.12    2.71
   1  -2  -2  109.29    2.79
  -1   2   2  109.19    2.55
  -1   2   2  109.58    2.97
  -1   2   2  109.93    2.65
   0  -2  -2    5.06    0.34
   0  -2  -2    4.56    0.28
   0  -2  -2    4.83    0.33
   0  -2  -2    4.54    0.29
   0   2   2    4.73    0.46
   0   2   2    3.19    0.24
   0   2   2    4.92    0.30
   0   2   2    4.33    0.28
  -1  -2  -2  696.02   14.96
  -1  -2  -2  700.50   14.91
  -1  -2  -2  705.51   14.97
  -1  -2  -2  685.32   14.83
   1   2   2  702.95   14.96
   1   2   2  701.53   14.96
  -2  -2  -2  160.49    3.76
  -2  -2  -2  155.88    3.42
  -2  -2  -2  155.66    3.81
  -2  -2  -2  153.15    3.80
   2   2   2  165.76    3.91
   2   2   2  157.32    3.81
   2   2   2  159.01    3.43
   2   2   2  153.94    3.43
   2   2   2  156.11    3.42
   2   2   2  161.36    3.83
  -3  -2  -2  220.80    5.12
  -3  -2  -2  219.80    4.88
  -3  -2  -2  220.65    5.39
  -3  -2  -2  211.26    4.79
  -3  -2  -2  216.74    5.20
   3   2   2  216.81    4.81
   3   2   2  218.82    4.81
   3   2   2  219.80    5.37
   3   2   2  217.48    5.20
   3   2   2  215.53    5.21
  -4  -2  -2   17.69    0.73
  -4  -2  -2   19.72    1.12
  -4  -2  -2   17.73    0.92
  -4  -2  -2   17.19    0.85
   4   2   2   17.08    0.91
   4   2   2   19.32    1.10
   4   2   2   17.47    0.71
   4   2   2   17.50    0.74
  -5  -2  -2    8.16    0.78
  -5  -2  -2    8.84    0.75
  -5  -2  -2    8.30    0.56
  -5  -2  -2    9.17    1.02
   5   2   2    8.44    0.59
   5   2   2    7.86    0.75
   5   2   2    9.64    0.58
   5   2   2   10.07    1.07
  -6  -2  -2   37.50    1.97
  -6  -2  -2   32.89    1.56
  -6  -2  -2   35.42    1.46
  -6  -2  -2   33.37    1.35
   6   2   2   35.69    1.40
   6   2   2   37.61    1.63
   6   2   2   33.97    1.89
   6   2   2   32.95    1.33
  -7  -2  -2    9.36    1.27
  -7  -2  -2    8.63    0.94
  -7  -2  -2    9.26    0.90
   7   2   2    9.23    1.24
   7   2   2   10.66    1.02
   7   2   2    9.47    0.85
   7   2   2   11.35    1.09
  -8  -2  -2   12.47    1.60
  -8  -2  -2   13.87    1.16
   8   2   2   13.82    1.66
   8   2   2   13.12    1.20
  -9  -2  -2   29.30    2.26
   9   2   2   30.85    2.32
   9   2   2   34.61    1.85
 -10  -2  -2    0.75    0.80
  10   2   2    2.15    0.96
  10   2   2    1.32    0.69
 -11  -2  -2   28.84    2.94
   9  -3  -2    0.13    0.73
  -9   3   2   -0.17    0.75
   8  -3  -2    4.58    1.02
  -8   3   2    3.33    1.28
   7  -3  -2    4.36    0.88
  -7   3   2    5.79    1.36
   6  -3  -2   51.18    2.30
   6  -3  -2   50.57    2.17
  -6   3   2   44.37    2.83
   5  -3  -2   16.58    1.13
   5  -3  -2   18.54    1.24
  -5   3   2   19.73    1.21
  -5   3   2   16.35    1.74
   4  -3  -2   84.46    2.68
   4  -3  -2   82.90    2.33
   4  -3  -2   82.98    2.77
  -4   3   2   87.88    3.32
  -4   3   2   78.30    1.87
  -4   3   2   87.13    2.76
  -4   3   2   82.41    2.61
   3  -3  -2   77.13    1.83
   3  -3  -2   79.96    2.44
   3  -3  -2   81.14    2.55
   3  -3  -2   78.14    2.15
  -3   3   2   81.86    2.91
  -3   3   2   74.68    2.46
  -3   3   2   80.68    1.80
  -3   3   2   78.53    2.09
  -3   3   2   80.97    2.01
  -3   3   2   77.64    2.38
   2  -3  -2   27.20    0.97
   2  -3  -2   27.01    0.69
   2  -3  -2   27.11    1.11
   2  -3  -2   27.99    1.21
   2  -3  -2   27.42    1.08
  -2   3   2   28.78    1.09
  -2   3   2   27.87    0.69
  -2   3   2   28.26    0.70
  -2   3   2   29.23    1.41
   1  -3  -2  424.04    9.43
   1  -3  -2  419.95    9.29
   1  -3  -2  419.82    8.95
   1  -3  -2  425.15    9.32
  -1   3   2  413.29    9.00
  -1   3   2  421.05    9.76
  -1   3   2  415.59    8.95
  -1   3   2  422.09    9.24
   0  -3  -2  130.99    3.19
   0  -3  -2  131.04    3.03
   0  -3  -2  126.34    3.17
   0  -3  -2  129.34    3.03
   0  -3  -2  127.16    3.05
   0   3   2  126.73    3.02
   0   3   2  133.99    3.50
   0   3   2  129.69    3.06
   0   3   2  128.01    3.02
   0   3   2  128.89    3.00
  -1  -3  -2   19.59    0.59
  -1  -3  -2   20.33    0.80
  -1  -3  -2   19.36    0.75
  -1  -3  -2   19.14    0.73
  -1  -3  -2   20.13    0.77
   1   3   2   19.53    0.78
   1   3   2   19.83    0.60
   1   3   2   19.26    0.94
   1   3   2   20.77    0.80
   1   3   2   19.96    0.57
  -2  -3  -2   38.99    1.12
  -2  -3  -2   39.15    1.26
  -2  -3  -2   37.80    1.30
   2   3   2   37.68    1.29
   2   3   2   39.58    1.46
   2   3   2   38.90    1.32
  -3  -3  -2  720.96   15.71
  -3  -3  -2  724.21   15.60
   3   3   2  711.32   15.90
   3   3   2  697.76   15.67
   3   3   2  730.18   16.04
  -4  -3  -2  277.77    6.78
  -4  -3  -2  266.57    5.88
  -4  -3  -2  265.36    6.46
  -4  -3  -2  271.02    6.35
   4   3   2  264.08    5.86
   4   3   2  260.16    5.84
   4   3   2  274.88    5.90
   4   3   2  264.77    6.71
   4   3   2  260.18    6.43
  -5  -3  -2   60.13    2.42
  -5  -3  -2   57.45    2.10
  -5  -3  -2   58.57    1.98
  -5  -3  -2   59.98    1.66
   5   3   2   59.99    1.68
   5   3   2   59.60    1.66
   5   3   2   57.31    2.36
   5   3   2   60.53    2.12
  -6  -3  -2   27.23    1.66
  -6  -3  -2   28.38    1.43
  -6  -3  -2   26.69    1.32
   6   3   2   27.11    1.64
   6   3   2   27.66    1.41
   6   3   2   25.37    1.05
  -7  -3  -2  124.65    3.65
  -7  -3  -2  131.42    4.52
  -7  -3  -2  120.37    3.85
   7   3   2  125.89    3.81
   7   3   2  123.59    4.41
   7   3   2  125.00    3.88
  -8  -3  -2    1.42    0.51
  -8  -3  -2    0.36    0.54
   8   3   2    0.68    0.65
   8   3   2    1.20    0.58
  -9  -3  -2   31.10    1.68
  -9  -3  -2   33.00    2.41
   9   3   2   32.48    1.83
   9   3   2   35.30    2.43
 -10  -3  -2    2.64    1.00
  10   3   2    1.52    0.86
  10   3   2    3.07    0.88
 -11  -3  -2   23.83    2.70
  11   3   2   27.46    2.79
   9  -4  -2   51.71    2.92
  -9   4   2   54.54    3.92
   8  -4  -2   16.37    1.74
  -8   4   2   16.68    2.42
   7  -4  -2   28.69    1.92
  -7   4   2   35.89    2.79
   6  -4  -2   41.63    2.20
   6  -4  -2   49.08    2.25
  -6   4   2   46.60    2.15
  -6   4   2   49.82    3.03
   5  -4  -2   13.27    1.20
   5  -4  -2   11.64    1.19
  -5   4   2   14.71    1.23
  -5   4   2   11.61    1.53
   4  -4  -2    7.56    0.84
   4  -4  -2    8.24    0.98
  -4   4   2    7.82    0.38
  -4   4   2    7.40    0.81
  -4   4   2    8.70    1.20
  -4   4   2    6.95    0.87
   3  -4  -2    0.34    0.34
   3  -4  -2    0.37    0.28
  -3   4   2    0.16    0.33
  -3   4   2    0.27    0.19
  -3   4   2    0.37    0.33
  -3   4   2    0.27    0.28
   2  -4  -2  113.77    3.15
   2  -4  -2  117.27    3.13
   2  -4  -2  114.63    3.31
  -2   4   2  117.91    3.68
  -2   4   2  113.11    3.11
  -2   4   2  114.60    2.93
  -2   4   2  116.19    3.28
   1  -4  -2  156.46    3.93
   1  -4  -2  154.70    3.87
   1  -4  -2  160.81    4.06
  -1   4   2  158.02    3.51
  -1   4   2  154.41    4.39
  -1   4   2  157.67    3.84
  -1   4   2  152.48    3.47
   0  -4  -2   69.65    2.08
   0  -4  -2   72.65    1.91
   0  -4  -2   71.64    1.95
   0  -4  -2   73.94    2.11
   0  -4  -2   74.66    1.90
   0   4   2   73.08    1.89
   0   4   2   72.39    1.89
   0   4   2   73.98    2.46
   0   4   2   72.65    1.93
  -1  -4  -2  332.71    7.68
  -1  -4  -2  345.77    7.72
  -1  -4  -2  338.83    7.47
  -1  -4  -2  355.94    7.67
  -1  -4  -2  346.39    7.50
  -1  -4  -2  345.53    7.76
   1   4   2  348.07    7.50
   1   4   2  343.39    7.47
   1   4   2  346.93    8.24
   1   4   2  349.35    7.72
   1   4   2  338.73    7.72
  -2  -4  -2  378.02    8.49
  -2  -4  -2  361.89    8.40
  -2  -4  -2  370.24    7.88
  -2  -4  -2  381.22    8.31
  -2  -4  -2  375.89    8.14
  -2  -4  -2  372.72    7.87
   2   4   2  375.21    8.84
   2   4   2  375.15    8.49
   2   4   2  377.51    7.96
   2   4   2  371.62    8.47
  -3  -4  -2   29.88    0.97
  -3  -4  -2   29.27    1.18
  -3  -4  -2   29.02    1.24
   3   4   2   27.38    1.37
   3   4   2   29.60    0.79
   3   4   2   28.64    1.22
  -4  -4  -2   20.09    1.01
  -4  -4  -2   19.75    1.08
   4   4   2   21.10    1.09
   4   4   2   20.12    0.55
   4   4   2   19.99    1.23
   4   4   2   20.30    0.53
  -5  -4  -2   49.39    1.86
  -5  -4  -2   55.41    2.32
  -5  -4  -2   52.10    2.01
   5   4   2   51.01    1.40
   5   4   2   55.33    2.28
   5   4   2   53.51    2.02
  -6  -4  -2   48.64    2.06
  -6  -4  -2   50.81    1.96
  -6  -4  -2   49.54    2.37
   6   4   2   51.52    2.10
   6   4   2   54.89    2.44
  -7  -4  -2   12.37    1.42
  -7  -4  -2   11.74    1.10
  -7  -4  -2   13.26    1.52
   7   4   2   13.38    1.20
   7   4   2   12.82    1.40
   7   4   2   13.93    1.56
  -8  -4  -2   15.47    1.30
  -8  -4  -2   17.68    1.87
   8   4   2   17.89    1.88
   8   4   2   17.60    1.51
  -9  -4  -2  124.91    3.99
  -9  -4  -2  123.82    4.98
   9   4   2  121.51    4.15
   9   4   2  126.13    5.00
 -10  -4  -2    0.50    0.85
 -10  -4  -2    2.63    1.03
  10   4   2    1.74    0.79
  10   4   2    0.67    0.75
 -11  -4  -2    5.61    1.42
  11   4   2    4.25    1.23
   8  -5  -2    3.50    1.03
  -8   5   2    1.32    1.11
   7  -5  -2   39.17    2.39
  -7   5   2   39.20    3.05
   6  -5  -2   50.75    2.59
  -6   5   2   56.07    2.45
  -6   5   2   48.21    3.09
   5  -5  -2    3.67    0.81
   5  -5  -2    3.70    0.73
  -5   5   2    4.06    1.02
  -5   5   2    2.59    0.66
   4  -5  -2   31.10    1.59
   4  -5  -2   31.48    1.75
  -4   5   2   29.54    1.64
  -4   5   2   29.10    1.95
  -4   5   2   31.26    0.97
  -4   5   2   35.25    1.61
   3  -5  -2   60.07    2.21
   3  -5  -2   61.44    2.40
  -3   5   2   65.77    2.80
  -3   5   2   63.59    1.82
  -3   5   2   62.54    2.36
  -3   5   2   63.42    2.22
   2  -5  -2   57.30    2.13
   2  -5  -2   50.69    1.91
  -2   5   2   59.08    1.77
  -2   5   2   60.60    2.50
  -2   5   2   54.22    1.90
  -2   5   2   57.61    2.09
   1  -5  -2   29.95    1.34
   1  -5  -2   29.60    0.98
   1  -5  -2   30.35    1.27
   1  -5  -2   28.29    1.20
  -1   5   2   28.40    1.17
  -1   5   2   29.49    1.60
  -1   5   2   30.29    0.86
  -1   5   2   29.96    0.87
  -1   5   2   31.04    1.20
  -1   5   2   30.35    1.32
   0  -5  -2   10.23    0.69
   0  -5  -2    8.84    0.56
   0  -5  -2    8.73    0.77
   0  -5  -2    8.99    0.52
   0  -5  -2    9.26    0.54
   0   5   2    9.38    0.51
   0   5   2    8.97    0.55
   0   5   2   10.18    0.66
   0   5   2    9.55    0.52
   0   5   2    9.62    1.00
  -1  -5  -2   79.66    2.24
  -1  -5  -2   78.93    2.25
  -1  -5  -2   78.81    2.23
  -1  -5  -2   83.50    2.39
  -1  -5  -2   79.77    2.07
   1   5   2   79.54    2.07
   1   5   2   81.80    2.80
   1   5   2   78.29    2.23
   1   5   2   83.71    2.27
  -2  -5  -2   28.17    0.81
  -2  -5  -2   28.43    0.83
  -2  -5  -2   28.20    0.97
  -2  -5  -2   28.51    1.19
  -2  -5  -2   28.22    1.13
  -2  -5  -2   26.47    1.12
   2   5   2   29.36    1.19
   2   5   2   30.21    1.49
   2   5   2   28.82    0.87
  -3  -5  -2  293.14    7.02
  -3  -5  -2  285.24    6.89
  -3  -5  -2  297.35    6.68
   3   5   2  290.25    7.42
   3   5   2  289.36    6.32
   3   5   2  294.24    7.00
  -4  -5  -2  248.70    6.34
  -4  -5  -2  252.16    6.22
   4   5   2  252.26    6.74
   4   5   2  260.01    5.61
   4   5   2  251.19    6.33
  -5  -5  -2   25.02    1.40
  -5  -5  -2   26.13    1.31
   5   5   2   29.31    1.69
   5   5   2   28.47    1.46
  -6  -5  -2   41.75    2.20
  -6  -5  -2   40.97    1.75
  -6  -5  -2   41.02    1.90
   6   5   2   38.58    1.85
   6   5   2   39.24    2.12
  -7  -5  -2   12.82    1.17
  -7  -5  -2   14.74    1.62
   7   5   2   11.96    1.17
   7   5   2   12.69    1.49
  -8  -5  -2   38.38    1.90
  -8  -5  -2   41.47    2.55
   8   5   2   36.78    1.98
   8   5   2   40.30    2.45
  -9  -5  -2   20.11    2.19
  -9  -5  -2   18.54    1.54
   9   5   2   17.37    1.60
   9   5   2   15.96    1.94
 -10  -5  -2   42.25    2.92
 -10  -5  -2   42.25    2.20
  10   5   2   43.04    2.91
  10   5   2   45.91    2.48
   8  -6  -2    4.86    1.20
  -8   6   2    8.77    2.03
   7  -6  -2    3.59    1.10
  -7   6   2    2.20    1.12
   6  -6  -2    0.92    0.72
  -6   6   2    0.48    0.58
  -6   6   2    0.07    0.77
   5  -6  -2   58.68    2.74
  -5   6   2   62.26    3.35
  -5   6   2   60.25    2.52
   4  -6  -2  138.63    4.24
   4  -6  -2  134.39    4.43
  -4   6   2  134.89    4.10
  -4   6   2  139.73    4.41
  -4   6   2  143.37    5.06
  -4   6   2  136.06    3.27
   3  -6  -2   21.55    1.43
   3  -6  -2   23.33    1.33
  -3   6   2   25.12    1.78
  -3   6   2   24.18    1.45
  -3   6   2   24.96    1.38
  -3   6   2   23.22    1.01
   2  -6  -2  140.59    3.97
   2  -6  -2  141.45    4.20
  -2   6   2  139.69    4.68
  -2   6   2  141.68    3.67
  -2   6   2  142.42    4.14
  -2   6   2  142.59    3.93
   1  -6  -2  204.25    5.28
   1  -6  -2  193.09    5.00
   1  -6  -2  196.92    5.12
  -1   6   2  202.33    4.94
  -1   6   2  204.01    5.86
  -1   6   2  195.62    4.98
  -1   6   2  196.29    5.19
   0  -6  -2   16.22    0.74
   0  -6  -2   15.67    0.84
   0  -6  -2   15.59    0.96
   0  -6  -2   16.71    0.82
   0  -6  -2   15.08    0.92
   0   6   2   17.86    1.11
   0   6   2   16.33    0.83
   0   6   2   16.37    0.92
   0   6   2   15.51    1.20
   0   6   2   14.99    0.72
  -1  -6  -2   20.65    0.87
  -1  -6  -2   19.65    0.97
  -1  -6  -2   21.56    0.97
  -1  -6  -2   19.97    1.07
  -1  -6  -2   22.65    1.03
   1   6   2   20.80    0.87
   1   6   2   19.50    1.34
   1   6   2   20.38    1.05
   1   6   2   20.79    0.95
  -2  -6  -2   15.33    0.89
  -2  -6  -2   15.23    0.89
  -2  -6  -2   16.66    0.64
  -2  -6  -2   15.95    0.75
  -2  -6  -2   15.53    0.92
   2   6   2   14.61    0.87
   2   6   2   15.29    0.90
   2   6   2   14.82    0.66
   2   6   2   17.75    1.24
  -3  -6  -2   63.92    1.99
  -3  -6  -2   58.58    2.15
  -3  -6  -2   62.54    2.11
   3   6   2   60.45    2.15
   3   6   2   67.90    2.09
   3   6   2   65.29    2.58
  -4  -6  -2  102.98    3.09
  -4  -6  -2  102.21    3.18
   4   6   2  101.58    3.17
   4   6   2   98.58    3.53
  -5  -6  -2   17.58    1.22
  -5  -6  -2   17.00    1.11
   5   6   2   16.53    1.35
   5   6   2   18.04    1.22
  -6  -6  -2  169.39    4.82
   6   6   2  174.00    4.91
   6   6   2  173.46    5.51
  -7  -6  -2   48.77    2.11
   7   6   2   46.57    2.60
   7   6   2   45.60    2.11
  -8  -6  -2    2.41    0.72
  -8  -6  -2    2.80    0.90
   8   6   2    3.12    0.97
   8   6   2    2.22    0.69
  -9  -6  -2    7.62    1.47
  -9  -6  -2    4.97    0.91
   9   6   2    5.59    1.23
   9   6   2    7.33    1.17
 -10  -6  -2    2.23    1.02
 -10  -6  -2    2.68    0.81
  10   6   2    1.77    0.92
 -11  -6  -2    7.49    1.72
 -11  -6  -2   12.56    1.54
  11   6   2    8.50    1.76
   7  -7  -2   -0.06    0.84
  -7   7   2    0.96    1.05
   6  -7  -2   63.56    3.19
  -6   7   2   60.74    3.76
   5  -7  -2   11.41    1.45
  -5   7   2   11.48    1.76
  -5   7   2   12.16    1.37
   4  -7  -2    2.46    0.76
   4  -7  -2    1.84    0.68
  -4   7   2    1.98    0.32
  -4   7   2    2.47    0.67
  -4   7   2    1.24    0.74
   3  -7  -2    1.35    0.58
   3  -7  -2    1.48    0.53
  -3   7   2    1.50    0.40
  -3   7   2    1.10    0.70
  -3   7   2    1.52    0.52
  -3   7   2    0.53    0.54
   2  -7  -2  107.89    3.70
   2  -7  -2  116.52    3.56
  -2   7   2  117.32    4.33
  -2   7   2  117.09    3.50
  -2   7   2  116.56    3.22
  -2   7   2  118.07    3.74
   1  -7  -2    2.43    0.50
   1  -7  -2    1.97    0.52
  -1   7   2    2.44    0.48
  -1   7   2    3.40    0.85
  -1   7   2    1.85    0.45
   0  -7  -2  108.87    3.29
   0  -7  -2  105.27    2.97
   0  -7  -2  109.71    3.08
   0  -7  -2  105.52    3.25
   0   7   2  111.95    3.17
   0   7   2  108.63    3.90
   0   7   2  106.77    3.02
  -1  -7  -2  108.07    3.08
  -1  -7  -2  113.77    3.20
  -1  -7  -2  105.09    2.92
  -1  -7  -2  107.10    3.23
  -1  -7  -2  108.80    3.11
   1   7   2  111.18    3.18
   1   7   2  105.88    2.90
   1   7   2  105.34    3.83
   1   7   2  107.92    3.01
  -2  -7  -2   33.25    1.47
  -2  -7  -2   36.37    1.50
  -2  -7  -2   33.74    1.50
   2   7   2   33.51    1.93
   2   7   2   38.04    1.55
   2   7   2   36.06    1.48
  -3  -7  -2   33.57    1.42
  -3  -7  -2   34.04    1.55
  -3  -7  -2   31.99    1.47
   3   7   2   31.63    1.50
   3   7   2   31.76    1.89
  -4  -7  -2   19.40    1.21
  -4  -7  -2   20.38    1.26
  -4  -7  -2   19.59    1.03
   4   7   2   20.57    1.24
   4   7   2   20.27    1.51
  -5  -7  -2    6.23    0.82
  -5  -7  -2    5.09    0.78
   5   7   2    5.10    0.78
   5   7   2    6.28    1.04
  -6  -7  -2    4.42    0.76
   6   7   2    5.27    1.02
   6   7   2    5.42    0.84
  -7  -7  -2   17.88    1.48
   7   7   2   20.34    2.06
   7   7   2   16.94    1.48
  -8  -7  -2   50.42    2.39
   8   7   2   53.34    3.01
   8   7   2   52.51    2.45
  -9  -7  -2   23.23    1.66
   9   7   2   24.79    1.77
   9   7   2   23.77    2.55
 -10  -7  -2   23.74    1.99
  10   7   2   20.38    2.47
   6  -8  -2    4.08    1.21
  -6   8   2    4.45    1.46
   5  -8  -2   11.65    1.55
  -5   8   2   13.30    2.04
   4  -8  -2   66.45    3.14
  -4   8   2   74.02    3.74
  -4   8   2   72.35    2.86
  -4   8   2   69.83    1.92
   3  -8  -2   12.40    1.28
   3  -8  -2    9.55    1.26
  -3   8   2   10.37    0.85
  -3   8   2   10.70    1.20
  -3   8   2    9.34    1.53
   2  -8  -2    0.87    0.61
   2  -8  -2    0.39    0.46
  -2   8   2   -0.09    0.57
  -2   8   2    0.51    0.38
  -2   8   2    0.11    0.42
   1  -8  -2    7.32    0.98
   1  -8  -2    7.90    0.87
  -1   8   2    6.23    0.74
  -1   8   2    5.81    0.78
  -1   8   2    6.69    1.22
   0  -8  -2   74.51    2.63
   0   8   2   72.90    3.25
   0   8   2   71.77    2.46
  -1  -8  -2  100.98    3.15
  -1  -8  -2   90.86    2.88
   1   8   2   95.97    3.01
   1   8   2   93.72    3.77
  -2  -8  -2    8.18    0.84
  -2  -8  -2    7.44    0.86
   2   8   2    8.84    1.27
   2   8   2    9.01    0.98
  -3  -8  -2  114.30    3.52
  -3  -8  -2  108.01    3.43
  -3  -8  -2  115.44    3.39
   3   8   2  112.36    4.22
   3   8   2  115.40    3.51
  -4  -8  -2  119.43    3.55
  -4  -8  -2  129.60    3.95
  -4  -8  -2  123.74    3.82
   4   8   2  131.63    3.95
   4   8   2  123.42    4.54
   4   8   2  122.54    3.69
  -5  -8  -2    0.86    0.54
   5   8   2    0.06    0.46
   5   8   2    0.10    0.42
  -6  -8  -2   41.78    2.03
   6   8   2   36.50    2.40
   6   8   2   38.11    1.93
  -7  -8  -2    1.52    0.62
   7   8   2    1.27    0.61
   7   8   2    0.60    0.64
  -8  -8  -2    3.22    0.81
   8   8   2    4.35    1.16
   8   8   2    2.22    0.78
  -9  -8  -2   27.21    1.88
   9   8   2   27.72    2.73
 -10  -8  -2    1.27    0.78
  10   8   2    2.16    1.05
   5  -9  -2    5.00    1.28
  -5   9   2    7.86    1.68
   4  -9  -2   28.66    2.06
  -4   9   2   25.50    1.79
  -4   9   2   23.23    0.93
  -4   9   2   22.97    2.55
   3  -9  -2    3.37    0.95
  -3   9   2    4.20    0.92
  -3   9   2    4.08    0.59
  -3   9   2    2.70    1.02
   2  -9  -2   63.75    2.85
  -2   9   2   60.35    3.31
  -2   9   2   64.51    2.25
   1  -9  -2   77.52    3.07
  -1   9   2   86.18    2.76
  -1   9   2   79.27    3.76
   0   9   2   -0.34    0.49
   0   9   2   -0.28    0.37
  -1  -9  -2   18.19    1.46
   1   9   2   16.84    1.19
   1   9   2   17.97    1.88
  -2  -9  -2   21.72    1.29
  -2  -9  -2   19.53    1.32
   2   9   2   18.22    1.26
   2   9   2   17.29    1.89
  -3  -9  -2   15.45    1.29
  -3  -9  -2   14.26    1.22
   3   9   2   14.89    1.74
  -4  -9  -2    2.06    0.58
  -4  -9  -2    3.05    0.74
   4   9   2    2.49    0.87
   4   9   2    2.29    0.81
  -5  -9  -2   27.17    1.69
   5   9   2   27.09    1.57
   5   9   2   30.15    2.18
  -6  -9  -2   42.94    2.17
   6   9   2   39.60    2.61
   6   9   2   44.16    2.13
  -7  -9  -2    0.62    0.60
   7   9   2    0.22    0.72
   7   9   2    0.44    0.55
  -8  -9  -2   22.38    1.88
   8   9   2   25.39    2.63
   8   9   2   26.37    1.81
  -9  -9  -2   14.68    1.68
   9   9   2   13.11    2.03
   3 -10  -2    0.26    0.66
  -3  10   2    0.78    0.85
  -3  10   2    0.61    0.42
   2 -10  -2   32.58    2.15
  -2  10   2   31.02    2.54
  -2  10   2   35.40    1.67
  -1  10   2   11.71    1.78
   0  10   2   24.11    1.45
   0  10   2   25.91    2.56
   1  10   2   83.57    2.95
   1  10   2   77.19    3.78
  -2 -10  -2   17.74    1.49
   2  10   2   21.29    2.17
   2  10   2   15.49    1.36
  -3 -10  -2   31.03    1.73
  -3 -10  -2   29.41    1.72
   3  10   2   33.72    2.39
  -4 -10  -2    5.09    0.89
  -4 -10  -2    5.31    0.89
   4  10   2    6.82    1.33
  -5 -10  -2   39.53    2.14
   5  10   2   39.83    2.68
  -6 -10  -2   26.89    1.85
   6  10   2   27.00    2.74
   6  10   2   23.42    1.59
  -7 -10  -2    9.40    1.30
   7  10   2    9.67    1.68
   7  10   2    8.10    1.20
  -8 -10  -2   46.63    2.56
   8  10   2   43.61    3.11
  -9 -10  -2    8.38    1.41
   9  10   2   11.51    2.01
  -2  11   2   17.53    2.31
  -1  11   2   13.67    1.29
  -1  11   2   13.42    2.06
   0  11   2   10.23    1.16
   0  11   2   10.18    1.81
   1  11   2    3.51    0.80
   1  11   2    6.04    1.33
  -2 -11  -2    3.70    0.91
   2  11   2    3.58    0.83
   2  11   2    2.26    0.93
  -3 -11  -2   94.70    3.45
  -3 -11  -2   93.08    3.45
   3  11   2   99.20    4.54
  -4 -11  -2   16.32    1.45
  -4 -11  -2   19.39    1.72
   4  11   2   17.95    2.24
  -5 -11  -2   14.34    1.55
   5  11   2   11.58    1.91
  -6 -11  -2   18.97    1.81
   6  11   2   25.28    2.70
  -7 -11  -2    1.98    0.82
   7  11   2    3.32    1.20
   1  12   2   16.53    1.58
   1  12   2   17.40    2.33
   2  12   2    1.02    0.69
   2  12   2    0.94    1.00
  -3 -12  -2    0.56    0.65
   3  12   2    0.05    0.86
  -4 -12  -2    2.04    0.79
  -4 -12  -2    0.93    0.70
   4  12   2    0.83    0.92
  -5 -12  -2   14.13    1.60
   5  12   2   23.74    2.81
   6  11  -3    0.14    0.89
  -6 -11   3    0.93    0.78
   5  11  -3    0.11    0.77
  -5 -11   3    0.18    0.66
   4  11  -3   23.57    2.61
  -4 -11   3   25.48    2.11
   3  11  -3    0.61    0.75
   3  11  -3    0.28    0.66
  -3 -11   3   -0.48    0.58
   2  11  -3   10.59    1.28
   2  11  -3    9.05    1.67
  -2 -11   3   10.62    1.33
   1  11  -3   41.09    2.09
   1  11  -3   40.51    2.89
   0  11  -3    9.54    1.70
   7  10  -3    3.38    1.26
  -7 -10   3    4.70    1.08
   6  10  -3   83.55    4.24
  -6 -10   3   82.55    3.52
   5  10  -3    0.42    0.81
  -5 -10   3    1.38    0.68
   4  10  -3    5.18    1.26
  -4 -10   3    2.83    0.88
   3  10  -3   20.74    1.67
   3  10  -3   19.95    2.14
  -3 -10   3   21.87    1.89
   2  10  -3   15.78    1.39
   2  10  -3   14.04    1.86
  -2 -10   3   16.07    1.55
   1  10  -3    0.87    0.79
   1  10  -3    0.71    0.56
  -1 -10   3    0.12    0.56
   0  10  -3   16.93    1.65
   0  10  -3   17.58    1.26
   0  10  -3   13.27    1.79
  -1  10  -3   53.72    3.19
  -1  10  -3   49.00    1.96
  -2  10  -3    6.05    1.47
  -2  10  -3    6.04    0.65
  -2  10  -3    6.66    1.23
   2 -10   3    6.46    1.30
   8   9  -3    0.58    0.90
  -8  -9   3    2.30    0.84
   7   9  -3    2.69    0.81
   7   9  -3    1.43    0.85
  -7  -9   3    1.88    0.75
   6   9  -3    4.52    0.91
   6   9  -3    3.37    1.10
  -6  -9   3    3.10    0.82
   5   9  -3    0.26    0.72
  -5  -9   3    0.53    0.58
   4   9  -3   94.35    4.10
  -4  -9   3   90.69    3.47
   3   9  -3   79.02    3.64
   3   9  -3   72.54    2.74
  -3  -9   3   73.02    2.96
   2   9  -3   26.06    1.66
   2   9  -3   31.40    2.17
   2   9  -3   29.34    1.61
  -2  -9   3   27.80    1.74
   1   9  -3   41.34    1.86
   1   9  -3   42.84    2.58
   1   9  -3   40.33    2.07
  -1  -9   3   38.36    1.97
   0   9  -3   40.14    2.12
   0   9  -3   43.89    2.61
   0   9  -3   41.00    1.81
   0  -9   3   39.75    2.00
  -1   9  -3    6.92    1.04
  -1   9  -3    7.90    0.83
  -1   9  -3    7.44    1.35
  -1   9  -3    5.17    1.01
   1  -9   3   10.82    1.37
  -2   9  -3    0.66    0.61
  -2   9  -3    0.33    0.54
  -2   9  -3    0.45    0.76
  -2   9  -3    0.67    0.37
   2  -9   3    0.31    0.65
  -3   9  -3   21.54    2.06
  -3   9  -3   24.77    2.49
   3  -9   3   18.98    1.92
  -4   9  -3   34.25    2.41
   4  -9   3   32.85    2.37
   9   8  -3   21.16    2.60
  -9  -8   3   23.96    2.05
   8   8  -3   12.57    1.46
   8   8  -3   11.84    1.90
  -8  -8   3   11.57    1.43
   7   8  -3    1.47    0.73
   7   8  -3    1.31    0.84
  -7  -8   3    1.34    0.67
   6   8  -3   21.20    2.13
   6   8  -3   20.42    1.48
  -6  -8   3   18.72    1.64
   5   8  -3   12.79    1.25
   5   8  -3   15.45    1.81
  -5  -8   3   15.12    1.47
   4   8  -3    0.85    0.48
   4   8  -3    0.23    0.56
   4   8  -3    0.12    0.43
  -4  -8   3    0.18    0.47
   3   8  -3    3.76    0.91
   3   8  -3    4.30    0.78
   3   8  -3    3.76    0.74
  -3  -8   3    3.23    0.75
   2   8  -3    4.86    0.79
   2   8  -3    4.16    0.91
   2   8  -3    3.87    0.68
  -2  -8   3    4.87    0.84
  -2  -8   3    4.74    0.84
   1   8  -3   16.58    1.70
   1   8  -3   13.81    1.29
   1   8  -3   15.62    1.08
   1   8  -3   15.55    1.15
  -1  -8   3   16.64    1.20
   0   8  -3    1.47    0.53
   0   8  -3   -0.16    0.39
   0   8  -3   -0.05    0.31
   0   8  -3    0.07    0.56
   0  -8   3   -0.12    0.38
   0  -8   3    0.28    0.43
   0  -8   3    0.52    0.51
  -1   8  -3   84.79    3.16
  -1   8  -3   82.93    2.56
  -1   8  -3   79.10    3.49
  -1   8  -3   88.44    3.21
   1  -8   3   83.84    3.18
   1  -8   3   80.27    3.10
  -2   8  -3   36.96    1.38
  -2   8  -3   38.00    2.04
  -2   8  -3   43.10    2.52
  -2   8  -3   36.28    2.05
   2  -8   3   35.00    2.07
  -3   8  -3    6.37    1.26
  -3   8  -3    6.96    1.13
  -3   8  -3    4.26    0.96
   3  -8   3    6.33    1.19
  -4   8  -3   12.94    1.62
  -4   8  -3   12.35    1.79
   4  -8   3   10.67    1.47
  -5   8  -3   14.74    1.82
   5  -8   3   13.68    1.74
  10   7  -3    3.99    1.39
 -10  -7   3    3.38    0.99
   9   7  -3    4.04    1.24
  -9  -7   3    4.44    0.99
   8   7  -3    0.47    0.61
   8   7  -3    1.88    0.92
  -8  -7   3    0.85    0.66
   7   7  -3   18.47    2.07
   7   7  -3   17.12    1.52
  -7  -7   3   22.08    1.59
   6   7  -3   35.80    2.37
   6   7  -3   33.70    1.83
  -6  -7   3   34.37    1.87
   5   7  -3   17.11    1.37
   5   7  -3   14.01    1.65
   5   7  -3   14.70    1.32
  -5  -7   3   17.28    1.47
   4   7  -3    6.33    1.11
   4   7  -3    7.93    0.90
   4   7  -3    6.01    0.86
   4   7  -3    7.59    0.91
  -4  -7   3    6.85    0.93
   3   7  -3   85.71    2.96
   3   7  -3   88.58    3.08
   3   7  -3   82.58    3.40
   3   7  -3   88.79    2.83
   3   7  -3   92.88    2.82
  -3  -7   3   90.17    3.06
  -3  -7   3   84.70    3.01
   2   7  -3   27.56    1.40
   2   7  -3   33.54    1.62
   2   7  -3   28.94    1.44
   2   7  -3   30.76    1.90
  -2  -7   3   29.38    1.55
  -2  -7   3   30.29    1.53
  -2  -7   3   32.51    1.55
   1   7  -3    1.85    0.64
   1   7  -3    1.50    0.49
   1   7  -3    1.71    0.55
   1   7  -3    1.14    0.42
   1   7  -3    1.47    0.47
  -1  -7   3    1.83    0.47
  -1  -7   3    1.24    0.47
  -1  -7   3    1.77    0.55
   0   7  -3    4.84    0.73
   0   7  -3    2.54    0.58
   0   7  -3    4.06    0.88
   0   7  -3    4.75    0.78
   0   7  -3    4.16    0.59
   0  -7   3    4.01    0.68
   0  -7   3    4.15    0.71
   0  -7   3    6.27    0.86
  -1   7  -3  184.44    5.32
  -1   7  -3  190.47    4.73
  -1   7  -3  185.05    5.78
  -1   7  -3  192.94    5.38
   1  -7   3  197.05    5.37
   1  -7   3  181.74    5.36
  -2   7  -3   24.52    1.78
  -2   7  -3   22.72    1.56
  -2   7  -3   21.74    1.52
  -2   7  -3   23.85    1.00
   2  -7   3   22.31    1.59
   2  -7   3   22.68    1.50
  -3   7  -3   68.66    3.20
  -3   7  -3   71.24    2.87
  -3   7  -3   68.98    2.95
   3  -7   3   67.68    2.97
   3  -7   3   68.46    3.19
  -4   7  -3   98.41    3.82
  -4   7  -3  107.71    3.79
  -4   7  -3  108.50    4.32
   4  -7   3   92.29    3.83
  -5   7  -3   16.64    2.07
  -5   7  -3   15.18    1.72
   5  -7   3   17.80    1.90
  -6   7  -3    7.70    1.38
   6  -7   3    5.58    1.22
  10   6  -3    0.30    0.91
 -10  -6   3    0.78    0.73
 -10  -6   3    0.64    0.96
   9   6  -3   22.31    2.18
   9   6  -3   17.50    2.24
  -9  -6   3   19.69    2.47
  -9  -6   3   19.18    1.71
   8   6  -3   14.13    1.86
   8   6  -3   12.76    1.42
  -8  -6   3   12.56    1.81
  -8  -6   3   11.69    1.31
   7   6  -3    2.14    0.64
   7   6  -3    2.16    0.81
  -7  -6   3    2.42    0.69
  -7  -6   3    3.02    0.93
   6   6  -3    6.31    0.88
   6   6  -3    4.85    1.03
  -6  -6   3    5.46    0.84
   5   6  -3   17.61    1.25
   5   6  -3   18.28    1.51
   5   6  -3   24.41    1.37
   5   6  -3   17.32    1.16
  -5  -6   3   17.25    1.27
   4   6  -3   30.99    1.58
   4   6  -3   34.93    1.57
   4   6  -3   31.53    1.52
   4   6  -3   33.36    1.93
   4   6  -3   32.48    1.60
   4   6  -3   33.99    1.49
  -4  -6   3   34.71    1.72
  -4  -6   3   31.89    1.63
   3   6  -3   30.38    1.43
   3   6  -3   31.08    1.40
   3   6  -3   31.41    1.42
   3   6  -3   36.62    1.63
   3   6  -3   31.07    1.78
   3   6  -3   32.13    1.41
  -3  -6   3   28.81    1.49
  -3  -6   3   30.36    1.53
   2   6  -3   53.91    2.07
   2   6  -3   52.83    1.90
   2   6  -3   55.72    2.39
   2   6  -3   50.56    1.81
   2   6  -3   50.95    1.81
   2   6  -3   55.34    1.98
  -2  -6   3   52.60    2.04
  -2  -6   3   53.20    1.97
  -2  -6   3   55.13    2.09
   1   6  -3  245.50    6.53
   1   6  -3  235.47    6.57
   1   6  -3  246.93    6.10
   1   6  -3  237.02    6.01
   1   6  -3  243.67    5.91
   1   6  -3  239.20    6.15
  -1  -6   3  237.87    6.03
  -1  -6   3  242.10    6.06
   0   6  -3    7.16    0.80
   0   6  -3    7.79    0.89
   0   6  -3    5.70    0.64
   0   6  -3    7.55    0.86
   0   6  -3    6.65    0.93
   0  -6   3    6.77    0.71
   0  -6   3    7.98    0.87
  -1   6  -3    4.07    0.78
  -1   6  -3    4.19    0.50
  -1   6  -3    4.90    0.72
  -1   6  -3    4.68    0.72
  -1   6  -3    4.13    0.72
   1  -6   3    4.29    0.70
   1  -6   3    6.17    0.81
  -2   6  -3    1.64    0.55
  -2   6  -3    0.50    0.45
  -2   6  -3    0.40    0.48
  -2   6  -3    0.80    0.27
   2  -6   3    0.46    0.39
   2  -6   3    1.81    0.57
  -3   6  -3   17.64    1.71
  -3   6  -3   17.77    1.53
  -3   6  -3   17.82    1.52
   3  -6   3   14.91    1.43
   3  -6   3   19.24    1.57
  -4   6  -3   19.28    1.68
  -4   6  -3   20.69    1.94
  -4   6  -3   20.35    1.46
   4  -6   3   20.38    1.52
   4  -6   3   20.60    1.85
  -5   6  -3    1.26    0.64
  -5   6  -3    0.20    0.57
  -5   6  -3    0.12    0.67
   5  -6   3    0.76    0.66
  -6   6  -3   69.56    3.76
  -6   6  -3   67.61    3.23
   6  -6   3   64.42    3.20
  -7   6  -3   59.75    3.11
   7  -6   3   53.00    3.05
  10   5  -3    8.40    1.68
 -10  -5   3    7.30    1.61
   9   5  -3   62.70    2.84
   9   5  -3   62.32    3.57
  -9  -5   3   64.11    3.65
  -9  -5   3   62.81    2.66
   8   5  -3   50.89    2.45
   8   5  -3   47.95    2.94
  -8  -5   3   58.39    3.23
  -8  -5   3   55.63    2.37
   7   5  -3   47.57    2.16
   7   5  -3   48.44    2.09
   7   5  -3   44.12    2.67
  -7  -5   3   46.62    2.11
  -7  -5   3   47.39    2.77
   6   5  -3   31.68    2.05
   6   5  -3   31.77    1.58
   6   5  -3   34.62    1.69
  -6  -5   3   29.71    1.59
  -6  -5   3   30.93    2.06
   5   5  -3   56.55    2.15
   5   5  -3   57.72    2.18
   5   5  -3   59.31    2.69
   5   5  -3   58.20    2.14
  -5  -5   3   54.90    2.17
  -5  -5   3   60.17    2.37
  -5  -5   3   53.11    2.59
   4   5  -3    0.83    0.36
   4   5  -3    0.66    0.43
   4   5  -3    0.49    0.35
   4   5  -3    0.43    0.31
   4   5  -3    2.05    0.48
  -4  -5   3    0.21    0.31
  -4  -5   3    0.58    0.36
   3   5  -3   39.51    1.90
   3   5  -3   40.32    1.63
   3   5  -3   39.18    1.67
   3   5  -3   38.85    1.38
   3   5  -3   38.56    1.57
   3   5  -3   41.85    1.56
   3   5  -3   39.72    1.57
  -3  -5   3   41.14    1.74
  -3  -5   3   41.01    1.69
   2   5  -3   85.10    2.98
   2   5  -3   87.28    2.70
   2   5  -3   89.35    2.78
   2   5  -3   89.28    2.54
   2   5  -3   89.64    2.60
   2   5  -3   88.24    2.55
   2   5  -3   89.54    2.68
  -2  -5   3   86.58    2.65
  -2  -5   3   90.25    2.78
  -2  -5   3   85.48    2.74
   1   5  -3  133.96    3.47
   1   5  -3  129.96    3.60
   1   5  -3  127.93    3.52
   1   5  -3  130.48    3.69
   1   5  -3  134.26    3.97
  -1  -5   3  128.64    3.53
  -1  -5   3  127.71    3.59
   0   5  -3   20.74    1.27
   0   5  -3   19.47    1.08
   0   5  -3   21.17    1.17
   0   5  -3   20.64    1.11
   0   5  -3   20.06    0.95
   0   5  -3   20.86    0.86
   0  -5   3   21.91    1.07
   0  -5   3   21.21    1.04
  -1   5  -3  302.09    6.72
  -1   5  -3  304.68    7.30
  -1   5  -3  251.20    6.93
  -1   5  -3  295.22    7.52
  -1   5  -3  305.11    7.28
  -1   5  -3  302.34    7.26
   1  -5   3  296.22    7.30
   1  -5   3  295.21    6.90
  -2   5  -3   38.77    1.82
  -2   5  -3   41.98    1.27
  -2   5  -3   46.78    2.08
  -2   5  -3   42.80    1.84
  -2   5  -3   40.84    1.82
   2  -5   3   43.00    1.86
   2  -5   3   42.45    1.93
  -3   5  -3    9.32    1.05
  -3   5  -3   10.65    1.24
  -3   5  -3    8.38    0.96
   3  -5   3    9.04    1.07
   3  -5   3   10.07    1.07
  -4   5  -3   10.38    1.11
  -4   5  -3    9.47    1.22
  -4   5  -3    9.15    1.11
   4  -5   3    9.06    1.15
   4  -5   3    9.50    1.10
  -5   5  -3   47.11    2.64
  -5   5  -3   46.30    2.22
  -5   5  -3   41.16    2.23
   5  -5   3   42.03    2.47
   5  -5   3   44.29    2.35
  -6   5  -3   10.01    1.36
  -6   5  -3    8.64    1.22
  -6   5  -3   10.38    1.66
   6  -5   3    8.94    1.31
  -7   5  -3   18.02    2.39
  -7   5  -3   19.36    1.95
   7  -5   3   20.03    2.03
  -8   5  -3   19.52    2.04
   8  -5   3   25.09    2.39
  10   4  -3   -0.07    0.71
 -10  -4   3    0.79    0.91
   9   4  -3   18.09    1.69
   9   4  -3   17.76    2.28
  -9  -4   3   17.42    2.23
   8   4  -3    0.16    0.51
   8   4  -3    1.55    0.78
  -8  -4   3    0.46    0.42
  -8  -4   3    0.02    0.54
   7   4  -3   49.88    2.80
   7   4  -3   53.35    2.27
   7   4  -3   42.11    2.63
  -7  -4   3   52.16    2.10
  -7  -4   3   49.76    2.82
   6   4  -3   82.74    3.52
   6   4  -3   94.73    2.92
   6   4  -3   90.78    3.03
  -6  -4   3   92.08    3.16
  -6  -4   3   85.39    3.57
  -6  -4   3   89.77    2.92
   5   4  -3   59.09    2.19
   5   4  -3   61.59    2.18
   5   4  -3   64.48    2.71
   5   4  -3   60.51    2.18
  -5  -4   3   58.94    2.31
  -5  -4   3   56.49    2.59
  -5  -4   3   62.83    2.22
   4   4  -3   76.70    2.26
   4   4  -3   79.13    2.37
   4   4  -3   77.43    2.49
   4   4  -3   80.15    2.49
   4   4  -3   72.90    2.84
   4   4  -3   76.46    2.49
  -4  -4   3   80.47    2.66
  -4  -4   3   73.08    2.86
  -4  -4   3   80.90    2.55
   3   4  -3   63.59    1.99
   3   4  -3   64.11    2.06
   3   4  -3   62.68    2.11
   3   4  -3   62.93    2.09
   3   4  -3   63.11    1.89
   3   4  -3   60.76    2.34
  -3  -4   3   63.87    2.13
  -3  -4   3   58.25    2.15
   2   4  -3   11.36    0.75
   2   4  -3   13.05    0.80
   2   4  -3   12.29    0.82
   2   4  -3   12.70    0.74
   2   4  -3   12.15    0.70
   2   4  -3   12.06    0.73
   2   4  -3   12.51    0.91
  -2  -4   3   13.87    0.87
   1   4  -3  155.63    4.03
   1   4  -3  157.29    4.24
   1   4  -3  154.85    3.95
   1   4  -3  152.65    3.81
   1   4  -3  154.57    4.10
   1   4  -3  160.77    3.89
  -1  -4   3  151.74    3.93
  -1  -4   3  154.73    4.05
   0   4  -3   89.66    2.58
   0   4  -3   83.82    2.55
   0   4  -3   85.09    2.58
   0   4  -3   89.16    2.31
   0   4  -3   86.95    2.73
   0   4  -3   87.29    2.35
   0   4  -3   85.73    2.61
   0  -4   3   83.06    2.49
   0  -4   3   86.85    2.45
  -1   4  -3  199.59    5.13
  -1   4  -3  202.82    5.16
  -1   4  -3  202.53    5.29
  -1   4  -3  197.66    4.67
  -1   4  -3  201.94    5.14
   1  -4   3  201.49    4.94
  -2   4  -3    0.60    0.33
  -2   4  -3    0.53    0.36
  -2   4  -3    0.89    0.19
  -2   4  -3    0.57    0.25
  -2   4  -3    0.48    0.36
  -2   4  -3    1.12    0.39
  -2   4  -3    0.89    0.19
   2  -4   3    0.44    0.35
   2  -4   3    0.81    0.27
   2  -4   3    1.00    0.38
  -3   4  -3  304.92    7.46
  -3   4  -3  293.40    7.51
  -3   4  -3  290.61    7.69
   3  -4   3  300.28    7.49
   3  -4   3  309.26    7.65
  -4   4  -3   50.87    2.40
  -4   4  -3   50.39    2.11
  -4   4  -3   48.08    2.16
   4  -4   3   52.50    2.27
   4  -4   3   47.92    2.10
  -5   4  -3   -0.66    0.43
  -5   4  -3    0.12    0.49
  -5   4  -3   -0.26    0.41
   5  -4   3   -0.33    0.37
   5  -4   3    0.36    0.50
  -6   4  -3   54.25    2.56
  -6   4  -3   53.19    2.46
  -6   4  -3   53.08    3.04
   6  -4   3   56.68    2.68
  -7   4  -3    9.21    1.66
  -7   4  -3    8.77    1.21
  -7   4  -3   10.85    1.41
   7  -4   3   11.20    1.44
  -8   4  -3    6.44    1.52
  -8   4  -3    4.92    1.18
   8  -4   3    4.28    1.08
  11   3  -3   11.20    2.03
 -11  -3   3   12.90    2.22
  10   3  -3    1.35    0.91
 -10  -3   3    1.77    1.07
   9   3  -3    3.75    0.86
   9   3  -3    3.16    1.11
  -9  -3   3    3.27    1.18
   8   3  -3    3.86    0.78
   8   3  -3    5.53    1.21
   8   3  -3    5.50    0.89
  -8  -3   3    4.54    1.12
   7   3  -3   -0.36    0.42
   7   3  -3    0.29    0.34
   7   3  -3    0.12    0.46
  -7  -3   3   -0.02    0.35
  -7  -3   3    0.04    0.44
   6   3  -3    0.71    0.36
   6   3  -3    0.56    0.41
   6   3  -3    2.51    0.74
  -6  -3   3    0.71    0.37
  -6  -3   3    0.77    0.46
  -6  -3   3    2.41    0.79
   5   3  -3   41.82    1.74
   5   3  -3   42.73    1.56
   5   3  -3   43.31    2.17
   5   3  -3   45.87    1.71
  -5  -3   3   42.93    2.17
  -5  -3   3   45.18    1.71
  -5  -3   3   45.45    1.87
   4   3  -3  285.21    6.71
   4   3  -3  278.60    6.55
   4   3  -3  273.26    6.72
   4   3  -3  273.51    7.26
   4   3  -3  274.59    6.52
  -4  -3   3  279.43    6.69
  -4  -3   3  282.68    7.31
  -4  -3   3  281.57    6.88
   3   3  -3    0.07    0.20
   3   3  -3    0.26    0.22
   3   3  -3    0.19    0.25
   3   3  -3    0.13    0.22
   3   3  -3    0.32    0.22
   3   3  -3    0.18    0.20
  -3  -3   3    0.35    0.25
  -3  -3   3    0.18    0.22
  -3  -3   3    0.35    0.26
   2   3  -3  134.05    3.60
   2   3  -3  137.91    3.50
   2   3  -3  138.14    3.76
   2   3  -3  136.81    3.52
   2   3  -3  136.47    3.44
   2   3  -3  139.81    3.64
  -2  -3   3  139.48    3.67
   1   3  -3  189.69    4.77
   1   3  -3  195.57    4.65
   1   3  -3  190.29    4.75
   1   3  -3  189.95    4.70
   1   3  -3  193.27    4.71
   1   3  -3  192.33    4.54
   1   3  -3  187.55    4.75
   1   3  -3  187.89    4.54
  -1  -3   3  191.95    4.60
  -1  -3   3  195.58    4.75
   0   3  -3   55.04    1.80
   0   3  -3   56.99    1.80
   0   3  -3   54.36    1.82
   0   3  -3   55.03    1.82
   0   3  -3   57.77    1.83
   0   3  -3   55.99    1.60
   0  -3   3   56.27    1.68
   0  -3   3   56.33    1.82
  -1   3  -3   63.63    1.74
  -1   3  -3   63.34    1.71
  -1   3  -3   65.92    2.08
  -1   3  -3   63.31    2.06
  -1   3  -3   67.00    2.11
  -1   3  -3   61.92    2.05
  -1   3  -3   65.16    2.03
   1  -3   3   67.03    2.02
  -2   3  -3    1.30    0.40
  -2   3  -3    1.53    0.39
  -2   3  -3    1.28    0.37
  -2   3  -3    1.96    0.42
   2  -3   3    1.52    0.33
  -3   3  -3  168.28    4.49
  -3   3  -3  168.56    4.70
  -3   3  -3  171.73    4.14
  -3   3  -3  167.51    4.59
   3  -3   3  164.84    4.27
   3  -3   3  167.97    4.13
   3  -3   3  167.62    4.62
   3  -3   3  162.48    4.50
  -4   3  -3    2.59    0.58
  -4   3  -3    2.85    0.57
  -4   3  -3    3.29    0.70
   4  -3   3    4.12    0.70
   4  -3   3    2.49    0.54
  -5   3  -3   89.33    3.18
  -5   3  -3   88.69    3.03
  -5   3  -3   96.21    3.69
   5  -3   3   90.55    3.24
   5  -3   3   89.94    3.12
  -6   3  -3  138.20    5.14
  -6   3  -3  134.14    4.31
  -6   3  -3  142.04    4.55
   6  -3   3  150.26    4.50
   6  -3   3  145.88    4.66
  -7   3  -3    2.60    0.78
  -7   3  -3    3.45    1.04
  -7   3  -3    2.79    0.80
   7  -3   3    3.88    0.90
  -8   3  -3   36.73    2.30
  -8   3  -3   36.81    2.13
  -8   3  -3   45.71    3.01
   8  -3   3   35.71    2.27
  -9   3  -3   17.23    1.92
  -9   3  -3   18.18    2.39
   9  -3   3   17.79    2.06
  10   2  -3   12.17    2.06
  10   2  -3   13.10    1.55
 -10  -2   3   13.21    2.10
   9   2  -3   24.79    2.69
   9   2  -3   22.75    1.84
   9   2  -3   20.30    2.41
  -9  -2   3   21.08    2.40
   8   2  -3   -0.21    0.37
   8   2  -3   -0.22    0.42
   8   2  -3    0.09    0.64
  -8  -2   3    0.24    0.67
   7   2  -3   49.16    2.10
   7   2  -3   47.69    2.73
   7   2  -3   51.73    2.06
  -7  -2   3   49.48    1.85
  -7  -2   3   49.20    2.15
  -7  -2   3   47.30    2.74
   6   2  -3   97.73    2.95
   6   2  -3   95.27    2.91
   6   2  -3   97.64    3.08
   6   2  -3   92.44    3.74
  -6  -2   3   95.21    2.81
  -6  -2   3   87.99    3.70
  -6  -2   3   95.48    3.09
   5   2  -3   56.96    1.97
   5   2  -3   58.45    1.91
   5   2  -3   55.72    2.03
   5   2  -3   56.68    2.56
  -5  -2   3   58.58    2.61
  -5  -2   3   57.20    1.89
  -5  -2   3   52.81    2.03
   4   2  -3  125.47    3.34
   4   2  -3  129.19    3.44
   4   2  -3  111.67    3.80
   4   2  -3  120.81    3.22
   4   2  -3  122.25    3.17
  -4  -2   3  121.19    3.87
  -4  -2   3  121.24    3.46
  -4  -2   3  129.98    3.30
   3   2  -3   11.94    0.64
   3   2  -3   12.28    0.88
   3   2  -3   10.79    0.71
   3   2  -3   10.88    0.70
   3   2  -3   12.13    0.71
  -3  -2   3   10.69    0.69
  -3  -2   3   11.03    0.84
  -3  -2   3   11.13    0.75
   2   2  -3   48.79    1.71
   2   2  -3   49.07    1.50
   2   2  -3   49.57    1.59
   2   2  -3   49.90    1.65
   2   2  -3   47.72    1.60
   2   2  -3   50.49    1.70
   2   2  -3   52.57    1.67
  -2  -2   3   50.75    1.69
  -2  -2   3   50.65    1.73
   1   2  -3   84.91    2.29
   1   2  -3   78.76    2.22
   1   2  -3   82.10    2.19
   1   2  -3   80.33    2.12
   1   2  -3   79.72    2.29
   1   2  -3   81.90    2.32
   1   2  -3   78.14    2.28
   1   2  -3   80.40    2.29
  -1  -2   3   79.13    2.31
   0   2  -3   68.47    2.02
   0   2  -3   67.13    1.90
   0   2  -3   69.45    2.02
   0   2  -3   67.48    1.82
   0   2  -3   73.24    2.06
   0   2  -3   72.33    2.07
   0   2  -3   69.52    2.02
   0  -2   3   68.90    2.07
   0  -2   3   68.71    1.87
  -1   2  -3  520.85   11.65
  -1   2  -3  529.09   11.65
  -1   2  -3  524.30   11.66
  -1   2  -3  529.44   11.25
  -1   2  -3  541.11   11.65
  -1   2  -3  519.56   11.76
  -1   2  -3  526.94   11.24
   1  -2   3  507.57   11.64
  -2   2  -3  103.20    2.99
  -2   2  -3  110.11    3.02
  -2   2  -3  107.00    2.94
  -2   2  -3  110.21    2.99
  -2   2  -3  105.73    2.83
   2  -2   3  108.09    2.94
  -3   2  -3   73.61    2.30
  -3   2  -3   73.53    2.49
  -3   2  -3   71.64    2.32
  -3   2  -3   71.50    2.38
  -3   2  -3   71.07    2.28
   3  -2   3   73.39    2.10
   3  -2   3   68.53    2.29
   3  -2   3   75.93    2.23
  -4   2  -3   60.15    2.50
  -4   2  -3   63.22    2.29
  -4   2  -3   62.48    2.16
  -4   2  -3   63.98    2.17
   4  -2   3   61.46    1.94
   4  -2   3   64.66    2.02
   4  -2   3   64.62    2.35
   4  -2   3   66.01    2.26
  -5   2  -3   63.61    2.47
  -5   2  -3   64.16    2.27
  -5   2  -3   66.70    2.35
  -5   2  -3   64.70    2.87
   5  -2   3   65.03    2.40
   5  -2   3   66.99    2.52
  -6   2  -3    1.60    0.55
  -6   2  -3    1.51    0.61
  -6   2  -3    2.43    0.77
   6  -2   3    1.14    0.57
   6  -2   3    1.11    0.48
  -7   2  -3   43.63    2.08
  -7   2  -3   45.49    2.26
  -7   2  -3   46.30    2.73
   7  -2   3   50.12    2.25
   7  -2   3   43.68    2.25
  -8   2  -3   36.44    2.21
  -8   2  -3   44.11    2.78
  -8   2  -3   39.34    2.11
   8  -2   3   41.92    2.35
  -9   2  -3   25.91    2.62
  -9   2  -3   19.71    1.91
   9  -2   3   20.06    1.99
 -10   2  -3    2.29    1.01
 -10   2  -3    2.91    1.17
  10  -2   3    2.81    1.18
  10  -2   3    4.47    1.16
  10   1  -3   13.43    2.09
  10   1  -3   11.75    1.42
 -10  -1   3   13.32    2.14
   9   1  -3    0.61    0.75
   9   1  -3   -0.11    0.51
  -9  -1   3    0.50    0.79
   8   1  -3   44.18    2.78
   8   1  -3   46.42    2.14
   8   1  -3   44.47    2.09
  -8  -1   3   44.18    2.81
   7   1  -3   21.03    1.28
   7   1  -3   20.14    2.09
   7   1  -3   19.36    1.26
   7   1  -3   20.62    1.29
  -7  -1   3   22.46    1.33
  -7  -1   3   21.52    2.17
   6   1  -3   78.51    2.59
   6   1  -3   75.54    2.54
   6   1  -3   75.05    2.57
   6   1  -3   76.66    3.34
  -6  -1   3   74.77    2.26
  -6  -1   3   74.54    2.55
  -6  -1   3   76.71    3.38
   5   1  -3   37.21    1.52
   5   1  -3   36.87    1.51
   5   1  -3   38.42    1.56
   5   1  -3   36.03    2.03
  -5  -1   3   34.58    1.50
  -5  -1   3   39.37    2.13
  -5  -1   3   37.07    1.05
  -5  -1   3   35.20    1.30
   4   1  -3  143.34    3.85
   4   1  -3  149.66    3.88
   4   1  -3  142.72    3.80
   4   1  -3  147.35    3.63
   4   1  -3  144.33    4.47
  -4  -1   3  140.56    4.46
  -4  -1   3  151.35    3.47
  -4  -1   3  147.70    3.89
  -4  -1   3  147.82    3.65
   3   1  -3    3.89    0.42
   3   1  -3    2.53    0.37
   3   1  -3    2.71    0.38
   3   1  -3    2.75    0.41
   3   1  -3    4.81    0.67
   3   1  -3    2.89    0.43
  -3  -1   3    3.15    0.41
  -3  -1   3    3.75    0.61
  -3  -1   3    2.62    0.35
   2   1  -3   10.22    0.61
   2   1  -3    9.18    0.61
   2   1  -3    9.06    0.57
   2   1  -3    9.41    0.66
   2   1  -3    9.31    0.52
   2   1  -3    8.55    0.56
  -2  -1   3    8.73    0.64
  -2  -1   3    9.17    0.60
   1   1  -3    1.31    0.26
   1   1  -3    1.83    0.31
   1   1  -3    1.50    0.28
   1   1  -3    1.44    0.25
   1   1  -3    1.33    0.27
  -1  -1   3    1.47    0.27
   0   1  -3   20.33    0.84
   0   1  -3   22.75    0.78
   0   1  -3   22.40    0.88
   0   1  -3   21.97    0.94
   0   1  -3   21.39    0.88
   0  -1   3   22.28    0.93
  -1   1  -3    0.87    0.16
  -1   1  -3    0.92    0.15
  -1   1  -3    0.35    0.21
  -1   1  -3    0.41    0.23
  -1   1  -3    0.30    0.24
  -1   1  -3    0.68    0.23
  -1   1  -3    0.52    0.23
   1  -1   3    0.44    0.25
  -2   1  -3    1.20    0.28
  -2   1  -3    1.41    0.32
  -2   1  -3    1.25    0.30
  -2   1  -3    1.14    0.27
  -2   1  -3    1.44    0.29
   2  -1   3    2.05    0.33
   2  -1   3    1.32    0.28
  -3   1  -3  145.33    3.76
  -3   1  -3  143.49    3.87
  -3   1  -3  143.52    3.80
  -3   1  -3  143.82    3.68
  -3   1  -3  157.56    3.86
  -3   1  -3  145.92    4.11
   3  -1   3  151.24    3.84
   3  -1   3  143.36    3.68
   3  -1   3  148.57    3.74
  -4   1  -3  201.75    4.94
  -4   1  -3  194.98    5.02
  -4   1  -3  199.22    5.19
  -4   1  -3  201.70    5.60
  -4   1  -3  201.23    5.04
   4  -1   3  198.67    4.95
   4  -1   3  210.15    5.15
   4  -1   3  202.68    4.94
   4  -1   3  208.53    5.25
  -5   1  -3   23.31    1.56
  -5   1  -3   22.91    1.16
  -5   1  -3   21.60    1.24
  -5   1  -3   23.64    1.20
   5  -1   3   22.57    1.28
   5  -1   3   23.37    1.12
   5  -1   3   23.85    1.27
  -6   1  -3   38.77    2.19
  -6   1  -3   40.22    1.68
  -6   1  -3   40.00    1.83
  -6   1  -3   39.12    1.73
   6  -1   3   37.48    1.85
   6  -1   3   38.63    1.77
  -7   1  -3    1.97    0.64
  -7   1  -3    1.30    0.67
  -7   1  -3    1.29    0.59
   7  -1   3    1.40    0.61
   7  -1   3    1.72    0.55
  -8   1  -3    3.11    0.85
  -8   1  -3    5.82    1.14
  -8   1  -3    3.13    0.75
   8  -1   3    4.26    0.88
   8  -1   3    3.35    0.74
  -9   1  -3    8.14    1.25
  -9   1  -3    7.20    1.15
  -9   1  -3    8.22    1.53
   9  -1   3    6.95    1.39
   9  -1   3    6.03    1.14
 -10   1  -3   53.69    3.38
  10  -1   3   48.16    3.23
  10   0  -3   20.14    2.54
 -10   0   3   22.11    2.66
   9   0  -3   10.62    1.82
  -9   0   3    9.22    1.86
   8   0  -3   12.64    1.79
   8   0  -3    9.12    1.14
   8   0  -3   11.83    1.19
   8   0  -3    8.54    1.05
  -8   0   3    8.97    1.57
   7   0  -3   17.87    1.23
   7   0  -3   17.22    1.26
   7   0  -3   16.67    1.15
  -7   0   3   15.23    1.79
   6   0  -3   12.73    1.09
   6   0  -3   11.23    0.98
   6   0  -3   11.15    1.05
  -6   0   3   12.57    1.55
  -6   0   3   11.37    0.86
   5   0  -3   37.23    1.56
   5   0  -3   38.75    1.64
   5   0  -3   40.84    1.63
  -5   0   3   42.22    1.57
  -5   0   3   42.63    2.26
  -5   0   3   40.04    1.30
   4   0  -3   87.61    2.59
   4   0  -3   83.19    2.51
   4   0  -3   87.86    2.56
  -4   0   3   85.41    2.14
  -4   0   3   83.43    2.22
  -4   0   3   87.77    2.50
  -4   0   3   85.22    3.18
   3   0  -3   48.34    1.61
   3   0  -3   49.03    1.61
   3   0  -3   51.27    1.63
   3   0  -3   52.34    1.70
  -3   0   3   47.61    1.56
  -3   0   3   47.64    2.03
  -3   0   3   46.33    1.38
   2   0  -3  736.54   15.85
   2   0  -3  726.22   15.86
   2   0  -3  740.87   15.91
   2   0  -3  735.81   15.84
  -2   0   3  718.48   16.28
  -2   0   3  736.78   15.86
   1   0  -3  419.43    9.08
   1   0  -3  412.26    9.11
   1   0  -3  412.70    9.15
   1   0  -3  413.47    9.13
   1   0  -3  409.43    9.17
  -1   0   3  409.50    9.17
   0   0  -3   54.25    1.55
   0   0  -3   53.88    1.67
   0   0  -3   55.75    1.62
   0   0  -3   55.27    1.60
   0   0  -3   55.23    1.59
   0   0  -3   54.06    1.49
   0   0   3   54.08    1.67
  -1   0  -3  369.22    8.06
  -1   0  -3  357.09    7.64
  -1   0  -3  352.11    7.64
  -1   0  -3  359.53    7.89
  -1   0  -3  363.04    7.96
  -1   0  -3  343.53    8.04
  -1   0  -3  359.42    7.92
  -1   0  -3  376.04    8.08
   1   0   3  356.69    8.06
  -2   0  -3   58.65    1.78
  -2   0  -3   62.43    1.71
  -2   0  -3   59.35    1.80
  -2   0  -3   61.25    1.80
  -2   0  -3   58.93    1.73
   2   0   3   62.73    1.81
   2   0   3   61.26    1.81
  -3   0  -3   11.42    0.62
  -3   0  -3   11.62    0.66
  -3   0  -3   11.85    0.69
  -3   0  -3   12.59    0.69
  -3   0  -3   11.16    0.67
  -3   0  -3   12.06    0.70
  -3   0  -3   11.62    0.75
   3   0   3   11.69    0.67
   3   0   3   11.60    0.69
   3   0   3   11.95    0.66
  -4   0  -3   -0.01    0.22
  -4   0  -3    0.47    0.25
  -4   0  -3    0.26    0.23
  -4   0  -3    0.51    0.28
  -4   0  -3    0.16    0.24
   4   0   3    0.12    0.20
   4   0   3   -0.09    0.21
  -5   0  -3   66.63    2.18
  -5   0  -3   67.92    2.61
  -5   0  -3   63.14    2.11
  -5   0  -3   64.69    2.23
  -5   0  -3   65.32    2.11
   5   0   3   66.93    2.17
   5   0   3   64.01    2.17
   5   0   3   65.33    2.27
  -6   0  -3  260.23    6.68
  -6   0  -3  264.20    7.31
  -6   0  -3  262.77    6.47
  -6   0  -3  272.97    6.61
  -6   0  -3  259.49    6.52
   6   0   3  261.50    6.59
   6   0   3  262.02    6.56
   6   0   3  266.77    7.31
   6   0   3  268.39    6.76
  -7   0  -3   11.27    1.09
  -7   0  -3   12.41    1.09
  -7   0  -3   11.38    1.43
  -7   0  -3   13.36    1.09
   7   0   3   10.13    1.07
   7   0   3   14.03    1.57
   7   0   3   11.21    1.06
   7   0   3   10.87    0.97
  -8   0  -3   30.85    1.70
  -8   0  -3   33.72    2.26
  -8   0  -3   30.94    1.78
   8   0   3   30.81    1.71
   8   0   3   31.80    1.83
   8   0   3   30.78    2.20
  -9   0  -3    4.48    1.12
   9   0   3    3.91    1.07
   9   0   3    3.71    1.05
 -10   0  -3   15.23    2.11
  10   0   3   15.83    2.13
  10  -1  -3   14.82    2.35
 -10   1   3   15.98    2.41
   9  -1  -3   30.56    2.00
  -9   1   3   36.66    2.87
   8  -1  -3    0.97    0.63
  -8   1   3    1.45    0.86
   7  -1  -3   70.24    2.57
   7  -1  -3   73.15    2.77
   7  -1  -3   69.68    2.76
  -7   1   3   80.87    3.80
   6  -1  -3  102.69    3.24
   6  -1  -3  100.54    3.07
   6  -1  -3   99.16    3.27
  -6   1   3   95.62    4.12
   5  -1  -3    2.44    0.47
   5  -1  -3    2.75    0.51
   5  -1  -3    1.82    0.45
  -5   1   3    3.06    0.81
  -5   1   3    2.12    0.39
   4  -1  -3   36.73    1.48
   4  -1  -3   34.28    1.49
   4  -1  -3   35.94    1.32
   4  -1  -3   36.56    1.39
  -4   1   3   36.53    1.07
  -4   1   3   37.81    2.01
  -4   1   3   35.56    1.28
   3  -1  -3    7.66    0.53
   3  -1  -3    9.17    0.64
   3  -1  -3    7.85    0.71
   3  -1  -3    7.74    0.68
   3  -1  -3    8.90    0.58
  -3   1   3    8.31    0.54
  -3   1   3    8.53    1.00
   2  -1  -3  358.59    8.02
   2  -1  -3  351.28    7.90
   2  -1  -3  331.92    7.91
   2  -1  -3  354.80    7.85
   2  -1  -3  349.66    7.89
  -2   1   3  358.96    7.84
  -2   1   3  347.36    8.33
   1  -1  -3    0.22    0.16
   1  -1  -3    0.56    0.18
   1  -1  -3    0.13    0.15
   1  -1  -3    0.18    0.16
   1  -1  -3    0.19    0.16
  -1   1   3    0.22    0.17
  -1   1   3    0.15    0.14
   0  -1  -3  489.42   10.90
   0  -1  -3  513.06   10.91
   0  -1  -3  488.68   10.75
   0  -1  -3  492.36   10.78
   0   1   3  508.41   10.79
   0   1   3  495.52   10.91
  -1  -1  -3  592.38   12.91
  -1  -1  -3  592.15   12.74
  -1  -1  -3  601.35   12.86
  -1  -1  -3  604.90   13.02
  -1  -1  -3  599.12   12.79
  -1  -1  -3  592.03   13.00
  -1  -1  -3  606.39   12.69
   1   1   3  585.93   12.86
   1   1   3  609.25   13.02
   1   1   3  603.69   13.01
  -2  -1  -3   12.43    0.62
  -2  -1  -3   11.32    0.63
  -2  -1  -3   12.23    0.55
  -2  -1  -3   12.49    0.67
  -2  -1  -3   11.56    0.50
  -2  -1  -3   12.29    0.61
   2   1   3   12.01    0.54
   2   1   3   11.59    0.64
   2   1   3   10.95    0.62
  -3  -1  -3  198.83    4.94
  -3  -1  -3  206.39    5.02
  -3  -1  -3  203.12    4.87
  -3  -1  -3  205.85    4.70
  -3  -1  -3  204.75    4.85
  -3  -1  -3  204.99    4.76
  -3  -1  -3  202.60    4.97
   3   1   3  204.23    4.96
   3   1   3  209.59    4.98
   3   1   3  211.18    5.03
   3   1   3  202.61    4.75
  -4  -1  -3    1.60    0.34
  -4  -1  -3    3.00    0.39
  -4  -1  -3    2.05    0.45
  -4  -1  -3    2.33    0.41
  -4  -1  -3    1.86    0.40
   4   1   3    2.30    0.41
   4   1   3    1.83    0.32
   4   1   3    2.44    0.47
  -5  -1  -3   19.14    0.93
  -5  -1  -3   19.64    1.07
  -5  -1  -3   16.40    0.93
  -5  -1  -3   19.93    1.25
  -5  -1  -3   18.74    0.99
   5   1   3   17.20    0.98
   5   1   3   18.67    1.04
   5   1   3   17.98    1.19
   5   1   3   18.77    0.95
  -6  -1  -3    4.08    0.78
  -6  -1  -3    2.64    0.53
  -6  -1  -3    4.04    0.56
  -6  -1  -3    3.81    0.58
  -6  -1  -3    3.41    0.55
   6   1   3    3.13    0.55
   6   1   3    3.58    0.57
   6   1   3    2.85    0.65
   6   1   3    3.02    0.51
  -7  -1  -3   30.23    1.52
  -7  -1  -3   33.98    2.03
  -7  -1  -3   34.11    1.51
  -7  -1  -3   27.96    1.42
  -7  -1  -3   30.64    1.58
   7   1   3   31.54    1.58
   7   1   3   32.59    1.59
   7   1   3   28.06    1.44
   7   1   3   30.61    1.96
  -8  -1  -3   93.22    3.41
  -8  -1  -3   90.72    3.06
  -8  -1  -3   99.15    3.97
   8   1   3   90.88    3.08
   8   1   3   90.13    3.22
   8   1   3   93.19    3.89
   8   1   3   92.05    3.14
  -9  -1  -3   28.71    2.64
   9   1   3   25.75    2.09
 -10  -1  -3   71.20    3.81
  10   1   3   73.78    3.82
  10  -2  -3    6.31    1.31
 -10   2   3    8.02    1.82
   9  -2  -3    1.66    0.85
  -9   2   3    1.39    1.07
   8  -2  -3    3.96    0.92
  -8   2   3    4.05    1.29
   7  -2  -3   19.93    1.38
   7  -2  -3   18.48    1.59
  -7   2   3   17.62    2.17
   6  -2  -3    7.98    0.95
   6  -2  -3    8.87    1.04
   6  -2  -3    7.25    0.78
  -6   2   3    9.91    1.59
   5  -2  -3   97.73    3.06
   5  -2  -3   95.10    2.81
   5  -2  -3   96.73    3.15
  -5   2   3   95.21    3.93
   4  -2  -3  448.68   10.27
   4  -2  -3  436.87    9.93
   4  -2  -3  444.14    9.75
   4  -2  -3  431.57   10.13
  -4   2   3  438.73    9.68
  -4   2   3  436.74    9.51
  -4   2   3  433.97   11.07
   3  -2  -3  117.92    3.33
   3  -2  -3  120.41    2.99
   3  -2  -3  117.04    3.22
   3  -2  -3  118.70    3.11
  -3   2   3  113.48    2.88
  -3   2   3  122.48    3.79
  -3   2   3  120.10    3.01
   2  -2  -3   88.41    2.52
   2  -2  -3   84.16    2.41
   2  -2  -3   85.77    2.29
   2  -2  -3   83.60    2.39
   2  -2  -3   90.90    2.40
  -2   2   3   84.88    2.21
  -2   2   3   87.63    2.73
   1  -2  -3   29.45    1.12
   1  -2  -3   29.46    1.08
   1  -2  -3   29.41    1.07
   1  -2  -3   28.41    0.99
   1  -2  -3   29.60    1.03
  -1   2   3   29.17    1.01
  -1   2   3   27.80    1.17
   0  -2  -3   85.20    2.19
   0  -2  -3   83.94    2.12
   0  -2  -3   86.42    2.29
   0  -2  -3   84.87    2.20
   0   2   3   83.45    2.30
   0   2   3   84.08    2.21
   0   2   3   83.52    2.10
   0   2   3   84.43    2.20
  -1  -2  -3    2.14    0.30
  -1  -2  -3    2.35    0.26
  -1  -2  -3    2.09    0.31
  -1  -2  -3    2.29    0.27
  -1  -2  -3    2.82    0.35
  -1  -2  -3    2.13    0.29
   1   2   3    2.61    0.35
   1   2   3    2.27    0.32
   1   2   3    2.44    0.25
  -2  -2  -3  166.09    4.01
  -2  -2  -3  168.03    3.65
  -2  -2  -3  169.00    3.98
  -2  -2  -3  165.52    4.11
  -2  -2  -3  169.68    4.11
  -2  -2  -3  164.99    3.61
  -2  -2  -3  167.41    3.76
   2   2   3  166.74    4.10
   2   2   3  169.13    4.11
   2   2   3  170.32    4.07
   2   2   3  167.23    3.79
  -3  -2  -3  572.78   12.14
  -3  -2  -3  550.17   12.42
  -3  -2  -3  556.85   12.41
  -3  -2  -3  556.58   12.30
  -3  -2  -3  557.95   11.92
  -3  -2  -3  557.51   11.98
  -3  -2  -3  565.60   12.44
   3   2   3  560.75   12.40
   3   2   3  546.78   11.98
   3   2   3  558.93   12.42
   3   2   3  558.48   11.98
   3   2   3  562.42   12.44
  -4  -2  -3   22.77    0.86
  -4  -2  -3   23.29    1.06
  -4  -2  -3   25.45    1.18
  -4  -2  -3   23.02    0.94
  -4  -2  -3   25.21    1.22
   4   2   3   24.16    1.20
   4   2   3   23.75    1.14
   4   2   3   23.78    0.89
  -5  -2  -3  119.93    3.68
  -5  -2  -3  112.70    2.99
  -5  -2  -3  119.75    3.26
  -5  -2  -3  114.46    3.38
  -5  -2  -3  113.95    3.09
   5   2   3  116.54    3.13
   5   2   3  117.42    3.39
   5   2   3  117.48    3.65
   5   2   3  112.87    3.01
  -6  -2  -3  159.35    4.15
  -6  -2  -3  173.47    5.03
  -6  -2  -3  162.54    4.24
  -6  -2  -3  164.28    4.56
  -6  -2  -3  161.97    4.36
   6   2   3  158.85    4.51
   6   2   3  162.25    4.18
   6   2   3  165.73    4.96
   6   2   3  162.56    4.27
  -7  -2  -3    7.13    0.84
  -7  -2  -3    6.68    0.86
  -7  -2  -3    6.19    1.01
   7   2   3    6.74    0.86
   7   2   3    6.50    0.70
   7   2   3    5.95    0.98
  -8  -2  -3   14.77    1.25
  -8  -2  -3   14.43    1.67
   8   2   3   13.91    1.62
   8   2   3   15.81    1.37
  -9  -2  -3    1.67    0.76
   9   2   3    1.33    0.63
   9   2   3    1.27    0.76
 -10  -2  -3   10.16    1.70
  10   2   3    7.52    1.25
  10   2   3    6.24    1.41
 -11  -2  -3   37.07    2.84
  11   2   3   37.95    2.86
   9  -3  -3   11.55    1.54
  -9   3   3    9.02    1.88
   8  -3  -3    2.37    0.83
  -8   3   3    2.49    1.12
   7  -3  -3   43.44    2.29
  -7   3   3   54.34    3.30
   6  -3  -3    5.03    0.91
   6  -3  -3    7.13    0.91
  -6   3   3    5.29    1.23
   5  -3  -3    9.64    0.98
   5  -3  -3    8.59    0.98
  -5   3   3    9.52    1.41
   4  -3  -3   52.24    2.01
   4  -3  -3   55.82    1.84
   4  -3  -3   58.29    2.18
  -4   3   3   54.33    2.55
  -4   3   3   54.21    1.52
   3  -3  -3  139.82    3.75
   3  -3  -3  130.15    3.29
   3  -3  -3  139.78    3.89
   3  -3  -3  140.92    3.58
  -3   3   3  138.79    3.21
  -3   3   3  142.15    4.29
   2  -3  -3  159.84    4.24
   2  -3  -3  164.14    4.12
   2  -3  -3  158.85    4.03
   2  -3  -3  162.62    3.77
   2  -3  -3  168.79    4.16
  -2   3   3  166.28    3.76
  -2   3   3  163.56    4.55
   1  -3  -3  103.11    2.72
   1  -3  -3  105.89    2.55
   1  -3  -3  104.20    2.87
  -1   3   3  103.84    2.61
  -1   3   3  111.64    3.15
  -1   3   3  100.82    2.53
   0  -3  -3  197.09    4.61
   0  -3  -3  196.77    4.42
   0  -3  -3  194.46    4.67
   0  -3  -3  195.23    4.47
   0  -3  -3  196.33    4.50
   0   3   3  197.66    4.88
   0   3   3  194.91    4.51
   0   3   3  182.73    4.47
  -1  -3  -3  217.17    5.14
  -1  -3  -3  221.47    5.16
  -1  -3  -3  218.98    4.88
  -1  -3  -3  213.50    5.05
  -1  -3  -3  225.52    5.12
  -1  -3  -3  228.92    5.09
   1   3   3  215.01    5.14
   1   3   3  227.07    5.16
   1   3   3  215.44    4.85
   1   3   3  225.43    5.38
  -2  -3  -3  138.98    3.57
  -2  -3  -3  136.39    3.24
  -2  -3  -3  137.99    3.56
  -2  -3  -3  143.33    3.08
  -2  -3  -3  145.74    3.41
  -2  -3  -3  141.68    3.49
   2   3   3  134.22    3.05
   2   3   3  140.35    3.57
   2   3   3  139.94    3.66
   2   3   3  138.34    3.56
  -3  -3  -3   77.09    1.98
  -3  -3  -3   76.03    2.22
  -3  -3  -3   73.36    2.30
   3   3   3   74.13    2.29
   3   3   3   76.73    1.76
   3   3   3   75.05    1.79
   3   3   3   78.00    2.40
  -4  -3  -3  207.70    5.31
  -4  -3  -3  199.98    4.99
  -4  -3  -3  201.40    4.64
  -4  -3  -3  196.94    5.12
   4   3   3  195.29    5.09
   4   3   3  208.10    5.28
   4   3   3  199.10    4.51
   4   3   3  200.71    4.50
  -5  -3  -3  194.93    5.20
  -5  -3  -3  195.72    4.69
  -5  -3  -3  195.27    5.44
  -5  -3  -3  198.50    5.05
   5   3   3  198.30    4.71
   5   3   3  199.00    4.61
   5   3   3  207.84    5.49
   5   3   3  198.18    5.22
  -6  -3  -3   40.74    2.03
  -6  -3  -3   38.21    1.62
  -6  -3  -3   41.01    1.81
   6   3   3   38.10    1.37
   6   3   3   37.49    1.74
   6   3   3   42.35    2.03
  -7  -3  -3   48.36    1.95
  -7  -3  -3   43.84    2.04
  -7  -3  -3   45.21    2.34
   7   3   3   45.50    2.06
   7   3   3   46.16    2.35
  -8  -3  -3   99.22    4.02
  -8  -3  -3  109.18    3.43
   8   3   3  106.26    4.10
   8   3   3   99.43    3.48
  -9  -3  -3   16.29    1.43
  -9  -3  -3   19.58    2.08
   9   3   3   16.02    1.47
   9   3   3   18.97    1.99
 -10  -3  -3   11.99    1.78
  10   3   3    9.49    1.28
  10   3   3   10.66    1.61
 -11  -3  -3   11.57    1.80
  11   3   3    9.48    1.68
   9  -4  -3   11.43    1.65
  -9   4   3   10.07    2.15
   8  -4  -3    3.14    0.95
  -8   4   3    4.90    1.48
   7  -4  -3   70.14    3.12
  -7   4   3   68.89    3.95
   6  -4  -3    4.47    0.91
   6  -4  -3    5.29    0.86
  -6   4   3    5.27    1.24
   5  -4  -3   66.15    2.66
   5  -4  -3   66.31    2.52
  -5   4   3   62.29    3.16
   4  -4  -3   17.12    1.26
   4  -4  -3   20.87    1.22
  -4   4   3   21.91    1.63
  -4   4   3   19.82    0.79
   3  -4  -3   44.77    1.89
   3  -4  -3   46.39    1.78
  -3   4   3   45.59    2.18
  -3   4   3   47.27    1.49
  -3   4   3   49.29    1.77
   2  -4  -3    1.27    0.38
   2  -4  -3    1.29    0.17
   2  -4  -3    0.60    0.27
   2  -4  -3    0.47    0.31
  -2   4   3    1.12    0.48
  -2   4   3    0.82    0.31
  -2   4   3    0.81    0.14
  -2   4   3    0.78    0.15
   1  -4  -3    2.04    0.38
   1  -4  -3    1.26    0.30
   1  -4  -3    1.89    0.23
   1  -4  -3    1.20    0.33
  -1   4   3    1.80    0.26
  -1   4   3    1.75    0.22
  -1   4   3    1.98    0.47
  -1   4   3    1.38    0.28
   0  -4  -3    2.15    0.30
   0  -4  -3    2.00    0.37
   0  -4  -3    3.02    0.33
   0  -4  -3    2.39    0.41
   0  -4  -3    2.01    0.28
   0  -4  -3    1.91    0.29
   0   4   3    2.55    0.33
   0   4   3    2.26    0.46
   0   4   3    2.97    0.33
   0   4   3    1.56    0.25
  -1  -4  -3   90.70    2.29
  -1  -4  -3   94.48    2.55
  -1  -4  -3   95.00    2.56
  -1  -4  -3   99.28    2.53
  -1  -4  -3   94.56    2.56
  -1  -4  -3   99.67    2.59
   1   4   3   91.92    2.30
   1   4   3   97.41    2.23
   1   4   3   95.70    2.55
   1   4   3   94.27    2.91
   1   4   3   95.34    2.56
  -2  -4  -3   24.69    0.92
  -2  -4  -3   24.62    1.03
  -2  -4  -3   26.33    1.10
  -2  -4  -3   24.46    0.93
  -2  -4  -3   23.69    0.67
   2   4   3   24.88    1.22
   2   4   3   23.89    1.07
   2   4   3   24.11    1.06
   2   4   3   23.88    0.64
  -3  -4  -3  108.79    3.03
  -3  -4  -3  112.99    3.15
  -3  -4  -3  114.02    2.73
  -3  -4  -3  109.58    2.69
   3   4   3  109.24    3.31
   3   4   3  113.59    3.17
  -4  -4  -3   17.02    0.94
  -4  -4  -3   17.79    0.64
  -4  -4  -3   15.30    0.97
   4   4   3   17.31    1.01
   4   4   3   18.39    1.12
  -5  -4  -3   68.57    2.29
  -5  -4  -3   67.85    2.40
  -5  -4  -3   65.87    2.58
   5   4   3   67.05    2.58
   5   4   3   67.03    2.38
  -6  -4  -3    1.81    0.50
  -6  -4  -3    2.14    0.60
  -6  -4  -3    1.70    0.48
   6   4   3    2.07    0.61
   6   4   3    2.20    0.53
  -7  -4  -3  126.22    4.41
  -7  -4  -3  129.49    3.85
   7   4   3  125.57    4.38
  -8  -4  -3    4.44    0.80
  -8  -4  -3    2.56    0.82
   8   4   3    3.07    0.74
   8   4   3    2.00    0.77
  -9  -4  -3    6.66    1.00
  -9  -4  -3    6.34    1.24
   9   4   3    7.06    1.26
   9   4   3    8.89    1.21
 -10  -4  -3   36.80    2.07
 -10  -4  -3   38.68    2.68
  10   4   3   36.04    2.59
  10   4   3   36.39    2.20
 -11  -4  -3   23.88    2.64
  11   4   3   22.08    2.44
   8  -5  -3   12.38    1.69
  -8   5   3   13.67    2.41
   7  -5  -3    9.21    1.34
  -7   5   3    9.85    1.88
   6  -5  -3    3.90    0.91
  -6   5   3    4.11    1.17
   5  -5  -3   71.00    2.73
   5  -5  -3   69.11    2.89
  -5   5   3   69.65    3.44
   4  -5  -3   37.18    1.77
   4  -5  -3   37.22    1.90
  -4   5   3   37.68    1.73
  -4   5   3   34.08    2.13
  -4   5   3   36.08    1.22
   3  -5  -3   67.94    2.40
   3  -5  -3   67.31    2.55
  -3   5   3   67.33    2.02
  -3   5   3   70.21    2.95
  -3   5   3   71.71    2.37
   2  -5  -3  130.17    3.61
   2  -5  -3  126.79    3.77
  -2   5   3  125.98    3.36
  -2   5   3  131.35    4.21
  -2   5   3  132.04    3.54
   1  -5  -3   79.60    2.52
   1  -5  -3   73.75    2.30
   1  -5  -3   80.25    2.02
   1  -5  -3   80.82    2.46
  -1   5   3   77.54    1.96
  -1   5   3   80.45    2.90
  -1   5   3   77.82    2.01
  -1   5   3   74.33    2.22
   0  -5  -3   25.59    1.13
   0  -5  -3   26.41    1.15
   0  -5  -3   24.90    0.95
   0  -5  -3   23.18    0.92
   0  -5  -3   22.28    0.96
   0   5   3   23.67    1.36
   0   5   3   24.28    0.93
   0   5   3   24.99    0.95
   0   5   3   24.70    0.94
  -1  -5  -3  104.12    2.89
  -1  -5  -3  108.49    2.86
  -1  -5  -3  103.48    2.59
  -1  -5  -3  103.74    2.82
  -1  -5  -3  102.25    2.76
   1   5   3  107.71    2.84
   1   5   3  105.65    3.35
   1   5   3  104.88    2.82
   1   5   3  105.01    2.55
  -2  -5  -3   61.97    1.93
  -2  -5  -3   61.61    2.00
  -2  -5  -3   60.96    1.50
  -2  -5  -3   62.82    1.80
  -2  -5  -3   61.23    1.88
  -2  -5  -3   59.03    1.48
   2   5   3   62.60    1.99
   2   5   3   60.07    1.46
   2   5   3   63.42    2.34
  -3  -5  -3  345.06    8.19
  -3  -5  -3  346.71    8.08
  -3  -5  -3  351.94    7.68
  -3  -5  -3  348.31    7.80
   3   5   3  345.02    8.56
   3   5   3  343.35    8.17
  -4  -5  -3    5.40    0.66
  -4  -5  -3    4.49    0.63
   4   5   3    3.57    0.65
   4   5   3    4.27    0.61
  -5  -5  -3  259.03    6.48
  -5  -5  -3  253.56    6.61
   5   5   3  259.75    6.96
   5   5   3  259.86    6.63
  -6  -5  -3    6.71    0.88
  -6  -5  -3    6.86    0.87
   6   5   3    6.23    0.84
   6   5   3    5.74    0.95
  -7  -5  -3   24.01    1.48
  -7  -5  -3   23.92    1.73
   7   5   3   25.38    1.77
  -8  -5  -3   42.11    2.47
  -8  -5  -3   41.66    1.97
   8   5   3   38.26    2.34
   8   5   3   36.53    1.99
  -9  -5  -3   20.19    1.45
  -9  -5  -3   15.95    1.92
   9   5   3   18.50    1.65
   9   5   3   17.09    1.92
 -10  -5  -3    4.76    1.26
 -10  -5  -3    4.77    1.04
  10   5   3    4.49    1.18
  10   5   3    5.08    1.22
 -11  -5  -3   17.94    2.29
  11   5   3   19.00    2.30
   7  -6  -3   28.24    2.38
  -7   6   3   27.55    3.12
   6  -6  -3    6.54    1.16
  -6   6   3    7.07    1.57
   5  -6  -3   25.27    1.82
  -5   6   3   21.97    1.48
  -5   6   3   24.67    2.44
   4  -6  -3   26.61    1.71
   4  -6  -3   30.35    1.65
  -4   6   3   27.55    2.03
  -4   6   3   27.51    1.07
  -4   6   3   30.40    1.62
   3  -6  -3   45.03    1.92
   3  -6  -3   43.60    2.09
  -3   6   3   45.50    2.45
  -3   6   3   44.02    1.57
  -3   6   3   44.88    1.86
   2  -6  -3  143.28    4.23
   2  -6  -3  145.23    4.02
  -2   6   3  137.19    4.68
  -2   6   3  139.67    3.87
  -2   6   3  144.30    3.75
   1  -6  -3   17.96    1.13
   1  -6  -3   17.57    0.97
   1  -6  -3   17.76    1.08
  -1   6   3   18.23    1.39
  -1   6   3   16.31    0.92
  -1   6   3   18.46    1.00
   0  -6  -3   36.00    1.52
   0  -6  -3   35.00    1.32
   0  -6  -3   35.11    1.49
   0  -6  -3   36.10    1.25
   0  -6  -3   34.80    1.26
   0   6   3   34.69    1.44
   0   6   3   36.95    1.30
   0   6   3   35.52    1.24
   0   6   3   35.62    1.86
  -1  -6  -3  232.42    5.63
  -1  -6  -3  236.78    5.59
  -1  -6  -3  236.22    5.74
  -1  -6  -3  226.18    5.55
  -1  -6  -3  232.56    5.35
   1   6   3  230.93    5.31
   1   6   3  223.84    6.32
   1   6   3  230.41    5.56
  -2  -6  -3    3.29    0.50
  -2  -6  -3    3.75    0.40
  -2  -6  -3    4.23    0.50
  -2  -6  -3    3.21    0.48
  -2  -6  -3    4.40    0.59
   2   6   3    2.85    0.64
   2   6   3    3.65    0.52
  -3  -6  -3   32.52    1.39
  -3  -6  -3   33.05    1.28
  -3  -6  -3   31.14    1.42
   3   6   3   30.43    1.40
   3   6   3   33.52    1.76
  -4  -6  -3    2.23    0.38
  -4  -6  -3    3.05    0.58
  -4  -6  -3    1.66    0.43
   4   6   3    2.24    0.52
   4   6   3    1.79    0.54
  -5  -6  -3   14.37    1.10
  -5  -6  -3   11.98    1.05
   5   6   3   14.98    1.11
   5   6   3   11.17    1.27
  -6  -6  -3   53.89    2.19
   6   6   3   52.58    2.55
  -7  -6  -3    2.24    0.62
   7   6   3    2.40    0.77
  -8  -6  -3   55.54    2.48
   8   6   3   57.29    2.98
   8   6   3   52.22    2.47
  -9  -6  -3    7.93    1.44
  -9  -6  -3    7.15    1.04
   9   6   3    6.98    1.34
   9   6   3    8.74    1.20
 -10  -6  -3   11.38    1.43
 -10  -6  -3   10.90    1.87
  10   6   3    9.36    1.61
 -11  -6  -3   34.87    2.19
 -11  -6  -3   33.33    3.24
  11   6   3   30.21    3.01
   7  -7  -3   20.25    2.19
  -7   7   3   27.87    3.25
   6  -7  -3    1.59    0.95
  -6   7   3   -0.45    0.73
   5  -7  -3   52.11    2.70
  -5   7   3   51.56    2.40
  -5   7   3   52.06    3.20
   4  -7  -3   42.24    2.08
   4  -7  -3   39.13    2.18
  -4   7   3   40.46    2.58
  -4   7   3   37.12    1.89
  -4   7   3   35.44    1.32
   3  -7  -3   23.88    1.45
   3  -7  -3   24.08    1.65
  -3   7   3   22.13    2.10
  -3   7   3   23.33    1.37
  -3   7   3   23.67    1.14
   2  -7  -3   16.18    1.39
   2  -7  -3   13.45    1.13
  -2   7   3   14.83    1.72
  -2   7   3   14.39    1.02
  -2   7   3   14.64    0.95
   1  -7  -3  209.26    5.33
   1  -7  -3  205.28    5.59
  -1   7   3  206.68    5.24
  -1   7   3  206.21    6.26
  -1   7   3  203.55    5.25
   0  -7  -3   52.82    1.86
   0  -7  -3   56.85    2.13
   0  -7  -3   54.30    2.06
   0   7   3   56.27    2.03
   0   7   3   55.40    2.59
   0   7   3   56.50    1.84
  -1  -7  -3   21.89    1.11
  -1  -7  -3   24.88    1.20
  -1  -7  -3   22.27    1.53
  -1  -7  -3   26.14    1.33
   1   7   3   20.79    1.52
   1   7   3   23.39    1.22
   1   7   3   25.29    1.24
  -2  -7  -3   67.67    2.28
  -2  -7  -3   70.85    2.32
  -2  -7  -3   62.48    2.20
   2   7   3   69.78    2.90
   2   7   3   70.28    2.30
   2   7   3   68.01    2.30
  -3  -7  -3  239.74    6.24
  -3  -7  -3  253.69    6.36
  -3  -7  -3  247.72    6.10
   3   7   3  250.24    6.32
   3   7   3  255.01    7.05
  -4  -7  -3    7.63    0.72
  -4  -7  -3    6.77    0.80
  -4  -7  -3    8.78    0.96
   4   7   3    7.52    1.07
   4   7   3   10.17    1.02
  -5  -7  -3   55.70    2.33
  -5  -7  -3   55.01    2.21
   5   7   3   55.34    2.68
   5   7   3   61.37    2.40
  -6  -7  -3   78.59    2.91
   6   7   3   85.56    3.53
  -7  -7  -3   51.66    2.36
   7   7   3   54.44    2.42
   7   7   3   56.21    2.90
  -8  -7  -3   24.20    1.67
   8   7   3   23.09    2.23
   8   7   3   22.09    1.62
  -9  -7  -3    0.45    0.61
   9   7   3    0.29    0.67
   9   7   3    0.78    0.81
 -10  -7  -3   20.92    1.94
  10   7   3   32.91    3.09
   6  -8  -3    9.95    1.64
  -6   8   3   14.39    2.30
   5  -8  -3   33.36    2.28
  -5   8   3   35.55    2.84
  -5   8   3   29.93    2.46
   4  -8  -3   35.41    2.19
  -4   8   3   30.86    2.44
  -4   8   3   33.64    1.29
  -4   8   3   36.18    1.93
   3  -8  -3   36.54    1.91
   3  -8  -3   35.82    2.14
  -3   8   3   38.95    1.55
  -3   8   3   35.98    1.84
  -3   8   3   40.57    2.59
   2  -8  -3   31.21    1.66
   2  -8  -3   34.33    1.89
  -2   8   3   30.75    1.45
  -2   8   3   29.10    1.52
  -2   8   3   34.12    2.27
   1  -8  -3    1.86    0.63
  -1   8   3    2.25    0.76
  -1   8   3    1.86    0.71
  -1   8   3    1.13    0.45
   0  -8  -3    5.79    0.84
   0  -8  -3    7.60    0.91
   0   8   3    5.98    0.76
   0   8   3    6.89    1.17
  -1  -8  -3   20.57    1.12
  -1  -8  -3   20.72    1.29
   1   8   3   20.89    1.97
   1   8   3   18.58    1.18
  -2  -8  -3   68.10    2.44
  -2  -8  -3   69.52    2.39
   2   8   3   65.22    3.01
   2   8   3   71.28    2.47
  -3  -8  -3  100.98    3.19
  -3  -8  -3   99.50    3.06
  -3  -8  -3   96.47    3.17
   3   8   3   99.29    3.18
   3   8   3  100.97    3.88
  -4  -8  -3    4.49    0.63
  -4  -8  -3    3.24    0.63
  -4  -8  -3    4.11    0.74
   4   8   3    4.57    0.96
   4   8   3    3.47    0.68
  -5  -8  -3  160.10    4.61
   5   8   3  148.78    5.21
  -6  -8  -3   23.19    1.49
   6   8   3   21.59    2.09
  -7  -8  -3   23.89    1.62
   7   8   3   26.73    1.68
   7   8   3   21.94    2.17
  -8  -8  -3   58.14    2.73
   8   8   3   68.11    2.92
   8   8   3   73.54    3.63
  -9  -8  -3    2.59    0.87
   9   8   3    6.76    1.44
 -10  -8  -3    3.19    1.03
  10   8   3    2.05    1.02
   5  -9  -3   11.48    1.72
  -5   9   3   10.08    1.90
   4  -9  -3    7.68    1.33
  -4   9   3   11.47    1.87
  -4   9   3    9.33    0.73
  -4   9   3    9.55    1.26
   3  -9  -3   12.68    1.52
  -3   9   3   12.55    1.01
  -3   9   3   13.18    1.92
   2  -9  -3   38.60    2.20
  -2   9   3   33.11    2.50
  -2   9   3   42.28    1.78
   1  -9  -3   22.30    1.57
  -1   9   3   21.99    2.23
  -1   9   3   20.16    1.28
   0   9   3  110.46    3.50
   0   9   3  116.59    4.55
  -1  -9  -3    1.12    0.54
   1   9   3    0.42    0.52
   1   9   3    1.46    0.55
  -2  -9  -3    4.36    0.72
  -2  -9  -3    3.77    0.73
   2   9   3    3.68    0.69
   2   9   3    3.35    0.95
  -3  -9  -3   48.45    2.04
  -3  -9  -3   50.18    2.13
   3   9   3   47.65    2.72
  -4  -9  -3   46.04    2.10
  -4  -9  -3   45.70    1.91
   4   9   3   42.28    2.60
  -5  -9  -3    3.19    0.75
   5   9   3    4.77    1.09
   5   9   3    4.03    0.79
  -6  -9  -3    1.48    0.63
   6   9   3    0.58    0.58
   6   9   3    0.91    0.71
  -7  -9  -3   24.37    1.78
   7   9   3   28.36    1.79
   7   9   3   25.92    2.50
  -8  -9  -3   54.43    2.73
   8   9   3   61.60    2.81
   8   9   3   58.29    3.37
  -9  -9  -3    1.07    0.80
   9   9   3   -0.44    0.74
   3 -10  -3    2.44    0.98
  -3  10   3    2.12    1.04
  -3  10   3    1.01    0.51
   2 -10  -3   10.11    1.36
  -2  10   3    9.13    0.99
  -2  10   3    9.84    1.73
  -1  10   3    3.71    0.75
  -1  10   3    4.37    1.14
   0  10   3   32.26    2.46
   0  10   3   31.05    1.70
  -1 -10  -3    0.37    0.57
   1  10   3    1.72    0.83
   1  10   3    0.79    0.51
  -2 -10  -3   43.54    2.08
   2  10   3   39.24    2.59
   2  10   3   36.34    1.90
  -3 -10  -3   39.75    1.97
  -3 -10  -3   41.10    1.98
   3  10   3   42.73    2.73
  -4 -10  -3    2.48    0.65
  -4 -10  -3    2.54    0.74
   4  10   3    3.54    1.12
  -5 -10  -3   21.14    1.53
   5  10   3   23.52    2.44
  -6 -10  -3   17.75    1.65
   6  10   3   16.72    1.56
   6  10   3   16.38    2.04
  -7 -10  -3    1.59    0.74
   7  10   3    1.28    0.66
   7  10   3    1.07    0.93
  -8 -10  -3    3.23    0.98
   8  10   3    1.28    1.00
  -9 -10  -3    1.73    0.82
   9  10   3    1.33    0.99
  -2  11   3   50.32    3.45
  -1  11   3    0.65    0.81
  -1  11   3   -0.30    0.53
   0  11   3    2.13    0.69
   0  11   3    4.59    1.25
   1  11   3   17.72    1.56
   1  11   3   14.90    1.97
  -2 -11  -3    1.11    0.67
   2  11   3    1.79    0.67
   2  11   3    1.77    0.88
  -3 -11  -3    1.68    0.67
   3  11   3    3.36    1.07
  -4 -11  -3    3.03    0.85
  -4 -11  -3    3.13    0.78
   4  11   3    5.22    1.28
  -5 -11  -3   33.17    2.05
  -5 -11  -3   37.96    1.93
   5  11   3   36.43    2.76
  -6 -11  -3    0.63    0.72
   6  11   3    0.50    0.84
  -7 -11  -3    3.36    0.95
   7  11   3    2.16    1.04
   1  12   3   17.30    2.33
   1  12   3   19.01    1.69
  -2 -12  -3   27.30    2.21
   2  12   3   24.72    2.65
   2  12   3   24.35    1.73
  -3 -12  -3   37.73    2.16
   3  12   3   34.98    2.79
  -4 -12  -3    2.82    0.84
   4  12   3    5.42    1.38
  -5 -12  -3   -0.03    0.66
   5  12   3    0.38    0.79
   4  11  -4    7.65    1.54
   4  11  -4    9.50    1.35
  -4 -11   4    8.77    1.41
   3  11  -4    2.07    0.84
   3  11  -4    1.73    0.95
  -3 -11   4    3.23    0.92
  -2 -11   4    8.65    1.37
   7  10  -4    2.53    1.10
  -7 -10   4    1.93    0.87
   6  10  -4    5.56    1.43
  -6 -10   4    8.52    1.35
   5  10  -4   30.81    2.46
  -5 -10   4   30.11    2.10
   4  10  -4   17.31    1.55
   4  10  -4   15.84    2.03
  -4 -10   4   14.87    1.65
   3  10  -4    2.28    0.96
   3  10  -4    0.98    0.64
  -3 -10   4    1.08    0.73
   2  10  -4   16.61    2.02
   2  10  -4   18.34    1.50
  -2 -10   4   22.44    1.97
   1  10  -4   42.78    2.37
   1  10  -4   43.09    2.78
   1  10  -4   41.98    2.01
  -1 -10   4   43.89    2.34
   0  10  -4   22.97    1.42
  -1  10  -4    0.50    0.45
   8   9  -4    0.97    0.92
  -8  -9   4    0.76    0.83
   7   9  -4   30.78    2.07
   7   9  -4   33.06    2.64
  -7  -9   4   29.86    2.11
   6   9  -4    7.33    1.50
   6   9  -4    7.60    1.30
  -6  -9   4    6.34    1.15
   5   9  -4    9.77    1.55
  -5  -9   4   12.07    1.43
   4   9  -4  118.09    3.82
   4   9  -4  113.01    4.66
  -4  -9   4  115.57    4.12
   3   9  -4    0.95    0.70
   3   9  -4    0.18    0.48
   3   9  -4    0.90    0.58
  -3  -9   4    0.07    0.52
   2   9  -4   45.73    2.68
   2   9  -4   42.73    2.01
   2   9  -4   43.20    2.23
  -2  -9   4   45.62    2.29
   1   9  -4   32.75    2.26
   1   9  -4   33.60    1.69
   1   9  -4   31.99    1.92
  -1  -9   4   31.63    1.89
   0   9  -4   12.24    1.12
   0   9  -4    9.05    1.21
   0   9  -4    9.88    1.46
   0  -9   4    7.40    1.13
  -1   9  -4   59.47    2.11
  -1   9  -4   59.41    2.76
  -1   9  -4   59.12    2.77
   1  -9   4   56.85    2.79
  -2   9  -4    7.07    1.17
   2  -9   4    6.77    1.26
  -3   9  -4    0.93    0.73
   3  -9   4    0.47    0.77
   9   8  -4    2.03    1.07
  -9  -8   4    2.62    0.94
   8   8  -4    1.45    0.96
  -8  -8   4    1.68    0.84
   7   8  -4   31.92    2.45
   7   8  -4   34.07    2.03
  -7  -8   4   31.80    2.01
   6   8  -4    8.41    1.10
   6   8  -4    7.46    1.34
  -6  -8   4    8.97    1.26
   5   8  -4   81.31    4.13
   5   8  -4   81.51    3.74
   5   8  -4   82.47    3.04
  -5  -8   4   80.50    3.21
   4   8  -4  121.06    4.58
   4   8  -4  126.98    4.08
   4   8  -4  117.55    3.77
  -4  -8   4  115.43    4.05
   3   8  -4    2.40    0.74
   3   8  -4    1.92    0.61
   3   8  -4    0.74    0.62
  -3  -8   4    1.35    0.59
   2   8  -4    5.31    1.06
   2   8  -4    5.04    0.91
   2   8  -4    8.63    1.02
  -2  -8   4    6.89    0.98
   1   8  -4    7.92    1.24
   1   8  -4    8.13    0.91
   1   8  -4    7.99    1.09
   1   8  -4    8.48    1.04
  -1  -8   4    7.25    0.99
   0   8  -4   59.18    2.11
   0   8  -4   57.70    2.48
   0   8  -4   59.38    2.87
   0   8  -4   59.90    2.59
   0   8  -4   54.55    2.41
   0  -8   4   58.15    2.46
   0  -8   4   54.58    2.47
   0  -8   4   58.27    2.51
  -1   8  -4   23.44    1.63
  -1   8  -4   23.13    1.19
  -1   8  -4   25.16    1.89
  -1   8  -4   23.32    1.64
   1  -8   4   23.13    1.66
   1  -8   4   24.06    1.60
  -2   8  -4    0.01    0.58
  -2   8  -4    0.93    0.64
  -2   8  -4    0.41    0.30
   2  -8   4    0.13    0.63
  -3   8  -4   68.38    3.05
  -3   8  -4   67.45    3.10
   3  -8   4   69.59    3.26
  -4   8  -4   26.42    2.02
   4  -8   4   33.09    2.36
  -5   8  -4    7.51    1.44
   5  -8   4    6.79    1.30
   9   7  -4    4.74    1.29
  -9  -7   4    4.83    1.10
   8   7  -4   17.60    1.73
   8   7  -4   16.88    2.10
  -8  -7   4   15.35    1.57
   7   7  -4   25.34    1.76
   7   7  -4   30.22    2.27
  -7  -7   4   24.73    1.70
   6   7  -4    0.35    0.53
   6   7  -4    0.39    0.51
   6   7  -4    0.31    0.57
  -6  -7   4    0.30    0.50
   5   7  -4   50.86    2.70
   5   7  -4   49.86    2.19
   5   7  -4   46.49    2.25
   5   7  -4   52.84    2.27
  -5  -7   4   53.69    2.40
   4   7  -4   95.40    3.76
   4   7  -4   90.04    3.18
   4   7  -4  100.04    3.42
   4   7  -4   95.25    3.13
   4   7  -4   96.09    3.16
  -4  -7   4   94.52    3.37
   3   7  -4   16.28    1.15
   3   7  -4   13.44    1.28
   3   7  -4   12.98    1.44
   3   7  -4   14.95    1.07
   3   7  -4   14.89    1.06
  -3  -7   4   19.15    2.28
  -3  -7   4   14.99    1.36
   2   7  -4   63.93    2.43
   2   7  -4   62.47    2.79
   2   7  -4   61.83    2.51
   2   7  -4   65.29    2.30
  -2  -7   4   63.51    2.41
  -2  -7   4   64.20    2.55
  -2  -7   4   64.33    2.48
   1   7  -4   26.35    1.73
   1   7  -4   24.80    1.46
   1   7  -4   28.86    1.37
   1   7  -4   25.80    1.42
   1   7  -4   25.23    1.53
  -1  -7   4   23.37    1.40
   0   7  -4    1.01    0.49
   0   7  -4    1.51    0.64
   0   7  -4    2.39    0.66
   0   7  -4    1.61    0.44
   0   7  -4    1.64    0.55
   0  -7   4    1.08    0.54
  -1   7  -4    0.65    0.53
  -1   7  -4    0.05    0.30
  -1   7  -4    0.42    0.47
  -1   7  -4    0.20    0.51
  -1   7  -4   -0.24    0.36
   1  -7   4    0.50    0.51
   1  -7   4   -0.13    0.45
  -2   7  -4   30.49    1.96
  -2   7  -4   32.14    1.87
  -2   7  -4   29.31    1.12
  -2   7  -4   27.31    1.75
   2  -7   4   30.27    1.77
   2  -7   4   26.39    1.78
  -3   7  -4   60.56    2.81
  -3   7  -4   66.00    2.84
   3  -7   4   71.62    3.06
  -4   7  -4    0.27    0.66
  -4   7  -4    0.53    0.59
   4  -7   4    0.80    0.68
  -5   7  -4   16.95    1.81
   5  -7   4   14.20    1.73
  -6   7  -4   38.09    2.54
   6  -7   4   38.34    2.60
  10   6  -4   21.47    2.68
 -10  -6   4   20.24    2.64
   9   6  -4    1.50    0.89
  -9  -6   4    0.54    0.86
  -9  -6   4    2.49    0.78
   8   6  -4    1.96    0.73
   8   6  -4    1.67    0.85
  -8  -6   4    2.00    0.97
  -8  -6   4    2.10    0.76
   7   6  -4   46.53    2.73
   7   6  -4   39.50    2.09
  -7  -6   4   40.29    2.09
  -7  -6   4   39.91    2.61
   6   6  -4    4.83    1.08
   6   6  -4    5.71    0.91
   6   6  -4    4.59    0.80
  -6  -6   4    4.62    0.87
   5   6  -4    1.66    0.54
   5   6  -4    3.59    0.73
   5   6  -4    4.03    0.87
   5   6  -4    2.71    0.66
  -5  -6   4    2.84    0.66
   4   6  -4    0.02    0.39
   4   6  -4    1.10    0.47
   4   6  -4    0.44    0.41
   4   6  -4    0.38    0.42
   4   6  -4    0.55    0.38
   4   6  -4    0.33    0.39
  -4  -6   4    0.60    0.44
  -4  -6   4    0.56    0.42
   3   6  -4  149.22    4.11
   3   6  -4  149.74    4.69
   3   6  -4  142.05    4.32
   3   6  -4  142.12    4.20
   3   6  -4  147.15    4.21
   3   6  -4  152.15    4.09
  -3  -6   4  143.43    4.35
  -3  -6   4  145.87    4.31
   2   6  -4    3.00    0.67
   2   6  -4    4.21    0.58
   2   6  -4    3.70    0.65
   2   6  -4    2.72    0.59
   2   6  -4    4.40    0.62
   2   6  -4    3.68    0.58
  -2  -6   4    3.49    0.63
   1   6  -4    6.85    0.83
   1   6  -4    6.25    0.78
   1   6  -4    5.77    0.74
   1   6  -4    8.41    1.02
   1   6  -4    7.82    0.79
  -1  -6   4    7.30    0.81
   0   6  -4   97.52    3.20
   0   6  -4   98.79    3.18
   0   6  -4   91.20    3.18
   0   6  -4   96.96    2.80
   0   6  -4   97.60    3.41
   0  -6   4  101.47    3.06
  -1   6  -4  117.90    3.94
  -1   6  -4  115.04    3.15
  -1   6  -4  120.96    3.77
  -1   6  -4  121.93    3.77
  -1   6  -4  117.77    3.75
   1  -6   4  117.93    3.80
  -2   6  -4    3.31    0.77
  -2   6  -4    3.54    0.76
  -2   6  -4    4.78    0.46
  -2   6  -4    5.27    0.86
  -2   6  -4    3.42    0.70
   2  -6   4    3.62    0.76
   2  -6   4    4.19    0.77
  -3   6  -4   10.89    1.33
  -3   6  -4    7.89    1.04
  -3   6  -4    7.08    1.05
   3  -6   4    9.58    1.16
   3  -6   4    8.47    1.12
  -4   6  -4   47.43    2.77
  -4   6  -4   47.93    2.38
  -4   6  -4   53.11    2.52
   4  -6   4   43.41    2.39
  -5   6  -4   24.68    1.93
  -5   6  -4   26.38    1.81
   5  -6   4   27.06    2.25
  -6   6  -4   10.01    1.45
   6  -6   4    9.30    1.50
  -7   6  -4    6.35    1.41
   7  -6   4    4.73    1.21
  10   5  -4    7.53    1.62
 -10  -5   4    5.12    1.42
   9   5  -4    3.82    1.16
   9   5  -4    3.35    0.99
  -9  -5   4    3.56    1.19
  -9  -5   4    5.02    0.94
   8   5  -4   12.10    1.73
   8   5  -4    9.82    1.26
  -8  -5   4   10.05    1.16
  -8  -5   4   12.56    1.82
   7   5  -4   43.40    2.15
   7   5  -4   44.80    2.64
   7   5  -4   49.81    2.19
  -7  -5   4   45.98    2.12
  -7  -5   4   42.00    2.61
   6   5  -4    2.32    0.68
   6   5  -4    2.96    0.69
   6   5  -4    2.79    0.81
   6   5  -4    3.06    0.65
  -6  -5   4    2.20    0.61
  -6  -5   4    2.92    0.84
   5   5  -4   27.65    1.50
   5   5  -4   25.41    1.43
   5   5  -4   29.80    1.56
   5   5  -4   27.95    1.81
  -5  -5   4   27.13    1.51
   4   5  -4   44.32    2.18
   4   5  -4   45.04    1.79
   4   5  -4   47.42    1.95
   4   5  -4   49.09    1.94
   4   5  -4   49.42    2.01
  -4  -5   4   49.79    2.02
  -4  -5   4   47.07    2.07
   3   5  -4   78.35    2.63
   3   5  -4   79.17    2.91
   3   5  -4   76.79    2.48
   3   5  -4   81.20    2.58
   3   5  -4   80.98    2.44
   3   5  -4   76.33    2.70
   3   5  -4   79.07    2.65
  -3  -5   4   75.01    2.70
  -3  -5   4   80.50    2.71
   2   5  -4   12.58    1.05
   2   5  -4   13.03    0.86
   2   5  -4   13.93    0.88
   2   5  -4   12.92    0.83
   2   5  -4   15.24    1.07
   2   5  -4   13.85    1.06
   2   5  -4   13.44    0.96
  -2  -5   4   12.17    0.92
   1   5  -4   46.23    1.65
   1   5  -4   46.31    1.85
   1   5  -4   46.72    1.63
   1   5  -4   45.66    1.96
   1   5  -4   46.14    1.78
   1   5  -4   44.31    1.86
  -1  -5   4   43.12    1.78
  -1  -5   4   46.50    1.74
   0   5  -4   74.80    2.65
   0   5  -4   73.61    2.51
   0   5  -4   76.13    2.55
   0   5  -4   75.79    2.58
   0   5  -4   70.37    2.18
   0   5  -4   73.89    2.19
   0  -5   4   71.18    2.40
  -1   5  -4   63.70    2.38
  -1   5  -4   62.44    2.34
  -1   5  -4   63.91    1.90
  -1   5  -4   62.73    2.35
  -1   5  -4   62.91    2.43
   1  -5   4   63.96    2.19
  -2   5  -4   56.76    1.57
  -2   5  -4   54.27    2.26
  -2   5  -4   56.84    2.28
  -2   5  -4   56.00    2.30
  -2   5  -4   57.92    2.38
   2  -5   4   55.76    2.32
   2  -5   4   58.41    2.32
  -3   5  -4  160.85    4.88
  -3   5  -4  162.01    4.82
  -3   5  -4  171.56    5.07
   3  -5   4  166.95    4.87
   3  -5   4  163.85    4.99
  -4   5  -4    4.64    0.90
  -4   5  -4    6.30    1.04
  -4   5  -4    7.48    1.01
   4  -5   4    6.30    0.93
   4  -5   4    5.46    0.99
  -5   5  -4   13.21    1.37
  -5   5  -4   14.64    1.51
  -5   5  -4   16.27    1.83
   5  -5   4   12.93    1.48
  -6   5  -4   25.41    1.95
  -6   5  -4   23.19    1.92
   6  -5   4   20.01    2.00
  -7   5  -4    2.72    1.04
   7  -5   4    3.75    1.07
  -8   5  -4    0.02    0.81
   8  -5   4    0.60    0.85
  10   4  -4   19.26    2.49
 -10  -4   4   22.12    2.66
   9   4  -4   25.35    2.71
   9   4  -4   27.27    1.88
  -9  -4   4   31.26    2.99
   8   4  -4    4.42    1.19
   8   4  -4    3.48    0.80
  -8  -4   4    3.45    0.72
  -8  -4   4    4.24    1.15
   7   4  -4    3.61    0.70
   7   4  -4    5.07    0.86
   7   4  -4    3.24    0.91
  -7  -4   4    5.26    1.15
  -7  -4   4    3.34    0.71
   6   4  -4    1.95    0.53
   6   4  -4    2.40    0.70
   6   4  -4    2.00    0.59
   6   4  -4    2.47    0.61
  -6  -4   4    2.53    0.76
  -6  -4   4    1.19    0.50
   5   4  -4   35.14    1.65
   5   4  -4   32.05    1.90
   5   4  -4   36.61    1.66
   5   4  -4   34.95    1.65
  -5  -4   4   34.03    1.96
  -5  -4   4   36.66    1.77
  -5  -4   4   31.77    1.58
   4   4  -4   15.43    1.01
   4   4  -4   14.51    0.89
   4   4  -4   14.20    1.00
   4   4  -4   13.40    1.11
   4   4  -4   11.91    0.85
   4   4  -4   12.20    1.04
  -4  -4   4   13.80    1.03
  -4  -4   4   13.78    0.98
  -4  -4   4   14.17    1.34
   3   4  -4    3.51    0.57
   3   4  -4    4.66    0.60
   3   4  -4    4.42    0.57
   3   4  -4    4.10    0.55
   3   4  -4    3.82    0.66
   3   4  -4    4.89    0.66
  -3  -4   4    5.34    0.71
   2   4  -4  105.08    3.24
   2   4  -4  107.04    3.15
   2   4  -4  105.80    3.20
   2   4  -4  107.19    3.03
   2   4  -4  106.90    3.00
   2   4  -4  105.46    2.94
   2   4  -4  102.89    3.13
  -2  -4   4  106.16    3.19
   1   4  -4  110.84    3.09
   1   4  -4  101.96    3.16
   1   4  -4  110.80    3.19
   1   4  -4  106.55    2.90
   1   4  -4  104.70    3.18
   1   4  -4  112.32    2.97
   1   4  -4  106.94    3.15
  -1  -4   4  104.98    3.14
  -1  -4   4  106.35    3.01
   0   4  -4    0.13    0.28
   0   4  -4    0.03    0.17
   0   4  -4   -0.03    0.19
   0   4  -4    0.19    0.28
   0   4  -4    0.12    0.26
   0   4  -4    0.03    0.25
   0  -4   4   -0.09    0.20
   0  -4   4    0.12    0.23
  -1   4  -4   28.84    1.41
  -1   4  -4   31.14    1.43
  -1   4  -4   30.09    1.09
  -1   4  -4   33.05    1.47
  -1   4  -4   32.14    1.48
   1  -4   4   28.19    1.34
  -2   4  -4   16.59    0.61
  -2   4  -4   17.72    1.14
  -2   4  -4   17.27    1.11
  -2   4  -4   17.45    0.61
  -2   4  -4   14.46    1.04
  -2   4  -4   18.10    1.15
   2  -4   4   16.78    1.01
  -3   4  -4   79.78    2.87
  -3   4  -4   79.26    2.81
  -3   4  -4   83.49    2.82
  -3   4  -4   79.03    2.87
   3  -4   4   79.61    2.92
   3  -4   4   80.68    2.83
  -4   4  -4   14.20    1.35
  -4   4  -4   13.28    1.36
  -4   4  -4   13.77    1.23
   4  -4   4   12.55    1.24
   4  -4   4   10.93    1.19
  -5   4  -4   74.24    3.00
  -5   4  -4   76.78    2.87
  -5   4  -4   71.55    3.23
   5  -4   4   74.73    2.93
   5  -4   4   74.79    3.06
  -6   4  -4   61.56    2.83
  -6   4  -4   63.79    3.34
  -6   4  -4   64.07    2.74
   6  -4   4   62.78    2.91
  -7   4  -4    2.37    0.87
  -7   4  -4    0.95    0.69
   7  -4   4    2.32    0.88
  -8   4  -4   97.13    4.08
   8  -4   4   97.18    4.14
  10   3  -4    9.09    1.72
 -10  -3   4   13.43    2.12
   9   3  -4   27.88    1.93
   9   3  -4   28.54    2.84
  -9  -3   4   32.31    3.05
   8   3  -4   17.84    1.33
   8   3  -4   19.25    2.20
   8   3  -4   14.90    1.45
  -8  -3   4   18.09    2.10
   7   3  -4  152.92    4.62
   7   3  -4  162.49    5.58
   7   3  -4  150.79    4.46
  -7  -3   4  151.38    5.47
  -7  -3   4  146.96    4.29
   6   3  -4    0.29    0.37
   6   3  -4    0.92    0.45
   6   3  -4    0.30    0.47
  -6  -3   4    0.86    0.46
  -6  -3   4    0.68    0.41
  -6  -3   4    1.45    0.62
   5   3  -4    2.10    0.55
   5   3  -4    2.03    0.47
   5   3  -4    1.45    0.41
   5   3  -4    2.05    0.60
  -5  -3   4    1.92    0.52
  -5  -3   4    2.22    0.62
  -5  -3   4    1.88    0.46
   4   3  -4    1.37    0.40
   4   3  -4    2.18    0.46
   4   3  -4    0.97    0.36
   4   3  -4    0.77    0.32
   4   3  -4    1.43    0.42
   4   3  -4    0.91    0.39
  -4  -3   4    0.47    0.35
  -4  -3   4    1.46    0.42
  -4  -3   4    1.16    0.41
   3   3  -4  135.15    3.68
   3   3  -4  127.39    3.66
   3   3  -4  134.69    3.93
   3   3  -4  136.06    3.76
   3   3  -4  134.15    3.54
   3   3  -4  143.18    3.80
  -3  -3   4  133.93    3.94
  -3  -3   4  139.67    3.86
   2   3  -4    4.76    0.59
   2   3  -4    4.17    0.55
   2   3  -4    5.38    0.57
   2   3  -4    5.20    0.61
   2   3  -4    3.23    0.51
   2   3  -4    4.68    0.54
  -2  -3   4    3.68    0.56
   1   3  -4    6.25    0.65
   1   3  -4    5.94    0.64
   1   3  -4    6.19    0.62
   1   3  -4    5.67    0.65
   1   3  -4    6.37    0.59
   1   3  -4    5.39    0.64
   1   3  -4    5.91    0.54
  -1  -3   4    5.33    0.63
   0   3  -4  209.95    5.23
   0   3  -4  207.13    5.22
   0   3  -4  208.29    5.08
   0   3  -4  202.09    4.87
   0   3  -4  208.93    5.00
   0   3  -4  205.71    5.20
   0  -3   4  210.69    5.26
  -1   3  -4  581.55   12.71
  -1   3  -4  589.22   13.23
  -1   3  -4  599.10   13.28
  -1   3  -4  578.17   13.19
  -1   3  -4  581.20   13.08
  -1   3  -4  586.91   12.71
   1  -3   4  597.62   12.87
   1  -3   4  586.62   13.22
  -2   3  -4   10.72    0.94
  -2   3  -4   11.12    0.79
  -2   3  -4    9.71    0.87
  -2   3  -4   10.87    0.85
   2  -3   4   11.18    0.79
  -3   3  -4   40.77    1.78
  -3   3  -4   41.86    1.75
  -3   3  -4   40.71    1.76
  -3   3  -4   41.53    1.83
   3  -3   4   43.78    1.81
   3  -3   4   44.86    1.72
  -4   3  -4   60.84    2.49
  -4   3  -4   55.62    2.20
  -4   3  -4   56.90    2.32
   4  -3   4   56.88    2.36
   4  -3   4   57.47    2.27
  -5   3  -4   25.97    1.50
  -5   3  -4   28.61    1.89
  -5   3  -4   27.41    1.68
   5  -3   4   32.88    1.83
   5  -3   4   27.12    1.57
  -6   3  -4    1.00    0.60
  -6   3  -4   -0.05    0.43
  -6   3  -4    0.10    0.56
   6  -3   4    0.28    0.47
   6  -3   4    0.40    0.52
  -7   3  -4   14.17    1.80
  -7   3  -4   16.08    1.50
  -7   3  -4   11.70    1.42
   7  -3   4   12.48    1.49
  -8   3  -4  151.49    4.86
  -8   3  -4  137.75    4.92
   8  -3   4  136.39    5.02
  -9   3  -4   11.40    1.63
   9  -3   4   10.90    1.62
  10   2  -4    0.30    0.77
 -10  -2   4    0.49    0.87
   9   2  -4    0.55    0.58
   9   2  -4   -0.37    0.59
  -9  -2   4   -0.55    0.59
   8   2  -4   11.88    1.26
   8   2  -4   11.51    1.30
   8   2  -4   11.84    1.73
  -8  -2   4   17.20    2.08
   7   2  -4   48.77    2.11
   7   2  -4   52.01    2.23
   7   2  -4   51.39    2.86
  -7  -2   4   49.26    2.48
  -7  -2   4   46.87    2.79
   6   2  -4    1.47    0.50
   6   2  -4    3.12    0.56
   6   2  -4    2.69    0.76
   6   2  -4    2.22    0.52
  -6  -2   4    3.15    0.55
  -6  -2   4    2.54    0.77
  -6  -2   4    2.69    0.60
   5   2  -4  260.51    6.67
   5   2  -4  280.35    7.45
   5   2  -4  255.00    6.45
   5   2  -4  260.74    6.58
  -5  -2   4  271.15    7.40
  -5  -2   4  266.78    6.44
  -5  -2   4  268.65    6.75
   4   2  -4  179.04    4.61
   4   2  -4  165.01    4.33
   4   2  -4  171.63    4.47
   4   2  -4  168.47    4.53
   4   2  -4  178.16    5.06
  -4  -2   4  172.75    5.01
  -4  -2   4  176.78    4.67
  -4  -2   4  175.89    4.43
   3   2  -4   31.38    1.49
   3   2  -4   32.12    1.38
   3   2  -4   33.84    1.37
   3   2  -4   31.98    1.36
   3   2  -4   32.23    1.37
   3   2  -4   33.81    1.25
  -3  -2   4   31.97    1.40
  -3  -2   4   32.41    1.51
   2   2  -4    0.40    0.26
   2   2  -4    1.02    0.33
   2   2  -4    1.01    0.29
   2   2  -4    1.11    0.31
   2   2  -4    1.03    0.31
   2   2  -4    0.97    0.34
  -2  -2   4    0.73    0.30
  -2  -2   4    1.13    0.31
   1   2  -4   84.08    2.51
   1   2  -4   84.10    2.32
   1   2  -4   86.59    2.50
   1   2  -4   83.81    2.28
   1   2  -4   82.77    2.48
   1   2  -4   79.41    2.48
   1   2  -4   84.85    2.40
  -1  -2   4   85.82    2.59
   0   2  -4    5.89    0.61
   0   2  -4    7.73    0.73
   0   2  -4    6.39    0.63
   0   2  -4    6.65    0.62
   0   2  -4    5.79    0.54
   0   2  -4    5.28    0.56
   0   2  -4    6.42    0.52
   0  -2   4    5.63    0.62
  -1   2  -4   61.63    1.96
  -1   2  -4   57.67    1.57
  -1   2  -4   59.05    1.95
  -1   2  -4   59.11    1.61
  -1   2  -4   61.88    2.02
   1  -2   4   55.55    1.97
  -2   2  -4  104.25    2.98
  -2   2  -4  108.74    3.03
  -2   2  -4  106.94    3.12
  -2   2  -4  103.62    3.03
  -2   2  -4  102.66    2.89
   2  -2   4  110.18    3.10
  -3   2  -4  212.09    5.49
  -3   2  -4  200.69    5.38
  -3   2  -4  212.57    5.40
  -3   2  -4  212.69    5.47
  -3   2  -4  209.62    5.34
   3  -2   4  216.81    5.39
  -4   2  -4    9.87    1.10
  -4   2  -4    9.48    0.91
  -4   2  -4    8.79    0.92
  -4   2  -4   11.32    1.01
   4  -2   4    7.90    0.84
   4  -2   4   10.52    0.92
  -5   2  -4   11.21    1.11
  -5   2  -4   12.10    1.36
  -5   2  -4   13.49    1.14
  -5   2  -4   14.81    1.24
   5  -2   4   11.05    1.15
   5  -2   4   10.64    1.05
  -6   2  -4   38.66    2.25
  -6   2  -4   36.19    1.81
  -6   2  -4   35.59    1.89
   6  -2   4   37.30    1.87
   6  -2   4   34.19    1.90
  -7   2  -4   11.39    1.24
  -7   2  -4   12.20    1.34
  -7   2  -4    9.42    1.43
   7  -2   4   10.57    1.29
   7  -2   4   11.84    1.22
  -8   2  -4    0.64    0.73
  -8   2  -4    0.88    0.69
  -8   2  -4    1.56    0.72
   8  -2   4    0.63    0.72
  -9   2  -4    8.11    1.32
   9  -2   4    8.06    1.31
  10   1  -4   19.28    2.49
  10   1  -4   17.78    1.78
 -10  -1   4   15.59    2.27
   9   1  -4    4.55    0.92
   9   1  -4    4.32    1.26
  -9  -1   4    5.02    1.31
   8   1  -4   11.88    1.28
   8   1  -4   12.12    1.24
   8   1  -4   12.17    1.75
  -8  -1   4   10.96    1.65
   7   1  -4    1.11    0.54
   7   1  -4    1.06    0.49
   7   1  -4    0.37    0.42
   7   1  -4    1.03    0.62
  -7  -1   4    0.85    0.47
  -7  -1   4    0.24    0.58
   6   1  -4   38.74    2.27
   6   1  -4   33.04    1.68
   6   1  -4   38.24    1.73
   6   1  -4   35.48    1.65
  -6  -1   4   35.43    1.66
  -6  -1   4   38.40    2.27
   5   1  -4   30.09    1.41
   5   1  -4   31.79    1.48
   5   1  -4   30.14    1.44
   5   1  -4   34.99    1.96
  -5  -1   4   30.11    1.86
  -5  -1   4   32.04    1.26
  -5  -1   4   31.28    1.46
   4   1  -4    5.63    0.62
   4   1  -4    6.53    0.73
   4   1  -4    7.53    0.70
   4   1  -4    5.56    0.64
   4   1  -4    7.41    0.99
  -4  -1   4    5.10    0.61
  -4  -1   4    5.54    0.86
  -4  -1   4    5.60    0.57
   3   1  -4  584.03   13.12
   3   1  -4  584.94   13.50
   3   1  -4  587.15   12.96
   3   1  -4  589.39   13.13
   3   1  -4  601.36   13.11
  -3  -1   4  585.80   13.51
  -3  -1   4  589.98   13.18
   2   1  -4  399.21    9.09
   2   1  -4  416.22    9.31
   2   1  -4  399.60    9.22
   2   1  -4  406.70    9.27
   2   1  -4  410.71    9.36
  -2  -1   4  409.11    9.37
  -2  -1   4  405.71    9.34
   1   1  -4   54.41    1.64
   1   1  -4   53.46    1.75
   1   1  -4   52.73    1.80
   1   1  -4   53.59    1.81
   1   1  -4   55.05    1.73
  -1  -1   4   57.46    1.87
   0   1  -4  284.34    6.56
   0   1  -4  271.51    6.18
   0   1  -4  270.45    6.47
   0   1  -4  270.40    6.35
   0   1  -4  274.37    6.42
   0   1  -4  263.10    6.33
   0   1  -4  276.45    6.36
   0  -1   4  267.79    6.49
  -1   1  -4   66.42    2.07
  -1   1  -4   65.08    1.68
  -1   1  -4   64.76    2.07
  -1   1  -4   68.15    2.04
  -1   1  -4   63.94    2.06
  -1   1  -4   66.44    1.98
  -1   1  -4   65.14    1.65
   1  -1   4   65.03    2.10
  -2   1  -4    3.91    0.47
  -2   1  -4    3.82    0.50
  -2   1  -4    4.30    0.52
  -2   1  -4    3.75    0.48
  -2   1  -4    4.52    0.57
   2  -1   4    4.80    0.56
  -3   1  -4   46.11    1.74
  -3   1  -4   45.22    1.64
  -3   1  -4   46.96    1.70
  -3   1  -4   46.56    1.76
  -3   1  -4   48.69    1.80
   3  -1   4   47.99    1.70
  -4   1  -4   95.19    3.08
  -4   1  -4   89.74    2.86
  -4   1  -4   89.11    2.71
  -4   1  -4   86.10    2.77
   4  -1   4   89.84    2.71
   4  -1   4   89.42    2.77
  -5   1  -4  361.59    8.82
  -5   1  -4  363.84    9.03
  -5   1  -4  374.55    9.41
  -5   1  -4  375.49    8.90
   5  -1   4  372.50    8.80
   5  -1   4  372.10    8.94
   5  -1   4  386.85    9.15
  -6   1  -4   25.49    1.69
  -6   1  -4   27.02    1.43
  -6   1  -4   26.59    1.56
  -6   1  -4   26.00    1.43
   6  -1   4   24.66    1.42
   6  -1   4   24.44    1.53
  -7   1  -4   38.28    2.22
  -7   1  -4   33.32    1.88
  -7   1  -4   33.35    1.78
   7  -1   4   35.93    1.99
   7  -1   4   38.05    1.87
  -8   1  -4  128.01    4.76
  -8   1  -4  116.72    3.96
  -8   1  -4  122.35    4.19
   8  -1   4  117.13    4.21
   8  -1   4  119.52    5.42
   8  -1   4  117.75    4.63
  -9   1  -4   16.65    2.35
  -9   1  -4   19.73    1.70
   9  -1   4   21.77    1.95
  10   0  -4   15.65    2.24
 -10   0   4   16.14    2.30
   9   0  -4    0.68    0.82
   9   0  -4    0.84    0.65
  -9   0   4    0.34    0.82
   8   0  -4   19.57    1.58
   8   0  -4   20.62    2.31
   8   0  -4   18.48    1.66
  -8   0   4   17.87    2.19
   7   0  -4   91.32    3.27
   7   0  -4   91.68    3.16
   7   0  -4   94.48    3.23
  -7   0   4   95.97    4.12
   6   0  -4   32.19    1.57
   6   0  -4   33.00    1.61
   6   0  -4   34.09    1.71
  -6   0   4   31.42    2.09
  -6   0   4   35.47    1.56
   5   0  -4   43.47    1.77
   5   0  -4   42.47    1.79
   5   0  -4   42.75    1.74
  -5   0   4   42.16    1.65
  -5   0   4   37.28    2.14
  -5   0   4   40.85    1.48
   4   0  -4    0.83    0.32
   4   0  -4    0.92    0.35
   4   0  -4    0.88    0.35
  -4   0   4    0.49    0.26
  -4   0   4    0.41    0.34
  -4   0   4    0.56    0.21
   3   0  -4   45.47    1.57
   3   0  -4   48.02    1.65
   3   0  -4   47.31    1.71
   3   0  -4   43.16    1.60
  -3   0   4   49.54    2.04
  -3   0   4   44.30    1.60
   2   0  -4  147.95    3.82
   2   0  -4  145.49    3.78
   2   0  -4  144.21    3.76
   2   0  -4  149.33    3.74
   2   0  -4  155.40    3.85
  -2   0   4  145.17    4.02
  -2   0   4  146.32    3.84
   1   0  -4   50.44    1.61
   1   0  -4   47.65    1.54
   1   0  -4   47.66    1.63
   1   0  -4   46.01    1.51
   1   0  -4   46.62    1.55
   1   0  -4   45.82    1.61
  -1   0   4   45.64    1.60
   0   0  -4  517.12   11.47
   0   0  -4  506.84   11.14
   0   0  -4  513.30   11.26
   0   0  -4  509.14   11.43
   0   0  -4  511.29   11.31
   0   0  -4  521.37   11.32
   0   0   4  497.73   11.43
  -1   0  -4  299.35    6.78
  -1   0  -4  294.70    6.51
  -1   0  -4  300.91    6.86
  -1   0  -4  295.48    6.98
  -1   0  -4  297.18    7.00
  -1   0  -4  302.38    6.96
  -1   0  -4  299.13    6.50
  -1   0  -4  293.87    6.78
   1   0   4  310.29    7.04
  -2   0  -4   62.46    1.89
  -2   0  -4   56.91    1.85
  -2   0  -4   55.95    1.84
  -2   0  -4   55.73    1.76
  -2   0  -4   56.88    1.70
   2   0   4   59.18    1.88
   2   0   4   56.19    1.85
  -3   0  -4  327.99    7.81
  -3   0  -4  334.17    7.72
  -3   0  -4  329.77    7.63
  -3   0  -4  332.24    7.79
  -3   0  -4  336.87    7.73
   3   0   4  340.44    7.82
   3   0   4  342.24    7.74
  -4   0  -4    1.31    0.38
  -4   0  -4    2.28    0.47
  -4   0  -4    2.01    0.41
  -4   0  -4    2.26    0.41
   4   0   4    2.27    0.44
   4   0   4    2.17    0.45
   4   0   4    1.63    0.38
  -5   0  -4    5.84    0.69
  -5   0  -4    4.34    0.70
  -5   0  -4    5.00    0.63
  -5   0  -4    4.27    0.64
  -5   0  -4    5.16    0.63
   5   0   4    6.60    0.72
   5   0   4    4.82    0.74
   5   0   4    6.10    0.71
  -6   0  -4    1.55    0.51
  -6   0  -4    0.89    0.39
  -6   0  -4    1.09    0.43
  -6   0  -4    0.27    0.38
  -6   0  -4    0.31    0.37
   6   0   4    0.54    0.37
   6   0   4    0.54    0.37
   6   0   4    0.45    0.41
   6   0   4    1.05    0.46
  -7   0  -4    9.58    0.98
  -7   0  -4   10.26    1.12
  -7   0  -4   13.85    1.20
  -7   0  -4   12.23    1.43
   7   0   4   11.93    1.15
   7   0   4   14.82    1.32
   7   0   4   11.80    1.39
  -8   0  -4    7.08    0.94
  -8   0  -4    5.00    0.85
  -8   0  -4    7.15    1.21
   8   0   4    5.26    1.10
   8   0   4    6.13    0.93
   8   0   4    5.46    0.95
  -9   0  -4    1.13    0.70
  -9   0  -4    1.06    0.69
  -9   0  -4    0.06    0.89
   9   0   4    0.95    0.81
   9   0   4    1.44    0.81
  10  -1  -4    1.14    1.00
 -10   1   4   -0.26    0.78
   9  -1  -4    5.73    1.37
   9  -1  -4    4.26    1.03
  -9   1   4    5.04    1.31
   8  -1  -4    7.19    1.10
  -8   1   4    6.46    1.42
   7  -1  -4    0.75    0.47
   7  -1  -4    0.28    0.51
   7  -1  -4    0.95    0.50
  -7   1   4    1.33    0.74
   6  -1  -4    1.19    0.50
   6  -1  -4    1.15    0.52
   6  -1  -4    1.83    0.50
  -6   1   4    1.73    0.76
   5  -1  -4   54.19    2.16
   5  -1  -4   58.86    2.06
   5  -1  -4   59.04    2.15
  -5   1   4   51.81    2.74
  -5   1   4   56.22    1.92
   4  -1  -4   49.22    1.85
   4  -1  -4   49.88    1.93
   4  -1  -4   48.34    1.79
  -4   1   4   54.62    2.48
  -4   1   4   50.01    1.43
  -4   1   4   51.06    1.72
   3  -1  -4    5.88    0.61
   3  -1  -4    4.97    0.57
   3  -1  -4    5.94    0.68
   3  -1  -4    6.99    0.73
   3  -1  -4    4.73    0.54
  -3   1   4    6.74    0.93
  -3   1   4    6.13    0.58
   2  -1  -4   45.41    1.53
   2  -1  -4   43.64    1.54
   2  -1  -4   43.35    1.53
   2  -1  -4   43.57    1.61
   2  -1  -4   45.19    1.55
  -2   1   4   44.21    1.51
  -2   1   4   44.33    1.77
   1  -1  -4  101.80    2.72
   1  -1  -4   94.27    2.49
   1  -1  -4   97.38    2.71
   1  -1  -4   96.80    2.62
   1  -1  -4   96.60    2.59
  -1   1   4   95.85    2.69
  -1   1   4   97.33    2.68
   0  -1  -4   27.63    1.00
   0  -1  -4   26.36    1.02
   0  -1  -4   26.11    1.01
   0  -1  -4   25.61    1.10
   0  -1  -4   26.75    0.98
   0  -1  -4   29.23    1.14
   0   1   4   27.44    1.13
  -1  -1  -4  141.25    3.67
  -1  -1  -4  146.07    3.43
  -1  -1  -4  147.02    3.55
  -1  -1  -4  141.70    3.69
  -1  -1  -4  143.81    3.58
  -1  -1  -4  144.78    3.33
  -1  -1  -4  147.55    3.48
   1   1   4  140.99    3.66
  -2  -1  -4  132.40    3.18
  -2  -1  -4  132.03    3.27
  -2  -1  -4  135.34    3.40
  -2  -1  -4  132.04    3.43
  -2  -1  -4  133.72    3.49
   2   1   4  130.78    3.46
   2   1   4  131.74    3.47
  -3  -1  -4  159.37    4.04
  -3  -1  -4  156.25    4.03
  -3  -1  -4  155.96    3.89
  -3  -1  -4  161.48    3.97
  -3  -1  -4  160.61    3.82
  -3  -1  -4  158.61    4.11
   3   1   4  160.42    3.95
   3   1   4  159.65    4.13
  -4  -1  -4    3.77    0.55
  -4  -1  -4    3.39    0.50
  -4  -1  -4    4.39    0.55
  -4  -1  -4    4.50    0.60
  -4  -1  -4    4.24    0.47
   4   1   4    3.95    0.48
   4   1   4    4.05    0.57
   4   1   4    3.85    0.56
  -5  -1  -4  439.00   10.24
  -5  -1  -4  411.98    9.61
  -5  -1  -4  426.26    9.85
  -5  -1  -4  415.49    9.80
  -5  -1  -4  418.20    9.94
   5   1   4  417.39    9.70
   5   1   4  442.31   10.21
   5   1   4  426.87    9.95
  -6  -1  -4   71.88    2.49
  -6  -1  -4   78.19    2.44
  -6  -1  -4   79.57    2.95
  -6  -1  -4   75.92    2.57
  -6  -1  -4   73.21    2.62
   6   1   4   76.44    2.64
   6   1   4   80.98    2.95
   6   1   4   78.13    2.50
   6   1   4   71.73    2.56
  -7  -1  -4    0.89    0.42
  -7  -1  -4    1.47    0.62
  -7  -1  -4    0.48    0.44
  -7  -1  -4    0.67    0.43
  -7  -1  -4   -0.04    0.35
   7   1   4    1.09    0.53
   7   1   4    0.27    0.35
   7   1   4    0.43    0.40
   7   1   4    0.62    0.39
  -8  -1  -4    1.13    0.54
  -8  -1  -4    1.36    0.71
  -8  -1  -4    0.49    0.52
  -8  -1  -4    1.56    0.60
   8   1   4    1.67    0.73
   8   1   4    1.17    0.59
  -9  -1  -4   40.32    2.55
   9   1   4   36.34    2.44
 -10  -1  -4   37.37    2.63
  10   1   4   34.61    2.57
   9  -2  -4    2.08    0.89
  -9   2   4    4.03    1.39
   8  -2  -4    0.29    0.68
  -8   2   4   -0.40    0.55
   7  -2  -4    5.38    0.96
   7  -2  -4    5.88    0.93
  -7   2   4    6.49    1.39
   6  -2  -4   47.56    2.21
   6  -2  -4   48.36    2.15
   6  -2  -4   48.14    1.96
  -6   2   4   46.36    2.85
   5  -2  -4    0.06    0.36
   5  -2  -4    0.15    0.29
   5  -2  -4   -0.04    0.31
  -5   2   4    0.21    0.42
   4  -2  -4    2.11    0.45
   4  -2  -4    2.27    0.40
   4  -2  -4    2.35    0.50
   4  -2  -4    2.35    0.55
  -4   2   4    1.63    0.30
  -4   2   4    1.56    0.59
   3  -2  -4   65.93    2.18
   3  -2  -4   65.80    2.26
   3  -2  -4   63.46    2.00
   3  -2  -4   65.61    2.10
   3  -2  -4   65.98    2.16
  -3   2   4   65.37    2.58
  -3   2   4   67.36    1.93
   2  -2  -4  184.37    4.71
   2  -2  -4  190.54    4.68
   2  -2  -4  185.90    4.64
   2  -2  -4  196.36    4.90
   2  -2  -4  193.06    4.74
  -2   2   4  184.73    4.57
  -2   2   4  191.47    5.03
   1  -2  -4    4.82    0.47
   1  -2  -4    4.71    0.51
   1  -2  -4    5.34    0.59
   1  -2  -4    4.63    0.48
   1  -2  -4    4.94    0.42
  -1   2   4    5.13    0.59
  -1   2   4    5.85    0.56
   0  -2  -4   29.05    1.06
   0  -2  -4   30.54    1.03
   0  -2  -4   28.38    1.14
   0  -2  -4   30.38    1.13
   0  -2  -4   29.94    1.04
   0   2   4   30.16    1.16
   0   2   4   29.62    1.11
  -1  -2  -4  214.14    5.16
  -1  -2  -4  223.82    5.38
  -1  -2  -4  224.75    5.13
  -1  -2  -4  228.97    5.27
  -1  -2  -4  226.16    5.11
  -1  -2  -4  235.24    5.44
   1   2   4  229.62    5.40
   1   2   4  227.14    5.39
  -2  -2  -4    3.08    0.41
  -2  -2  -4    2.43    0.39
  -2  -2  -4    2.83    0.20
  -2  -2  -4    2.73    0.31
  -2  -2  -4    2.57    0.40
  -2  -2  -4    2.62    0.25
  -2  -2  -4    3.03    0.40
   2   2   4    2.45    0.40
   2   2   4    2.90    0.35
   2   2   4    2.70    0.32
   2   2   4    2.90    0.43
  -3  -2  -4   40.76    1.16
  -3  -2  -4   40.67    1.24
  -3  -2  -4   41.53    1.40
  -3  -2  -4   38.15    1.50
  -3  -2  -4   40.39    1.43
  -3  -2  -4   38.90    1.43
   3   2   4   39.99    1.42
   3   2   4   38.54    1.50
  -4  -2  -4    7.29    0.71
  -4  -2  -4    7.96    0.78
  -4  -2  -4    6.39    0.69
  -4  -2  -4    8.93    0.62
  -4  -2  -4    7.71    0.48
   4   2   4    6.40    0.53
   4   2   4    7.51    0.74
   4   2   4    8.55    0.67
  -5  -2  -4  186.91    5.01
  -5  -2  -4  189.95    5.15
  -5  -2  -4  193.58    4.77
  -5  -2  -4  185.39    4.55
  -5  -2  -4  190.06    4.89
   5   2   4  190.25    4.63
   5   2   4  192.19    5.15
   5   2   4  182.95    4.98
  -6  -2  -4   16.47    0.90
  -6  -2  -4   17.24    1.27
  -6  -2  -4   15.84    1.14
  -6  -2  -4   20.05    1.08
  -6  -2  -4   16.62    1.05
   6   2   4   16.26    1.12
   6   2   4   18.42    1.30
   6   2   4   17.15    1.03
   6   2   4   16.33    0.95
  -7  -2  -4   61.59    2.69
  -7  -2  -4   58.90    2.09
  -7  -2  -4   58.81    2.41
  -7  -2  -4   60.42    2.42
  -7  -2  -4   59.19    2.26
   7   2   4   57.15    2.63
   7   2   4   61.30    2.27
   7   2   4   61.01    2.42
  -8  -2  -4   97.65    3.85
  -8  -2  -4   96.85    3.23
   8   2   4   93.72    3.79
  -9  -2  -4    0.80    0.68
  -9  -2  -4    1.18    0.66
   9   2   4    1.12    0.73
   9   2   4    0.80    0.54
 -10  -2  -4   -0.26    0.65
  10   2   4    0.75    0.78
 -11  -2  -4    0.73    0.87
  11   2   4   -0.03    0.81
   9  -3  -4   -0.04    0.83
  -9   3   4    0.25    0.86
   8  -3  -4   62.91    2.99
  -8   3   4   66.50    4.04
   7  -3  -4   33.18    2.01
  -7   3   4   38.15    2.81
   6  -3  -4    5.13    0.84
   6  -3  -4    4.23    0.86
  -6   3   4    3.01    1.02
   5  -3  -4  137.60    3.84
   5  -3  -4  133.60    4.03
   5  -3  -4  129.81    4.14
  -5   3   4  138.52    5.03
  -5   3   4  136.83    3.19
   4  -3  -4   17.90    1.11
   4  -3  -4   18.81    1.24
   4  -3  -4   21.08    1.11
  -4   3   4   16.69    1.63
   3  -3  -4    2.32    0.48
   3  -3  -4    3.54    0.53
   3  -3  -4    3.12    0.41
   3  -3  -4    2.25    0.45
  -3   3   4    2.66    0.62
  -3   3   4    2.45    0.31
   2  -3  -4  101.98    2.87
   2  -3  -4   99.34    2.68
   2  -3  -4  101.71    3.03
   2  -3  -4  100.44    2.92
   2  -3  -4  102.53    2.89
  -2   3   4  105.24    2.67
  -2   3   4   99.10    3.20
   1  -3  -4  210.34    4.91
   1  -3  -4  202.04    4.94
   1  -3  -4  205.33    5.19
   1  -3  -4  222.88    4.86
   1  -3  -4  206.42    5.06
  -1   3   4  200.86    4.92
  -1   3   4  202.06    5.30
   0  -3  -4  323.00    7.27
   0  -3  -4  325.35    7.23
   0  -3  -4  330.44    7.42
   0  -3  -4  318.31    7.37
   0  -3  -4  326.73    7.55
   0   3   4  327.11    7.41
   0   3   4  324.32    7.63
   0   3   4  321.52    7.37
  -1  -3  -4   77.57    2.01
  -1  -3  -4   77.95    2.21
  -1  -3  -4   79.60    2.11
  -1  -3  -4   79.15    2.14
  -1  -3  -4   73.90    2.21
   1   3   4   74.73    2.21
   1   3   4   78.24    2.23
   1   3   4   74.84    1.97
   1   3   4   76.75    2.30
  -2  -3  -4  155.64    3.63
  -2  -3  -4  162.12    3.94
  -2  -3  -4  158.94    4.03
  -2  -3  -4  153.22    3.37
  -2  -3  -4  154.02    3.59
  -2  -3  -4  156.27    3.90
   2   3   4  154.65    3.98
   2   3   4  154.03    4.00
   2   3   4  153.93    3.58
  -3  -3  -4  206.54    5.17
  -3  -3  -4  204.91    4.59
  -3  -3  -4  210.34    4.90
  -3  -3  -4  202.42    4.44
  -3  -3  -4  210.78    5.06
   3   3   4  210.40    5.17
   3   3   4  197.19    4.64
   3   3   4  201.67    5.12
  -4  -3  -4    3.89    0.53
  -4  -3  -4    4.66    0.35
  -4  -3  -4    4.15    0.58
  -4  -3  -4    4.97    0.63
  -4  -3  -4    4.87    0.48
   4   3   4    4.36    0.60
   4   3   4    3.56    0.53
   4   3   4    4.71    0.38
   4   3   4    3.63    0.34
  -5  -3  -4    1.30    0.40
  -5  -3  -4    0.65    0.36
  -5  -3  -4    0.89    0.30
  -5  -3  -4    0.64    0.36
  -5  -3  -4    0.71    0.22
   5   3   4    0.62    0.38
   5   3   4    0.50    0.34
  -6  -3  -4   26.60    1.56
  -6  -3  -4   23.12    1.28
  -6  -3  -4   25.67    1.42
   6   3   4   21.72    1.32
   6   3   4   25.55    1.50
  -7  -3  -4   78.52    3.23
  -7  -3  -4   74.27    2.65
  -7  -3  -4   73.55    3.05
   7   3   4   72.32    3.08
   7   3   4   69.05    2.95
  -8  -3  -4   43.97    2.04
  -8  -3  -4   45.81    2.48
   8   3   4   43.64    2.42
  -9  -3  -4   14.66    1.42
  -9  -3  -4   14.22    1.71
   9   3   4   16.40    1.54
   9   3   4   17.09    1.85
 -10  -3  -4  109.15    4.66
  10   3   4  114.95    4.71
  10   3   4  107.35    3.99
 -11  -3  -4    5.78    1.42
  11   3   4    5.01    1.36
   9  -4  -4   -0.30    0.80
  -9   4   4    0.92    1.00
   8  -4  -4    3.96    1.06
  -8   4   4    6.65    1.71
   7  -4  -4    4.24    0.98
  -7   4   4    4.68    1.34
   6  -4  -4    1.21    0.68
   6  -4  -4    2.32    0.74
  -6   4   4    1.43    0.81
   5  -4  -4  226.82    6.34
   5  -4  -4  229.47    6.13
  -5   4   4  225.79    5.12
  -5   4   4  225.67    7.18
   4  -4  -4   14.74    1.20
   4  -4  -4   12.09    1.16
  -4   4   4   14.78    1.61
  -4   4   4   13.58    0.74
   3  -4  -4  170.80    4.79
   3  -4  -4  170.07    4.58
  -3   4   4  174.89    5.22
   2  -4  -4  103.18    2.60
   2  -4  -4  100.17    3.13
   2  -4  -4  106.86    3.08
   2  -4  -4  102.40    2.97
  -2   4   4  108.62    2.66
  -2   4   4  102.44    2.59
  -2   4   4  105.95    3.47
   1  -4  -4   12.27    0.83
   1  -4  -4   11.26    0.52
   1  -4  -4   10.43    0.74
   1  -4  -4   11.57    0.59
   1  -4  -4   11.31    0.68
  -1   4   4   11.37    0.59
  -1   4   4   10.57    0.64
  -1   4   4   11.55    0.93
   0  -4  -4   58.91    1.69
   0  -4  -4   54.54    1.82
   0  -4  -4   58.88    1.73
   0  -4  -4   55.92    1.63
   0  -4  -4   57.46    1.93
   0   4   4   59.49    1.76
   0   4   4   58.01    2.10
   0   4   4   48.74    1.65
  -1  -4  -4   34.75    1.33
  -1  -4  -4   36.90    1.30
  -1  -4  -4   35.82    1.11
  -1  -4  -4   35.98    1.33
  -1  -4  -4   34.25    1.29
  -1  -4  -4   35.53    1.25
   1   4   4   35.89    1.31
   1   4   4   37.74    1.55
   1   4   4   34.97    1.32
  -2  -4  -4  177.04    4.37
  -2  -4  -4  180.17    4.34
  -2  -4  -4  181.01    4.50
  -2  -4  -4  170.03    3.96
  -2  -4  -4  176.09    4.22
   2   4   4  180.12    4.49
   2   4   4  177.92    4.67
   2   4   4  169.95    3.91
  -3  -4  -4   46.53    1.30
  -3  -4  -4   47.28    1.66
  -3  -4  -4   46.70    1.50
  -3  -4  -4   45.48    1.73
  -3  -4  -4   47.19    1.12
   3   4   4   45.08    1.79
   3   4   4   46.19    1.72
   3   4   4   45.32    1.10
  -4  -4  -4    0.43    0.29
  -4  -4  -4    0.76    0.35
  -4  -4  -4    0.56    0.23
   4   4   4    0.89    0.35
   4   4   4    0.85    0.14
   4   4   4    0.75    0.36
  -5  -4  -4  179.86    4.92
  -5  -4  -4  177.56    4.73
   5   4   4  178.39    4.89
   5   4   4  173.55    4.99
  -6  -4  -4   44.77    1.88
  -6  -4  -4   46.05    2.03
  -6  -4  -4   42.78    2.10
   6   4   4   45.95    2.01
   6   4   4   46.02    2.13
  -7  -4  -4    4.96    0.89
  -7  -4  -4    5.72    0.85
   7   4   4    4.56    0.85
  -8  -4  -4    7.30    1.20
  -8  -4  -4    6.43    0.92
   8   4   4    6.46    1.09
  -9  -4  -4   38.27    2.40
  -9  -4  -4   36.26    1.95
   9   4   4   38.74    2.41
   9   4   4   33.74    1.99
 -10  -4  -4   37.20    2.13
 -10  -4  -4   38.64    2.62
  10   4   4   35.20    2.18
  10   4   4   31.74    2.43
 -11  -4  -4    2.98    1.10
  11   4   4    3.14    1.12
   8  -5  -4    9.73    1.54
  -8   5   4    6.02    1.69
   7  -5  -4   25.73    2.18
  -7   5   4   25.30    2.98
   6  -5  -4    5.51    1.04
  -6   5   4    6.08    1.39
   5  -5  -4   13.18    1.27
   5  -5  -4   10.67    1.28
  -5   5   4   11.28    0.59
  -5   5   4   13.39    1.79
   4  -5  -4   47.30    2.04
   4  -5  -4   43.55    2.14
  -4   5   4   48.31    2.57
  -4   5   4   45.54    1.54
   3  -5  -4  278.88    6.94
   3  -5  -4  267.77    7.15
  -3   5   4  284.34    6.56
  -3   5   4  278.85    7.71
   2  -5  -4  133.67    4.19
   2  -5  -4  126.24    3.61
   2  -5  -4  129.61    3.86
  -2   5   4  133.00    4.27
   1  -5  -4   28.72    1.32
   1  -5  -4   26.64    1.33
   1  -5  -4   27.82    1.19
   1  -5  -4   27.57    1.09
  -1   5   4   28.71    1.06
  -1   5   4   27.32    0.99
  -1   5   4   25.19    1.54
   0  -5  -4  249.32    5.65
   0  -5  -4  241.14    5.69
   0  -5  -4  236.48    5.69
   0  -5  -4  245.33    6.02
   0  -5  -4  242.07    5.96
   0   5   4  244.35    6.44
   0   5   4  247.04    5.74
   0   5   4  244.60    5.70
  -1  -5  -4   31.50    1.30
  -1  -5  -4   32.09    1.34
  -1  -5  -4   31.03    1.38
  -1  -5  -4   31.83    1.28
  -1  -5  -4   34.56    1.25
  -1  -5  -4   31.46    1.06
   1   5   4   33.98    1.62
   1   5   4   32.76    1.42
   1   5   4   32.25    1.27
  -2  -5  -4   37.62    1.48
  -2  -5  -4   38.22    1.43
  -2  -5  -4   36.63    1.33
  -2  -5  -4   37.10    1.36
  -2  -5  -4   37.91    1.05
   2   5   4   35.64    1.44
   2   5   4   34.97    1.67
   2   5   4   36.39    1.03
  -3  -5  -4    9.25    0.58
  -3  -5  -4   10.83    0.76
  -3  -5  -4   11.62    0.67
  -3  -5  -4    7.99    0.78
   3   5   4    8.05    0.91
   3   5   4   10.42    0.79
  -4  -5  -4  138.32    3.88
  -4  -5  -4  140.84    4.02
   4   5   4  139.63    4.20
   4   5   4  139.98    3.99
  -5  -5  -4  130.46    4.02
  -5  -5  -4  142.59    3.95
   5   5   4  134.60    4.24
   5   5   4  135.47    4.04
  -6  -5  -4   72.39    2.57
  -6  -5  -4   72.44    2.78
   6   5   4   71.92    2.75
   6   5   4   67.35    2.84
  -7  -5  -4   43.62    2.35
  -7  -5  -4   42.91    1.98
   7   5   4   45.16    2.35
  -8  -5  -4    8.76    1.10
  -8  -5  -4    9.35    1.32
   8   5   4   10.72    1.41
  -9  -5  -4    5.89    1.21
  -9  -5  -4    3.40    0.81
   9   5   4    4.37    0.95
   9   5   4    4.23    1.01
 -10  -5  -4   17.94    2.07
 -10  -5  -4   19.08    1.73
  10   5   4   17.89    2.04
 -11  -5  -4    1.96    1.01
 -11  -5  -4    1.85    0.82
  11   5   4    2.58    0.97
   7  -6  -4    9.77    1.52
  -7   6   4    7.22    1.70
   6  -6  -4    7.86    1.31
  -6   6   4    8.05    1.67
   5  -6  -4   10.41    1.28
  -5   6   4   12.26    0.61
  -5   6   4   14.34    1.89
   4  -6  -4    6.67    1.00
   4  -6  -4    4.48    0.75
  -4   6   4    5.50    1.15
  -4   6   4    5.17    0.57
   3  -6  -4   13.69    1.18
   3  -6  -4   12.96    1.24
  -3   6   4   12.03    0.83
  -3   6   4   10.70    1.41
   2  -6  -4    3.54    0.68
   2  -6  -4    3.86    0.64
  -2   6   4    3.32    0.54
  -2   6   4    3.86    0.60
  -2   6   4    4.33    0.86
   1  -6  -4  101.53    2.96
   1  -6  -4  104.03    3.17
   1  -6  -4  103.24    3.22
  -1   6   4  100.54    2.86
  -1   6   4  100.54    3.65
   0  -6  -4   97.61    2.96
   0  -6  -4   98.27    2.69
   0  -6  -4   95.52    2.96
   0  -6  -4   94.05    2.61
   0   6   4   92.83    2.57
   0   6   4   98.04    2.64
   0   6   4   95.50    3.40
  -1  -6  -4    6.86    0.50
  -1  -6  -4    7.18    0.74
  -1  -6  -4    6.13    0.72
  -1  -6  -4    6.39    0.63
  -1  -6  -4    6.43    0.66
   1   6   4    6.28    0.62
   1   6   4    5.40    0.84
  -2  -6  -4  204.14    5.21
  -2  -6  -4  202.71    5.11
  -2  -6  -4  204.98    5.12
  -2  -6  -4  206.50    5.03
   2   6   4  206.68    5.20
   2   6   4  201.84    5.75
  -3  -6  -4  135.52    3.77
  -3  -6  -4  136.54    3.56
  -3  -6  -4  137.72    3.90
   3   6   4  135.26    3.86
   3   6   4  136.95    4.27
  -4  -6  -4  113.07    2.92
  -4  -6  -4  116.83    3.54
  -4  -6  -4  112.11    3.35
   4   6   4  111.23    3.77
   4   6   4  112.59    3.47
  -5  -6  -4    1.44    0.48
  -5  -6  -4    0.04    0.34
   5   6   4    0.33    0.44
   5   6   4    0.38    0.35
  -6  -6  -4  105.89    3.48
   6   6   4  109.77    3.93
  -7  -6  -4   70.61    2.73
   7   6   4   71.19    3.14
  -8  -6  -4   18.31    1.56
   8   6   4   19.85    1.99
  -9  -6  -4   15.98    1.55
   9   6   4   13.54    1.52
   9   6   4   16.51    1.93
 -10  -6  -4   60.45    2.88
 -10  -6  -4   63.10    3.50
  10   6   4   63.61    3.48
   7  -7  -4    3.71    1.17
  -7   7   4    5.74    1.64
   6  -7  -4   30.34    2.22
  -6   7   4   35.07    2.86
   5  -7  -4   52.97    2.76
  -5   7   4   50.88    1.43
  -5   7   4   51.39    3.21
   4  -7  -4   -0.04    0.59
   4  -7  -4    0.39    0.61
  -4   7   4    0.28    0.34
  -4   7   4    0.60    0.76
   3  -7  -4   62.10    2.41
   3  -7  -4   53.72    2.51
  -3   7   4   56.85    2.02
  -3   7   4   61.69    3.05
  -3   7   4   58.80    2.28
   2  -7  -4   15.12    1.09
   2  -7  -4   13.48    1.28
  -2   7   4   17.51    1.81
  -2   7   4   14.30    0.98
  -2   7   4   14.07    1.01
   1  -7  -4    7.02    0.78
   1  -7  -4    8.07    0.95
  -1   7   4    5.75    1.04
  -1   7   4    6.54    0.75
  -1   7   4    7.93    0.77
   0  -7  -4    7.04    0.86
   0  -7  -4    7.74    0.72
   0  -7  -4    8.10    0.91
   0   7   4    5.27    0.69
   0   7   4    8.62    1.16
  -1  -7  -4   67.53    2.34
  -1  -7  -4   69.91    2.21
  -1  -7  -4   68.46    2.40
   1   7   4   69.89    2.92
  -2  -7  -4   97.57    2.93
  -2  -7  -4   95.17    2.96
  -2  -7  -4   96.80    2.97
   2   7   4   96.83    3.57
   2   7   4  100.14    2.98
  -3  -7  -4   27.85    1.39
  -3  -7  -4   30.13    1.35
  -3  -7  -4   31.22    1.52
   3   7   4   31.45    1.51
   3   7   4   32.29    1.89
  -4  -7  -4   92.88    3.08
  -4  -7  -4   86.91    2.91
  -4  -7  -4   86.57    2.56
   4   7   4   89.87    3.01
   4   7   4   85.67    3.38
  -5  -7  -4   69.99    2.59
   5   7   4   70.12    3.01
  -6  -7  -4    1.05    0.53
   6   7   4    1.19    0.59
  -7  -7  -4    4.50    0.85
   7   7   4    6.93    1.19
  -8  -7  -4    1.18    0.64
   8   7   4    0.75    0.63
  -9  -7  -4    5.68    1.09
   9   7   4    4.85    1.02
   9   7   4    5.22    1.19
 -10  -7  -4    0.98    0.81
  10   7   4   -0.08    0.64
   6  -8  -4    0.03    0.89
  -6   8   4    1.25    1.18
   5  -8  -4    1.76    0.89
  -5   8   4    2.84    1.12
   4  -8  -4    5.40    1.07
  -4   8   4    5.92    0.68
  -4   8   4    3.25    1.07
   3  -8  -4   77.39    2.93
   3  -8  -4   76.40    3.17
  -3   8   4   75.78    2.81
  -3   8   4   77.69    2.50
  -3   8   4   68.28    3.52
   2  -8  -4    1.77    0.58
   2  -8  -4    1.87    0.73
  -2   8   4    1.59    0.78
  -2   8   4    2.20    0.56
   1  -8  -4   12.51    1.26
  -1   8   4   11.68    1.53
  -1   8   4   13.09    1.13
   0  -8  -4   64.73    2.48
   0  -8  -4   61.20    2.44
   0   8   4   61.74    2.33
   0   8   4   65.88    3.05
  -1  -8  -4   16.14    1.32
   1   8   4   15.70    1.66
   1   8   4   16.37    1.12
  -2  -8  -4   25.07    1.39
  -2  -8  -4   23.89    1.29
   2   8   4   25.28    1.38
   2   8   4   24.79    1.79
  -3  -8  -4   13.18    1.17
  -3  -8  -4   10.53    0.98
  -3  -8  -4   11.05    1.08
   3   8   4   12.77    1.47
   3   8   4   13.42    1.03
  -4  -8  -4   19.71    1.26
  -4  -8  -4   18.47    1.31
  -4  -8  -4   16.85    1.05
   4   8   4   17.30    1.25
   4   8   4   15.69    1.68
  -5  -8  -4   30.90    1.69
   5   8   4   33.92    2.12
  -6  -8  -4    8.32    1.07
   6   8   4    6.24    1.18
  -7  -8  -4  154.09    4.83
   7   8   4  156.07    5.54
  -8  -8  -4   36.13    2.11
   8   8   4   38.72    2.23
   8   8   4   37.88    2.59
  -9  -8  -4    4.69    1.01
   9   8   4    4.49    1.21
 -10  -8  -4   41.36    2.46
  10   8   4   45.92    3.09
   5  -9  -4   54.45    3.08
  -5   9   4   52.81    3.64
   4  -9  -4    1.43    0.85
  -4   9   4    1.39    0.46
  -4   9   4    1.35    0.89
   3  -9  -4    8.96    1.36
  -3   9   4   10.84    0.99
  -3   9   4   13.09    1.92
   2  -9  -4   18.26    1.70
  -2   9   4   17.87    2.11
  -2   9   4   17.47    1.22
   1  -9  -4   48.31    2.36
  -1   9   4   49.88    2.90
  -1   9   4   50.85    2.10
   0   9   4    1.28    0.73
   0   9   4    0.85    0.48
  -1  -9  -4   14.81    1.35
   1   9   4   12.36    1.62
   1   9   4   15.25    1.31
  -2  -9  -4   46.17    1.93
  -2  -9  -4   48.40    2.10
   2   9   4   43.24    2.56
   2   9   4   42.87    2.18
  -3  -9  -4   59.67    2.29
  -3  -9  -4   58.23    2.31
   3   9   4   53.90    2.87
  -4  -9  -4   11.13    1.08
  -4  -9  -4   12.42    1.23
   4   9   4   11.04    1.55
  -5  -9  -4    7.51    0.82
  -5  -9  -4    5.94    0.96
   5   9   4    6.16    1.20
  -6  -9  -4    4.53    0.89
   6   9   4    6.27    1.26
  -7  -9  -4   20.67    1.80
   7   9   4   21.35    1.81
   7   9   4   21.83    2.24
  -8  -9  -4    3.02    0.90
   8   9   4    3.08    1.05
   8   9   4    2.26    0.81
  -9  -9  -4    7.54    1.26
   9   9   4    7.07    1.61
   3 -10  -4   83.78    3.78
  -3  10   4   88.49    2.86
  -3  10   4   88.50    4.44
   2 -10  -4   31.07    2.14
  -2  10   4   32.93    2.66
  -2  10   4   33.99    1.72
  -1  10   4   12.23    1.83
  -1  10   4   12.53    1.21
   0  10   4    6.88    1.37
   0  10   4    4.02    0.79
  -1 -10  -4   57.68    2.58
   1  10   4   60.51    3.27
   1  10   4   59.96    2.48
  -2 -10  -4   39.47    2.03
   2  10   4   39.56    2.59
   2  10   4   43.17    3.02
  -3 -10  -4   15.02    1.33
  -3 -10  -4   12.69    1.24
   3  10   4   14.95    1.88
  -4 -10  -4   59.62    2.54
  -4 -10  -4   59.60    2.38
   4  10   4   56.47    3.21
  -5 -10  -4   57.00    2.58
  -5 -10  -4   54.60    2.18
   5  10   4   52.16    3.11
  -6 -10  -4    1.56    0.68
   6  10   4    1.33    0.79
   6  10   4    3.83    0.91
  -7 -10  -4   40.93    2.32
   7  10   4   38.69    2.20
   7  10   4   40.59    2.84
  -8 -10  -4    9.35    1.37
   8  10   4    8.99    1.63
  -2  11   4    0.62    0.88
  -1  11   4   47.08    3.23
  -1  11   4   55.25    2.38
   0  11   4   16.56    1.49
   0  11   4   20.28    2.38
   1  11   4   26.79    2.66
   1  11   4   27.86    1.73
  -2 -11  -4   11.08    1.29
   2  11   4    9.88    1.66
   2  11   4   10.30    1.50
  -3 -11  -4   16.14    1.51
   3  11   4   19.09    2.31
  -4 -11  -4    8.40    1.14
  -4 -11  -4    7.40    1.12
   4  11   4    8.83    1.67
  -5 -11  -4    1.58    0.72
  -5 -11  -4    1.14    0.60
   5  11   4    2.41    1.04
  -6 -11  -4    8.73    1.31
   6  11   4    8.31    1.62
  -7 -11  -4   28.22    2.05
   7  11   4   26.80    2.79
   1  12   4   13.22    1.39
   1  12   4   14.05    2.16
  -2 -12  -4   55.71    2.74
   2  12   4   51.28    3.38
   2  12   4   54.88    2.58
  -3 -12  -4    4.69    0.98
   3  12   4    4.19    1.32
  -4 -12  -4   45.21    2.53
   4  12   4   42.21    3.07
  -5 -12  -4   31.73    2.10
   5  12   4   31.04    3.12
   6  10  -5    8.08    1.60
  -6 -10   5   11.09    1.63
   5  10  -5    2.87    1.08
  -5 -10   5    3.53    1.00
   4  10  -5    1.18    0.69
  -4 -10   5   -0.48    0.56
   3  10  -5   31.56    1.88
  -3 -10   5   30.77    2.17
   2  10  -5   34.52    2.50
   2  10  -5   31.68    1.83
  -2 -10   5   32.76    2.18
   1  10  -5    0.47    0.56
  -1 -10   5   -0.02    0.65
   0  10  -5   12.98    1.20
   7   9  -5   21.41    2.40
  -7  -9   5   28.44    2.33
   6   9  -5    4.00    1.21
  -6  -9   5    3.50    1.00
   5   9  -5   29.13    2.29
  -5  -9   5   33.47    2.12
   4   9  -5    0.55    0.59
   4   9  -5    0.22    0.93
   4   9  -5    0.71    0.75
  -4  -9   5    0.41    0.59
   3   9  -5    1.73    0.86
   3   9  -5    0.92    0.71
   3   9  -5    0.81    0.61
  -3  -9   5    1.14    0.71
   2   9  -5   -0.91    0.52
   2   9  -5    0.80    0.57
  -2  -9   5    0.37    0.56
   1   9  -5   12.55    1.21
   1   9  -5   12.15    1.45
  -1  -9   5   14.04    1.48
   0   9  -5   55.24    2.71
   0   9  -5   48.66    2.04
   0  -9   5   52.57    2.52
  -1   9  -5   13.71    1.10
  -1   9  -5   13.55    1.60
   1  -9   5   12.70    1.56
  -2   9  -5   13.86    1.65
   2  -9   5   12.21    1.62
  -3   9  -5   61.44    3.18
   3  -9   5   58.84    3.24
   8   8  -5    0.62    0.91
  -8  -8   5    0.99    0.72
   7   8  -5    0.30    0.70
   7   8  -5    0.50    0.69
  -7  -8   5    0.16    0.60
   6   8  -5    3.00    0.78
   6   8  -5    1.76    0.82
  -6  -8   5    2.25    0.79
   5   8  -5  117.70    3.94
   5   8  -5  108.51    4.04
   5   8  -5  115.77    4.60
  -5  -8   5  117.81    4.18
   4   8  -5    2.42    0.76
   4   8  -5    1.99    0.77
   4   8  -5    3.27    0.74
  -4  -8   5    1.88    0.80
   3   8  -5    9.18    1.21
   3   8  -5   10.34    1.16
   3   8  -5   10.54    1.42
  -3  -8   5    8.83    1.17
   2   8  -5   17.05    1.36
   2   8  -5   14.74    1.58
   2   8  -5   14.68    1.52
  -2  -8   5   14.25    1.48
   1   8  -5   14.32    1.24
   1   8  -5   12.89    1.38
   1   8  -5    9.99    1.19
  -1  -8   5   14.41    1.51
   0   8  -5    4.08    0.87
   0   8  -5    4.71    0.92
   0   8  -5    4.38    0.88
   0   8  -5    4.97    0.72
   0  -8   5    3.76    0.88
  -1   8  -5    8.69    0.82
  -1   8  -5    7.69    1.15
  -1   8  -5    7.73    1.19
   1  -8   5    6.85    1.14
  -2   8  -5   20.03    1.87
  -2   8  -5   18.20    1.75
  -2   8  -5   19.82    0.85
   2  -8   5   15.89    1.70
  -3   8  -5   30.27    2.08
   3  -8   5   30.36    2.23
  -4   8  -5   -0.32    0.74
   4  -8   5    0.14    0.70
   9   7  -5    1.59    1.02
  -9  -7   5    3.93    0.96
   8   7  -5   -0.01    0.65
  -8  -7   5   -0.29    0.63
   7   7  -5    5.38    1.16
   7   7  -5    6.86    1.33
   7   7  -5    5.59    1.03
  -7  -7   5    7.20    1.13
   6   7  -5    2.17    0.88
   6   7  -5    1.87    0.68
   6   7  -5    1.05    0.58
  -6  -7   5    1.81    0.69
   5   7  -5    2.12    0.70
   5   7  -5    1.13    0.57
   5   7  -5    0.86    0.61
   5   7  -5    0.17    0.57
  -5  -7   5    1.74    0.71
   4   7  -5   10.57    1.07
   4   7  -5    9.63    1.20
   4   7  -5   11.60    1.40
   4   7  -5   13.50    1.35
   4   7  -5   13.29    1.24
  -4  -7   5   12.96    1.38
   3   7  -5  169.11    5.29
   3   7  -5  158.15    4.57
   3   7  -5  159.60    4.87
   3   7  -5  161.60    4.96
   3   7  -5  165.51    4.82
  -3  -7   5  157.17    4.89
   2   7  -5  119.90    3.52
   2   7  -5  107.92    3.70
   2   7  -5  115.62    3.87
   2   7  -5  114.73    4.07
  -2  -7   5  114.98    3.83
   1   7  -5   61.28    2.51
   1   7  -5   65.17    2.79
   1   7  -5   59.37    2.20
   1   7  -5   59.87    2.56
   1   7  -5   60.26    2.44
   0   7  -5   71.88    2.39
   0   7  -5   69.97    2.80
   0   7  -5   70.00    2.88
   0   7  -5   74.41    2.89
  -1   7  -5   23.72    1.15
  -1   7  -5   21.78    1.56
  -1   7  -5   23.81    1.56
  -1   7  -5   21.40    1.77
   1  -7   5   20.48    1.53
  -2   7  -5   30.27    1.86
  -2   7  -5   27.78    1.05
  -2   7  -5   30.14    1.91
   2  -7   5   29.00    1.91
  -3   7  -5   12.57    1.55
  -3   7  -5    9.91    1.31
   3  -7   5   11.83    1.52
  -4   7  -5    9.74    1.41
   4  -7   5   13.00    1.63
  -5   7  -5   44.19    2.67
   5  -7   5   43.75    2.80
   9   6  -5    0.31    0.76
  -9  -6   5    0.09    0.79
  -9  -6   5   -0.02    0.55
   8   6  -5   23.74    2.39
   8   6  -5   27.08    1.93
  -8  -6   5   23.43    2.45
  -8  -6   5   26.70    1.81
   7   6  -5   22.45    1.83
   7   6  -5   21.73    1.60
   7   6  -5   22.29    2.19
  -7  -6   5   22.52    1.58
   6   6  -5   -0.12    0.49
   6   6  -5    0.37    0.51
   6   6  -5   -0.03    0.53
  -6  -6   5    0.05    0.46
   5   6  -5  122.11    4.39
   5   6  -5  122.94    4.01
   5   6  -5  120.56    3.88
   5   6  -5  118.58    3.90
  -5  -6   5  116.21    3.92
   4   6  -5    1.70    0.65
   4   6  -5    2.64    0.64
   4   6  -5    2.28    0.62
   4   6  -5    3.13    0.65
   4   6  -5    1.84    0.59
   4   6  -5    3.20    0.75
  -4  -6   5    2.10    0.63
   3   6  -5    9.22    1.15
   3   6  -5   11.06    1.14
   3   6  -5    8.49    1.01
   3   6  -5    9.16    0.95
   3   6  -5   10.53    1.01
   3   6  -5    8.81    1.09
  -3  -6   5    9.73    1.10
  -3  -6   5    7.53    1.08
   2   6  -5   20.32    1.42
   2   6  -5   20.02    1.23
   2   6  -5   22.02    1.40
   2   6  -5   20.64    1.19
   2   6  -5   18.72    1.25
   2   6  -5   18.59    1.14
  -2  -6   5   19.08    1.30
   1   6  -5   52.43    2.25
   1   6  -5   48.70    2.13
   1   6  -5   48.62    1.84
   1   6  -5   46.56    2.00
   1   6  -5   42.96    2.06
  -1  -6   5   48.16    2.07
   0   6  -5  146.05    4.40
   0   6  -5  144.95    4.42
   0   6  -5  144.80    4.34
   0   6  -5  138.33    3.86
   0   6  -5  151.49    4.51
   0  -6   5  145.97    4.26
  -1   6  -5    4.74    0.81
  -1   6  -5    5.98    0.92
  -1   6  -5    4.06    0.80
  -1   6  -5    4.81    0.58
  -2   6  -5   97.99    3.50
  -2   6  -5  101.03    3.51
  -2   6  -5   96.03    2.45
  -2   6  -5   90.69    3.38
   2  -6   5   95.87    3.54
   2  -6   5   94.83    3.44
  -3   6  -5   66.81    2.83
  -3   6  -5   60.42    2.76
   3  -6   5   68.56    2.94
  -4   6  -5    3.69    0.90
  -4   6  -5    3.75    0.94
   4  -6   5    3.26    0.88
  -5   6  -5   11.19    1.41
  -5   6  -5   12.90    1.57
   5  -6   5    9.09    1.46
  -6   6  -5   13.53    1.71
   6  -6   5   17.65    2.01
  10   5  -5   21.52    2.66
 -10  -5   5   12.18    2.02
   9   5  -5    6.46    1.50
  -9  -5   5    6.63    1.55
   8   5  -5    2.79    0.78
   8   5  -5    1.40    0.83
   8   5  -5    1.82    0.81
  -8  -5   5    1.98    0.68
  -8  -5   5    2.50    0.95
   7   5  -5    0.65    0.62
   7   5  -5    1.37    0.56
   7   5  -5    0.81    0.68
  -7  -5   5    0.45    0.54
  -7  -5   5    1.10    0.75
   6   5  -5    8.47    1.06
   6   5  -5    6.41    0.93
   6   5  -5    9.50    1.11
   6   5  -5    7.21    1.18
  -6  -5   5    8.31    1.04
  -6  -5   5    8.92    1.35
   5   5  -5  177.15    5.09
   5   5  -5  179.43    5.07
   5   5  -5  176.34    5.52
   5   5  -5  173.45    5.03
  -5  -5   5  171.69    5.02
   4   5  -5    3.50    0.68
   4   5  -5    3.37    0.76
   4   5  -5    3.62    0.63
   4   5  -5    3.36    0.69
   4   5  -5    4.90    0.75
   4   5  -5    4.73    0.79
  -4  -5   5    2.92    0.64
  -4  -5   5    3.78    0.80
   3   5  -5   92.51    2.97
   3   5  -5   93.77    3.29
   3   5  -5  100.68    3.20
   3   5  -5   92.10    3.11
   3   5  -5   96.46    2.97
   3   5  -5   88.52    2.86
   3   5  -5   99.02    3.25
  -3  -5   5   93.44    3.23
   2   5  -5   95.28    3.16
   2   5  -5   99.44    3.08
   2   5  -5   97.15    3.20
   2   5  -5   99.09    2.94
   2   5  -5   97.32    3.27
   2   5  -5  102.26    3.03
   2   5  -5   97.19    3.25
  -2  -5   5  100.92    3.26
   1   5  -5   20.30    1.18
   1   5  -5   20.05    1.27
   1   5  -5   21.19    1.08
   1   5  -5   19.06    1.22
   1   5  -5   19.92    1.07
   1   5  -5   21.50    1.27
  -1  -5   5   18.30    1.20
   0   5  -5   41.17    1.88
   0   5  -5   42.35    1.84
   0   5  -5   39.98    1.53
   0   5  -5   45.47    1.91
   0   5  -5   43.00    1.89
   0  -5   5   38.27    1.77
  -1   5  -5   17.61    0.89
  -1   5  -5   17.13    1.22
  -1   5  -5   17.74    1.22
  -1   5  -5   15.95    1.16
  -1   5  -5   17.86    1.20
   1  -5   5   18.48    1.17
  -2   5  -5  116.73    3.79
  -2   5  -5  115.29    2.83
  -2   5  -5  121.98    3.85
  -2   5  -5  118.40    3.85
  -3   5  -5    7.86    1.10
  -3   5  -5    7.94    1.00
  -3   5  -5    7.35    0.99
   3  -5   5    6.21    0.91
   3  -5   5    8.42    1.10
  -4   5  -5   80.94    3.16
  -4   5  -5   83.58    3.28
   4  -5   5   87.93    3.33
   4  -5   5   78.14    3.27
  -5   5  -5   95.00    3.53
  -5   5  -5   93.60    3.69
   5  -5   5   90.39    3.73
  -6   5  -5    5.08    1.02
  -6   5  -5    4.38    1.06
   6  -5   5    4.50    1.10
  -7   5  -5   23.80    2.25
   7  -5   5   18.56    2.03
  10   4  -5   11.73    2.10
 -10  -4   5   12.36    2.11
   9   4  -5   10.66    1.75
  -9  -4   5   11.81    1.90
   8   4  -5   13.82    1.83
   8   4  -5   16.26    1.56
  -8  -4   5   16.39    2.00
  -8  -4   5   15.05    1.39
   7   4  -5   14.41    1.37
   7   4  -5   14.58    1.35
   7   4  -5   13.21    1.40
   7   4  -5   12.86    1.65
  -7  -4   5   15.47    1.81
  -7  -4   5   13.49    1.27
   6   4  -5   -0.31    0.34
   6   4  -5   -0.28    0.44
   6   4  -5    0.31    0.49
   6   4  -5    0.69    0.45
  -6  -4   5    0.26    0.47
  -6  -4   5    0.93    0.60
   5   4  -5    0.83    0.47
   5   4  -5    0.36    0.47
   5   4  -5    1.69    0.56
   5   4  -5    1.84    0.53
  -5  -4   5    0.74    0.49
  -5  -4   5    1.23    0.51
   4   4  -5   21.03    1.30
   4   4  -5   20.91    1.30
   4   4  -5   20.23    1.26
   4   4  -5   20.68    1.14
   4   4  -5   22.01    1.43
   4   4  -5   18.25    1.13
  -4  -4   5   18.51    1.32
  -4  -4   5   21.67    1.34
  -4  -4   5   21.23    1.28
   3   4  -5   33.43    1.59
   3   4  -5   32.76    1.59
   3   4  -5   35.20    1.54
   3   4  -5   32.24    1.50
   3   4  -5   32.46    1.64
   3   4  -5   34.22    1.45
  -3  -4   5   33.95    1.67
   2   4  -5    4.95    0.70
   2   4  -5    4.89    0.60
   2   4  -5    5.22    0.72
   2   4  -5    4.37    0.60
   2   4  -5    3.78    0.61
   2   4  -5    4.87    0.67
   2   4  -5    5.17    0.72
  -2  -4   5    4.97    0.74
   1   4  -5   41.36    1.75
   1   4  -5   38.64    1.62
   1   4  -5   38.04    1.65
   1   4  -5   39.58    1.48
   1   4  -5   38.10    1.52
   1   4  -5   40.22    1.71
   1   4  -5   36.93    1.70
  -1  -4   5   37.01    1.71
   0   4  -5   87.13    2.88
   0   4  -5   89.57    2.90
   0   4  -5   87.45    2.85
   0   4  -5   89.47    2.75
   0   4  -5   83.12    2.58
   0   4  -5   86.89    2.50
   0  -4   5   89.93    2.92
  -1   4  -5   14.73    0.97
  -1   4  -5   11.51    1.05
  -1   4  -5   14.94    1.05
  -1   4  -5   16.28    1.09
  -1   4  -5   14.42    0.74
   1  -4   5   13.55    0.99
  -2   4  -5   20.61    1.28
  -2   4  -5   21.17    1.34
  -2   4  -5   20.13    1.28
  -2   4  -5   18.71    0.63
  -2   4  -5   19.14    1.17
   2  -4   5   19.54    1.20
  -3   4  -5   16.59    1.27
  -3   4  -5   18.20    1.25
  -3   4  -5   19.61    1.30
   3  -4   5   17.39    1.44
  -4   4  -5   58.05    2.57
  -4   4  -5   63.29    2.53
   4  -4   5   60.77    2.53
   4  -4   5   59.46    2.63
  -5   4  -5   60.02    2.55
  -5   4  -5   57.16    2.65
   5  -4   5   58.79    2.60
   5  -4   5   54.95    2.69
  -6   4  -5   47.04    2.34
  -6   4  -5   45.37    2.44
   6  -4   5   40.00    2.38
  -7   4  -5   66.53    3.23
  -7   4  -5   72.20    3.47
   7  -4   5   60.32    3.14
  -8   4  -5   21.14    2.18
   8  -4   5   18.12    2.01
  10   3  -5    9.60    1.83
 -10  -3   5    5.73    1.52
   9   3  -5    2.52    1.06
   9   3  -5    3.88    1.02
  -9  -3   5    3.08    1.19
   8   3  -5  119.59    3.99
   8   3  -5  119.58    4.17
   8   3  -5  122.88    5.00
  -8  -3   5  120.48    4.97
   7   3  -5    3.12    0.79
   7   3  -5    3.99    0.73
   7   3  -5    2.59    0.90
  -7  -3   5    3.28    0.96
  -7  -3   5    1.91    0.56
   6   3  -5  167.64    4.97
   6   3  -5  169.46    4.86
   6   3  -5  178.32    5.63
  -6  -3   5  169.99    5.54
  -6  -3   5  168.51    4.70
   5   3  -5  104.55    3.40
   5   3  -5  104.58    3.41
   5   3  -5  110.06    3.49
   5   3  -5  108.14    3.34
   5   3  -5  115.92    3.92
  -5  -3   5  112.82    3.35
  -5  -3   5  107.72    3.56
  -5  -3   5  113.78    3.90
   4   3  -5   19.79    1.17
   4   3  -5   16.53    1.09
   4   3  -5   16.95    1.12
   4   3  -5   15.57    0.98
   4   3  -5   18.31    1.14
   4   3  -5   18.84    1.28
  -4  -3   5   17.88    1.18
  -4  -3   5   18.40    1.10
  -4  -3   5   17.51    1.25
   3   3  -5   35.64    1.58
   3   3  -5   36.20    1.55
   3   3  -5   38.20    1.64
   3   3  -5   35.96    1.64
   3   3  -5   37.04    1.63
   3   3  -5   35.30    1.43
  -3  -3   5   32.73    1.59
  -3  -3   5   36.89    1.68
   2   3  -5   37.85    1.56
   2   3  -5   36.88    1.62
   2   3  -5   42.51    1.61
   2   3  -5   35.58    1.57
   2   3  -5   37.84    1.64
   2   3  -5   37.92    1.64
   2   3  -5   38.07    1.45
  -2  -3   5   37.96    1.68
   1   3  -5   93.97    2.87
   1   3  -5   90.51    2.86
   1   3  -5   91.51    2.87
   1   3  -5   91.40    2.60
   1   3  -5   89.73    2.65
   1   3  -5   91.37    2.88
   1   3  -5   92.45    2.72
  -1  -3   5   93.38    2.97
   0   3  -5   39.10    1.47
   0   3  -5   34.34    1.54
   0   3  -5   35.85    1.52
   0   3  -5   35.41    1.35
   0   3  -5   34.51    1.53
   0   3  -5   34.09    1.53
   0   3  -5   37.30    1.32
   0  -3   5   36.08    1.62
  -1   3  -5    1.47    0.35
  -1   3  -5    1.69    0.31
  -1   3  -5    0.91    0.38
  -1   3  -5    1.81    0.47
  -1   3  -5    0.52    0.36
   1  -3   5    0.77    0.36
  -2   3  -5  172.92    4.79
  -2   3  -5  174.53    4.70
  -2   3  -5  171.16    4.47
  -2   3  -5  175.26    4.74
   2  -3   5  167.18    4.68
  -3   3  -5   66.14    2.54
  -3   3  -5   68.47    2.44
  -3   3  -5   71.65    2.54
  -3   3  -5   67.56    2.45
   3  -3   5   65.45    2.42
  -4   3  -5   39.55    1.83
  -4   3  -5   38.35    1.87
  -4   3  -5   39.45    1.95
   4  -3   5   35.93    1.81
  -5   3  -5   11.19    1.17
  -5   3  -5   16.83    1.50
   5  -3   5   12.62    1.26
   5  -3   5   14.65    1.46
  -6   3  -5   68.22    2.80
  -6   3  -5   68.61    2.95
   6  -3   5   68.56    2.88
   6  -3   5   66.15    2.99
  -7   3  -5    1.18    0.77
  -7   3  -5    0.50    0.71
   7  -3   5    0.85    0.71
  -8   3  -5   -0.20    0.73
   8  -3   5    1.10    0.93
  -9   3  -5    2.79    1.04
   9  -3   5    1.10    0.92
  10   2  -5   10.96    1.99
 -10  -2   5    9.96    1.90
   9   2  -5    2.59    0.87
   9   2  -5    2.82    1.10
  -9  -2   5    2.41    1.04
   8   2  -5    4.70    0.88
   8   2  -5    3.35    0.87
   8   2  -5    3.94    1.11
  -8  -2   5    4.10    1.14
   7   2  -5   28.73    1.59
   7   2  -5   21.89    1.53
   7   2  -5   28.96    2.11
  -7  -2   5   27.81    2.08
   6   2  -5    1.57    0.53
   6   2  -5    1.68    0.52
   6   2  -5    1.54    0.65
   6   2  -5    1.18    0.47
  -6  -2   5    0.91    0.47
  -6  -2   5    0.70    0.39
  -6  -2   5    0.71    0.51
   5   2  -5  100.42    3.17
   5   2  -5  102.48    3.33
   5   2  -5  100.29    3.25
   5   2  -5  108.56    3.84
  -5  -2   5  112.26    3.86
  -5  -2   5  105.41    3.10
  -5  -2   5  107.30    3.42
   4   2  -5    3.98    0.64
   4   2  -5    1.14    0.39
   4   2  -5    0.26    0.33
   4   2  -5    0.88    0.36
   4   2  -5    0.64    0.36
  -4  -2   5    0.68    0.36
  -4  -2   5    0.73    0.40
   3   2  -5   42.45    1.78
   3   2  -5   43.10    1.75
   3   2  -5   38.92    1.68
   3   2  -5   43.83    1.58
   3   2  -5   41.44    1.71
   3   2  -5   43.21    1.70
  -3  -2   5   42.21    1.76
  -3  -2   5   45.42    1.82
   2   2  -5   20.91    1.14
   2   2  -5   20.87    1.00
   2   2  -5   20.51    1.10
   2   2  -5   21.20    1.08
   2   2  -5   22.41    1.07
   2   2  -5   23.10    1.19
  -2  -2   5   21.37    1.05
  -2  -2   5   19.78    1.14
   1   2  -5   22.27    0.93
   1   2  -5   21.78    0.98
   1   2  -5   21.69    1.15
   1   2  -5   22.50    1.13
   1   2  -5   21.52    1.11
   1   2  -5   21.97    1.07
   1   2  -5   21.12    1.13
  -1  -2   5   23.57    1.23
   0   2  -5  336.82    7.82
   0   2  -5  333.16    7.89
   0   2  -5  336.36    7.94
   0   2  -5  336.14    7.60
   0   2  -5  343.69    8.01
   0   2  -5  325.48    7.90
   0  -2   5  328.18    8.03
  -1   2  -5   60.80    1.72
  -1   2  -5   60.87    2.08
  -1   2  -5   62.14    1.70
  -1   2  -5   59.79    2.09
  -1   2  -5   59.06    2.13
   1  -2   5   62.48    2.20
   1  -2   5   60.45    1.97
  -2   2  -5    1.35    0.42
  -2   2  -5    0.73    0.36
  -2   2  -5    0.91    0.27
  -2   2  -5    0.69    0.33
   2  -2   5    1.30    0.39
  -3   2  -5   -0.03    0.30
  -3   2  -5   -0.03    0.24
  -3   2  -5   -0.21    0.31
  -3   2  -5    0.18    0.31
  -3   2  -5   -0.08    0.31
   3  -2   5    0.04    0.27
  -4   2  -5   87.52    2.93
  -4   2  -5   82.65    2.93
  -4   2  -5   86.23    2.99
  -4   2  -5   82.76    2.85
  -4   2  -5   83.30    2.79
   4  -2   5   85.71    2.87
   4  -2   5   83.08    2.81
  -5   2  -5    5.07    0.88
  -5   2  -5    7.45    1.00
  -5   2  -5    6.50    0.88
   5  -2   5    6.72    0.89
   5  -2   5    7.24    1.00
  -6   2  -5    1.32    0.54
  -6   2  -5    0.59    0.58
  -6   2  -5    0.83    0.54
   6  -2   5    0.57    0.48
   6  -2   5    0.41    0.52
  -7   2  -5   55.82    2.62
  -7   2  -5   52.55    2.41
   7  -2   5   51.97    2.60
  -8   2  -5   81.79    3.18
  -8   2  -5   76.34    3.35
   8  -2   5   68.92    3.27
  -9   2  -5    1.28    0.83
   9  -2   5    1.37    0.88
  10   1  -5    6.98    1.62
 -10  -1   5    6.96    1.68
   9   1  -5    4.93    1.31
   9   1  -5    4.68    0.97
  -9  -1   5    4.83    1.33
   8   1  -5   55.92    3.22
   8   1  -5   50.53    2.46
  -8  -1   5   56.19    3.20
   7   1  -5   27.72    1.67
   7   1  -5   31.23    2.23
   7   1  -5   32.72    1.74
   7   1  -5   31.71    1.75
  -7  -1   5   31.20    1.71
  -7  -1   5   31.75    2.26
   6   1  -5   12.89    1.16
   6   1  -5   13.40    1.60
   6   1  -5   10.00    1.05
   6   1  -5   11.29    1.13
  -6  -1   5   12.18    1.53
  -6  -1   5   11.29    1.07
   5   1  -5   10.82    1.04
   5   1  -5    9.92    0.97
   5   1  -5   11.18    1.33
   5   1  -5    7.89    0.88
  -5  -1   5    9.19    1.19
  -5  -1   5    9.84    0.94
  -5  -1   5   10.85    0.75
   4   1  -5   62.17    2.23
   4   1  -5   60.63    2.19
   4   1  -5   66.77    2.60
   4   1  -5   60.31    2.20
   4   1  -5   61.94    2.11
  -4  -1   5   65.90    2.29
  -4  -1   5   69.30    2.63
   3   1  -5  416.76    9.85
   3   1  -5  430.39    9.67
   3   1  -5  399.93    9.40
   3   1  -5  408.69    9.58
   3   1  -5  407.72    9.60
  -3  -1   5  410.95    9.83
  -3  -1   5  410.02    9.66
   2   1  -5   26.85    1.20
   2   1  -5   25.85    1.26
   2   1  -5   26.94    1.14
   2   1  -5   27.10    1.27
   2   1  -5   26.79    1.22
   2   1  -5   25.12    1.20
  -2  -1   5   27.07    1.20
  -2  -1   5   27.60    1.32
   1   1  -5  114.18    3.20
   1   1  -5  114.91    3.30
   1   1  -5  113.76    3.19
   1   1  -5  114.43    3.24
   1   1  -5  114.57    3.05
  -1  -1   5  116.57    3.36
   0   1  -5  203.69    5.01
   0   1  -5  201.87    5.03
   0   1  -5  204.73    5.17
   0   1  -5  198.48    5.07
   0   1  -5  197.37    4.99
   0   1  -5  203.47    4.81
   0  -1   5  196.33    5.15
  -1   1  -5   32.92    1.42
  -1   1  -5   32.29    1.02
  -1   1  -5   32.10    1.32
  -1   1  -5   32.68    1.05
  -1   1  -5   32.31    1.38
  -1   1  -5   33.36    1.32
  -1   1  -5   34.77    1.39
   1  -1   5   32.77    1.45
  -2   1  -5  258.98    6.39
  -2   1  -5  260.14    6.21
  -2   1  -5  252.21    6.26
  -2   1  -5  250.76    6.36
   2  -1   5  265.51    6.46
  -3   1  -5  113.00    3.40
  -3   1  -5  117.49    3.34
  -3   1  -5  116.29    3.27
  -3   1  -5  113.83    3.41
  -3   1  -5  118.89    3.23
   3  -1   5  111.85    3.36
  -4   1  -5   53.65    1.99
  -4   1  -5   57.34    2.11
  -4   1  -5   55.48    2.15
  -4   1  -5   58.48    2.20
  -4   1  -5   55.27    2.08
   4  -1   5   54.32    2.04
   4  -1   5   55.61    2.07
  -5   1  -5   22.12    1.33
  -5   1  -5   22.96    1.37
  -5   1  -5   17.65    1.28
  -5   1  -5   23.49    1.26
   5  -1   5   20.58    1.22
   5  -1   5   20.55    1.25
  -6   1  -5    5.54    0.81
  -6   1  -5    6.46    0.91
  -6   1  -5    4.38    0.78
   6  -1   5    5.16    0.89
   6  -1   5    6.41    0.85
  -7   1  -5   57.50    2.58
  -7   1  -5   54.54    2.32
   7  -1   5   54.08    2.40
   7  -1   5   54.58    2.54
  -8   1  -5   19.55    1.77
  -8   1  -5   20.13    1.64
   8  -1   5   16.44    1.71
  -9   1  -5   10.81    1.31
  -9   1  -5   12.20    1.55
   9  -1   5   13.05    1.62
  10   0  -5    1.07    0.92
 -10   0   5    1.26    1.03
   9   0  -5    1.40    0.89
   9   0  -5    1.46    0.76
  -9   0   5   -0.33    0.79
   8   0  -5   49.76    2.36
   8   0  -5   48.92    2.49
   8   0  -5   50.93    3.13
  -8   0   5   51.85    3.18
   7   0  -5    6.00    0.92
   7   0  -5    6.45    1.27
   7   0  -5    7.25    0.97
   7   0  -5    6.54    1.06
  -7   0   5    8.15    1.41
   6   0  -5   12.29    1.25
   6   0  -5   13.10    1.17
   6   0  -5   10.73    1.08
  -6   0   5   11.81    1.51
  -6   0   5   12.97    1.00
   5   0  -5   90.73    2.98
   5   0  -5   94.17    3.00
   5   0  -5   93.93    3.12
  -5   0   5   90.35    2.91
  -5   0   5   92.73    3.60
   4   0  -5    0.44    0.30
   4   0  -5    0.41    0.32
   4   0  -5    0.29    0.30
  -4   0   5    0.04    0.26
  -4   0   5    0.70    0.26
  -4   0   5    0.64    0.45
   3   0  -5   48.44    1.83
   3   0  -5   48.90    1.85
   3   0  -5   52.25    1.86
   3   0  -5   51.81    1.82
  -3   0   5   53.49    1.90
  -3   0   5   50.87    2.11
   2   0  -5   31.02    1.27
   2   0  -5   30.15    1.31
   2   0  -5   31.06    1.34
   2   0  -5   30.98    1.31
  -2   0   5   29.57    1.34
  -2   0   5   30.29    1.36
   1   0  -5  138.30    3.65
   1   0  -5  140.02    3.73
   1   0  -5  132.77    3.49
   1   0  -5  132.33    3.58
   1   0  -5  130.64    3.54
  -1   0   5  130.15    3.67
   0   0  -5   71.01    2.07
   0   0  -5   75.71    2.38
   0   0  -5   75.35    2.26
   0   0  -5   72.44    2.23
   0   0  -5   74.65    2.21
   0   0   5   72.56    2.36
  -1   0  -5   13.95    0.59
  -1   0  -5   13.95    0.75
  -1   0  -5   15.08    0.82
  -1   0  -5   14.10    0.61
  -1   0  -5   14.76    0.77
  -1   0  -5   13.60    0.86
  -1   0  -5   14.35    0.86
   1   0   5   13.49    0.89
  -2   0  -5  215.53    5.41
  -2   0  -5  212.80    5.16
  -2   0  -5  216.78    5.41
  -2   0  -5  211.00    5.25
   2   0   5  220.02    5.45
  -3   0  -5   55.86    1.80
  -3   0  -5   54.43    1.96
  -3   0  -5   54.56    1.68
  -3   0  -5   54.12    1.95
  -3   0  -5   53.16    1.85
   3   0   5   56.26    1.99
   3   0   5   55.40    1.68
  -4   0  -5  211.03    5.45
  -4   0  -5  204.97    5.30
  -4   0  -5  211.03    5.26
  -4   0  -5  212.49    5.35
  -4   0  -5  216.85    5.51
   4   0   5  211.04    5.31
   4   0   5  211.80    5.46
  -5   0  -5  116.61    3.38
  -5   0  -5  123.27    3.67
  -5   0  -5  119.72    3.62
  -5   0  -5  120.09    3.56
   5   0   5  121.64    3.64
   5   0   5  113.75    3.52
   5   0   5  116.82    3.48
  -6   0  -5   41.19    1.86
  -6   0  -5   41.39    1.77
  -6   0  -5   42.52    2.01
  -6   0  -5   39.26    1.88
   6   0   5   42.33    1.86
   6   0   5   43.34    1.86
   6   0   5   43.11    2.02
   6   0   5   40.23    1.92
  -7   0  -5    0.25    0.44
  -7   0  -5    0.59    0.47
  -7   0  -5    0.50    0.47
  -7   0  -5    0.27    0.49
   7   0   5    0.37    0.47
   7   0   5   -0.13    0.37
   7   0   5    0.32    0.64
  -8   0  -5   39.73    2.11
  -8   0  -5   38.04    1.92
   8   0   5   38.88    1.99
   8   0   5   38.05    2.10
  -9   0  -5    5.82    1.36
   9   0   5    6.48    1.30
  10  -1  -5   11.64    2.09
 -10   1   5   10.19    2.06
   9  -1  -5    1.54    0.81
   9  -1  -5    2.10    1.08
  -9   1   5    0.69    1.02
   8  -1  -5    8.43    1.23
   8  -1  -5   10.59    1.41
  -8   1   5    8.50    1.61
   7  -1  -5   40.30    2.23
   7  -1  -5   44.50    2.09
   7  -1  -5   46.55    2.22
  -7   1   5   48.53    2.95
   6  -1  -5   12.78    1.16
   6  -1  -5   14.99    1.31
   6  -1  -5   15.06    1.42
  -6   1   5   16.19    1.85
   5  -1  -5    5.46    0.76
   5  -1  -5    5.40    0.75
   5  -1  -5    6.96    0.94
  -5   1   5    6.09    0.71
  -5   1   5    6.37    1.12
   4  -1  -5   43.56    1.76
   4  -1  -5   41.62    1.74
   4  -1  -5   43.07    1.90
  -4   1   5   45.35    2.31
  -4   1   5   43.90    1.66
   3  -1  -5  240.85    6.13
   3  -1  -5  249.75    6.33
   3  -1  -5  245.30    6.17
   3  -1  -5  263.47    6.25
  -3   1   5  254.13    6.77
  -3   1   5  251.52    6.12
   2  -1  -5    0.30    0.24
   2  -1  -5    0.37    0.26
   2  -1  -5    0.65    0.31
   2  -1  -5    0.57    0.32
  -2   1   5    0.78    0.34
  -2   1   5    0.61    0.26
   1  -1  -5  130.32    3.65
   1  -1  -5  133.86    3.54
   1  -1  -5  135.23    3.53
   1  -1  -5  136.44    3.66
   1  -1  -5  137.13    3.72
  -1   1   5  136.16    3.68
  -1   1   5  134.50    3.57
   0  -1  -5   82.21    2.49
   0  -1  -5   78.07    2.32
   0  -1  -5   79.62    2.26
   0  -1  -5   81.04    2.32
   0  -1  -5   78.39    2.21
   0   1   5   75.07    2.41
  -1  -1  -5  118.71    3.17
  -1  -1  -5  119.68    3.35
  -1  -1  -5  120.49    3.09
  -1  -1  -5  122.02    3.23
  -1  -1  -5  121.53    2.93
  -1  -1  -5  116.92    3.04
   1   1   5  121.91    3.36
  -2  -1  -5   88.46    2.64
  -2  -1  -5   93.68    2.74
  -2  -1  -5   91.80    2.45
  -2  -1  -5   93.91    2.57
   2   1   5   91.45    2.75
  -3  -1  -5    4.16    0.42
  -3  -1  -5    3.90    0.47
  -3  -1  -5    4.83    0.48
  -3  -1  -5    3.89    0.53
  -3  -1  -5    5.17    0.62
   3   1   5    4.60    0.59
   3   1   5    4.26    0.42
  -4  -1  -5  297.98    7.21
  -4  -1  -5  299.07    7.22
  -4  -1  -5  301.36    6.94
  -4  -1  -5  308.51    7.14
  -4  -1  -5  288.19    7.02
   4   1   5  295.76    7.28
   4   1   5  302.39    7.11
  -5  -1  -5  199.21    5.21
  -5  -1  -5  202.96    4.99
  -5  -1  -5  195.87    5.28
  -5  -1  -5  198.16    5.27
  -5  -1  -5  198.00    5.22
   5   1   5  200.28    5.32
   5   1   5  196.18    5.26
   5   1   5  200.77    5.08
  -6  -1  -5   53.45    2.26
  -6  -1  -5   55.62    1.98
  -6  -1  -5   54.22    2.20
  -6  -1  -5   52.17    2.12
  -6  -1  -5   53.38    2.09
   6   1   5   51.56    2.00
   6   1   5   54.03    2.27
   6   1   5   53.86    2.20
  -7  -1  -5  126.40    4.22
  -7  -1  -5  118.11    3.78
  -7  -1  -5  123.38    3.88
  -7  -1  -5  124.33    3.97
  -7  -1  -5  126.64    3.69
   7   1   5  126.35    3.94
   7   1   5  126.19    4.22
   7   1   5  119.93    3.71
   7   1   5  132.58    4.03
  -8  -1  -5   35.88    1.94
  -8  -1  -5   38.78    1.93
  -8  -1  -5   42.49    2.34
   8   1   5   39.12    2.52
   8   1   5   33.24    1.91
   9  -2  -5   22.34    2.16
  -9   2   5   33.26    3.33
   8  -2  -5   32.60    2.11
  -8   2   5   36.13    2.78
   7  -2  -5   15.40    1.54
  -7   2   5   13.89    1.96
   6  -2  -5   16.56    1.20
   6  -2  -5   17.62    1.37
   6  -2  -5   21.29    1.38
  -6   2   5   20.51    2.22
  -6   2   5   16.44    0.65
   5  -2  -5   63.91    2.59
   5  -2  -5   66.30    2.48
   5  -2  -5   66.69    2.39
  -5   2   5   67.38    3.20
   4  -2  -5   21.50    1.33
   4  -2  -5   21.55    1.19
   4  -2  -5   21.98    1.24
  -4   2   5   23.32    1.66
  -4   2   5   20.60    1.03
   3  -2  -5    4.63    0.70
   3  -2  -5    5.23    0.71
   3  -2  -5    3.97    0.56
   3  -2  -5    4.73    0.63
   3  -2  -5    3.77    0.55
  -3   2   5    4.08    0.52
  -3   2   5    4.78    0.79
   2  -2  -5   16.06    0.92
   2  -2  -5   15.05    0.91
   2  -2  -5   18.00    1.01
   2  -2  -5   15.58    1.00
   2  -2  -5   15.13    0.88
  -2   2   5   15.79    1.04
  -2   2   5   15.53    0.88
   1  -2  -5  330.68    7.56
   1  -2  -5  324.54    7.40
   1  -2  -5  313.09    7.59
   1  -2  -5  337.05    7.75
   1  -2  -5  320.33    7.68
  -1   2   5  333.52    7.69
  -1   2   5  327.95    7.66
   0  -2  -5   31.13    1.17
   0  -2  -5   31.71    1.32
   0  -2  -5   32.79    1.20
   0  -2  -5   30.77    1.19
   0  -2  -5   30.31    1.29
   0   2   5   29.79    1.28
   0   2   5   31.83    1.17
  -1  -2  -5   18.34    0.79
  -1  -2  -5   17.47    0.85
  -1  -2  -5   18.71    0.77
  -1  -2  -5   19.41    1.01
  -1  -2  -5   15.41    0.78
   1   2   5   17.21    0.92
  -2  -2  -5  105.16    2.75
  -2  -2  -5  106.23    2.60
  -2  -2  -5  108.56    2.67
  -2  -2  -5   97.62    2.94
  -2  -2  -5  108.43    2.92
  -2  -2  -5  104.72    2.45
   2   2   5  102.24    3.00
   2   2   5  105.66    2.73
  -3  -2  -5  143.89    3.82
  -3  -2  -5  147.63    3.86
  -3  -2  -5  145.29    3.47
  -3  -2  -5  145.93    3.61
   3   2   5  142.76    3.95
   3   2   5  145.81    3.67
  -4  -2  -5   20.77    1.10
  -4  -2  -5   17.62    0.87
  -4  -2  -5   20.45    1.03
  -4  -2  -5   20.81    1.04
  -4  -2  -5   19.56    1.13
  -4  -2  -5   19.56    0.83
   4   2   5   20.39    1.16
   4   2   5   18.27    0.98
  -5  -2  -5    3.22    0.53
  -5  -2  -5    4.30    0.66
  -5  -2  -5    3.54    0.45
  -5  -2  -5    3.77    0.62
  -5  -2  -5    3.32    0.56
   5   2   5    3.13    0.47
   5   2   5    3.30    0.56
   5   2   5    2.98    0.55
  -6  -2  -5   11.53    1.12
  -6  -2  -5   10.11    1.05
  -6  -2  -5   11.84    1.02
  -6  -2  -5   10.93    1.02
  -6  -2  -5   10.86    0.78
   6   2   5   10.89    1.10
   6   2   5   11.71    0.85
   6   2   5   12.40    1.17
  -7  -2  -5  125.83    3.87
  -7  -2  -5  127.66    4.20
  -7  -2  -5  129.86    3.84
   7   2   5  124.02    4.17
   7   2   5  122.66    3.80
  -8  -2  -5    0.97    0.57
  -8  -2  -5    1.26    0.60
   8   2   5    1.42    0.64
  -9  -2  -5   79.36    3.07
  -9  -2  -5   77.77    3.55
   9  -3  -5    0.48    0.84
  -9   3   5    0.73    1.05
   8  -3  -5   30.36    2.13
  -8   3   5   34.19    3.40
   7  -3  -5   18.47    1.73
  -7   3   5   20.43    2.49
   6  -3  -5   39.54    2.04
   6  -3  -5   37.82    2.10
  -6   3   5   41.48    2.79
  -6   3   5   42.09    1.08
   5  -3  -5   14.14    1.34
   5  -3  -5   18.37    1.17
   5  -3  -5   18.02    1.26
  -5   3   5   17.28    1.94
   4  -3  -5    4.62    0.70
   4  -3  -5    4.03    0.65
   4  -3  -5    4.40    0.75
  -4   3   5    4.53    0.92
   3  -3  -5  132.22    3.81
   3  -3  -5  137.85    4.06
   3  -3  -5  134.32    3.70
   3  -3  -5  137.48    3.87
  -3   3   5  139.30    3.56
  -3   3   5  142.78    4.41
   2  -3  -5    9.90    0.94
   2  -3  -5    9.51    0.81
   2  -3  -5    7.82    0.83
   2  -3  -5    8.33    0.65
  -2   3   5    8.28    0.93
  -2   3   5    9.51    0.66
   1  -3  -5    5.78    0.67
   1  -3  -5    8.28    0.69
   1  -3  -5    8.54    0.82
   1  -3  -5    6.43    0.63
   1  -3  -5    7.26    0.49
  -1   3   5    8.65    0.66
  -1   3   5    7.65    0.80
   0  -3  -5   52.87    1.86
   0  -3  -5   55.48    1.83
   0  -3  -5   55.47    1.70
   0  -3  -5   55.07    1.67
   0  -3  -5   52.34    1.76
   0   3   5   57.17    1.85
   0   3   5   56.47    1.90
   0   3   5   53.33    1.83
  -1  -3  -5  159.72    3.94
  -1  -3  -5  160.93    3.82
  -1  -3  -5  158.66    3.99
  -1  -3  -5  160.43    4.18
  -1  -3  -5  163.92    3.93
   1   3   5  156.40    4.14
   1   3   5  162.26    4.11
  -2  -3  -5   15.44    0.58
  -2  -3  -5   17.60    0.94
  -2  -3  -5   15.97    0.65
  -2  -3  -5   17.62    0.75
  -2  -3  -5   16.42    0.68
  -2  -3  -5   16.56    0.86
   2   3   5   16.28    0.91
   2   3   5   15.80    0.84
  -3  -3  -5    3.58    0.29
  -3  -3  -5    3.99    0.53
  -3  -3  -5    3.87    0.38
  -3  -3  -5    3.63    0.52
  -3  -3  -5    2.70    0.50
   3   3   5    3.48    0.49
   3   3   5    3.78    0.57
  -4  -3  -5  179.64    4.85
  -4  -3  -5  178.49    4.25
  -4  -3  -5  183.93    4.72
  -4  -3  -5  182.00    4.53
  -4  -3  -5  177.68    4.10
   4   3   5  178.43    4.82
   4   3   5  178.39    4.70
  -5  -3  -5   93.61    3.08
  -5  -3  -5   91.09    2.93
  -5  -3  -5   93.43    2.75
  -5  -3  -5   94.66    3.05
   5   3   5   95.64    3.03
   5   3   5   93.72    2.54
   5   3   5   94.81    3.08
  -6  -3  -5    0.56    0.34
  -6  -3  -5    0.70    0.43
  -6  -3  -5    0.69    0.42
   6   3   5    0.24    0.36
   6   3   5   -0.07    0.29
  -7  -3  -5   21.20    1.34
  -7  -3  -5   22.27    1.51
   7   3   5   21.70    1.50
  -8  -3  -5    8.19    1.22
  -8  -3  -5    8.07    1.06
   8   3   5    6.47    1.08
  -9  -3  -5   28.66    1.77
  -9  -3  -5   25.01    1.96
   9   3   5   28.98    2.04
  10   3   5    3.69    0.91
   8  -4  -5    0.15    0.67
  -8   4   5    1.53    1.02
   7  -4  -5    8.39    1.31
  -7   4   5    9.41    1.82
   6  -4  -5    8.81    1.27
  -6   4   5    8.21    1.61
   5  -4  -5   19.15    1.39
   5  -4  -5   17.52    1.62
  -5   4   5   20.36    0.92
  -5   4   5   19.20    2.05
   4  -4  -5   10.76    1.14
   4  -4  -5   11.58    1.06
  -4   4   5   13.50    1.54
   3  -4  -5  223.08    5.78
   3  -4  -5  227.04    6.04
  -3   4   5  221.27    6.37
   2  -4  -5   14.59    0.91
   2  -4  -5   14.30    0.98
   2  -4  -5   13.69    1.04
   2  -4  -5   14.41    0.94
  -2   4   5   14.44    0.78
  -2   4   5   13.05    0.76
  -2   4   5   13.81    1.08
   1  -4  -5   82.02    2.38
   1  -4  -5   82.87    2.74
   1  -4  -5   85.30    2.61
   1  -4  -5   85.52    2.47
   1  -4  -5   84.52    2.22
  -1   4   5   81.16    2.43
  -1   4   5   82.49    2.83
   0  -4  -5  195.15    4.90
   0  -4  -5  185.34    4.65
   0  -4  -5  189.19    4.50
   0  -4  -5  185.49    4.73
   0  -4  -5  183.45    4.54
   0   4   5  184.73    4.64
   0   4   5  190.43    5.02
   0   4   5  188.93    4.69
  -1  -4  -5   98.82    2.60
  -1  -4  -5  100.65    2.76
  -1  -4  -5   99.28    2.73
  -1  -4  -5  100.01    2.88
   1   4   5   99.37    2.86
   1   4   5  101.29    3.04
  -2  -4  -5   19.71    1.01
  -2  -4  -5   20.35    0.78
  -2  -4  -5   18.74    0.67
  -2  -4  -5   18.75    1.03
  -2  -4  -5   20.00    0.99
  -2  -4  -5   18.41    0.84
  -2  -4  -5   19.16    0.56
   2   4   5   19.04    0.79
   2   4   5   17.53    0.99
   2   4   5   17.02    1.02
  -3  -4  -5   52.96    1.86
  -3  -4  -5   52.58    1.43
  -3  -4  -5   53.21    1.42
  -3  -4  -5   50.47    1.94
  -3  -4  -5   52.67    1.79
   3   4   5   54.23    1.97
   3   4   5   51.12    1.41
   3   4   5   53.31    1.96
  -4  -4  -5   83.22    2.75
  -4  -4  -5   85.46    2.41
  -4  -4  -5   81.18    2.62
   4   4   5   79.76    2.72
   4   4   5   82.09    2.72
  -5  -4  -5   28.39    1.51
  -5  -4  -5   27.25    1.40
   5   4   5   30.07    1.52
   5   4   5   29.68    1.52
  -6  -4  -5   26.13    1.52
  -6  -4  -5   26.49    1.57
  -6  -4  -5   24.71    1.40
   6   4   5   25.17    1.51
   6   4   5   26.24    1.50
  -7  -4  -5   96.35    3.56
  -7  -4  -5   96.43    3.30
   7   4   5   97.96    3.56
  -8  -4  -5   19.17    1.81
  -8  -4  -5   17.49    1.51
   8   4   5   22.68    1.71
  -9  -4  -5    2.97    0.92
  -9  -4  -5    0.89    0.66
   9   4   5    1.23    0.70
 -10  -4  -5    1.30    0.74
 -10  -4  -5    2.14    0.82
  10   4   5    2.41    0.97
  10   4   5    2.28    0.87
   8  -5  -5   12.74    1.74
  -8   5   5   10.17    2.07
   7  -5  -5    7.54    1.30
  -7   5   5    6.39    1.67
   6  -5  -5    1.41    0.75
  -6   5   5    2.98    1.13
   5  -5  -5   12.19    1.39
   5  -5  -5   15.97    1.43
  -5   5   5   11.37    1.71
  -5   5   5   12.06    0.75
   4  -5  -5    1.05    0.49
   4  -5  -5    3.07    0.79
  -4   5   5    2.01    0.43
  -4   5   5    1.84    0.76
   3  -5  -5   23.11    1.46
   3  -5  -5   21.15    1.25
  -3   5   5   20.46    1.54
   2  -5  -5    6.38    0.85
   2  -5  -5    4.04    0.58
   2  -5  -5    5.20    0.77
  -2   5   5    5.56    0.90
   1  -5  -5  167.68    4.60
   1  -5  -5  174.37    4.76
   1  -5  -5  169.88    4.41
  -1   5   5  166.19    4.99
  -1   5   5  175.26    4.34
   0  -5  -5   47.86    1.81
   0  -5  -5   46.83    1.64
   0  -5  -5   51.58    1.97
   0  -5  -5   49.06    1.57
   0  -5  -5   48.67    1.62
   0   5   5   48.63    1.70
   0   5   5   47.50    2.05
  -1  -5  -5  174.66    4.24
  -1  -5  -5  170.86    4.33
  -1  -5  -5  162.68    4.36
  -1  -5  -5  164.12    4.03
   1   5   5  165.02    4.71
   1   5   5  164.96    4.32
  -2  -5  -5  118.83    3.34
  -2  -5  -5  123.18    3.49
  -2  -5  -5  122.56    3.37
  -2  -5  -5  122.74    3.26
  -2  -5  -5  122.91    2.98
   2   5   5  123.43    3.74
   2   5   5  121.69    3.46
  -3  -5  -5   33.48    1.52
  -3  -5  -5   31.79    1.38
  -3  -5  -5   30.95    1.13
  -3  -5  -5   30.78    1.30
   3   5   5   32.08    1.58
   3   5   5   30.95    1.46
  -4  -5  -5   37.46    1.73
  -4  -5  -5   38.56    1.63
   4   5   5   39.14    1.82
   4   5   5   39.45    1.74
  -5  -5  -5   45.42    1.99
  -5  -5  -5   42.46    1.83
   5   5   5   43.94    2.03
   5   5   5   42.26    1.92
  -6  -5  -5    3.03    0.65
   6   5   5    3.80    0.76
  -7  -5  -5   22.98    1.51
   7   5   5   24.57    1.70
  -8  -5  -5   14.82    1.63
  -8  -5  -5   11.54    1.27
   8   5   5   12.64    1.50
  -9  -5  -5   83.88    3.30
  -9  -5  -5   88.20    3.86
   9   5   5   86.38    3.80
 -10  -5  -5   37.21    2.18
 -10  -5  -5   37.16    2.60
  10   5   5   35.34    2.54
   7  -6  -5    3.03    1.02
  -7   6   5    4.22    1.47
   6  -6  -5   59.71    2.97
  -6   6   5   55.92    3.62
   5  -6  -5   24.35    1.77
  -5   6   5   24.42    1.05
  -5   6   5   20.92    2.36
   4  -6  -5   59.19    2.69
   4  -6  -5   55.37    2.38
  -4   6   5   59.37    1.98
  -4   6   5   60.74    3.12
   3  -6  -5  155.51    4.83
   3  -6  -5  160.93    4.56
  -3   6   5  154.22    5.27
  -3   6   5  160.75    4.22
   2  -6  -5   26.37    1.54
   2  -6  -5   25.53    1.34
  -2   6   5   23.45    1.66
   1  -6  -5    7.14    0.87
   1  -6  -5    9.84    1.04
   1  -6  -5    9.29    0.85
  -1   6   5    9.08    1.20
   0  -6  -5    2.12    0.38
   0  -6  -5    1.70    0.49
   0  -6  -5    1.52    0.37
   0  -6  -5    1.51    0.46
   0   6   5    0.95    0.32
   0   6   5    2.18    0.61
  -1  -6  -5   52.50    1.80
  -1  -6  -5   56.49    1.68
  -1  -6  -5   53.03    2.00
  -1  -6  -5   54.97    1.98
   1   6   5   52.46    1.89
   1   6   5   52.04    2.29
  -2  -6  -5  131.48    3.64
  -2  -6  -5  130.92    3.64
  -2  -6  -5  134.07    3.79
  -2  -6  -5  135.56    3.64
   2   6   5  134.21    4.18
   2   6   5  132.52    3.76
  -3  -6  -5    7.78    0.82
  -3  -6  -5   10.75    0.95
  -3  -6  -5    9.95    0.78
   3   6   5    8.29    0.84
   3   6   5    8.58    1.05
  -4  -6  -5  334.11    8.24
  -4  -6  -5  331.61    8.05
  -4  -6  -5  329.46    7.42
   4   6   5  338.16    8.51
   4   6   5  319.27    8.16
  -5  -6  -5  307.08    7.76
  -5  -6  -5  295.10    7.51
   5   6   5  292.79    7.92
   5   6   5  303.25    7.72
  -6  -6  -5    4.14    0.76
   6   6   5    3.95    0.83
  -7  -6  -5   28.19    1.69
   7   6   5   29.68    1.95
  -8  -6  -5   40.86    2.18
   8   6   5   51.27    2.66
  -9  -6  -5    1.05    0.67
   9   6   5    1.95    0.85
 -10  -6  -5    2.92    0.96
  10   6   5    3.04    1.08
   6  -7  -5   -0.11    0.70
  -6   7   5    0.57    0.99
   5  -7  -5   11.72    1.48
  -5   7   5   11.43    0.75
  -5   7   5    9.99    1.70
   4  -7  -5   11.89    1.44
  -4   7   5   10.88    0.91
  -4   7   5   11.28    1.66
   3  -7  -5   28.78    1.62
   3  -7  -5   29.90    1.84
  -3   7   5   27.09    1.36
  -3   7   5   25.93    2.03
   2  -7  -5   16.50    1.49
   2  -7  -5   16.83    1.16
  -2   7   5   14.51    1.04
  -2   7   5   16.60    1.80
   1  -7  -5  110.13    3.59
   1  -7  -5  113.23    3.70
   1  -7  -5  114.66    3.35
  -1   7   5  113.07    4.16
   0  -7  -5   26.47    1.48
   0  -7  -5   28.06    1.50
   0   7   5   26.72    1.75
  -1  -7  -5   -0.22    0.24
  -1  -7  -5   -0.04    0.34
  -1  -7  -5    0.45    0.36
   1   7   5    0.39    0.40
  -2  -7  -5   38.06    1.64
  -2  -7  -5   40.13    1.71
  -2  -7  -5   39.55    1.62
   2   7   5   38.69    2.06
   2   7   5   39.23    1.67
  -3  -7  -5    9.82    0.87
  -3  -7  -5    9.44    0.93
  -3  -7  -5   11.67    1.08
   3   7   5   11.00    1.25
   3   7   5   12.47    1.09
  -4  -7  -5   47.53    1.65
  -4  -7  -5   45.92    1.96
  -4  -7  -5   49.11    2.11
   4   7   5   49.13    2.09
   4   7   5   46.80    2.34
  -5  -7  -5   -0.35    0.38
   5   7   5    0.40    0.48
  -6  -7  -5  233.92    6.40
   6   7   5  240.54    6.99
  -7  -7  -5    7.57    1.03
   7   7   5    8.59    1.31
  -8  -7  -5    0.12    0.55
   8   7   5    0.20    0.66
  -9  -7  -5   17.65    1.73
   9   7   5   17.75    1.98
 -10  -7  -5   10.04    1.40
  10   7   5    9.12    1.62
   5  -8  -5   15.27    1.81
  -5   8   5   14.05    2.11
  -5   8   5   18.99    0.89
   4  -8  -5    2.08    0.90
  -4   8   5    1.60    0.50
  -4   8   5    1.87    0.98
   3  -8  -5    2.11    0.86
   3  -8  -5    2.07    0.70
  -3   8   5    2.24    0.59
  -3   8   5    2.01    0.91
   2  -8  -5   10.48    1.26
  -2   8   5   12.93    1.14
  -2   8   5   16.48    1.89
   1  -8  -5   80.68    3.09
  -1   8   5   80.51    2.77
  -1   8   5   80.66    3.58
   0  -8  -5    1.96    0.61
   0  -8  -5    0.43    0.48
   0   8   5    1.11    0.50
   0   8   5    1.92    0.74
  -1  -8  -5  146.16    4.30
   1   8   5  145.35    4.97
  -2  -8  -5  182.08    4.98
  -2  -8  -5  178.67    4.86
   2   8   5  183.56    5.78
  -3  -8  -5    1.30    0.50
  -3  -8  -5    0.87    0.45
  -3  -8  -5    1.00    0.48
   3   8   5    1.60    0.50
   3   8   5    0.79    0.57
  -4  -8  -5   45.78    1.77
  -4  -8  -5   47.77    2.07
   4   8   5   46.74    2.48
  -5  -8  -5    3.59    0.73
   5   8   5    5.61    1.06
  -6  -8  -5   25.34    1.65
   6   8   5   23.06    1.82
  -7  -8  -5   23.46    1.64
   7   8   5   26.85    2.01
  -8  -8  -5   39.48    2.19
   8   8   5   34.91    2.47
  -9  -8  -5   69.14    3.07
   9   8   5   62.18    3.44
 -10  -8  -5    9.35    1.42
  10   8   5    9.92    1.69
   4  -9  -5   45.28    2.69
  -4   9   5   43.87    3.10
  -4   9   5   43.07    1.75
   3  -9  -5   31.56    2.19
  -3   9   5   29.31    1.54
  -3   9   5   27.93    2.73
   2  -9  -5    0.03    0.66
  -2   9   5   -0.44    0.40
  -2   9   5    1.26    0.84
   1  -9  -5    8.30    1.19
  -1   9   5    8.28    1.00
  -1   9   5   12.01    1.69
   0  -9  -5   17.72    1.55
   0   9   5   20.65    1.39
   0   9   5   23.30    2.29
  -1  -9  -5    6.07    0.99
   1   9   5    7.87    1.29
   1   9   5    6.14    0.92
  -2  -9  -5    4.62    0.83
   2   9   5    3.61    0.93
  -3  -9  -5   18.23    1.25
  -3  -9  -5   15.28    1.32
   3   9   5   16.32    1.81
  -4  -9  -5   65.38    2.36
  -4  -9  -5   65.61    2.60
   4   9   5   67.20    3.26
  -5  -9  -5    3.49    0.79
  -5  -9  -5    4.51    0.65
   5   9   5    4.11    1.08
  -6  -9  -5   41.03    2.14
   6   9   5   40.68    2.56
  -7  -9  -5    1.09    0.67
   7   9   5    1.14    0.73
  -8  -9  -5    0.85    0.68
   8   9   5   -0.28    0.64
  -9  -9  -5    6.00    1.24
   9   9   5    5.61    1.32
   3 -10  -5   32.68    2.41
  -3  10   5   35.78    2.81
   2 -10  -5    6.09    1.26
  -2  10   5    3.84    0.76
  -2  10   5    5.82    1.41
  -1  10   5   44.19    2.11
  -1  10   5   47.57    3.01
   0  10   5   22.48    2.37
   0  10   5   22.48    1.53
  -1 -10  -5    1.84    0.70
   1  10   5    2.18    0.91
   1  10   5    1.70    0.67
  -2 -10  -5   71.07    2.86
   2  10   5   76.60    3.68
  -3 -10  -5   10.23    1.15
  -3 -10  -5   10.42    1.17
   3  10   5   11.71    1.67
  -4 -10  -5    0.82    0.51
  -4 -10  -5    0.87    0.53
   4  10   5    1.84    0.82
  -5 -10  -5   -0.14    0.56
  -5 -10  -5    0.27    0.42
   5  10   5    0.33    0.71
  -6 -10  -5   87.98    3.48
   6  10   5   90.16    4.19
  -7 -10  -5   10.53    1.44
   7  10   5    8.39    1.56
  -8 -10  -5    7.84    1.25
   8  10   5    9.24    1.65
  -1  11   5   20.93    2.49
  -1  11   5   19.32    1.60
   0  11   5    0.53    0.82
   0  11   5    0.40    0.59
  -1 -11  -5   59.40    2.75
   1  11   5   54.29    2.51
   1  11   5   52.04    3.25
  -2 -11  -5   17.69    1.69
   2  11   5   14.08    1.91
  -3 -11  -5    1.06    0.69
   3  11   5    0.77    0.80
  -4 -11  -5   23.82    1.58
  -4 -11  -5   22.38    1.85
   4  11   5   21.49    2.39
  -5 -11  -5   20.20    1.40
  -5 -11  -5   16.16    1.59
   5  11   5   15.92    2.10
  -6 -11  -5    5.51    1.10
   6  11   5    7.45    1.56
  -7 -11  -5    2.02    0.87
   7  11   5   -0.04    0.75
   1  12   5    7.30    1.12
   1  12   5   10.00    1.82
  -2 -12  -5    3.82    1.02
   2  12   5    2.08    1.05
  -3 -12  -5   31.49    2.05
   3  12   5   33.02    2.67
   4  12   5   23.65    2.65
  -5 -12  -5    4.70    1.03
   5  12   5    4.41    1.39
  -5 -10   6    0.21    0.69
   4  10  -6    2.54    0.83
  -4 -10   6    3.48    1.02
   3  10  -6   -0.16    0.64
  -3 -10   6   -0.34    0.78
   2  10  -6   10.87    1.44
  -2 -10   6   12.48    1.66
  -1 -10   6    4.20    1.11
   7   9  -6    2.37    1.23
  -7  -9   6    2.41    0.98
  -6  -9   6   58.91    3.08
  -5  -9   6   71.12    3.31
   4   9  -6    1.43    0.71
   4   9  -6   -0.10    0.70
  -4  -9   6    1.18    0.76
   3   9  -6   51.12    2.69
   3   9  -6   49.36    2.30
  -3  -9   6   48.83    2.65
   2   9  -6   24.42    2.13
   2   9  -6   27.51    1.65
  -2  -9   6   24.09    2.14
   1   9  -6   -0.40    0.62
   1   9  -6    0.04    0.50
  -1  -9   6    0.40    0.68
   0   9  -6    1.72    0.60
   0  -9   6    2.33    0.91
  -1   9  -6    3.65    1.02
  -1   9  -6    3.91    0.61
   1  -9   6    4.10    1.19
  -2   9  -6   68.20    3.36
   2  -9   6   69.75    3.43
   8   8  -6    0.38    0.74
  -8  -8   6    1.15    0.87
   7   8  -6    4.96    1.27
  -7  -8   6    5.95    1.20
   6   8  -6   -0.38    0.53
   6   8  -6   -0.28    0.65
   6   8  -6    0.83    0.71
  -6  -8   6    0.01    0.66
   5   8  -6    1.04    0.72
   5   8  -6    1.63    0.81
  -5  -8   6    2.36    0.80
   4   8  -6    9.96    1.20
   4   8  -6    9.42    1.33
  -4  -8   6    7.35    1.13
   3   8  -6   37.38    1.90
   3   8  -6   38.60    2.20
  -3  -8   6   36.04    2.14
   2   8  -6    0.92    0.68
   2   8  -6    2.38    0.79
   2   8  -6    2.25    0.67
  -2  -8   6    1.06    0.66
   1   8  -6   26.48    1.83
   1   8  -6   29.65    1.57
   0   8  -6   27.15    1.88
   0   8  -6   25.92    1.43
   0   8  -6   30.33    1.87
   0  -8   6   24.63    1.81
  -1   8  -6    2.85    0.54
  -1   8  -6    2.98    0.90
  -1   8  -6    3.41    0.93
   1  -8   6    2.42    0.87
  -2   8  -6    5.22    1.12
   2  -8   6    2.67    0.96
  -3   8  -6    7.56    1.36
   3  -8   6    5.99    1.25
  -4   8  -6    3.81    1.17
   4  -8   6    4.75    1.24
  -8  -7   6    6.59    1.22
   7   7  -6    6.68    1.36
   7   7  -6    7.37    1.21
   7   7  -6    8.41    1.32
  -7  -7   6    6.21    1.11
   6   7  -6   36.51    2.11
   6   7  -6   38.89    2.20
   6   7  -6   42.62    2.61
   6   7  -6   39.20    2.26
  -6  -7   6   38.46    2.21
   5   7  -6   15.14    1.70
   5   7  -6   13.42    1.45
   5   7  -6   14.78    1.55
   5   7  -6   15.48    1.47
  -5  -7   6   13.64    1.48
   4   7  -6    4.23    0.87
   4   7  -6    3.08    0.80
   4   7  -6    3.85    0.87
   4   7  -6    4.51    0.85
   4   7  -6    4.26    0.96
  -4  -7   6    5.16    0.96
   3   7  -6    7.34    1.05
   3   7  -6    5.08    0.95
   3   7  -6    5.93    0.86
  -3  -7   6    4.76    0.92
   2   7  -6   41.59    1.85
   2   7  -6   36.71    2.11
   2   7  -6   39.41    2.06
   1   7  -6   76.43    3.01
   1   7  -6   73.45    2.59
   1   7  -6   74.37    3.06
   1   7  -6   75.17    2.92
   0   7  -6   18.48    1.66
   0   7  -6   14.63    1.43
   0   7  -6   17.48    1.11
   0   7  -6   15.95    1.52
  -1   7  -6   24.04    1.74
  -1   7  -6   22.82    1.16
  -1   7  -6   26.20    1.75
   1  -7   6   21.97    1.70
  -2   7  -6  152.83    4.96
  -2   7  -6  146.86    3.39
  -2   7  -6  143.16    4.88
   2  -7   6  144.40    5.00
  -3   7  -6   32.48    2.14
  -3   7  -6   34.42    2.20
   3  -7   6   31.82    2.17
  -4   7  -6   10.74    1.59
   4  -7   6    9.61    1.52
  -5   7  -6   12.96    1.73
   5  -7   6   14.37    1.85
   9   6  -6    2.28    1.04
  -9  -6   6   -0.11    0.65
  -9  -6   6    0.82    0.92
   8   6  -6    1.30    0.85
  -8  -6   6    0.81    0.62
  -8  -6   6    1.39    0.93
   7   6  -6    6.31    1.30
   7   6  -6    5.36    1.02
   7   6  -6    3.80    0.93
  -7  -6   6    4.65    0.99
   6   6  -6    1.56    0.71
   6   6  -6    3.86    0.86
   6   6  -6    1.80    0.71
  -6  -6   6    2.62    0.81
   5   6  -6   21.91    1.51
   5   6  -6   21.10    1.79
   5   6  -6   20.95    1.65
   5   6  -6   20.81    1.49
   5   6  -6   19.69    1.64
  -5  -6   6   17.58    1.55
   4   6  -6    7.51    1.08
   4   6  -6    6.74    1.06
   4   6  -6    8.84    1.14
   4   6  -6    7.06    0.96
   4   6  -6    6.35    0.99
   4   6  -6    7.69    0.99
  -4  -6   6    4.87    0.91
   3   6  -6   58.13    2.35
   3   6  -6   63.14    2.67
   3   6  -6   57.31    2.49
   3   6  -6   65.19    2.38
   3   6  -6   60.37    2.57
   3   6  -6   60.91    2.66
   2   6  -6    3.99    0.74
   2   6  -6    4.33    0.70
   2   6  -6    3.24    0.65
   2   6  -6    4.64    0.83
   2   6  -6    3.09    0.76
   1   6  -6   16.32    1.46
   1   6  -6   16.05    1.41
   1   6  -6   13.91    1.34
   1   6  -6   16.39    1.08
  -1  -6   6   16.61    1.45
   0   6  -6    3.82    0.75
   0   6  -6    5.19    0.67
   0   6  -6    5.56    0.93
   0   6  -6    6.26    0.95
   0  -6   6    5.73    0.87
  -1   6  -6   18.98    1.44
  -1   6  -6   21.00    1.04
  -1   6  -6   18.56    1.59
  -1   6  -6   19.68    1.45
  -2   6  -6   17.32    1.58
  -2   6  -6   17.62    1.65
  -2   6  -6   18.16    0.68
  -2   6  -6   18.87    1.64
  -3   6  -6    7.53    1.12
  -3   6  -6    7.20    1.15
   3  -6   6    8.65    1.25
  -4   6  -6   91.40    3.76
  -4   6  -6   96.92    3.70
   4  -6   6   88.01    3.81
  -5   6  -6   32.55    2.33
   5  -6   6   35.60    2.40
  -6   6  -6    0.93    0.87
   6  -6   6    1.70    0.90
   9   5  -6    6.48    1.46
  -9  -5   6    8.86    1.72
   8   5  -6    8.50    1.26
   8   5  -6    7.91    1.41
   8   5  -6    7.73    1.20
  -8  -5   6   10.70    1.28
  -8  -5   6    7.85    1.44
   7   5  -6   27.39    1.82
   7   5  -6   26.74    1.83
   7   5  -6   31.70    2.23
  -7  -5   6   29.14    2.20
  -7  -5   6   25.90    1.69
   6   5  -6    3.06    0.90
   6   5  -6    4.44    0.83
   6   5  -6    4.43    0.91
   6   5  -6    3.94    0.85
  -6  -5   6    4.12    0.89
  -6  -5   6    3.88    0.98
   5   5  -6   16.20    1.46
   5   5  -6   13.05    1.33
   5   5  -6   14.44    1.40
   5   5  -6   14.49    1.52
  -5  -5   6   15.78    1.43
   4   5  -6    2.64    0.68
   4   5  -6    2.49    0.64
   4   5  -6    2.94    0.74
   4   5  -6    3.16    0.72
   4   5  -6    3.33    0.67
   4   5  -6    1.74    0.58
  -4  -5   6    2.67    0.66
   3   5  -6  163.03    4.50
   3   5  -6  160.47    4.65
   3   5  -6  161.77    4.63
   3   5  -6  162.32    4.86
   3   5  -6  169.95    4.89
   3   5  -6  161.55    4.80
   3   5  -6  158.74    4.78
   2   5  -6    0.43    0.37
   2   5  -6    0.67    0.48
   2   5  -6   -0.10    0.33
   2   5  -6    0.71    0.42
   2   5  -6    1.23    0.56
   2   5  -6    0.23    0.36
   2   5  -6    0.42    0.42
  -2  -5   6    0.73    0.46
   1   5  -6  181.91    5.02
   1   5  -6  176.31    4.62
   1   5  -6  174.74    4.72
   1   5  -6  171.94    5.03
   1   5  -6  171.28    5.06
  -1  -5   6  176.10    5.08
   0   5  -6   15.04    0.95
   0   5  -6   16.14    1.25
   0   5  -6   17.40    1.42
   0   5  -6   16.75    1.24
   0  -5   6   17.09    1.23
  -1   5  -6    6.23    0.93
  -1   5  -6    4.92    0.58
  -1   5  -6    5.33    0.86
  -1   5  -6    8.03    1.02
   1  -5   6    7.86    0.98
  -2   5  -6   20.18    1.63
  -2   5  -6   22.17    0.73
  -2   5  -6   23.32    1.53
  -2   5  -6   23.44    1.60
  -3   5  -6   13.57    1.36
  -3   5  -6   17.59    1.64
  -3   5  -6   15.44    1.44
   3  -5   6   15.73    1.52
  -4   5  -6   21.10    1.86
  -4   5  -6   20.31    1.77
   4  -5   6   18.94    1.79
  -5   5  -6    7.64    1.27
  -5   5  -6    5.94    1.11
   5  -5   6    8.16    1.33
  -6   5  -6   23.26    2.20
   6  -5   6   21.79    2.14
  -7   5  -6   60.78    3.32
   7  -5   6   61.32    3.39
  10   4  -6    0.82    0.89
 -10  -4   6    1.14    1.04
   9   4  -6   12.54    1.53
   9   4  -6   12.99    1.95
  -9  -4   6   12.55    1.94
   8   4  -6    9.72    1.28
   8   4  -6   12.65    1.79
   8   4  -6   10.36    1.37
  -8  -4   6    8.71    1.53
   7   4  -6   14.53    1.40
   7   4  -6   11.76    1.35
   7   4  -6   13.33    1.41
   7   4  -6   16.33    1.85
  -7  -4   6   11.67    1.23
  -7  -4   6   15.40    1.80
   6   4  -6   64.46    2.94
   6   4  -6   57.08    2.48
   6   4  -6   55.10    2.52
   6   4  -6   53.16    2.40
  -6  -4   6   58.65    2.84
  -6  -4   6   58.74    2.44
   5   4  -6   67.19    2.65
   5   4  -6   66.61    2.62
   5   4  -6   66.83    2.83
   5   4  -6   65.24    2.60
  -5  -4   6   65.24    2.54
  -5  -4   6   65.85    2.83
   4   4  -6   23.50    1.44
   4   4  -6   21.24    1.33
   4   4  -6   22.41    1.27
   4   4  -6   22.19    1.36
   4   4  -6   21.15    1.42
   4   4  -6   19.52    1.33
  -4  -4   6   21.07    1.43
   3   4  -6   10.22    1.06
   3   4  -6   10.59    1.09
   3   4  -6   11.10    1.11
   3   4  -6   10.36    1.05
   3   4  -6    9.50    1.03
   3   4  -6   11.32    1.06
   3   4  -6   14.15    1.14
  -3  -4   6   11.29    1.16
   2   4  -6   52.38    2.14
   2   4  -6   53.36    2.03
   2   4  -6   46.78    2.04
   2   4  -6   49.28    2.13
   2   4  -6   53.06    1.91
   2   4  -6   54.46    2.04
   2   4  -6   48.34    2.10
  -2  -4   6   49.70    2.16
   1   4  -6   90.41    3.09
   1   4  -6   92.03    2.75
   1   4  -6   93.23    3.09
   1   4  -6   92.07    2.88
   1   4  -6   92.24    3.06
   1   4  -6   92.05    3.11
  -1  -4   6   88.38    3.11
   0   4  -6   66.26    2.13
   0   4  -6   67.41    2.53
   0   4  -6   67.33    2.31
   0   4  -6   69.65    2.58
   0   4  -6   69.14    2.56
   0  -4   6   66.34    2.60
  -1   4  -6   81.01    2.31
  -1   4  -6   83.80    2.92
  -1   4  -6   79.68    2.90
  -1   4  -6   80.80    2.86
   1  -4   6   77.42    2.88
  -2   4  -6  154.05    3.33
  -2   4  -6  150.86    4.50
  -2   4  -6  154.25    4.56
  -2   4  -6  153.23    4.61
   2  -4   6  141.75    4.45
  -3   4  -6    1.96    0.66
  -3   4  -6    2.28    0.64
  -3   4  -6    1.78    0.60
  -4   4  -6   12.35    1.40
  -4   4  -6   12.13    1.29
  -4   4  -6   14.55    1.38
   4  -4   6   13.15    1.33
  -5   4  -6   34.98    1.98
  -5   4  -6   32.62    2.03
   5  -4   6   33.38    2.10
  -6   4  -6   18.20    1.71
  -6   4  -6   18.50    1.82
   6  -4   6   17.15    1.79
  -7   4  -6   28.29    2.10
   7  -4   6   21.10    2.09
  -8   4  -6    5.46    1.26
   8  -4   6    3.34    1.19
  10   3  -6   -0.06    0.72
 -10  -3   6   -0.84    0.64
   9   3  -6    3.99    1.28
  -9  -3   6    1.29    0.95
   8   3  -6   -0.10    0.62
   8   3  -6   -0.02    0.67
  -8  -3   6    0.20    0.68
   7   3  -6   13.59    1.43
   7   3  -6   15.38    1.44
   7   3  -6   15.58    1.79
  -7  -3   6   15.98    1.82
  -7  -3   6   15.27    1.28
   6   3  -6  113.20    3.81
   6   3  -6  111.67    3.72
   6   3  -6  113.97    3.75
   6   3  -6  114.23    4.22
  -6  -3   6  115.95    4.23
  -6  -3   6  110.09    3.54
   5   3  -6   78.53    2.81
   5   3  -6   79.92    2.88
   5   3  -6   82.44    3.19
   5   3  -6   77.69    2.86
   5   3  -6   78.96    2.88
  -5  -3   6   76.99    3.11
  -5  -3   6   76.83    2.71
   4   3  -6   74.01    2.68
   4   3  -6   73.53    2.78
   4   3  -6   75.95    2.50
   4   3  -6   73.65    2.63
   4   3  -6   73.22    2.67
   4   3  -6   72.05    2.64
  -4  -3   6   70.28    2.75
  -4  -3   6   76.50    2.81
   3   3  -6  128.58    3.94
   3   3  -6  137.14    3.98
   3   3  -6  126.34    3.83
   3   3  -6  127.61    3.91
   3   3  -6  136.22    3.93
   3   3  -6  127.15    3.67
  -3  -3   6  133.99    3.91
  -3  -3   6  134.29    4.07
   2   3  -6    1.11    0.36
   2   3  -6    0.77    0.40
   2   3  -6    0.71    0.38
   2   3  -6    0.80    0.36
   2   3  -6    2.08    0.52
   2   3  -6    1.94    0.43
   2   3  -6    1.74    0.48
  -2  -3   6    2.17    0.54
   1   3  -6   94.40    3.08
   1   3  -6   96.83    3.09
   1   3  -6  100.38    2.83
   1   3  -6   96.91    2.96
   1   3  -6  101.26    2.78
   1   3  -6   92.51    3.08
   1   3  -6   90.72    3.08
  -1  -3   6   98.28    3.26
   0   3  -6   69.08    2.45
   0   3  -6   68.93    2.29
   0   3  -6   64.47    2.05
   0   3  -6   66.27    2.39
   0   3  -6   63.48    2.40
   0   3  -6   63.79    2.40
   0  -3   6   68.16    2.54
  -1   3  -6    8.30    0.90
  -1   3  -6   11.56    1.10
  -1   3  -6    9.98    0.62
  -1   3  -6    9.69    0.99
   1  -3   6   10.88    1.06
  -2   3  -6   14.23    1.21
  -2   3  -6   14.68    1.09
  -2   3  -6   13.84    1.24
   2  -3   6   13.88    1.24
  -3   3  -6    1.43    0.55
  -3   3  -6    0.69    0.50
  -3   3  -6    0.61    0.45
   3  -3   6    1.62    0.50
  -4   3  -6  188.19    5.44
  -4   3  -6  178.80    5.19
  -4   3  -6  182.01    5.29
   4  -3   6  180.83    5.28
  -5   3  -6    8.43    1.06
  -5   3  -6    7.02    1.10
   5  -3   6    5.87    1.02
   5  -3   6    5.98    0.94
  -6   3  -6   44.26    2.40
  -6   3  -6   54.38    2.44
   6  -3   6   45.11    2.49
  -7   3  -6   12.89    1.47
  -7   3  -6   17.66    1.83
   7  -3   6   17.81    1.89
  -8   3  -6   15.64    1.89
   8  -3   6   15.12    1.82
  10   2  -6    6.22    1.58
 -10  -2   6    4.90    1.50
   9   2  -6   14.91    1.84
   9   2  -6   20.26    2.36
  -9  -2   6   16.58    2.15
   8   2  -6    6.30    1.34
   8   2  -6    6.83    1.11
  -8  -2   6    5.39    1.28
   7   2  -6   11.32    1.60
   7   2  -6    9.97    1.21
   7   2  -6   10.27    1.19
  -7  -2   6   11.05    1.58
   6   2  -6    1.12    0.63
   6   2  -6    1.62    0.56
   6   2  -6    2.40    0.69
   6   2  -6    0.84    0.49
  -6  -2   6    1.53    0.53
  -6  -2   6    1.04    0.59
   5   2  -6   62.86    2.46
   5   2  -6   60.54    2.40
   5   2  -6   68.05    2.54
   5   2  -6   67.67    2.83
  -5  -2   6   67.14    2.32
  -5  -2   6   59.72    2.49
  -5  -2   6   65.79    2.78
   4   2  -6   67.30    2.51
   4   2  -6   67.45    2.33
   4   2  -6   71.74    2.70
   4   2  -6   63.73    2.43
   4   2  -6   69.38    2.54
   4   2  -6   65.50    2.45
  -4  -2   6   69.57    2.68
  -4  -2   6   66.92    2.55
   3   2  -6   68.44    2.45
   3   2  -6   72.70    2.54
   3   2  -6   67.31    2.29
   3   2  -6   68.08    2.50
   3   2  -6   70.76    2.46
   3   2  -6   68.77    2.44
  -3  -2   6   70.72    2.57
  -3  -2   6   70.05    2.45
   2   2  -6   16.76    1.10
   2   2  -6   17.12    1.06
   2   2  -6   20.07    1.00
   2   2  -6   18.02    1.00
   2   2  -6   17.71    1.13
   2   2  -6   18.02    1.11
  -2  -2   6   17.84    0.96
  -2  -2   6   19.07    1.22
   1   2  -6  328.40    8.02
   1   2  -6  336.96    8.10
   1   2  -6  339.71    7.82
   1   2  -6  330.23    8.09
   1   2  -6  330.34    8.21
   1   2  -6  335.35    8.16
   1   2  -6  341.53    7.63
  -1  -2   6  337.87    8.32
   0   2  -6   68.14    2.44
   0   2  -6   68.35    2.29
   0   2  -6   65.53    2.30
   0   2  -6   65.64    2.06
   0   2  -6   72.09    2.39
   0   2  -6   66.42    2.36
   0  -2   6   68.47    2.48
  -1   2  -6   13.46    0.96
  -1   2  -6   13.47    0.69
  -1   2  -6   12.39    0.91
  -1   2  -6   13.29    0.98
   1  -2   6   13.30    0.99
  -2   2  -6  247.36    6.45
  -2   2  -6  253.26    6.39
  -2   2  -6  244.43    6.26
   2  -2   6  247.83    6.45
  -3   2  -6   56.66    2.31
  -3   2  -6   58.97    2.27
  -3   2  -6   55.20    2.14
   3  -2   6   57.09    2.27
  -4   2  -6   89.21    3.06
  -4   2  -6   85.05    2.91
  -4   2  -6   82.82    2.95
  -4   2  -6   79.20    3.01
   4  -2   6   86.18    3.00
  -5   2  -6   20.52    1.64
  -5   2  -6   21.04    1.37
  -5   2  -6   20.46    1.47
   5  -2   6   20.60    1.38
  -6   2  -6  243.87    6.52
  -6   2  -6  228.51    6.59
  -6   2  -6  228.97    6.29
   6  -2   6  231.34    6.47
   6  -2   6  217.27    6.60
  -7   2  -6   22.49    1.57
  -7   2  -6   17.49    1.71
   7  -2   6   21.39    1.92
  -8   2  -6    1.07    0.73
  -8   2  -6    1.03    0.76
   8  -2   6   -0.12    0.74
  -9   2  -6   26.85    2.37
   9  -2   6   30.54    2.28
  10   1  -6   10.50    1.94
 -10  -1   6   11.93    2.05
   9   1  -6   20.41    1.89
   9   1  -6   24.83    2.60
  -9  -1   6   20.04    2.37
   8   1  -6   27.10    1.84
   8   1  -6   28.11    2.65
  -8  -1   6   28.46    2.32
   7   1  -6   24.94    2.32
   7   1  -6   21.87    1.58
   7   1  -6   22.31    1.54
   7   1  -6   20.91    1.47
  -7  -1   6   26.03    2.06
   6   1  -6   77.85    2.90
   6   1  -6   71.15    2.76
   6   1  -6   81.65    3.44
   6   1  -6   77.37    2.87
  -6  -1   6   78.24    2.90
  -6  -1   6   82.51    3.44
   5   1  -6   12.16    1.14
   5   1  -6   11.32    1.11
   5   1  -6   13.92    1.44
   5   1  -6   11.36    1.14
  -5  -1   6   10.63    0.89
  -5  -1   6    9.24    0.98
  -5  -1   6   13.72    1.44
   4   1  -6   44.98    1.93
   4   1  -6   42.31    1.86
   4   1  -6   41.46    1.84
   4   1  -6   44.55    1.90
   4   1  -6   48.87    2.16
  -4  -1   6   44.79    2.07
  -4  -1   6   44.66    1.92
   3   1  -6    9.96    0.98
   3   1  -6    7.13    0.79
   3   1  -6   10.07    0.99
   3   1  -6    7.05    0.76
   3   1  -6    7.31    0.82
   3   1  -6    8.21    0.84
  -3  -1   6    6.85    0.81
  -3  -1   6    7.77    0.87
   2   1  -6   42.79    1.75
   2   1  -6   42.43    1.63
   2   1  -6   43.89    1.62
   2   1  -6   44.15    1.76
   2   1  -6   45.47    1.86
   2   1  -6   43.84    1.79
  -2  -1   6   43.29    1.61
  -2  -1   6   43.75    1.87
   1   1  -6   74.62    2.51
   1   1  -6   78.70    2.57
   1   1  -6   77.95    2.53
   1   1  -6   77.63    2.38
   1   1  -6   81.34    2.67
  -1  -1   6   80.01    2.70
   0   1  -6    1.32    0.33
   0   1  -6    1.13    0.39
   0   1  -6    1.98    0.45
   0   1  -6    1.10    0.39
   0   1  -6    1.39    0.38
   0  -1   6    1.26    0.39
  -1   1  -6   87.53    2.30
  -1   1  -6   85.38    2.70
  -1   1  -6   92.11    2.75
  -1   1  -6   87.88    2.33
  -1   1  -6   93.26    2.92
  -1   1  -6   88.42    2.78
   1  -1   6   89.61    2.92
  -2   1  -6  219.90    5.64
  -2   1  -6  225.67    5.87
  -2   1  -6  219.46    5.74
  -2   1  -6  235.87    5.93
   2  -1   6  229.82    5.93
  -3   1  -6   57.98    2.14
  -3   1  -6   56.90    2.06
  -3   1  -6   59.87    2.23
  -3   1  -6   56.72    2.21
   3  -1   6   53.70    2.18
  -4   1  -6   81.64    2.91
  -4   1  -6   82.54    2.89
  -4   1  -6   80.75    2.70
  -4   1  -6   85.70    2.84
   4  -1   6   81.90    2.85
  -5   1  -6    7.35    0.98
  -5   1  -6    6.04    0.91
  -5   1  -6    7.89    0.90
   5  -1   6    8.65    0.96
   5  -1   6    7.84    0.93
  -6   1  -6    0.71    0.59
  -6   1  -6   -0.34    0.41
  -6   1  -6   -0.32    0.44
   6  -1   6    1.08    0.53
   6  -1   6    0.10    0.53
  -7   1  -6   21.28    1.63
  -7   1  -6   22.79    1.53
  -7   1  -6   20.46    1.70
   7  -1   6   19.08    1.43
   7  -1   6   17.41    1.70
  -8   1  -6   17.35    1.57
  -8   1  -6   17.61    1.72
   8  -1   6   18.02    1.84
  -9   1  -6   34.73    2.32
   9  -1   6   34.46    2.31
   9   0  -6    8.14    1.24
   9   0  -6    7.17    1.52
  -9   0   6    6.29    1.43
   8   0  -6    6.68    1.41
   8   0  -6    5.51    1.06
   8   0  -6    6.11    1.08
  -8   0   6    7.18    1.57
   7   0  -6    1.13    0.73
   7   0  -6    0.12    0.49
   7   0  -6   -0.20    0.43
   7   0  -6    0.32    0.47
  -7   0   6   -0.40    0.60
   6   0  -6   30.02    2.08
   6   0  -6   31.55    1.75
   6   0  -6   27.79    1.66
   6   0  -6   31.64    1.76
  -6   0   6   28.09    1.57
  -6   0   6   34.23    2.19
   5   0  -6   20.37    1.28
   5   0  -6   21.33    1.33
   5   0  -6   20.77    1.31
  -5   0   6   18.68    1.52
  -5   0   6   18.18    1.22
   4   0  -6  228.85    6.02
   4   0  -6  230.03    5.97
   4   0  -6  228.92    5.98
  -4   0   6  228.83    5.95
  -4   0   6  229.13    6.40
   3   0  -6   39.06    1.73
   3   0  -6   43.82    1.76
   3   0  -6   45.01    1.74
   3   0  -6   40.30    1.75
  -3   0   6   42.50    1.79
  -3   0   6   42.25    1.87
   2   0  -6   20.98    1.16
   2   0  -6   22.35    1.13
   2   0  -6   19.45    1.19
   2   0  -6   23.53    1.20
  -2   0   6   22.49    1.24
  -2   0   6   22.18    1.12
   1   0  -6   32.19    1.29
   1   0  -6   31.74    1.29
   1   0  -6   29.03    1.43
   1   0  -6   26.74    1.34
   1   0  -6   26.40    1.26
   1   0  -6   30.43    1.37
  -1   0   6   28.98    1.41
  -1   0   6   31.10    1.25
   0   0  -6  273.23    6.66
   0   0  -6  258.45    6.19
   0   0  -6  263.31    6.40
   0   0  -6  262.46    6.47
   0   0   6  261.95    6.63
  -1   0  -6    1.12    0.25
  -1   0  -6    1.79    0.28
  -1   0  -6    1.05    0.33
  -1   0  -6    1.37    0.36
  -1   0  -6    1.29    0.36
  -1   0  -6    1.35    0.36
  -1   0  -6    1.53    0.41
   1   0   6    1.79    0.43
  -2   0  -6    8.96    0.89
  -2   0  -6    9.21    0.80
  -2   0  -6   10.88    0.97
  -2   0  -6    9.98    0.72
   2   0   6    9.27    0.89
  -3   0  -6   56.61    2.15
  -3   0  -6   59.14    2.07
  -3   0  -6   60.21    2.22
  -3   0  -6   56.76    1.96
   3   0   6   60.36    2.21
  -4   0  -6  237.18    6.11
  -4   0  -6  229.91    5.79
  -4   0  -6  237.42    5.93
  -4   0  -6  223.38    5.99
   4   0   6  231.97    6.06
  -5   0  -6   37.70    1.65
  -5   0  -6   39.55    1.84
  -5   0  -6   36.57    1.74
  -5   0  -6   36.14    1.70
   5   0   6   39.81    1.82
   5   0   6   39.21    1.75
  -6   0  -6   31.71    1.58
  -6   0  -6   31.69    1.70
  -6   0  -6   31.39    1.76
   6   0   6   32.87    1.71
   6   0   6   29.82    1.61
  -7   0  -6   71.21    2.78
  -7   0  -6   68.78    2.84
  -7   0  -6   72.26    2.68
   7   0   6   66.27    2.83
   7   0   6   68.86    2.71
  -8   0  -6   25.66    1.73
   8   0   6   21.27    1.64
  -9   0  -6    8.96    2.15
   9   0   6    7.08    1.52
   9  -1  -6   28.19    2.47
   9  -1  -6   33.84    3.32
  -9   1   6   29.85    3.07
   8  -1  -6   25.17    1.77
   8  -1  -6   22.35    2.11
  -8   1   6   25.44    2.62
   7  -1  -6    2.45    0.79
   7  -1  -6    1.32    0.64
  -7   1   6    0.84    0.74
   6  -1  -6   22.19    1.46
   6  -1  -6   22.09    1.46
   6  -1  -6   21.67    1.81
  -6   1   6   17.64    1.96
   5  -1  -6   25.00    1.43
   5  -1  -6   22.95    1.36
   5  -1  -6   20.68    1.42
  -5   1   6   22.19    1.71
  -5   1   6   22.99    1.29
   4  -1  -6    7.74    0.93
   4  -1  -6    7.01    0.82
   4  -1  -6    7.67    0.85
  -4   1   6    9.16    1.20
  -4   1   6    7.32    0.80
   3  -1  -6    8.35    0.83
   3  -1  -6    8.64    0.88
   3  -1  -6    8.77    0.89
   3  -1  -6   11.74    1.05
  -3   1   6   12.11    1.25
  -3   1   6    8.45    0.85
   2  -1  -6   94.95    2.91
   2  -1  -6   85.54    2.72
   2  -1  -6   91.08    2.86
   2  -1  -6   87.42    2.74
  -2   1   6   90.27    2.85
  -2   1   6   88.86    2.93
   1  -1  -6  111.40    3.11
   1  -1  -6  107.27    3.15
   1  -1  -6  114.26    3.13
   1  -1  -6  112.12    3.31
   1  -1  -6  113.74    3.35
  -1   1   6  108.79    3.29
  -1   1   6  108.02    3.12
   0  -1  -6    0.44    0.29
   0  -1  -6    0.71    0.34
   0  -1  -6    0.90    0.28
   0  -1  -6    1.07    0.32
   0  -1  -6    1.40    0.35
   0   1   6    1.37    0.39
  -1  -1  -6    0.93    0.33
  -1  -1  -6    1.25    0.25
  -1  -1  -6    0.67    0.30
  -1  -1  -6    0.81    0.25
  -1  -1  -6    0.93    0.35
  -1  -1  -6    0.85    0.30
   1   1   6    1.19    0.37
  -2  -1  -6   47.05    1.85
  -2  -1  -6   49.36    1.20
  -2  -1  -6   49.37    1.73
  -2  -1  -6   51.15    1.66
  -2  -1  -6   49.27    1.62
  -2  -1  -6   47.32    1.80
   2   1   6   47.73    1.88
  -3  -1  -6    0.82    0.36
  -3  -1  -6    0.81    0.34
  -3  -1  -6    0.74    0.32
  -3  -1  -6    1.27    0.34
   3   1   6    1.34    0.42
  -4  -1  -6    1.91    0.48
  -4  -1  -6    2.15    0.50
  -4  -1  -6    2.99    0.48
  -4  -1  -6    2.85    0.50
   4   1   6    2.42    0.54
  -5  -1  -6    5.20    0.64
  -5  -1  -6    5.61    0.81
  -5  -1  -6    6.98    0.78
  -5  -1  -6    6.56    0.81
   5   1   6    6.51    0.76
   5   1   6    5.21    0.74
  -6  -1  -6  156.59    4.47
  -6  -1  -6  137.46    4.31
  -6  -1  -6  149.31    4.11
   6   1   6  156.31    4.51
   6   1   6  145.50    4.22
  -7  -1  -6   10.85    1.15
  -7  -1  -6   11.42    1.21
   7   1   6   11.83    1.25
   7   1   6   11.50    1.21
  -8  -1  -6    3.59    0.82
  -8  -1  -6    5.50    0.95
   8   1   6    5.07    0.96
   9  -2  -6   20.90    2.18
  -9   2   6   21.80    2.66
   8  -2  -6   10.67    1.51
  -8   2   6   14.24    2.07
   7  -2  -6   11.49    1.49
  -7   2   6   10.72    1.73
   6  -2  -6   95.95    3.29
   6  -2  -6   96.14    3.42
   6  -2  -6   93.64    3.63
  -6   2   6   98.20    4.30
   5  -2  -6   38.73    2.07
   5  -2  -6   41.66    1.95
   5  -2  -6   38.52    1.83
  -5   2   6   40.61    2.44
   4  -2  -6   40.48    1.81
   4  -2  -6   40.09    1.80
   4  -2  -6   36.96    1.95
  -4   2   6   40.03    1.62
  -4   2   6   41.31    2.27
   3  -2  -6   92.41    2.96
   3  -2  -6   95.48    3.05
   3  -2  -6   97.71    3.07
   3  -2  -6   94.83    3.18
  -3   2   6   99.77    3.48
  -3   2   6   94.56    2.93
   2  -2  -6   32.77    1.53
   2  -2  -6   30.49    1.41
   2  -2  -6   32.98    1.54
   2  -2  -6   33.47    1.43
  -2   2   6   35.31    1.63
  -2   2   6   32.38    1.44
   1  -2  -6   27.57    1.24
   1  -2  -6   28.64    1.18
   1  -2  -6   26.94    1.25
   1  -2  -6   27.68    1.34
  -1   2   6   26.54    1.23
  -1   2   6   27.93    1.34
   0  -2  -6   47.65    1.67
   0  -2  -6   47.79    1.65
   0  -2  -6   49.41    1.89
   0  -2  -6   50.49    1.72
   0  -2  -6   49.40    1.74
   0   2   6   48.26    1.57
   0   2   6   49.93    1.90
  -1  -2  -6  327.91    7.57
  -1  -2  -6  332.21    7.49
  -1  -2  -6  326.25    7.68
  -1  -2  -6  315.97    7.71
  -1  -2  -6  340.39    8.02
   1   2   6  339.60    7.97
  -2  -2  -6   44.74    1.49
  -2  -2  -6   45.66    1.28
  -2  -2  -6   42.78    1.66
  -2  -2  -6   44.99    1.58
  -2  -2  -6   49.19    1.83
  -2  -2  -6   46.67    1.46
   2   2   6   47.32    1.82
  -3  -2  -6   81.05    2.22
  -3  -2  -6   79.54    2.56
  -3  -2  -6   78.50    2.57
  -3  -2  -6   81.56    2.37
   3   2   6   80.76    2.67
   3   2   6   82.05    2.26
  -4  -2  -6  168.73    4.55
  -4  -2  -6  169.09    4.31
  -4  -2  -6  171.05    4.58
  -4  -2  -6  166.19    4.14
   4   2   6  171.45    4.70
   4   2   6  168.63    4.31
  -5  -2  -6    4.86    0.55
  -5  -2  -6    4.78    0.63
  -5  -2  -6    5.07    0.60
  -5  -2  -6    4.14    0.65
  -5  -2  -6    4.81    0.70
   5   2   6    4.72    0.72
   5   2   6    4.84    0.63
   5   2   6    4.19    0.57
  -6  -2  -6    0.73    0.44
  -6  -2  -6    1.51    0.58
  -6  -2  -6    0.80    0.43
   6   2   6    1.41    0.48
   6   2   6    1.10    0.44
  -7  -2  -6    3.30    0.70
  -7  -2  -6    3.03    0.69
   7   2   6    3.20    0.67
  -8  -2  -6   45.80    2.18
  -9  -2  -6   29.23    1.87
   9  -3  -6    3.65    1.22
  -9   3   6    4.93    1.57
   8  -3  -6   -0.04    0.74
  -8   3   6    1.67    1.03
   7  -3  -6    2.19    0.87
  -7   3   6    1.46    0.97
   6  -3  -6   14.32    1.57
  -6   3   6   13.63    1.88
   5  -3  -6   -0.33    0.36
   5  -3  -6    0.59    0.45
   5  -3  -6    0.46    0.53
  -5   3   6    0.78    0.63
   4  -3  -6  122.61    4.07
   4  -3  -6  126.41    3.85
   4  -3  -6  124.77    3.83
  -4   3   6  129.08    4.55
   3  -3  -6  106.67    3.30
   3  -3  -6  105.19    3.50
   3  -3  -6  102.06    3.19
  -3   3   6   98.30    3.59
  -3   3   6  101.59    3.01
   2  -3  -6  144.13    3.96
   2  -3  -6  143.57    4.22
   2  -3  -6  142.35    4.06
  -2   3   6  148.98    3.95
  -2   3   6  143.06    4.26
   1  -3  -6  262.44    6.61
   1  -3  -6  268.49    6.39
   1  -3  -6  257.35    6.47
   1  -3  -6  269.62    6.22
  -1   3   6  263.41    6.50
  -1   3   6  262.05    6.57
   0  -3  -6   17.89    1.05
   0  -3  -6   18.34    0.98
   0  -3  -6   18.85    0.93
   0  -3  -6   19.71    0.97
   0   3   6   19.25    1.07
   0   3   6   18.63    0.99
  -1  -3  -6   48.64    1.72
  -1  -3  -6   51.11    1.71
  -1  -3  -6   51.73    1.93
  -1  -3  -6   50.86    1.66
  -1  -3  -6   50.54    1.60
   1   3   6   49.74    1.71
   1   3   6   53.59    1.91
  -2  -3  -6   33.30    1.45
  -2  -3  -6   30.78    1.11
  -2  -3  -6   31.00    1.04
  -2  -3  -6   33.31    1.11
  -2  -3  -6   32.43    1.36
  -2  -3  -6   30.80    1.20
   2   3   6   31.49    1.44
   2   3   6   33.73    1.29
  -3  -3  -6  142.58    3.41
  -3  -3  -6  145.53    3.64
  -3  -3  -6  148.86    3.98
  -3  -3  -6  143.28    3.97
   3   3   6  140.42    4.05
   3   3   6  148.93    3.82
  -4  -3  -6  119.87    3.63
  -4  -3  -6  116.33    3.45
  -4  -3  -6  114.64    3.36
  -4  -3  -6  119.03    3.08
   4   3   6  116.70    3.61
   4   3   6  118.34    3.35
  -5  -3  -6    0.23    0.31
  -5  -3  -6    0.20    0.37
  -5  -3  -6    0.09    0.32
   5   3   6    0.67    0.33
   5   3   6    0.43    0.37
  -6  -3  -6  236.61    6.00
  -6  -3  -6  233.30    6.16
  -6  -3  -6  228.21    6.18
   6   3   6  227.48    6.14
  -7  -3  -6   56.49    2.36
  -8  -3  -6   11.16    1.30
  -9  -3  -6    4.47    0.97
 -10  -3  -6    8.91    1.30
  10   3   6    5.75    1.26
   8  -4  -6    7.32    1.37
  -8   4   6   12.74    2.25
   7  -4  -6   27.27    2.10
  -7   4   6   33.30    3.23
   6  -4  -6   14.42    1.55
  -6   4   6   14.29    0.73
  -6   4   6   15.19    2.12
   5  -4  -6   69.68    2.94
   5  -4  -6   65.34    2.67
  -5   4   6   66.98    3.41
   4  -4  -6    1.12    0.54
   4  -4  -6    2.38    0.60
   4  -4  -6    2.31    0.70
  -4   4   6    1.86    0.69
   3  -4  -6    4.67    0.69
   3  -4  -6    6.93    0.98
  -3   4   6    5.01    0.89
   2  -4  -6   14.95    1.00
   2  -4  -6   15.30    1.35
   2  -4  -6   12.50    1.13
  -2   4   6   13.86    0.88
  -2   4   6   14.54    1.15
   1  -4  -6  163.03    4.59
   1  -4  -6  161.89    4.26
   1  -4  -6  165.29    4.04
   1  -4  -6  160.76    4.42
  -1   4   6  165.85    4.65
  -1   4   6  160.72    4.33
   0  -4  -6   12.01    0.88
   0  -4  -6   10.28    0.92
   0  -4  -6   12.09    0.73
   0  -4  -6   11.63    0.74
   0   4   6   10.82    1.00
   0   4   6   11.57    0.84
  -1  -4  -6   60.72    1.89
  -1  -4  -6   58.48    2.13
  -1  -4  -6   62.76    1.99
  -1  -4  -6   60.67    1.98
   1   4   6   62.64    2.16
   1   4   6   61.81    2.14
  -2  -4  -6  191.72    4.88
  -2  -4  -6  196.39    4.63
  -2  -4  -6  189.24    4.47
  -2  -4  -6  198.83    5.06
  -2  -4  -6  188.39    4.42
  -2  -4  -6  184.60    4.62
   2   4   6  198.58    5.03
   2   4   6  192.87    5.05
  -3  -4  -6   26.78    1.29
  -3  -4  -6   27.74    1.30
  -3  -4  -6   26.18    0.88
  -3  -4  -6   24.69    1.34
  -3  -4  -6   26.11    0.99
   3   4   6   26.98    1.39
   3   4   6   27.67    1.32
  -4  -4  -6   34.82    1.71
  -4  -4  -6   36.28    1.64
  -4  -4  -6   38.54    1.53
   4   4   6   39.38    1.76
   4   4   6   37.17    1.63
  -5  -4  -6   45.08    1.88
  -5  -4  -6   39.83    1.91
   5   4   6   40.55    1.91
   5   4   6   41.13    1.83
  -6  -4  -6   48.40    2.11
   6   4   6   45.34    2.09
  -7  -4  -6    4.48    0.82
  -7  -4  -6    4.31    0.84
   7   4   6    3.22    0.75
  -8  -4  -6   72.83    3.53
  -8  -4  -6   76.59    2.97
  -9  -4  -6   63.69    2.84
 -10  -4  -6    3.30    0.98
   8  -5  -6    3.05    1.07
  -8   5   6    4.24    1.49
   7  -5  -6   53.62    2.94
  -7   5   6   59.31    3.83
   6  -5  -6    4.17    1.02
  -6   5   6    5.51    1.40
  -6   5   6    4.50    0.44
   5  -5  -6   24.05    1.82
  -5   5   6   23.69    1.14
  -5   5   6   23.84    2.41
   4  -5  -6   45.88    2.10
   4  -5  -6   48.80    2.37
  -4   5   6   49.24    2.72
   3  -5  -6   40.84    1.81
   3  -5  -6   34.94    1.96
  -3   5   6   35.91    2.12
   2  -5  -6   -0.09    0.38
   2  -5  -6    0.36    0.43
   2  -5  -6    0.48    0.36
  -2   5   6   -0.01    0.34
   1  -5  -6    0.55    0.38
   1  -5  -6    1.89    0.58
   1  -5  -6    1.66    0.41
  -1   5   6    1.56    0.40
  -1   5   6    1.37    0.49
   0  -5  -6   63.51    2.33
   0  -5  -6   63.68    1.98
   0  -5  -6   60.70    2.00
   0  -5  -6   61.26    2.20
   0   5   6   65.33    2.18
   0   5   6   63.19    2.45
  -1  -5  -6   95.27    2.67
  -1  -5  -6   98.72    2.91
  -1  -5  -6  100.79    2.84
  -1  -5  -6   98.09    3.02
   1   5   6   97.39    2.97
   1   5   6   96.84    3.18
  -2  -5  -6    0.98    0.28
  -2  -5  -6    1.20    0.34
  -2  -5  -6    1.26    0.37
  -2  -5  -6    1.20    0.39
   2   5   6    1.16    0.43
   2   5   6    1.70    0.44
  -3  -5  -6  162.54    4.62
  -3  -5  -6  166.83    4.43
  -3  -5  -6  162.90    4.45
  -3  -5  -6  162.77    4.01
   3   5   6  169.58    4.70
   3   5   6  166.80    4.62
  -4  -5  -6  168.16    4.68
  -4  -5  -6  172.48    4.88
   4   5   6  172.54    4.87
   4   5   6  171.35    4.85
  -5  -5  -6    9.77    0.99
  -5  -5  -6    9.11    1.00
   5   5   6    7.39    0.92
   5   5   6    9.09    1.01
  -6  -5  -6   30.07    1.68
   6   5   6   33.28    1.79
  -7  -5  -6   29.34    1.70
   7   5   6   27.40    1.76
  -8  -5  -6   30.48    1.86
   8   5   6   27.96    1.92
  -9  -5  -6   12.55    1.42
 -10  -5  -6    4.41    1.03
   7  -6  -6   12.95    1.79
  -7   6   6   13.08    2.35
   6  -6  -6    3.38    1.07
  -6   6   6    2.90    1.25
   5  -6  -6    4.91    1.09
  -5   6   6    8.01    0.76
  -5   6   6    7.61    1.49
   4  -6  -6   49.73    2.30
   4  -6  -6   48.29    2.52
  -4   6   6   49.87    1.87
  -4   6   6   50.87    2.86
   3  -6  -6    6.87    0.92
   3  -6  -6   10.79    1.23
  -3   6   6    8.15    1.28
   2  -6  -6   51.08    2.35
   2  -6  -6   48.16    2.00
  -2   6   6   51.04    2.51
   1  -6  -6  113.66    3.58
   1  -6  -6  114.66    3.33
   1  -6  -6  112.00    3.73
  -1   6   6  111.01    3.93
   0  -6  -6    1.48    0.50
   0  -6  -6    1.62    0.56
   0  -6  -6    2.85    0.48
   0   6   6    1.66    0.58
  -1  -6  -6    6.03    0.73
  -1  -6  -6    5.55    0.71
  -1  -6  -6    6.70    0.71
   1   6   6    8.31    1.03
   1   6   6    6.08    0.72
  -2  -6  -6    7.56    0.81
  -2  -6  -6    6.50    0.74
  -2  -6  -6    5.97    0.70
  -2  -6  -6    8.06    0.87
   2   6   6    7.25    0.83
   2   6   6    5.80    0.85
  -3  -6  -6   72.27    2.19
  -3  -6  -6   69.85    2.44
  -3  -6  -6   71.03    2.60
   3   6   6   70.57    2.56
   3   6   6   73.31    2.78
  -4  -6  -6    1.10    0.47
  -4  -6  -6    0.83    0.40
  -4  -6  -6    0.68    0.25
   4   6   6    0.51    0.40
   4   6   6    0.04    0.34
  -5  -6  -6    8.72    1.04
   5   6   6    9.91    1.16
  -6  -6  -6   70.04    2.69
   6   6   6   66.81    2.85
  -7  -6  -6   34.64    1.91
   7   6   6   35.30    2.07
  -8  -6  -6   18.62    1.67
   8   6   6   14.24    1.65
  -9  -6  -6   31.97    2.02
   9   6   6   34.81    2.33
 -10  -6  -6   19.56    1.90
   6  -7  -6   15.59    1.88
  -6   7   6   13.82    2.18
   5  -7  -6    8.27    1.43
  -5   7   6    8.05    0.76
  -5   7   6    8.12    1.62
   4  -7  -6    2.26    0.85
  -4   7   6    0.71    0.71
  -4   7   6    1.00    0.47
   3  -7  -6   18.10    1.32
   3  -7  -6   14.46    1.52
  -3   7   6   16.58    1.14
  -3   7   6   20.50    2.05
   2  -7  -6   32.70    1.91
   2  -7  -6   36.23    1.75
  -2   7   6   35.45    2.21
   1  -7  -6   24.67    1.58
   1  -7  -6   22.38    1.29
   1  -7  -6   23.70    1.49
  -1   7   6   23.80    1.73
   0  -7  -6   68.64    2.73
   0  -7  -6   75.09    2.68
   0   7   6   72.11    3.07
  -1  -7  -6  104.89    3.09
  -1  -7  -6  105.32    3.32
  -1  -7  -6  104.75    3.37
   1   7   6  110.73    3.87
  -2  -7  -6    5.21    0.74
  -2  -7  -6    5.49    0.73
  -2  -7  -6    4.61    0.66
   2   7   6    4.37    0.84
   2   7   6    3.87    0.67
  -3  -7  -6    3.85    0.70
  -3  -7  -6    3.27    0.56
  -3  -7  -6    3.71    0.66
   3   7   6    5.17    0.78
   3   7   6    3.75    0.80
  -4  -7  -6   68.55    2.96
  -4  -7  -6   66.40    2.05
  -4  -7  -6   66.03    2.46
   4   7   6   64.51    2.81
   4   7   6   68.59    2.66
  -5  -7  -6   14.92    1.31
   5   7   6   13.68    1.43
  -6  -7  -6   23.74    1.53
   6   7   6   21.88    1.68
  -7  -7  -6    6.37    1.02
   7   7   6    5.85    1.09
  -8  -7  -6   18.12    1.70
   8   7   6   15.48    1.75
  -9  -7  -6   58.93    2.82
   9   7   6   55.26    3.11
 -10  -7  -6    1.08    0.81
  10   7   6   -0.37    0.66
   5  -8  -6    1.35    0.93
  -5   8   6    1.70    1.02
  -5   8   6    1.67    0.47
   4  -8  -6   41.26    2.53
  -4   8   6   47.85    1.90
  -4   8   6   44.13    3.00
   3  -8  -6   51.43    2.70
  -3   8   6   48.49    2.03
  -3   8   6   52.10    3.05
   2  -8  -6    2.31    0.78
  -2   8   6    4.35    0.74
  -2   8   6    2.99    0.91
   1  -8  -6    4.24    0.86
  -1   8   6    6.78    1.22
   0  -8  -6   63.04    2.55
   0  -8  -6   56.28    2.53
   0   8   6   61.79    2.97
  -1  -8  -6   36.69    2.17
  -1  -8  -6   43.82    1.97
   1   8   6   38.57    2.26
  -2  -8  -6    7.44    0.86
  -2  -8  -6    6.18    0.86
   2   8   6    6.72    1.13
  -3  -8  -6   63.97    2.50
  -3  -8  -6   61.28    2.25
  -3  -8  -6   58.54    2.30
   3   8   6   61.31    2.44
   3   8   6   59.68    2.83
  -4  -8  -6  186.83    4.89
  -4  -8  -6  188.26    5.32
   4   8   6  201.40    6.09
  -5  -8  -6   23.16    1.51
   5   8   6   18.28    1.81
  -6  -8  -6   40.55    2.07
   6   8   6   42.13    2.44
  -7  -8  -6   37.93    2.11
   7   8   6   32.29    2.21
  -8  -8  -6    2.88    0.85
   8   8   6    2.26    0.92
  -9  -8  -6    2.92    0.92
   9   8   6    0.88    0.85
   4  -9  -6   13.30    1.74
  -4   9   6   11.82    1.99
  -4   9   6   11.98    1.08
   3  -9  -6    3.76    1.02
  -3   9   6    3.39    0.72
  -3   9   6    4.22    1.21
   2  -9  -6   46.56    2.56
  -2   9   6   46.57    2.09
  -2   9   6   51.12    3.03
   1  -9  -6   53.06    2.63
  -1   9   6   53.42    3.01
  -1   9   6   50.43    2.24
   0  -9  -6   -0.14    0.50
   0   9   6   -0.43    0.49
   0   9   6    0.41    0.48
  -1  -9  -6   27.99    1.73
   1   9   6   27.03    2.02
  -2  -9  -6   30.85    1.72
   2   9   6   30.90    2.16
  -3  -9  -6   13.10    1.19
  -3  -9  -6   13.06    1.22
   3   9   6   14.07    1.68
  -4  -9  -6   11.08    1.03
  -4  -9  -6   10.05    1.16
   4   9   6    9.09    1.40
  -5  -9  -6   30.96    1.80
  -5  -9  -6   29.85    1.35
   5   9   6   27.04    2.09
  -6  -9  -6   93.29    3.50
   6   9   6   98.58    4.13
  -7  -9  -6    0.77    0.68
   7   9   6    0.02    0.55
  -8  -9  -6   26.64    1.93
   8   9   6   31.29    2.42
  -9  -9  -6   10.18    1.54
   9   9   6    9.70    1.71
   3 -10  -6    3.61    1.18
  -3  10   6    2.84    1.14
   2 -10  -6    9.72    1.45
  -2  10   6    9.70    1.70
  -2  10   6    8.12    1.05
  -1  10   6    0.50    0.56
  -1  10   6   -0.24    0.65
   0  10   6   29.41    2.35
   0  10   6   30.37    1.79
  -1 -10  -6  102.79    3.68
   1  10   6   94.75    3.49
   1  10   6  104.16    4.43
  -2 -10  -6    6.34    0.98
   2  10   6    5.11    1.17
  -3 -10  -6   38.61    1.94
   3  10   6   37.59    2.57
  -4 -10  -6   52.14    2.39
  -4 -10  -6   56.63    2.27
   4  10   6   53.94    3.08
  -5 -10  -6    2.42    0.61
  -5 -10  -6    2.42    0.78
   5  10   6    2.80    0.97
  -6 -10  -6    0.71    0.66
   6  10   6    0.16    0.66
  -7 -10  -6    6.07    1.14
   7  10   6    2.61    0.99
  -8 -10  -6   94.30    3.84
   8  10   6   88.49    4.32
  -1  11   6    0.31    1.00
  -1  11   6    0.38    0.93
   0  11   6    6.56    1.08
   0  11   6    6.48    1.48
  -1 -11  -6    2.40    0.86
   1  11   6    1.76    0.96
   1  11   6    2.08    0.71
  -2 -11  -6    1.19    0.72
   2  11   6    0.54    0.77
  -3 -11  -6   25.68    1.74
   3  11   6   27.02    2.66
  -4 -11  -6   67.09    2.70
   4  11   6   66.46    3.65
  -5 -11  -6    8.86    1.04
  -5 -11  -6    7.53    1.14
   5  11   6   10.82    1.76
  -6 -11  -6   20.65    1.86
   6  11   6   20.87    2.36
  -7 -11  -6    1.95    0.92
   7  11   6    0.65    0.81
  -2 -12  -6    2.65    1.11
   2  12   6    2.41    1.08
   3  12   6   13.59    2.08
   4  12   6   12.81    2.05
  -5  -9   7   10.56    1.55
   4   9  -7   26.72    2.11
  -4  -9   7   24.77    2.28
   3   9  -7   12.82    1.39
  -3  -9   7   11.72    1.55
   2   9  -7    0.98    0.60
  -2  -9   7    1.40    0.86
   1   9  -7   44.26    2.10
  -1  -9   7   43.53    2.62
   0   9  -7   39.07    1.82
  -1   9  -7    6.86    0.75
  -7  -8   7    4.28    1.14
   6   8  -7    3.26    1.09
  -6  -8   7    8.16    1.34
   5   8  -7    8.59    1.39
   5   8  -7    4.52    1.11
  -5  -8   7    4.95    1.08
   4   8  -7    7.45    1.14
   4   8  -7    4.60    1.11
  -4  -8   7    5.17    1.12
   3   8  -7    0.31    0.54
   3   8  -7   -0.01    0.66
  -3  -8   7    0.43    0.62
   2   8  -7   13.49    1.29
   2   8  -7   14.48    1.64
  -2  -8   7   15.68    1.73
   1   8  -7    9.23    1.06
   1   8  -7   13.69    1.60
   0   8  -7    1.69    0.57
   0   8  -7    1.34    0.85
   0   8  -7    2.05    0.80
   0  -8   7    0.48    0.71
  -1   8  -7   45.92    2.58
  -1   8  -7   40.74    1.63
   1  -8   7   37.40    2.45
  -2   8  -7   64.37    3.23
   2  -8   7   61.89    3.25
  -3   8  -7    0.16    0.75
   3  -8   7    0.55    0.90
   8   7  -7    0.25    1.20
  -8  -7   7    1.19    0.85
  -7  -7   7   19.66    1.90
   6   7  -7   30.21    1.98
   6   7  -7   28.78    2.08
   6   7  -7   31.19    2.05
  -6  -7   7   24.59    2.12
   5   7  -7    0.24    0.58
   5   7  -7    0.65    0.59
   5   7  -7   -0.34    0.50
  -5  -7   7    0.02    0.57
   4   7  -7   52.28    2.32
   4   7  -7   48.11    2.33
   4   7  -7   48.98    2.52
   4   7  -7   51.54    2.65
  -4  -7   7   48.38    2.52
   3   7  -7   25.75    1.73
   3   7  -7   21.68    1.90
   3   7  -7   21.98    1.48
  -3  -7   7   22.12    1.95
   2   7  -7    0.12    0.56
   2   7  -7    1.28    0.67
   2   7  -7    0.43    0.51
   1   7  -7    2.52    0.78
   1   7  -7    0.93    0.52
   1   7  -7    0.95    0.64
   0   7  -7    3.79    0.90
   0   7  -7    4.40    0.95
   0   7  -7    3.74    0.65
  -1   7  -7   44.77    2.48
  -1   7  -7   46.26    2.53
  -1   7  -7   45.87    1.72
  -2   7  -7   25.50    2.15
  -2   7  -7   20.97    2.01
   2  -7   7   23.92    2.17
  -3   7  -7   14.84    1.72
   3  -7   7   14.09    1.82
  -4   7  -7   95.69    4.14
   4  -7   7   91.81    4.15
   8   6  -7    6.88    1.45
  -8  -6   7    7.84    1.27
   7   6  -7   -0.88    0.59
   7   6  -7   -0.30    0.51
   7   6  -7    0.33    0.67
  -7  -6   7    0.54    0.63
   6   6  -7    0.46    0.69
   6   6  -7    0.72    0.68
   6   6  -7    0.72    0.57
  -6  -6   7    0.27    0.60
   5   6  -7    3.86    0.93
   5   6  -7    2.90    0.87
   5   6  -7    2.35    0.73
   5   6  -7    3.44    0.83
  -5  -6   7    3.82    0.94
   4   6  -7   72.71    2.99
   4   6  -7   66.17    2.78
   4   6  -7   66.50    2.88
   4   6  -7   68.61    3.00
   4   6  -7   72.00    2.71
  -4  -6   7   68.78    2.96
   3   6  -7    8.52    1.16
   3   6  -7    7.56    1.11
   3   6  -7    6.01    0.90
   3   6  -7    8.90    1.06
   3   6  -7    5.73    1.05
   2   6  -7   29.85    1.77
   2   6  -7   32.05    1.91
   2   6  -7   30.13    1.82
   2   6  -7   32.16    1.63
   1   6  -7   40.10    2.18
   1   6  -7   42.20    1.85
   1   6  -7   47.88    2.33
   1   6  -7   44.22    2.23
   0   6  -7   15.74    1.54
   0   6  -7   12.82    1.38
   0   6  -7   11.35    1.31
   0   6  -7   13.42    1.09
  -1   6  -7    1.62    0.69
  -1   6  -7    2.13    0.46
  -1   6  -7    1.74    0.72
  -2   6  -7   18.03    1.76
  -2   6  -7   21.24    1.81
  -3   6  -7   21.73    2.00
  -3   6  -7   24.69    2.03
   3  -6   7   23.80    2.09
  -4   6  -7   20.28    2.02
   4  -6   7   18.96    1.98
  -5   6  -7   -0.06    0.76
   5  -6   7    0.07    0.84
   9   5  -7   25.62    2.59
   9   5  -7   20.62    2.01
  -9  -5   7   27.34    2.76
   8   5  -7    5.76    1.29
   8   5  -7    3.60    0.95
  -8  -5   7    4.17    1.17
  -8  -5   7    2.88    0.88
   7   5  -7   12.31    1.52
   7   5  -7   15.78    1.58
   7   5  -7   12.42    1.66
  -7  -5   7   12.56    1.38
  -7  -5   7   13.48    1.72
   6   5  -7   30.10    1.87
   6   5  -7   29.99    1.87
   6   5  -7   30.23    1.90
   6   5  -7   29.62    2.04
  -6  -5   7   29.58    1.82
   5   5  -7   12.41    1.64
   5   5  -7   13.81    1.46
   5   5  -7   12.22    1.31
   5   5  -7   12.82    1.36
  -5  -5   7   13.38    1.38
   4   5  -7   29.36    1.76
   4   5  -7   31.61    1.85
   4   5  -7   30.62    1.86
   4   5  -7   29.31    1.76
   4   5  -7   31.50    1.66
   3   5  -7   18.33    1.56
   3   5  -7   14.90    1.38
   3   5  -7   14.38    1.46
   3   5  -7   17.30    1.21
   3   5  -7   17.51    1.57
   3   5  -7   16.58    1.43
   2   5  -7   83.00    3.09
   2   5  -7   86.50    2.85
   2   5  -7   82.67    3.12
   2   5  -7   86.63    3.19
   2   5  -7   81.65    3.17
   2   5  -7   84.69    2.95
   1   5  -7    4.88    0.86
   1   5  -7    7.29    1.05
   1   5  -7    5.56    0.77
   1   5  -7    7.33    0.89
   1   5  -7    7.30    1.04
   0   5  -7   80.86    3.03
   0   5  -7   72.10    2.40
   0   5  -7   73.46    2.92
   0   5  -7   75.82    2.98
   0  -5   7   72.83    2.95
  -1   5  -7   27.93    1.72
  -1   5  -7   29.38    1.78
  -1   5  -7   27.10    1.22
  -1   5  -7   28.97    1.75
   1  -5   7   29.49    1.79
  -2   5  -7   60.25    2.68
  -2   5  -7   63.49    2.77
  -2   5  -7   66.38    2.88
  -3   5  -7   15.92    1.64
  -3   5  -7   15.08    1.55
  -4   5  -7   47.67    2.57
  -4   5  -7   43.96    2.38
   4  -5   7   44.51    2.54
  -5   5  -7    5.28    1.20
  -5   5  -7    4.70    1.21
   5  -5   7    4.34    1.09
  -6   5  -7   10.25    1.65
   6  -5   7    8.76    1.49
   9   4  -7    3.80    1.05
   9   4  -7    3.54    1.19
  -9  -4   7    2.03    1.09
   8   4  -7    2.38    0.87
   8   4  -7    4.44    1.12
  -8  -4   7    3.38    1.04
   7   4  -7   59.74    2.83
   7   4  -7   55.96    2.68
   7   4  -7   62.69    3.10
  -7  -4   7   57.86    2.57
  -7  -4   7   61.43    3.08
   6   4  -7    0.17    0.57
   6   4  -7   -0.28    0.40
   6   4  -7    0.81    0.59
   6   4  -7    1.21    0.57
  -6  -4   7    0.24    0.53
  -6  -4   7    0.81    0.56
   5   4  -7   22.14    1.52
   5   4  -7   19.01    1.41
   5   4  -7   20.64    1.53
   5   4  -7   18.70    1.57
  -5  -4   7   20.67    1.64
  -5  -4   7   15.52    1.52
   4   4  -7   58.55    2.46
   4   4  -7   63.32    2.58
   4   4  -7   62.89    2.59
   4   4  -7   59.97    2.49
   4   4  -7   56.61    2.30
   3   4  -7   68.39    2.70
   3   4  -7   70.69    2.52
   3   4  -7   71.80    2.74
   3   4  -7   70.49    2.79
   3   4  -7   69.77    2.65
   3   4  -7   70.30    2.78
   2   4  -7    4.78    0.71
   2   4  -7    5.37    0.86
   2   4  -7    3.28    0.71
   2   4  -7    3.86    0.72
   2   4  -7    3.88    0.69
   2   4  -7    4.38    0.80
  -2  -4   7    3.75    0.77
   1   4  -7    6.73    0.79
   1   4  -7    7.84    1.00
   1   4  -7    6.08    0.89
   1   4  -7    6.60    0.91
   1   4  -7    7.88    0.99
   1   4  -7    6.91    0.87
  -1  -4   7    8.00    1.04
   0   4  -7   72.00    2.75
   0   4  -7   66.90    2.69
   0   4  -7   68.27    2.71
   0   4  -7   74.35    2.31
   0  -4   7   65.44    2.75
  -1   4  -7   80.82    2.36
  -1   4  -7   84.17    3.07
  -1   4  -7   79.03    2.97
  -1   4  -7   82.17    3.08
   1  -4   7   78.63    3.06
  -2   4  -7    8.53    1.11
  -2   4  -7    6.96    0.97
  -2   4  -7    7.16    1.00
   2  -4   7    6.68    0.99
  -3   4  -7   72.43    3.04
  -3   4  -7   72.15    2.88
  -3   4  -7   67.81    2.86
  -4   4  -7   84.62    3.31
  -4   4  -7   90.70    3.58
  -5   4  -7    0.14    0.66
  -5   4  -7    0.42    0.66
   5  -4   7    0.62    0.67
  -6   4  -7   35.89    2.34
  -6   4  -7   39.40    2.33
   6  -4   7   37.23    2.42
  -7   4  -7    3.97    1.11
   7  -4   7    3.56    1.10
   9   3  -7    6.52    1.50
  -9  -3   7    4.66    1.34
   8   3  -7    2.07    0.90
   8   3  -7    2.51    0.91
  -8  -3   7    2.59    1.05
   7   3  -7    0.74    0.65
   7   3  -7    1.10    0.64
   7   3  -7    0.80    0.63
  -7  -3   7    1.94    0.80
   6   3  -7   14.92    1.50
   6   3  -7   16.06    1.51
   6   3  -7   13.81    1.53
   6   3  -7   13.27    1.37
  -6  -3   7   12.82    1.26
  -6  -3   7    9.91    1.34
   5   3  -7    5.62    0.91
   5   3  -7    6.75    0.94
   5   3  -7    6.34    0.99
   5   3  -7    5.48    0.94
   5   3  -7    5.10    0.85
  -5  -3   7    6.91    1.04
  -5  -3   7    5.14    0.85
   4   3  -7   12.82    1.24
   4   3  -7   12.46    1.21
   4   3  -7    8.22    1.02
   4   3  -7   11.31    1.15
   4   3  -7   10.99    1.08
   4   3  -7   11.15    1.20
  -4  -3   7   10.14    1.10
   3   3  -7   15.34    1.18
   3   3  -7   13.86    1.24
   3   3  -7   13.33    1.12
   3   3  -7   11.00    1.08
   3   3  -7   11.22    1.14
  -3  -3   7   12.20    1.23
   2   3  -7  128.06    3.92
   2   3  -7  123.28    3.73
   2   3  -7  121.22    3.53
   2   3  -7  118.15    3.84
   2   3  -7  122.45    3.80
   2   3  -7  124.44    3.86
  -2  -3   7  117.99    3.94
   1   3  -7  208.07    5.70
   1   3  -7  214.82    5.56
   1   3  -7  210.96    5.67
   1   3  -7  205.36    5.62
   1   3  -7  200.01    5.24
   1   3  -7  199.47    5.69
  -1  -3   7  211.10    5.90
   0   3  -7   12.56    1.22
   0   3  -7    8.97    0.99
   0   3  -7    9.55    1.04
   0   3  -7    9.68    1.01
   0   3  -7   11.38    0.92
   0  -3   7    8.05    1.00
  -1   3  -7   86.80    3.14
  -1   3  -7   84.68    3.06
  -1   3  -7   85.09    3.01
  -1   3  -7   91.70    2.46
   1  -3   7   91.16    3.21
  -2   3  -7   10.81    1.19
  -2   3  -7   13.62    1.24
  -2   3  -7   12.61    1.16
   2  -3   7   11.16    1.16
  -3   3  -7    9.23    1.05
  -3   3  -7    9.70    1.15
  -3   3  -7    8.92    1.12
   3  -3   7    8.72    1.07
  -4   3  -7   12.40    1.27
  -4   3  -7   10.16    1.18
  -4   3  -7   12.85    1.42
  -5   3  -7   10.48    1.36
  -5   3  -7   12.45    1.31
  -6   3  -7   93.61    3.53
  -6   3  -7   91.27    3.74
   6  -3   7   95.74    3.91
  -7   3  -7   38.57    2.44
  -7   3  -7   34.78    2.17
   7  -3   7   37.85    2.46
  -8   3  -7   11.36    1.69
   8  -3   7   15.38    1.94
   9   2  -7   24.46    2.55
  -9  -2   7   21.37    2.40
   8   2  -7    2.25    0.98
   8   2  -7    2.50    0.83
  -8  -2   7    1.70    0.95
   7   2  -7    6.18    1.10
   7   2  -7    6.87    1.24
  -7  -2   7    6.66    1.22
   6   2  -7  119.51    4.29
   6   2  -7  113.11    3.91
   6   2  -7  106.86    3.72
   6   2  -7  111.07    3.80
  -6  -2   7  112.31    4.19
  -6  -2   7  108.08    3.51
   5   2  -7   27.89    1.78
   5   2  -7   28.65    1.64
   5   2  -7   27.45    1.65
   5   2  -7   29.89    1.69
   5   2  -7   28.46    1.62
  -5  -2   7   31.33    1.85
  -5  -2   7   29.26    1.50
   4   2  -7    9.09    1.02
   4   2  -7    8.61    1.03
   4   2  -7    8.84    0.98
   4   2  -7    6.68    0.88
   4   2  -7    9.99    1.09
   4   2  -7   10.21    1.13
  -4  -2   7    8.55    1.02
  -4  -2   7    8.68    1.02
   3   2  -7   15.87    1.14
   3   2  -7   15.32    1.13
   3   2  -7   16.56    1.35
   3   2  -7   14.79    1.14
   3   2  -7   15.95    1.05
   3   2  -7   14.78    1.03
  -3  -2   7   15.53    1.05
  -3  -2   7   16.51    1.23
   2   2  -7   17.46    1.17
   2   2  -7   18.69    1.26
   2   2  -7   17.52    1.20
   2   2  -7   20.60    1.26
   2   2  -7   20.64    1.14
  -2  -2   7   22.06    1.40
   1   2  -7   54.20    2.11
   1   2  -7   50.64    2.06
   1   2  -7   51.03    2.13
   1   2  -7   52.46    2.10
   1   2  -7   50.95    2.17
   1   2  -7   50.19    1.87
  -1  -2   7   55.61    2.31
   0   2  -7   13.84    1.26
   0   2  -7   15.58    1.07
   0   2  -7   11.94    1.04
   0   2  -7   13.22    1.14
   0   2  -7   12.20    0.80
   0  -2   7   14.55    1.11
  -1   2  -7  196.70    5.34
  -1   2  -7  197.59    4.76
  -1   2  -7  199.79    5.56
  -1   2  -7  195.69    5.43
   1  -2   7  207.47    5.61
  -2   2  -7  194.49    5.21
  -2   2  -7  188.46    5.27
  -2   2  -7  183.20    5.35
   2  -2   7  194.93    5.44
  -3   2  -7    4.34    0.74
  -3   2  -7    6.40    0.86
  -3   2  -7    6.02    0.93
   3  -2   7    5.79    0.84
  -4   2  -7   77.98    2.95
  -4   2  -7   83.05    3.04
  -4   2  -7   83.18    2.91
  -4   2  -7   82.48    3.13
   4  -2   7   73.86    2.92
  -5   2  -7    1.40    0.67
  -5   2  -7    1.81    0.67
  -5   2  -7    1.27    0.58
  -5   2  -7    0.96    0.57
   5  -2   7    0.28    0.48
  -6   2  -7    9.06    1.28
  -6   2  -7    9.43    1.16
  -6   2  -7    8.62    1.19
   6  -2   7    8.22    1.23
  -7   2  -7   15.02    1.49
  -7   2  -7   15.48    1.68
   7  -2   7   13.94    1.71
  -8   2  -7   45.74    2.72
   8  -2   7   43.43    2.65
   9   1  -7    0.06    0.74
  -9  -1   7   -0.17    0.75
   8   1  -7    0.69    0.71
   8   1  -7    0.23    0.73
  -8  -1   7   -0.14    0.61
   7   1  -7   32.93    1.94
   7   1  -7   38.97    2.45
   7   1  -7   32.87    1.96
  -7  -1   7   30.43    2.22
   6   1  -7    1.54    0.64
   6   1  -7    1.60    0.60
   6   1  -7    2.05    0.72
   6   1  -7    1.57    0.65
  -6  -1   7    1.51    0.66
   5   1  -7   52.18    2.25
   5   1  -7   49.96    2.24
   5   1  -7   44.58    2.14
   5   1  -7   52.24    2.50
  -5  -1   7   52.26    2.48
  -5  -1   7   50.76    2.24
  -5  -1   7   49.78    1.96
   4   1  -7   64.34    2.55
   4   1  -7   62.43    2.50
   4   1  -7   63.55    2.53
   4   1  -7   61.77    2.68
   4   1  -7   72.61    2.73
  -4  -1   7   70.48    2.69
  -4  -1   7   67.81    2.62
   3   1  -7   31.98    1.59
   3   1  -7   27.75    1.51
   3   1  -7   30.17    1.59
   3   1  -7   28.87    1.42
   3   1  -7   27.74    1.49
   3   1  -7   29.80    1.48
  -3  -1   7   29.48    1.59
  -3  -1   7   27.60    1.42
   2   1  -7  119.75    3.73
   2   1  -7  118.51    3.44
   2   1  -7  120.07    3.31
   2   1  -7  117.64    3.57
   2   1  -7  117.94    3.60
   2   1  -7  120.58    3.62
  -2  -1   7  111.34    3.70
  -2  -1   7  116.09    3.28
   1   1  -7    2.47    0.53
   1   1  -7    2.90    0.58
   1   1  -7    1.67    0.44
   1   1  -7    2.14    0.53
   1   1  -7    1.55    0.49
  -1  -1   7    1.38    0.47
   0   1  -7    0.64    0.29
   0   1  -7    1.43    0.47
   0   1  -7    1.14    0.40
   0   1  -7    1.97    0.52
   0   1  -7    0.93    0.39
   0  -1   7    1.23    0.43
  -1   1  -7   -0.01    0.35
  -1   1  -7    0.27    0.31
  -1   1  -7   -0.52    0.27
  -1   1  -7    0.00    0.30
  -1   1  -7    0.31    0.21
   1  -1   7    0.24    0.34
  -2   1  -7    0.60    0.40
  -2   1  -7    1.11    0.42
  -2   1  -7    1.22    0.42
  -2   1  -7    0.70    0.39
   2  -1   7    1.05    0.45
  -3   1  -7  131.37    3.94
  -3   1  -7  133.26    4.09
  -3   1  -7  128.13    3.80
  -3   1  -7  127.53    4.02
   3  -1   7  136.20    4.14
  -4   1  -7  326.71    8.42
  -4   1  -7  320.13    8.20
  -4   1  -7  332.09    8.10
  -4   1  -7  322.95    8.31
   4  -1   7  333.16    8.38
  -5   1  -7   49.33    2.31
  -5   1  -7   43.66    1.99
  -5   1  -7   44.72    2.08
  -5   1  -7   46.83    2.20
   5  -1   7   46.33    2.13
   5  -1   7   47.93    2.19
  -6   1  -7   84.70    3.05
  -6   1  -7   84.90    3.34
  -6   1  -7   85.14    3.26
   6  -1   7   89.57    3.25
  -7   1  -7   23.78    1.63
  -7   1  -7   21.96    1.69
  -7   1  -7   24.31    1.71
  -8   1  -7    1.97    0.85
  -8   1  -7    2.47    0.88
   8  -1   7    1.28    0.85
  -9   1  -7    4.28    1.13
   9  -1   7    4.43    1.16
   9   0  -7   51.98    3.35
  -9   0   7   51.97    3.35
   8   0  -7   12.56    1.44
   8   0  -7   11.74    1.75
   8   0  -7   11.65    1.43
  -8   0   7   10.91    1.70
   7   0  -7    4.71    0.95
   7   0  -7    4.87    1.10
   7   0  -7    3.73    0.90
  -7   0   7    4.21    1.10
   6   0  -7    8.60    1.32
   6   0  -7    5.60    0.93
   6   0  -7    5.41    0.93
   6   0  -7    7.58    1.06
  -6   0   7    8.14    1.16
  -6   0   7    8.83    1.35
   5   0  -7   53.77    2.30
   5   0  -7   51.04    2.27
   5   0  -7   52.17    2.58
   5   0  -7   51.72    2.29
  -5   0   7   47.75    2.49
  -5   0   7   54.66    2.27
   4   0  -7   37.54    1.85
   4   0  -7   38.70    1.82
   4   0  -7   36.99    1.96
   4   0  -7   39.37    1.87
  -4   0   7   39.48    1.85
  -4   0   7   38.95    1.98
   3   0  -7   17.32    1.17
   3   0  -7   17.70    1.19
   3   0  -7   17.00    1.20
   3   0  -7   19.50    1.21
   3   0  -7   18.20    1.14
  -3   0   7   16.70    1.20
  -3   0   7   16.67    1.15
   2   0  -7  314.04    8.04
   2   0  -7  328.49    7.80
   2   0  -7  320.60    7.94
   2   0  -7  331.55    7.76
   2   0  -7  322.69    7.88
   2   0  -7  315.68    7.96
  -2   0   7  326.75    7.75
  -2   0   7  314.71    8.07
   1   0  -7  182.85    5.05
   1   0  -7  192.06    5.20
   1   0  -7  185.84    4.91
   1   0  -7  186.08    5.00
   1   0  -7  185.44    4.78
  -1   0   7  182.37    5.13
   0   0  -7    1.49    0.41
   0   0  -7    1.83    0.51
   0   0  -7    2.24    0.44
   0   0  -7    2.70    0.44
   0   0  -7    1.42    0.42
   0   0   7    2.61    0.54
  -1   0  -7  227.17    5.69
  -1   0  -7  218.82    5.27
  -1   0  -7  227.97    6.00
  -1   0  -7  224.83    5.85
  -1   0  -7  227.88    5.80
  -1   0  -7  223.04    5.65
   1   0   7  228.79    6.03
  -2   0  -7   27.08    1.44
  -2   0  -7   26.90    1.33
  -2   0  -7   25.11    1.36
  -2   0  -7   21.58    0.65
  -2   0  -7   25.31    0.67
  -2   0  -7   25.36    1.23
   2   0   7   26.46    1.45
  -3   0  -7    0.26    0.42
  -3   0  -7    1.26    0.49
  -3   0  -7    0.87    0.39
  -3   0  -7    0.59    0.39
   3   0   7    1.28    0.46
  -4   0  -7    5.75    0.72
  -4   0  -7    4.33    0.75
  -4   0  -7    6.17    0.78
  -4   0  -7    4.66    0.81
   4   0   7    5.63    0.79
  -5   0  -7   80.82    3.04
  -5   0  -7   84.76    2.92
  -5   0  -7   82.24    3.07
  -5   0  -7   85.57    2.82
   5   0   7   88.74    2.98
   5   0   7   87.64    3.07
  -6   0  -7   87.82    3.32
  -6   0  -7   90.41    3.30
  -6   0  -7   92.45    3.06
   6   0   7   88.28    3.14
  -7   0  -7   -0.04    0.51
  -7   0  -7    1.22    0.64
  -7   0  -7   -0.03    0.52
   7   0   7    1.20    0.59
   7   0   7    1.05    0.61
  -8   0  -7   41.53    2.34
  -8   0  -7   39.05    2.19
   8   0   7   40.14    2.37
   9  -1  -7    1.96    1.03
  -9   1   7    1.62    1.06
   8  -1  -7   -0.28    0.69
   8  -1  -7    0.42    0.78
   8  -1  -7   -0.27    0.62
  -8   1   7    0.62    0.83
   7  -1  -7   36.66    2.26
   7  -1  -7   39.41    2.10
  -7   1   7   35.87    2.51
   6  -1  -7   44.56    2.34
   6  -1  -7   45.96    2.20
   6  -1  -7   47.06    2.27
  -6   1   7   49.23    2.74
   5  -1  -7   38.91    1.93
   5  -1  -7   43.58    2.10
   5  -1  -7   44.69    2.08
  -5   1   7   41.97    1.90
  -5   1   7   39.07    2.29
   4  -1  -7   26.00    1.48
   4  -1  -7   25.10    1.51
   4  -1  -7   29.18    1.56
  -4   1   7   27.33    1.47
  -4   1   7   25.80    1.72
   3  -1  -7    0.64    0.45
   3  -1  -7    0.61    0.39
   3  -1  -7    1.27    0.44
   3  -1  -7    1.56    0.53
  -3   1   7    1.04    0.48
  -3   1   7    1.24    0.46
   2  -1  -7   84.86    2.94
   2  -1  -7   89.65    2.82
   2  -1  -7   89.88    3.02
   2  -1  -7   89.71    2.88
  -2   1   7   86.05    2.92
  -2   1   7   88.04    2.96
   1  -1  -7    6.42    0.72
   1  -1  -7    6.53    0.85
   1  -1  -7    6.89    0.78
   1  -1  -7    7.31    0.78
  -1   1   7    6.45    0.83
  -1   1   7    8.37    0.78
   0  -1  -7  129.18    3.66
   0  -1  -7  126.22    3.55
   0  -1  -7  128.67    3.46
   0  -1  -7  124.03    3.84
   0  -1  -7  126.73    3.63
   0   1   7  133.00    3.88
  -1  -1  -7  111.22    2.97
  -1  -1  -7  113.59    3.19
  -1  -1  -7  114.75    3.34
  -1  -1  -7  117.12    3.57
  -1  -1  -7  113.39    3.39
  -1  -1  -7  115.99    3.25
   1   1   7  115.06    3.57
  -2  -1  -7    1.76    0.48
  -2  -1  -7    1.61    0.40
  -2  -1  -7    0.75    0.35
  -2  -1  -7    0.89    0.37
  -2  -1  -7    0.91    0.18
  -2  -1  -7    1.22    0.49
  -2  -1  -7    1.35    0.22
   2   1   7    0.57    0.36
  -3  -1  -7  225.42    5.90
  -3  -1  -7  222.88    5.72
  -3  -1  -7  225.62    5.96
  -3  -1  -7  226.09    5.56
   3   1   7  230.32    6.02
  -4  -1  -7   65.33    2.49
  -4  -1  -7   67.54    2.55
  -4  -1  -7   71.39    2.28
  -4  -1  -7   69.62    2.39
   4   1   7   70.82    2.62
  -5  -1  -7    3.53    0.60
  -5  -1  -7    3.26    0.58
  -5  -1  -7    3.72    0.70
  -5  -1  -7    4.63    0.81
   5   1   7    3.81    0.71
  -6  -1  -7    1.88    0.62
  -6  -1  -7    0.77    0.62
  -6  -1  -7    0.89    0.53
   6   1   7    0.65    0.45
  -7  -1  -7   14.71    1.47
  -7  -1  -7   12.09    1.28
  -8  -1  -7   64.13    2.81
  -8  -1  -7   63.80    2.80
   8   1   7   57.68    2.76
   9  -2  -7    8.16    1.50
  -9   2   7   13.06    2.15
   8  -2  -7   -0.59    0.60
  -8   2   7    0.37    0.72
   7  -2  -7    7.06    1.21
   7  -2  -7    8.44    1.20
  -7   2   7    8.48    1.65
   6  -2  -7    5.25    1.05
   6  -2  -7    3.44    0.78
  -6   2   7    3.69    1.00
   5  -2  -7   19.08    1.71
   5  -2  -7   16.35    1.41
   5  -2  -7   20.28    1.43
  -5   2   7   19.41    1.99
   4  -2  -7  107.94    3.68
   4  -2  -7  108.25    3.51
   4  -2  -7  102.40    3.47
  -4   2   7  110.08    4.07
  -4   2   7  105.39    3.30
   3  -2  -7    0.52    0.40
   3  -2  -7    0.43    0.41
   3  -2  -7    0.39    0.36
   3  -2  -7    1.07    0.50
  -3   2   7    0.17    0.32
  -3   2   7    2.37    0.65
   2  -2  -7  122.79    3.58
   2  -2  -7  118.51    3.56
   2  -2  -7  126.24    3.76
   2  -2  -7  116.61    3.71
  -2   2   7  123.17    3.66
  -2   2   7  120.68    3.77
   1  -2  -7   52.30    1.83
   1  -2  -7   51.17    2.08
   1  -2  -7   50.05    1.90
   1  -2  -7   50.87    1.91
  -1   2   7   49.44    2.00
  -1   2   7   49.02    1.86
   0  -2  -7   56.04    1.90
   0  -2  -7   57.54    2.02
   0  -2  -7   54.42    1.96
   0  -2  -7   48.94    1.84
   0  -2  -7   56.01    2.17
   0   2   7   55.03    1.75
   0   2   7   57.39    2.17
  -1  -2  -7   23.15    1.32
  -1  -2  -7   24.38    1.11
  -1  -2  -7   21.92    1.02
  -1  -2  -7   21.63    0.99
  -1  -2  -7   19.91    1.11
  -1  -2  -7   22.75    1.13
   1   2   7   23.12    1.29
  -2  -2  -7  125.39    3.35
  -2  -2  -7  122.42    3.45
  -2  -2  -7  125.72    3.62
  -2  -2  -7  124.00    3.03
  -2  -2  -7  126.16    3.30
  -2  -2  -7  123.78    3.73
   2   2   7  128.07    3.77
  -3  -2  -7   60.15    2.23
  -3  -2  -7   62.55    2.30
  -3  -2  -7   61.23    1.91
  -3  -2  -7   62.41    2.08
   3   2   7   63.05    2.38
  -4  -2  -7   53.37    1.92
  -4  -2  -7   53.36    2.11
  -4  -2  -7   55.75    1.80
  -4  -2  -7   52.70    2.13
   4   2   7   55.20    2.26
  -5  -2  -7  107.95    3.45
  -5  -2  -7  105.09    3.20
  -5  -2  -7  108.39    3.48
   5   2   7  116.60    3.69
  -6  -2  -7  108.78    3.58
  -6  -2  -7  107.30    3.51
  -7  -2  -7    1.50    0.60
  -7  -2  -7    1.52    0.62
  -8  -2  -7   -0.31    0.56
  -9  -2  -7   26.33    1.89
   8  -3  -7    1.04    0.87
  -8   3   7    1.14    0.97
   7  -3  -7   21.28    2.13
  -7   3   7   22.78    2.61
   6  -3  -7    6.75    1.18
  -6   3   7    9.07    1.63
   5  -3  -7    3.43    0.73
   5  -3  -7    4.08    0.80
   5  -3  -7    4.29    0.96
  -5   3   7    3.90    1.06
   4  -3  -7   15.44    1.48
   4  -3  -7   12.64    1.26
   4  -3  -7   14.32    1.31
  -4   3   7   11.29    1.41
   3  -3  -7    0.68    0.45
   3  -3  -7    0.90    0.52
   3  -3  -7    0.57    0.40
   3  -3  -7    0.76    0.49
  -3   3   7    1.09    0.51
  -3   3   7    0.39    0.32
   2  -3  -7  111.07    3.44
   2  -3  -7  110.56    3.55
   2  -3  -7  107.56    3.33
  -2   3   7  116.35    3.66
  -2   3   7  109.22    3.35
   1  -3  -7  128.37    3.54
   1  -3  -7  138.40    4.00
   1  -3  -7  131.54    3.80
   1  -3  -7  130.12    3.72
  -1   3   7  131.01    3.81
  -1   3   7  135.41    3.87
   0  -3  -7   28.05    1.21
   0  -3  -7   26.80    1.24
   0  -3  -7   27.08    1.28
   0  -3  -7   27.14    1.46
   0  -3  -7   27.71    1.29
   0   3   7   28.15    1.25
   0   3   7   25.85    1.40
  -1  -3  -7  110.11    2.99
  -1  -3  -7  104.38    3.12
  -1  -3  -7  111.52    2.98
  -1  -3  -7  106.86    3.06
  -1  -3  -7  104.41    3.34
   1   3   7  107.93    2.98
   1   3   7  106.78    3.35
  -2  -3  -7   44.80    1.62
  -2  -3  -7   46.27    1.89
  -2  -3  -7   42.58    1.49
  -2  -3  -7   42.81    1.71
  -2  -3  -7   42.85    1.42
  -2  -3  -7   41.36    1.38
   2   3   7   42.10    1.51
   2   3   7   42.40    1.84
  -3  -3  -7    2.07    0.41
  -3  -3  -7    2.00    0.49
  -3  -3  -7    3.03    0.58
   3   3   7    2.17    0.51
  -4  -3  -7   18.44    0.96
  -4  -3  -7   16.53    1.12
  -4  -3  -7   17.10    1.10
   4   3   7   18.52    1.23
  -5  -3  -7   80.15    2.70
  -5  -3  -7   75.37    2.76
   5   3   7   80.52    2.94
  -6  -3  -7   65.43    2.47
  -6  -3  -7   68.68    2.64
  -7  -3  -7   22.57    1.56
  -8  -3  -7   27.81    1.77
  -9  -3  -7   13.15    1.54
 -10  -3  -7    2.70    0.91
   8  -4  -7   -0.46    0.80
  -8   4   7   -1.09    0.83
   7  -4  -7   15.46    1.89
  -7   4   7   15.63    2.26
   6  -4  -7   17.95    1.87
  -6   4   7   22.44    2.61
   5  -4  -7   20.78    1.91
  -5   4   7   21.68    2.29
   4  -4  -7   63.29    2.86
   4  -4  -7   65.34    2.61
  -4   4   7   63.54    3.09
   3  -4  -7    2.74    0.76
   3  -4  -7    3.24    0.63
  -3   4   7    2.10    0.68
   2  -4  -7   25.36    1.56
   2  -4  -7   29.53    1.46
   2  -4  -7   24.39    1.47
  -2   4   7   31.17    1.68
  -2   4   7   26.57    1.36
   1  -4  -7    0.54    0.30
   1  -4  -7    1.19    0.41
   1  -4  -7    0.88    0.42
   1  -4  -7    0.76    0.42
  -1   4   7    0.05    0.26
  -1   4   7    0.79    0.39
   0  -4  -7   80.10    2.74
   0  -4  -7   79.09    2.44
   0  -4  -7   76.27    2.54
   0  -4  -7   77.15    2.46
   0   4   7   82.05    2.71
   0   4   7   78.24    2.65
  -1  -4  -7   79.62    2.69
  -1  -4  -7   73.92    2.38
  -1  -4  -7   78.37    2.46
  -1  -4  -7   75.79    2.25
  -1  -4  -7   80.90    2.41
   1   4   7   75.79    2.61
   1   4   7   75.23    2.51
  -2  -4  -7   26.98    1.29
  -2  -4  -7   24.74    1.06
  -2  -4  -7   24.18    1.10
  -2  -4  -7   24.54    1.37
   2   4   7   23.95    1.22
   2   4   7   25.63    1.37
  -3  -4  -7   79.94    2.05
  -3  -4  -7   85.48    2.76
  -3  -4  -7   78.42    2.65
  -3  -4  -7   79.70    2.42
   3   4   7   80.16    2.59
   3   4   7   78.98    2.80
  -4  -4  -7   53.95    2.05
  -4  -4  -7   52.57    2.11
   4   4   7   54.55    2.24
   4   4   7   52.37    2.20
  -5  -4  -7    4.80    0.70
  -5  -4  -7    3.87    0.72
  -6  -4  -7   28.23    1.62
  -7  -4  -7   59.39    2.58
  -8  -4  -7   81.76    3.26
  -9  -4  -7   -0.66    0.57
 -10  -4  -7   42.74    2.52
   7  -5  -7   28.01    2.54
  -7   5   7   30.56    3.22
   6  -5  -7    2.36    0.91
  -6   5   7    3.63    1.26
  -6   5   7    3.50    0.53
   5  -5  -7   96.98    3.95
  -5   5   7  108.04    4.62
   4  -5  -7   75.75    2.89
   4  -5  -7   71.09    3.16
  -4   5   7   79.35    3.56
   3  -5  -7    0.38    0.55
   3  -5  -7    0.92    0.52
  -3   5   7    0.50    0.49
   2  -5  -7  227.99    6.31
   2  -5  -7  237.10    6.58
   2  -5  -7  238.50    6.13
  -2   5   7  238.49    6.68
   1  -5  -7   10.89    1.08
   1  -5  -7   10.33    1.09
   1  -5  -7   12.46    0.92
  -1   5   7   10.44    1.14
  -1   5   7    9.16    1.06
   0  -5  -7    7.80    0.78
   0  -5  -7    7.23    0.87
   0  -5  -7    4.96    0.74
   0  -5  -7    6.14    0.67
   0   5   7    6.07    0.76
   0   5   7    6.11    0.84
  -1  -5  -7    1.65    0.50
  -1  -5  -7    0.94    0.37
  -1  -5  -7    1.47    0.39
  -1  -5  -7    1.73    0.44
   1   5   7    1.45    0.46
   1   5   7    1.45    0.47
  -2  -5  -7   71.21    2.28
  -2  -5  -7   75.21    2.61
  -2  -5  -7   73.96    2.46
   2   5   7   77.45    2.66
   2   5   7   73.15    2.62
  -3  -5  -7  163.01    3.97
  -3  -5  -7  164.55    4.50
  -3  -5  -7  160.77    4.50
   3   5   7  156.04    4.57
   3   5   7  165.23    4.67
  -4  -5  -7   77.88    2.88
  -4  -5  -7   77.73    2.90
  -4  -5  -7   75.99    2.73
   4   5   7   76.53    2.75
   4   5   7   82.02    2.95
  -5  -5  -7   47.61    2.09
   5   5   7   45.82    2.06
  -6  -5  -7  122.81    3.98
  -7  -5  -7    2.04    0.69
  -8  -5  -7   39.83    2.17
  -9  -5  -7    1.69    0.82
 -10  -5  -7   11.97    1.52
   7  -6  -7   18.42    2.19
  -7   6   7   20.23    2.84
   6  -6  -7    0.58    0.76
  -6   6   7    1.27    0.96
  -6   6   7    0.37    0.34
   5  -6  -7    1.35    0.78
  -5   6   7    0.35    0.86
  -5   6   7    1.68    0.52
   4  -6  -7   14.89    1.62
  -4   6   7   21.04    2.19
   3  -6  -7   10.73    1.36
   3  -6  -7   12.20    1.22
  -3   6   7   14.66    1.70
   2  -6  -7   65.51    2.47
   2  -6  -7   64.51    2.84
  -2   6   7   64.92    2.91
   1  -6  -7   14.13    1.02
   1  -6  -7   16.72    1.46
   1  -6  -7   14.75    1.38
  -1   6   7   14.48    1.45
   0  -6  -7  110.29    3.19
   0  -6  -7  108.40    3.44
   0  -6  -7  105.32    3.52
   0   6   7  110.03    3.79
  -1  -6  -7   98.04    2.97
  -1  -6  -7  100.76    3.26
  -1  -6  -7   98.09    3.11
   1   6   7  102.34    3.49
   1   6   7   99.71    3.19
  -2  -6  -7   12.79    0.92
  -2  -6  -7   12.80    1.12
  -2  -6  -7   12.57    1.13
   2   6   7   12.67    1.24
   2   6   7   15.66    1.12
  -3  -6  -7   94.29    2.70
  -3  -6  -7   94.29    3.06
  -3  -6  -7   88.89    3.25
   3   6   7   94.65    3.20
   3   6   7   98.78    3.35
  -4  -6  -7   85.50    2.93
  -4  -6  -7   84.98    2.21
   4   6   7   84.32    3.10
  -5  -6  -7   31.37    1.68
   5   6   7   29.49    1.72
  -6  -6  -7    2.99    0.74
   6   6   7    2.88    0.73
  -7  -6  -7   24.38    1.65
  -8  -6  -7   92.08    3.59
  -9  -6  -7    2.10    0.93
 -10  -6  -7   16.25    1.73
   6  -7  -7    0.67    0.89
  -6   7   7   -0.44    0.48
  -6   7   7    0.58    0.90
   5  -7  -7   14.30    1.80
  -5   7   7   16.78    1.12
  -5   7   7   15.94    2.23
   4  -7  -7   13.43    1.65
  -4   7   7   16.30    1.16
  -4   7   7   15.34    2.00
   3  -7  -7    6.31    0.91
   3  -7  -7    6.73    1.21
  -3   7   7    7.95    1.35
   2  -7  -7    6.70    1.11
   2  -7  -7    5.27    0.81
  -2   7   7    7.51    1.23
   1  -7  -7   40.90    2.06
   1  -7  -7   39.82    2.17
  -1   7   7   40.52    2.29
   0  -7  -7  109.36    3.56
   0  -7  -7  102.89    3.59
   0   7   7  108.86    3.97
  -1  -7  -7   66.41    2.51
  -1  -7  -7   60.28    2.38
   1   7   7   62.44    2.77
  -2  -7  -7  146.11    4.12
  -2  -7  -7  144.59    4.11
  -2  -7  -7  142.55    4.29
   2   7   7  144.75    4.29
   2   7   7  144.41    4.68
  -3  -7  -7   55.24    2.18
  -3  -7  -7   55.02    2.32
  -3  -7  -7   51.14    1.92
   3   7   7   56.32    2.33
   3   7   7   54.43    2.51
  -4  -7  -7    1.25    0.53
  -4  -7  -7    1.83    0.40
   4   7   7    2.00    0.63
  -5  -7  -7    7.48    1.00
   5   7   7    9.48    1.23
  -6  -7  -7   27.10    1.70
   6   7   7   29.51    1.90
  -7  -7  -7    2.30    0.76
   7   7   7    2.54    0.79
  -8  -7  -7   39.17    2.23
  -9  -7  -7    1.81    0.89
   5  -8  -7   21.90    2.36
  -5   8   7   26.88    2.96
  -5   8   7   26.22    1.46
   4  -8  -7    5.34    1.33
  -4   8   7    6.50    1.41
  -4   8   7    6.45    0.90
   3  -8  -7   10.80    1.55
  -3   8   7    9.18    1.60
  -3   8   7    9.57    1.06
   2  -8  -7   42.25    2.48
  -2   8   7   44.31    2.66
   1  -8  -7    3.76    0.92
  -1   8   7    2.50    0.83
   0  -8  -7   21.06    1.71
   0  -8  -7   16.41    1.57
   0   8   7   15.19    1.68
  -1  -8  -7   -0.10    0.46
  -1  -8  -7    0.74    0.54
   1   8   7    0.19    0.49
  -2  -8  -7   84.27    2.87
  -2  -8  -7   89.85    3.02
   2   8   7   86.11    3.51
  -3  -8  -7   21.32    1.35
  -3  -8  -7   19.31    1.22
   3   8   7   18.25    1.78
  -4  -8  -7   30.08    1.36
  -4  -8  -7   27.50    1.62
   4   8   7   27.93    1.94
  -5  -8  -7   59.34    2.51
   5   8   7   58.79    2.87
  -6  -8  -7   38.03    2.10
   6   8   7   38.22    2.28
  -7  -8  -7   19.68    1.80
   7   8   7   16.81    1.79
  -8  -8  -7   75.74    3.24
   8   8   7   70.08    3.47
  -9  -8  -7    7.14    1.33
   4  -9  -7    0.65    0.99
  -4   9   7    1.39    0.99
   3  -9  -7    4.49    1.19
  -3   9   7    4.30    0.82
  -3   9   7    3.05    1.10
   2  -9  -7   16.56    1.85
  -2   9   7   15.15    1.37
  -2   9   7   16.08    2.04
   1  -9  -7    0.05    0.65
  -1   9   7    0.29    0.73
  -1   9   7    0.05    0.48
   0  -9  -7   56.78    2.62
   0   9   7   57.24    3.08
  -1  -9  -7   11.27    1.26
   1   9   7   14.53    1.75
  -2  -9  -7    1.30    0.58
   2   9   7    1.57    0.72
  -3  -9  -7   23.89    1.46
  -3  -9  -7   23.76    1.48
   3   9   7   22.59    1.83
  -4  -9  -7   13.01    1.33
  -4  -9  -7   10.41    1.02
   4   9   7    9.51    1.38
  -5  -9  -7   19.33    1.05
  -5  -9  -7   17.55    1.62
   5   9   7   17.89    1.92
  -6  -9  -7    1.29    0.74
   6   9   7    1.64    0.80
  -7  -9  -7   25.48    1.82
   7   9   7   23.18    2.28
  -8  -9  -7   26.12    2.21
   8   9   7   27.90    2.25
   2 -10  -7   20.47    2.19
  -2  10   7   16.22    1.47
  -2  10   7   18.99    2.38
  -1  10   7   15.02    1.49
  -1  10   7   14.74    1.98
   0 -10  -7   11.73    1.44
   0  10   7   10.46    1.25
   0  10   7   10.85    1.68
  -1 -10  -7    0.14    0.62
   1  10   7   -0.81    0.48
  -2 -10  -7   19.67    1.70
   2  10   7   17.96    2.08
  -3 -10  -7   55.71    2.41
   3  10   7   57.68    3.16
  -4 -10  -7    4.50    0.81
  -4 -10  -7    4.54    0.92
   4  10   7    3.94    1.12
  -5 -10  -7   17.31    1.15
  -5 -10  -7   18.48    1.68
   5  10   7   18.69    2.05
  -6 -10  -7   25.34    1.82
   6  10   7   26.73    2.18
  -7 -10  -7    4.63    1.07
   7  10   7    5.09    1.26
  -8 -10  -7    3.36    0.99
   8  10   7    0.86    0.86
   0  11   7   18.07    2.28
   0  11   7   20.85    1.82
  -1 -11  -7    6.66    1.19
   1  11   7    6.92    1.53
  -2 -11  -7    5.35    1.07
   2  11   7    4.95    1.29
  -3 -11  -7    3.45    0.88
   3  11   7    4.32    1.16
  -4 -11  -7    7.58    1.06
   4  11   7    7.62    1.48
  -5 -11  -7   23.51    1.45
   5  11   7   21.99    2.35
  -6 -11  -7   19.66    1.87
   6  11   7   18.62    2.26
   4   9  -8    2.85    0.96
  -4  -9   8    3.57    1.14
   3   9  -8    2.99    1.33
  -3  -9   8    1.67    0.95
  -2  -9   8   41.33    2.64
  -1  -9   8   10.41    1.59
  -6  -8   8    9.95    1.58
   5   8  -8   14.74    1.75
  -5  -8   8   16.98    1.90
   4   8  -8   25.95    2.11
  -4  -8   8   25.87    2.37
   3   8  -8    2.21    0.76
  -3  -8   8    1.88    0.95
   2   8  -8    0.98    0.61
   1   8  -8    5.44    0.92
   0   8  -8   13.67    1.91
   0   8  -8   15.69    1.27
  -1   8  -8   46.69    1.67
  -1   8  -8   50.35    2.88
   1  -8   8   43.54    2.72
  -2   8  -8    0.23    0.84
   2  -8   8   -0.73    0.66
   7   7  -8    0.62    0.81
  -7  -7   8   -0.55    0.73
   6   7  -8   -0.16    0.65
  -6  -7   8   -0.45    0.64
   5   7  -8   17.06    1.70
   5   7  -8   13.07    1.78
   5   7  -8   16.89    1.79
  -5  -7   8   18.10    1.86
   4   7  -8   19.74    1.77
   4   7  -8   18.77    1.87
   4   7  -8   14.34    1.64
  -4  -7   8   16.81    1.78
   3   7  -8    6.33    1.15
   3   7  -8    5.97    0.97
   2   7  -8   24.67    2.12
   2   7  -8   25.46    1.59
   1   7  -8   12.26    1.19
   1   7  -8   15.74    1.66
   1   7  -8   13.31    1.56
   0   7  -8    1.35    0.79
   0   7  -8    2.06    0.58
   0   7  -8    2.81    0.89
  -1   7  -8   30.82    1.33
  -1   7  -8   28.46    2.14
  -2   7  -8    2.08    0.99
  -3   7  -8   12.30    1.66
   3  -7   8   13.39    1.86
  -4   7  -8   11.67    1.70
   4  -7   8    8.74    1.59
   8   6  -8    1.23    0.78
  -8  -6   8    0.84    0.80
   7   6  -8    7.69    1.32
  -7  -6   8    5.72    1.22
   6   6  -8    4.29    0.98
   6   6  -8    5.77    1.13
   6   6  -8    3.56    0.92
  -6  -6   8    4.49    1.05
   5   6  -8    0.77    0.72
   5   6  -8    0.35    0.60
   5   6  -8    1.27    0.67
  -5  -6   8   -0.22    0.55
   4   6  -8    0.07    0.55
   4   6  -8    1.16    0.71
   4   6  -8   -0.58    0.50
   4   6  -8    0.01    0.50
  -4  -6   8    0.53    0.68
   3   6  -8    8.42    1.19
   3   6  -8    6.54    0.98
   3   6  -8    6.02    0.95
   3   6  -8    4.98    1.01
   2   6  -8   41.47    2.33
   2   6  -8   40.51    2.22
   2   6  -8   41.78    1.97
   1   6  -8    8.01    1.21
   1   6  -8    6.12    0.87
   1   6  -8    5.82    1.05
   0   6  -8   40.35    2.26
   0   6  -8   41.96    2.34
   0   6  -8   39.44    1.72
  -1   6  -8   54.83    1.89
  -1   6  -8   53.83    2.79
  -1   6  -8   60.04    2.81
  -2   6  -8    4.26    1.04
  -2   6  -8    5.07    1.06
  -3   6  -8   19.54    2.01
  -4   6  -8    3.71    1.16
   4  -6   8    1.54    0.90
  -5   6  -8    9.62    1.64
   5  -6   8   11.60    1.82
   8   5  -8   -0.41    0.54
   7   5  -8   33.07    2.10
  -7  -5   8   31.45    2.02
   6   5  -8   14.33    1.56
   6   5  -8   14.11    1.58
  -6  -5   8   15.29    1.56
   5   5  -8   55.90    2.65
   5   5  -8   54.69    2.60
   5   5  -8   57.16    2.70
  -5  -5   8   49.60    2.51
   4   5  -8   83.25    3.29
   4   5  -8   82.36    3.25
   4   5  -8   79.49    3.15
   4   5  -8   76.13    2.94
   4   5  -8   78.78    3.25
   3   5  -8    6.23    0.99
   3   5  -8    6.55    0.93
   3   5  -8    6.97    1.07
   3   5  -8    6.73    0.99
   3   5  -8    7.93    1.11
   3   5  -8    6.86    1.11
   2   5  -8    3.11    0.80
   2   5  -8    3.31    0.80
   2   5  -8    2.41    0.67
   2   5  -8    1.20    0.66
   2   5  -8    2.50    0.79
   2   5  -8    3.14    0.68
   1   5  -8    5.38    0.84
   1   5  -8    7.26    1.07
   1   5  -8    7.98    1.10
   1   5  -8    5.93    0.97
   1   5  -8    5.64    0.78
   0   5  -8   29.10    1.87
   0   5  -8   29.17    1.90
   0   5  -8   30.69    1.45
   0   5  -8   30.19    1.91
  -1   5  -8   14.36    1.68
  -1   5  -8   16.43    1.56
  -1   5  -8   18.40    1.79
  -1   5  -8   17.03    0.95
  -2   5  -8   20.34    1.90
  -2   5  -8   18.04    1.71
  -3   5  -8   74.42    3.22
  -3   5  -8   77.61    3.44
  -4   5  -8   22.76    2.16
  -4   5  -8   22.27    1.97
  -5   5  -8    6.62    1.35
   5  -5   8    6.50    1.32
  -6   5  -8   22.22    2.33
   6  -5   8   19.84    2.21
   8   4  -8    1.40    0.77
   8   4  -8    1.76    0.95
  -8  -4   8    1.37    0.87
   7   4  -8   10.27    1.35
   7   4  -8   10.11    1.44
  -7  -4   8    9.57    1.28
   6   4  -8    3.36    0.83
   6   4  -8    3.44    0.93
  -6  -4   8    3.43    0.81
   5   4  -8   11.26    1.34
   5   4  -8   12.66    1.36
   5   4  -8   13.03    1.48
  -5  -4   8   15.38    1.49
   4   4  -8   23.32    1.60
   4   4  -8   25.06    1.52
   4   4  -8   26.13    1.73
   4   4  -8   22.74    1.57
   4   4  -8   21.87    1.57
   3   4  -8   13.69    1.42
   3   4  -8   18.05    1.48
   3   4  -8   14.17    1.39
   3   4  -8   16.00    1.47
   3   4  -8   15.21    1.49
   3   4  -8   15.08    1.42
   2   4  -8  134.80    4.01
   2   4  -8  131.91    4.40
   2   4  -8  137.35    4.41
   2   4  -8  137.42    4.28
   2   4  -8  146.60    4.47
   2   4  -8  139.71    4.46
   1   4  -8    5.99    0.93
   1   4  -8    3.68    0.63
   1   4  -8    5.53    0.87
   1   4  -8    4.91    0.89
   1   4  -8    4.43    0.86
   1   4  -8    3.76    0.80
   0   4  -8    7.75    1.14
   0   4  -8    6.61    0.98
   0   4  -8    7.61    1.07
   0   4  -8    6.37    0.73
  -1   4  -8   29.50    1.81
  -1   4  -8   31.25    1.26
  -1   4  -8   33.05    1.90
  -1   4  -8   32.24    1.92
  -2   4  -8   64.81    2.81
  -2   4  -8   68.56    3.01
  -2   4  -8   67.95    2.88
  -3   4  -8    5.46    0.97
  -3   4  -8    4.51    1.06
  -4   4  -8    0.77    0.66
  -4   4  -8    1.15    0.75
  -5   4  -8  118.61    4.22
  -5   4  -8  110.58    4.42
   5  -4   8  108.57    4.40
  -6   4  -8   62.62    3.29
   6  -4   8   62.52    3.30
  -7   4  -8    6.30    1.47
   7  -4   8    7.59    1.44
   9   3  -8   16.52    2.04
   9   3  -8   20.47    2.04
  -9  -3   8   16.76    2.11
   8   3  -8   97.04    4.28
   8   3  -8   91.59    3.76
  -8  -3   8   93.44    4.23
   7   3  -8   52.55    2.85
   7   3  -8   46.57    2.49
   7   3  -8   48.81    2.66
  -7  -3   8   51.96    2.86
   6   3  -8    7.09    1.08
   6   3  -8    8.03    1.16
   5   3  -8    1.08    0.64
   5   3  -8    0.73    0.54
   5   3  -8    1.53    0.62
   5   3  -8    1.52    0.65
  -5  -3   8    1.89    0.61
   4   3  -8   39.07    1.87
   4   3  -8   37.72    2.02
   4   3  -8   40.59    2.07
   4   3  -8   37.52    1.99
   4   3  -8   41.40    2.09
   3   3  -8    0.86    0.51
   3   3  -8    1.27    0.57
   3   3  -8    2.10    0.67
   3   3  -8    1.66    0.63
   3   3  -8    0.83    0.44
   2   3  -8   66.15    2.59
   2   3  -8   67.64    2.72
   2   3  -8   59.66    2.55
   2   3  -8   64.91    2.60
   2   3  -8   63.69    2.65
   2   3  -8   64.78    2.36
   1   3  -8    0.40    0.36
   1   3  -8    0.98    0.48
   1   3  -8    0.11    0.43
   1   3  -8    0.31    0.43
   1   3  -8    0.58    0.46
   1   3  -8    0.80    0.51
  -1  -3   8    0.38    0.42
   0   3  -8  172.70    5.11
   0   3  -8  159.12    4.85
   0   3  -8  162.04    4.94
   0   3  -8  164.46    4.36
   0   3  -8  164.39    4.91
   0  -3   8  170.21    5.16
  -1   3  -8   42.28    1.47
  -1   3  -8   40.22    2.02
  -1   3  -8   39.23    1.97
  -1   3  -8   42.28    2.17
   1  -3   8   41.60    2.15
  -2   3  -8   16.07    1.51
  -2   3  -8   16.60    1.44
  -2   3  -8   14.49    1.33
   2  -3   8   15.47    1.50
  -3   3  -8   28.70    1.76
  -3   3  -8   26.23    1.84
  -3   3  -8   28.64    1.72
   3  -3   8   30.36    1.81
  -4   3  -8   75.42    3.51
  -4   3  -8   77.61    3.30
  -4   3  -8   83.02    3.18
  -5   3  -8    7.89    1.17
  -5   3  -8    7.13    1.18
  -6   3  -8    4.60    1.02
  -6   3  -8    2.86    0.94
   6  -3   8    2.77    0.94
  -7   3  -8    9.69    1.57
   7  -3   8   11.27    1.64
   9   2  -8    9.22    1.72
  -9  -2   8    9.94    1.73
   8   2  -8   17.16    2.08
  -8  -2   8   13.84    1.86
   7   2  -8    5.77    1.19
   7   2  -8    5.95    1.20
  -7  -2   8    4.19    1.11
   6   2  -8    8.11    1.17
   6   2  -8    8.36    1.23
   6   2  -8    6.49    1.05
   6   2  -8    7.97    1.16
  -6  -2   8    8.35    1.26
   5   2  -8   19.92    1.45
   5   2  -8   19.20    1.61
   5   2  -8   18.94    1.62
   5   2  -8   16.32    1.53
   4   2  -8   49.64    2.26
   4   2  -8   51.86    2.31
   4   2  -8   46.42    2.25
   4   2  -8   44.51    2.05
   4   2  -8   50.94    2.26
   3   2  -8    0.02    0.39
   3   2  -8    0.14    0.46
   3   2  -8   -0.35    0.34
   3   2  -8    0.29    0.37
   3   2  -8    0.84    0.49
   2   2  -8   36.59    1.82
   2   2  -8   39.05    1.89
   2   2  -8   35.52    1.83
   2   2  -8   37.57    1.94
   2   2  -8   36.25    1.66
  -2  -2   8   37.14    2.01
   1   2  -8    5.40    0.87
   1   2  -8    4.57    0.69
   1   2  -8    4.99    0.81
   1   2  -8    4.32    0.73
   1   2  -8    5.69    0.83
   1   2  -8    3.95    0.72
  -1  -2   8    4.24    0.82
   0   2  -8   23.51    1.13
   0   2  -8   20.95    1.37
   0   2  -8   22.01    1.40
   0   2  -8   21.84    1.34
   0   2  -8   21.88    1.45
   0  -2   8   19.93    1.44
  -1   2  -8    7.54    0.65
  -1   2  -8    6.21    0.93
  -1   2  -8    5.24    0.87
  -1   2  -8    6.45    0.89
   1  -2   8    6.12    0.95
  -2   2  -8  206.94    5.72
  -2   2  -8  209.81    6.01
  -2   2  -8  209.01    5.85
   2  -2   8  210.50    6.00
  -3   2  -8   23.97    1.49
  -3   2  -8   25.50    1.58
  -3   2  -8   26.83    1.69
   3  -2   8   24.27    1.56
  -4   2  -8    4.69    0.86
  -4   2  -8    6.15    1.00
  -4   2  -8    4.49    0.89
   4  -2   8    5.30    0.99
  -5   2  -8   34.89    2.00
  -5   2  -8   34.59    1.96
  -5   2  -8   35.99    2.14
   5  -2   8   36.18    2.06
  -6   2  -8  103.55    3.79
  -6   2  -8  107.54    4.14
  -6   2  -8  108.70    3.95
  -7   2  -8    4.27    1.05
  -7   2  -8    4.27    1.11
   7  -2   8    4.87    1.12
  -8   2  -8   -0.58    0.72
   8  -2   8    0.41    0.76
   9   1  -8    0.06    0.88
  -9  -1   8    0.43    0.91
   8   1  -8    0.86    0.88
   8   1  -8    0.89    0.75
  -8  -1   8    0.30    0.72
   7   1  -8    0.23    0.67
   7   1  -8    1.13    0.76
   7   1  -8    0.29    0.68
  -7  -1   8    1.10    0.78
   6   1  -8    5.17    0.98
   6   1  -8    7.77    1.22
   6   1  -8    6.43    1.06
  -6  -1   8    5.74    1.05
   5   1  -8   16.51    1.52
   5   1  -8   17.10    1.50
   5   1  -8   19.84    1.52
   5   1  -8   20.79    1.70
  -5  -1   8   16.04    1.58
   4   1  -8    1.52    0.56
   4   1  -8    1.27    0.54
   4   1  -8    1.41    0.56
   4   1  -8    1.97    0.64
   4   1  -8    1.19    0.53
   3   1  -8   47.66    2.13
   3   1  -8   45.39    1.98
   3   1  -8   44.52    2.03
   3   1  -8   46.21    2.19
   3   1  -8   50.89    2.22
  -3  -1   8   45.85    2.21
   2   1  -8  168.37    4.61
   2   1  -8  161.26    4.80
   2   1  -8  165.44    4.83
   2   1  -8  158.68    4.70
   2   1  -8  181.73    5.03
  -2  -1   8  163.56    4.99
   1   1  -8    1.05    0.47
   1   1  -8    0.64    0.40
   1   1  -8    0.82    0.37
   1   1  -8    1.35    0.52
   1   1  -8    0.84    0.43
   1   1  -8    0.87    0.43
  -1  -1   8    0.71    0.45
   0   1  -8  126.41    3.76
   0   1  -8  124.33    3.41
   0   1  -8  120.85    3.73
   0   1  -8  121.89    3.96
   0   1  -8  122.12    3.83
   0  -1   8  124.13    4.00
  -1   1  -8   27.86    1.62
  -1   1  -8   28.59    1.49
  -1   1  -8   29.31    1.56
  -1   1  -8   28.70    1.15
  -1   1  -8   28.22    1.51
   1  -1   8   29.40    1.65
  -2   1  -8   26.81    1.48
  -2   1  -8   29.96    1.58
  -2   1  -8   28.58    1.67
   2  -1   8   30.22    1.71
  -3   1  -8    3.11    0.70
  -3   1  -8    3.06    0.65
  -3   1  -8    3.01    0.71
  -3   1  -8    3.91    0.82
   3  -1   8    4.12    0.79
  -4   1  -8    5.31    0.92
  -4   1  -8    4.67    0.81
  -4   1  -8    4.62    0.79
  -4   1  -8    7.53    1.05
   4  -1   8    6.89    0.98
  -5   1  -8   38.97    2.08
  -5   1  -8   38.51    1.99
  -5   1  -8   41.21    2.19
  -5   1  -8   39.76    1.94
  -6   1  -8   66.34    2.74
  -6   1  -8   71.34    3.00
  -6   1  -8   67.43    3.02
   6  -1   8   71.49    2.93
  -7   1  -8    2.96    0.92
  -7   1  -8    5.66    1.12
  -7   1  -8    4.38    0.96
   7  -1   8    6.49    1.20
  -8   1  -8   56.79    2.98
   8  -1   8   61.45    3.17
   9   0  -8   19.94    2.48
  -9   0   8   15.32    2.20
   8   0  -8    9.22    1.62
   8   0  -8    9.51    1.38
   8   0  -8    9.67    1.40
  -8   0   8   10.69    1.74
   7   0  -8   33.97    2.14
   7   0  -8   30.49    2.00
   7   0  -8   35.89    2.46
  -7   0   8   36.66    2.48
   6   0  -8    4.08    0.90
   6   0  -8    6.13    1.15
   6   0  -8    5.26    0.97
  -6   0   8    5.57    1.14
   5   0  -8    2.08    0.65
   5   0  -8    1.26    0.58
   5   0  -8    1.85    0.66
   5   0  -8    2.51    0.73
  -5   0   8    2.04    0.66
   4   0  -8  101.58    3.60
   4   0  -8  115.81    3.83
   4   0  -8  105.94    3.61
   4   0  -8  101.19    3.67
  -4   0   8  113.18    3.72
  -4   0   8  110.70    3.77
   3   0  -8   13.81    1.24
   3   0  -8   10.82    1.17
   3   0  -8   13.85    1.20
   3   0  -8   13.40    1.23
   3   0  -8   13.01    1.26
  -3   0   8   12.92    1.29
   2   0  -8    3.93    0.71
   2   0  -8    3.16    0.64
   2   0  -8    3.80    0.63
   2   0  -8    3.11    0.62
   2   0  -8    3.11    0.67
  -2   0   8    2.48    0.65
   1   0  -8    1.81    0.56
   1   0  -8    2.11    0.49
   1   0  -8    1.96    0.53
   1   0  -8    2.10    0.56
  -1   0   8    1.63    0.54
   0   0  -8  125.14    3.74
   0   0  -8  125.90    4.04
   0   0  -8  131.99    3.53
   0   0  -8  137.09    3.95
   0   0  -8  126.82    3.77
   0   0   8  128.31    4.07
  -1   0  -8   11.32    1.15
  -1   0  -8   13.38    1.14
  -1   0  -8   12.68    1.14
  -1   0  -8   11.53    0.99
  -1   0  -8   12.15    1.06
  -1   0  -8   13.20    0.75
   1   0   8   11.84    1.19
  -2   0  -8    4.78    0.79
  -2   0  -8    4.91    0.73
  -2   0  -8    6.24    0.87
  -2   0  -8    2.91    0.27
  -2   0  -8    4.70    0.31
  -2   0  -8    6.41    0.77
   2   0   8    5.36    0.82
  -3   0  -8  280.96    7.52
  -3   0  -8  296.03    7.51
  -3   0  -8  285.07    7.15
  -3   0  -8  288.25    7.32
   3   0   8  289.19    7.63
  -4   0  -8   24.92    1.59
  -4   0  -8   24.47    1.39
  -4   0  -8   24.47    1.56
   4   0   8   25.66    1.62
  -5   0  -8   17.90    1.32
  -5   0  -8   17.48    1.24
  -5   0  -8   20.14    1.68
  -5   0  -8   16.99    1.55
  -6   0  -8    1.45    0.71
  -6   0  -8    0.83    0.65
  -6   0  -8   -0.05    0.49
   6   0   8    1.30    0.56
  -7   0  -8   27.61    1.89
  -7   0  -8   23.64    2.03
   7   0   8   27.95    2.26
  -8   0  -8    4.79    1.02
  -8   0  -8    7.16    1.28
   8   0   8    6.52    1.25
   8  -1  -8    0.69    0.67
   8  -1  -8   -0.27    0.69
   8  -1  -8   -0.64    0.67
  -8   1   8    0.22    0.74
   7  -1  -8   18.76    1.86
   7  -1  -8   20.77    2.23
   7  -1  -8   18.90    1.79
  -7   1   8   21.44    2.28
   6  -1  -8    3.36    0.82
   6  -1  -8    2.15    0.75
  -6   1   8    3.28    0.92
   5  -1  -8   19.33    1.63
   5  -1  -8   16.44    1.50
   5  -1  -8   14.37    1.46
  -5   1   8   18.97    1.84
  -5   1   8   15.04    1.38
   4  -1  -8   22.27    1.56
   4  -1  -8   25.34    1.57
   4  -1  -8   24.70    1.55
  -4   1   8   22.88    1.48
  -4   1   8   23.72    1.62
   3  -1  -8    4.08    0.78
   3  -1  -8    4.22    0.73
   3  -1  -8    3.30    0.70
   3  -1  -8    5.11    0.82
  -3   1   8    3.09    0.66
  -3   1   8    3.19    0.68
   2  -1  -8   48.70    1.99
   2  -1  -8   43.58    2.08
   2  -1  -8   47.79    2.12
   2  -1  -8   46.87    2.03
   2  -1  -8   50.37    2.00
  -2   1   8   52.02    2.21
   1  -1  -8   56.63    2.37
   1  -1  -8   57.03    2.07
   1  -1  -8   59.60    2.27
   1  -1  -8   57.00    2.16
  -1   1   8   57.84    2.34
   0  -1  -8   14.34    1.00
   0  -1  -8   14.93    0.93
   0  -1  -8   14.26    1.00
   0  -1  -8   15.12    1.33
   0  -1  -8   14.72    1.06
   0   1   8   13.53    1.23
  -1  -1  -8    1.08    0.48
  -1  -1  -8    1.80    0.55
  -1  -1  -8    1.64    0.43
  -1  -1  -8    1.68    0.36
  -1  -1  -8    0.79    0.39
  -1  -1  -8    0.95    0.40
   1   1   8    1.78    0.51
  -2  -1  -8   71.22    1.89
  -2  -1  -8   75.20    2.76
  -2  -1  -8   72.08    2.64
  -2  -1  -8   73.39    2.39
  -2  -1  -8   70.83    2.50
  -2  -1  -8   73.76    2.46
   2   1   8   76.83    2.83
  -3  -1  -8  211.89    5.85
  -3  -1  -8  215.02    5.46
  -3  -1  -8  217.19    5.66
  -3  -1  -8  217.54    5.94
   3   1   8  213.99    6.00
  -4  -1  -8    0.01    0.39
  -4  -1  -8   -0.07    0.36
  -4  -1  -8    0.32    0.42
  -4  -1  -8    0.42    0.36
   4   1   8   -0.05    0.32
  -5  -1  -8  147.72    4.32
  -5  -1  -8  140.40    4.49
  -5  -1  -8  153.45    4.23
  -5  -1  -8  144.99    4.55
  -6  -1  -8   76.70    3.00
  -6  -1  -8   73.73    2.97
   6   1   8   70.70    2.71
  -7  -1  -8   -0.15    0.52
  -7  -1  -8    0.25    0.53
  -8  -1  -8    1.02    0.73
  -8  -1  -8    1.09    0.73
   8   1   8    0.75    0.72
  -9  -1  -8    6.94    1.25
   8  -2  -8    2.79    1.05
  -8   2   8    4.66    1.30
   7  -2  -8   28.45    2.08
   7  -2  -8   29.75    1.98
  -7   2   8   30.10    2.41
   6  -2  -8    5.58    1.06
   6  -2  -8    6.70    1.06
  -6   2   8    7.32    1.40
   5  -2  -8    4.43    0.84
   5  -2  -8    4.12    0.90
   5  -2  -8    2.87    0.74
  -5   2   8    2.64    0.91
   4  -2  -8    0.87    0.51
   4  -2  -8    0.79    0.49
   4  -2  -8    1.49    0.60
  -4   2   8    0.82    0.47
  -4   2   8    0.70    0.55
   3  -2  -8  201.20    5.47
   3  -2  -8  197.94    5.62
   3  -2  -8  190.81    5.64
   3  -2  -8  202.25    5.52
  -3   2   8  189.55    5.78
  -3   2   8  205.30    5.58
   2  -2  -8   82.94    2.87
   2  -2  -8   82.06    2.78
   2  -2  -8   80.91    3.00
  -2   2   8   82.74    2.93
  -2   2   8   80.43    2.95
   1  -2  -8    3.08    0.57
   1  -2  -8    3.30    0.68
   1  -2  -8    2.94    0.60
   1  -2  -8    3.19    0.60
  -1   2   8    3.51    0.69
   0  -2  -8   74.11    2.48
   0  -2  -8   74.37    2.54
   0  -2  -8   78.09    2.47
   0  -2  -8   74.30    2.57
   0  -2  -8   74.66    2.80
   0   2   8   82.44    2.87
  -1  -2  -8  117.58    3.45
  -1  -2  -8  112.88    3.49
  -1  -2  -8  109.55    3.64
  -1  -2  -8  115.89    3.16
  -1  -2  -8  115.07    3.25
  -1  -2  -8  118.56    3.33
   1   2   8  118.28    3.74
  -2  -2  -8    1.40    0.43
  -2  -2  -8    0.80    0.44
  -2  -2  -8    1.83    0.44
  -2  -2  -8    1.54    0.49
  -2  -2  -8    0.87    0.35
  -2  -2  -8    0.69    0.25
   2   2   8    1.61    0.54
  -3  -2  -8    2.52    0.48
  -3  -2  -8    3.28    0.67
  -3  -2  -8    3.47    0.57
  -3  -2  -8    4.10    0.76
   3   2   8    3.35    0.65
  -4  -2  -8   26.25    1.53
  -4  -2  -8   27.97    1.40
  -4  -2  -8   27.71    1.56
   4   2   8   28.30    1.63
  -5  -2  -8  130.03    4.02
  -5  -2  -8  125.27    4.04
  -5  -2  -8  122.18    3.73
  -6  -2  -8   26.97    1.73
  -6  -2  -8   29.88    1.73
  -7  -2  -8  106.68    3.72
  -7  -2  -8  102.90    3.75
  -8  -2  -8   87.34    3.49
  -9  -2  -8    1.43    0.86
   8  -3  -8   20.34    2.20
  -8   3   8   21.88    2.71
   7  -3  -8   47.40    2.76
  -7   3   8   48.35    3.27
   6  -3  -8    0.15    0.65
  -6   3   8   -0.31    0.69
   5  -3  -8   31.41    2.04
   5  -3  -8   33.69    1.92
  -5   3   8   33.57    2.38
   4  -3  -8    1.68    0.65
   4  -3  -8    0.24    0.49
   4  -3  -8    0.69    0.58
  -4   3   8    0.62    0.60
   3  -3  -8    6.74    1.00
   3  -3  -8    6.74    0.88
   3  -3  -8    6.26    0.96
  -3   3   8    6.87    1.06
  -3   3   8    7.34    0.94
   2  -3  -8   20.68    1.39
   2  -3  -8   18.93    1.22
   2  -3  -8   16.92    1.22
  -2   3   8   16.99    1.19
  -2   3   8   19.08    1.31
   1  -3  -8   27.37    1.45
   1  -3  -8   28.35    1.60
   1  -3  -8   28.21    1.46
   1  -3  -8   29.36    1.35
  -1   3   8   26.44    1.48
  -1   3   8   26.36    1.40
   0  -3  -8  153.40    4.52
   0  -3  -8  151.22    4.20
   0  -3  -8  143.62    4.09
   0  -3  -8  148.92    4.15
   0  -3  -8  152.01    4.08
   0   3   8  149.60    4.43
  -1  -3  -8    9.51    0.91
  -1  -3  -8   11.91    1.17
  -1  -3  -8    9.91    0.86
  -1  -3  -8   10.63    0.93
  -1  -3  -8   11.36    0.80
   1   3   8   11.23    1.11
  -2  -3  -8   11.83    1.08
  -2  -3  -8   12.72    0.77
  -2  -3  -8   10.84    0.68
  -2  -3  -8   12.27    0.82
  -2  -3  -8   11.04    1.11
  -2  -3  -8   10.66    0.92
   2   3   8   11.80    1.16
  -3  -3  -8  197.68    5.44
  -3  -3  -8  194.87    5.33
  -3  -3  -8  201.14    5.07
   3   3   8  189.71    5.49
  -4  -3  -8   15.85    1.15
  -4  -3  -8   16.61    1.21
   4   3   8   15.83    1.39
  -5  -3  -8   59.71    2.42
  -5  -3  -8   65.10    2.55
  -6  -3  -8    5.26    0.86
  -6  -3  -8    4.11    0.80
  -7  -3  -8   59.24    2.67
  -8  -3  -8   18.18    1.75
  -9  -3  -8   14.90    1.67
 -10  -3  -8   61.46    3.13
   7  -4  -8    7.22    1.45
  -7   4   8    5.25    1.46
  -7   4   8    6.17    0.54
   6  -4  -8   24.19    2.23
  -6   4   8   25.03    2.65
   5  -4  -8   67.79    3.15
  -5   4   8   66.63    3.55
   4  -4  -8    3.79    0.98
   4  -4  -8    3.19    0.77
  -4   4   8    1.86    0.82
   3  -4  -8   47.48    2.33
   3  -4  -8   46.75    2.12
  -3   4   8   46.13    2.40
   2  -4  -8  107.25    3.60
   2  -4  -8  100.82    3.42
   2  -4  -8   98.59    3.26
  -2   4   8   98.91    3.52
   1  -4  -8    2.09    0.59
   1  -4  -8    3.11    0.57
   1  -4  -8    2.32    0.60
  -1   4   8    1.51    0.49
  -1   4   8    3.10    0.64
   0  -4  -8   36.73    1.58
   0  -4  -8   33.95    1.82
   0  -4  -8   39.62    1.70
   0  -4  -8   37.22    1.63
   0   4   8   36.81    1.79
   0   4   8   38.39    1.68
  -1  -4  -8   67.45    2.31
  -1  -4  -8   69.19    2.21
  -1  -4  -8   70.46    2.43
  -1  -4  -8   67.92    2.62
  -1  -4  -8   71.51    2.34
   1   4   8   72.81    2.67
  -2  -4  -8   92.42    2.65
  -2  -4  -8   91.62    2.79
  -2  -4  -8   94.50    3.01
  -2  -4  -8   95.61    3.21
   2   4   8   92.95    3.17
  -3  -4  -8   11.16    0.57
  -3  -4  -8   10.65    1.06
  -3  -4  -8   12.23    1.15
   3   4   8   10.54    1.13
  -4  -4  -8    6.88    0.89
  -4  -4  -8    5.03    0.79
  -5  -4  -8  115.56    3.60
  -5  -4  -8  110.87    3.72
  -6  -4  -8   23.84    1.58
  -7  -4  -8    0.25    0.54
  -8  -4  -8    3.81    0.91
  -9  -4  -8   32.27    2.12
 -10  -4  -8    9.75    1.46
   7  -5  -8    2.64    1.23
  -7   5   8    1.51    1.02
   6  -5  -8    3.14    1.18
  -6   5   8    2.53    1.11
  -6   5   8    1.35    0.47
   5  -5  -8   10.82    1.54
  -5   5   8    9.65    1.69
   4  -5  -8   -0.04    0.64
  -4   5   8    1.56    0.80
   3  -5  -8   55.19    2.70
   3  -5  -8   63.89    2.55
  -3   5   8   63.34    2.97
   2  -5  -8   72.48    2.98
   2  -5  -8   74.91    2.90
   2  -5  -8   79.56    2.79
  -2   5   8   73.30    3.04
   1  -5  -8    1.67    0.58
   1  -5  -8    1.93    0.50
   1  -5  -8    2.04    0.58
  -1   5   8    2.36    0.63
   0  -5  -8  155.55    4.26
   0  -5  -8  152.49    4.57
   0  -5  -8  147.72    4.36
   0  -5  -8  156.23    4.20
   0   5   8  156.43    4.54
   0   5   8  150.64    4.54
  -1  -5  -8    2.16    0.51
  -1  -5  -8    1.13    0.48
  -1  -5  -8    2.09    0.47
  -1  -5  -8    1.13    0.43
   1   5   8    1.45    0.48
   1   5   8    1.87    0.51
  -2  -5  -8   12.89    1.21
  -2  -5  -8   15.82    1.06
  -2  -5  -8   13.77    0.92
   2   5   8   14.38    1.26
   2   5   8   16.25    1.98
  -3  -5  -8    8.51    0.67
  -3  -5  -8    9.87    1.04
  -3  -5  -8    7.83    0.92
   3   5   8    7.23    0.93
  -4  -5  -8   12.18    1.13
  -4  -5  -8   12.70    1.23
  -5  -5  -8    9.44    1.08
  -6  -5  -8    2.78    0.80
  -7  -5  -8   78.61    3.18
  -8  -5  -8   30.88    2.00
 -10  -5  -8   10.33    1.57
   6  -6  -8    6.23    1.34
  -6   6   8    5.85    1.58
  -6   6   8    5.95    0.71
   5  -6  -8   12.75    1.77
  -5   6   8   15.13    2.12
   4  -6  -8   21.95    2.10
  -4   6   8   23.32    2.36
   3  -6  -8   15.24    1.65
   3  -6  -8   13.55    1.32
  -3   6   8   11.66    1.54
   2  -6  -8   10.58    1.30
   2  -6  -8   13.03    1.20
  -2   6   8   13.20    1.52
   1  -6  -8   10.81    1.23
   1  -6  -8   10.20    1.20
   1  -6  -8    8.66    0.94
  -1   6   8    7.76    1.13
   0  -6  -8  113.21    3.74
   0  -6  -8  110.63    3.56
   0   6   8  104.92    3.74
  -1  -6  -8   -0.08    0.36
  -1  -6  -8   -0.33    0.40
  -1  -6  -8    0.60    0.39
   1   6   8    0.21    0.36
   1   6   8    0.34    0.40
  -2  -6  -8  123.24    3.91
  -2  -6  -8  122.43    3.55
  -2  -6  -8  125.77    3.72
   2   6   8  121.12    3.90
   2   6   8  123.60    3.95
  -3  -6  -8  138.06    3.67
  -3  -6  -8  136.46    4.11
  -3  -6  -8  138.62    4.19
   3   6   8  138.66    4.30
  -4  -6  -8    6.92    0.47
  -4  -6  -8    6.65    0.90
  -5  -6  -8   35.83    1.91
  -6  -6  -8   26.77    1.74
  -7  -6  -8    4.46    0.97
  -8  -6  -8    3.29    0.93
  -9  -6  -8   23.19    2.07
   5  -7  -8   21.94    2.25
  -5   7   8   25.65    2.82
  -5   7   8   23.18    1.39
   4  -7  -8    1.57    0.91
  -4   7   8    0.18    0.67
   3  -7  -8   14.77    1.72
  -3   7   8   17.71    1.98
   2  -7  -8   69.31    3.16
  -2   7   8   73.34    3.36
   1  -7  -8    2.41    0.81
   1  -7  -8    1.65    0.65
  -1   7   8    0.84    0.59
   0  -7  -8    5.94    0.97
   0  -7  -8    8.75    1.09
   0   7   8    7.63    1.13
  -1  -7  -8    1.61    0.56
  -1  -7  -8    2.25    0.66
   1   7   8    2.16    0.71
  -2  -7  -8   41.07    1.81
  -2  -7  -8   40.87    2.00
  -2  -7  -8   37.76    1.78
   2   7   8   40.16    2.13
   2   7   8   42.43    2.02
  -3  -7  -8   31.36    1.45
  -3  -7  -8   32.98    1.67
   3   7   8   30.87    1.85
  -4  -7  -8   59.78    2.46
  -4  -7  -8   60.40    1.87
   4   7   8   58.84    2.67
  -5  -7  -8  138.99    4.42
  -6  -7  -8   20.66    1.77
  -7  -7  -8   53.64    2.64
  -8  -7  -8    9.73    1.39
  -9  -7  -8    6.45    1.25
   4  -8  -8    7.37    1.50
  -4   8   8    4.45    0.82
  -4   8   8    5.68    1.48
   3  -8  -8   16.97    1.91
  -3   8   8   15.23    1.98
   2  -8  -8    1.02    0.82
  -2   8   8    1.16    0.81
   1  -8  -8    3.59    0.92
   1  -8  -8    5.61    1.09
  -1   8   8    2.43    0.90
   0  -8  -8  149.17    4.82
   0  -8  -8  156.59    4.83
   0   8   8  156.09    5.33
  -1  -8  -8    5.66    0.92
  -1  -8  -8    6.96    1.02
   1   8   8    5.82    1.10
  -2  -8  -8   41.23    1.97
   2   8   8   42.20    2.33
  -3  -8  -8    8.45    1.10
  -3  -8  -8    7.41    0.87
   3   8   8    8.68    1.28
  -4  -8  -8   42.14    2.06
  -4  -8  -8   38.38    1.59
   4   8   8   41.55    2.33
  -5  -8  -8    0.86    0.56
   5   8   8    0.59    0.61
  -6  -8  -8    2.59    0.80
  -7  -8  -8  113.33    4.12
  -8  -8  -8   50.42    2.68
  -9  -8  -8   12.77    1.62
   3  -9  -8   10.95    1.78
  -3   9   8    9.88    1.74
  -3   9   8    8.73    1.15
   2  -9  -8   29.89    2.52
  -2   9   8   28.07    1.73
  -2   9   8   30.31    2.79
   1  -9  -8    3.12    1.02
  -1   9   8    3.74    1.13
   0  -9  -8   26.74    1.87
   0   9   8   27.47    2.12
  -1  -9  -8   14.08    1.43
   1   9   8   13.23    1.68
  -2  -9  -8  129.68    4.11
   2   9   8  122.09    4.68
  -3  -9  -8    1.73    0.65
  -3  -9  -8    2.65    0.70
   3   9   8    3.18    0.96
  -4  -9  -8    2.37    0.73
  -4  -9  -8    2.50    0.62
   4   9   8    3.66    0.98
  -5  -9  -8   28.95    1.83
  -5  -9  -8   26.42    1.16
   5   9   8   23.64    1.91
  -6  -9  -8   16.93    1.67
   6   9   8   14.05    1.73
  -7  -9  -8    4.62    1.10
  -8  -9  -8    0.49    0.78
   2 -10  -8   14.69    1.97
  -2  10   8   12.17    1.87
  -1  10   8   16.43    1.56
  -1  10   8   19.57    2.33
   0 -10  -8   11.16    1.45
   0  10   8    9.56    1.22
   0  10   8   11.72    1.75
  -1 -10  -8    9.63    1.37
   1  10   8    9.06    1.51
  -2 -10  -8   10.26    1.32
   2  10   8    8.67    1.49
  -3 -10  -8    1.61    0.71
   3  10   8    2.03    0.86
  -4 -10  -8   32.11    1.88
  -4 -10  -8   31.44    1.70
   4  10   8   34.52    2.44
  -5 -10  -8   11.31    1.42
  -5 -10  -8    9.58    0.89
   5  10   8   10.65    1.64
  -6 -10  -8   17.68    1.76
   6  10   8   19.13    2.17
  -7 -10  -8   13.99    1.62
   0 -11  -8   25.06    3.17
   0  11   8   28.62    1.95
   0  11   8   29.46    2.85
  -1 -11  -8    6.55    1.21
   1  11   8    6.26    1.41
  -2 -11  -8   51.36    2.59
   2  11   8   53.06    3.21
  -3 -11  -8   15.98    1.56
   3  11   8   14.78    1.98
  -4 -11  -8    6.26    1.15
   4  11   8    5.30    1.34
  -5 -11  -8    1.27    0.79
   5  11   8    0.89    0.92
   4   8  -9   13.75    1.51
  -4  -8   9   15.78    1.99
   3   8  -9   17.13    1.70
  -3  -8   9   20.13    2.19
   2   8  -9   11.10    1.27
   1   8  -9    0.48    0.91
   6   7  -9    1.01    0.83
  -6  -7   9    0.50    0.88
   5   7  -9   -0.35    0.64
  -5  -7   9   -0.25    0.65
   4   7  -9    3.98    1.10
   4   7  -9    2.20    0.84
  -4  -7   9    3.40    1.02
   3   7  -9   36.43    2.04
   2   7  -9   50.96    2.34
   1   7  -9    9.84    1.11
   1   7  -9    7.92    1.38
   0   7  -9   89.57    3.91
   0   7  -9   93.52    3.04
  -1   7  -9   17.87    0.93
  -1   7  -9   17.13    1.98
  -2   7  -9   11.82    1.75
  -3   7  -9    1.57    0.94
   3  -7   9    1.53    1.08
   7   6  -9   16.45    1.88
  -7  -6   9   16.83    1.92
   6   6  -9    8.08    1.31
  -6  -6   9    5.68    1.17
   5   6  -9   40.68    2.38
   5   6  -9   39.92    2.39
  -5  -6   9   39.21    2.46
   4   6  -9    8.98    1.31
   4   6  -9    6.40    1.21
   4   6  -9    6.21    1.12
   4   6  -9    6.85    1.10
   3   6  -9    0.51    0.60
   3   6  -9    1.33    0.77
   3   6  -9    1.06    0.72
   3   6  -9    0.67    0.67
   2   6  -9    2.22    0.69
   2   6  -9    2.54    0.87
   2   6  -9    3.35    0.91
   1   6  -9   24.43    2.12
   1   6  -9   18.73    1.79
   1   6  -9   21.28    1.41
   0   6  -9   22.82    2.06
   0   6  -9   23.10    1.97
   0   6  -9   24.00    1.37
  -1   6  -9    1.09    0.86
  -1   6  -9    2.37    0.88
  -1   6  -9    2.51    0.47
  -2   6  -9   43.52    2.64
  -3   6  -9   90.76    4.06
  -4   6  -9    2.54    1.14
   4  -6   9    1.02    0.90
   7   5  -9   -0.20    0.64
  -7  -5   9   -0.07    0.71
   6   5  -9    0.48    0.64
  -6  -5   9    0.73    0.68
   5   5  -9    8.55    1.29
   5   5  -9    8.94    1.30
   5   5  -9    5.63    1.13
  -5  -5   9    5.86    1.15
   4   5  -9    4.09    0.89
   4   5  -9    3.25    0.84
   4   5  -9    2.39    0.79
   4   5  -9    2.38    0.88
   3   5  -9    7.57    1.17
   3   5  -9    5.13    1.06
   3   5  -9    7.55    1.12
   3   5  -9    4.58    0.98
   3   5  -9    6.34    0.96
   2   5  -9   29.33    1.97
   2   5  -9   27.40    1.77
   2   5  -9   31.23    1.96
   2   5  -9   26.34    1.83
   2   5  -9   27.69    1.62
   1   5  -9    0.83    0.64
   1   5  -9    1.99    0.76
   1   5  -9    0.80    0.50
   0   5  -9   11.36    1.42
   0   5  -9   12.92    1.58
   0   5  -9   12.68    1.12
  -1   5  -9   23.47    1.10
  -1   5  -9   24.55    1.90
  -1   5  -9   23.98    1.97
  -2   5  -9    6.78    1.25
  -2   5  -9    7.12    1.17
  -3   5  -9    4.52    1.04
  -3   5  -9    3.72    1.08
  -4   5  -9    6.04    1.28
  -5   5  -9   76.93    3.72
   5  -5   9   64.94    3.61
   8   4  -9   13.23    1.71
   7   4  -9    6.09    1.16
   6   4  -9    3.24    0.97
   6   4  -9    3.57    1.03
  -6  -4   9    4.38    1.01
   5   4  -9    3.53    0.89
   5   4  -9    3.01    0.83
  -5  -4   9    3.15    0.86
   4   4  -9   14.00    1.41
   4   4  -9   11.67    1.38
   4   4  -9   11.17    1.35
   4   4  -9   14.25    1.55
   4   4  -9   14.29    1.52
   3   4  -9   28.02    1.65
   3   4  -9   26.83    1.86
   3   4  -9   28.08    1.83
   3   4  -9   29.86    1.90
   3   4  -9   31.93    1.95
   3   4  -9   29.07    1.86
   2   4  -9   19.54    1.44
   2   4  -9   18.99    1.65
   2   4  -9   18.61    1.74
   2   4  -9   17.74    1.63
   2   4  -9   15.88    1.54
   2   4  -9   21.12    1.34
   1   4  -9   24.20    1.39
   1   4  -9   23.78    1.71
   1   4  -9   22.75    1.67
   1   4  -9   21.72    1.52
   1   4  -9   20.64    1.82
   1   4  -9   24.28    1.67
   0   4  -9  111.72    3.35
   0   4  -9  107.74    3.99
   0   4  -9  114.42    4.17
   0   4  -9  121.33    4.07
  -1   4  -9    2.59    0.46
  -1   4  -9    2.80    0.79
  -1   4  -9    1.63    0.81
  -2   4  -9   28.29    2.00
  -2   4  -9   29.08    1.88
  -3   4  -9   38.63    2.24
  -3   4  -9   34.81    2.31
  -4   4  -9   33.03    2.10
  -4   4  -9   33.58    2.27
  -5   4  -9   22.46    2.22
  -6   4  -9    1.33    0.92
   6  -4   9    0.53    0.92
   8   3  -9   20.09    2.01
   7   3  -9   72.28    3.23
   6   3  -9   10.94    1.39
   6   3  -9    9.13    1.31
  -6  -3   9   12.06    1.33
   5   3  -9   59.87    2.70
   5   3  -9   59.66    2.77
   5   3  -9   57.01    2.66
   4   3  -9    3.82    0.83
   4   3  -9    2.79    0.73
   4   3  -9    4.22    0.89
   4   3  -9    3.63    0.89
   4   3  -9    3.62    0.84
   3   3  -9   49.35    2.19
   3   3  -9   48.63    2.44
   3   3  -9   52.26    2.41
   3   3  -9   54.52    2.47
   3   3  -9   48.68    2.35
   3   3  -9   54.27    2.49
   2   3  -9    3.16    0.79
   2   3  -9    1.77    0.69
   2   3  -9    1.77    0.69
   2   3  -9    1.61    0.56
   2   3  -9    2.19    0.71
   2   3  -9    2.35    0.70
   1   3  -9    2.43    0.68
   1   3  -9    1.37    0.63
   1   3  -9    1.86    0.66
   1   3  -9    2.41    0.73
   1   3  -9    2.00    0.74
   1   3  -9    1.38    0.50
   0   3  -9   41.70    2.10
   0   3  -9   40.83    1.66
   0   3  -9   41.03    2.21
   0   3  -9   42.49    2.13
   0   3  -9   40.07    2.12
  -1   3  -9    4.43    0.55
  -1   3  -9    5.04    0.96
  -1   3  -9    3.76    0.81
  -1   3  -9    1.34    0.59
  -2   3  -9    3.24    0.85
  -2   3  -9    2.13    0.70
  -2   3  -9    2.23    0.75
  -3   3  -9   54.98    2.52
  -3   3  -9   50.35    2.65
  -4   3  -9    1.42    0.80
  -4   3  -9    1.07    0.66
  -5   3  -9   57.53    2.78
  -5   3  -9   51.07    2.83
  -6   3  -9   16.49    1.91
  -7   3  -9    0.56    0.87
   7  -3   9    1.26    0.91
   8   2  -9   11.90    1.53
   7   2  -9    1.71    0.81
   7   2  -9   -0.05    0.71
   6   2  -9   38.26    2.32
   6   2  -9   37.65    2.22
   6   2  -9   36.44    2.17
   5   2  -9   11.86    1.38
   5   2  -9   14.50    1.51
   5   2  -9   13.84    1.43
   4   2  -9    1.20    0.65
   4   2  -9    0.15    0.47
   4   2  -9    1.50    0.61
   4   2  -9    0.81    0.55
   4   2  -9    1.18    0.56
   3   2  -9   94.88    3.49
   3   2  -9  103.02    3.39
   3   2  -9  100.05    3.61
   3   2  -9  100.55    3.67
   3   2  -9  100.41    3.59
   2   2  -9   63.75    2.47
   2   2  -9   68.75    2.74
   2   2  -9   71.18    2.82
   2   2  -9   70.01    2.89
   2   2  -9   68.30    2.72
   2   2  -9   65.47    2.74
   1   2  -9   67.53    2.80
   1   2  -9   68.55    2.68
   1   2  -9   63.64    2.68
   1   2  -9   61.98    2.57
   1   2  -9   58.14    2.27
   1   2  -9   70.12    2.69
   0   2  -9   56.70    2.61
   0   2  -9   59.81    2.48
   0   2  -9   59.81    2.10
   0   2  -9   62.75    2.61
   0   2  -9   66.52    2.62
  -1   2  -9   99.77    3.55
  -1   2  -9   99.19    3.66
  -1   2  -9   93.94    3.37
  -1   2  -9  102.25    2.76
  -2   2  -9   46.51    2.35
  -2   2  -9   42.03    2.16
  -2   2  -9   45.92    2.13
  -3   2  -9   11.55    1.23
  -3   2  -9   13.23    1.49
  -3   2  -9   10.70    1.27
  -4   2  -9   49.83    2.35
  -4   2  -9   44.01    2.45
  -4   2  -9   46.18    2.40
  -5   2  -9   77.59    3.15
  -5   2  -9   80.38    3.52
  -6   2  -9    1.62    0.83
  -6   2  -9    0.60    0.74
  -7   2  -9   75.82    3.62
   7  -2   9   67.39    3.46
   7   1  -9    0.52    0.71
   7   1  -9   -0.50    0.61
   6   1  -9    1.02    0.74
   6   1  -9    2.30    0.81
   6   1  -9    0.61    0.65
   5   1  -9    3.94    0.94
   5   1  -9    3.32    0.89
   5   1  -9    2.34    0.80
   4   1  -9   17.83    1.53
   4   1  -9   17.71    1.59
   4   1  -9   16.04    1.44
   4   1  -9   14.95    1.51
   4   1  -9   16.78    1.52
   3   1  -9   38.58    1.84
   3   1  -9   38.91    1.96
   3   1  -9   37.07    2.03
   3   1  -9   38.98    1.99
   3   1  -9   34.32    1.93
   2   1  -9   37.69    1.90
   2   1  -9   42.24    2.08
   2   1  -9   36.16    1.74
   2   1  -9   36.57    1.92
   2   1  -9   41.21    2.08
   1   1  -9   34.99    1.76
   1   1  -9   31.77    1.77
   1   1  -9   34.63    1.74
   1   1  -9   33.86    1.57
   1   1  -9   34.65    1.91
   0   1  -9  259.02    6.84
   0   1  -9  262.31    6.41
   0   1  -9  263.20    7.00
   0   1  -9  256.19    7.14
   0   1  -9  264.60    6.92
   0  -1   9  266.22    7.74
  -1   1  -9   22.39    1.39
  -1   1  -9   22.03    1.47
  -1   1  -9   22.79    1.57
  -1   1  -9   20.59    1.00
  -1   1  -9   19.53    1.33
  -2   1  -9   50.21    2.45
  -2   1  -9   58.94    2.35
  -2   1  -9   57.02    2.43
  -3   1  -9    5.56    0.89
  -3   1  -9    4.83    0.91
  -3   1  -9    5.69    0.95
  -3   1  -9    4.15    0.81
  -4   1  -9   60.02    2.65
  -4   1  -9   56.36    2.44
  -4   1  -9   59.30    2.60
  -4   1  -9   56.55    2.68
  -5   1  -9    6.03    1.03
  -5   1  -9    5.97    0.98
  -5   1  -9    6.90    1.18
  -5   1  -9    4.48    0.89
  -6   1  -9    5.94    1.18
  -6   1  -9    4.54    0.95
  -6   1  -9    4.65    1.00
  -7   1  -9   45.45    2.50
  -7   1  -9   41.43    2.63
  -8   1  -9   19.55    2.07
   8  -1   9   16.06    1.90
   8   0  -9    9.55    1.66
   8   0  -9   11.08    1.54
  -8   0   9    9.45    1.62
   7   0  -9   -0.13    0.63
   7   0  -9    0.42    0.66
   7   0  -9    0.38    0.66
  -7   0   9   -0.38    0.62
   6   0  -9   39.68    2.35
   6   0  -9   35.78    2.21
   5   0  -9   32.95    1.98
   5   0  -9   35.50    2.13
   4   0  -9    1.82    0.69
   4   0  -9    2.54    0.72
   4   0  -9    1.66    0.67
   4   0  -9    1.43    0.63
   3   0  -9   35.93    1.77
   3   0  -9   37.91    2.03
   3   0  -9   35.46    1.86
   3   0  -9   37.76    1.96
   3   0  -9   39.66    2.07
   2   0  -9   53.77    2.42
   2   0  -9   56.86    2.34
   2   0  -9   55.69    2.51
   2   0  -9   56.85    2.22
   2   0  -9   58.09    2.41
  -2   0   9   55.64    2.52
   1   0  -9    1.35    0.56
   1   0  -9    1.23    0.53
   1   0  -9    1.33    0.43
   1   0  -9    2.21    0.63
  -1   0   9    1.05    0.50
   0   0  -9   25.03    1.50
   0   0  -9   27.50    1.29
   0   0  -9   27.24    1.65
   0   0  -9   26.86    1.49
   0   0  -9   24.63    1.43
   0   0   9   29.04    1.69
  -1   0  -9   93.93    3.11
  -1   0  -9   93.24    3.12
  -1   0  -9   96.31    3.27
  -1   0  -9   98.08    2.72
  -1   0  -9   96.67    3.45
   1   0   9   94.40    3.43
  -2   0  -9  242.90    6.75
  -2   0  -9  245.26    6.54
  -2   0  -9  246.15    5.40
  -2   0  -9  243.43    6.61
  -2   0  -9  244.45    6.35
   2   0   9  239.63    7.27
  -3   0  -9    1.54    0.59
  -3   0  -9    1.16    0.56
  -3   0  -9    1.55    0.57
  -3   0  -9    1.63    0.52
  -4   0  -9   54.43    2.26
  -4   0  -9   54.75    2.55
  -4   0  -9   60.22    2.47
  -4   0  -9   57.32    2.53
  -5   0  -9   82.34    3.27
  -5   0  -9   80.35    3.36
  -5   0  -9   86.86    3.19
  -5   0  -9   86.29    3.04
  -6   0  -9   13.03    1.40
  -6   0  -9   13.71    1.54
  -6   0  -9   12.66    1.51
   6   0   9   12.31    1.36
  -7   0  -9    2.18    0.90
  -7   0  -9    1.61    0.83
  -8   0  -9   28.21    2.08
  -8   0  -9   26.59    2.29
   8   0   9   24.70    2.22
   8  -1  -9   11.97    1.69
   8  -1  -9    9.84    1.77
  -8   1   9    9.66    1.75
   7  -1  -9    6.75    1.24
   7  -1  -9    3.92    1.15
   7  -1  -9    4.22    1.02
  -7   1   9    3.38    1.11
   6  -1  -9    6.48    1.26
   6  -1  -9    6.87    1.23
   6  -1  -9    8.93    1.28
  -6   1   9    7.15    1.29
   5  -1  -9    0.44    0.58
   5  -1  -9    0.90    0.67
   4  -1  -9    8.04    1.16
   4  -1  -9   10.41    1.21
   4  -1  -9   10.81    1.22
   3  -1  -9   25.35    1.58
   3  -1  -9   26.27    1.53
   3  -1  -9   26.78    1.71
   3  -1  -9   24.38    1.51
   3  -1  -9   23.32    1.58
  -3   1   9   25.00    1.65
   2  -1  -9   59.83    2.29
   2  -1  -9   56.36    2.30
   2  -1  -9   56.44    2.40
   2  -1  -9   54.96    2.53
  -2   1   9   56.93    2.52
   1  -1  -9   62.15    2.34
   1  -1  -9   61.47    2.41
   1  -1  -9   60.63    2.22
   1  -1  -9   53.62    2.49
  -1   1   9   62.99    2.58
   0  -1  -9   20.35    1.30
   0  -1  -9   20.34    1.43
   0  -1  -9   22.39    1.29
   0  -1  -9   21.71    1.27
   0  -1  -9   21.58    1.18
   0   1   9   20.88    1.42
  -1  -1  -9   34.26    1.35
  -1  -1  -9   32.48    1.65
  -1  -1  -9   34.79    1.73
  -1  -1  -9   34.49    1.84
  -1  -1  -9   30.71    1.55
  -1  -1  -9   31.47    1.50
   1   1   9   29.20    1.73
  -2  -1  -9   17.57    1.11
  -2  -1  -9   16.81    1.52
  -2  -1  -9   16.07    1.17
  -2  -1  -9   14.14    1.31
  -2  -1  -9   14.92    0.69
  -2  -1  -9   14.32    1.17
   2   1   9   14.20    1.37
  -3  -1  -9   17.75    1.38
  -3  -1  -9   23.20    1.39
  -3  -1  -9   21.80    1.49
  -3  -1  -9   18.82    1.18
  -4  -1  -9   49.81    2.35
  -4  -1  -9   52.42    2.21
  -4  -1  -9   50.19    2.34
  -4  -1  -9   49.64    2.04
  -5  -1  -9  114.15    3.94
  -5  -1  -9  111.37    3.91
  -5  -1  -9  110.03    3.67
  -6  -1  -9   10.51    1.32
  -6  -1  -9   11.42    1.36
  -7  -1  -9   82.44    3.45
  -7  -1  -9   88.00    3.54
  -8  -1  -9   23.49    2.10
  -8  -1  -9   23.87    2.08
   8   1   9   22.76    2.10
  -9  -1  -9    3.25    1.10
   8  -2  -9   52.37    3.07
   8  -2  -9   62.76    3.67
  -8   2   9   49.16    3.26
   7  -2  -9    5.05    1.11
   7  -2  -9    6.10    1.30
  -7   2   9    5.48    1.31
   6  -2  -9    7.19    1.32
   6  -2  -9    6.74    1.14
  -6   2   9    7.79    1.38
   5  -2  -9    5.74    1.01
   5  -2  -9    5.34    1.07
  -5   2   9    5.43    1.16
   4  -2  -9   35.89    2.08
   4  -2  -9   39.29    2.05
   4  -2  -9   38.19    2.11
   3  -2  -9    1.44    0.66
   3  -2  -9   -0.14    0.41
   3  -2  -9    0.38    0.47
   3  -2  -9    1.37    0.63
  -3   2   9    0.38    0.46
   2  -2  -9   20.80    1.33
   2  -2  -9   18.77    1.32
   2  -2  -9   20.93    1.31
   2  -2  -9   18.33    1.43
  -2   2   9   17.74    1.33
   1  -2  -9   17.00    1.33
   1  -2  -9   19.08    1.20
   1  -2  -9   18.28    1.27
   1  -2  -9   17.81    1.19
  -1   2   9   18.44    1.34
   0  -2  -9   25.30    1.37
   0  -2  -9   24.83    1.34
   0  -2  -9   29.78    1.51
   0  -2  -9   29.53    1.74
   0  -2  -9   28.19    1.50
   0   2   9   27.78    1.61
  -1  -2  -9    4.31    0.68
  -1  -2  -9    3.66    0.70
  -1  -2  -9    3.70    0.59
  -1  -2  -9    3.21    0.54
  -1  -2  -9    2.73    0.68
  -1  -2  -9    2.61    0.61
   1   2   9    6.33    0.94
  -2  -2  -9   75.55    2.16
  -2  -2  -9   83.88    3.06
  -2  -2  -9   79.06    2.60
  -2  -2  -9   77.85    2.87
  -2  -2  -9   83.09    2.77
  -2  -2  -9   74.81    2.51
   2   2   9   80.63    3.06
  -3  -2  -9   16.69    1.42
  -3  -2  -9   19.78    1.23
  -3  -2  -9   18.36    1.34
  -4  -2  -9   -0.12    0.40
  -4  -2  -9    0.59    0.43
  -4  -2  -9    0.21    0.46
  -5  -2  -9    7.23    1.05
  -5  -2  -9    6.16    0.97
  -6  -2  -9    9.67    1.24
  -6  -2  -9   10.49    1.26
  -7  -2  -9   24.42    2.00
  -7  -2  -9   25.82    1.82
  -8  -2  -9    3.65    0.97
  -9  -2  -9   47.97    2.75
   7  -3  -9    3.90    1.21
  -7   3   9    3.12    1.21
   6  -3  -9   18.81    1.92
   6  -3  -9   21.95    2.22
  -6   3   9   21.32    2.39
   5  -3  -9   52.48    2.61
   5  -3  -9   51.27    2.68
  -5   3   9   58.48    3.19
   4  -3  -9    9.23    1.27
   4  -3  -9    8.56    1.12
   4  -3  -9   10.20    1.24
  -4   3   9    9.03    1.38
   3  -3  -9   55.64    2.42
   3  -3  -9   49.86    2.45
   3  -3  -9   51.24    2.34
   2  -3  -9   44.13    2.06
   2  -3  -9   45.05    2.25
   2  -3  -9   42.14    2.00
  -2   3   9   44.26    2.08
   1  -3  -9    8.62    1.01
   1  -3  -9    7.56    0.88
   1  -3  -9    8.91    1.14
   1  -3  -9   10.48    0.98
   1  -3  -9   11.06    1.12
  -1   3   9   12.04    1.22
   0  -3  -9   21.70    1.23
   0  -3  -9   23.35    1.35
   0  -3  -9   23.51    1.31
   0  -3  -9   23.27    1.55
   0  -3  -9   23.85    1.35
   0   3   9   24.89    1.52
  -1  -3  -9   26.32    1.60
  -1  -3  -9   25.36    1.27
  -1  -3  -9   26.02    1.32
  -1  -3  -9   25.72    1.44
  -1  -3  -9   27.15    1.25
  -1  -3  -9   26.38    1.38
   1   3   9   26.79    1.64
  -2  -3  -9   80.15    2.99
  -2  -3  -9   76.26    2.65
  -2  -3  -9   76.99    2.28
  -2  -3  -9   80.15    2.85
  -2  -3  -9   79.87    2.53
   2   3   9   79.67    3.05
  -3  -3  -9    3.56    0.64
  -3  -3  -9    3.54    0.72
  -3  -3  -9    5.51    0.91
  -4  -3  -9  104.17    3.55
  -4  -3  -9  100.56    3.51
  -5  -3  -9  146.96    4.64
  -5  -3  -9  148.12    4.58
  -6  -3  -9   15.45    1.47
  -6  -3  -9   16.62    1.63
  -7  -3  -9   12.11    1.45
  -8  -3  -9   11.74    1.51
  -9  -3  -9   22.07    2.13
   7  -4  -9   11.38    1.72
  -7   4   9   13.30    2.19
  -7   4   9   11.72    0.91
   6  -4  -9    2.79    1.03
  -6   4   9    4.30    1.34
   5  -4  -9    2.51    0.91
  -5   4   9    2.93    1.04
   4  -4  -9   12.65    1.51
  -4   4   9    9.73    1.47
   3  -4  -9   92.09    3.60
   3  -4  -9   97.26    3.42
  -3   4   9   97.22    3.82
   2  -4  -9   -0.04    0.51
   2  -4  -9    0.94    0.54
   2  -4  -9    0.14    0.44
   1  -4  -9   86.94    3.01
   1  -4  -9   88.25    3.31
   1  -4  -9   87.83    3.07
  -1   4   9   87.81    3.15
   0  -4  -9   31.22    1.57
   0  -4  -9   27.15    1.50
   0  -4  -9   30.74    1.81
   0  -4  -9   32.27    1.58
   0  -4  -9   32.26    1.51
   0   4   9   33.77    1.79
  -1  -4  -9   41.13    1.84
  -1  -4  -9   40.04    1.71
  -1  -4  -9   42.25    1.82
  -1  -4  -9   46.74    2.18
   1   4   9   41.31    2.03
  -2  -4  -9    0.90    0.50
  -2  -4  -9    1.75    0.42
  -2  -4  -9    0.79    0.48
  -2  -4  -9    1.38    0.52
   2   4   9    1.46    0.58
  -3  -4  -9   22.44    0.85
  -3  -4  -9   22.80    1.43
  -3  -4  -9   25.52    1.56
  -4  -4  -9    2.49    0.65
  -4  -4  -9    2.41    0.69
  -5  -4  -9   22.46    1.48
  -5  -4  -9   18.44    1.57
  -6  -4  -9   24.46    1.74
  -7  -4  -9  109.26    4.00
  -8  -4  -9    1.16    0.83
  -9  -4  -9    2.69    0.97
   6  -5  -9   41.54    2.72
  -6   5   9   41.55    3.14
   5  -5  -9   10.00    1.57
  -5   5   9    8.46    1.62
   4  -5  -9    0.75    0.78
  -4   5   9   -0.16    0.65
   3  -5  -9    9.60    1.27
   3  -5  -9    9.38    1.17
  -3   5   9    6.76    1.16
   2  -5  -9    4.31    0.94
   2  -5  -9    2.61    0.75
   2  -5  -9    5.12    0.85
  -2   5   9    2.96    0.78
   1  -5  -9   85.56    3.14
   1  -5  -9   87.88    3.33
   1  -5  -9   92.26    3.08
   0  -5  -9   27.50    1.58
   0  -5  -9   30.74    1.56
   0  -5  -9   31.76    1.83
   0   5   9   33.24    1.76
  -1  -5  -9  147.29    4.25
  -1  -5  -9  138.30    4.52
  -1  -5  -9  144.02    4.13
   1   5   9  151.52    4.58
  -2  -5  -9  280.29    7.44
  -2  -5  -9  279.92    7.16
  -2  -5  -9  274.45    6.76
   2   5   9  280.13    7.94
  -3  -5  -9   64.89    2.54
  -3  -5  -9   62.56    1.90
  -3  -5  -9   59.55    2.51
  -4  -5  -9   45.16    2.09
  -4  -5  -9   42.98    2.12
  -5  -5  -9   81.93    3.13
  -6  -5  -9    4.83    0.96
  -7  -5  -9   12.41    1.48
  -8  -5  -9    2.34    0.96
  -9  -5  -9   63.87    3.14
   6  -6  -9    5.01    1.33
  -6   6   9    4.65    1.41
   5  -6  -9    8.93    1.50
  -5   6   9    7.36    1.62
   4  -6  -9   25.59    2.30
  -4   6   9   22.26    2.34
   3  -6  -9   35.08    2.27
  -3   6   9   31.50    2.20
   2  -6  -9   26.85    1.84
   2  -6  -9   25.32    1.75
   2  -6  -9   26.29    1.62
  -2   6   9   24.07    1.82
   1  -6  -9    1.62    0.68
   1  -6  -9    0.38    0.55
  -1   6   9    0.65    0.56
   0  -6  -9    2.16    0.64
   0  -6  -9    2.67    0.72
   0   6   9    2.27    0.71
  -1  -6  -9    7.81    1.12
  -1  -6  -9    8.06    1.00
  -1  -6  -9    9.29    0.99
   1   6   9    7.35    0.99
  -2  -6  -9   36.85    1.95
  -2  -6  -9   35.56    1.63
  -2  -6  -9   35.84    1.78
  -3  -6  -9    3.99    0.75
  -3  -6  -9    3.22    0.53
  -3  -6  -9    2.74    0.70
  -4  -6  -9   66.47    1.69
  -4  -6  -9   71.31    2.78
  -5  -6  -9   47.26    2.29
  -6  -6  -9    0.50    0.57
  -7  -6  -9   20.05    1.81
  -8  -6  -9   14.65    1.71
  -9  -6  -9    2.81    1.01
   5  -7  -9    4.72    1.32
  -5   7   9    6.21    1.55
   4  -7  -9   14.66    1.81
  -4   7   9   14.34    2.01
   3  -7  -9    2.60    0.98
  -3   7   9    3.99    1.15
   2  -7  -9    6.77    1.22
  -2   7   9    4.54    1.09
   1  -7  -9   94.97    3.54
   1  -7  -9   95.13    3.66
  -1   7   9   89.39    3.70
   0  -7  -9   11.72    1.26
   0  -7  -9   14.37    1.48
   0   7   9   15.43    1.62
  -1  -7  -9    6.43    0.95
  -1  -7  -9    7.39    1.10
   1   7   9    8.18    1.19
  -2  -7  -9    9.79    1.04
  -2  -7  -9    7.50    1.04
  -2  -7  -9    8.74    1.04
  -3  -7  -9   16.78    1.10
  -3  -7  -9   16.77    1.44
  -4  -7  -9   27.41    1.12
  -4  -7  -9   27.80    1.67
  -5  -7  -9   -0.13    0.52
  -6  -7  -9   67.99    2.99
  -7  -7  -9   70.32    3.11
  -8  -7  -9    0.99    0.84
  -9  -7  -9   43.19    2.61
   4  -8  -9    0.76    1.04
  -4   8   9    0.62    0.83
   3  -8  -9    4.23    1.29
  -3   8   9    6.19    1.42
   2  -8  -9    8.39    1.34
  -2   8   9    7.96    1.36
   1  -8  -9    9.47    1.32
   1  -8  -9    8.07    1.28
  -1   8   9    6.59    1.23
   0  -8  -9    3.75    0.95
   0  -8  -9    2.64    0.80
   0   8   9    2.51    0.85
  -1  -8  -9   20.99    1.79
  -1  -8  -9   15.85    1.47
   1   8   9   18.97    1.90
  -2  -8  -9   82.58    2.97
   2   8   9   79.10    3.43
  -3  -8  -9    0.19    0.44
  -3  -8  -9   -0.54    0.47
  -4  -8  -9   14.99    0.99
  -4  -8  -9   17.92    1.62
  -5  -8  -9   15.64    1.56
  -6  -8  -9    2.00    0.77
  -7  -8  -9    0.26    0.64
  -8  -8  -9    2.11    0.95
   3  -9  -9   20.05    2.22
  -3   9   9   18.65    2.36
   2  -9  -9   16.73    1.95
  -2   9   9   16.05    2.10
   1  -9  -9   15.34    1.79
  -1   9   9   14.51    1.87
   0  -9  -9   49.79    2.56
   0   9   9   45.84    2.76
  -1  -9  -9    1.89    0.71
   1   9   9    2.88    0.98
  -2  -9  -9   18.30    1.59
   2   9   9   20.78    2.02
  -3  -9  -9    6.22    0.94
   3   9   9    5.64    1.25
  -4  -9  -9   55.41    2.09
  -4  -9  -9   54.49    2.50
  -5  -9  -9   20.75    1.80
  -6  -9  -9    4.42    1.01
  -7  -9  -9   50.42    2.76
  -1  10   9   20.67    1.75
  -1  10   9   21.82    2.47
   0 -10  -9   48.19    2.66
   0  10   9   48.75    3.01
  -1 -10  -9   20.15    1.87
   1  10   9   26.19    2.55
  -2 -10  -9   26.83    1.85
   2  10   9   26.54    2.15
  -3 -10  -9   13.27    1.36
   3  10   9   13.39    1.77
  -4 -10  -9    0.12    0.52
  -5 -10  -9   19.41    1.82
  -5 -10  -9   19.33    1.10
  -6 -10  -9   36.75    2.31
   3  11   9    1.44    0.94
   4  11   9   23.53    2.37
   4   7 -10    4.45    0.99
   4   7 -10    5.11    1.23
  -4  -7  10    4.02    1.21
   3   7 -10   -0.33    0.58
   2   7 -10    0.60    0.62
   1   7 -10   20.33    1.60
   0   7 -10   11.79    1.08
   0   7 -10    8.27    1.55
  -1   7 -10    3.03    1.10
   6   6 -10   10.66    1.55
  -6  -6  10    8.72    1.42
   5   6 -10   22.79    2.17
  -5  -6  10   23.29    2.18
   4   6 -10    0.16    0.77
   4   6 -10    0.49    0.65
   4   6 -10    1.12    0.76
   3   6 -10   41.85    2.57
   3   6 -10   40.77    2.19
   2   6 -10    1.30    0.82
   2   6 -10    1.67    0.64
   1   6 -10    3.09    1.03
   1   6 -10    2.99    0.77
   0   6 -10    1.29    0.91
   0   6 -10    1.79    0.55
  -1   6 -10    8.70    1.51
  -1   6 -10    5.82    0.56
  -2   6 -10   48.40    2.95
  -3   6 -10    0.82    0.96
   7   5 -10   -0.19    0.66
  -7  -5  10    0.33    0.82
   6   5 -10   10.39    1.50
  -6  -5  10   10.00    1.46
   5   5 -10    2.42    0.93
  -5  -5  10    2.23    0.95
   4   5 -10    6.03    1.20
   4   5 -10    3.82    0.95
   4   5 -10    3.64    0.90
   3   5 -10   21.69    1.87
   3   5 -10   17.54    1.57
   3   5 -10   24.34    2.07
   3   5 -10   22.44    2.07
   3   5 -10   22.61    1.98
   2   5 -10    0.69    0.56
   2   5 -10    1.66    0.77
   2   5 -10    0.18    0.67
   2   5 -10    0.32    0.64
   2   5 -10    0.54    0.66
   1   5 -10   42.00    2.46
   1   5 -10   40.58    2.49
   1   5 -10   41.36    1.97
   0   5 -10   28.93    2.02
   0   5 -10   31.02    1.49
   0   5 -10   28.65    2.44
  -1   5 -10    1.21    0.38
  -1   5 -10    1.42    0.79
  -1   5 -10    0.85    0.86
  -2   5 -10   25.49    2.30
  -3   5 -10   14.36    1.84
  -4   5 -10    7.61    1.57
   7   4 -10   -0.29    0.74
   6   4 -10   30.74    2.09
  -6  -4  10   26.65    2.16
   5   4 -10   16.85    1.70
   5   4 -10   11.80    1.57
   4   4 -10    1.20    0.68
   4   4 -10    0.42    0.61
   4   4 -10    0.36    0.64
   4   4 -10    1.90    0.75
   4   4 -10    0.77    0.70
   3   4 -10    7.09    1.05
   3   4 -10    6.61    1.12
   3   4 -10    7.93    1.20
   3   4 -10    7.12    1.20
   3   4 -10    6.39    1.12
   2   4 -10   21.40    1.96
   2   4 -10   24.70    1.72
   2   4 -10   25.46    1.60
   2   4 -10   23.12    1.93
   2   4 -10   26.92    1.82
   1   4 -10   30.71    2.10
   1   4 -10   28.75    1.94
   1   4 -10   31.18    1.65
   1   4 -10   29.48    1.94
   0   4 -10    6.07    1.17
   0   4 -10    6.99    1.14
   0   4 -10    7.33    0.85
  -1   4 -10   20.04    1.79
  -1   4 -10   19.03    0.97
  -1   4 -10   19.90    1.93
  -2   4 -10   74.09    3.48
  -2   4 -10   71.72    3.20
  -3   4 -10   16.27    1.89
  -3   4 -10   13.77    1.60
  -4   4 -10   50.46    2.95
  -5   4 -10    6.16    1.43
   7   3 -10    0.97    0.83
   6   3 -10    7.83    1.24
   5   3 -10    2.47    0.88
   5   3 -10    6.10    1.14
   5   3 -10    4.56    0.97
   4   3 -10   15.88    1.66
   4   3 -10   13.37    1.50
   4   3 -10   12.51    1.48
   4   3 -10   13.96    1.44
   3   3 -10   30.57    1.92
   3   3 -10   29.76    1.98
   3   3 -10   31.97    1.83
   3   3 -10   32.39    1.99
   3   3 -10   35.32    2.14
   2   3 -10    6.02    1.01
   2   3 -10    5.84    1.03
   2   3 -10    7.10    1.08
   2   3 -10    6.10    0.90
   2   3 -10    4.78    0.98
   1   3 -10   58.83    2.67
   1   3 -10   51.85    2.64
   1   3 -10   60.26    2.68
   1   3 -10   56.95    2.25
   0   3 -10   44.75    2.32
   0   3 -10   41.16    2.38
   0   3 -10   44.04    2.29
   0   3 -10   45.53    1.81
  -1   3 -10    1.62    0.40
  -1   3 -10    1.38    0.67
  -1   3 -10    0.86    0.68
  -2   3 -10   -0.34    0.56
  -2   3 -10    0.68    0.70
  -3   3 -10   18.94    1.96
  -3   3 -10   20.66    1.80
  -4   3 -10   65.85    3.03
  -4   3 -10   60.12    3.12
  -5   3 -10   35.25    2.43
  -5   3 -10   28.91    2.62
  -6   3 -10    8.55    1.62
   8   2 -10   12.05    1.69
   7   2 -10   -0.24    0.62
   6   2 -10    2.07    0.85
   6   2 -10    0.69    0.71
   6   2 -10   -0.67    0.57
   5   2 -10    5.81    1.12
   5   2 -10    3.26    0.95
   5   2 -10    3.38    0.87
   4   2 -10   24.81    1.79
   4   2 -10   24.04    1.96
   4   2 -10   26.91    1.71
   4   2 -10   27.02    1.87
   3   2 -10   13.53    1.34
   3   2 -10   12.99    1.42
   3   2 -10   12.21    1.35
   3   2 -10   13.54    1.54
   2   2 -10    2.77    0.68
   2   2 -10    3.33    0.84
   2   2 -10    4.06    0.93
   2   2 -10    6.91    1.06
   2   2 -10    5.85    1.02
   2   2 -10    4.03    0.84
   1   2 -10  140.82    4.73
   1   2 -10  142.91    4.65
   1   2 -10  141.81    4.12
   1   2 -10  140.98    4.56
   1   2 -10  143.83    4.58
   0   2 -10   33.30    2.02
   0   2 -10   31.23    1.91
   0   2 -10   32.00    1.84
   0   2 -10   31.74    1.48
   0   2 -10   36.67    1.94
  -1   2 -10    6.43    1.01
  -1   2 -10    6.98    1.01
  -1   2 -10    5.04    0.99
  -1   2 -10    5.73    0.62
  -2   2 -10   33.93    1.90
  -2   2 -10   31.70    1.98
  -2   2 -10   29.41    2.00
  -3   2 -10    8.34    1.24
  -3   2 -10    7.16    1.06
  -4   2 -10    0.45    0.69
  -4   2 -10    0.11    0.65
  -5   2 -10    2.20    0.87
  -5   2 -10    2.22    0.94
  -6   2 -10   28.40    1.98
  -6   2 -10   26.48    2.39
  -7   2 -10   34.61    2.63
   7  -2  10   35.56    2.58
   8   1 -10   23.59    2.30
   7   1 -10   -0.08    0.63
   7   1 -10    1.15    0.81
   6   1 -10   34.84    2.27
   6   1 -10   33.63    2.22
   6   1 -10   34.27    2.17
   5   1 -10    3.39    0.92
   5   1 -10    4.68    1.01
   5   1 -10    3.47    0.89
   4   1 -10    5.80    1.05
   4   1 -10    5.33    0.91
   4   1 -10    5.63    1.04
   4   1 -10    6.45    1.07
   3   1 -10   14.41    1.32
   3   1 -10   15.41    1.58
   3   1 -10   17.72    1.57
   3   1 -10   14.19    1.48
   3   1 -10   16.99    1.58
   2   1 -10    5.78    1.01
   2   1 -10    9.27    1.17
   2   1 -10    6.62    1.03
   2   1 -10    6.28    1.01
   2   1 -10    8.08    0.98
   1   1 -10    7.51    1.00
   1   1 -10    9.75    1.01
   1   1 -10    6.03    1.01
   1   1 -10    9.01    1.23
   1   1 -10    9.02    1.16
   0   1 -10    5.29    0.91
   0   1 -10    4.28    0.64
   0   1 -10    4.51    0.79
   0   1 -10    4.96    0.85
   0   1 -10    4.79    0.92
  -1   1 -10   66.62    2.95
  -1   1 -10   64.20    2.74
  -1   1 -10   65.92    2.68
  -1   1 -10   66.15    2.68
  -1   1 -10   68.30    2.11
  -2   1 -10  107.69    3.59
  -2   1 -10  101.21    3.86
  -2   1 -10  102.22    3.70
  -3   1 -10   12.88    1.47
  -3   1 -10   14.91    1.39
  -3   1 -10   11.35    1.29
  -4   1 -10   84.79    3.55
  -4   1 -10   82.83    3.62
  -4   1 -10   90.08    3.45
  -4   1 -10   86.34    3.25
  -5   1 -10   89.15    3.76
  -5   1 -10   92.23    3.66
  -5   1 -10   90.57    3.45
  -6   1 -10   10.61    1.45
  -6   1 -10    8.14    1.39
  -7   1 -10   13.60    1.80
  -7   1 -10   12.74    1.63
   7   0 -10   -0.60    0.72
   6   0 -10    6.95    1.22
   6   0 -10    8.05    1.31
   5   0 -10   -0.12    0.55
   5   0 -10    0.41    0.69
   5   0 -10   -0.23    0.62
   4   0 -10   27.57    1.85
   4   0 -10   29.57    1.92
   4   0 -10   30.05    1.97
   3   0 -10   48.93    2.44
   3   0 -10   51.10    2.36
   3   0 -10   50.07    2.41
   3   0 -10   47.87    2.49
   3   0 -10   53.46    2.29
   2   0 -10    6.74    0.97
   2   0 -10    7.89    0.97
   2   0 -10    7.52    1.15
   2   0 -10    7.94    1.04
   1   0 -10   98.22    3.39
   1   0 -10   94.79    3.09
   1   0 -10   98.03    3.34
   1   0 -10   98.30    3.47
   1   0 -10   96.92    3.66
   0   0 -10   22.06    1.42
   0   0 -10   23.85    1.48
   0   0 -10   19.88    1.76
   0   0 -10   22.43    1.51
   0   0 -10   22.01    1.23
  -1   0 -10    2.87    0.49
  -1   0 -10    2.38    0.67
  -1   0 -10    2.21    0.66
  -1   0 -10    3.69    0.75
  -1   0 -10    3.46    0.82
  -2   0 -10   26.19    1.66
  -2   0 -10   25.74    1.55
  -2   0 -10   28.52    0.89
  -2   0 -10   28.19    1.85
  -2   0 -10   24.50    1.59
  -3   0 -10   74.93    3.20
  -3   0 -10   81.36    2.88
  -3   0 -10   74.95    2.98
  -3   0 -10   76.10    3.07
  -4   0 -10   46.71    2.16
  -4   0 -10   45.36    2.36
  -4   0 -10   46.06    2.26
  -4   0 -10   49.02    2.49
  -5   0 -10   12.00    1.32
  -5   0 -10   12.38    1.46
  -5   0 -10   11.75    1.43
  -6   0 -10    6.04    1.20
  -6   0 -10    5.15    1.18
  -7   0 -10   78.96    3.49
  -7   0 -10   76.01    3.57
  -8   0 -10   -0.21    0.89
  -8   0 -10    1.46    1.01
   8   0  10    1.74    0.99
   7  -1 -10    0.37    0.84
   6  -1 -10   29.11    2.11
   6  -1 -10   28.76    2.21
   5  -1 -10   10.92    1.49
   5  -1 -10    8.01    1.28
   4  -1 -10   21.94    1.59
   4  -1 -10   22.99    1.96
   4  -1 -10   19.36    1.86
   3  -1 -10   -0.09    0.55
   3  -1 -10    0.09    0.46
   3  -1 -10    0.65    0.61
   3  -1 -10    0.53    0.52
   3  -1 -10    0.17    0.54
   2  -1 -10    3.41    0.75
   2  -1 -10    5.70    0.88
   2  -1 -10    3.53    0.83
   2  -1 -10    4.04    0.85
   1  -1 -10  118.43    3.95
   1  -1 -10  124.15    3.73
   1  -1 -10  122.14    4.21
   1  -1 -10  119.99    3.86
   0  -1 -10   53.29    2.33
   0  -1 -10   53.63    2.25
   0  -1 -10   52.59    2.03
   0  -1 -10   53.34    2.52
   0  -1 -10   57.66    2.27
  -1  -1 -10  185.68    4.66
  -1  -1 -10  179.21    5.50
  -1  -1 -10  183.54    5.27
  -1  -1 -10  175.85    5.06
  -1  -1 -10  178.18    5.23
  -1  -1 -10  183.90    5.05
  -2  -1 -10   16.29    1.19
  -2  -1 -10   16.17    1.59
  -2  -1 -10   14.85    1.26
  -2  -1 -10   14.35    1.30
  -2  -1 -10   18.73    1.62
  -2  -1 -10   16.49    0.75
  -3  -1 -10    7.22    0.98
  -3  -1 -10    9.12    1.21
  -3  -1 -10    9.26    0.99
  -3  -1 -10    9.40    1.21
  -4  -1 -10   19.01    1.57
  -4  -1 -10   16.25    1.61
  -4  -1 -10   17.21    1.62
  -5  -1 -10   23.96    1.76
  -5  -1 -10   28.24    1.81
  -5  -1 -10   26.95    1.83
  -6  -1 -10   82.75    3.49
  -6  -1 -10   82.64    3.51
  -7  -1 -10   25.97    2.01
  -7  -1 -10   28.14    2.33
  -8  -1 -10   11.52    1.64
  -8  -1 -10   11.58    2.30
   7  -2 -10    4.22    1.20
   6  -2 -10   40.21    2.55
   6  -2 -10   39.49    2.44
   5  -2 -10    8.03    1.23
   5  -2 -10    4.83    1.03
   4  -2 -10   28.77    1.94
   4  -2 -10   26.30    1.93
   3  -2 -10   53.50    2.44
   3  -2 -10   56.74    2.75
   3  -2 -10   58.46    2.60
   3  -2 -10   61.63    2.53
   2  -2 -10    0.30    0.46
   2  -2 -10    1.12    0.54
   2  -2 -10    1.53    0.58
   2  -2 -10    2.00    0.77
   1  -2 -10    0.12    0.41
   1  -2 -10   -0.19    0.38
   1  -2 -10   -0.34    0.43
   1  -2 -10    0.24    0.41
   0  -2 -10    0.10    0.38
   0  -2 -10    0.62    0.49
   0  -2 -10    0.96    0.48
   0  -2 -10    1.22    0.58
   0  -2 -10    0.26    0.44
  -1  -2 -10  144.80    4.45
  -1  -2 -10  143.32    4.14
  -1  -2 -10  144.39    4.23
  -1  -2 -10  144.18    3.93
  -1  -2 -10  146.77    4.38
  -1  -2 -10  146.13    4.70
  -2  -2 -10    8.07    1.03
  -2  -2 -10    8.31    0.98
  -2  -2 -10    9.19    0.98
  -2  -2 -10    8.34    0.66
  -2  -2 -10    8.01    1.11
  -3  -2 -10   63.61    2.50
  -3  -2 -10   61.88    2.67
  -3  -2 -10   63.68    2.78
  -4  -2 -10  118.33    4.05
  -4  -2 -10  118.08    4.09
  -4  -2 -10  107.33    4.22
  -5  -2 -10    1.27    0.72
  -5  -2 -10    1.84    0.71
  -6  -2 -10    4.42    0.93
  -6  -2 -10    4.07    0.98
  -7  -2 -10    1.33    0.81
  -7  -2 -10    2.02    0.90
  -8  -2 -10   14.87    1.77
   7  -3 -10    0.56    0.96
   6  -3 -10   33.88    2.38
   6  -3 -10   34.99    2.31
   5  -3 -10   -0.52    0.54
   5  -3 -10   -0.09    0.66
   4  -3 -10   56.43    2.85
   3  -3 -10   48.86    2.36
   3  -3 -10   49.26    2.35
   3  -3 -10   44.18    2.50
   2  -3 -10    3.84    0.80
   2  -3 -10    2.35    0.67
   2  -3 -10    2.25    0.76
   2  -3 -10    4.02    0.80
   1  -3 -10  201.08    5.56
   1  -3 -10  205.16    5.55
   1  -3 -10  193.88    5.97
   1  -3 -10  200.28    5.71
   0  -3 -10   82.24    3.03
   0  -3 -10   92.64    3.48
   0  -3 -10   87.88    2.96
   0  -3 -10   86.33    3.03
   0  -3 -10   87.76    2.93
  -1  -3 -10    2.36    0.58
  -1  -3 -10    3.44    0.79
  -1  -3 -10    2.96    0.55
  -1  -3 -10    2.74    0.69
  -1  -3 -10    2.75    0.62
  -2  -3 -10   10.39    1.20
  -2  -3 -10    8.43    1.12
  -2  -3 -10   10.90    0.76
  -2  -3 -10    9.66    1.06
  -3  -3 -10   54.33    2.43
  -3  -3 -10   56.36    2.53
  -4  -3 -10   54.24    2.50
  -4  -3 -10   56.22    2.57
  -5  -3 -10    1.05    0.65
  -5  -3 -10    1.79    0.73
  -6  -3 -10   53.53    2.58
  -6  -3 -10   52.80    2.62
  -7  -3 -10   56.73    2.84
  -8  -3 -10    8.34    1.39
   6  -4 -10    7.40    1.39
   5  -4 -10    1.25    0.80
   4  -4 -10    1.53    0.79
   3  -4 -10   -0.02    0.65
   2  -4 -10   18.32    1.63
   2  -4 -10   11.71    1.25
   2  -4 -10   12.99    1.54
   1  -4 -10    0.86    0.50
   1  -4 -10    1.39    0.61
   1  -4 -10    0.94    0.53
   1  -4 -10    0.51    0.60
   0  -4 -10    0.65    0.58
   0  -4 -10    0.10    0.42
   0  -4 -10    0.20    0.42
   0  -4 -10    0.74    0.45
   0  -4 -10    0.66    0.45
  -1  -4 -10   39.72    1.74
  -1  -4 -10   39.63    1.84
  -1  -4 -10   37.51    2.11
  -1  -4 -10   37.83    1.91
  -2  -4 -10   37.75    1.52
  -2  -4 -10   37.18    1.92
  -2  -4 -10   34.62    2.00
  -3  -4 -10    6.97    1.02
  -3  -4 -10    7.13    0.49
  -3  -4 -10    6.78    1.05
  -4  -4 -10    5.20    0.95
  -4  -4 -10    9.05    1.19
  -5  -4 -10   51.62    2.45
  -5  -4 -10   53.55    2.58
  -6  -4 -10   33.63    2.07
  -7  -4 -10    1.90    0.84
  -8  -4 -10   41.47    2.49
  -9  -4 -10   23.53    2.27
   6  -5 -10   22.02    2.30
  -6   5  10   23.92    2.78
   5  -5 -10   -0.65    0.71
  -5   5  10    1.31    0.93
   4  -5 -10   69.99    3.32
   3  -5 -10   22.05    2.05
   2  -5 -10    0.54    0.56
   2  -5 -10   -0.47    0.50
   2  -5 -10    0.12    0.54
   1  -5 -10    2.72    0.74
   1  -5 -10    2.98    0.77
   1  -5 -10    2.58    0.82
   0  -5 -10   32.51    1.75
   0  -5 -10   31.08    1.96
  -1  -5 -10  107.56    3.48
  -1  -5 -10  118.16    3.70
  -1  -5 -10  114.92    4.02
  -2  -5 -10   22.50    1.23
  -2  -5 -10   21.51    1.59
  -2  -5 -10   22.06    1.51
  -3  -5 -10   14.67    1.38
  -3  -5 -10   11.41    1.27
  -3  -5 -10   14.03    0.81
  -4  -5 -10  118.46    4.05
  -4  -5 -10  125.46    4.16
  -5  -5 -10   20.20    1.77
  -6  -5 -10   53.52    2.67
  -7  -5 -10   16.80    1.77
  -8  -5 -10   14.87    1.78
   5  -6 -10    0.47    0.86
  -5   6  10    0.58    0.94
   4  -6 -10   23.26    2.18
  -4   6  10   24.09    2.51
   3  -6 -10   11.55    1.55
   2  -6 -10   25.70    2.08
   2  -6 -10   24.06    2.16
   2  -6 -10   17.19    1.78
   1  -6 -10   18.29    1.62
   1  -6 -10   22.87    1.76
   0  -6 -10    0.45    0.58
   0  -6 -10    0.44    0.58
  -1  -6 -10    1.99    0.71
  -1  -6 -10    0.45    0.51
  -2  -6 -10   10.06    1.25
  -2  -6 -10   11.88    1.25
  -2  -6 -10   14.91    1.19
  -3  -6 -10   48.42    2.33
  -3  -6 -10   44.96    1.69
  -3  -6 -10   44.15    2.15
  -4  -6 -10   10.50    1.28
  -5  -6 -10    1.86    0.74
  -6  -6 -10   56.91    2.75
  -7  -6 -10   35.67    2.24
  -8  -6 -10   19.62    1.96
   4  -7 -10    3.58    1.11
  -4   7  10    2.45    1.11
   3  -7 -10    9.30    1.53
  -3   7  10    7.70    1.48
   2  -7 -10   52.55    2.80
   1  -7 -10   17.89    1.78
   1  -7 -10   22.59    1.89
   0  -7 -10   12.01    1.36
   0  -7 -10   12.86    1.55
  -1  -7 -10  127.16    4.04
  -1  -7 -10  122.95    4.32
  -2  -7 -10   14.76    1.26
  -2  -7 -10   17.48    1.48
  -2  -7 -10   16.82    1.64
  -3  -7 -10   30.38    1.48
  -3  -7 -10   32.03    1.85
  -4  -7 -10   31.72    1.88
  -4  -7 -10   30.77    1.13
  -5  -7 -10   17.38    1.67
  -6  -7 -10   15.35    1.66
  -7  -7 -10    6.82    1.24
  -8  -7 -10   18.74    1.94
   3  -8 -10   19.95    2.16
  -3   8  10   20.60    2.32
   2  -8 -10    2.03    0.94
  -2   8  10    2.56    0.96
   1  -8 -10    6.23    1.17
   1  -8 -10    4.96    1.16
   0  -8 -10   14.06    1.61
   0  -8 -10   15.80    1.62
  -1  -8 -10   32.59    1.93
  -1  -8 -10   31.42    2.10
  -2  -8 -10    0.97    0.60
  -3  -8 -10   67.12    2.82
  -3  -8 -10   69.43    2.51
  -4  -8 -10   46.01    1.68
  -4  -8 -10   45.76    2.37
  -5  -8 -10    4.56    1.00
  -6  -8 -10   19.57    1.85
  -7  -8 -10   23.49    2.13
   2  -9 -10   25.45    2.41
  -2   9  10   30.35    2.84
   1  -9 -10   23.33    2.22
   1  -9 -10   24.39    2.16
  -1   9  10   25.29    2.53
   0  -9 -10    1.34    0.81
  -1  -9 -10   19.30    1.74
  -2  -9 -10    9.74    1.24
  -3  -9 -10    2.84    0.72
  -4  -9 -10   -0.04    0.42
  -4  -9 -10   -0.01    0.62
  -5  -9 -10   45.59    2.43
  -6  -9 -10   20.50    1.94
  -7  -9 -10    0.78    0.87
   0 -10 -10    3.47    1.02
   0  10  10    3.57    1.46
  -1 -10 -10   47.93    2.61
  -2 -10 -10   25.67    1.85
  -3 -10 -10   15.58    1.46
  -4 -10 -10    9.60    1.04
  -5 -10 -10   18.91    0.98
  -5 -10 -10   19.23    1.87
   4   6 -11    5.11    1.22
   4   6 -11    5.79    1.16
   3   6 -11    0.51    0.75
   3   6 -11    0.43    0.62
   2   6 -11    7.78    1.12
   1   6 -11   14.78    1.36
   1   6 -11   15.43    1.88
   0   6 -11    3.36    1.24
   0   6 -11    3.30    0.66
  -1   6 -11    1.98    1.07
   5   5 -11   16.15    1.82
  -5  -5  11   13.64    1.74
   4   5 -11    0.82    0.70
   4   5 -11    1.71    0.82
   3   5 -11   12.00    1.55
   3   5 -11    8.02    1.20
   3   5 -11    8.66    1.31
   3   5 -11    7.48    1.63
   2   5 -11   15.91    1.78
   2   5 -11   16.27    1.90
   2   5 -11   15.39    1.45
   1   5 -11    3.68    0.77
   1   5 -11    4.54    1.20
   0   5 -11    6.18    1.27
   0   5 -11    6.98    0.84
  -1   5 -11   49.02    1.52
  -1   5 -11   43.84    2.83
  -2   5 -11   15.03    1.92
  -3   5 -11   -0.49    0.80
   6   4 -11   15.48    1.78
  -6  -4  11   14.78    1.76
   5   4 -11    0.81    0.76
   4   4 -11   29.97    2.18
   4   4 -11   31.91    2.14
   4   4 -11   31.19    2.03
   4   4 -11   34.76    2.29
   3   4 -11   11.45    1.56
   3   4 -11   12.33    1.42
   3   4 -11    9.35    1.39
   3   4 -11   11.31    1.46
   2   4 -11    4.02    1.01
   2   4 -11    2.55    0.81
   2   4 -11    3.03    0.97
   2   4 -11    2.92    1.01
   2   4 -11    2.21    0.72
   1   4 -11    1.79    0.86
   1   4 -11    1.11    0.75
   1   4 -11    1.36    0.83
   1   4 -11    0.60    0.51
   0   4 -11    2.01    0.96
   0   4 -11    2.09    0.55
   0   4 -11    2.47    0.88
  -1   4 -11    7.96    1.26
  -1   4 -11    8.07    0.68
  -1   4 -11    8.13    1.37
  -2   4 -11   -0.33    0.66
  -3   4 -11   42.76    2.83
  -4   4 -11   48.66    3.03
   6   3 -11    3.19    1.00
   5   3 -11    0.83    0.77
   5   3 -11    1.91    0.92
   4   3 -11   16.76    1.81
   4   3 -11   20.67    1.87
   4   3 -11   19.73    1.84
   4   3 -11   19.64    1.75
   4   3 -11   15.68    1.74
   3   3 -11    4.49    1.02
   3   3 -11    1.84    0.70
   3   3 -11    4.55    0.97
   3   3 -11    3.18    0.91
   3   3 -11    4.75    0.99
   2   3 -11   49.71    2.27
   2   3 -11   50.59    2.59
   2   3 -11   52.33    2.63
   2   3 -11   52.54    2.65
   2   3 -11   52.85    2.72
   1   3 -11  121.18    4.48
   1   3 -11  120.48    3.73
   1   3 -11  114.37    4.19
   1   3 -11  119.57    4.28
   0   3 -11   21.52    1.87
   0   3 -11   24.90    1.32
   0   3 -11   23.92    2.13
  -1   3 -11   18.98    0.97
  -1   3 -11   16.07    1.79
  -1   3 -11   17.43    1.68
  -2   3 -11   53.33    2.97
  -2   3 -11   56.52    2.74
  -3   3 -11    3.49    1.05
  -3   3 -11    2.84    0.96
  -4   3 -11    0.55    0.91
  -5   3 -11   -0.23    0.80
   7   2 -11    3.26    1.09
   6   2 -11   16.42    1.77
   6   2 -11   16.75    2.07
   5   2 -11   -0.22    0.60
   5   2 -11    0.10    0.64
   4   2 -11   -0.16    0.62
   4   2 -11    0.75    0.77
   4   2 -11    1.12    0.79
   4   2 -11    0.42    0.60
   3   2 -11    1.69    0.77
   3   2 -11    1.19    0.79
   3   2 -11    2.09    0.76
   3   2 -11    2.79    0.90
   3   2 -11    2.34    0.71
   2   2 -11    8.89    1.21
   2   2 -11    9.60    1.30
   2   2 -11   10.46    1.19
   2   2 -11    6.75    1.19
   1   2 -11    0.26    0.55
   1   2 -11    0.06    0.44
   1   2 -11    0.19    0.62
   1   2 -11   -0.61    0.52
   0   2 -11    9.52    0.93
   0   2 -11    9.00    1.24
   0   2 -11   10.01    1.27
   0   2 -11    8.85    1.31
  -1   2 -11   76.91    2.31
  -1   2 -11   75.87    3.39
  -1   2 -11   73.19    3.07
  -2   2 -11   13.90    1.46
  -2   2 -11   11.04    1.48
  -3   2 -11   29.42    2.21
  -3   2 -11   31.51    1.99
  -4   2 -11   44.00    2.71
  -4   2 -11   44.64    2.47
  -5   2 -11    1.97    0.90
  -5   2 -11    1.97    0.93
  -6   2 -11    1.37    1.03
   7   1 -11    4.57    1.10
   6   1 -11    2.91    0.95
   6   1 -11    2.92    1.04
   5   1 -11   31.87    2.22
   5   1 -11   35.93    2.22
   5   1 -11   36.98    2.35
   4   1 -11   34.59    2.10
   4   1 -11   38.25    2.04
   4   1 -11   33.28    2.23
   4   1 -11   34.97    2.23
   3   1 -11    4.85    1.03
   3   1 -11    5.13    1.01
   3   1 -11    4.71    1.01
   3   1 -11    4.12    0.84
   2   1 -11   18.29    1.54
   2   1 -11   15.31    1.47
   2   1 -11   18.11    1.61
   2   1 -11   16.77    1.70
   1   1 -11   29.51    1.83
   1   1 -11   33.05    2.09
   1   1 -11   30.48    1.89
   1   1 -11   32.43    1.64
   0   1 -11    8.74    1.21
   0   1 -11   10.40    1.25
   0   1 -11   10.81    0.99
   0   1 -11    9.94    1.22
   0   1 -11    7.89    1.22
  -1   1 -11    8.04    1.13
  -1   1 -11    5.54    0.99
  -1   1 -11    8.44    1.17
  -1   1 -11    6.75    0.71
  -1   1 -11    7.58    1.19
  -2   1 -11    2.37    0.78
  -2   1 -11    2.17    0.83
  -3   1 -11   60.01    2.64
  -3   1 -11   57.16    2.93
  -4   1 -11   79.97    3.24
  -4   1 -11   82.74    3.67
  -5   1 -11    0.68    0.89
  -6   1 -11   73.47    3.68
  -7   1 -11   56.97    3.24
   7   0 -11    9.58    1.66
   7   0 -11    8.56    1.45
   6   0 -11    1.23    0.83
   6   0 -11    0.58    0.74
   5   0 -11    5.40    1.20
   5   0 -11    6.80    1.19
   5   0 -11    6.65    1.21
   4   0 -11    3.23    0.90
   4   0 -11    4.64    1.13
   4   0 -11    3.27    0.92
   4   0 -11    2.70    1.16
   3   0 -11    3.55    0.83
   3   0 -11    1.89    0.66
   3   0 -11    1.70    0.77
   3   0 -11    3.52    0.92
   2   0 -11   60.70    2.73
   2   0 -11   61.25    2.94
   2   0 -11   65.64    2.54
   1   0 -11   18.45    1.59
   1   0 -11   15.21    1.27
   1   0 -11   16.49    1.48
   1   0 -11   17.84    1.59
   1   0 -11   16.71    1.71
   0   0 -11   17.88    1.78
   0   0 -11   17.82    1.56
   0   0 -11   15.23    1.38
   0   0 -11   16.77    1.12
   0   0 -11   16.80    1.49
  -1   0 -11   38.19    1.98
  -1   0 -11   31.39    2.10
  -1   0 -11   34.20    1.88
  -1   0 -11   35.63    2.01
  -1   0 -11   33.56    1.43
  -2   0 -11   21.42    1.45
  -2   0 -11   19.99    0.69
  -2   0 -11   21.45    1.77
  -2   0 -11   19.83    1.82
  -3   0 -11    0.74    0.64
  -3   0 -11    0.08    0.53
  -3   0 -11    0.53    0.64
  -3   0 -11    0.72    0.58
  -4   0 -11    7.86    1.29
  -4   0 -11    7.56    1.22
  -5   0 -11    3.58    0.95
  -5   0 -11    4.61    1.10
  -6   0 -11   17.94    1.93
  -6   0 -11   13.30    1.72
  -7   0 -11    6.76    1.34
  -7   0 -11    6.16    1.27
   7  -1 -11    6.21    1.35
   6  -1 -11   20.40    2.13
   5  -1 -11    1.04    0.78
   5  -1 -11    0.31    0.68
   5  -1 -11    1.30    0.73
   4  -1 -11   13.48    1.66
   4  -1 -11   14.06    1.58
   4  -1 -11   17.44    1.70
   3  -1 -11   15.57    1.54
   3  -1 -11   14.98    1.73
   3  -1 -11   18.16    1.60
   2  -1 -11    3.45    0.78
   2  -1 -11    3.18    0.90
   2  -1 -11    4.13    0.92
   2  -1 -11    4.28    0.83
   1  -1 -11   10.00    1.21
   1  -1 -11   12.13    1.30
   1  -1 -11    7.86    0.96
   1  -1 -11    8.82    1.25
   0  -1 -11    2.31    0.65
   0  -1 -11    2.57    0.78
   0  -1 -11    2.10    0.69
   0  -1 -11    2.36    0.60
   0  -1 -11    2.46    0.71
  -1  -1 -11   96.52    3.44
  -1  -1 -11   96.56    3.32
  -1  -1 -11   92.44    2.82
  -1  -1 -11   89.75    3.21
  -1  -1 -11   95.09    3.69
  -2  -1 -11    2.18    0.71
  -2  -1 -11    1.40    0.68
  -2  -1 -11    2.14    0.35
  -2  -1 -11    1.03    0.54
  -2  -1 -11    1.46    0.58
  -2  -1 -11    0.88    0.57
  -3  -1 -11   61.07    2.67
  -3  -1 -11   66.33    3.00
  -3  -1 -11   59.93    2.78
  -4  -1 -11   39.48    2.32
  -4  -1 -11   42.37    2.30
  -4  -1 -11   35.95    2.07
  -5  -1 -11   15.97    1.70
  -5  -1 -11   17.72    1.78
  -6  -1 -11   49.86    2.72
  -6  -1 -11   53.52    2.86
  -7  -1 -11    4.72    1.19
  -7  -1 -11    4.90    1.15
   6  -2 -11    2.70    1.06
   5  -2 -11   14.17    1.79
   5  -2 -11   11.21    1.48
   4  -2 -11   33.03    2.25
   4  -2 -11   34.83    2.14
   3  -2 -11    2.32    0.84
   3  -2 -11    1.24    0.67
   3  -2 -11    0.71    0.60
   2  -2 -11    7.51    1.04
   2  -2 -11    6.60    1.05
   2  -2 -11    8.11    1.14
   2  -2 -11    6.35    1.13
   1  -2 -11  126.79    4.10
   1  -2 -11  124.62    4.49
   1  -2 -11  129.22    4.24
   1  -2 -11  125.61    3.94
   0  -2 -11    5.17    1.04
   0  -2 -11    5.91    0.88
   0  -2 -11    4.70    0.85
   0  -2 -11    6.27    0.82
   0  -2 -11    4.77    0.82
  -1  -2 -11    3.67    0.87
  -1  -2 -11    4.95    0.82
  -1  -2 -11    3.40    0.80
  -1  -2 -11    3.45    0.81
  -1  -2 -11    5.17    0.71
  -2  -2 -11    1.75    0.72
  -2  -2 -11    1.25    0.36
  -2  -2 -11    0.86    0.59
  -2  -2 -11    1.39    0.66
  -2  -2 -11    1.09    0.56
  -3  -2 -11  132.69    4.49
  -3  -2 -11  132.86    4.58
  -3  -2 -11  134.89    4.28
  -4  -2 -11   18.71    1.75
  -4  -2 -11   17.25    1.72
  -5  -2 -11    9.23    1.34
  -5  -2 -11   13.19    1.56
  -6  -2 -11   36.68    2.33
  -6  -2 -11   39.88    2.46
  -7  -2 -11   16.62    1.82
  -7  -2 -11   21.76    2.07
  -8  -2 -11    7.72    1.42
   6  -3 -11    2.29    1.01
   5  -3 -11    0.55    0.78
   4  -3 -11    1.50    0.85
   3  -3 -11    0.81    0.75
   3  -3 -11    0.94    0.67
   3  -3 -11    0.58    0.59
   2  -3 -11   27.02    1.76
   2  -3 -11   26.31    2.25
   2  -3 -11   31.70    1.92
   2  -3 -11   26.83    1.73
   1  -3 -11  136.84    4.45
   1  -3 -11  140.93    4.36
   1  -3 -11  135.52    4.81
   1  -3 -11  143.35    4.31
   0  -3 -11    7.77    0.94
   0  -3 -11   10.99    1.19
   0  -3 -11    9.66    1.08
   0  -3 -11    9.94    1.13
   0  -3 -11    7.61    1.14
  -1  -3 -11   99.49    3.07
  -1  -3 -11   95.54    3.45
  -1  -3 -11   96.60    3.40
  -1  -3 -11   96.08    3.73
  -1  -3 -11   98.19    3.25
  -2  -3 -11    5.63    1.00
  -2  -3 -11    4.32    0.79
  -2  -3 -11    5.85    1.02
  -2  -3 -11    5.03    0.60
  -3  -3 -11   16.80    1.61
  -3  -3 -11   13.80    1.51
  -4  -3 -11   22.77    1.75
  -4  -3 -11   23.08    1.99
  -5  -3 -11   47.01    2.50
  -5  -3 -11   47.06    2.55
  -6  -3 -11   19.53    1.82
  -6  -3 -11   23.09    2.08
  -7  -3 -11   11.12    1.58
  -8  -3 -11   31.99    2.33
   6  -4 -11    3.67    1.22
   5  -4 -11   20.06    2.09
   4  -4 -11    7.49    1.29
   3  -4 -11    0.28    0.68
   2  -4 -11    7.20    1.23
   2  -4 -11    6.50    1.00
   2  -4 -11    8.87    1.18
   1  -4 -11   13.02    1.35
   1  -4 -11   12.52    1.30
   1  -4 -11   13.69    1.64
   1  -4 -11   16.47    1.43
   0  -4 -11   34.28    1.81
   0  -4 -11   30.00    1.74
   0  -4 -11   32.83    1.74
   0  -4 -11   30.82    2.04
  -1  -4 -11  103.98    3.94
  -1  -4 -11  105.68    3.36
  -1  -4 -11  113.50    3.78
  -2  -4 -11    1.16    0.44
  -2  -4 -11    0.62    0.64
  -2  -4 -11    1.89    0.71
  -3  -4 -11  139.17    4.66
  -3  -4 -11  142.18    4.58
  -3  -4 -11  135.56    3.19
  -4  -4 -11   26.57    1.79
  -4  -4 -11   27.15    1.84
  -5  -4 -11   -0.27    0.61
  -5  -4 -11   -0.24    0.57
  -6  -4 -11   16.22    1.82
  -7  -4 -11   20.58    2.03
  -8  -4 -11   47.64    2.80
   5  -5 -11   30.74    2.70
   4  -5 -11   59.67    3.17
   3  -5 -11    6.10    1.26
   2  -5 -11   36.88    2.16
   2  -5 -11   33.62    2.26
   1  -5 -11   23.90    1.65
   1  -5 -11   24.91    1.69
   1  -5 -11   25.42    1.96
   0  -5 -11   18.20    1.58
   0  -5 -11   15.86    1.70
  -1  -5 -11   70.70    3.15
  -1  -5 -11   77.13    2.73
  -1  -5 -11   72.91    2.92
  -2  -5 -11    3.11    0.84
  -2  -5 -11    3.36    0.63
  -2  -5 -11    2.33    0.82
  -3  -5 -11   29.53    1.17
  -3  -5 -11   27.14    1.86
  -3  -5 -11   30.65    1.92
  -4  -5 -11    7.76    1.19
  -4  -5 -11    6.19    1.10
  -5  -5 -11   39.84    2.30
  -6  -5 -11   51.33    2.70
  -7  -5 -11    0.13    0.67
  -8  -5 -11   49.05    2.92
   4  -6 -11    3.87    1.24
   3  -6 -11    3.55    1.06
   2  -6 -11   27.60    2.13
   2  -6 -11   29.13    2.01
   1  -6 -11    0.16    0.59
   1  -6 -11    0.36    0.67
   0  -6 -11   27.02    1.75
   0  -6 -11   23.74    1.84
  -1  -6 -11   34.40    1.85
  -1  -6 -11   36.92    2.24
  -2  -6 -11    5.66    0.98
  -2  -6 -11    3.96    0.93
  -2  -6 -11    4.35    0.75
  -3  -6 -11   13.23    1.44
  -3  -6 -11   13.97    1.50
  -3  -6 -11   14.48    0.95
  -4  -6 -11   38.94    2.24
  -5  -6 -11   16.34    1.71
  -6  -6 -11    9.35    1.37
  -7  -6 -11   25.42    2.28
  -8  -6 -11   65.52    3.30
   3  -7 -11   -0.38    0.83
   2  -7 -11    4.64    1.20
   2  -7 -11    2.79    1.09
   1  -7 -11    3.25    1.05
   1  -7 -11    1.97    0.88
   0  -7 -11   29.85    2.10
   0  -7 -11   31.53    1.95
  -1  -7 -11    5.93    0.99
  -1  -7 -11    6.63    1.20
  -2  -7 -11   42.76    2.00
  -2  -7 -11   44.76    2.47
  -3  -7 -11   36.24    2.08
  -3  -7 -11   31.53    1.53
  -4  -7 -11    5.81    0.51
  -4  -7 -11    5.45    1.02
  -5  -7 -11   15.67    1.64
  -6  -7 -11   20.82    1.94
  -7  -7 -11    2.91    1.00
   2  -8 -11   32.29    2.37
   1  -8 -11   10.39    1.51
   1  -8 -11   17.43    1.82
   0  -8 -11    0.27    0.70
   0  -8 -11    0.15    0.76
  -1  -8 -11    9.24    1.26
  -1  -8 -11    9.19    1.62
  -2  -8 -11   13.10    1.33
  -3  -8 -11   23.61    1.43
  -4  -8 -11   -0.44    0.62
  -4  -8 -11    0.56    0.37
  -5  -8 -11   55.99    2.83
  -6  -8 -11   47.97    2.70
  -7  -8 -11    2.06    0.96
   1  -9 -11    0.12    0.82
   1  -9 -11    1.06    0.88
   0  -9 -11   39.82    2.41
  -1  -9 -11   29.21    2.01
  -2  -9 -11    1.19    0.74
  -3  -9 -11   44.65    2.06
  -4  -9 -11   13.42    1.59
  -4  -9 -11   13.73    1.04
  -5  -9 -11    6.99    1.24
  -6  -9 -11    1.20    0.86
   3   5 -12    6.01    1.25
   3   5 -12    8.42    1.40
   2   5 -12    1.07    0.76
   2   5 -12    0.94    0.78
   2   5 -12   -0.49    0.67
   1   5 -12   10.87    1.27
   1   5 -12    9.33    1.62
   0   5 -12    8.89    0.90
   0   5 -12   12.75    1.85
  -1   5 -12    3.49    1.21
   5   4 -12    0.55    0.79
   4   4 -12    4.86    1.15
   4   4 -12    6.67    1.20
   3   4 -12    8.28    1.38
   3   4 -12   10.63    1.34
   3   4 -12    9.01    1.48
   2   4 -12   32.65    2.37
   2   4 -12   40.76    2.44
   2   4 -12   38.89    2.05
   1   4 -12    8.18    1.02
   1   4 -12    9.63    1.51
   0   4 -12    7.99    0.88
   0   4 -12    9.67    1.67
  -1   4 -12   32.54    1.22
  -1   4 -12   35.13    2.57
  -2   4 -12   12.40    1.87
  -3   4 -12   20.74    2.32
   5   3 -12    2.89    0.93
   4   3 -12    5.48    1.11
   4   3 -12    5.76    1.19
   4   3 -12    4.02    0.99
   3   3 -12    3.34    1.09
   3   3 -12    2.74    0.77
   3   3 -12    2.10    0.91
   3   3 -12    2.21    0.90
   2   3 -12    4.30    1.06
   2   3 -12    6.44    1.25
   2   3 -12    5.10    0.91
   1   3 -12    7.38    1.28
   1   3 -12    8.16    1.43
   1   3 -12    8.56    1.34
   1   3 -12    4.70    0.82
   0   3 -12   11.76    1.05
   0   3 -12   12.48    1.52
   0   3 -12   14.14    1.84
  -1   3 -12   16.13    1.90
  -1   3 -12   18.83    1.84
  -1   3 -12   18.26    0.94
  -2   3 -12    2.77    1.03
  -3   3 -12    8.63    1.56
  -4   3 -12   23.54    2.44
   6   2 -12    6.56    1.34
   5   2 -12   21.64    2.16
   5   2 -12   20.76    2.00
   4   2 -12   15.43    1.71
   4   2 -12   13.35    1.47
   4   2 -12   16.10    1.82
   3   2 -12   17.72    1.79
   3   2 -12   16.20    1.70
   3   2 -12   21.52    2.03
   3   2 -12   19.71    1.97
   3   2 -12   19.28    1.70
   2   2 -12   13.75    1.53
   2   2 -12   16.19    1.43
   2   2 -12   12.86    1.62
   2   2 -12   15.16    1.61
   1   2 -12    3.68    0.95
   1   2 -12    4.05    0.75
   1   2 -12    5.08    1.09
   1   2 -12    4.61    0.99
   0   2 -12    9.53    0.98
   0   2 -12    9.52    1.29
   0   2 -12   11.52    1.60
   0   2 -12   10.33    1.46
  -1   2 -12    7.16    0.70
  -1   2 -12    5.66    1.07
  -1   2 -12    5.71    1.23
  -2   2 -12   13.75    1.73
  -2   2 -12   13.34    1.50
  -3   2 -12   49.62    2.66
  -3   2 -12   44.27    2.76
  -4   2 -12    6.39    1.51
  -5   2 -12   48.43    3.02
   6   1 -12    1.10    0.85
   6   1 -12    2.16    1.01
   5   1 -12    2.27    0.91
   5   1 -12    0.87    0.78
   4   1 -12   19.14    1.72
   4   1 -12   21.80    2.04
   4   1 -12   20.55    2.02
   3   1 -12   10.95    1.48
   3   1 -12   14.16    1.49
   3   1 -12   12.91    1.55
   2   1 -12   52.65    2.58
   2   1 -12   50.40    2.60
   2   1 -12   48.26    2.68
   2   1 -12   48.02    2.25
   1   1 -12    7.32    1.14
   1   1 -12    6.16    0.86
   1   1 -12    5.61    1.15
   1   1 -12    4.90    0.98
   0   1 -12   29.83    1.94
   0   1 -12   31.84    1.55
   0   1 -12   26.45    2.01
   0   1 -12   30.59    1.97
  -1   1 -12   49.38    2.78
  -1   1 -12   50.72    2.51
  -1   1 -12   48.48    1.76
  -2   1 -12    2.64    0.86
  -2   1 -12    3.26    1.02
  -3   1 -12   -0.31    0.67
  -3   1 -12   -0.23    0.77
  -4   1 -12    0.85    0.79
  -5   1 -12   10.50    1.76
  -6   1 -12   37.20    2.68
   6   0 -12    4.16    1.20
   6   0 -12    2.37    1.12
   5   0 -12    3.17    1.03
   5   0 -12    1.78    0.95
   4   0 -12    9.41    2.22
   4   0 -12    7.95    1.16
   4   0 -12    9.84    1.53
   4   0 -12    8.31    1.31
   3   0 -12   11.50    1.42
   3   0 -12   12.63    1.60
   3   0 -12   13.78    1.43
   2   0 -12    1.96    0.80
   2   0 -12    2.41    0.85
   2   0 -12    2.59    0.79
   2   0 -12    2.44    0.74
   1   0 -12    3.53    0.99
   1   0 -12    4.19    0.92
   1   0 -12    3.91    0.76
   1   0 -12    4.54    0.90
   0   0 -12   62.70    3.08
   0   0 -12   62.35    2.72
   0   0 -12   59.64    2.29
   0   0 -12   62.85    2.78
  -1   0 -12   26.81    1.28
  -1   0 -12   24.76    2.15
  -1   0 -12   27.71    1.82
  -1   0 -12   23.12    1.67
  -2   0 -12   11.59    1.49
  -2   0 -12   11.66    1.28
  -3   0 -12   69.14    3.29
  -4   0 -12    6.75    1.19
  -4   0 -12    6.36    1.25
  -5   0 -12   -1.41    0.65
  -5   0 -12    0.32    0.76
  -6   0 -12    1.96    1.05
  -6   0 -12    1.97    0.98
   6  -1 -12    2.31    1.07
   6  -1 -12    2.49    1.02
   5  -1 -12   24.19    2.32
   5  -1 -12   23.30    2.08
   4  -1 -12    6.22    1.14
   4  -1 -12    7.38    1.35
   3  -1 -12    9.32    1.24
   3  -1 -12    9.63    1.51
   3  -1 -12   10.58    1.34
   2  -1 -12   17.01    1.84
   2  -1 -12   18.18    1.70
   2  -1 -12   15.77    1.45
   1  -1 -12    8.13    1.09
   1  -1 -12    6.48    1.22
   1  -1 -12    7.15    1.11
   1  -1 -12    8.82    1.04
   0  -1 -12   12.80    1.15
   0  -1 -12   11.57    1.27
   0  -1 -12   12.05    1.35
   0  -1 -12    9.29    1.41
  -1  -1 -12   18.13    1.11
  -1  -1 -12   18.95    1.73
  -1  -1 -12   17.35    1.81
  -1  -1 -12   20.97    1.67
  -1  -1 -12   16.16    1.78
  -2  -1 -12   85.78    3.62
  -2  -1 -12   82.72    2.15
  -2  -1 -12   78.50    3.58
  -3  -1 -12   55.34    2.85
  -3  -1 -12   52.56    2.73
  -4  -1 -12    5.27    1.07
  -4  -1 -12    4.57    1.11
  -5  -1 -12   70.77    3.44
  -5  -1 -12   74.62    3.39
  -6  -1 -12   38.33    2.53
  -6  -1 -12   34.35    2.53
  -7  -1 -12    2.64    1.16
  -7  -1 -12    2.02    0.98
   6  -2 -12    0.53    0.97
   6  -2 -12   -0.21    0.77
   5  -2 -12    2.08    0.95
   5  -2 -12    1.82    0.99
   4  -2 -12    7.79    1.42
   4  -2 -12    5.11    1.09
   3  -2 -12   64.31    2.82
   3  -2 -12   70.53    3.02
   3  -2 -12   59.29    3.16
   2  -2 -12   30.21    2.21
   2  -2 -12   39.41    2.17
   2  -2 -12   39.90    2.04
   1  -2 -12    0.19    0.61
   1  -2 -12   -0.47    0.46
   1  -2 -12    0.05    0.56
   0  -2 -12   14.15    1.60
   0  -2 -12   15.90    1.51
   0  -2 -12   20.20    1.43
   0  -2 -12   18.57    1.30
  -1  -2 -12   25.31    1.96
  -1  -2 -12   28.42    1.77
  -1  -2 -12   24.52    1.62
  -1  -2 -12   24.18    1.34
  -2  -2 -12    0.57    0.59
  -2  -2 -12    1.03    0.67
  -2  -2 -12    0.34    0.32
  -2  -2 -12    0.94    0.76
  -3  -2 -12    3.58    0.96
  -3  -2 -12    3.14    0.95
  -4  -2 -12   29.23    2.35
  -4  -2 -12   27.88    2.03
  -5  -2 -12   12.60    1.64
  -5  -2 -12   12.52    1.69
  -6  -2 -12    6.41    1.31
  -6  -2 -12    5.18    1.27
  -7  -2 -12    5.12    1.25
  -7  -2 -12    5.57    1.91
   5  -3 -12   33.01    2.49
   4  -3 -12    0.91    0.77
   4  -3 -12   -0.02    0.82
   3  -3 -12    0.47    0.64
   3  -3 -12    1.47    0.76
   3  -3 -12   -0.01    0.68
   2  -3 -12   21.66    2.07
   2  -3 -12   25.54    1.72
   2  -3 -12   23.87    1.86
   1  -3 -12   15.55    1.46
   1  -3 -12   14.27    1.72
   1  -3 -12   13.49    1.34
   0  -3 -12    1.27    0.63
   0  -3 -12    1.34    0.66
   0  -3 -12    1.11    0.58
   0  -3 -12    1.81    0.82
  -1  -3 -12   23.50    1.67
  -1  -3 -12   24.46    2.10
  -1  -3 -12   26.86    1.81
  -1  -3 -12   24.37    1.39
  -2  -3 -12   56.58    2.82
  -2  -3 -12   56.20    1.90
  -2  -3 -12   58.52    2.70
  -3  -3 -12   81.06    3.51
  -3  -3 -12   84.77    3.46
  -4  -3 -12   11.19    1.48
  -4  -3 -12   12.17    1.56
  -5  -3 -12    1.55    0.85
  -5  -3 -12    2.46    0.95
  -6  -3 -12   61.60    3.16
  -6  -3 -12   63.57    3.15
  -7  -3 -12   17.88    2.05
   5  -4 -12   30.60    2.82
   4  -4 -12    1.02    0.88
   3  -4 -12    0.57    0.70
   3  -4 -12    0.52    0.74
   3  -4 -12    1.58    0.98
   2  -4 -12   30.36    1.96
   2  -4 -12   24.65    2.25
   2  -4 -12   32.85    1.98
   1  -4 -12   14.36    1.70
   1  -4 -12   13.42    1.38
   0  -4 -12    0.66    0.78
   0  -4 -12    0.17    0.53
  -1  -4 -12    0.63    0.73
  -1  -4 -12   -0.05    0.46
  -1  -4 -12    2.07    0.77
  -2  -4 -12   11.07    0.93
  -2  -4 -12   11.41    1.43
  -2  -4 -12   10.06    1.33
  -3  -4 -12   26.11    2.14
  -3  -4 -12   31.03    2.09
  -4  -4 -12    2.23    0.81
  -4  -4 -12    1.94    0.91
  -5  -4 -12   62.97    3.13
  -5  -4 -12   65.70    3.09
  -6  -4 -12   10.45    1.59
  -7  -4 -12   10.44    1.59
   4  -5 -12    0.20    0.85
   3  -5 -12   16.38    1.96
   2  -5 -12   12.24    1.63
   2  -5 -12   12.59    1.48
   1  -5 -12    9.72    1.51
   1  -5 -12    7.85    1.20
   0  -5 -12  109.93    4.39
   0  -5 -12  120.72    3.93
  -1  -5 -12   40.10    2.20
  -1  -5 -12   42.62    2.01
  -1  -5 -12   46.93    2.60
  -2  -5 -12   35.70    1.65
  -2  -5 -12   37.31    2.30
  -2  -5 -12   38.42    2.23
  -3  -5 -12   19.71    0.89
  -3  -5 -12   21.89    1.93
  -3  -5 -12   20.32    1.90
  -4  -5 -12    0.55    0.74
  -4  -5 -12    1.91    0.84
  -5  -5 -12    2.21    0.96
  -6  -5 -12    6.60    1.35
  -7  -5 -12   20.27    2.10
   3  -6 -12    3.70    1.22
   2  -6 -12    0.61    0.77
   2  -6 -12    0.47    0.81
   1  -6 -12   24.53    2.00
   1  -6 -12   27.48    2.13
   0  -6 -12    8.70    1.38
   0  -6 -12    6.08    1.08
  -1  -6 -12   17.59    1.85
  -1  -6 -12   17.61    1.49
  -2  -6 -12   58.05    2.80
  -2  -6 -12   67.33    2.43
  -2  -6 -12   58.29    2.96
  -3  -6 -12  152.60    3.94
  -3  -6 -12  151.07    5.10
  -3  -6 -12  151.84    5.04
  -4  -6 -12    0.11    0.71
  -5  -6 -12   11.43    1.59
  -6  -6 -12   18.00    2.04
  -7  -6 -12    1.91    1.07
   2  -7 -12   14.99    1.90
   2  -7 -12   16.82    1.82
   1  -7 -12    0.15    0.68
   1  -7 -12    0.46    0.85
   0  -7 -12   13.43    1.73
   0  -7 -12   17.61    1.70
  -1  -7 -12   14.44    1.40
  -1  -7 -12   10.73    1.49
  -2  -7 -12    1.83    0.66
  -2  -7 -12    1.73    0.84
  -3  -7 -12    0.99    0.83
  -3  -7 -12    2.09    0.56
  -4  -7 -12   13.12    1.64
  -5  -7 -12   94.55    3.88
  -6  -7 -12    4.05    1.17
   1  -8 -12   10.78    1.48
   1  -8 -12   10.98    1.75
   0  -8 -12   34.22    2.23
   0  -8 -12   34.61    2.46
  -1  -8 -12    0.35    0.68
  -2  -8 -12    5.06    0.94
  -3  -8 -12   29.51    1.56
  -4  -8 -12   23.63    2.11
  -5  -8 -12    0.79    0.87
  -4  -9 -12    0.25    0.40
   2   4 -13   29.60    2.54
   2   4 -13   29.28    2.66
   1   4 -13    0.95    0.85
   0   4 -13   49.43    3.06
  -1   4 -13   32.04    2.91
   4   3 -13    0.28    0.74
   4   3 -13    0.15    0.84
   4   3 -13    1.29    0.87
   3   3 -13   24.93    2.24
   3   3 -13   25.40    2.39
   3   3 -13   27.46    1.88
   2   3 -13   14.90    1.84
   2   3 -13   13.70    1.68
   2   3 -13   14.99    1.50
   1   3 -13    4.95    1.17
   1   3 -13    5.55    0.87
   1   3 -13    5.32    1.23
   0   3 -13    3.39    1.16
   0   3 -13    3.16    0.65
  -1   3 -13    0.49    0.94
  -2   3 -13   20.33    2.32
   4   2 -13    0.81    0.73
   4   2 -13   -0.49    0.67
   4   2 -13   -0.55    0.80
   3   2 -13   31.97    2.03
   3   2 -13   35.65    2.43
   3   2 -13   32.43    2.31
   2   2 -13   27.08    2.29
   2   2 -13   26.10    2.35
   2   2 -13   29.70    1.80
   1   2 -13    1.73    0.99
   1   2 -13    1.98    0.89
   1   2 -13    2.21    0.66
   0   2 -13   34.45    1.64
   0   2 -13   37.98    2.32
   0   2 -13   33.47    2.40
  -1   2 -13    5.49    1.29
  -1   2 -13    3.04    0.49
  -2   2 -13    7.64    1.51
  -3   2 -13   -0.29    0.92
  -4   2 -13   40.76    2.98
   5   1 -13   16.14    2.00
   5   1 -13   15.99    1.87
   4   1 -13    0.57    0.73
   4   1 -13   -0.08    0.80
   4   1 -13    0.80    0.83
   3   1 -13    2.52    0.99
   3   1 -13    2.56    0.97
   3   1 -13    3.17    0.87
   2   1 -13    1.61    0.90
   2   1 -13    0.52    0.54
   2   1 -13    1.17    0.88
   1   1 -13   18.21    1.76
   1   1 -13   19.26    1.82
   1   1 -13   23.75    2.20
   1   1 -13   23.70    1.52
   0   1 -13   40.79    2.58
   0   1 -13   42.74    2.39
   0   1 -13   42.89    2.43
   0   1 -13   44.73    1.92
  -1   1 -13    0.75    0.77
  -1   1 -13    0.29    0.75
  -1   1 -13    0.74    0.40
  -2   1 -13   37.88    2.56
  -2   1 -13   44.96    2.47
  -3   1 -13   12.52    1.81
  -4   1 -13   -0.82    0.82
   5   0 -13   38.16    2.64
   5   0 -13   37.42    2.55
   4   0 -13    1.05    0.87
   4   0 -13    0.99    0.80
   4   0 -13    0.20    0.63
   3   0 -13   29.73    2.35
   3   0 -13   26.13    1.76
   3   0 -13   23.85    2.30
   2   0 -13    2.32    0.89
   2   0 -13    1.77    0.86
   2   0 -13    2.99    0.81
   2   0 -13    2.32    0.96
   1   0 -13    2.57    0.93
   1   0 -13    2.35    0.84
   1   0 -13    1.60    0.75
   1   0 -13    2.09    0.67
   0   0 -13    1.52    0.89
   0   0 -13   -0.45    0.54
   0   0 -13    1.26    0.56
   0   0 -13    0.23    0.64
  -1   0 -13    4.28    0.63
  -1   0 -13    5.36    1.25
  -1   0 -13    3.22    0.86
  -1   0 -13    4.65    0.99
  -2   0 -13   31.57    2.27
  -3   0 -13   23.67    2.25
  -4   0 -13   14.27    1.88
  -5   0 -13   55.19    3.19
   5  -1 -13    0.33    0.86
   5  -1 -13    0.37    0.89
   4  -1 -13    0.40    0.81
   4  -1 -13    0.30    0.64
   4  -1 -13    0.27    0.79
   3  -1 -13   10.89    1.37
   3  -1 -13   11.61    1.65
   3  -1 -13   11.80    1.53
   2  -1 -13   23.39    1.67
   2  -1 -13   27.89    1.92
   2  -1 -13   25.45    2.36
   1  -1 -13    6.88    1.17
   1  -1 -13    6.85    1.00
   1  -1 -13    7.39    1.33
   1  -1 -13    7.18    1.15
   0  -1 -13   43.15    1.96
   0  -1 -13   41.36    2.56
   0  -1 -13   47.04    2.42
  -1  -1 -13   19.99    1.19
  -1  -1 -13   20.12    1.77
  -1  -1 -13   22.47    2.13
  -2  -1 -13   -0.77    0.69
  -3  -1 -13    0.91    0.82
  -4  -1 -13   14.86    1.73
  -4  -1 -13   14.35    1.83
  -5  -1 -13   40.24    2.64
  -5  -1 -13   38.65    2.60
   4  -2 -13    1.07    0.90
   4  -2 -13    1.05    0.87
   3  -2 -13   -0.33    0.58
   3  -2 -13    0.39    0.70
   3  -2 -13    0.95    0.84
   2  -2 -13    7.66    1.25
   2  -2 -13    6.34    1.05
   2  -2 -13    8.08    1.41
   1  -2 -13   13.39    1.68
   1  -2 -13   15.39    1.41
   1  -2 -13   16.85    1.64
   0  -2 -13   16.13    1.37
   0  -2 -13   14.95    1.83
   0  -2 -13   15.76    1.54
  -1  -2 -13    6.80    0.84
  -1  -2 -13    6.53    1.03
  -1  -2 -13    6.76    1.26
  -2  -2 -13   56.34    2.99
  -2  -2 -13   61.88    2.94
  -2  -2 -13   60.75    1.78
  -3  -2 -13   28.29    2.12
  -3  -2 -13   29.24    2.36
  -4  -2 -13   -0.12    0.74
  -4  -2 -13    2.60    1.03
  -5  -2 -13    2.10    0.96
  -5  -2 -13    0.29    0.77
  -6  -2 -13    9.16    1.55
  -6  -2 -13    7.96    1.46
   4  -3 -13    5.08    1.31
   4  -3 -13    4.69    1.17
   3  -3 -13  102.18    3.81
   3  -3 -13   84.12    4.12
   3  -3 -13   92.11    3.79
   2  -3 -13    9.56    1.60
   2  -3 -13    9.69    1.30
   2  -3 -13   10.01    1.30
   1  -3 -13   11.46    1.38
   1  -3 -13    8.91    1.43
   1  -3 -13   11.20    1.29
   0  -3 -13    3.82    1.11
   0  -3 -13    2.34    0.69
  -1  -3 -13   17.13    1.23
  -1  -3 -13   15.14    1.56
  -1  -3 -13   14.06    1.72
  -2  -3 -13   35.14    2.32
  -2  -3 -13   35.89    2.21
  -2  -3 -13   36.23    1.42
  -3  -3 -13   -0.13    0.69
  -3  -3 -13   -0.26    0.70
  -4  -3 -13   40.04    2.53
  -4  -3 -13   39.28    2.52
  -5  -3 -13   32.34    2.37
  -5  -3 -13   33.71    2.45
  -6  -3 -13   15.02    2.15
  -6  -3 -13   12.21    1.83
   4  -4 -13    0.71    0.81
   4  -4 -13    2.22    1.07
   3  -4 -13   37.67    2.36
   3  -4 -13   39.17    2.37
   3  -4 -13   39.29    2.72
   2  -4 -13    9.39    1.57
   2  -4 -13   10.26    1.34
   2  -4 -13   11.12    1.73
   1  -4 -13   29.16    2.27
   1  -4 -13   30.16    1.91
   0  -4 -13   32.91    1.88
   0  -4 -13   35.29    2.36
  -1  -4 -13    1.27    0.59
  -1  -4 -13    0.93    0.67
  -1  -4 -13    1.59    0.89
  -2  -4 -13    7.30    1.34
  -2  -4 -13    6.46    1.25
  -2  -4 -13    7.61    0.80
  -3  -4 -13    0.76    0.74
  -3  -4 -13    1.72    0.82
  -4  -4 -13   28.30    2.39
  -4  -4 -13   31.78    2.23
  -5  -4 -13    2.93    1.03
  -5  -4 -13    2.19    1.05
  -6  -4 -13   30.30    2.55
   3  -5 -13    0.24    0.90
   3  -5 -13    0.25    0.85
   2  -5 -13    3.03    1.12
   2  -5 -13    3.17    0.94
   1  -5 -13   10.76    1.41
   1  -5 -13   11.65    1.68
   0  -5 -13   11.94    1.70
   0  -5 -13   13.19    1.39
  -1  -5 -13   10.30    1.57
  -1  -5 -13   10.00    1.10
  -2  -5 -13   78.89    2.58
  -2  -5 -13   70.32    3.36
  -2  -5 -13   72.98    3.27
  -3  -5 -13   23.58    2.18
  -3  -5 -13   23.90    2.11
  -4  -5 -13   22.56    2.08
  -4  -5 -13   25.23    2.24
  -5  -5 -13    7.37    1.40
  -6  -5 -13   23.84    2.34
   2  -6 -13    4.76    1.26
   2  -6 -13    4.07    1.11
   1  -6 -13    0.18    0.79
   1  -6 -13   -0.19    0.70
   0  -6 -13    3.41    1.09
   0  -6 -13    3.27    0.89
  -1  -6 -13   12.87    1.69
  -1  -6 -13   17.31    1.51
  -2  -6 -13   11.18    1.10
  -2  -6 -13   13.63    1.66
  -3  -6 -13    0.37    0.34
  -3  -6 -13    0.88    0.82
  -3  -6 -13    0.48    0.77
  -4  -6 -13   64.39    3.20
  -5  -6 -13    7.12    1.33
   1  -7 -13    7.76    1.99
   1  -7 -13    8.70    1.63
   0  -7 -13    8.34    1.58
   0  -7 -13   10.60    1.40
  -1  -7 -13    0.12    0.60
  -1  -7 -13    0.64    0.78
  -2  -7 -13   22.75    2.56
  -2  -7 -13   25.77    1.60
  -3  -7 -13    2.48    0.87
  -3  -7 -13    0.62    0.45
  -4  -7 -13   17.09    1.97
  -5  -7 -13    4.53    1.17
   2   2 -14    6.63    1.44
   2   2 -14    5.57    1.23
   1   2 -14   26.66    2.27
   1   2 -14   25.08    2.40
   0   2 -14   27.36    2.52
  -1   2 -14   -0.56    0.80
   3   1 -14    5.58    1.23
   3   1 -14    6.37    1.44
   2   1 -14    2.75    1.03
   2   1 -14    2.44    1.27
   2   1 -14    0.18    0.90
   1   1 -14    0.50    0.82
   1   1 -14    0.32    0.58
   1   1 -14   -0.40    0.73
   0   1 -14    0.31    0.51
   0   1 -14    0.70    0.90
   0   1 -14    0.54    0.76
  -1   1 -14    8.90    1.53
  -1   1 -14    6.64    0.66
  -2   1 -14   60.41    3.42
  -3   1 -14   -0.08    0.81
   3   0 -14   25.62    2.14
   3   0 -14   26.94    2.31
   3   0 -14   26.86    2.52
   2   0 -14    0.34    0.82
   2   0 -14    0.74    0.86
   2   0 -14    0.47    0.63
   1   0 -14   31.67    2.15
   1   0 -14   32.47    1.86
   1   0 -14   31.96    2.38
   0   0 -14   23.61    2.05
   0   0 -14   16.00    1.96
   0   0 -14   22.89    1.43
  -1   0 -14    0.94    0.84
  -1   0 -14    0.99    0.44
  -2   0 -14    0.24    0.80
  -3   0 -14   14.52    1.89
   3  -1 -14    5.65    1.41
   3  -1 -14    5.10    1.03
   3  -1 -14    5.12    1.22
   2  -1 -14    1.72    1.04
   2  -1 -14    3.55    1.07
   2  -1 -14    1.81    0.74
   1  -1 -14   26.04    2.17
   1  -1 -14   17.96    1.99
   1  -1 -14   20.11    1.62
   0  -1 -14    0.30    0.68
   0  -1 -14    0.40    0.54
   0  -1 -14    0.66    0.82
  -1  -1 -14   12.86    1.54
  -1  -1 -14   11.08    1.66
  -1  -1 -14   10.88    0.95
  -2  -1 -14   15.00    1.92
  -3  -1 -14    0.50    0.90
  -4  -1 -14    2.46    1.20
   3  -2 -14   38.61    2.78
   3  -2 -14   45.74    2.65
   3  -2 -14   47.74    2.51
   2  -2 -14   -0.63    0.80
   2  -2 -14    0.49    0.70
   2  -2 -14    1.34    0.89
   1  -2 -14    4.23    1.02
   1  -2 -14    5.64    1.28
   1  -2 -14    6.26    1.04
   0  -2 -14    4.19    0.82
   0  -2 -14    6.04    1.13
   0  -2 -14    1.92    1.01
  -1  -2 -14   25.28    1.40
  -1  -2 -14   24.87    2.24
  -2  -2 -14   18.52    2.05
  -3  -2 -14   -0.60    0.66
  -3  -2 -14   -0.73    0.68
  -4  -2 -14   74.33    3.69
  -4  -2 -14   69.28    3.50
   3  -3 -14   33.02    2.24
   3  -3 -14   34.84    2.36
   3  -3 -14   31.09    2.84
   2  -3 -14    5.81    1.19
   2  -3 -14    8.06    1.48
   2  -3 -14    5.94    1.10
   1  -3 -14   25.18    1.78
   1  -3 -14   22.58    2.32
   0  -3 -14   10.30    1.55
   0  -3 -14   11.55    1.22
  -1  -3 -14    1.31    0.58
  -1  -3 -14    0.96    0.80
  -2  -3 -14   27.82    2.04
  -2  -3 -14   31.35    1.22
  -2  -3 -14   23.18    2.23
  -3  -3 -14    3.70    1.04
  -3  -3 -14    3.76    1.17
  -4  -3 -14    4.68    1.24
  -4  -3 -14    4.62    1.26
  -5  -3 -14    2.35    1.01
  -5  -3 -14    0.12    1.01
   2  -4 -14   13.49    1.52
   2  -4 -14   11.53    1.80
   1  -4 -14   48.56    2.45
   1  -4 -14   48.53    2.99
   0  -4 -14    0.40    0.57
   0  -4 -14    0.16    0.83
  -1  -4 -14   31.58    1.70
  -1  -4 -14   30.70    2.32
  -2  -4 -14   44.45    2.79
  -2  -4 -14   41.95    2.50
  -2  -4 -14   45.29    1.70
  -3  -4 -14    2.36    1.04
  -3  -4 -14    1.72    0.94
  -4  -4 -14   16.28    1.90
  -4  -4 -14   17.58    1.97
   1  -5 -14   -0.22    0.79
   0  -5 -14    2.03    0.99
   0  -5 -14    2.55    0.85
  -1  -5 -14   16.18    1.96
  -1  -5 -14   15.85    1.39
  -2  -5 -14   26.96    1.42
  -2  -5 -14   23.72    2.21
  -2  -5 -14   29.74    2.42
  -3  -5 -14    5.48    1.22
  -3  -5 -14    5.05    1.24
  -4  -5 -14   35.61    2.48
  -4  -5 -14   39.52    3.63
   0  -6 -14   -0.28    0.76
  -1  -6 -14    7.80    1.43
  -2  -6 -14   14.81    1.36
  -2  -6 -14   12.83    1.77
  -3  -6 -14    6.37    2.17
  -3  -6 -14    6.67    1.27
   0  -1 -15    8.64    1.36
   0  -1 -15    6.37    1.46
  -1  -1 -15   26.92    2.52
  -1  -1 -15   27.60    1.39
   0  -2 -15    0.09    0.81
  -1  -2 -15    1.60    1.01
  -2  -2 -15    7.67    1.55
   0  -3 -15   13.85    1.92
  -1  -3 -15   19.07    2.26
  -2  -3 -15    6.91    1.48
   0   0   0    0.00    0.00
;
_shelx_hkl_checksum              85734
_olex2_submission_special_instructions 'No special instructions were received'
loop_
_space_group_symop_operation_xyz
'x, y, z'
'-x, -y, -z'
loop_
_atom_site_label
_atom_site_type_symbol
_atom_site_fract_x
_atom_site_fract_y
_atom_site_fract_z
_atom_site_U_iso_or_equiv
_atom_site_adp_type
_atom_site_occupancy
_atom_site_site_symmetry_order
_atom_site_calc_flag
_atom_site_refinement_flags_posn
_atom_site_refinement_flags_adp
_atom_site_refinement_flags_occupancy
_atom_site_disorder_assembly
_atom_site_disorder_group
Br1 Br -0.14169(2) 0.81141(2) 0.24884(2) 0.01940(6) Uani 1 1 d . . . . .
P1 P 0.25748(5) 0.83650(4) 0.48600(3) 0.01011(8) Uani 1 1 d . . . . .
O1 O 0.36571(13) 0.71687(12) 0.58931(10) 0.0135(2) Uani 1 1 d . . . . .
O2 O 0.39749(13) 0.80527(12) 0.38443(10) 0.0129(2) Uani 1 1 d . . . . .
O3 O 0.19924(14) 0.99483(12) 0.50845(10) 0.0142(2) Uani 1 1 d . . . . .
N1 N 0.10576(16) 0.77428(14) 0.45344(12) 0.0114(3) Uani 1 1 d . . . . .
H1 H 0.005286 0.832989 0.463291 0.014 Uiso 1 1 d R U . . .
C1 C 0.31604(19) 0.67630(17) 0.70892(14) 0.0127(3) Uani 1 1 d . . . . .
C2 C 0.1871(2) 0.76956(18) 0.76606(15) 0.0157(3) Uani 1 1 d . . . . .
H2 H 0.124090 0.865163 0.723817 0.019 Uiso 1 1 calc R U . . .
C3 C 0.1517(2) 0.7200(2) 0.88706(15) 0.0201(4) Uani 1 1 d . . . . .
H3 H 0.063270 0.782185 0.927783 0.024 Uiso 1 1 calc R U . . .
C4 C 0.2444(2) 0.5806(2) 0.94864(16) 0.0227(4) Uani 1 1 d . . . . .
H4 H 0.219843 0.547778 1.031240 0.027 Uiso 1 1 calc R U . . .
C5 C 0.3728(2) 0.4895(2) 0.88930(15) 0.0207(4) Uani 1 1 d . . . . .
H5 H 0.436445 0.394187 0.931529 0.025 Uiso 1 1 calc R U . . .
C6 C 0.4093(2) 0.53631(18) 0.76863(15) 0.0165(3) Uani 1 1 d . . . . .
H6 H 0.496856 0.473439 0.727623 0.020 Uiso 1 1 calc R U . . .
C7 C 0.11846(19) 0.63514(17) 0.41079(14) 0.0112(3) Uani 1 1 d . . . . .
C8 C 0.01830(19) 0.63100(17) 0.31795(14) 0.0125(3) Uani 1 1 d . . . . .
C9 C 0.0264(2) 0.49627(18) 0.27632(15) 0.0150(3) Uani 1 1 d . . . . .
H9 H -0.043828 0.496699 0.213295 0.018 Uiso 1 1 calc R U . . .
C10 C 0.1377(2) 0.36091(18) 0.32715(15) 0.0161(3) Uani 1 1 d . . . . .
H10 H 0.144066 0.267819 0.299304 0.019 Uiso 1 1 calc R U . . .
C11 C 0.2396(2) 0.36204(18) 0.41889(15) 0.0160(3) Uani 1 1 d . . . . .
H11 H 0.316382 0.269425 0.453639 0.019 Uiso 1 1 calc R U . . .
C12 C 0.23015(19) 0.49748(17) 0.46033(14) 0.0139(3) Uani 1 1 d . . . . .
H12 H 0.300721 0.496528 0.523315 0.017 Uiso 1 1 calc R U . . .
C13 C 0.37484(19) 0.90917(17) 0.27397(14) 0.0122(3) Uani 1 1 d . . . . .
C14 C 0.4468(2) 1.02906(18) 0.25957(14) 0.0143(3) Uani 1 1 d . . . . .
H14 H 0.509470 1.041320 0.322628 0.017 Uiso 1 1 calc R U . . .
C15 C 0.4252(2) 1.13124(18) 0.15052(15) 0.0169(3) Uani 1 1 d . . . . .
H15 H 0.473587 1.214355 0.138547 0.020 Uiso 1 1 calc R U . . .
C16 C 0.3332(2) 1.11223(19) 0.05918(15) 0.0185(3) Uani 1 1 d . . . . .
H16 H 0.316969 1.183460 -0.014513 0.022 Uiso 1 1 calc R U . . .
C17 C 0.2648(2) 0.9895(2) 0.07521(15) 0.0190(3) Uani 1 1 d . . . . .
H17 H 0.203368 0.976110 0.011911 0.023 Uiso 1 1 calc R U . . .
C18 C 0.2857(2) 0.88600(19) 0.18347(15) 0.0164(3) Uani 1 1 d . . . . .
H18 H 0.239740 0.801333 0.194903 0.020 Uiso 1 1 calc R U . . .
loop_
_atom_site_aniso_label
_atom_site_aniso_U_11
_atom_site_aniso_U_22
_atom_site_aniso_U_33
_atom_site_aniso_U_23
_atom_site_aniso_U_13
_atom_site_aniso_U_12
Br1 0.02218(10) 0.01430(8) 0.02073(9) -0.00314(6) -0.01148(7) -0.00079(6)
P1 0.01010(18) 0.00961(17) 0.01067(18) -0.00134(14) -0.00169(14) -0.00265(14)
O1 0.0127(5) 0.0148(5) 0.0117(5) 0.0006(4) -0.0023(4) -0.0026(4)
O2 0.0125(5) 0.0125(5) 0.0121(5) 0.0003(4) -0.0003(4) -0.0022(4)
O3 0.0146(5) 0.0117(5) 0.0174(6) -0.0041(4) -0.0017(4) -0.0038(4)
N1 0.0094(6) 0.0099(6) 0.0153(6) -0.0038(5) -0.0020(5) -0.0019(5)
C1 0.0141(7) 0.0146(7) 0.0118(7) -0.0010(6) -0.0035(6) -0.0076(6)
C2 0.0171(8) 0.0157(7) 0.0169(8) -0.0039(6) -0.0031(6) -0.0073(6)
C3 0.0224(9) 0.0243(9) 0.0189(8) -0.0098(7) 0.0027(7) -0.0117(7)
C4 0.0289(10) 0.0305(9) 0.0136(8) -0.0009(7) -0.0027(7) -0.0172(8)
C5 0.0241(9) 0.0210(8) 0.0174(8) 0.0051(7) -0.0074(7) -0.0103(7)
C6 0.0164(8) 0.0163(7) 0.0173(8) -0.0007(6) -0.0041(6) -0.0056(6)
C7 0.0114(7) 0.0113(7) 0.0124(7) -0.0029(6) 0.0014(6) -0.0054(6)
C8 0.0118(7) 0.0111(7) 0.0138(7) -0.0018(6) -0.0003(6) -0.0023(6)
C9 0.0147(8) 0.0169(7) 0.0165(8) -0.0057(6) -0.0001(6) -0.0075(6)
C10 0.0148(8) 0.0137(7) 0.0219(8) -0.0078(6) 0.0036(6) -0.0055(6)
C11 0.0120(7) 0.0122(7) 0.0229(8) -0.0033(6) 0.0014(6) -0.0021(6)
C12 0.0125(7) 0.0145(7) 0.0151(7) -0.0013(6) -0.0018(6) -0.0047(6)
C13 0.0109(7) 0.0131(7) 0.0110(7) -0.0013(6) 0.0018(6) -0.0014(6)
C14 0.0130(7) 0.0165(7) 0.0147(7) -0.0050(6) -0.0001(6) -0.0045(6)
C15 0.0197(8) 0.0154(7) 0.0175(8) -0.0035(6) 0.0019(7) -0.0080(6)
C16 0.0222(9) 0.0182(8) 0.0145(8) 0.0010(6) -0.0010(7) -0.0067(7)
C17 0.0204(9) 0.0246(8) 0.0149(8) -0.0034(7) -0.0031(7) -0.0100(7)
C18 0.0170(8) 0.0170(8) 0.0174(8) -0.0028(6) 0.0006(6) -0.0085(6)
loop_
_atom_type_symbol
_atom_type_description
_atom_type_scat_dispersion_real
_atom_type_scat_dispersion_imag
_atom_type_scat_source
C C 0.0033 0.0016 'International Tables Vol C Tables 4.2.6.8 and 6.1.1.4'
H H 0.0000 0.0000 'International Tables Vol C Tables 4.2.6.8 and 6.1.1.4'
Br Br -0.2901 2.4595 'International Tables Vol C Tables 4.2.6.8 and 6.1.1.4'
N N 0.0061 0.0033 'International Tables Vol C Tables 4.2.6.8 and 6.1.1.4'
O O 0.0106 0.0060 'International Tables Vol C Tables 4.2.6.8 and 6.1.1.4'
P P 0.1023 0.0942 'International Tables Vol C Tables 4.2.6.8 and 6.1.1.4'
loop_
_geom_angle_atom_site_label_1
_geom_angle_atom_site_label_2
_geom_angle_atom_site_label_3
_geom_angle
_geom_angle_site_symmetry_1
_geom_angle_site_symmetry_3
_geom_angle_publ_flag
O1 P1 O2 94.06(6) . . ?
O1 P1 N1 109.86(6) . . ?
O2 P1 N1 108.40(6) . . ?
O3 P1 O1 115.76(6) . . ?
O3 P1 O2 115.90(6) . . ?
O3 P1 N1 111.52(7) . . ?
C1 O1 P1 126.78(10) . . ?
C13 O2 P1 117.38(9) . . ?
P1 N1 H1 116.6 . . ?
C7 N1 P1 126.82(11) . . ?
C7 N1 H1 116.6 . . ?
C2 C1 O1 123.23(14) . . ?
C2 C1 C6 121.80(15) . . ?
C6 C1 O1 114.94(14) . . ?
C1 C2 H2 120.8 . . ?
C1 C2 C3 118.42(15) . . ?
C3 C2 H2 120.8 . . ?
C2 C3 H3 119.7 . . ?
C4 C3 C2 120.64(16) . . ?
C4 C3 H3 119.7 . . ?
C3 C4 H4 120.1 . . ?
C5 C4 C3 119.75(16) . . ?
C5 C4 H4 120.1 . . ?
C4 C5 H5 119.7 . . ?
C4 C5 C6 120.52(16) . . ?
C6 C5 H5 119.7 . . ?
C1 C6 C5 118.87(16) . . ?
C1 C6 H6 120.6 . . ?
C5 C6 H6 120.6 . . ?
C8 C7 N1 120.98(13) . . ?
C8 C7 C12 117.44(14) . . ?
C12 C7 N1 121.58(14) . . ?
C7 C8 Br1 120.27(11) . . ?
C9 C8 Br1 117.66(12) . . ?
C9 C8 C7 122.02(14) . . ?
C8 C9 H9 120.2 . . ?
C8 C9 C10 119.55(15) . . ?
C10 C9 H9 120.2 . . ?
C9 C10 H10 120.2 . . ?
C9 C10 C11 119.60(15) . . ?
C11 C10 H10 120.2 . . ?
C10 C11 H11 119.8 . . ?
C10 C11 C12 120.45(15) . . ?
C12 C11 H11 119.8 . . ?
C7 C12 H12 119.5 . . ?
C11 C12 C7 120.93(15) . . ?
C11 C12 H12 119.5 . . ?
C14 C13 O2 118.32(14) . . ?
C18 C13 O2 119.26(13) . . ?
C18 C13 C14 122.40(14) . . ?
C13 C14 H14 120.8 . . ?
C13 C14 C15 118.40(15) . . ?
C15 C14 H14 120.8 . . ?
C14 C15 H15 119.9 . . ?
C16 C15 C14 120.25(15) . . ?
C16 C15 H15 119.9 . . ?
C15 C16 H16 119.9 . . ?
C17 C16 C15 120.16(15) . . ?
C17 C16 H16 119.9 . . ?
C16 C17 H17 119.8 . . ?
C16 C17 C18 120.34(16) . . ?
C18 C17 H17 119.8 . . ?
C13 C18 C17 118.43(15) . . ?
C13 C18 H18 120.8 . . ?
C17 C18 H18 120.8 . . ?
loop_
_geom_bond_atom_site_label_1
_geom_bond_atom_site_label_2
_geom_bond_distance
_geom_bond_site_symmetry_2
_geom_bond_publ_flag
Br1 C8 1.8966(15) . ?
P1 O1 1.5827(11) . ?
P1 O2 1.5895(11) . ?
P1 O3 1.4638(11) . ?
P1 N1 1.6270(13) . ?
O1 C1 1.3966(18) . ?
O2 C13 1.4109(18) . ?
N1 H1 0.8800 . ?
N1 C7 1.4201(19) . ?
C1 C2 1.383(2) . ?
C1 C6 1.385(2) . ?
C2 H2 0.9500 . ?
C2 C3 1.393(2) . ?
C3 H3 0.9500 . ?
C3 C4 1.388(3) . ?
C4 H4 0.9500 . ?
C4 C5 1.384(3) . ?
C5 H5 0.9500 . ?
C5 C6 1.387(2) . ?
C6 H6 0.9500 . ?
C7 C8 1.395(2) . ?
C7 C12 1.396(2) . ?
C8 C9 1.384(2) . ?
C9 H9 0.9500 . ?
C9 C10 1.385(2) . ?
C10 H10 0.9500 . ?
C10 C11 1.386(2) . ?
C11 H11 0.9500 . ?
C11 C12 1.387(2) . ?
C12 H12 0.9500 . ?
C13 C14 1.383(2) . ?
C13 C18 1.381(2) . ?
C14 H14 0.9500 . ?
C14 C15 1.391(2) . ?
C15 H15 0.9500 . ?
C15 C16 1.388(2) . ?
C16 H16 0.9500 . ?
C16 C17 1.386(2) . ?
C17 H17 0.9500 . ?
C17 C18 1.391(2) . ?
C18 H18 0.9500 . ?
loop_
_geom_torsion_atom_site_label_1
_geom_torsion_atom_site_label_2
_geom_torsion_atom_site_label_3
_geom_torsion_atom_site_label_4
_geom_torsion
_geom_torsion_site_symmetry_1
_geom_torsion_site_symmetry_2
_geom_torsion_site_symmetry_3
_geom_torsion_site_symmetry_4
_geom_torsion_publ_flag
Br1 C8 C9 C10 -177.85(12) . . . . ?
P1 O1 C1 C2 -23.0(2) . . . . ?
P1 O1 C1 C6 158.99(11) . . . . ?
P1 O2 C13 C14 94.93(15) . . . . ?
P1 O2 C13 C18 -86.59(16) . . . . ?
P1 N1 C7 C8 -137.50(13) . . . . ?
P1 N1 C7 C12 43.0(2) . . . . ?
O1 P1 O2 C13 -167.62(11) . . . . ?
O1 P1 N1 C7 -59.46(14) . . . . ?
O1 C1 C2 C3 -177.79(14) . . . . ?
O1 C1 C6 C5 177.53(14) . . . . ?
O2 P1 O1 C1 -176.68(12) . . . . ?
O2 P1 N1 C7 42.05(14) . . . . ?
O2 C13 C14 C15 179.73(14) . . . . ?
O2 C13 C18 C17 -179.95(14) . . . . ?
O3 P1 O1 C1 61.95(14) . . . . ?
O3 P1 O2 C13 -46.36(13) . . . . ?
O3 P1 N1 C7 170.81(12) . . . . ?
N1 P1 O1 C1 -65.46(13) . . . . ?
N1 P1 O2 C13 79.89(12) . . . . ?
N1 C7 C8 Br1 -1.5(2) . . . . ?
N1 C7 C8 C9 -178.86(14) . . . . ?
N1 C7 C12 C11 179.09(14) . . . . ?
C1 C2 C3 C4 0.3(2) . . . . ?
C2 C1 C6 C5 -0.5(2) . . . . ?
C2 C3 C4 C5 -0.3(3) . . . . ?
C3 C4 C5 C6 -0.1(3) . . . . ?
C4 C5 C6 C1 0.6(3) . . . . ?
C6 C1 C2 C3 0.1(2) . . . . ?
C7 C8 C9 C10 -0.4(2) . . . . ?
C8 C7 C12 C11 -0.4(2) . . . . ?
C8 C9 C10 C11 -0.1(2) . . . . ?
C9 C10 C11 C12 0.3(2) . . . . ?
C10 C11 C12 C7 0.0(2) . . . . ?
C12 C7 C8 Br1 178.05(11) . . . . ?
C12 C7 C8 C9 0.7(2) . . . . ?
C13 C14 C15 C16 0.1(2) . . . . ?
C14 C13 C18 C17 -1.5(2) . . . . ?
C14 C15 C16 C17 -1.2(3) . . . . ?
C15 C16 C17 C18 1.0(3) . . . . ?
C16 C17 C18 C13 0.4(3) . . . . ?
C18 C13 C14 C15 1.3(2) . . . . ?

_cod_database_fobs_code 2108931
