#------------------------------------------------------------------------------
#$Date: 2020-05-16 08:18:51 +0300 (Sat, 16 May 2020) $
#$Revision: 252092 $
#$URL: file:///home/coder/svn-repositories/cod/cif/2/10/86/2108608.cif $
#------------------------------------------------------------------------------
#
# This file is available in the Crystallography Open Database (COD),
# http://www.crystallography.net/. The original data for this entry
# were provided by IUCr Journals, http://journals.iucr.org/.
#
# The file may be used within the scientific community so long as
# proper attribution is given to the journal article from which the
# data were obtained.
#
data_2108608
loop_
_publ_author_name
'Vadra, Nahir'
'Suarez, Sebastian A.'
'Slep, Leonardo D.'
'Manzano, Veronica E.'
'Halac, Emilia B.'
'Baggio, Ricardo F.'
'Cukiernik, Fabio D.'
_publ_section_title
;
 Synthesis and crystallographic, spectroscopic and computational
 characterization of 3,3',4,4'-substituted biphenyls: effects of O<i>R</i>
 substituents on the intra-ring torsion angle
;
_journal_coeditor_code           LO5065SUP1
_journal_issue                   3
_journal_name_full               'Acta Crystallographica Section B'
_journal_page_first
;
;
_journal_paper_doi               10.1107/S2052520620004102
_journal_volume                  76
_journal_year                    2020
_chemical_formula_moiety         'C28 H38 O6'
_chemical_formula_sum            'C28 H38 O6'
_chemical_formula_weight         470.58
_space_group_crystal_system      triclinic
_space_group_IT_number           2
_space_group_name_Hall           '-P 1'
_space_group_name_H-M_alt        'P -1'
_atom_sites_solution_hydrogens   mixed
_atom_sites_solution_primary     direct
_audit_creation_method           SHELXL-2018/1
_cell_angle_alpha                100.26(2)
_cell_angle_beta                 109.10(3)
_cell_angle_gamma                100.53(2)
_cell_formula_units_Z            1
_cell_length_a                   8.554(2)
_cell_length_b                   8.6844(17)
_cell_length_c                   9.810(3)
_cell_measurement_reflns_used    706
_cell_measurement_temperature    294(2)
_cell_measurement_theta_max      26.1980
_cell_measurement_theta_min      3.6600
_cell_volume                     654.5(3)
_computing_cell_refinement       'CrysAlisPro '
_computing_data_collection       'CrysAlisPro (Oxford Diffraction, 2009)'
_computing_data_reduction        'CrysAlisPro '
_computing_molecular_graphics    'SHELXTL   (Sheldrick, 2008)'
_computing_publication_material  'SHELXL-2018, PLATON (Spek, 2009)'
_computing_structure_refinement  'SHELXL-2018/1 (Sheldrick, 2015)'
_computing_structure_solution    'SHELXS-97 (Sheldrick 2008)'
_diffrn_ambient_temperature      294(2)
_diffrn_measured_fraction_theta_full 0.997
_diffrn_measured_fraction_theta_max 0.839
_diffrn_measurement_device_type  'Oxford Diffraction Gemini CCD S Ultra'
_diffrn_measurement_method       '\w scans, thick slices'
_diffrn_radiation_type           MoK\a
_diffrn_radiation_wavelength     0.71073
_diffrn_reflns_av_R_equivalents  0.1462
_diffrn_reflns_av_unetI/netI     0.0862
_diffrn_reflns_Laue_measured_fraction_full 0.997
_diffrn_reflns_Laue_measured_fraction_max 0.839
_diffrn_reflns_limit_h_max       11
_diffrn_reflns_limit_h_min       -11
_diffrn_reflns_limit_k_max       11
_diffrn_reflns_limit_k_min       -8
_diffrn_reflns_limit_l_max       11
_diffrn_reflns_limit_l_min       -13
_diffrn_reflns_number            4799
_diffrn_reflns_point_group_measured_fraction_full 0.997
_diffrn_reflns_point_group_measured_fraction_max 0.839
_diffrn_reflns_theta_full        25.250
_diffrn_reflns_theta_max         28.974
_diffrn_reflns_theta_min         3.633
_exptl_absorpt_coefficient_mu    0.083
_exptl_absorpt_correction_T_max  0.99
_exptl_absorpt_correction_T_min  0.96
_exptl_absorpt_correction_type   multi-scan
_exptl_absorpt_process_details   'CrysAlisPro, Oxford Diffraction (2009) '
_exptl_crystal_colour            colourless
_exptl_crystal_density_diffrn    1.194
_exptl_crystal_description       fragment
_exptl_crystal_F_000             254
_exptl_crystal_size_max          0.28
_exptl_crystal_size_mid          0.18
_exptl_crystal_size_min          0.14
_refine_diff_density_max         0.278
_refine_diff_density_min         -0.302
_refine_diff_density_rms         0.082
_refine_ls_extinction_method     none
_refine_ls_goodness_of_fit_ref   0.986
_refine_ls_hydrogen_treatment    constr
_refine_ls_matrix_type           full
_refine_ls_number_parameters     154
_refine_ls_number_reflns         2919
_refine_ls_number_restraints     0
_refine_ls_restrained_S_all      0.986
_refine_ls_R_factor_all          0.1305
_refine_ls_R_factor_gt           0.0693
_refine_ls_shift/su_max          0.000
_refine_ls_shift/su_mean         0.000
_refine_ls_structure_factor_coef Fsqd
_refine_ls_weighting_details
'w=1/[\s^2^(Fo^2^)+(0.0729P)^2^] where P=(Fo^2^+2Fc^2^)/3'
_refine_ls_weighting_scheme      calc
_refine_ls_wR_factor_gt          0.1457
_refine_ls_wR_factor_ref         0.1826
_reflns_Friedel_coverage         0.000
_reflns_number_gt                1554
_reflns_number_total             2919
_reflns_threshold_expression     'I > 2\s(I)'
_cod_data_source_file            lo5065sup1.cif
_cod_data_source_block           II
_cod_depositor_comments
;
The following automatic conversions were performed:

data item '_atom_sites_solution_primary' value 'direct methods' was
changed to 'direct'.

Automatic conversion script
Id: cif_fix_values 7556 2019-12-06 15:28:31Z antanas 
;
_cod_original_cell_volume        654.4(3)
_cod_database_code               2108608
_publcif_datablock.id            {4dff3fc4-199a-4453-9811-844b2ffc230e}
_shelx_shelxl_version_number     2018/1
_shelx_space_group_comment
;
The symmetry employed for this shelxl refinement is uniquely defined
by the following loop, which should always be used as a source of
symmetry information in preference to the above space-group names.
They are only intended as comments.
;
_shelx_res_file
;
TITL p1080c
    TMP.res
    created by SHELXL-2018/1 at 11:36:54 on 19-Oct-2019
CELL  0.71073   8.5535   8.6844   9.8100  100.260  109.104  100.532
ZERR     1.00   0.0024   0.0017   0.0031    0.021    0.028    0.020
LATT 1
SFAC C  H  O
UNIT 28 38 6
L.S. 20
BOND   $H
HTAB
ACTA 50.50
FMAP 2
PLAN 10

REM Instructions for potential hydrogen bonds
EQIV $2 -x+1, -y+1, -z+1
HTAB C2 O3_$2

EQIV $3 1-x, 1-y, 2-z
MPLA 6 C1 C2 C3 C4 c5 C6
MPLA 6 C1_$3 C2_$3 C3_$3 C4_$3 C5_$3 C6_$3

REM DFIX  0.98  0.0001 C14 H14A C14 H14B C14 H14C
REM DFIX  1.60  0.0001 H14A H14B H14B H14C H14C H14A
REM DFIX  2.034 0.0001 C13 H14A C13 H14B C13 H14C
REM DFIX -2.2   0.01   H14C H14A_$1 H14C H14B_$1 H14C H14C_$1

WGHT    0.072900
FVAR       1.00759
O1    3    0.709945    0.579697    0.733627    11.00000    0.05781    0.05096 =
         0.06275    0.01785    0.04312    0.02334
O2    3    0.561601    0.780253    0.865294    11.00000    0.06465    0.05062 =
         0.05631    0.01515    0.04061    0.01771
O3    3    0.333084    0.563638    0.749476    11.00000    0.07116    0.05717 =
         0.07254    0.01088    0.05054    0.00986
C1    1    0.605529    0.829839    0.467525    11.00000    0.05704    0.04687 =
         0.06405    0.01790    0.04499    0.01590
AFIX  43  0.9500
H1A   2    0.615786    0.839868    0.375759    11.00000   -1.20000
AFIX   0
C2    1    0.665171    0.711037    0.529097    11.00000    0.05038    0.04718 =
         0.06922    0.01417    0.04272    0.01485
AFIX  43  0.9500
H2A   2    0.716344    0.643038    0.480093    11.00000   -1.20000
AFIX   0
C3    1    0.651244    0.689988    0.661129    11.00000    0.04940    0.04122 =
         0.05461    0.01591    0.03240    0.01441
C4    1    0.571807    0.791551    0.726495    11.00000    0.05067    0.04397 =
         0.04368    0.01109    0.02977    0.01338
C5    1    0.513897    0.908582    0.665154    11.00000    0.04706    0.04151 =
         0.05932    0.00963    0.03505    0.01501
AFIX  43  0.9500
H5A   2    0.459982    0.974163    0.713264    11.00000   -1.20000
AFIX   0
C6    1    0.530818    0.936126    0.533310    11.00000    0.04229    0.04138 =
         0.04875    0.01065    0.02921    0.00741
C7    1    0.795273    0.477527    0.666413    11.00000    0.04723    0.04802 =
         0.06396    0.01181    0.03848    0.01823
AFIX  23  0.9900
H7A   2    0.895059    0.545241    0.655960    11.00000   -1.20000
H7B   2    0.715571    0.411779    0.565905    11.00000   -1.20000
AFIX   0
C8    1    0.853038    0.369161    0.764283    11.00000    0.05319    0.05117 =
         0.05871    0.01531    0.03464    0.02017
AFIX  23  0.9900
H8A   2    0.752030    0.303283    0.774489    11.00000   -1.20000
H8B   2    0.930365    0.436713    0.864875    11.00000   -1.20000
AFIX   0
C9    1    0.945815    0.256499    0.704766    11.00000    0.04809    0.05198 =
         0.06331    0.01805    0.03865    0.01615
AFIX  23  0.9900
H9A   2    0.870233    0.192240    0.602490    11.00000   -1.20000
H9B   2    1.049443    0.322470    0.698516    11.00000   -1.20000
AFIX   0
C10   1    0.998274    0.141650    0.800568    11.00000    0.04584    0.05643 =
         0.06281    0.01992    0.03431    0.02007
AFIX  23  0.9900
H10A  2    1.079320    0.206224    0.901028    11.00000   -1.20000
H10B  2    0.895489    0.081116    0.812170    11.00000   -1.20000
AFIX   0
C11   1    1.081218    0.021327    0.738550    11.00000    0.05780    0.05847 =
         0.08949    0.02549    0.05078    0.02568
AFIX  23  0.9900
H11A  2    1.002203   -0.040478    0.636505    11.00000   -1.20000
H11B  2    1.186836    0.081545    0.730988    11.00000   -1.20000
AFIX   0
C12   1    1.126398   -0.096790    0.832226    11.00000    0.05901    0.06015 =
         0.09393    0.02026    0.03736    0.02864
AFIX   3  0.9800
H12A  2    1.179948   -0.171670    0.785776    11.00000   -1.50000
H12B  2    1.207678   -0.036300    0.933906    11.00000   -1.50000
H12C  2    1.021008   -0.159660    0.838196    11.00000   -1.50000
AFIX   0
C13   1    0.432488    0.659395    0.862480    11.00000    0.07097    0.05151 =
         0.06740    0.02185    0.04924    0.03225
C14   1    0.434985    0.671563    1.017474    11.00000    0.10300    0.06895 =
         0.07094    0.03364    0.06172    0.04386
AFIX   3  0.9800
H14A  2    0.342355    0.584833    1.015274    11.00000   -1.50000
H14B  2    0.545305    0.660803    1.081744    11.00000   -1.50000
H14C  2    0.418795    0.776913    1.056754    11.00000   -1.50000

AFIX   0
HKLF 4




REM  p1080c
REM R1 =  0.0693 for    1554 Fo > 4sig(Fo)  and  0.1305 for all    2919 data
REM    154 parameters refined using      0 restraints

END

WGHT      0.0711      0.0000

REM Instructions for potential hydrogen bonds
HTAB C2 O3_$2

REM Highest difference peak  0.278,  deepest hole -0.302,  1-sigma level  0.082
Q1    1   0.4922  0.5036  1.0663  11.00000  0.05    0.28
Q2    1   0.8131  0.6464  0.8575  11.00000  0.05    0.26
Q3    1   0.6898  0.8851  0.8482  11.00000  0.05    0.23
Q4    1   0.4485  0.5159  0.8659  11.00000  0.05    0.22
Q5    1   1.0991  0.2212  0.9408  11.00000  0.05    0.22
Q6    1   1.3091  0.1101  1.0194  11.00000  0.05    0.21
Q7    1   0.4305  0.6053  0.9400  11.00000  0.05    0.21
Q8    1   1.1537  0.3246  1.0505  11.00000  0.05    0.20
Q9    1   0.3370  0.7461  1.0128  11.00000  0.05    0.20
Q10   1   0.5142  0.6340  1.2267  11.00000  0.05    0.20
;
_shelx_res_checksum              89282
_shelx_hkl_file
;
   3   1 -13   11.62    5.55
   4   1 -13     4.9    2.87
   3   2 -13   14.75    6.97
   4   2 -13   -0.85    5.51
   5   2 -13   13.83    4.61
   0   0 -12   -1.94    4.02
   1   0 -12   -1.87    2.53
   2   0 -12   41.03    10.2
   3   0 -12   -0.97    3.36
   4   0 -12    2.89     1.6
   0   1 -12    6.17    5.15
   1   1 -12   -5.48    5.98
   2   1 -12    0.46    1.75
   3   1 -12    4.32    4.07
   4   1 -12   29.35    8.75
   5   1 -12   32.53    8.36
   6   1 -12    7.13    4.44
   1   2 -12    -4.4    5.74
   2   2 -12    1.74    2.68
   3   2 -12   -8.11     6.7
   4   2 -12   -3.47    4.46
   5   2 -12    6.67    1.29
   6   2 -12   11.41    2.91
   7   2 -12   -0.38    3.62
   8   2 -12   11.67    4.53
   1   3 -12    2.58    2.99
   2   3 -12   -1.79    5.65
   3   3 -12    9.98    5.81
   4   3 -12    0.21    2.99
   5   3 -12   -0.66    1.88
   6   3 -12   -0.55    1.78
   2   4 -12   -3.46    3.34
   3   4 -12    10.5    4.97
   4   4 -12   -4.88       4
   5   4 -12   -1.99    4.82
   0  -1 -11    6.67    3.61
   1  -1 -11    8.48    4.51
   2  -1 -11   21.13    6.78
   3  -1 -11   -1.49    3.25
  -1   0 -11    0.95    1.73
   0   0 -11    4.76    3.46
   1   0 -11    1.08    2.08
   2   0 -11   -3.06    4.65
   3   0 -11   32.51    7.82
   4   0 -11    6.34    2.03
   5   0 -11   -1.13    1.58
   6   0 -11    4.61    2.01
  -1   1 -11    6.34    4.17
   0   1 -11   -2.33    4.03
   1   1 -11   -3.18    4.55
   2   1 -11   12.61    4.98
   3   1 -11   30.21    7.78
   4   1 -11   -0.07    0.86
   5   1 -11    10.3    3.89
   6   1 -11    3.04    3.36
   7   1 -11    0.62    2.89
   8   1 -11     5.6    1.44
  -1   2 -11    8.68    5.86
   0   2 -11    3.37    1.12
   1   2 -11    0.46    3.36
   2   2 -11   -2.58    2.14
   3   2 -11   -0.13    2.78
   4   2 -11   -1.66    3.65
   5   2 -11   49.65    8.18
   6   2 -11   23.17    5.19
   7   2 -11    3.32    2.49
   8   2 -11   17.39    5.79
  -1   3 -11   15.89    6.83
   0   3 -11    5.75    3.45
   1   3 -11    4.21    4.58
   2   3 -11  -10.06    5.97
   3   3 -11    1.14    1.63
   4   3 -11    2.08    3.51
   5   3 -11   -3.19    3.86
   6   3 -11    7.12    4.16
   7   3 -11   46.51   10.11
   8   3 -11   19.23    8.17
  -1   4 -11    6.54    6.08
   0   4 -11    2.26    2.53
   1   4 -11    0.57     3.2
   2   4 -11   -0.68       2
   3   4 -11    4.74    3.05
   4   4 -11   10.16    5.43
   5   4 -11    3.49    2.19
   6   4 -11    0.47    3.94
   7   4 -11   -10.6    6.32
   0   5 -11   -0.26    4.58
   1   5 -11    9.31    5.47
   2   5 -11   -0.14    1.42
   3   5 -11   -0.23    1.56
   4   5 -11     2.6    2.35
   5   5 -11     5.4    3.78
   1   6 -11     6.5    4.33
   2   6 -11   10.88    4.99
   3   6 -11   -0.41    2.22
   4   6 -11     1.3    2.75
   1  -2 -10  -10.05    5.45
   2  -2 -10   11.05    4.77
   0  -1 -10    6.94    5.18
   1  -1 -10    0.37    4.04
   2  -1 -10   15.17       5
   3  -1 -10   -5.59    3.29
   4  -1 -10    4.26    2.36
   5  -1 -10   11.34    3.28
   6  -1 -10    3.32    1.81
  -2   0 -10    1.57    2.36
  -1   0 -10     7.1    3.46
   0   0 -10   33.82    8.32
   1   0 -10   36.99    8.11
   2   0 -10   13.54    4.68
   3   0 -10   11.82    4.32
   4   0 -10    0.46    1.13
   5   0 -10    0.95    1.22
   6   0 -10    2.27    1.33
   7   0 -10     5.3    2.93
   8   0 -10     2.3    2.71
  -2   1 -10    1.38    3.11
  -1   1 -10    0.51    2.06
   0   1 -10    1.53    2.75
   1   1 -10    2.88    3.16
   2   1 -10    16.7    4.87
   3   1 -10   42.37    8.43
   4   1 -10   18.58    5.43
   5   1 -10   37.24    7.12
   6   1 -10    1.88    2.01
   7   1 -10    2.21    2.06
   8   1 -10    7.08    3.07
   9   1 -10    -0.2    2.81
  -3   2 -10   -9.69    5.84
  -2   2 -10   -7.84    5.49
  -1   2 -10    5.22    3.82
   0   2 -10   -0.07    2.93
   1   2 -10    3.71    3.86
   2   2 -10    3.12    3.45
   3   2 -10   -1.86    4.01
   4   2 -10    6.01    1.66
   5   2 -10     5.5    1.22
   6   2 -10    5.01    3.04
   7   2 -10   32.98    8.18
   8   2 -10  -12.92    6.96
   9   2 -10    8.69    4.53
  -3   3 -10    4.46    4.89
  -2   3 -10   -5.85    6.89
  -1   3 -10   -3.14    4.76
   0   3 -10     6.7     2.2
   1   3 -10   20.28    7.32
   2   3 -10     0.1    2.88
   3   3 -10    5.36    2.07
   4   3 -10   -0.21    1.71
   5   3 -10   11.32    4.65
   6   3 -10   27.95    5.56
   7   3 -10   27.97    7.99
   8   3 -10    4.51    3.15
   8   3 -10    5.03    5.44
  -2   4 -10   -3.22    4.51
  -1   4 -10   -1.08    2.26
   0   4 -10   -2.44    3.06
   1   4 -10      -3    4.62
   2   4 -10    9.77    3.81
   3   4 -10    5.87    3.96
   4   4 -10    7.25    3.47
   5   4 -10    7.02    2.89
   6   4 -10   -2.67    4.06
   7   4 -10    0.54    4.05
   7   4 -10    8.91    4.24
  -2   5 -10   -2.38    3.68
  -1   5 -10   -0.35    2.56
   0   5 -10    12.4    6.73
   1   5 -10    0.49     1.7
   2   5 -10    5.63    1.91
   3   5 -10    0.29     2.1
   4   5 -10    4.77    4.15
   5   5 -10   10.67    5.45
   6   5 -10    2.28    2.73
   6   5 -10   -6.99    5.54
   7   5 -10   -0.26    2.24
  -2   6 -10   -3.61    4.16
  -1   6 -10   15.19    6.67
   0   6 -10    0.52    3.43
   1   6 -10    4.95    3.73
   2   6 -10   14.15    5.21
   3   6 -10    2.23    1.16
   4   6 -10    7.32    4.79
   5   6 -10    4.99    4.55
   5   6 -10    2.33    2.35
   6   6 -10    -0.4     3.8
   7   6 -10   -3.16    3.19
  -1   7 -10    3.12    2.35
   0   7 -10    0.87    2.72
   1   7 -10    3.42    4.49
   2   7 -10   -0.09     3.2
   3   7 -10    2.84    2.44
   4   7 -10     3.9     1.3
   6   7 -10    -0.9     4.5
   1  -2  -9    1.22    0.72
   2  -2  -9    3.66    3.35
   3  -2  -9   -2.01    3.12
   4  -2  -9     7.6    2.06
   5  -2  -9   18.88    3.93
  -1  -1  -9   -0.02    1.05
   0  -1  -9      40    8.66
   1  -1  -9    3.29    2.28
   2  -1  -9     9.7    3.22
   3  -1  -9   -0.83    2.89
   4  -1  -9    5.58    2.13
   5  -1  -9    9.82    2.78
   6  -1  -9    2.21    2.22
   7  -1  -9   22.55    4.47
  -2   0  -9    0.29       2
  -1   0  -9   11.09    4.23
   0   0  -9    2.55    1.27
   1   0  -9   -1.52    2.04
   2   0  -9    2.29    2.83
   3   0  -9   13.57    3.81
   4   0  -9   18.49    4.48
   5   0  -9   23.25    4.44
   6   0  -9    5.47    2.27
   7   0  -9   -2.24     2.6
   8   0  -9    1.48    1.68
   9   0  -9   17.23    4.28
  -3   1  -9    2.46    2.58
  -2   1  -9   21.43    6.69
  -1   1  -9    7.86    2.55
   0   1  -9   26.63    7.16
   1   1  -9    22.9    5.87
   2   1  -9    3.76     3.4
   3   1  -9   21.32    3.47
   4   1  -9    5.33     1.9
   5   1  -9    9.29    3.85
   6   1  -9   -0.06    2.07
   7   1  -9   28.24    6.56
   8   1  -9   11.62    4.56
   9   1  -9    5.75    5.29
  -4   2  -9   -1.26    4.03
  -3   2  -9    8.41    4.41
  -2   2  -9    8.04    4.45
  -1   2  -9    35.2    8.59
   0   2  -9   -1.45    2.87
   1   2  -9    12.2    6.03
   2   2  -9   60.51    8.76
   3   2  -9    99.7   10.69
   4   2  -9   62.15    7.97
   5   2  -9    33.8    6.74
   6   2  -9   54.37    9.27
   7   2  -9   -0.12    2.73
   7   2  -9   -1.11    3.22
   8   2  -9    4.28    2.84
   8   2  -9    5.48    2.68
   9   2  -9    -0.6    3.37
  -4   3  -9    1.03    0.98
  -3   3  -9    2.31     3.2
  -2   3  -9    0.62    1.72
  -1   3  -9   41.03    8.27
   0   3  -9    1.69    2.39
   1   3  -9   -1.22    3.04
   2   3  -9    8.96    3.06
   3   3  -9   -2.11    0.68
   4   3  -9   21.58    4.47
   5   3  -9   77.67    10.6
   6   3  -9   71.34    12.1
   6   3  -9   57.52    9.33
   7   3  -9   33.71    9.25
   7   3  -9   21.35    5.67
   8   3  -9   10.93    3.72
  -4   4  -9    2.83    0.99
  -3   4  -9       7    4.14
  -2   4  -9    0.22    2.47
  -1   4  -9    2.78    1.64
   0   4  -9    6.32    3.68
   1   4  -9   17.65    5.04
   2   4  -9   33.02    6.55
   3   4  -9     0.1    0.81
   4   4  -9   28.85    6.55
   5   4  -9    7.45    3.84
   5   4  -9     5.9    2.84
   6   4  -9    5.74    4.22
   6   4  -9    1.11    2.16
   7   4  -9   30.32    8.88
   7   4  -9   24.34    5.86
   8   4  -9    4.88    2.93
  -4   5  -9    1.53    2.87
  -3   5  -9    5.13    3.68
  -2   5  -9   -3.46     2.9
  -1   5  -9   -3.23    4.11
   0   5  -9    1.99    1.57
   1   5  -9   -1.89    3.43
   2   5  -9    5.27    3.65
   3   5  -9   14.04    4.15
   4   5  -9   27.42    6.76
   4   5  -9   29.71    6.79
   5   5  -9   -0.87    2.78
   5   5  -9   -4.17    4.01
   6   5  -9    2.05    3.89
   6   5  -9   -1.17    3.06
   7   5  -9   -4.85     7.3
   7   5  -9   -5.46    4.91
  -3   6  -9    2.73    1.92
  -2   6  -9    4.09    1.06
  -1   6  -9    1.12    1.66
   0   6  -9    4.48    2.65
   1   6  -9    5.98    2.21
   2   6  -9    1.68    1.02
   3   6  -9    1.08    2.24
   4   6  -9   16.45     6.3
   4   6  -9   11.76    3.62
   5   6  -9    1.24    2.72
   5   6  -9    1.48    0.95
   6   6  -9   13.86    8.09
   6   6  -9    8.32    3.62
   7   6  -9    6.66    3.98
  -3   7  -9    3.04    3.01
  -2   7  -9    0.92    1.94
  -1   7  -9    4.56    4.63
   0   7  -9   15.67    5.83
   1   7  -9   -3.55    3.02
   2   7  -9    6.21    4.17
   3   7  -9   -1.52    3.27
   4   7  -9   -3.07    1.67
   4   7  -9    0.67    2.31
   5   7  -9    2.09    3.79
   5   7  -9    6.77     4.4
   6   7  -9    7.25    3.73
  -2   8  -9   20.94     7.3
  -1   8  -9    6.35    1.57
   0   8  -9    3.47    1.71
   1   8  -9   10.81    4.45
   2   8  -9   14.13    5.69
   3   8  -9     5.3    4.83
   4   8  -9   19.82    7.69
   6   8  -9   -1.73    5.36
   0   9  -9    8.15    4.33
   1   9  -9    6.05    4.07
   2  -3  -8  244.26   18.61
   3  -3  -8  345.04   19.84
   4  -3  -8   30.21    4.48
   0  -2  -8    0.62    2.63
   1  -2  -8   24.77    5.91
   2  -2  -8   32.86    6.24
   3  -2  -8    2.05    1.74
   4  -2  -8    74.6    7.17
   5  -2  -8   410.6   16.31
   6  -2  -8    9.65    2.73
   7  -2  -8   15.09    3.76
  -1  -1  -8    1.69    1.62
   0  -1  -8   27.56    6.08
   1  -1  -8   14.27    4.41
   2  -1  -8   -0.76    2.01
   3  -1  -8   -0.23    0.71
   4  -1  -8    2.22    0.86
   5  -1  -8   11.07    3.57
   6  -1  -8   64.65    7.66
   7  -1  -8  328.72   21.37
   8  -1  -8    3.47    3.37
  -2   0  -8    3.73    2.96
  -1   0  -8   13.71     4.9
   0   0  -8   35.63    6.84
   1   0  -8   69.12    8.47
   2   0  -8    36.9    6.72
   3   0  -8    9.93    2.61
   4   0  -8   38.16    5.91
   5   0  -8   16.76    3.35
   6   0  -8   19.95    4.99
   7   0  -8    5.11    2.67
   9   0  -8    7.49       3
  -3   1  -8    2.19       2
  -2   1  -8   -3.35    3.24
  -1   1  -8       1    1.44
   0   1  -8   13.96    4.41
   1   1  -8    2.95    1.74
   2   1  -8     1.4    1.22
   3   1  -8   53.45    7.13
   4   1  -8   21.01    4.35
   5   1  -8   -2.77    2.31
   6   1  -8   13.97    2.05
   7   1  -8   12.98       4
   8   1  -8   -3.46     5.5
   9   1  -8   -0.17    2.77
  -4   2  -8   39.94    8.65
  -3   2  -8  181.92    18.7
  -2   2  -8   -0.95    1.92
  -1   2  -8   54.61     8.9
   0   2  -8   -1.04    1.59
   1   2  -8    3.14    2.33
   2   2  -8    0.25    2.07
   3   2  -8    2.74    2.12
   4   2  -8   22.52     4.3
   5   2  -8   41.92    7.11
   6   2  -8    4.46    1.99
   6   2  -8   -2.39    2.15
   7   2  -8    28.3    5.99
   8   2  -8    1.17       3
   9   2  -8    3.68    2.54
  -4   3  -8    2.87     2.7
  -3   3  -8    4.54    0.95
  -2   3  -8   28.98    6.87
  -1   3  -8  118.13   13.92
   0   3  -8    27.8    7.12
   1   3  -8   43.69    7.77
   2   3  -8    8.71    3.02
   3   3  -8   17.66    4.21
   4   3  -8    29.3    6.17
   5   3  -8    15.4    4.71
   5   3  -8   24.46    6.37
   6   3  -8    6.74    3.85
   6   3  -8    7.44    2.46
   7   3  -8   38.42    8.16
   8   3  -8    5.75    3.93
   9   3  -8    2.03     3.8
  -5   4  -8   -1.18    2.42
  -4   4  -8   11.82    4.76
  -3   4  -8   12.18    4.24
  -2   4  -8    3.48    3.18
  -1   4  -8   31.84    7.71
   0   4  -8  148.99   15.62
   1   4  -8   77.76    9.81
   2   4  -8   -1.37    2.95
   3   4  -8   23.93    5.21
   4   4  -8   68.56    8.96
   4   4  -8   72.99   10.21
   5   4  -8   74.66   11.92
   5   4  -8   60.54    8.06
   6   4  -8   46.45    7.27
   6   4  -8   51.23    9.98
   7   4  -8    8.03    2.12
   8   4  -8   37.12    7.44
  -5   5  -8    3.77    3.36
  -4   5  -8    3.81    3.17
  -3   5  -8    1.64    1.89
  -2   5  -8   -2.44    4.04
  -1   5  -8    17.6    6.03
   0   5  -8   11.76    4.15
   1   5  -8    4.16       3
   2   5  -8  104.45   10.53
   3   5  -8     3.8    1.58
   3   5  -8    2.18    1.98
   4   5  -8    2.12    1.47
   4   5  -8    3.42     1.2
   5   5  -8   64.13   12.83
   5   5  -8   34.08    5.81
   6   5  -8   -0.46    1.43
   6   5  -8    4.95    6.26
   7   5  -8   11.67    3.63
   8   5  -8   22.77    4.77
  -5   6  -8   -4.76    4.79
  -4   6  -8    0.88     1.7
  -3   6  -8    2.14    1.45
  -2   6  -8    3.19    3.24
  -1   6  -8     1.3    1.65
   0   6  -8      11    3.36
   1   6  -8   31.29    5.76
   2   6  -8   44.47    7.61
   3   6  -8    2.61    1.43
   3   6  -8    2.73    1.42
   4   6  -8   80.65    9.14
   4   6  -8   95.58   13.82
   5   6  -8   -1.18    4.65
   5   6  -8   -3.39    3.87
   6   6  -8     4.8    1.75
   6   6  -8   21.31    8.97
   7   6  -8   -5.66    4.11
  -4   7  -8    0.95    1.63
  -3   7  -8   -1.03    1.82
  -2   7  -8     9.8    5.28
  -1   7  -8     6.1    3.51
   0   7  -8   -0.09    2.65
   1   7  -8    1.57    1.98
   2   7  -8    9.22    4.04
   3   7  -8    0.58    2.23
   3   7  -8    6.77    3.39
   4   7  -8   -2.75    5.46
   4   7  -8    0.56    0.95
   5   7  -8   -1.81    5.82
   5   7  -8    5.82    4.27
   6   7  -8    0.73    3.15
   6   7  -8    7.96    2.94
   7   7  -8    0.52    3.16
  -4   8  -8    6.39    5.11
  -3   8  -8    1.42    2.06
  -2   8  -8    3.44    3.81
  -1   8  -8   -1.79    2.62
   0   8  -8   18.86    5.97
   1   8  -8    5.12    2.79
   2   8  -8    0.79    1.52
   3   8  -8    2.93    1.51
   4   8  -8    8.99    4.44
   5   8  -8   -3.75    4.35
   6   8  -8    4.43    3.58
  -3   9  -8   -0.92    2.83
  -2   9  -8    9.32    5.37
  -1   9  -8   22.52    6.65
   0   9  -8   22.07    6.35
   1   9  -8   10.44    4.88
   2   9  -8   -8.38     4.7
   3   9  -8    7.85    3.75
  -2  10  -8    3.13    2.06
  -1  10  -8   -8.51    4.72
   0  10  -8     4.7    3.17
   1  10  -8    0.23    2.86
   2  -3  -7  127.65   11.47
   3  -3  -7  246.71   14.35
   4  -3  -7   95.78    7.19
   5  -3  -7    5.96    1.82
   0  -2  -7   39.69    6.79
   1  -2  -7   65.29    7.86
   2  -2  -7   139.6   10.67
   3  -2  -7  314.56    14.2
   4  -2  -7  296.25   12.12
   5  -2  -7  115.17    7.93
   6  -2  -7   42.49    5.43
   7  -2  -7    0.65     0.6
  -1  -1  -7    1.67    1.17
   0  -1  -7    3.33    2.41
   1  -1  -7     5.7    2.68
   2  -1  -7   23.26    3.82
   3  -1  -7    3.21    1.42
   4  -1  -7   48.43    5.58
   5  -1  -7  299.82   16.02
   6  -1  -7  459.72   20.94
   9  -1  -7    5.04    3.78
  10  -1  -7   12.57    4.68
  -2   0  -7   26.27    5.91
  -1   0  -7   41.66    7.42
   0   0  -7   34.84    6.03
   1   0  -7    8.92    2.15
   2   0  -7    2.29    1.27
   3   0  -7    0.78    0.69
   4   0  -7   17.92    3.79
   5   0  -7    3.66     2.5
   7   0  -7   379.5   23.08
   8   0  -7  646.68   31.94
   9   0  -7    4.37    3.89
  10   0  -7   18.91    6.53
  -3   1  -7   11.44    4.23
  -2   1  -7   28.95    5.38
  -1   1  -7   28.51    5.57
   0   1  -7   11.86    2.85
   1   1  -7    5.24    1.89
   2   1  -7   -0.93    1.86
   3   1  -7   44.17    6.39
   4   1  -7   -1.01    2.03
   5   1  -7   -0.62    1.64
   5   1  -7   -2.68     3.4
   6   1  -7   25.49    5.31
   7   1  -7    47.6    7.21
   8   1  -7    0.22    2.75
   9   1  -7   33.87    6.41
  10   1  -7   80.69    9.66
  -4   2  -7   10.59    4.79
  -3   2  -7    9.29     4.8
  -2   2  -7    72.3     9.3
  -1   2  -7    1.64     1.3
   0   2  -7    1.81    1.42
   1   2  -7    3.14    1.73
   2   2  -7     3.6    2.11
   3   2  -7    1.95    1.71
   4   2  -7    3.38    1.62
   4   2  -7    2.63    2.05
   5   2  -7  246.01   16.75
   5   2  -7   266.3   17.94
   6   2  -7   33.28    6.99
   7   2  -7   23.26    4.64
   8   2  -7    -1.8    3.47
   9   2  -7   -2.11    3.24
  -5   3  -7    1.97    1.59
  -4   3  -7   32.98    7.52
  -3   3  -7  202.22   17.01
  -2   3  -7  313.92   20.45
  -1   3  -7   -1.35    1.57
   0   3  -7    3.17    1.94
   1   3  -7    2.41    1.59
   2   3  -7    9.61    2.95
   3   3  -7    1.33    1.05
   3   3  -7    0.02    0.64
   4   3  -7   25.97    5.57
   4   3  -7   21.58    4.48
   5   3  -7   69.83     8.8
   6   3  -7  105.23   10.56
   7   3  -7    0.25    2.73
   8   3  -7   -5.64    3.75
   9   3  -7    7.95    2.04
  -5   4  -7    3.22    2.71
  -4   4  -7    1.19    2.14
  -3   4  -7    1.34    1.33
  -2   4  -7   32.17    6.08
  -1   4  -7  250.46   20.04
   0   4  -7  416.18   22.14
   1   4  -7   37.16    5.74
   2   4  -7     3.2    1.04
   3   4  -7   89.73    8.64
   3   4  -7   93.68    9.91
   4   4  -7    5.48    3.16
   4   4  -7    2.93    1.45
   5   4  -7    2.74    2.46
   6   4  -7   10.85    3.99
   7   4  -7    2.62    2.26
   8   4  -7    2.24    2.31
  -6   5  -7    4.86    3.75
  -5   5  -7       1    2.34
  -4   5  -7    2.67    1.55
  -3   5  -7    7.82    4.05
  -2   5  -7   15.99    5.17
  -1   5  -7    2.73    2.32
   0   5  -7   38.35    5.95
   1   5  -7  271.16      17
   2   5  -7  444.44    17.9
   2   5  -7   477.6   23.06
   3   5  -7   18.43    4.78
   3   5  -7   17.68    3.69
   4   5  -7  146.64   12.22
   4   5  -7  195.41   18.91
   5   5  -7     7.8    2.63
   6   5  -7    5.54    3.31
   7   5  -7    0.88     2.8
   8   5  -7    0.65    2.85
  -6   6  -7    -2.7    2.94
  -5   6  -7     3.3    2.97
  -4   6  -7    2.96     2.1
  -3   6  -7    3.85    2.94
  -2   6  -7   -0.16    1.09
  -1   6  -7    0.62    1.06
   0   6  -7    2.53    2.22
   1   6  -7   -1.15    2.12
   2   6  -7   48.87    7.24
   2   6  -7    64.9    7.26
   3   6  -7  190.93   13.07
   3   6  -7  180.42   15.99
   4   6  -7   12.01    3.68
   4   6  -7    7.57    0.93
   5   6  -7   -2.56     3.8
   6   6  -7   -0.94    0.89
   7   6  -7    1.75    3.35
  -6   7  -7   -0.29    1.58
  -5   7  -7    5.27    3.87
  -4   7  -7   -1.27    1.74
  -3   7  -7   -3.42    2.93
  -2   7  -7    4.63     3.7
  -1   7  -7     8.4    3.73
   0   7  -7   21.65    4.89
   1   7  -7   73.88    8.84
   2   7  -7   76.71    7.41
   2   7  -7   73.55    9.86
   3   7  -7   26.66     5.1
   3   7  -7    23.7    5.67
   4   7  -7    8.79    2.59
   4   7  -7    5.35    1.44
   5   7  -7  144.65   14.55
   5   7  -7  174.98   23.21
   6   7  -7   -0.24    3.14
   7   7  -7    9.17    3.31
  -5   8  -7    9.29    5.49
  -4   8  -7    4.78    3.18
  -3   8  -7    4.05    2.73
  -2   8  -7     0.9    2.32
  -1   8  -7    1.16    1.76
   0   8  -7   -0.56    1.25
   1   8  -7    3.99    2.71
   2   8  -7   -1.37     3.3
   3   8  -7    2.31    2.53
   3   8  -7    3.12    1.61
   4   8  -7   19.45    9.26
   4   8  -7   11.76    3.92
   5   8  -7   10.27    4.81
   5   8  -7    7.26    5.99
   6   8  -7    4.92    2.91
  -5   9  -7     3.3    1.29
  -4   9  -7    2.44    1.49
  -3   9  -7    1.65    1.54
  -2   9  -7    1.83     1.9
  -1   9  -7    2.98    2.14
   0   9  -7    4.76    2.38
   1   9  -7    4.54    0.96
   2   9  -7    2.15    1.86
   3   9  -7   -3.92    5.48
   4   9  -7   -4.62    5.31
   5   9  -7    3.79    2.69
  -4  10  -7    8.81    5.16
  -3  10  -7    5.41     2.9
  -2  10  -7    0.42    1.39
  -1  10  -7    5.32    2.37
   0  10  -7    6.83    2.75
   1  10  -7    9.11    4.29
   2  10  -7   -1.21    2.97
  -1  11  -7     9.1    3.04
   0  11  -7   -7.49    4.23
   2  -3  -6    2.35    0.73
   3  -3  -6  253.87   11.58
   4  -3  -6   44.84    4.26
   5  -3  -6    1.56    0.87
   6  -3  -6    3.63    1.84
   0  -2  -6   30.25    5.48
   1  -2  -6   11.43    2.59
   2  -2  -6   11.94    2.54
   3  -2  -6   65.62    5.61
   4  -2  -6   31.14    3.37
   5  -2  -6  503.42   17.52
   9  -2  -6   10.82    2.01
  10  -2  -6    1.03    2.57
  11  -2  -6    2.51    4.68
  -1  -1  -6   170.6   13.71
   0  -1  -6  272.38    15.7
   1  -1  -6  116.91    8.64
   2  -1  -6    3.97    1.38
   3  -1  -6   29.11    3.53
   4  -1  -6  313.78   14.62
   5  -1  -6  408.88   17.14
   7  -1  -6  276.42   18.42
   8  -1  -6   -0.25    1.22
   9  -1  -6    62.3    8.52
  10  -1  -6    7.87    5.01
  -2   0  -6    3.72    1.24
  -1   0  -6    6.53    2.65
   0   0  -6   24.65    4.14
   1   0  -6   97.15    8.88
   2   0  -6  258.48   12.59
   3   0  -6   62.74    6.53
   4   0  -6    0.42    0.68
   5   0  -6    3.18    1.78
   6   0  -6   38.76    5.58
   7   0  -6  157.46   12.74
   8   0  -6    32.6    5.82
   9   0  -6    8.86    4.45
  10   0  -6   -5.24    4.02
  -3   1  -6   18.62    5.29
  -2   1  -6   35.07    6.03
  -1   1  -6   44.69    5.99
   0   1  -6   34.23    4.82
   1   1  -6   36.88    4.86
   2   1  -6    3.32    1.36
   3   1  -6   11.87    2.98
   4   1  -6   24.99     4.1
   4   1  -6   24.75    4.39
   5   1  -6   29.26    5.07
   6   1  -6   72.56    8.83
   7   1  -6  111.54   10.84
   8   1  -6  175.75   15.05
   9   1  -6  242.12   18.42
  10   1  -6   -3.21    2.55
  -4   2  -6   11.03    3.53
  -3   2  -6  110.88   11.36
  -2   2  -6   46.17    6.33
  -1   2  -6   11.89    2.89
   0   2  -6   22.49    4.36
   1   2  -6   29.98    5.08
   2   2  -6     1.1    1.74
   3   2  -6   21.71    3.97
   3   2  -6   27.99    5.23
   4   2  -6   53.67    6.26
   5   2  -6   21.81    4.06
   6   2  -6     1.3    1.63
   7   2  -6    9.64    2.64
   8   2  -6    3.27    1.73
   9   2  -6    7.84    2.98
  -5   3  -6    0.24    0.68
  -4   3  -6    1.48    0.66
  -3   3  -6    2.79    1.81
  -2   3  -6   -0.55    1.01
   0   3  -6    2.28     1.4
   1   3  -6   107.4     9.4
   2   3  -6    1.51    0.94
   2   3  -6    1.34    1.32
   3   3  -6   74.19    7.75
   3   3  -6   74.32    8.57
   4   3  -6  122.51    10.1
   5   3  -6   70.91    8.63
   6   3  -6   38.08    6.77
   7   3  -6    0.58     2.2
   8   3  -6   -0.73     1.1
   9   3  -6     3.9    3.54
  -5   4  -6    2.75    2.77
  -4   4  -6    2.19    2.03
  -3   4  -6    8.92    2.42
  -2   4  -6  103.74    9.97
  -1   4  -6  110.17   11.04
   0   4  -6    3.22    2.09
   1   4  -6    -0.6    1.34
   2   4  -6   20.72    3.83
   2   4  -6   19.07    3.92
   3   4  -6   -0.03    0.69
   3   4  -6    0.52    1.24
   4   4  -6   25.48    4.72
   5   4  -6    4.26    1.72
   6   4  -6    0.62    3.38
   7   4  -6    4.51     3.1
   8   4  -6   15.56    5.02
   9   4  -6   -9.58     4.8
  -6   5  -6    5.39    2.68
  -5   5  -6   32.62    6.59
  -4   5  -6    3.81    2.49
  -3   5  -6   12.49    3.76
  -2   5  -6   12.51     3.1
  -1   5  -6   82.25    8.94
   0   5  -6  249.03   15.24
   1   5  -6  159.11    9.13
   1   5  -6  152.85   11.47
   2   5  -6  209.23   11.51
   2   5  -6  187.67   13.16
   3   5  -6    2.98    1.37
   3   5  -6    1.96     1.5
   4   5  -6   71.99    9.02
   5   5  -6    1.39    2.47
   6   5  -6   -0.89    3.41
   7   5  -6    0.22    2.93
   8   5  -6    3.09    1.95
  -6   6  -6     0.1    0.94
  -5   6  -6    0.72     0.9
  -4   6  -6    0.78    1.55
  -3   6  -6    3.92    1.66
  -2   6  -6   -1.93     2.4
  -1   6  -6   15.93    4.15
   0   6  -6   -0.42    0.62
   1   6  -6   67.71    5.63
   1   6  -6   65.55    7.52
   2   6  -6  392.32   16.94
   2   6  -6  391.84   20.94
   3   6  -6  511.12   22.27
   3   6  -6  607.13   32.39
   4   6  -6   12.19     3.6
   5   6  -6   35.82    6.47
   6   6  -6   13.59    4.29
   7   6  -6    2.32    2.23
  -6   7  -6    4.84    3.57
  -6   7  -6    4.95    3.36
  -5   7  -6    8.44    4.27
  -4   7  -6    4.79    2.39
  -3   7  -6     0.4    1.17
  -2   7  -6    3.65    2.92
  -1   7  -6   24.74    5.33
   0   7  -6    22.3    4.31
   1   7  -6   -2.46    2.12
   1   7  -6    2.32    1.63
   2   7  -6   -2.83    2.93
   2   7  -6    0.88    0.85
   3   7  -6   40.23    7.92
   3   7  -6   50.32    7.43
   4   7  -6  204.64   16.29
   5   7  -6  106.83    11.7
   6   7  -6    1.36    0.94
   7   7  -6    0.17    2.09
  -6   8  -6   -0.06    2.19
  -6   8  -6    3.28    3.21
  -5   8  -6   -4.42    3.96
  -4   8  -6    4.34    2.96
  -3   8  -6    0.22    2.53
  -2   8  -6    0.33    1.28
  -1   8  -6    3.55    1.27
   0   8  -6   11.81    3.56
   1   8  -6   11.87    3.11
   2   8  -6    8.99     3.5
   2   8  -6    9.53    3.23
   3   8  -6   18.88    6.86
   3   8  -6   10.15    3.22
   4   8  -6     2.3    1.96
   4   8  -6     7.8    5.48
   5   8  -6   10.23    3.32
   6   8  -6   54.29    8.48
  -6   9  -6   16.22    6.31
  -5   9  -6    9.94    6.16
  -5   9  -6     6.2     2.2
  -4   9  -6    2.03    1.69
  -3   9  -6    5.65     3.5
  -2   9  -6    4.78    2.57
  -1   9  -6    6.74    3.46
   0   9  -6     1.9    0.66
   1   9  -6   -0.67     2.3
   2   9  -6    -0.5    3.27
   3   9  -6    6.33     4.6
   4   9  -6   11.64    6.17
   4   9  -6    4.31    1.43
   5   9  -6  -16.46    6.51
  -3  10  -6    9.69    5.03
  -2  10  -6    8.08    1.97
  -1  10  -6    4.58    2.37
   0  10  -6    2.81    2.63
   1  10  -6    2.06    1.79
   2  10  -6    1.55    1.89
   3  10  -6   -3.04    1.59
   0  11  -6   -7.27    3.88
   1  11  -6   -6.83    4.04
   6  -4  -5   33.38    3.28
   2  -3  -5   57.28    4.91
   3  -3  -5  125.45    6.33
   4  -3  -5  535.08   10.56
   5  -3  -5    12.7     2.2
   0  -2  -5   64.48    6.66
   1  -2  -5   13.03    2.52
   2  -2  -5   46.08    4.15
   3  -2  -5   42.01    3.58
   4  -2  -5    3.55    1.45
   7  -2  -5   25.35    5.83
   8  -2  -5   21.65    5.82
   9  -2  -5    0.23    3.09
  10  -2  -5   -3.75    4.82
  11  -2  -5    1.17    2.38
  -3  -1  -5   13.57    3.42
  -1  -1  -5  102.69    9.29
   0  -1  -5  136.47    9.69
   1  -1  -5   58.32    5.16
   2  -1  -5  202.65    8.87
   3  -1  -5  162.37    8.94
   4  -1  -5   11.28    2.28
   6  -1  -5  114.34   10.43
   7  -1  -5   75.92    8.76
   8  -1  -5   14.62    4.78
   9  -1  -5    8.32    1.48
  10  -1  -5    7.44    5.45
  11  -1  -5   -6.72    5.72
  -2   0  -5   15.02    3.33
  -1   0  -5  117.68    9.19
   0   0  -5  249.61   11.81
   1   0  -5  177.88    9.68
   2   0  -5   -0.02    0.44
   3   0  -5   16.85    3.31
   4   0  -5   27.37    4.82
   5   0  -5   80.35    8.25
   6   0  -5   79.14    8.57
   7   0  -5   52.43    7.28
   8   0  -5  268.83   18.07
   9   0  -5   15.75    4.37
  10   0  -5    7.97    2.69
  -3   1  -5    31.8    5.78
  -2   1  -5    9.81    3.03
  -1   1  -5    4.82     1.2
   0   1  -5  132.31    9.38
   1   1  -5  749.93   20.73
   2   1  -5 1191.17   28.89
   3   1  -5  567.74   19.51
   3   1  -5  554.07   19.38
   4   1  -5   -0.07    1.97
   5   1  -5  164.95   11.91
   6   1  -5   20.89    3.88
   7   1  -5   10.04    1.51
   8   1  -5   60.69     7.9
   9   1  -5   22.45    4.44
  10   1  -5    30.6    6.67
  -4   2  -5     0.2    1.41
  -3   2  -5   11.06     2.8
  -2   2  -5   64.74    6.56
  -1   2  -5   13.12    2.78
   0   2  -5    2.25    0.71
   1   2  -5   95.23    8.18
   2   2  -5   76.82    6.02
   2   2  -5   82.79    7.57
   3   2  -5   17.22    3.62
   4   2  -5  365.62    17.7
   5   2  -5  201.28   13.66
   6   2  -5   98.05   10.36
   7   2  -5    0.46    2.49
   8   2  -5    0.99    3.07
   9   2  -5   16.78    3.75
  10   2  -5   65.42   10.53
  -5   3  -5    1.13    1.79
  -4   3  -5    9.63    2.94
  -3   3  -5    1.11     1.5
  -2   3  -5   36.09    4.78
  -1   3  -5  516.07   20.21
   0   3  -5   55.88    6.28
   1   3  -5   49.37    5.93
   2   3  -5   27.72    3.47
   2   3  -5   24.13    3.44
   3   3  -5   27.17    3.79
   4   3  -5   13.24    3.72
   5   3  -5   42.78    6.62
   6   3  -5   59.15    7.92
   7   3  -5    28.2    5.33
   8   3  -5    8.27    2.57
   9   3  -5    0.98    3.93
  -5   4  -5     4.2    2.32
  -4   4  -5    2.35    1.25
  -3   4  -5    1.85    1.48
  -2   4  -5    2.84    1.03
  -1   4  -5    1.83    1.04
   0   4  -5  684.71   22.51
   1   4  -5  201.83    9.74
   1   4  -5  183.24   11.54
   2   4  -5    9.63    2.98
   2   4  -5     8.1    2.08
   3   4  -5  105.91    9.81
   4   4  -5   43.11    6.45
   4   4  -5   32.73    4.04
   5   4  -5    5.69    2.45
   5   4  -5    7.38    1.53
   6   4  -5    0.25    1.99
   7   4  -5    6.03    1.63
   8   4  -5    1.81    2.14
   9   4  -5   -0.07    1.22
  -6   5  -5   18.62    4.08
  -6   5  -5   26.36    6.33
  -5   5  -5    1.87     1.4
  -4   5  -5       3    2.71
  -3   5  -5   41.95    5.52
  -2   5  -5    7.09    3.01
  -1   5  -5   32.68    4.81
   0   5  -5  101.58    5.98
   0   5  -5  106.57    9.02
   1   5  -5   37.23    5.21
   1   5  -5   40.89    4.44
   2   5  -5   75.31    7.11
   2   5  -5   91.15    9.53
   3   5  -5    46.3    6.25
   4   5  -5     9.5    3.46
   4   5  -5    4.15    0.72
   5   5  -5     2.4    0.87
   6   5  -5   23.84    5.02
   7   5  -5    5.66    2.86
   8   5  -5    1.62    0.76
  -6   6  -5       1    1.34
  -6   6  -5    2.57    2.29
  -5   6  -5   15.75    4.51
  -4   6  -5   94.91     9.7
  -3   6  -5   10.88    2.96
  -2   6  -5    37.1    5.77
  -1   6  -5    1.66    1.28
   0   6  -5    1.69    0.96
   0   6  -5   -0.63    1.55
   1   6  -5   24.66     4.3
   1   6  -5   30.47    4.22
   2   6  -5   46.11    7.52
   2   6  -5   44.76    5.82
   3   6  -5   18.14    3.99
   4   6  -5    0.66    1.02
   5   6  -5       3     2.1
   6   6  -5    2.66    1.79
   7   6  -5    0.47    2.51
  -6   7  -5    1.53    2.56
  -6   7  -5   -8.44     4.2
  -5   7  -5   -0.42    0.96
  -4   7  -5    4.99    2.04
  -3   7  -5   14.81    4.08
  -2   7  -5   28.93     4.8
  -1   7  -5    1.79    0.82
   0   7  -5     1.5     0.7
   0   7  -5    1.14    0.79
   1   7  -5     0.7    1.43
   1   7  -5    0.59    0.93
   2   7  -5    7.15       2
   2   7  -5   11.66    3.87
   3   7  -5   74.03     8.4
   4   7  -5   76.19    8.84
   5   7  -5   23.61     5.5
   6   7  -5   18.65    5.05
   7   7  -5     2.6    2.84
  -6   8  -5    2.76    4.53
  -6   8  -5    6.96    4.38
  -5   8  -5     5.6    3.36
  -5   8  -5    2.58    2.79
  -4   8  -5    7.75    3.73
  -3   8  -5     2.2    1.24
  -2   8  -5   -0.23    1.94
  -1   8  -5   43.94    6.21
   0   8  -5   40.31    5.91
   1   8  -5   13.23    3.58
   1   8  -5    17.5    3.99
   2   8  -5    3.82    2.82
   2   8  -5   -0.94    2.39
   3   8  -5    1.92     0.8
   3   8  -5    4.47    2.28
   4   8  -5   19.07    4.07
   5   8  -5   68.02    9.12
   6   8  -5   37.85    7.42
  -7   9  -5    5.53    2.79
  -6   9  -5  -10.72    7.29
  -5   9  -5   -3.64    5.25
  -5   9  -5    6.23    3.74
  -4   9  -5   -1.44    6.48
  -4   9  -5    0.28     3.7
  -3   9  -5    3.92    2.15
  -2   9  -5    0.15    0.55
  -1   9  -5    6.56    2.11
   0   9  -5    4.71    2.88
   1   9  -5   10.38    2.71
   2   9  -5    9.51    4.66
   3   9  -5    -2.2    4.69
   3   9  -5    2.57    0.87
   4   9  -5   -6.11    3.87
   5   9  -5    0.01    3.77
  -4  10  -5    2.44    3.81
  -3  10  -5    2.03    3.61
  -3  10  -5   -0.05    2.44
  -2  10  -5    -2.4    2.59
  -1  10  -5     2.4    1.45
   0  10  -5    3.64    1.44
   1  10  -5    6.98    2.35
   2  10  -5    1.13    1.72
   3  10  -5   -0.05    2.68
   5  -4  -4   22.36    1.57
   5  -4  -4   25.98    2.15
   6  -4  -4    3.81    1.76
  -2  -3  -4    1.18    1.39
   3  -3  -4  235.93     6.2
   4  -3  -4    15.3    1.74
   8  -3  -4    5.49    4.66
   9  -3  -4    6.85    1.67
  10  -3  -4    6.41    2.86
  11  -3  -4    0.84    2.68
  -3  -2  -4    2.73     1.4
  -2  -2  -4   85.99    7.11
  -1  -2  -4   59.53     7.3
   0  -2  -4   21.02    4.54
   0  -2  -4   14.06    2.17
   1  -2  -4   10.16     1.9
   2  -2  -4    16.6    1.96
   3  -2  -4    1.45    0.69
   6  -2  -4    1.46    1.63
   7  -2  -4    4.88    2.94
   8  -2  -4   42.42       7
   9  -2  -4    3.06    1.02
  10  -2  -4    7.76    4.38
  11  -2  -4    6.91    3.61
  -3  -1  -4    29.6    3.73
  -1  -1  -4  109.47    8.37
   0  -1  -4   65.18    5.41
   0  -1  -4   76.25       7
   1  -1  -4    9.59    1.63
   1  -1  -4   11.27    2.16
   2  -1  -4  243.11    8.18
   2  -1  -4  271.86   12.96
   3  -1  -4  351.67   13.35
   4  -1  -4   25.21    3.84
   5  -1  -4    1.21    1.47
   6  -1  -4  235.51   14.47
   7  -1  -4  250.36   15.74
   8  -1  -4    5.72    2.99
   9  -1  -4    4.21    3.29
  10  -1  -4    0.68    2.27
  11  -1  -4   -4.62    5.96
  -2   0  -4      11    2.85
  -1   0  -4   90.51    7.26
   0   0  -4  556.04   17.85
   0   0  -4  525.96   14.81
   1   0  -4  145.36    6.97
   2   0  -4  317.08   14.17
   2   0  -4  317.14   12.78
   3   0  -4  746.51    20.5
   3   0  -4  792.05   22.22
   4   0  -4   61.13    6.39
   5   0  -4   71.13    7.58
   6   0  -4   75.84    8.28
   7   0  -4    1.38    2.31
   8   0  -4    2.88    0.91
   9   0  -4   16.99    4.77
  10   0  -4   -2.96    5.13
  -3   1  -4   43.22    6.15
  -2   1  -4   13.06    3.08
  -1   1  -4   23.98    3.27
   0   1  -4   51.39    4.54
   1   1  -4    23.2    3.15
   1   1  -4   21.17    3.18
   2   1  -4  239.25   11.16
   2   1  -4  238.07   10.75
   2   1  -4  256.82   12.56
   3   1  -4   15.86     2.9
   3   1  -4   15.55    2.98
   4   1  -4    -0.2    0.63
   4   1  -4   -0.63    1.85
   5   1  -4   61.67    7.31
   6   1  -4      38     6.3
   7   1  -4     7.6    4.01
   8   1  -4    27.5    5.95
   9   1  -4   22.69    4.94
  10   1  -4   19.27    5.94
  -4   2  -4     7.8    2.89
  -3   2  -4   274.6   14.07
  -2   2  -4    65.5     5.8
  -1   2  -4   35.17    4.37
   0   2  -4  169.57    8.89
   1   2  -4  363.61   12.24
   1   2  -4  354.53   14.69
   2   2  -4  320.44   12.61
   2   2  -4  293.33   11.66
   3   2  -4  366.95   13.89
   3   2  -4  359.97   15.72
   4   2  -4   36.69    5.44
   4   2  -4   47.88    5.03
   5   2  -4   21.11    4.41
   5   2  -4   20.86     3.6
   6   2  -4   14.25    2.35
   6   2  -4   14.93    3.62
   7   2  -4    1.82    1.37
   8   2  -4    2.39    1.49
   9   2  -4    5.01    2.85
  10   2  -4    0.25    3.22
  -5   3  -4    0.21    0.86
  -4   3  -4    1.71    1.48
  -3   3  -4    0.44    0.61
  -2   3  -4   53.78    4.97
  -1   3  -4  346.04   13.86
   0   3  -4  229.28   11.77
   1   3  -4    3.61    1.76
   1   3  -4    0.87    0.77
   2   3  -4    1.99    0.92
   2   3  -4    0.92    0.66
   3   3  -4   47.03    4.86
   3   3  -4   41.73    5.27
   4   3  -4  235.26   14.56
   4   3  -4  190.57    8.51
   5   3  -4  502.24   22.15
   5   3  -4  485.68   14.93
   6   3  -4   14.69    3.37
   7   3  -4    1.19    2.09
   8   3  -4    5.69    2.54
   9   3  -4    5.58    3.75
  -6   4  -4   10.67    2.92
  -5   4  -4    9.41    2.67
  -4   4  -4   -0.78    0.99
  -3   4  -4   17.53    3.14
  -2   4  -4    7.79    2.06
  -1   4  -4    9.16    2.49
   0   4  -4  179.01    7.24
   1   4  -4    5.93     0.7
   1   4  -4   13.05    3.13
   2   4  -4   52.38    5.83
   3   4  -4   53.57    6.46
   3   4  -4   40.88    4.17
   4   4  -4   -0.18    1.07
   4   4  -4    0.38    1.65
   5   4  -4    0.29    0.88
   5   4  -4   -0.85    1.66
   6   4  -4   52.26    7.33
   7   4  -4  100.51   10.29
   8   4  -4   20.53    5.05
   9   4  -4     1.2    1.81
  -6   5  -4     6.8    2.31
  -5   5  -4   30.54    5.46
  -4   5  -4    9.44    2.86
  -3   5  -4    3.14    0.61
  -2   5  -4    9.42    2.81
  -2   5  -4    7.31     1.3
  -1   5  -4    0.92     0.4
  -1   5  -4    0.65    0.72
   0   5  -4   -0.15    0.79
   0   5  -4   -0.56    1.38
   0   5  -4    0.53    0.39
   1   5  -4   49.03    6.12
   1   5  -4   48.57    4.57
   2   5  -4  492.27   17.59
   3   5  -4    0.45    0.98
   3   5  -4   -1.18    1.77
   3   5  -4    0.57    0.33
   4   5  -4    2.04    0.79
   4   5  -4    2.77    0.98
   4   5  -4    3.45    2.09
   5   5  -4   13.42    2.45
   5   5  -4   14.23    3.55
   6   5  -4    0.88    1.24
   6   5  -4    0.38    0.51
   7   5  -4   -5.69    3.08
   8   5  -4     4.5    1.07
  -6   6  -4    4.77    2.25
  -6   6  -4    5.57    1.76
  -5   6  -4   11.68    1.94
  -5   6  -4   11.39    3.05
  -4   6  -4    3.69    1.85
  -3   6  -4   23.65    4.03
  -2   6  -4   17.16     2.5
  -2   6  -4   20.05    4.24
  -1   6  -4    2.09     0.9
  -1   6  -4   -0.19    1.21
   0   6  -4    8.17    2.06
   0   6  -4    7.72    2.57
   1   6  -4      19    3.21
   1   6  -4   19.88    4.26
   2   6  -4   -1.62    1.78
   3   6  -4   78.47     8.2
   4   6  -4  132.57   11.07
   4   6  -4   97.11    5.33
   5   6  -4    1.98    1.94
   5   6  -4   -0.39       1
   6   6  -4    8.29       3
   6   6  -4    5.83     1.5
   7   6  -4   -0.09     2.3
  -7   7  -4   -2.13    3.59
  -6   7  -4   -3.37    3.89
  -6   7  -4   -3.91     3.2
  -5   7  -4   -1.02    2.68
  -5   7  -4   -1.29    1.39
  -4   7  -4   24.48    4.19
  -3   7  -4  102.05    9.27
  -2   7  -4    1.21    1.18
  -1   7  -4      -1    1.54
  -1   7  -4    0.95       1
   0   7  -4   73.84    6.11
   0   7  -4   66.43    6.91
   1   7  -4    2.53    1.38
   1   7  -4    2.04    1.79
   2   7  -4    8.75    2.06
   2   7  -4   13.76    4.14
   3   7  -4   23.49    4.13
   4   7  -4    1.76    2.23
   5   7  -4   13.36    4.28
   6   7  -4    4.07    2.35
  -7   8  -4   -5.38    4.85
  -6   8  -4    4.83     3.5
  -6   8  -4    2.09    1.83
  -5   8  -4    1.73    2.41
  -5   8  -4    -0.3    2.31
  -4   8  -4    0.88    1.42
  -4   8  -4   -6.02    3.92
  -3   8  -4   -3.04    2.97
  -2   8  -4   17.73    3.83
  -1   8  -4   90.34    8.18
   0   8  -4     0.5    0.83
   0   8  -4   -2.69    2.38
   1   8  -4    8.36    1.93
   1   8  -4   12.41    3.81
   2   8  -4    15.2    3.87
   2   8  -4   15.82    4.59
   3   8  -4    3.64    1.86
   4   8  -4    4.95    2.28
   5   8  -4   15.73    2.72
   6   8  -4    5.77    3.03
  -7   9  -4   10.06       6
  -6   9  -4   27.38    9.89
  -5   9  -4   -2.75    3.49
  -4   9  -4   -5.75    2.01
  -4   9  -4    1.01    2.38
  -3   9  -4   -0.63    3.86
  -3   9  -4     2.4     2.6
  -2   9  -4   -1.21    2.62
  -1   9  -4    2.71    0.92
   0   9  -4   24.23    4.41
   1   9  -4   31.01    5.98
   1   9  -4   22.07    3.95
   2   9  -4     4.1    2.34
   2   9  -4   -0.27     1.9
   3   9  -4    5.17     2.7
   4   9  -4     2.6     1.4
   5   9  -4     0.7    1.33
  -5  10  -4    2.02    1.66
  -4  10  -4    9.89     2.8
  -3  10  -4     3.8    3.27
  -2  10  -4    5.86    3.61
  -1  10  -4    0.22    0.92
  -1  10  -4   22.39    8.12
   0  10  -4   -2.13    3.66
   0  10  -4   -0.23    2.15
   1  10  -4    0.19    1.97
   1  10  -4    8.63    4.81
   2  10  -4   28.86    7.07
   2  10  -4   18.94     3.2
   3  10  -4    -8.4    4.66
   3  10  -4    6.94    3.97
   4  10  -4   -7.71    4.58
  -3  11  -4    1.41    1.65
  -2  11  -4    4.24    1.36
  -2  -4  -3     6.6    2.16
  -1  -4  -3   45.92    5.65
   5  -4  -3   62.61    4.15
   6  -4  -3   13.19    2.54
  -3  -3  -3   34.29    4.36
  -2  -3  -3    -0.7    0.92
  -2  -3  -3   -0.38    1.43
  -1  -3  -3   70.51    6.17
  -1  -3  -3   71.56    6.06
   0  -3  -3  183.52   10.17
   0  -3  -3  182.81   10.61
   1  -3  -3    2.64    0.97
   7  -3  -3    0.44    2.59
   8  -3  -3   -5.09     4.5
   9  -3  -3     7.8    4.31
  10  -3  -3   -1.49    2.26
  11  -3  -3    -0.7    1.69
  -4  -2  -3    24.9    5.25
  -3  -2  -3  203.05   13.64
  -3  -2  -3  164.96    7.41
  -2  -2  -3   85.37    7.33
  -2  -2  -3   83.42    5.63
  -1  -2  -3   25.28    3.45
  -1  -2  -3   28.75    4.09
   0  -2  -3    0.88    0.51
   0  -2  -3    2.17    1.24
   1  -2  -3   -0.48    0.88
   1  -2  -3    0.97    0.53
   1  -2  -3    1.16    1.41
   2  -2  -3   172.4    9.98
   2  -2  -3  180.73   11.28
   2  -2  -3  154.73     4.8
   5  -2  -3  280.99   15.08
   6  -2  -3    0.47    1.25
   7  -2  -3    2.05    2.13
   8  -2  -3   11.27    3.34
   9  -2  -3    1.44    0.89
  10  -2  -3   -3.27     4.1
  11  -2  -3   -0.26    4.41
  -3  -1  -3   20.98    2.23
  -2  -1  -3  336.69   15.11
  -1  -1  -3  242.02    10.3
  -1  -1  -3  263.37    11.3
   0  -1  -3  434.64   12.48
   0  -1  -3  466.11    15.1
   1  -1  -3  238.86   10.18
   1  -1  -3  232.36    7.68
   2  -1  -3  425.16   11.01
   2  -1  -3  440.36   15.86
   3  -1  -3    2.37    0.96
   4  -1  -3   -1.45    1.33
   4  -1  -3    0.63     0.7
   4  -1  -3   -1.69    1.06
   5  -1  -3   39.58    5.02
   6  -1  -3  245.39   14.28
   7  -1  -3    4.92    2.28
   8  -1  -3    1.14    2.09
   9  -1  -3    4.71    2.58
  10  -1  -3    2.62     1.1
  11  -1  -3       3    2.54
  -2   0  -3    7.82    2.25
  -1   0  -3    8.25    1.37
   0   0  -3   19.66    2.95
   0   0  -3   18.31    2.45
   1   0  -3    4.15    1.16
   1   0  -3    4.79    1.67
   2   0  -3  276.33   10.56
   2   0  -3  289.31   10.61
   3   0  -3   33.21     4.6
   3   0  -3   22.75    3.43
   4   0  -3  199.68   11.15
   5   0  -3   74.54    7.59
   5   0  -3   68.33     6.2
   6   0  -3    2.51    0.63
   7   0  -3   57.68    8.34
   8   0  -3   222.1   17.45
   9   0  -3    6.91    2.28
  10   0  -3   -1.04    3.02
  -5   1  -3   66.37    4.09
  -3   1  -3   67.01    6.87
  -2   1  -3   62.71    5.88
  -1   1  -3    3.43    1.22
   0   1  -3  230.81    8.04
   1   1  -3   324.7   10.33
   1   1  -3  299.12   10.28
   1   1  -3   308.9    11.5
   2   1  -3  422.63   12.87
   2   1  -3  448.74   13.67
   3   1  -3   20.61    2.69
   3   1  -3   22.07     3.4
   4   1  -3    1.22    1.64
   4   1  -3   -0.19    1.03
   5   1  -3  151.43   11.39
   5   1  -3  154.27    8.81
   6   1  -3    5.87    2.66
   7   1  -3    0.69    0.91
   8   1  -3    1.53    0.88
   9   1  -3    6.97    1.84
  10   1  -3   36.39    7.98
  -5   2  -3   18.18    2.42
  -4   2  -3   72.73    7.28
  -3   2  -3   17.94    3.26
  -2   2  -3    0.01    0.77
  -1   2  -3  187.55    8.48
   0   2  -3  445.14   13.23
   1   2  -3    6.05    1.27
   1   2  -3    6.28    1.73
   2   2  -3  518.07   15.94
   2   2  -3  491.48   13.16
   3   2  -3  987.58   18.13
   3   2  -3   998.2    24.9
   4   2  -3  355.81   16.02
   4   2  -3  385.79   12.08
   5   2  -3    1.86    0.97
   5   2  -3       5    2.35
   6   2  -3   69.23    8.57
   7   2  -3    -1.6    2.09
   8   2  -3    4.37    2.35
   9   2  -3    0.07    2.63
  10   2  -3    5.68     4.3
  -6   3  -3   15.66    2.54
  -5   3  -3   20.66    3.13
  -4   3  -3   10.86    2.94
  -3   3  -3    3.61    1.51
  -2   3  -3  717.48   16.88
  -1   3  -3  278.01   10.41
   0   3  -3    4.79    0.71
   0   3  -3    7.42    2.08
   1   3  -3    3.15    1.19
   2   3  -3  347.39   13.28
   3   3  -3  173.44    7.29
   3   3  -3  171.29   10.21
   3   3  -3  166.53    7.18
   4   3  -3   30.78    4.52
   4   3  -3   25.36    2.25
   4   3  -3   30.14    3.32
   5   3  -3  134.76   10.55
   5   3  -3  135.24    8.53
   6   3  -3    8.49    2.96
   6   3  -3     8.5     2.9
   7   3  -3   -2.63     1.9
   8   3  -3    6.44    3.76
   9   3  -3    3.73    1.55
  -6   4  -3    13.6    3.37
  -5   4  -3      -1    1.23
  -5   4  -3   -0.44    1.42
  -4   4  -3   32.61    4.57
  -3   4  -3   67.04    5.73
  -2   4  -3   18.24    2.82
  -2   4  -3   20.62    2.68
  -1   4  -3   27.66    3.41
  -1   4  -3   18.84    1.12
   0   4  -3 1555.04   20.52
   0   4  -3  1545.7   28.34
   1   4  -3  131.43    8.54
   1   4  -3  131.96    7.22
   2   4  -3   32.22     3.8
   3   4  -3   65.59     6.4
   3   4  -3   56.88    3.75
   3   4  -3   55.92    3.73
   4   4  -3    3.89    1.65
   4   4  -3    1.77    0.54
   4   4  -3    2.99    0.69
   5   4  -3    1.49     0.9
   5   4  -3    0.53    0.72
   6   4  -3   35.32    5.21
   6   4  -3   35.93    4.44
   7   4  -3     5.4     3.3
   7   4  -3    7.12    2.76
   8   4  -3    4.46    2.66
  -7   5  -3    5.22    1.67
  -6   5  -3   32.33    5.14
  -5   5  -3   31.86    4.66
  -5   5  -3   33.31    5.08
  -4   5  -3    0.85    1.14
  -3   5  -3   25.05    3.53
  -2   5  -3   -1.72    1.58
  -1   5  -3   70.21    3.33
  -1   5  -3   67.64    5.56
   0   5  -3   82.21    5.39
   0   5  -3   67.17    5.57
   1   5  -3   40.68    4.23
   2   5  -3   63.56    5.71
   3   5  -3    6.53    1.59
   3   5  -3    4.19    0.81
   4   5  -3     2.8    1.25
   4   5  -3    0.71    1.05
   5   5  -3    1.59    0.55
   5   5  -3    2.39    1.29
   6   5  -3    6.41    2.87
   6   5  -3    3.65    1.23
   7   5  -3    7.81     2.8
   7   5  -3    7.76    2.15
   8   5  -3   16.25    5.22
  -7   6  -3   -0.33    2.34
  -6   6  -3    7.38    2.96
  -6   6  -3    4.33    0.59
  -5   6  -3   29.66    4.84
  -5   6  -3   30.28    4.84
  -4   6  -3   97.15    8.13
  -3   6  -3   45.69    4.83
  -2   6  -3   44.61    4.91
  -1   6  -3    0.86     1.1
  -1   6  -3   -0.54    1.09
   0   6  -3   16.56    2.68
   0   6  -3   16.01    2.23
   1   6  -3    1.33    0.55
   1   6  -3    1.18    1.07
   2   6  -3    0.75    0.88
   3   6  -3   33.02    5.19
   4   6  -3   -0.38    0.73
   5   6  -3    1.85    1.66
   5   6  -3    3.15    1.59
   6   6  -3    1.08     2.1
   6   6  -3    0.42    0.81
   7   6  -3    3.89    2.41
   7   6  -3    0.41    1.42
  -7   7  -3    4.91       4
  -6   7  -3    1.43    0.88
  -6   7  -3    0.32    1.89
  -5   7  -3   -1.59    2.78
  -5   7  -3    0.52    0.72
  -4   7  -3    8.56    3.01
  -4   7  -3   12.18    3.36
  -3   7  -3   22.99     4.5
  -2   7  -3    8.39    2.58
  -2   7  -3    3.23    0.26
  -1   7  -3    34.6    3.85
  -1   7  -3   28.15    3.57
   0   7  -3    0.04    0.87
   0   7  -3   -1.15    1.63
   1   7  -3    8.03       3
   1   7  -3    2.96    0.87
   2   7  -3    1.83    0.92
   3   7  -3    0.11    0.83
   4   7  -3    3.49    1.48
   5   7  -3   31.33    4.84
   5   7  -3   27.48    3.36
   6   7  -3    0.25    2.93
  -7   8  -3    9.36    4.84
  -6   8  -3   -1.21    1.06
  -6   8  -3    0.15    1.85
  -5   8  -3    2.73    3.09
  -5   8  -3   -3.19    2.79
  -4   8  -3   -0.44    2.08
  -4   8  -3    0.64    1.58
  -3   8  -3    8.32    2.65
  -3   8  -3    9.99     4.4
  -2   8  -3   18.93    4.67
  -2   8  -3    13.8    2.64
  -1   8  -3   14.26    2.99
  -1   8  -3   16.52    2.72
   0   8  -3   -0.83    1.72
   0   8  -3    0.74    0.86
   1   8  -3    4.66    2.48
   1   8  -3    7.72    3.81
   2   8  -3   -0.77     1.6
   3   8  -3    2.75    2.87
   4   8  -3    2.36    1.24
   4   8  -3   -2.02    2.31
   5   8  -3    5.93    4.07
  -8   9  -3    0.64    5.55
  -7   9  -3   -4.12    6.08
  -6   9  -3     0.9    3.35
  -6   9  -3    1.21    2.04
  -5   9  -3    -5.2     4.3
  -4   9  -3    0.96    2.34
  -3   9  -3    8.17       4
  -3   9  -3   11.16    4.07
  -2   9  -3   -1.79    2.47
  -2   9  -3    1.08    0.77
  -1   9  -3   14.65     3.2
  -1   9  -3   17.34    2.91
   0   9  -3   53.02    8.12
   0   9  -3   41.38    5.14
   0   9  -3   59.73    7.11
   0   9  -3   58.18    7.44
   1   9  -3    7.19    3.41
   1   9  -3    6.08    2.01
   1   9  -3    6.06    1.66
   2   9  -3    1.39     1.8
   2   9  -3     2.9    2.17
   3   9  -3    4.54    0.95
   3   9  -3    2.35    1.62
   4   9  -3    3.08    3.29
   5   9  -3   -2.81    5.47
  -5  10  -3    4.62    3.95
  -5  10  -3    4.22    2.57
  -4  10  -3    4.88    3.91
  -4  10  -3    2.91    3.51
  -3  10  -3    6.02    4.12
  -3  10  -3    0.51    3.08
  -2  10  -3    4.53    3.41
  -2  10  -3    0.66    1.19
  -1  10  -3    -7.9    4.85
  -1  10  -3   -2.15     3.1
   0  10  -3    2.98    2.87
   1  10  -3   11.03    1.04
   1  10  -3   14.61    4.32
   2  10  -3   17.52    4.58
   2  10  -3    18.3    3.26
   3  10  -3   -7.37    4.21
   3  10  -3   -0.63    2.94
   4  10  -3   -9.39    6.49
  -4  11  -3     4.1    1.24
  -3  11  -3   13.38    4.92
   0  11  -3    4.04    2.65
   1  11  -3   -0.17    3.83
   2  11  -3   -2.79    2.88
  -1  -5  -2      32    4.33
   0  -5  -2   81.82    7.27
   5  -5  -2   11.04    1.31
  -3  -4  -2    8.34    1.81
  -2  -4  -2   -1.21    1.75
  -1  -4  -2   61.86    6.16
   0  -4  -2   98.44     7.6
   1  -4  -2  103.11    8.11
   4  -4  -2   10.45    1.18
   5  -4  -2   48.65    4.27
   6  -4  -2    7.05    2.01
   8  -4  -2   85.55   11.79
   9  -4  -2   16.04    5.06
  -4  -3  -2  214.35     8.5
  -3  -3  -2    0.61    0.55
  -2  -3  -2    5.78    1.64
  -1  -3  -2  142.18    7.88
  -1  -3  -2  139.03    7.28
   0  -3  -2  272.33   11.48
   0  -3  -2  284.85   11.61
   1  -3  -2  428.15   15.09
   4  -3  -2   66.21     4.1
   5  -3  -2   41.09    4.01
   6  -3  -2   17.75    4.22
   7  -3  -2   15.21    4.51
   8  -3  -2   32.27    5.71
   9  -3  -2   17.24    4.78
  10  -3  -2   -4.32    5.17
  -4  -2  -2   13.12    3.07
  -3  -2  -2   81.62    6.19
  -2  -2  -2  604.17   15.57
  -2  -2  -2  599.24   13.43
  -1  -2  -2   13.84    2.01
  -1  -2  -2   10.76    1.52
   0  -2  -2  356.07    11.3
   0  -2  -2  368.62    11.2
   1  -2  -2    26.7    3.21
   1  -2  -2   27.85    3.48
   2  -2  -2  617.08   17.87
   3  -2  -2  123.72       8
   4  -2  -2 2017.93   35.67
   4  -2  -2 2016.34    33.6
   5  -2  -2  177.92   10.96
   6  -2  -2    -0.4    1.71
   7  -2  -2   -1.64    3.14
   8  -2  -2   12.18    4.05
   9  -2  -2    0.45    2.52
  10  -2  -2    2.58    1.89
  11  -2  -2    6.91    5.03
  -2  -1  -2  470.33     9.4
  -1  -1  -2  855.75   16.13
  -1  -1  -2  810.61   15.54
   0  -1  -2   39.82    2.84
   0  -1  -2   45.51    3.65
   1  -1  -2   23.99    1.57
   1  -1  -2   24.21    2.62
   2  -1  -2 1210.07   22.89
   2  -1  -2 1258.27      24
   3  -1  -2  333.23   12.46
   3  -1  -2  344.91   12.41
   3  -1  -2  365.96   14.34
   4  -1  -2  148.52    8.95
   4  -1  -2  147.77    8.78
   4  -1  -2   149.1    8.96
   5  -1  -2  338.45   15.48
   5  -1  -2     304   12.87
   6  -1  -2  886.26   27.51
   6  -1  -2  816.02   22.25
   7  -1  -2    3.39    0.49
   7  -1  -2    0.65    1.51
   8  -1  -2    3.84    2.32
   9  -1  -2    2.11     1.8
  10  -1  -2    0.73    1.48
  11  -1  -2    0.73    1.69
  -1   0  -2  100.34    5.65
   0   0  -2 3170.32   27.03
   0   0  -2 3243.16   30.01
   1   0  -2 4622.82   36.32
   1   0  -2  4707.1   34.38
   2   0  -2    3.79    1.51
   2   0  -2    4.14     1.3
   3   0  -2   54.27     5.3
   3   0  -2   49.88     4.8
   4   0  -2   45.47    5.48
   4   0  -2   33.54    3.83
   5   0  -2  131.68    7.73
   5   0  -2  141.83   10.25
   6   0  -2     6.6    1.72
   6   0  -2   11.41     3.1
   7   0  -2   50.12    7.09
   8   0  -2   42.77    7.81
   9   0  -2    1.44    1.91
  10   0  -2   -0.24    3.04
  -5   1  -2   13.07     1.4
  -4   1  -2   11.76    1.57
  -2   1  -2   12.87     2.1
  -1   1  -2  225.48    7.39
   0   1  -2  397.08     9.1
   1   1  -2  449.82   10.55
   2   1  -2  2205.5   29.96
   2   1  -2 2297.46   24.85
   3   1  -2  113.23    7.66
   3   1  -2  119.13    6.54
   4   1  -2  259.28   12.95
   5   1  -2   134.4   10.05
   6   1  -2   13.41    2.28
   6   1  -2   15.54    3.91
   7   1  -2    9.86    3.88
   8   1  -2   15.81    4.68
   9   1  -2   36.88    7.04
  10   1  -2   -4.84    4.35
  -6   2  -2   35.62    3.68
  -5   2  -2  120.83    7.45
  -3   2  -2   14.93    2.96
  -2   2  -2   32.37    3.21
  -2   2  -2   34.21    3.41
  -1   2  -2  133.87    5.63
  -1   2  -2  142.28    4.71
   0   2  -2  253.27    9.13
   0   2  -2  243.26    5.78
   1   2  -2   10.48    1.77
   2   2  -2  195.73    9.21
   2   2  -2  177.02    5.84
   3   2  -2   19.64     3.4
   3   2  -2   17.63    2.44
   3   2  -2   22.34    2.25
   4   2  -2   68.37    6.51
   4   2  -2   68.94    5.61
   5   2  -2   45.89     5.9
   5   2  -2   45.82    5.28
   6   2  -2    2.91     1.7
   6   2  -2      -1    2.06
   7   2  -2   25.95    5.24
   8   2  -2    1.52    0.82
   9   2  -2   -0.55    2.33
  -9   3  -2   24.87    5.47
  -6   3  -2   -2.06    1.82
  -5   3  -2   -0.43    1.04
  -4   3  -2  163.97    8.21
  -4   3  -2  182.02   11.12
  -3   3  -2  496.52   15.16
  -2   3  -2 1262.84    19.7
  -1   3  -2    0.53    0.52
   0   3  -2    4.64     1.1
   0   3  -2    3.51    1.46
   1   3  -2   43.02    3.55
   2   3  -2   86.65     6.1
   3   3  -2  155.74    9.25
   3   3  -2  110.76    3.65
   4   3  -2  191.14    11.3
   4   3  -2  173.93     8.5
   5   3  -2   65.96    7.11
   5   3  -2   66.71    6.24
   6   3  -2   49.71    6.54
   6   3  -2   51.57    5.84
   7   3  -2   -1.82     2.6
   7   3  -2    1.47    1.63
   8   3  -2     2.6    1.22
   9   3  -2    4.05     3.1
 -10   4  -2   -3.19    3.04
  -9   4  -2   -1.71    4.06
  -7   4  -2   82.78    7.95
  -6   4  -2    9.43    2.28
  -5   4  -2    3.47    1.64
  -4   4  -2    16.7    3.07
  -4   4  -2   11.85    2.15
  -3   4  -2   70.42    5.32
  -2   4  -2     4.5    1.62
  -1   4  -2  407.49    7.75
  -1   4  -2  380.07   11.63
   0   4  -2  118.97    5.33
   0   4  -2  136.61     7.9
   1   4  -2  236.51    9.05
   2   4  -2  192.42    9.16
   3   4  -2  103.88    7.21
   4   4  -2     3.3    0.95
   5   4  -2   22.45    3.99
   5   4  -2   20.17    3.25
   6   4  -2    16.7    3.67
   6   4  -2   22.89    3.82
   7   4  -2   16.96    4.35
   7   4  -2   19.63    4.01
   8   4  -2    1.39    1.71
   8   4  -2   -0.67    1.67
  -9   5  -2    2.86    3.02
  -7   5  -2    0.96    1.32
  -6   5  -2   24.88    3.97
  -5   5  -2   59.13    6.29
  -5   5  -2   60.94    6.22
  -4   5  -2   54.38    5.59
  -4   5  -2    55.2    5.89
  -3   5  -2   56.31    4.82
  -2   5  -2    0.32    0.27
  -2   5  -2   -0.06    0.25
  -1   5  -2    8.06    1.64
  -1   5  -2    4.39     1.2
   0   5  -2   82.41    6.23
   0   5  -2   91.42    5.76
   1   5  -2  521.42   15.18
   2   5  -2     0.1     1.2
   3   5  -2    10.2    2.41
   4   5  -2   10.46    2.57
   5   5  -2   14.05    2.95
   5   5  -2   15.79    2.91
   6   5  -2    1.12    1.03
   6   5  -2   -0.93    1.12
   7   5  -2   11.42    3.71
   7   5  -2   11.81    2.81
   8   5  -2    5.39    2.69
   8   5  -2    2.67    1.19
  -9   6  -2    1.13    1.78
  -8   6  -2    2.32     2.2
  -7   6  -2     9.7    3.35
  -6   6  -2    0.32    1.09
  -5   6  -2    6.94    1.92
  -5   6  -2    5.88    1.86
  -4   6  -2    63.1    5.83
  -4   6  -2   59.37    6.54
  -3   6  -2   27.51     4.3
  -3   6  -2   27.45    3.71
  -2   6  -2    0.19    0.34
  -2   6  -2     0.4       1
  -1   6  -2  208.93    8.75
  -1   6  -2   216.3   10.02
   0   6  -2  183.91    8.92
   0   6  -2  184.57   10.36
   1   6  -2   41.41    4.61
   2   6  -2    0.91    0.89
   2   6  -2   -2.05    0.94
   3   6  -2   87.31    7.59
   4   6  -2    6.07    1.59
   5   6  -2    0.97    0.99
   6   6  -2    2.07    2.67
   6   6  -2   -0.01    0.73
   7   6  -2    7.16    4.35
   7   6  -2    0.28    0.86
   8   6  -2    3.05    2.38
  -8   7  -2    1.52    3.14
  -8   7  -2     1.1    0.72
  -7   7  -2    1.81    1.01
  -7   7  -2     2.3    3.64
  -6   7  -2   -1.35    2.23
  -5   7  -2    6.05    2.21
  -5   7  -2   10.29    2.94
  -4   7  -2    3.43    2.07
  -4   7  -2   -0.31    1.65
  -3   7  -2  220.99   14.89
  -3   7  -2  235.58   12.71
  -2   7  -2   62.96    4.66
  -2   7  -2   65.95    6.08
  -2   7  -2      65    7.93
  -1   7  -2    4.93    1.59
  -1   7  -2     7.1    1.45
  -1   7  -2    5.64    1.29
   0   7  -2    8.71    1.75
   0   7  -2    8.97    2.27
   1   7  -2   16.02    2.52
   1   7  -2    14.8    3.34
   2   7  -2   35.45    4.86
   2   7  -2    34.4    3.29
   3   7  -2   11.95     2.9
   3   7  -2   10.71    2.71
   4   7  -2    5.08    2.35
   4   7  -2    3.16       2
   5   7  -2   13.92    2.97
   6   7  -2    0.78    1.38
   6   7  -2    0.52    0.92
  -8   8  -2     1.5     1.5
  -7   8  -2    6.45     3.3
  -7   8  -2    7.05    3.99
  -6   8  -2   15.46    4.94
  -6   8  -2   12.17    4.55
  -5   8  -2   -0.43    3.37
  -5   8  -2    2.87    2.26
  -5   8  -2    2.87    2.19
  -4   8  -2    3.53    1.54
  -4   8  -2    8.12    3.03
  -3   8  -2   55.76    8.41
  -3   8  -2   61.18    7.33
  -2   8  -2   64.33    8.69
  -2   8  -2   65.14     6.5
  -2   8  -2   57.37    5.32
  -2   8  -2   73.34    8.78
  -1   8  -2   22.95     3.7
  -1   8  -2    24.3    5.29
  -1   8  -2   14.75    2.14
  -1   8  -2   20.72    3.64
   0   8  -2   51.19    5.85
   0   8  -2   56.99    7.91
   0   8  -2   64.24    7.35
   0   8  -2   56.68    6.09
   1   8  -2   -0.44    1.58
   1   8  -2    0.24    0.95
   1   8  -2   -1.99    2.42
   2   8  -2   -0.09    1.76
   2   8  -2    3.88    2.66
   3   8  -2   -0.02    1.85
   3   8  -2   -0.61    1.83
   4   8  -2    3.27    1.39
   5   8  -2    8.77    3.34
  -8   9  -2    4.03    2.23
  -7   9  -2    7.79    3.43
  -7   9  -2   17.88    7.52
  -6   9  -2    0.33    2.56
  -6   9  -2   -2.47    3.91
  -5   9  -2    5.16    2.17
  -5   9  -2   -1.66    2.95
  -4   9  -2    0.62    2.95
  -4   9  -2    1.37    1.61
  -3   9  -2    3.77    3.55
  -3   9  -2    5.33    3.87
  -2   9  -2    4.89    2.34
  -2   9  -2   -2.13    2.04
  -2   9  -2   -1.56    3.46
  -1   9  -2    8.92    1.89
  -1   9  -2   15.78    4.96
  -1   9  -2   10.07    2.65
  -1   9  -2   15.13    3.56
   0   9  -2   -0.74    0.79
   0   9  -2   -0.65    2.02
   0   9  -2   -1.16    1.24
   1   9  -2   -2.14    3.58
   1   9  -2    2.99     2.2
   1   9  -2    4.07    3.34
   2   9  -2   -0.25    1.42
   2   9  -2    5.04     3.3
   3   9  -2    7.27    3.89
   3   9  -2    3.85    2.59
   4   9  -2    3.22    2.57
  -6  10  -2    1.43    1.01
  -6  10  -2    0.35    2.79
  -5  10  -2    21.5    6.99
  -5  10  -2   24.08    7.52
  -4  10  -2    6.77    3.52
  -4  10  -2    6.34    5.51
  -3  10  -2    5.47    3.71
  -3  10  -2    9.09    3.69
  -2  10  -2    3.23    2.46
  -2  10  -2    1.09    2.78
  -1  10  -2    6.92    4.19
   0  10  -2    0.81    3.02
   1  10  -2   -2.44    3.36
   1  10  -2    8.76    3.37
   2  10  -2    7.91    3.11
   2  10  -2   -3.72    3.04
   3  10  -2    2.83    3.58
  -4  11  -2    -6.7    4.22
  -3  11  -2    3.03    4.14
  -1  11  -2    0.56    3.36
   0  11  -2    3.59    1.86
   1  11  -2    4.13    1.81
   4  -5  -1   96.33    4.49
   5  -5  -1   26.52    2.85
   6  -5  -1   80.57    6.82
   3  -4  -1   44.86     2.7
   4  -4  -1    0.68    0.41
   5  -4  -1   22.54    2.97
   7  -4  -1   -0.95    2.24
   8  -4  -1   -6.52    5.67
   9  -4  -1   43.51    7.87
  -3  -3  -1    0.31    0.35
  -2  -3  -1   83.66    4.68
  -1  -3  -1   18.31    2.55
   0  -3  -1   70.81    5.37
   0  -3  -1    71.1    5.11
   1  -3  -1   84.53    5.96
   1  -3  -1   92.39    6.36
   2  -3  -1    4.75    1.42
   3  -3  -1  1801.5   20.28
   3  -3  -1 1769.71   31.05
   4  -3  -1   56.65    4.01
   5  -3  -1    0.03    0.83
   5  -3  -1   -0.69     1.1
   6  -3  -1   19.02    4.06
   7  -3  -1    10.3    2.53
   8  -3  -1    -3.3    2.76
   9  -3  -1   22.64    5.86
  -3  -2  -1 2563.79   25.24
  -2  -2  -1  415.27    8.51
  -1  -2  -1  221.79    7.43
  -1  -2  -1  224.29    6.56
   0  -2  -1      11    2.06
   0  -2  -1    12.2    2.04
   1  -2  -1   -0.54    1.23
   1  -2  -1    0.19    0.57
   2  -2  -1  895.42    9.35
   2  -2  -1  918.71   18.76
   2  -2  -1  924.58   19.46
   3  -2  -1 1125.95   19.25
   3  -2  -1 1054.42   15.39
   3  -2  -1 1132.28   22.48
   4  -2  -1     201   10.15
   4  -2  -1  186.34    8.42
   5  -2  -1    7.33    1.23
   5  -2  -1   12.44    2.98
   6  -2  -1   11.71    2.31
   6  -2  -1   12.09    3.03
   7  -2  -1    6.57    0.78
   8  -2  -1    3.16    2.08
   9  -2  -1    2.92    3.13
  10  -2  -1    1.16    1.42
  -1  -1  -1 12813.9    40.7
  -1  -1  -1 12939.5    44.7
   2  -1  -1  892.04   14.75
   2  -1  -1  898.21   16.07
   2  -1  -1  887.84   17.06
   3  -1  -1    6.48     1.5
   3  -1  -1    7.16     1.6
   4  -1  -1    5.18    1.65
   4  -1  -1    4.92    1.66
   5  -1  -1  177.22   10.97
   5  -1  -1  148.97    7.67
   6  -1  -1   10.68    1.79
   6  -1  -1    10.1    3.22
   7  -1  -1     1.9    2.37
   8  -1  -1    2.42    1.86
   9  -1  -1   -1.31       3
  10  -1  -1    6.41    4.89
  11  -1  -1   -2.13    3.76
  -7   0  -1    4.78    2.44
  -1   0  -1  145.83    5.31
   2   0  -1   23.58     2.7
   2   0  -1   20.36    2.14
   3   0  -1  205.35    9.15
   4   0  -1  108.67    7.69
   4   0  -1  115.95    5.97
   5   0  -1  239.56   12.75
   5   0  -1  246.82    8.74
   6   0  -1  100.68    9.28
   6   0  -1   84.56     4.4
   7   0  -1  190.83   13.61
   8   0  -1   -0.69    1.97
   9   0  -1    3.81    1.74
  10   0  -1   -3.44    4.83
  -8   1  -1   -1.23    2.15
  -4   1  -1    3.74    1.03
  -3   1  -1   54.65    3.32
  -2   1  -1  784.86   15.21
  -2   1  -1  747.48   15.36
  -1   1  -1  597.57    9.03
  -1   1  -1  581.27    9.86
   1   1  -1 1380.77   18.05
   1   1  -1 1423.47    12.3
   2   1  -1 8405.84   54.86
   3   1  -1  533.36   16.18
   3   1  -1  542.13   14.85
   4   1  -1  153.75   10.16
   4   1  -1  142.59    8.92
   5   1  -1    52.4    6.24
   5   1  -1    45.6    5.32
   5   1  -1   39.48    2.78
   6   1  -1   -0.16    0.34
   6   1  -1   -1.52    1.68
   6   1  -1     1.1    1.26
   7   1  -1   27.79    5.29
   8   1  -1   28.06    5.36
   9   1  -1   35.62    6.79
  10   1  -1   -2.57    3.49
  -9   2  -1    8.24    3.03
  -8   2  -1    3.48    2.89
  -6   2  -1   -1.45    1.53
  -5   2  -1   -1.72    1.54
  -4   2  -1   19.95    2.88
  -4   2  -1    16.2    2.54
  -3   2  -1   49.56    3.55
  -3   2  -1   45.51    3.61
  -3   2  -1   50.87    4.82
  -3   2  -1   49.39    4.45
  -2   2  -1  388.04   10.29
  -2   2  -1  402.64    6.58
  -2   2  -1  397.87   10.51
  -1   2  -1  916.79   11.78
   0   2  -1  229.53    5.22
   1   2  -1    2.24    0.73
   2   2  -1  193.89    7.95
   3   2  -1 1537.75    25.6
   4   2  -1  398.15   14.33
   4   2  -1   426.1   14.52
   5   2  -1    1.53    1.36
   5   2  -1    2.13    1.08
   6   2  -1   -0.72    1.27
   6   2  -1   -1.08    0.65
   7   2  -1   14.77     4.3
   7   2  -1   22.21    4.98
   8   2  -1    2.76    2.28
   8   2  -1    4.51    1.86
   9   2  -1    1.56    1.59
  -9   3  -1   69.12    9.88
  -8   3  -1   -0.87    1.38
  -7   3  -1    1.06    0.81
  -6   3  -1    2.92    1.23
  -5   3  -1    1.49     0.9
  -5   3  -1    0.52    0.35
  -4   3  -1    0.04    0.73
  -4   3  -1    1.03     1.5
  -3   3  -1     3.9    1.07
  -3   3  -1    5.27    1.08
  -3   3  -1    5.64    1.72
  -2   3  -1   68.21    2.48
  -2   3  -1   70.51       4
  -1   3  -1   216.1    6.87
   1   3  -1   48.77    3.52
   2   3  -1    6.47    1.53
   3   3  -1   11.26    2.19
   4   3  -1   15.39    2.85
   5   3  -1   97.54    7.82
   5   3  -1   97.31    7.63
   6   3  -1   19.76    3.66
   6   3  -1   25.83    4.39
   7   3  -1    0.59    0.86
   7   3  -1    0.91    0.97
   8   3  -1   -0.16    2.69
   8   3  -1    1.22    1.77
   9   3  -1   -9.57    4.22
 -10   4  -1   -2.84    5.38
  -9   4  -1   -2.55    2.93
  -8   4  -1   68.03    8.33
  -7   4  -1   79.47    8.67
  -7   4  -1   97.13    9.73
  -6   4  -1   24.95    4.41
  -6   4  -1   20.11    3.67
  -5   4  -1      18     3.3
  -5   4  -1   19.59    3.07
  -4   4  -1  192.86    6.78
  -4   4  -1  192.37   10.06
  -4   4  -1  180.95    9.98
  -3   4  -1  511.01    8.95
  -3   4  -1  525.25   13.58
  -3   4  -1  479.51   14.74
  -2   4  -1  407.96    10.4
  -1   4  -1  408.48   11.68
   1   4  -1   53.73    4.12
   2   4  -1    4.66    0.74
   2   4  -1    5.69    1.71
   3   4  -1    1.63    0.77
   4   4  -1   27.58    3.86
   5   4  -1   48.83    5.52
   5   4  -1   47.41    5.27
   5   4  -1   47.56    3.61
   6   4  -1    0.48    1.97
   6   4  -1    0.17    1.19
   7   4  -1     4.5    2.03
   7   4  -1   -1.37    2.03
   8   4  -1   -2.66    3.22
   8   4  -1   -0.99    2.47
 -10   5  -1    0.09    2.46
  -9   5  -1    4.09    2.52
  -8   5  -1    3.21    1.32
  -8   5  -1    3.08    2.45
  -7   5  -1   10.19    4.27
  -7   5  -1    6.61    2.59
  -6   5  -1  465.57   21.19
  -5   5  -1    9.73    1.99
  -5   5  -1   13.61    2.16
  -4   5  -1   21.49     3.5
  -4   5  -1   22.97    2.18
  -4   5  -1   18.32    2.64
  -3   5  -1   66.44    3.57
  -3   5  -1   78.05    5.13
  -3   5  -1   69.66    5.98
  -2   5  -1   41.46    4.72
  -2   5  -1   37.79    3.15
  -1   5  -1   95.05    5.78
   1   5  -1  197.54    9.62
   1   5  -1  202.93    7.77
   2   5  -1    3.47    0.55
   2   5  -1    4.21    1.37
   3   5  -1    0.86    1.47
   4   5  -1    0.46     1.2
   4   5  -1   -0.75    1.32
   5   5  -1    1.21    0.76
   6   5  -1    2.09    2.76
   6   5  -1    -2.2    2.21
   7   5  -1    1.44    1.64
   7   5  -1    1.57    1.04
   8   5  -1    6.65    3.25
  -9   6  -1    5.76    3.47
  -8   6  -1    7.09     3.6
  -8   6  -1    1.24    1.28
  -7   6  -1   33.01    5.63
  -7   6  -1   29.74    5.67
  -6   6  -1   42.44    5.99
  -6   6  -1    40.6    6.39
  -5   6  -1  206.17   11.13
  -5   6  -1  199.66   13.42
  -4   6  -1   393.8   13.93
  -4   6  -1  391.75    18.2
  -3   6  -1    4.51    0.82
  -3   6  -1    5.06    1.61
  -2   6  -1   54.41    4.36
  -2   6  -1   55.78    6.05
  -1   6  -1    7.33    1.72
  -1   6  -1   10.46    1.83
  -1   6  -1    11.4    3.13
   0   6  -1    0.83    1.83
   0   6  -1     1.9    0.69
   0   6  -1    1.75    1.15
   1   6  -1   80.04    6.72
   1   6  -1    77.9    6.96
   1   6  -1   86.23    5.59
   2   6  -1  191.69   11.24
   2   6  -1  202.59    11.8
   2   6  -1  175.58    6.48
   3   6  -1   64.99    6.45
   3   6  -1   73.79     6.7
   4   6  -1   23.46     3.3
   4   6  -1    31.1    4.15
   5   6  -1    0.88     1.9
   6   6  -1     2.1    1.09
   6   6  -1    0.66    0.97
   7   6  -1    0.47    1.74
   7   6  -1   -0.79    1.57
  -9   7  -1    2.56    1.69
  -8   7  -1   -1.54    4.29
  -8   7  -1    0.55    2.21
  -7   7  -1    0.32    1.06
  -7   7  -1   -1.31    2.59
  -6   7  -1    3.92    2.44
  -6   7  -1    7.22    2.78
  -5   7  -1    2.73    2.42
  -5   7  -1    0.35    1.57
  -5   7  -1     1.1    1.61
  -4   7  -1   -1.65    2.54
  -4   7  -1   -0.47    1.75
  -4   7  -1     0.3     0.9
  -3   7  -1    1.07    2.23
  -3   7  -1    2.24    1.06
  -3   7  -1    4.18    1.79
  -2   7  -1   76.45     8.3
  -2   7  -1   76.31    5.82
  -2   7  -1    77.1    7.56
  -1   7  -1    0.28    1.76
  -1   7  -1    4.42    2.03
  -1   7  -1    2.59    1.21
   0   7  -1   14.02    3.07
   0   7  -1    15.8    3.09
   0   7  -1   16.83     2.9
   1   7  -1    0.75    1.74
   1   7  -1     1.5     1.2
   1   7  -1    2.44    0.88
   2   7  -1    2.12    1.06
   2   7  -1    5.54    1.72
   3   7  -1   -3.87    3.01
   3   7  -1    1.33     1.5
   4   7  -1   23.08    4.63
   5   7  -1   -0.77    0.83
   6   7  -1    -0.5    1.63
   6   7  -1    1.19    1.31
   7   7  -1   -0.19    0.83
  -8   8  -1    3.67    2.23
  -8   8  -1   -1.87    4.38
  -7   8  -1     7.5    1.32
  -7   8  -1   17.76    6.26
  -6   8  -1   -0.05    2.56
  -6   8  -1    -1.1    1.58
  -5   8  -1     2.5    0.73
  -5   8  -1     2.2    0.73
  -4   8  -1    1.56    2.61
  -4   8  -1   -1.67    1.63
  -4   8  -1   -1.64    2.31
  -3   8  -1   13.84    3.12
  -3   8  -1   17.89    3.49
  -3   8  -1    18.1    4.36
  -2   8  -1   95.72   10.64
  -2   8  -1    91.7    8.88
  -2   8  -1    91.2    6.94
  -1   8  -1    6.21    1.09
  -1   8  -1   10.44    4.38
  -1   8  -1    7.29    2.52
  -1   8  -1   10.18    3.36
   0   8  -1    4.72    2.86
   0   8  -1    3.34    1.86
   0   8  -1    5.71    2.63
   0   8  -1    5.87    1.65
   1   8  -1    5.48     2.5
   1   8  -1    3.09    1.94
   2   8  -1   20.97    4.18
   2   8  -1   22.76     4.3
   3   8  -1    2.11    1.12
   3   8  -1   -1.32    3.32
   4   8  -1    0.59    1.21
   5   8  -1    2.81    2.92
  -8   9  -1    2.41    2.83
  -7   9  -1    0.31    3.52
  -7   9  -1    0.64     4.4
  -6   9  -1    8.75    2.82
  -6   9  -1   14.38    5.95
  -5   9  -1   -1.16    1.97
  -5   9  -1   -5.87       4
  -4   9  -1    7.94    4.61
  -4   9  -1    1.16    2.62
  -3   9  -1   -0.93    1.86
  -3   9  -1    3.26    2.37
  -2   9  -1   16.02    5.04
  -2   9  -1   10.51     3.6
  -1   9  -1   -2.09    4.46
  -1   9  -1    4.11    2.16
  -1   9  -1    0.58    2.34
   0   9  -1    11.5    2.61
   0   9  -1   19.21    4.33
   1   9  -1   41.71       7
   1   9  -1   47.96    7.56
   2   9  -1   -2.38    3.19
   2   9  -1     2.2     1.7
   3   9  -1   -3.87    4.59
   4   9  -1   -1.21    4.43
  -6  10  -1   -7.19     6.1
  -6  10  -1   -2.36    4.26
  -5  10  -1    0.47    3.95
  -5  10  -1   -1.29    3.43
  -4  10  -1    2.13    1.55
  -4  10  -1   -0.87    2.29
  -3  10  -1     2.3    1.84
  -3  10  -1    1.48    2.47
  -2  10  -1    4.42    3.13
  -2  10  -1   -1.27    2.59
  -1  10  -1    1.04    3.92
   0  10  -1   10.86    3.82
   0  10  -1    7.39    1.85
   1  10  -1    5.01    3.77
   1  10  -1    6.65     4.8
   2  10  -1   -3.86    3.97
   2  10  -1    2.61    2.37
   3  10  -1    8.85    4.95
  -5  11  -1    1.83    4.46
  -4  11  -1   16.29    6.12
  -3  11  -1    19.1     6.6
  -1  11  -1    8.48    5.36
   0  11  -1    4.99    3.68
   1  11  -1   -4.54    3.56
  -2  -8   0     0.2     3.2
  -1  -8   0     1.5     4.3
   0  -8   0     4.4     3.6
   1  -8   0     0.3     2.5
  -2  -7   0     3.7     5.4
  -2  -7   0     1.3     3.4
  -1  -7   0     4.1     5.2
  -1  -7   0     0.6     3.4
   0  -7   0       1     4.6
   0  -7   0     0.4     2.1
  -3  -6   0     6.2     4.4
  -3  -6   0     2.2     2.9
  -2  -6   0    23.8     7.5
  -2  -6   0    55.2     9.8
  -2  -6   0    -0.2     2.2
  -1  -6   0     0.7     3.9
  -1  -6   0    10.2     5.9
  -1  -6   0    15.1     6.2
   0  -6   0    11.3     6.5
   0  -6   0     3.9     5.7
   4  -6   0  112.48    6.41
  -3  -5   0    28.4     7.3
  -3  -5   0    16.7     7.7
  -3  -5   0     1.9     2.9
  -3  -5   0     1.4     4.7
  -3  -5   0    -0.6     2.3
  -2  -5   0    39.7     8.2
  -2  -5   0    -0.1     2.7
  -2  -5   0     1.1       3
  -2  -5   0     0.1     2.8
  -1  -5   0     4.8     5.4
  -1  -5   0     5.1       5
  -1  -5   0     1.8     4.6
  -1  -5   0    -0.2     2.6
   0  -5   0    53.8       9
   0  -5   0      13     6.5
   0  -5   0    19.3     7.1
   1  -5   0    15.7     7.4
   2  -5   0     1.6     4.5
   4  -5   0  151.91    7.31
   5  -5   0   52.27    4.97
  -4  -4   0    -0.5     2.3
  -4  -4   0     1.7     4.9
  -3  -4   0    25.6     7.8
  -3  -4   0     0.3       3
  -3  -4   0     0.2     2.5
  -3  -4   0     3.3     4.2
  -2  -4   0     4.4     5.4
  -2  -4   0     0.9     3.8
  -2  -4   0     5.6     5.7
  -2  -4   0     1.6     2.5
  -1  -4   0    -0.3     2.1
  -1  -4   0     1.2     4.8
  -1  -4   0    -0.7     2.4
  -1  -4   0    15.3       6
  -1  -4   0     8.1     4.7
   0  -4   0     0.1     2.8
   0  -4   0    34.5     8.8
   0  -4   0    35.9     8.7
   1  -4   0    30.3     9.3
   1  -4   0    46.8    10.4
   1  -4   0     8.6     4.6
   2  -4   0      58    10.1
   3  -4   0   55.76     3.4
   4  -4   0  202.59    9.04
   6  -4   0    3.19    2.61
   8  -4   0  372.04   22.88
  -4  -3   0     6.6     5.1
  -4  -3   0     2.9     3.7
  -4  -3   0     6.3     5.8
  -3  -3   0    39.6     9.6
  -3  -3   0    28.9     8.3
  -3  -3   0    -0.6     2.5
  -3  -3   0     5.5     4.5
  -2  -3   0    26.9     8.9
  -2  -3   0     2.7     4.1
  -2  -3   0     3.4     4.8
  -2  -3   0    -0.5     2.6
  -1  -3   0    20.1     6.2
  -1  -3   0     2.8     3.8
  -1  -3   0     2.4     4.9
  -1  -3   0    -0.7     2.2
  -1  -3   0     0.5     3.5
  -1  -3   0     0.8     4.3
   0  -3   0    21.2     7.5
   0  -3   0     1.8       3
   0  -3   0     0.8     3.1
   0  -3   0     1.8     4.9
   0  -3   0     0.1     1.9
   1  -3   0    32.7     8.7
   1  -3   0      34     7.8
   1  -3   0     0.6     3.3
   1  -3   0    -0.6     2.3
   2  -3   0  118.96     4.5
   2  -3   0     0.8     4.3
   2  -3   0     0.9     3.4
   3  -3   0  201.91    8.52
   3  -3   0       1     4.2
   4  -3   0    9.24    2.02
   4  -3   0    8.86    1.84
   5  -3   0    7.08    1.71
   5  -3   0     3.9     3.7
   6  -3   0   -0.44    1.31
   6  -3   0     1.4     2.8
   7  -3   0   -0.14    1.96
   8  -3   0   -2.25    2.63
   9  -3   0    2.66    1.67
  -6  -2   0   15.13    1.79
  -5  -2   0  204.27    7.26
  -4  -2   0  446.66    7.85
  -4  -2   0     0.7     3.3
  -4  -2   0     3.9     3.3
  -4  -2   0    12.9     6.2
  -4  -2   0    -0.7     2.3
  -3  -2   0    42.4     8.6
  -3  -2   0    26.5     8.5
  -3  -2   0       0     2.4
  -3  -2   0     0.3     3.4
  -2  -2   0     7.4     5.7
  -2  -2   0    30.9     7.3
  -2  -2   0     1.1     4.1
  -2  -2   0     0.9     4.6
  -2  -2   0     4.6     4.8
  -1  -2   0   149.8    15.2
  -1  -2   0       1     4.8
  -1  -2   0    14.6     6.3
  -1  -2   0     8.1     4.2
  -1  -2   0     1.4     3.2
  -1  -2   0     2.1     4.9
   0  -2   0    -0.1     2.2
   0  -2   0     4.3     4.5
   3  -2   0  242.64    8.22
   3  -2   0  215.84    7.86
   3  -2   0     6.8     5.9
   3  -2   0    -0.8     2.4
   4  -2   0  220.31    9.72
   4  -2   0     0.2       2
   4  -2   0     1.6     3.5
   5  -2   0   14.26     2.8
   5  -2   0     6.2     5.7
   6  -2   0   18.47    3.34
   7  -2   0    5.56    2.71
   8  -2   0    5.83    2.44
   9  -2   0   -6.06    3.58
  -7  -1   0    1.32    1.16
  -6  -1   0   -0.12    1.18
  -5  -1   0    4.69    1.43
  -4  -1   0     0.8     4.3
  -4  -1   0     8.6     5.1
  -4  -1   0     4.3     5.5
  -4  -1   0     0.9     3.3
  -3  -1   0      94    12.6
  -3  -1   0     0.1     2.2
  -3  -1   0     0.5     3.8
  -3  -1   0     0.3     3.3
  -2  -1   0   111.2    12.6
  -2  -1   0    71.5    10.1
  -2  -1   0    10.5     6.2
  -2  -1   0    13.4     6.3
  -2  -1   0     0.2     1.9
  -2  -1   0       1     4.7
  -2  -1   0     0.2     3.1
  -1  -1   0     0.9     4.5
  -1  -1   0     2.1     3.9
   2  -1   0   41.55     2.9
   2  -1   0   34.26    2.75
   2  -1   0    30.1    2.22
   3  -1   0   306.6   10.16
   3  -1   0  316.22   10.02
   4  -1   0    9.07     2.2
   4  -1   0    6.73    1.93
   4  -1   0     3.8     3.4
   5  -1   0    1.49     1.1
   5  -1   0    10.8     5.6
   6  -1   0   25.59    4.55
   6  -1   0     3.7     5.2
   7  -1   0   -0.91    1.05
   8  -1   0    2.86    1.77
   9  -1   0   -0.95    3.02
  10  -1   0    1.95    3.57
  -7   0   0   10.84    3.77
  -6   0   0    5.42    1.85
  -5   0   0   11.36    2.19
  -4   0   0     0.6     3.3
  -4   0   0    -0.6     2.1
  -4   0   0     2.4     5.1
  -4   0   0     1.4     3.4
  -4   0   0     0.9     2.9
  -3   0   0   30.18    3.86
  -3   0   0     4.6     5.7
  -3   0   0    20.4     7.9
  -3   0   0    -0.3     2.6
  -3   0   0     1.3     2.9
  -3   0   0     1.1     4.2
  -3   0   0       1     3.9
  -3   0   0     0.3     2.3
  -2   0   0 1129.57   18.39
   2   0   0  1145.2   16.64
   2   0   0 1113.61   17.06
   3   0   0   31.85    3.53
   3   0   0   32.15    3.85
   3   0   0   25.36    1.41
   4   0   0   33.81    4.42
   4   0   0   36.22    4.24
   5   0   0      11    2.77
   5   0   0   11.11    2.44
   6   0   0    5.47    2.56
   6   0   0    5.02    2.14
   7   0   0    5.58    2.26
   8   0   0    6.25    1.05
   9   0   0   10.28    4.54
  10   0   0   -2.16    2.34
  -8   1   0    3.02    2.69
  -7   1   0   -0.53    1.12
  -6   1   0   20.16    3.62
  -4   1   0    6.06    1.03
  -4   1   0     6.7     1.8
  -3   1   0  307.65    11.6
  -3   1   0   289.5    9.78
  -3   1   0  275.73    8.36
  -2   1   0   38.99    2.85
  -2   1   0   33.17    2.68
  -2   1   0   36.49    3.05
   1   1   0    0.51    0.34
   2   1   0  7989.9    46.1
   3   1   0  519.77   14.05
   4   1   0   53.39     5.1
   4   1   0   61.32     5.9
   5   1   0    1.94     0.7
   5   1   0    1.73    1.32
   6   1   0    -0.4    1.66
   6   1   0   -0.11     0.6
   7   1   0    1.61    1.19
   7   1   0    0.75    1.54
   8   1   0   29.88    5.13
   8   1   0   32.44    5.73
   9   1   0   -1.94    3.15
  10   1   0    3.98    2.03
  -9   2   0    8.84    4.46
  -9   2   0     1.1     4.7
  -8   2   0     4.3    2.76
  -8   2   0    -0.2     2.4
  -8   2   0    -0.6     2.5
  -7   2   0    5.36     2.8
  -6   2   0   19.73    3.84
  -5   2   0    13.2    2.41
  -5   2   0   14.51    2.93
  -4   2   0  239.55    9.79
  -4   2   0  245.34   10.73
  -3   2   0   222.5     7.7
  -3   2   0  232.32    9.87
  -2   2   0 2084.66   21.22
  -2   2   0 2039.17    26.4
  -2   2   0 2045.85   18.69
  -1   2   0 1065.65    8.93
  -1   2   0 1119.03    15.9
   0   2   0  147.33     4.6
   0   2   0  143.67    5.19
   1   2   0   138.6    13.1
   2   2   0   15.91    2.24
   3   2   0  761.07    17.3
   3   2   0  764.31   10.33
   4   2   0  565.29   16.41
   5   2   0  222.47   11.58
   5   2   0  230.82   12.45
   6   2   0    20.7    3.67
   6   2   0   19.29    3.79
   7   2   0      26    5.18
   7   2   0   26.13    4.98
   8   2   0     3.6    2.33
   8   2   0    6.44    3.44
   9   2   0   -0.24    0.99
 -10   3   0   68.68   10.69
  -9   3   0   -3.33    2.26
  -8   3   0    2.49    1.08
  -8   3   0     2.6     3.7
  -8   3   0    18.6       7
  -8   3   0     0.2       3
  -7   3   0    4.12    1.36
  -7   3   0     1.6     4.7
  -7   3   0     1.4     4.2
  -6   3   0   -1.06     1.2
  -6   3   0   -0.57    0.64
  -6   3   0    -0.2     1.9
  -6   3   0     0.2     3.1
  -5   3   0   10.55    2.58
  -5   3   0    6.47    1.69
  -5   3   0    5.55    1.15
  -4   3   0    8.54    1.65
  -4   3   0    8.02    1.46
  -3   3   0  180.04    9.43
  -3   3   0  173.83    6.53
  -3   3   0  184.81    7.52
  -2   3   0   117.6    4.22
  -2   3   0  125.15    7.14
  -1   3   0  463.38    8.64
  -1   3   0  441.58   11.12
   0   3   0    4.07    1.21
   0   3   0    4.19    1.05
   0   3   0   350.3    21.7
   1   3   0  118.66    5.87
   1   3   0  109.61    4.28
   2   3   0   72.31    5.27
   2   3   0   79.51    4.67
   3   3   0   39.92    4.27
   3   3   0   44.99    3.45
   4   3   0   66.88    6.19
   4   3   0   64.68    3.88
   5   3   0  244.18   12.25
   6   3   0     2.2    0.85
   6   3   0     5.1    2.91
   7   3   0     7.4    2.95
   7   3   0    7.74    3.41
   8   3   0   -1.69    1.84
   8   3   0   -0.23    2.09
 -10   4   0    6.36    2.44
  -9   4   0    12.7    3.81
  -8   4   0  260.63   17.65
  -8   4   0    16.3     6.9
  -8   4   0     3.3     5.5
  -8   4   0     3.2     3.5
  -7   4   0    3.16    1.71
  -7   4   0     1.7    0.98
  -7   4   0    -0.5     2.6
  -7   4   0    16.4     6.7
  -7   4   0     1.8     3.5
  -6   4   0    0.54    1.11
  -6   4   0   -0.27    1.13
  -6   4   0     5.1     5.4
  -6   4   0       1     4.5
  -5   4   0   98.88    6.49
  -5   4   0   92.18    8.18
  -5   4   0  111.38    9.71
  -4   4   0  214.02    8.34
  -4   4   0  196.49   10.99
  -4   4   0  215.73   12.11
  -3   4   0   59.91    5.48
  -3   4   0   71.66    4.59
  -3   4   0   67.68    4.19
  -3   4   0   63.08    5.75
  -2   4   0   10.23    2.13
  -2   4   0   11.43    2.45
  -2   4   0   10.08     1.2
  -1   4   0    0.29    0.55
  -1   4   0    1.84    1.43
  -1   4   0    0.62     0.8
   0   4   0    9.57    1.97
   0   4   0    8.12     1.6
   0   4   0   225.9    18.8
   1   4   0     1.8    1.52
   1   4   0     0.2    0.29
   2   4   0   -0.17    0.63
   2   4   0    0.06    0.14
   2   4   0   -0.22    0.72
   3   4   0   48.65    5.13
   3   4   0   55.11    4.64
   4   4   0    63.1    6.17
   4   4   0   63.52     4.5
   5   4   0   39.21    4.57
   6   4   0   27.79    4.74
   6   4   0   34.15    5.36
   7   4   0   37.18    4.78
   7   4   0   49.88    6.84
   8   4   0    0.39    1.19
   8   4   0    -0.7    1.44
 -10   5   0      -5    3.58
  -9   5   0     1.6    3.36
  -8   5   0   12.73    4.05
  -8   5   0    2.94    1.54
  -8   5   0     3.9     3.2
  -8   5   0     4.3     4.9
  -7   5   0   68.66    8.26
  -7   5   0   89.61   10.52
  -7   5   0     2.5     5.1
  -7   5   0     2.3     2.9
  -6   5   0  520.87   22.99
  -6   5   0  566.67   25.09
  -5   5   0   57.56    4.58
  -5   5   0   60.96    7.16
  -5   5   0   60.04    6.78
  -4   5   0  150.49    7.04
  -4   5   0  174.46   11.62
  -4   5   0  167.23    7.84
  -4   5   0  169.47   11.15
  -3   5   0  132.96    5.81
  -3   5   0  139.06    9.59
  -3   5   0  132.51    9.27
  -2   5   0     8.6    1.14
  -2   5   0   10.06    2.91
  -2   5   0   11.77    2.65
  -1   5   0    0.24    0.97
  -1   5   0   -0.24    0.69
  -1   5   0   -0.32    1.24
   0   5   0    0.33    0.37
   0   5   0    0.17    0.79
   0   5   0   265.1    18.4
   1   5   0    2.32    0.94
   1   5   0    2.97    1.05
   2   5   0   -1.35    1.32
   2   5   0   -1.03     1.8
   2   5   0    -0.2     0.2
   3   5   0    1.02    0.55
   3   5   0    2.62    1.32
   4   5   0   10.61    2.55
   4   5   0   11.79    2.06
   5   5   0    3.64     1.8
   6   5   0     2.6    2.86
   6   5   0   -2.03       2
   7   5   0    9.32    3.44
   7   5   0    3.51    0.96
  -9   6   0   -0.81    0.89
  -8   6   0    1.27    1.02
  -8   6   0    5.78     3.5
  -8   6   0     1.3     4.9
  -7   6   0   -0.96    1.79
  -7   6   0   -2.34    3.32
  -7   6   0    -0.6     2.6
  -7   6   0       0     2.5
  -6   6   0    28.7    5.34
  -6   6   0   25.88    5.11
  -5   6   0  598.44   15.74
  -5   6   0  612.46   24.32
  -5   6   0  612.03   24.98
  -4   6   0  110.88    6.32
  -4   6   0  122.57    6.33
  -4   6   0  133.76   10.78
  -4   6   0  119.18    9.67
  -3   6   0   47.73    5.85
  -3   6   0   45.73    3.33
  -3   6   0   53.84    6.28
  -2   6   0    0.59    0.67
  -2   6   0    1.92    0.95
  -2   6   0    2.61    0.93
  -1   6   0   10.31    2.35
  -1   6   0   11.35    2.05
  -1   6   0   13.51     3.2
   0   6   0   12.45    3.25
   0   6   0   12.81    2.78
   1   6   0   -1.49    1.33
   1   6   0    1.26    1.51
   2   6   0    1.01    1.32
   2   6   0    2.13    1.35
   2   6   0    1.17    0.55
   3   6   0   12.63    3.03
   3   6   0    7.79    2.47
   4   6   0   -1.02    1.76
   5   6   0    1.17    1.02
   6   6   0    1.33    1.86
   7   6   0    1.06    1.22
  -9   7   0    -9.1    4.99
  -9   7   0   -3.14    3.61
  -8   7   0    5.28    1.37
  -8   7   0    7.89    3.82
  -7   7   0      29    5.31
  -7   7   0   35.27    7.49
  -6   7   0   50.64    7.39
  -6   7   0   47.52    7.57
  -5   7   0   71.94    8.69
  -5   7   0    86.8   10.48
  -4   7   0   44.36    6.44
  -4   7   0   50.91    7.41
  -4   7   0   41.42    3.58
  -3   7   0  681.87   24.69
  -3   7   0  706.93   16.25
  -3   7   0  657.93   25.55
  -2   7   0   25.39    3.07
  -2   7   0   19.42    3.12
  -2   7   0   25.85     4.6
  -1   7   0   76.64    6.53
  -1   7   0   76.22    7.08
  -1   7   0   71.49     7.9
   0   7   0    0.36    1.48
   0   7   0    2.74    1.35
   1   7   0    18.2    2.75
   1   7   0   16.49    3.66
   1   7   0    14.7    3.36
   2   7   0   56.26     6.5
   2   7   0   55.28    6.93
   3   7   0   44.85    5.46
   3   7   0   45.51    6.56
   4   7   0   10.41     2.7
   5   7   0    1.32    1.19
  -9   8   0    9.51    4.64
  -8   8   0    2.91    2.56
  -8   8   0     0.3    2.62
  -7   8   0    3.42    1.77
  -7   8   0    3.68    3.71
  -6   8   0    1.08    2.39
  -6   8   0   -3.72    3.77
  -5   8   0   -0.47    2.52
  -5   8   0    1.26    1.55
  -4   8   0   15.32    4.42
  -4   8   0   17.52    5.04
  -3   8   0   14.23    4.14
  -3   8   0   13.22    3.88
  -2   8   0    6.29    3.54
  -2   8   0    13.3    4.29
  -2   8   0     8.1    2.39
  -1   8   0  286.36   12.93
  -1   8   0  280.85   17.85
  -1   8   0  300.69   15.39
   0   8   0   25.73     4.7
   0   8   0   25.23    3.34
   1   8   0   18.45    4.52
   1   8   0   16.93    4.04
   2   8   0     4.7    3.97
   2   8   0   -0.64    0.85
   3   8   0    0.88    1.92
   4   8   0    2.17    2.69
  -8   9   0    3.43    2.08
  -7   9   0    0.55     2.1
  -7   9   0    4.74    5.05
  -6   9   0   11.76    4.46
  -6   9   0   25.05    8.34
  -5   9   0    2.86    2.98
  -5   9   0    3.84    2.46
  -4   9   0    0.96     1.5
  -4   9   0    2.21    1.48
  -3   9   0    0.33     3.3
  -3   9   0   -1.03    2.42
  -2   9   0   32.94    5.88
  -2   9   0   30.94    6.43
  -1   9   0   63.31    6.92
  -1   9   0   59.96    8.66
   0   9   0   11.81    3.87
   0   9   0   13.73    5.07
   1   9   0    2.82    2.52
   1   9   0     5.4    3.38
   2   9   0    1.99    1.83
   2   9   0    0.08    2.34
   3   9   0    2.59    2.92
  -6  10   0       4    3.24
  -6  10   0    8.88    5.63
  -5  10   0    8.61    4.79
  -5  10   0    3.29    3.04
  -4  10   0   -0.84    1.99
  -4  10   0    1.99    2.07
  -3  10   0     6.9    3.73
  -3  10   0    2.05    1.24
  -2  10   0    2.67     1.7
  -2  10   0    3.94    1.59
  -1  10   0    0.86    2.98
  -1  10   0   -1.84     1.8
   0  10   0   -0.32    3.39
   0  10   0    -0.7    3.03
   1  10   0    5.03    2.31
   1  10   0    6.54    1.56
   2  10   0    1.01    3.96
  -5  11   0   12.65    6.82
  -4  11   0     1.2     3.6
  -1  11   0    2.51    4.59
   0  11   0    -2.4    2.55
   0  -5   1   270.1      19
   3  -5   1   74.67     5.5
   0  -4   1   205.6    16.1
   2  -4   1  434.45   12.49
   3  -4   1  493.18   13.38
   5  -4   1   21.73    3.42
   6  -4   1   25.11    4.65
   7  -4   1  110.28   11.03
   0  -3   1   356.7    22.2
   1  -3   1  258.03    9.67
   2  -3   1   68.76    4.21
   3  -3   1    6.79    1.71
   4  -3   1   -0.62    1.21
   6  -3   1       1    0.82
   7  -3   1    0.27    1.55
   8  -3   1   -5.35    3.45
  -5  -2   1    1.54    0.57
  -2  -2   1  233.81   11.24
  -1  -2   1    2.28    1.05
   1  -2   1 1039.02   13.53
   2  -2   1  396.47    6.71
   3  -2   1   53.56    3.49
   3  -2   1   47.12    4.07
   4  -2   1   18.45    2.63
   5  -2   1    0.31    0.38
   6  -2   1   -0.54    1.78
   7  -2   1    0.62    1.43
   8  -2   1   -0.12    0.64
   9  -2   1     1.7    0.74
  -7  -1   1   28.88    3.62
  -6  -1   1      -1    1.06
  -5  -1   1   40.72    3.61
  -4  -1   1  140.95    6.59
  -3  -1   1  548.05   18.25
  -3  -1   1  524.27   11.17
  -2  -1   1 8550.41   33.67
  -2  -1   1 8452.98   58.77
   1  -1   1  432.38     8.1
   1  -1   1  483.36    7.82
   2  -1   1  776.28   11.82
   2  -1   1  792.62   15.18
   3  -1   1   64.36    4.32
   3  -1   1   61.49    4.87
   3  -1   1   64.19    5.37
   4  -1   1    2.16    0.52
   4  -1   1     3.2    1.93
   5  -1   1   -0.99    1.49
   5  -1   1   -1.29    0.74
   6  -1   1    0.07    1.11
   7  -1   1     2.2    1.28
   8  -1   1    1.26    1.55
   9  -1   1   -1.77    2.66
  -8   0   1   -0.07    1.97
  -7   0   1  194.03   13.44
  -6   0   1  108.81    8.61
  -5   0   1  245.23   11.92
  -4   0   1  102.22    7.86
  -4   0   1  104.45    6.84
  -3   0   1  190.76    8.74
  -3   0   1  188.32    8.86
  -3   0   1  185.63    7.72
  -2   0   1   22.23     2.5
  -2   0   1   20.69    2.11
  -2   0   1    24.5    2.47
   1   0   1  181.25    6.18
   2   0   1  306.43    7.71
   2   0   1  395.53   11.48
   3   0   1    42.2     4.2
   3   0   1   38.77    3.64
   3   0   1   37.63    3.92
   4   0   1   37.44    4.23
   4   0   1      36    4.45
   5   0   1    9.39    2.41
   5   0   1    9.47    2.48
   6   0   1    8.87    2.64
   6   0   1    6.12    2.01
   7   0   1    2.05    1.59
   7   0   1    5.77    3.16
   8   0   1    4.19    2.23
   9   0   1    1.91    1.53
  10   0   1   -6.75     3.9
  -9   1   1   -3.37    3.54
  -8   1   1    5.27    2.72
  -7   1   1    1.16    1.71
  -6   1   1    9.89    2.39
  -5   1   1  152.06    9.38
  -4   1   1     3.4    1.47
  -4   1   1    3.13    0.96
  -3   1   1    6.83    1.52
  -3   1   1    5.95    1.52
  -2   1   1  889.54   14.28
  -2   1   1  874.91   15.34
  -2   1   1  888.84    16.9
  -1   1   1  968.44    14.4
  -1   1   1  944.89   14.33
   0   1   1 1030.65   10.81
   0   1   1  951.39    13.4
   0   1   1 1007.86   13.64
   2   1   1   113.3    13.1
   3   1   1  102.63    6.03
   4   1   1   12.46    2.86
   4   1   1   11.61    2.36
   5   1   1   -0.22    1.03
   5   1   1    1.24    0.91
   6   1   1    0.46    0.95
   6   1   1    1.56    1.13
   7   1   1    6.59    2.53
   7   1   1    7.51    3.12
   8   1   1     1.8    1.45
   8   1   1    0.45    1.39
   9   1   1    5.76    3.59
  -9   2   1    4.19    2.93
  -8   2   1    2.22    0.79
  -7   2   1    7.19     2.9
  -6   2   1   16.75    3.98
  -5   2   1   10.19    2.91
  -4   2   1  214.81    9.66
  -4   2   1  195.23    9.64
  -4   2   1  188.78   10.06
  -3   2   1 1145.13   19.56
  -3   2   1  1066.6   21.96
  -3   2   1 1113.47   22.11
  -2   2   1  896.69   18.49
  -2   2   1   906.3   18.53
  -2   2   1  933.59   15.18
  -1   2   1    0.86    0.35
  -1   2   1    0.83    1.08
   0   2   1   10.29    1.58
   0   2   1   11.31    1.58
   1   2   1  209.67    5.51
   1   2   1  227.93     7.5
   2   2   1  453.26      10
   3   2   1 2574.29   32.93
   4   2   1   17.71    2.84
   5   2   1    1.39    1.31
   5   2   1    3.59    1.44
   6   2   1    7.62    2.15
   6   2   1    5.84    2.25
   7   2   1    2.96    2.08
   7   2   1    1.16    1.49
   8   2   1   -3.87    3.58
   8   2   1   -3.57    2.66
   9   2   1     3.1    3.46
 -10   3   1    8.13    4.62
  -9   3   1    24.3    6.54
  -8   3   1   -0.16    2.46
  -7   3   1   14.21    4.44
  -6   3   1   16.25    3.31
  -6   3   1   15.66    3.88
  -5   3   1    1.82    2.03
  -5   3   1    0.84    1.35
  -5   3   1   -0.75    1.12
  -4   3   1   59.69    4.84
  -4   3   1   59.05     5.8
  -4   3   1   64.65    6.38
  -3   3   1    1780   25.86
  -3   3   1 1816.11   32.63
  -3   3   1 1725.29   30.51
  -2   3   1    5.37    1.06
  -2   3   1    6.47    1.93
  -1   3   1   89.75    6.13
  -1   3   1    84.5    6.06
   0   3   1   72.66    5.45
   0   3   1   73.01    4.77
   1   3   1   13.75    2.04
   1   3   1    17.4    1.98
   2   3   1   81.04    5.04
   3   3   1    1.56    1.05
   3   3   1   -0.05    0.85
   4   3   1  169.34    9.78
   5   3   1  497.59   18.42
   6   3   1   60.83    6.73
   6   3   1   62.87    7.63
   7   3   1    7.45    1.99
   7   3   1   11.67    3.51
   8   3   1    3.25    2.77
   8   3   1   -1.38    1.69
 -11   4   1    3.47     4.3
 -10   4   1     8.2    4.29
  -9   4   1   29.65    5.57
  -8   4   1   -3.46    4.58
  -7   4   1   -0.08    1.58
  -7   4   1    0.38    1.89
  -6   4   1   11.05    3.53
  -6   4   1   13.73    3.63
  -5   4   1   27.99    4.91
  -5   4   1   21.77     4.3
  -5   4   1   26.42    3.65
  -4   4   1    1.17    1.62
  -4   4   1    0.56    0.79
  -4   4   1    1.33    0.89
  -3   4   1   54.81    6.23
  -3   4   1   52.93    5.69
  -2   4   1   35.51    4.85
  -2   4   1   39.99    4.58
  -2   4   1   33.94    1.75
  -1   4   1  295.65   12.02
  -1   4   1  278.24   12.38
   0   4   1   11.87    2.19
   0   4   1   12.98    2.78
   1   4   1    8.86    1.55
   1   4   1    8.17    1.85
   2   4   1   12.67    2.07
   3   4   1    6.58    1.97
   3   4   1    4.45    1.42
   4   4   1     0.2    0.86
   5   4   1    9.94    2.21
   6   4   1   41.01    5.32
   6   4   1    44.5    6.35
   7   4   1   17.58    4.22
   7   4   1   16.41    3.87
 -10   5   1    4.72    2.93
  -9   5   1   -0.26    2.77
  -8   5   1   19.41    4.57
  -8   5   1   28.08    5.93
  -7   5   1  311.92    20.3
  -7   5   1  290.59   18.14
  -6   5   1   84.26    8.75
  -6   5   1   92.68   10.05
  -5   5   1   32.33    5.36
  -5   5   1   32.61    5.26
  -4   5   1  111.73     7.3
  -4   5   1  119.88    9.67
  -4   5   1  114.72    9.41
  -3   5   1   22.87    4.03
  -3   5   1   19.93    1.59
  -3   5   1   24.23    4.05
  -2   5   1   16.49    3.47
  -2   5   1   15.08    2.62
  -2   5   1   13.59     1.3
  -1   5   1   54.81    5.18
  -1   5   1   51.54    5.76
   0   5   1   21.27    3.14
   0   5   1      16    3.12
   1   5   1    7.33    1.91
   1   5   1    7.99    1.72
   2   5   1   14.15    2.77
   3   5   1   32.77    4.25
   3   5   1   29.67    4.75
   4   5   1   29.54    5.03
   5   5   1    4.67    2.21
   6   5   1    2.67    2.42
   7   5   1     1.6    1.16
   7   5   1   -1.18    2.04
 -10   6   1    2.23    2.08
  -9   6   1    0.86    2.81
  -8   6   1    9.91    4.85
  -8   6   1    6.19    3.72
  -7   6   1    9.26    3.95
  -7   6   1    7.71    3.46
  -6   6   1   61.16    7.95
  -6   6   1   71.15    9.14
  -5   6   1  861.17   30.68
  -5   6   1  813.51   29.16
  -4   6   1   -0.05    1.41
  -4   6   1   -0.08    1.31
  -3   6   1    9.84    1.19
  -3   6   1   13.19    3.11
  -3   6   1   13.39     3.6
  -2   6   1    9.61    2.83
  -2   6   1    7.04    1.21
  -2   6   1    6.29     1.5
  -1   6   1    2.46     1.3
  -1   6   1     3.6    1.61
   0   6   1    2.66    0.56
   0   6   1    5.43    2.16
   1   6   1    2.52    1.43
   1   6   1    0.13    0.71
   2   6   1    0.99     0.8
   2   6   1    0.86    1.21
   3   6   1    0.83    1.26
   3   6   1    0.58    1.52
   4   6   1     1.2    1.77
   5   6   1    1.85    1.96
   6   6   1   -1.28    3.04
  -9   7   1   -4.61    4.71
  -9   7   1    1.74    2.08
  -8   7   1   20.41    5.13
  -8   7   1   26.63    6.79
  -7   7   1   14.21    6.23
  -7   7   1   12.16    4.05
  -6   7   1    2.83    3.46
  -6   7   1    1.47    3.59
  -5   7   1   37.16    6.23
  -5   7   1   40.19    7.56
  -4   7   1   245.4   15.87
  -4   7   1  245.69    15.8
  -3   7   1  373.95   19.46
  -3   7   1  339.99    7.44
  -2   7   1   50.96    6.86
  -2   7   1   54.59    6.32
  -2   7   1    55.9    4.14
  -1   7   1     1.9    1.15
  -1   7   1    0.43    0.53
   0   7   1    6.47    2.07
   0   7   1     4.9    1.47
   1   7   1   27.35    3.77
   1   7   1   25.89     4.8
   2   7   1    9.98    3.51
   2   7   1   11.18    3.23
   3   7   1    -0.1    1.29
   4   7   1   -0.27    2.56
   5   7   1    9.47    4.83
  -9   8   1   18.69    6.48
  -8   8   1   15.04    5.29
  -8   8   1    18.8    6.08
  -7   8   1    9.94    5.82
  -7   8   1    7.77    4.34
  -6   8   1     4.2     2.7
  -6   8   1    5.45    3.18
  -5   8   1    3.83     3.1
  -5   8   1   -0.68    1.39
  -4   8   1   19.47    5.04
  -4   8   1   13.01    3.46
  -3   8   1       3    2.56
  -3   8   1   -1.74     2.8
  -2   8   1  209.97   12.41
  -2   8   1  210.48   15.23
  -1   8   1   43.79    5.58
  -1   8   1   39.36    6.62
   0   8   1   64.59    6.44
   0   8   1   60.72    7.87
   1   8   1     6.5    2.01
   2   8   1     7.1    2.69
   2   8   1     2.3    1.96
   3   8   1    4.46    2.24
   4   8   1    7.52    4.22
  -8   9   1    4.94    1.91
  -7   9   1    3.53    2.36
  -7   9   1   13.43     6.4
  -6   9   1    2.35    4.13
  -6   9   1    7.22    6.51
  -5   9   1   -0.72    2.18
  -5   9   1    0.86    2.34
  -4   9   1   10.09    3.63
  -4   9   1    9.38    3.15
  -3   9   1    0.63    1.06
  -3   9   1   -0.82    2.84
  -2   9   1    1.87    0.75
  -2   9   1    1.77    2.15
  -1   9   1    2.33    1.06
  -1   9   1    3.31    1.57
   0   9   1   169.1   13.92
   1   9   1   16.25    5.66
   1   9   1    12.1    3.17
   2   9   1     7.8    3.35
   3   9   1   -3.87     2.8
  -6  10   1  -12.07    6.38
  -5  10   1    7.48    4.53
  -5  10   1    -3.6    4.31
  -4  10   1    1.13    1.58
  -4  10   1   -3.06     3.7
  -3  10   1    2.34    0.71
  -3  10   1   -0.97    2.12
  -2  10   1      10       5
  -1  10   1   15.86    4.59
   0  10   1      19    5.72
   0  10   1   12.72    2.65
   1  10   1   -1.66    4.12
   1  10   1   -4.07    2.89
  -5  11   1    0.49    3.11
  -4  11   1    5.91     1.9
   2  -5   2   -0.74    1.31
   8  -5   2     4.2     3.7
   2  -4   2    4.05    1.42
   5  -4   2    0.98    1.14
   6  -4   2    9.92     1.8
   8  -4   2    16.6     7.3
  -2  -3   2   95.32    7.78
  -1  -3   2   46.59    4.45
   1  -3   2    0.48    0.58
   2  -3   2  1314.4   20.99
   3  -3   2  495.54    8.89
   5  -3   2    1.51     1.1
   6  -3   2    1.29    1.06
   7  -3   2    7.29    2.64
   8  -3   2     2.9     4.2
  -6  -2   2    0.59    1.04
  -5  -2   2   43.32    3.64
  -4  -2   2   73.35    4.29
  -3  -2   2   17.94    3.36
  -2  -2   2   203.1    9.79
  -1  -2   2    9.06    1.59
   0  -2   2  244.07    6.09
   1  -2   2  148.92    6.09
   2  -2   2   32.63    2.05
   2  -2   2   30.58    3.21
   3  -2   2   18.66    2.32
   3  -2   2   16.19    3.04
   4  -2   2  284.05   10.86
   5  -2   2  120.96    8.47
   6  -2   2   38.85    5.15
   7  -2   2   -1.11    1.76
   8  -2   2    1.75    1.77
   9  -2   2    -0.6     2.4
  -7  -1   2    6.47    1.56
  -6  -1   2   13.25    2.57
  -5  -1   2  147.35    8.09
  -4  -1   2  280.08    9.84
  -3  -1   2  117.19    7.88
  -3  -1   2  111.37    5.64
  -3  -1   2  116.29    6.78
  -2  -1   2 2323.72      24
  -2  -1   2 2271.47   23.62
  -2  -1   2 2245.01   30.55
  -1  -1   2  433.64   10.12
   0  -1   2  462.41    9.61
   1  -1   2  290.01    9.52
   2  -1   2   13.76    1.96
   2  -1   2   15.47    2.17
   3  -1   2    1.92    1.12
   3  -1   2    2.31    1.21
   4  -1   2    12.3    2.12
   4  -1   2   13.44    3.29
   5  -1   2   21.15    3.64
   5  -1   2   19.29    3.84
   6  -1   2   11.66    2.74
   6  -1   2   10.89    2.61
   7  -1   2    14.3    3.65
   7  -1   2    8.99    2.92
   8  -1   2   10.21    3.67
   9  -1   2    3.48    2.04
  -8   0   2   35.68    4.95
  -7   0   2    45.8    5.25
  -6   0   2    9.54    2.03
  -5   0   2  126.09     7.5
  -4   0   2   35.07    4.12
  -4   0   2   34.53    4.38
  -3   0   2      53     4.8
  -3   0   2   50.74    4.36
  -2   0   2       4    1.05
  -2   0   2     5.7    1.65
  -1   0   2    4643   30.56
   1   0   2  116.29    5.77
   2   0   2   61.39    4.83
   3   0   2   28.62    3.19
   4   0   2    3.28    1.37
   4   0   2    3.09    1.63
   5   0   2    2.85    1.59
   5   0   2    1.57    1.04
   6   0   2    1.26    1.58
   6   0   2    0.45     0.9
   7   0   2    2.33    2.71
   7   0   2     0.2     1.9
   8   0   2   -4.18    2.95
   8   0   2    6.86     3.9
   9   0   2   -0.83    1.19
  -9   1   2    2.26    0.84
  -8   1   2    1.38    1.06
  -6   1   2  868.29   26.32
  -5   1   2  336.27    14.9
  -4   1   2  138.63    8.24
  -4   1   2  145.72    8.74
  -3   1   2  331.14   11.92
  -3   1   2  368.67   12.23
  -2   1   2 1167.02   21.51
  -2   1   2 1221.58    19.3
  -1   1   2   24.63    2.83
  -1   1   2   23.62     1.4
   0   1   2   40.48     3.2
   0   1   2   46.74    3.07
   1   1   2  819.51   16.47
   2   1   2  478.66   14.45
   3   1   2    95.7    13.1
   4   1   2     2.9    1.27
   5   1   2   -1.76    1.43
   5   1   2   -1.75    1.78
   6   1   2    3.23    1.49
   6   1   2    4.62    2.12
   7   1   2     5.9    2.64
   7   1   2    5.01    1.43
   8   1   2    -1.8    2.53
   8   1   2     0.2    1.76
   9   1   2    4.77    4.41
 -10   2   2    5.28    3.15
  -9   2   2    1.51    0.72
  -8   2   2    4.74       2
  -7   2   2    0.63    1.55
  -6   2   2    2.06    1.48
  -5   2   2  195.33   13.43
  -4   2   2 2015.65   32.71
  -4   2   2 2114.23   39.45
  -3   2   2  108.79    6.99
  -3   2   2     109       7
  -3   2   2  118.02    6.62
  -2   2   2  601.03   17.03
  -1   2   2   26.83    3.11
  -1   2   2    25.4    3.05
  -1   2   2   25.05    1.43
   0   2   2  372.11   11.31
   0   2   2  361.22    9.36
   1   2   2   11.39    1.86
   4   2   2   11.12     2.6
   5   2   2   11.13    2.87
   6   2   2   -1.55     1.8
   6   2   2    2.32    2.12
   7   2   2     4.6    1.76
   7   2   2    3.37     1.2
   8   2   2   -0.92    2.87
   8   2   2   -2.39    2.35
 -10   3   2    5.53    3.19
  -9   3   2   17.95     4.9
  -8   3   2   37.71       8
  -7   3   2   19.32    5.22
  -6   3   2   12.26    3.51
  -5   3   2   42.04    5.19
  -5   3   2   47.03    6.46
  -4   3   2   62.39    6.22
  -4   3   2   61.58    5.15
  -4   3   2   79.45     8.3
  -3   3   2    2.05    1.97
  -3   3   2    3.26    1.68
  -3   3   2    2.15    0.47
  -2   3   2 1463.01    29.6
  -2   3   2  1467.6   27.63
  -1   3   2   418.7    7.92
  -1   3   2  417.75   14.81
  -1   3   2  433.18   14.14
   0   3   2  265.84   11.26
   0   3   2  279.02   10.73
   1   3   2  134.69       6
   1   3   2  143.86    8.01
   4   3   2  246.17   13.23
   5   3   2   -0.64    1.76
   6   3   2    6.36    2.62
   6   3   2    6.36    2.42
   7   3   2    1.86    1.36
   7   3   2    7.02    3.32
   8   3   2   -3.28    3.13
 -11   4   2    1.08    3.05
 -10   4   2    6.37    3.97
  -9   4   2   12.19    5.56
  -8   4   2   77.19   11.57
  -7   4   2    5.34    2.02
  -6   4   2    7.93    1.89
  -6   4   2    9.47     3.3
  -5   4   2   58.34    7.69
  -5   4   2   57.31    7.74
  -4   4   2   10.37    2.43
  -4   4   2   15.34    4.11
  -3   4   2    1.64    0.56
  -3   4   2    0.42    1.64
  -2   4   2   67.72    5.81
  -2   4   2   72.03    7.14
  -1   4   2   96.72    6.91
  -1   4   2   95.88    7.54
   0   4   2    82.4    6.46
   0   4   2   85.49    5.65
   1   4   2   57.35    5.53
   1   4   2   57.44    4.28
   2   4   2   -5.39    2.22
   4   4   2   13.97    3.67
   5   4   2   20.63     4.4
   6   4   2   89.58     9.8
   7   4   2   -1.43    1.99
   7   4   2    6.16    3.69
 -10   5   2    7.44    3.09
  -9   5   2    1.35    1.55
  -8   5   2   12.78    4.75
  -7   5   2    30.8    9.67
  -7   5   2    44.4    9.06
  -6   5   2   -1.34    2.41
  -6   5   2    6.18    4.11
  -5   5   2    15.5    3.78
  -5   5   2   14.05    3.83
  -4   5   2   13.21    3.18
  -4   5   2   13.47    3.24
  -3   5   2   19.24    4.13
  -3   5   2   19.65    3.83
  -2   5   2   23.61    3.89
  -2   5   2   28.15    4.03
  -1   5   2   51.13    5.29
  -1   5   2   47.15     5.7
   0   5   2   80.11    7.58
   0   5   2   77.04    5.75
   1   5   2   31.46    3.39
   1   5   2   34.21    4.81
   2   5   2   33.08    4.37
   3   5   2    28.9     7.8
   4   5   2   -2.92    2.81
   5   5   2   -0.49    1.17
   6   5   2    0.19    2.58
 -10   6   2    7.29    3.96
  -9   6   2    2.55    1.67
  -8   6   2   15.19    6.19
  -8   6   2   14.81    6.26
  -7   6   2   -1.07    3.34
  -7   6   2   -3.37    2.76
  -6   6   2   49.54    7.14
  -6   6   2   64.01    9.83
  -5   6   2   19.11    4.85
  -5   6   2   21.47    6.02
  -4   6   2    1.73    2.26
  -4   6   2   -0.53    2.28
  -3   6   2     0.6    1.79
  -3   6   2    0.09    0.87
  -2   6   2    1.03    1.36
  -2   6   2    0.69    0.44
  -2   6   2    1.05    0.44
  -1   6   2   16.06    3.29
  -1   6   2   14.74     3.6
   0   6   2    6.88     2.9
   0   6   2    7.63     2.1
   1   6   2    13.7    3.55
   1   6   2   14.53    2.74
   2   6   2   50.93    6.24
   3   6   2   -0.43     0.6
   4   6   2    1.63    2.44
   5   6   2    0.77    1.98
  -9   7   2    2.22    3.02
  -8   7   2   -0.43    2.66
  -8   7   2    5.63    5.06
  -7   7   2   -1.99    3.36
  -7   7   2     2.1    2.74
  -6   7   2    1.01    1.42
  -6   7   2       4     3.3
  -5   7   2    6.26    3.52
  -5   7   2    1.54    1.84
  -4   7   2  170.47   12.64
  -4   7   2  157.75   12.87
  -3   7   2   43.93    5.69
  -3   7   2   46.73    7.37
  -2   7   2    5.74    1.62
  -2   7   2    3.91    1.89
  -1   7   2    0.77    1.62
  -1   7   2    0.79    0.62
   0   7   2    3.46    2.03
   0   7   2    2.95    0.59
   1   7   2   -1.43    1.99
   2   7   2   -1.14    1.93
   3   7   2    1.98    1.76
   4   7   2    0.92    2.85
  -8   8   2   26.36    7.63
  -8   8   2    29.4    8.56
  -7   8   2    37.4    7.66
  -7   8   2   37.92    7.87
  -6   8   2   -4.56    4.14
  -6   8   2    1.06    0.84
  -5   8   2     0.4    1.99
  -5   8   2   -1.44    2.97
  -4   8   2   14.49    4.04
  -4   8   2   14.12     3.6
  -3   8   2   56.28    6.77
  -3   8   2   60.83    8.52
  -2   8   2  165.97   14.55
  -2   8   2  171.71   12.35
  -1   8   2     0.1    1.75
  -1   8   2    3.73    2.24
   0   8   2   -3.41    2.55
   1   8   2    2.54    1.92
   2   8   2    0.15     2.2
   3   8   2   -0.02    3.42
  -7   9   2   53.61    8.63
  -7   9   2   48.85    7.87
  -6   9   2    7.99    4.15
  -6   9   2    -0.7    1.96
  -5   9   2    26.3    6.63
  -5   9   2   23.17    5.42
  -4   9   2    1.75    1.03
  -4   9   2    1.95    0.84
  -3   9   2    6.87    2.49
  -3   9   2     3.6    1.07
  -2   9   2   -1.04    3.02
  -2   9   2    2.08    0.61
  -1   9   2   57.49     8.2
   0   9   2   44.51    6.89
   1   9   2   12.73    4.64
   2   9   2     2.7    2.95
  -6  10   2   11.12    1.86
  -5  10   2    7.94    3.03
  -5  10   2   11.25     4.2
  -4  10   2    0.94    2.41
  -4  10   2    6.22    2.85
  -3  10   2    6.75    3.17
  -3  10   2   -0.74    2.53
  -2  10   2    7.98    3.46
  -1  10   2   -9.47     4.8
   0  10   2    3.52    1.93
  -4  11   2    9.66    4.59
   8  -6   3    -0.4     2.3
   8  -5   3     4.7     5.4
  -1  -4   3  153.98    9.07
   4  -4   3   26.09    1.93
   5  -4   3   -1.37    1.26
   6  -4   3   15.74    3.34
   7  -4   3    -0.1     2.7
   8  -4   3     1.6     2.8
  -2  -3   3  369.73   14.69
  -1  -3   3    3.09    0.71
   0  -3   3    6.46    1.84
   0  -3   3    5.01    1.07
   1  -3   3  263.97    4.91
   1  -3   3  277.75   10.27
   3  -3   3    3.16    0.85
   4  -3   3    9.68    1.85
   5  -3   3    18.2    2.42
   6  -3   3   17.22    3.16
   7  -3   3    7.34    2.79
   8  -3   3      19     7.6
  -7  -2   3    3.55     1.9
  -6  -2   3   73.53    6.56
  -5  -2   3    4.14    1.45
  -2  -2   3  529.47    16.9
  -1  -2   3    8.04    1.61
   0  -2   3  457.06     9.4
   0  -2   3  451.31   12.17
   1  -2   3  173.48     7.2
   2  -2   3    0.96    0.92
   3  -2   3   18.01     2.4
   3  -2   3   17.64    2.97
   4  -2   3    84.1    7.79
   4  -2   3    80.2     5.8
   5  -2   3   17.48    2.67
   5  -2   3   22.22     4.6
   6  -2   3   -1.75    1.89
   6  -2   3    0.46    0.97
   7  -2   3   -0.71    2.13
   8  -2   3     0.1     2.6
  -8  -1   3    1.43    1.04
  -7  -1   3    0.48    1.17
  -6  -1   3    5.44    1.85
  -5  -1   3  174.04    9.56
  -4  -1   3    0.32    0.85
  -4  -1   3    1.44    1.37
  -3  -1   3    23.2    3.67
  -3  -1   3   26.51    3.32
  -3  -1   3   22.91    2.86
  -2  -1   3   436.3   12.89
  -2  -1   3  469.11    13.8
  -1  -1   3  324.26    9.51
   0  -1   3  240.37     7.4
   1  -1   3    3.54     1.2
   3  -1   3   61.14    5.72
   4  -1   3   23.98     3.2
   4  -1   3   22.12    3.41
   5  -1   3   78.57    6.83
   5  -1   3   84.14    8.56
   6  -1   3   12.29    2.35
   6  -1   3    14.4    3.55
   7  -1   3    1.92     0.8
   7  -1   3    4.56    1.84
   8  -1   3    4.29    2.97
  -8   0   3   202.7   12.92
  -7   0   3   46.84    5.64
  -6   0   3    0.63    1.02
  -5   0   3   78.22    6.48
  -4   0   3  209.53   10.01
  -3   0   3   30.96    4.07
  -3   0   3      30    3.69
  -2   0   3   285.9    10.7
  -1   0   3    4.95    1.75
  -1   0   3    4.78    1.09
   0   0   3   17.87    2.08
   1   0   3    11.9    2.39
   3   0   3       3     3.3
   4   0   3    0.36    0.77
   5   0   3    -0.8    1.57
   5   0   3   -3.34    2.03
   6   0   3   -2.16    1.91
   6   0   3    -1.5    1.55
   7   0   3   27.45    4.84
   7   0   3   29.18    5.78
   8   0   3    4.21    2.35
   8   0   3   10.84    5.05
   9   0   3    -4.4    3.96
  -9   1   3    7.15    3.36
  -8   1   3     1.6    1.21
  -7   1   3   12.15    3.53
  -6   1   3  252.91    13.8
  -5   1   3   43.43    5.42
  -4   1   3    1.96    1.17
  -3   1   3    1.83    1.09
  -3   1   3    3.66    1.62
  -2   1   3  406.99   14.29
  -1   1   3  240.13   10.45
   0   1   3  467.59   12.96
   0   1   3  434.49   13.19
   1   1   3  246.71   10.15
   4   1   3    1.32     1.3
   5   1   3    2.01    1.06
   5   1   3    1.46    1.66
   6   1   3    3.22    1.87
   6   1   3    1.09    1.84
   7   1   3    0.18    0.67
   7   1   3    0.67    1.21
   8   1   3    1.41    1.79
   8   1   3     5.6    2.95
 -10   2   3    3.94    1.83
  -9   2   3    2.45    2.75
  -8   2   3   17.21    4.42
  -7   2   3    3.97    1.93
  -6   2   3    0.44    1.13
  -5   2   3  258.78   13.74
  -4   2   3   18.07    3.37
  -3   2   3   34.75     4.5
  -3   2   3    32.9     3.5
  -2   2   3  165.76    9.38
  -1   2   3   -0.89    0.97
  -1   2   3    0.66    0.49
   0   2   3    2.84    1.18
   0   2   3   -0.14    1.18
   1   2   3   20.17    2.81
   4   2   3   21.95    3.66
   5   2   3    7.35    1.42
   6   2   3    1.83    1.05
   6   2   3   -1.87    2.05
   7   2   3    -1.2    2.94
   7   2   3     1.3    2.22
   8   2   3    1.65    2.73
 -10   3   3   -0.92    3.71
  -9   3   3    9.03     3.8
  -8   3   3    0.03    1.89
  -7   3   3     0.2    1.31
  -6   3   3     2.2    1.34
  -5   3   3    2.09    0.91
  -4   3   3   52.15    6.17
  -3   3   3 2275.16   40.85
  -2   3   3    6.24    2.01
  -1   3   3    4.88    1.97
  -1   3   3    5.43    1.13
   0   3   3  162.15    7.61
   0   3   3  179.51    9.45
   4   3   3   13.26    2.96
   5   3   3    9.35    3.25
   6   3   3    1.65     2.1
   7   3   3    2.84    2.14
   7   3   3     1.2    2.02
 -11   4   3    3.04    0.98
 -10   4   3  -13.68    5.93
  -9   4   3    0.97    1.56
  -8   4   3   11.25    3.96
  -7   4   3    8.56    3.11
  -6   4   3    13.5    3.41
  -5   4   3   59.33    6.56
  -4   4   3   13.09    2.89
  -4   4   3   12.99    3.01
  -3   4   3   -0.32    0.62
  -3   4   3    0.41    0.55
  -2   4   3   30.08    4.28
  -2   4   3   30.43    4.78
  -1   4   3  888.72   22.11
  -1   4   3   916.6   26.07
  -1   4   3  866.99   14.42
   0   4   3  153.04    9.05
   0   4   3  152.66   10.44
   0   4   3  134.23    7.24
   1   4   3   36.97    3.92
   3   4   3    26.1     8.3
   4   4   3    7.81    3.16
   5   4   3   31.78    6.06
   6   4   3   -1.74    1.97
 -10   5   3    4.64    3.34
  -9   5   3    2.52    2.46
  -8   5   3    1.98    2.11
  -7   5   3   16.49    4.61
  -6   5   3   59.01    8.37
  -6   5   3    54.1    6.54
  -5   5   3   59.49     8.1
  -5   5   3   59.67    6.87
  -4   5   3    1.58    1.38
  -4   5   3   -0.06     1.1
  -3   5   3   63.56     7.5
  -3   5   3   63.98    7.07
  -2   5   3   32.01    5.14
  -2   5   3   34.25    4.58
  -1   5   3    0.41    0.96
  -1   5   3    0.93    0.58
  -1   5   3   -1.24    1.75
   0   5   3    2.77    1.95
   0   5   3    0.79    0.81
   0   5   3    1.68     1.8
   1   5   3   71.74    5.64
   2   5   3    40.7     8.8
   3   5   3      15     5.3
   4   5   3    8.18    2.91
   5   5   3    6.21    4.71
 -10   6   3    8.38    4.14
  -9   6   3     0.2    0.73
  -8   6   3    0.39    1.52
  -7   6   3    1.19    1.01
  -6   6   3     0.5    3.43
  -6   6   3    3.62    2.08
  -5   6   3   24.01    4.62
  -5   6   3   23.85    4.16
  -4   6   3   29.54    5.91
  -4   6   3   28.35    5.11
  -3   6   3    39.8    6.46
  -3   6   3   46.12     6.3
  -2   6   3   22.03    4.92
  -2   6   3   20.17    3.76
  -1   6   3    1.19    1.51
  -1   6   3    0.31    0.92
   0   6   3    5.45     2.1
   0   6   3    8.23    2.67
   1   6   3    0.37    1.11
   1   6   3    0.62    0.61
   2   6   3    24.3       8
   3   6   3     6.5     4.8
   4   6   3    6.51    1.91
  -9   7   3    6.86    4.36
  -8   7   3   11.96    4.65
  -7   7   3   24.15    6.06
  -7   7   3   30.04    6.62
  -6   7   3    -1.1    2.38
  -6   7   3    2.12    1.82
  -5   7   3   14.17    4.28
  -5   7   3   15.43    3.45
  -4   7   3    1.66    2.02
  -4   7   3     2.7    1.62
  -3   7   3   -0.01    1.64
  -3   7   3     2.9    1.88
  -2   7   3    0.57    0.76
  -2   7   3    2.55    2.05
  -1   7   3    3.82    1.51
  -1   7   3     7.1    2.79
   0   7   3    7.64    2.72
   0   7   3    3.84    2.28
   1   7   3    5.58     2.7
   2   7   3       2     2.8
   3   7   3   -0.31    1.19
  -8   8   3    0.02    2.91
  -7   8   3     2.6    2.28
  -7   8   3   12.45     4.3
  -6   8   3    0.34    2.63
  -6   8   3    0.09    0.97
  -5   8   3   17.28    4.56
  -5   8   3   20.86    5.15
  -4   8   3    3.14     2.9
  -4   8   3   -0.65     0.8
  -3   8   3   40.33    6.35
  -3   8   3   36.75    6.41
  -2   8   3   -0.52    1.54
  -2   8   3    1.26    1.22
  -1   8   3   13.12    4.16
  -1   8   3   13.28    3.46
   0   8   3     2.6    1.91
   1   8   3    -2.4    3.62
   2   8   3     0.6     3.8
  -7   9   3   34.71    8.75
  -7   9   3   40.12     8.4
  -6   9   3   11.26    4.44
  -6   9   3    9.57    3.12
  -5   9   3    1.57    1.93
  -5   9   3   -0.03    1.74
  -4   9   3    1.77    1.63
  -4   9   3    1.53    2.28
  -3   9   3    1.38    0.57
  -3   9   3    0.94    1.12
  -2   9   3    0.37    1.96
  -2   9   3    4.17    3.69
  -1   9   3   12.47    3.74
   0   9   3    0.64    2.06
  -5  10   3    5.01       3
  -4  10   3   16.77    5.38
  -3  10   3   -3.54    4.16
  -3  10   3    4.05    1.53
  -2  10   3    0.01    3.69
  -1  10   3    2.95    2.39
   0  10   3    7.08     2.5
   7  -6   4    -0.3     2.7
  -1  -5   4    48.4    5.37
   7  -5   4     0.8     2.3
  -1  -4   4   10.34    2.25
   0  -4   4  181.77    7.41
   1  -4   4    7.39    1.03
   4  -4   4   -0.09    0.42
   5  -4   4    9.49    1.74
   7  -4   4    16.7     7.1
   8  -4   4     3.6     4.1
  -2  -3   4    3.22    0.66
  -1  -3   4    2.14    0.88
   0  -3   4  267.25    9.14
   1  -3   4  348.76     8.4
   3  -3   4       0     0.3
   3  -3   4   -1.15     1.1
   4  -3   4    2.32    1.27
   5  -3   4    3.89    1.98
   6  -3   4   -0.19    0.62
   7  -3   4    -0.1     1.6
   8  -3   4     0.6     3.8
  -7  -2   4     3.4    1.73
  -6  -2   4   23.18    3.84
  -5  -2   4   28.74     3.9
  -4  -2   4   54.06    5.53
  -3  -2   4  336.94   11.41
  -2  -2   4  318.07   12.67
  -1  -2   4  337.46   10.71
   0  -2   4  154.36    7.14
   0  -2   4  165.04    6.34
   2  -2   4   76.44    5.64
   3  -2   4  266.22   11.86
   4  -2   4    6.76    1.84
   4  -2   4    8.66    2.55
   5  -2   4   -2.04    2.09
   5  -2   4   -0.29    1.16
   6  -2   4    3.18    1.53
   6  -2   4     1.9    2.37
   7  -2   4    0.54    2.02
   8  -2   4    -0.3     2.7
  -8  -1   4   24.51    3.63
  -7  -1   4    4.68    1.34
  -6  -1   4   48.05    6.02
  -5  -1   4   73.06     6.8
  -4  -1   4    0.78    0.82
  -4  -1   4   -0.18    0.82
  -3  -1   4   12.03    2.01
  -2  -1   4  240.56   10.04
  -1  -1   4   23.42    2.88
  -1  -1   4   22.86    2.72
   0  -1   4   52.74    3.68
   4  -1   4    0.81    0.82
   4  -1   4    2.92    1.59
   5  -1   4   54.06    6.04
   5  -1   4    54.6    6.65
   6  -1   4    2.52    1.37
   6  -1   4    0.86    1.74
   7  -1   4    0.97    0.61
   7  -1   4    3.98    3.19
   8  -1   4    0.65    0.96
  -9   0   4   12.69     3.2
  -8   0   4    7.61    3.77
  -7   0   4     0.2    1.06
  -6   0   4   74.43     6.9
  -5   0   4    73.2    6.68
  -4   0   4    67.6    6.63
  -3   0   4  788.62   21.35
  -2   0   4   288.9   12.33
  -2   0   4  305.02    11.5
  -1   0   4  140.13    5.68
   3   0   4    18.6     5.7
   4   0   4     0.9     3.9
   5   0   4    7.06    2.22
   5   0   4    7.49    2.28
   6   0   4    6.62    3.24
   6   0   4   -5.78    3.02
   7   0   4    7.54    3.55
   7   0   4    0.29    2.28
   8   0   4   -0.17    1.29
   8   0   4    4.97    3.55
  -9   1   4   -1.08    2.83
  -8   1   4     5.4    2.58
  -7   1   4  257.93   14.68
  -6   1   4  233.54   12.98
  -5   1   4   -0.91    1.32
  -4   1   4   22.79     3.7
  -3   1   4  312.85   14.82
  -2   1   4  260.38   12.52
  -1   1   4    8.48    1.19
  -1   1   4   10.55    2.23
   0   1   4   67.22    4.97
   2   1   4    73.3    10.7
   4   1   4    -0.9     2.2
   5   1   4    2.25    1.42
   6   1   4    6.42    3.01
   6   1   4    3.07    1.08
   7   1   4    1.69    2.48
   7   1   4    1.88    2.05
   8   1   4    6.81    1.57
 -10   2   4    3.44    2.04
  -9   2   4     7.5    2.73
  -8   2   4   32.08     5.4
  -7   2   4     3.5    3.42
  -6   2   4   -1.48    2.22
  -5   2   4 1269.16   31.44
  -4   2   4   113.9    8.57
  -3   2   4    0.92    2.06
  -2   2   4   19.84    3.83
  -2   2   4   17.37    1.88
  -1   2   4    8.24    1.18
  -1   2   4   10.38    2.87
   0   2   4   15.01    2.37
   0   2   4   15.76    2.72
   4   2   4       1     3.8
   5   2   4   -3.27    2.73
   6   2   4    0.34    0.93
   6   2   4  -11.01    4.34
   7   2   4   -1.08    2.84
   7   2   4    2.84    2.45
 -11   3   4    1.91    3.62
 -10   3   4    7.45    2.41
  -9   3   4    7.68    3.06
  -8   3   4    3.85    2.78
  -7   3   4    4.28    2.93
  -6   3   4    97.4    9.58
  -5   3   4  129.55   10.11
  -4   3   4   13.06    3.04
  -3   3   4  256.15   13.74
  -2   3   4    9.44    2.93
  -2   3   4    5.75    0.89
  -1   3   4    0.02    1.17
  -1   3   4    0.22    0.48
   0   3   4    2.05    1.31
   0   3   4     0.8    0.42
   1   3   4    20.5     6.6
   3   3   4    40.3      10
   4   3   4     6.9     5.5
   5   3   4   11.23    4.01
   6   3   4   -2.86    3.29
 -11   4   4    6.67    2.16
 -10   4   4    1.84    2.96
  -9   4   4    0.78    1.45
  -8   4   4   43.97    6.61
  -7   4   4   54.17    7.97
  -6   4   4       3    1.96
  -5   4   4   29.83    5.42
  -4   4   4    1.35    1.15
  -3   4   4   48.82    5.97
  -2   4   4  139.85    9.92
  -2   4   4  118.88    3.86
  -1   4   4   -0.62    1.18
  -1   4   4    2.72     1.6
   0   4   4    9.04    2.14
   0   4   4   10.38    2.35
   1   4   4       0       2
   2   4   4     4.7     5.9
   3   4   4     0.6     3.6
   4   4   4    -0.2     2.4
   5   4   4    4.04    2.98
   6   4   4   -0.79    1.59
 -10   5   4   -2.23    3.37
  -9   5   4   14.62    5.61
  -8   5   4   20.81    4.69
  -7   5   4    8.94    2.91
  -6   5   4   -0.96    1.91
  -5   5   4   -0.92    0.94
  -4   5   4    1.54    1.53
  -3   5   4    3.77    1.29
  -2   5   4    0.22    1.46
  -2   5   4    0.12    0.31
  -1   5   4    6.89    1.87
  -1   5   4    5.94    1.39
   0   5   4  140.86     9.5
   1   5   4     5.2     5.9
   2   5   4     0.3     3.4
   3   5   4     2.2     3.4
   4   5   4    -0.9    2.72
   5   5   4   -0.71    1.06
  -9   6   4   10.98     4.6
  -8   6   4    5.96     2.3
  -7   6   4   -0.77    3.05
  -6   6   4    1.13    3.54
  -5   6   4    7.84     2.8
  -4   6   4    1.63    1.36
  -4   6   4    1.66    1.78
  -3   6   4    0.32    1.35
  -3   6   4   -0.02     1.3
  -2   6   4     1.4    1.35
  -1   6   4    2.28    1.89
   0   6   4    6.06    2.48
   1   6   4     1.1     4.7
   2   6   4    56.3    10.2
   3   6   4     2.6     3.6
   4   6   4    4.06    3.98
  -9   7   4   17.74    5.99
  -8   7   4    7.02    4.14
  -7   7   4    0.99    2.26
  -6   7   4    6.21    4.17
  -5   7   4    1.56    2.34
  -5   7   4    0.11    1.63
  -4   7   4   11.54       4
  -4   7   4   11.12    3.11
  -3   7   4   16.51    4.88
  -3   7   4   13.11    3.14
  -2   7   4    1.37    1.61
  -2   7   4    2.44    2.61
  -1   7   4    6.99    2.98
   0   7   4   14.67    3.41
   1   7   4     4.4     5.7
   2   7   4     1.7     4.1
  -8   8   4    2.56    2.05
  -7   8   4    5.22    3.79
  -6   8   4    1.85    2.38
  -5   8   4    1.51    2.63
  -5   8   4   -1.13    3.33
  -4   8   4    1.89    2.85
  -4   8   4    0.95    1.59
  -3   8   4     1.3    1.37
  -3   8   4    4.99    4.56
  -2   8   4    5.38    1.54
  -2   8   4     6.7    3.11
  -1   8   4     8.5    3.25
   0   8   4     4.7       4
   1   8   4     1.8     4.8
  -6   9   4    6.11    3.61
  -6   9   4    2.86    2.98
  -5   9   4   -7.25    3.87
  -5   9   4    4.71    1.02
  -4   9   4   -2.78    3.04
  -4   9   4   -0.76    2.01
  -3   9   4   10.62    5.21
  -3   9   4   -0.77    3.77
  -2   9   4    9.68    3.36
  -5  10   4    1.04    2.28
  -4  10   4    3.26    2.64
   7  -6   5     0.4     3.3
  -1  -5   5   41.13    4.97
   0  -5   5  100.65    6.41
   7  -5   5     2.6     3.4
   0  -4   5  762.78    17.9
   1  -4   5    3.05    0.99
   2  -4   5    4.35    1.03
   3  -4   5    1.22    0.49
   3  -4   5    0.44    0.49
   4  -4   5   -0.05    0.44
   6  -4   5     5.4     5.8
   7  -4   5     2.1       4
  -1  -3   5   57.11    5.21
   0  -3   5   45.81    3.01
   0  -3   5   55.25    4.36
   1  -3   5  503.07   12.44
   2  -3   5   43.41    4.75
   3  -3   5    1.38    1.01
   4  -3   5    7.15    1.83
   4  -3   5      11    2.69
   5  -3   5   -2.32    1.69
   5  -3   5   -0.29    0.91
   6  -3   5     0.1     2.1
   7  -3   5     1.7     4.7
  -7  -2   5    2.48    1.99
  -6  -2   5  120.45    9.18
  -5  -2   5  244.51   12.88
  -4  -2   5  359.29   14.52
  -1  -2   5   93.19    6.02
   0  -2   5   -0.38    1.51
   3  -2   5   18.14    3.59
   4  -2   5   -1.34    1.02
   4  -2   5    0.36    0.86
   5  -2   5    -0.2    1.72
   5  -2   5   -0.03    1.41
   6  -2   5    1.54    1.01
   6  -2   5    0.49    1.26
   7  -2   5   -2.03    2.23
  -8  -1   5   85.44    9.21
  -7  -1   5   14.03     2.8
  -6  -1   5   36.51    5.58
  -5  -1   5  199.02   11.93
  -4  -1   5    1.78    1.53
  -3  -1   5  559.71   19.03
  -1  -1   5  737.56   17.49
   4  -1   5   32.86    4.55
   5  -1   5    0.34    0.83
   5  -1   5    3.04    1.51
   6  -1   5    4.18    1.83
   6  -1   5    3.52    2.23
   7  -1   5     0.9    2.68
  -9   0   5   21.61    4.36
  -8   0   5  294.23   17.41
  -7   0   5   62.05    7.63
  -6   0   5   83.05    8.42
  -5   0   5    82.4    8.06
  -4   0   5   27.03    4.65
  -3   0   5   14.75    2.92
  -2   0   5   -1.21    2.35
  -1   0   5  149.24     6.8
   3   0   5     0.2       3
   4   0   5    -0.3     2.3
   5   0   5   -0.83    1.52
   5   0   5   -4.63    2.56
   6   0   5   15.68     3.4
   6   0   5   21.81    4.57
   7   0   5    1.05    1.21
   7   0   5    3.46    3.12
 -10   1   5    1.79    2.09
  -9   1   5   11.48    2.27
  -8   1   5    10.4    2.95
  -7   1   5   75.53    7.75
  -6   1   5  108.94    8.92
  -5   1   5    3.54    1.96
  -4   1   5   10.42    2.85
  -3   1   5  157.23   11.23
  -2   1   5  206.04   12.25
  -2   1   5  205.89    8.46
  -1   1   5   50.29    3.53
  -1   1   5   54.52    6.17
   2   1   5    10.9     6.7
   4   1   5       9     5.5
   5   1   5    2.13    1.08
   6   1   5    6.01     2.8
   6   1   5    3.49    1.41
   7   1   5    5.64    3.33
   7   1   5   -0.75    1.64
 -10   2   5   -2.37    2.74
  -9   2   5    2.28    1.14
  -8   2   5   13.68    3.06
  -7   2   5   18.94    4.01
  -6   2   5   35.12     5.4
  -5   2   5    51.3     6.4
  -4   2   5    2.02    1.13
  -3   2   5   46.24    6.37
  -2   2   5   43.22    3.32
  -2   2   5   51.77    6.53
  -1   2   5   14.32    3.24
  -1   2   5   12.29    1.73
   1   2   5    -0.6     2.5
   2   2   5     7.8     6.1
   3   2   5    43.5     9.2
   4   2   5     4.2     3.7
   5   2   5   -2.57    2.75
   6   2   5   -1.94    0.94
   6   2   5    1.76    1.53
   7   2   5     1.6    2.02
 -11   3   5   21.44    5.49
 -10   3   5    35.3    7.21
  -9   3   5   33.16    6.62
  -8   3   5    6.58    3.18
  -7   3   5    10.5    3.19
  -6   3   5   27.33    4.87
  -5   3   5   12.54    3.42
  -4   3   5  598.19   22.46
  -3   3   5  128.72   10.71
  -2   3   5   59.87    7.21
  -2   3   5   47.85    3.31
  -1   3   5   25.57    2.64
  -1   3   5    28.1    4.17
   0   3   5    21.5     7.9
   1   3   5     3.2     4.3
   2   3   5    24.3     6.5
   3   3   5    29.4     8.7
   4   3   5     3.2     4.2
   5   3   5    -0.6    0.97
   6   3   5    2.18     1.5
 -11   4   5    1.55    2.34
 -10   4   5    4.14    2.12
  -9   4   5     1.7    1.22
  -8   4   5   16.03    4.31
  -7   4   5    15.3    4.81
  -6   4   5    33.5    5.78
  -5   4   5   55.65    7.14
  -4   4   5    9.91    3.24
  -3   4   5   -0.39    1.07
  -2   4   5  236.53   15.13
  -2   4   5  188.17    6.57
  -1   4   5   86.39    5.08
  -1   4   5  102.81     8.9
   0   4   5    1.46    0.61
   1   4   5    -0.5     2.3
   2   4   5     1.3     4.3
   3   4   5     0.6     3.2
   4   4   5       0     1.7
   5   4   5    1.85    2.53
 -10   5   5    4.96    3.31
  -9   5   5    -1.8    2.45
  -8   5   5    52.2    8.47
  -7   5   5   51.98    7.07
  -6   5   5   80.69    9.29
  -5   5   5   12.75    3.42
  -4   5   5   15.31    4.02
  -3   5   5   53.04    7.04
  -2   5   5   20.89    4.39
  -1   5   5   39.46    5.62
   0   5   5   66.16    7.47
   1   5   5     5.5     5.6
   2   5   5     1.4     3.5
   3   5   5    -0.2       2
  -9   6   5    0.99    3.28
  -8   6   5   27.73    4.85
  -7   6   5   22.59    5.95
  -6   6   5    3.32    3.07
  -5   6   5    4.86    2.03
  -4   6   5     6.9    2.66
  -3   6   5    1.73    1.37
  -2   6   5    6.48    3.56
  -1   6   5    2.43     0.9
   0   6   5   28.21    5.35
   1   6   5    10.5     6.4
   2   6   5     0.3     2.9
  -8   7   5   -1.72     3.1
  -7   7   5    10.2    4.17
  -6   7   5   33.71    6.36
  -5   7   5    24.3    5.38
  -4   7   5   -1.22    2.67
  -3   7   5   26.09    5.59
  -2   7   5   25.03    5.16
  -1   7   5   11.08    3.89
   0   7   5    -0.7     2.3
   1   7   5       1     4.2
  -7   8   5    4.63    2.78
  -6   8   5     0.8    1.81
  -5   8   5   -1.09    2.09
  -4   8   5    3.32    1.83
  -3   8   5    21.2    5.94
  -2   8   5    1.67    1.86
  -1   8   5     0.6     3.1
  -6   9   5    0.78    0.97
  -5   9   5    2.21    2.93
  -4   9   5   10.09    3.35
  -3   9   5    6.98    3.76
  -4  10   5   -4.46    4.61
   0  -5   6  263.59    11.1
   1  -5   6   78.75    4.51
  -1  -4   6    -2.5    1.98
   0  -4   6   -0.19    1.04
   1  -4   6  109.16    6.92
   2  -4   6   96.93    5.49
   6  -4   6    -0.7     2.2
  -1  -3   6  112.27    7.58
   0  -3   6    3.92    1.34
   0  -3   6    3.09    0.89
   1  -3   6  312.17    11.1
   1  -3   6  307.14   11.03
   2  -3   6   -0.24    1.03
   3  -3   6   -2.72     2.1
   4  -3   6    3.76    1.51
   4  -3   6    2.08    1.14
   5  -3   6    2.99    2.86
   6  -3   6     0.5     3.8
  -7  -2   6   23.87    5.22
  -6  -2   6    1.78    1.92
  -4  -2   6   54.69    4.71
   0  -2   6   17.22     2.6
   3  -2   6   95.68    7.39
   4  -2   6    8.37    2.84
   5  -2   6   12.76    3.63
   5  -2   6    8.97     3.1
   6  -2   6   -0.63    1.95
   7  -2   6    0.58    3.06
  -8  -1   6  254.98   17.26
  -7  -1   6  165.75   13.05
  -6  -1   6   87.11    8.76
  -5  -1   6    29.6    4.74
  -4  -1   6   28.69    4.71
   4  -1   6    6.03    2.59
   5  -1   6   15.64    3.76
   5  -1   6   18.06     3.9
   6  -1   6    1.19    0.77
   6  -1   6    2.82    3.08
   7  -1   6   -0.06    1.79
  -9   0   6    9.17    2.41
  -8   0   6   34.94    5.44
  -7   0   6   203.3   14.56
  -6   0   6   49.18    7.07
  -5   0   6    2.79    1.51
  -4   0   6     0.7    0.55
  -3   0   6   50.79    5.68
   3   0   6     1.6     3.5
   4   0   6     0.7     2.2
   5   0   6   14.07    4.62
   5   0   6   11.35    3.64
   6   0   6    -1.5    2.55
   6   0   6   -2.15    1.72
 -10   1   6    3.08    1.94
  -9   1   6   59.02    7.31
  -8   1   6   -3.06    3.82
  -7   1   6  289.97   17.73
  -6   1   6  244.91   15.49
  -5   1   6  401.09   19.29
  -4   1   6  290.56   16.38
  -3   1   6   29.49    5.12
  -2   1   6    3.91    1.74
   2   1   6    13.7     6.7
   3   1   6     0.4     2.9
   4   1   6     2.6     2.9
   5   1   6    0.34    1.53
   6   1   6    2.69     3.7
   6   1   6    2.91    2.65
   7   1   6    1.58    1.11
 -10   2   6    0.72    2.06
  -9   2   6    8.79    2.61
  -8   2   6   25.73     4.6
  -7   2   6    4.08    2.61
  -6   2   6    2.85    2.23
  -5   2   6  481.47   22.24
  -4   2   6   37.49    6.32
  -3   2   6   66.64    7.85
  -2   2   6    9.97    2.58
  -2   2   6   12.25    2.12
  -1   2   6   13.01    3.54
   1   2   6      15     6.9
   2   2   6    31.5     7.7
   3   2   6      24     6.3
   4   2   6    13.3     6.6
   5   2   6    0.29     1.2
   6   2   6    -1.2    1.02
 -11   3   6   10.57    3.36
 -10   3   6    3.85    1.77
  -9   3   6    4.23    3.03
  -8   3   6    2.69    2.34
  -7   3   6   24.03    3.87
  -6   3   6    3.34     1.8
  -5   3   6    0.52    2.12
  -4   3   6    45.4    7.06
  -3   3   6  244.81   16.22
  -2   3   6    1.69    0.57
  -2   3   6    2.22    1.62
  -1   3   6    9.18    2.84
   0   3   6     2.2     3.7
   1   3   6     0.7     2.1
   2   3   6     3.1     4.8
   3   3   6    -0.3     2.6
   4   3   6     6.6     6.2
   5   3   6    4.78    1.34
 -10   4   6   51.16    9.25
  -9   4   6    0.27    1.67
  -8   4   6    12.5    3.23
  -7   4   6    4.59    2.86
  -6   4   6   22.19    4.88
  -5   4   6    2.37    2.94
  -4   4   6    3.24    1.48
  -3   4   6  195.41   14.91
  -2   4   6   10.67    2.96
  -1   4   6   11.54    3.58
   0   4   6     0.4     3.5
   1   4   6    -0.4     2.6
   2   4   6     5.9     6.1
   3   4   6     3.6     4.7
 -10   5   6    5.41    4.69
  -9   5   6    1.67    2.04
  -8   5   6   10.77    4.22
  -7   5   6    5.76     2.1
  -6   5   6    1.68    1.24
  -5   5   6    2.92    1.91
  -4   5   6   14.04    3.67
  -3   5   6    1.23     1.9
  -2   5   6    9.17    3.43
  -1   5   6   26.45    4.95
   0   5   6    54.8     9.4
   1   5   6     2.2     5.1
   2   5   6     0.4     3.5
   3   5   6    -0.3     2.5
  -9   6   6   -0.14    3.91
  -8   6   6    5.47    3.05
  -7   6   6   36.81    7.06
  -6   6   6   34.72    5.78
  -5   6   6   96.23   10.81
  -4   6   6   54.17    8.23
  -3   6   6    21.3    5.66
  -2   6   6    1.27     1.4
  -1   6   6    5.32    2.69
   0   6   6    11.7     7.1
   1   6   6    15.4     6.7
  -8   7   6     0.7    2.81
  -7   7   6   -2.86    3.66
  -6   7   6   -2.29    1.34
  -5   7   6    2.51    1.19
  -4   7   6    2.39    2.09
  -3   7   6    5.29    2.44
  -2   7   6   -1.42    1.89
  -1   7   6    0.22    0.98
   0   7   6     0.8     2.9
  -6   8   6    15.8    4.97
  -5   8   6    17.3    5.37
  -4   8   6    2.88    2.88
  -3   8   6   17.22    5.39
  -2   8   6   22.88    5.64
  -5   9   6    2.95    2.47
  -4   9   6   -1.73    2.17
   0  -4   7  423.93   16.95
   1  -4   7  227.18   11.52
  -4  -3   7   19.46    2.79
  -3  -3   7   -0.09    0.39
   1  -3   7     1.5    1.17
   2  -3   7  223.09   11.23
   3  -3   7  155.52   11.55
   4  -3   7   29.41    5.61
   5  -3   7     1.1    1.44
   6  -3   7    0.67    1.28
  -8  -2   7     2.5    1.73
  -7  -2   7   31.38    5.82
   3  -2   7    4.84    2.56
   4  -2   7    7.26    1.84
   5  -2   7   17.48    4.65
   6  -2   7   -1.47    2.73
  -8  -1   7    4.84    2.68
  -7  -1   7    64.8    8.22
  -6  -1   7   25.23     5.2
  -5  -1   7    1.51    1.78
   4  -1   7   24.87    4.35
   5  -1   7     1.8    1.09
   5  -1   7    4.82    2.31
   6  -1   7   -0.42    1.72
  -9   0   7    5.27    3.19
  -8   0   7  793.04   32.14
  -7   0   7  405.32   21.68
  -6   0   7  110.81   10.79
  -5   0   7    1.47    0.98
  -4   0   7   15.71    3.53
  -3   0   7    2.05    1.65
   3   0   7     1.4     4.7
   4   0   7     1.8     4.1
   5   0   7   -0.86    3.12
   5   0   7    1.96    3.16
   6   0   7    6.82    2.03
 -10   1   7   20.86    4.99
  -9   1   7   -9.03     4.4
  -8   1   7   -2.74    3.96
  -7   1   7    2.51    2.41
  -6   1   7  447.56   22.19
  -5   1   7  291.57   18.16
  -4   1   7    51.2    7.29
  -3   1   7    2.36    1.57
   2   1   7     0.5     2.6
   3   1   7     0.9     4.5
   4   1   7     1.3     3.8
   5   1   7   -0.46    1.15
   6   1   7    1.05     2.9
 -11   2   7    7.55    4.51
 -10   2   7       3    2.82
  -9   2   7   30.65    6.41
  -8   2   7   10.82     1.1
  -7   2   7     2.2    3.14
  -6   2   7   38.35    6.25
  -5   2   7  134.14   12.69
  -4   2   7  345.91   20.38
  -3   2   7  311.37   18.15
  -2   2   7  135.09   11.82
   1   2   7     8.4     4.7
   2   2   7     1.4     4.7
   3   2   7     0.3     3.1
   4   2   7    -0.4     2.5
   5   2   7    0.19    1.09
 -11   3   7   -6.29    5.47
 -10   3   7    7.59    2.84
  -9   3   7    4.06    1.92
  -8   3   7    3.01    2.18
  -7   3   7    3.69    3.01
  -6   3   7   15.22    3.48
  -5   3   7    2.37    2.36
  -4   3   7    98.7   11.17
  -3   3   7  207.21   15.19
  -2   3   7  101.25   10.44
  -1   3   7    33.3     9.2
   0   3   7     1.1     3.7
   1   3   7    -0.4     2.3
   2   3   7     3.9     5.4
   3   3   7     5.8       5
 -10   4   7   24.99    6.19
  -9   4   7    5.33    3.34
  -8   4   7    5.54     4.1
  -7   4   7   -2.48    3.63
  -6   4   7    1.14       3
  -5   4   7   11.83    3.43
  -4   4   7   89.28    10.4
  -3   4   7   55.67    8.49
  -2   4   7  200.32   15.21
  -1   4   7    27.6       7
   0   4   7    35.1     9.3
   1   4   7    15.7     6.5
   2   4   7     1.9     3.1
  -9   5   7    8.24    4.84
  -8   5   7   15.37    5.01
  -7   5   7   25.65    5.64
  -6   5   7    0.71    0.99
  -5   5   7   -1.91    3.15
  -4   5   7    1.58     2.4
  -3   5   7    6.12    3.02
  -2   5   7    9.09    3.13
  -1   5   7    15.7    5.44
   0   5   7    13.4     7.1
   1   5   7     0.1     2.8
  -8   6   7   -0.85    3.08
  -7   6   7   -3.02    4.34
  -6   6   7   36.23    7.52
  -5   6   7    4.77    3.33
  -4   6   7   10.78       5
  -3   6   7   -0.18    1.64
  -2   6   7    3.41    3.09
  -1   6   7    -0.5    1.96
   0   6   7     2.3     3.2
  -7   7   7    1.22    2.17
  -6   7   7    24.1    6.25
  -5   7   7   19.97    5.93
  -4   7   7   16.65    4.84
  -3   7   7     6.7    3.57
  -2   7   7  -10.72    4.46
  -5   8   7    2.64    0.96
  -4   8   7    1.36    0.98
  -3   8   7   -5.01    3.38
   1  -4   8   22.34    3.01
   2  -4   8    4.35    3.21
   3  -4   8   13.66     3.1
   1  -3   8   73.59    5.92
   2  -3   8    21.7    3.05
   3  -3   8    10.9     2.9
   4  -3   8   -0.28    1.83
   5  -3   8   -1.79    3.26
   6  -3   8   -7.82    3.92
   3  -2   8  108.93    9.32
   4  -2   8   31.61    5.68
   5  -2   8    2.19     2.9
   6  -2   8    1.28       3
  -9  -1   8    5.05    2.28
  -8  -1   8    1.61    1.47
  -7  -1   8   14.05    4.05
  -6  -1   8   22.91    5.51
   4  -1   8    -1.5    1.92
   5  -1   8   19.87    5.43
  -9   0   8    12.8    4.06
  -8   0   8   16.35    5.35
  -7   0   8     1.1    1.06
  -6   0   8   15.73    3.78
  -5   0   8   19.85    4.78
  -4   0   8   30.65    5.58
   3   0   8     1.3     4.5
   4   0   8     1.2     3.5
   5   0   8   -4.33    4.44
 -10   1   8    2.63    1.82
  -9   1   8   18.78    5.25
  -8   1   8    5.59    4.13
  -7   1   8  283.21   19.18
  -6   1   8   59.59    7.57
  -5   1   8    5.41    1.78
  -4   1   8    2.59    2.48
  -3   1   8   -2.79    3.09
   2   1   8    -0.7     2.5
   3   1   8     0.6       4
   5   1   8   -4.24    4.81
 -11   2   8   26.94    6.29
 -10   2   8   29.65    5.28
  -9   2   8    16.7    3.02
  -8   2   8   -1.05    2.38
  -7   2   8   14.27    4.47
  -6   2   8    8.24    1.74
  -5   2   8  422.43   23.05
  -4   2   8    86.1    10.5
  -3   2   8    1.94    2.83
   1   2   8     1.7     3.7
   2   2   8    -0.8     2.4
   3   2   8     0.6       4
 -10   3   8    3.19    2.25
  -9   3   8   -1.27    0.99
  -8   3   8    8.38     3.7
  -7   3   8     5.5    2.07
  -6   3   8    7.02    4.01
  -5   3   8   11.74    4.01
  -4   3   8    27.7    5.95
  -3   3   8  288.34   18.91
  -1   3   8    34.6     8.2
   0   3   8     0.2       2
   1   3   8     0.9     4.1
   2   3   8    -0.1     2.7
  -9   4   8   55.85      10
  -8   4   8   -0.61    3.11
  -7   4   8   -0.49    2.72
  -6   4   8    5.05    3.26
  -5   4   8   11.73    3.83
  -4   4   8    29.7    6.23
  -3   4   8   11.73    3.63
  -2   4   8    57.4    8.95
  -1   4   8    42.3       8
   0   4   8    36.7     9.3
   1   4   8     8.4     5.2
  -8   5   8    8.33    4.37
  -7   5   8     7.4    3.25
  -6   5   8    0.49    2.49
  -5   5   8    1.44    2.46
  -4   5   8   22.83    5.82
  -3   5   8   13.03    3.44
  -2   5   8   -0.51    2.08
  -1   5   8    14.1     5.2
   0   5   8    19.6     7.5
  -7   6   8    7.66    3.05
  -6   6   8   21.91    5.85
  -5   6   8    0.14    1.99
  -4   6   8    7.71    4.76
  -3   6   8   -2.91    3.16
  -2   6   8    2.83    1.51
  -5   7   8   36.81    8.57
  -4   7   8    0.58    2.22
  -3   7   8   -0.71    2.56
  -2   7   8   -4.06    2.99
   1  -3   9   27.92    3.57
   2  -3   9     0.9    1.07
   3  -3   9    8.65    3.25
   3  -2   9     1.1    2.51
   4  -2   9    1.19    2.08
   5  -2   9  -13.38    5.02
  -9  -1   9    5.55    3.72
  -8  -1   9    5.35    2.05
  -7  -1   9   21.72    5.06
   4  -1   9    4.32     2.8
   5  -1   9    0.36    3.32
 -10   0   9    3.21       2
  -9   0   9    20.5    5.63
  -8   0   9    3.97    3.46
  -7   0   9   -0.88    1.15
  -6   0   9     5.4    3.33
  -5   0   9   19.39    4.42
   3   0   9     0.6     2.9
 -10   1   9    9.74    2.61
  -9   1   9    9.35    3.23
  -8   1   9   -0.82    1.48
  -7   1   9   23.47    5.27
  -6   1   9    9.98    4.92
  -5   1   9    8.43    1.99
  -4   1   9    5.93    2.15
   1   1   9    -0.8     2.3
   2   1   9     0.5     3.7
 -10   2   9    19.6    7.01
  -9   2   9    0.31    3.08
  -8   2   9       3    2.16
  -7   2   9   28.83    7.47
  -6   2   9   16.54    3.47
  -5   2   9   11.69    1.84
  -4   2   9    5.95    1.62
   0   2   9     0.2     2.7
   1   2   9     0.4     1.9
   2   2   9     4.9     5.3
  -9   3   9   25.51    6.32
  -8   3   9   13.36    3.39
  -7   3   9    5.37    2.09
  -6   3   9     6.9    2.99
  -5   3   9   -0.04     4.9
  -5   3   9     4.2     4.2
  -4   3   9   49.69     8.4
  -3   3   9    0.74    2.65
  -2   3   9    -0.8     2.2
  -1   3   9     0.9     3.9
   0   3   9     0.5     2.9
   1   3   9    -0.9     2.2
  -8   4   9   26.32    6.01
  -7   4   9   19.97    4.72
  -6   4   9    6.13    2.73
  -5   4   9    -2.8    3.32
  -4   4   9    0.82    2.68
  -3   4   9     3.1    1.36
  -2   4   9    59.4    10.7
  -1   4   9     8.9     5.1
  -7   5   9   -1.32    4.83
  -6   5   9   20.17    6.25
  -5   5   9   23.08    6.04
  -4   5   9   12.22     3.8
  -3   5   9    4.14    3.01
  -2   5   9       0     1.4
  -5   6   9    1.11     2.1
  -4   6   9    5.38    2.96
  -3   6   9   -0.68    2.93
   4  -1  10   -3.64    4.01
 -10   0  10  -13.78    5.95
  -9   0  10   -2.47    2.57
  -8   0  10    -4.4    3.48
  -7   0  10       2    1.35
  -9   1  10   10.17    4.65
  -8   1  10   -6.48    4.86
  -7   1  10    1.62    1.95
  -6   1  10    2.64    1.38
   1   1  10     2.4     4.4
  -8   2  10    3.25     2.7
  -7   2  10   -1.21    2.17
  -6   2  10    8.54    5.42
  -5   2  10   -0.96    3.79
  -4   2  10     0.6     2.9
  -3   2  10     7.2     6.4
   0   2  10     4.6     4.9
  -8   3  10    3.29    3.27
  -7   3  10    1.13    2.36
  -6   3  10    0.02    3.09
  -6   3  10     1.7     3.3
  -5   3  10    3.24    1.38
  -4   3  10    6.94    3.81
  -3   3  10     1.3     4.7
  -2   3  10     1.2     3.9
  -1   3  10    -0.3     2.4
  -6   4  10   -3.68    3.47
  -5   4  10    7.88     1.4
  -4   4  10   19.44    5.96
  -4   5  10    9.85    5.18
  -7   1  11    3.96    3.56
  -6   1  11     4.1     5.7
  -5   1  11    11.1     6.1
  -4   1  11     4.2       4
  -6   2  11    7.03    4.41
  -5   2  11     6.5     6.1
  -4   2  11       2     4.2
  -3   2  11    -0.4     2.5
;
_shelx_hkl_checksum              58672
loop_
_space_group_symop_operation_xyz
'x, y, z'
'-x, -y, -z'
loop_
_atom_site_label
_atom_site_type_symbol
_atom_site_fract_x
_atom_site_fract_y
_atom_site_fract_z
_atom_site_U_iso_or_equiv
_atom_site_adp_type
_atom_site_occupancy
_atom_site_site_symmetry_order
_atom_site_calc_flag
_atom_site_refinement_flags_posn
_atom_site_refinement_flags_adp
_atom_site_refinement_flags_occupancy
_atom_site_disorder_assembly
_atom_site_disorder_group
O1 O 0.70994(19) 0.57970(17) 0.73363(17) 0.0500(5) Uani 1 1 d . . . . .
O2 O 0.5616(2) 0.78025(17) 0.86529(17) 0.0519(5) Uani 1 1 d . . . . .
O3 O 0.3331(2) 0.5636(2) 0.7495(2) 0.0625(5) Uani 1 1 d . . . . .
C1 C 0.6055(3) 0.8298(2) 0.4675(3) 0.0493(6) Uani 1 1 d . . . . .
H1A H 0.615786 0.839868 0.375759 0.059 Uiso 1 1 calc R U . . .
C2 C 0.6652(3) 0.7110(3) 0.5291(3) 0.0500(6) Uani 1 1 d . . . . .
H2A H 0.716344 0.643038 0.480093 0.060 Uiso 1 1 calc R U . . .
C3 C 0.6512(3) 0.6900(3) 0.6611(3) 0.0441(6) Uani 1 1 d . . . . .
C4 C 0.5718(3) 0.7916(3) 0.7265(3) 0.0428(6) Uani 1 1 d . . . . .
C5 C 0.5139(3) 0.9086(3) 0.6652(3) 0.0453(6) Uani 1 1 d . . . . .
H5A H 0.459982 0.974163 0.713264 0.054 Uiso 1 1 calc R U . . .
C6 C 0.5308(3) 0.9361(2) 0.5333(3) 0.0415(5) Uani 1 1 d . . . . .
C7 C 0.7953(3) 0.4775(3) 0.6664(3) 0.0479(6) Uani 1 1 d . . . . .
H7A H 0.895059 0.545241 0.655960 0.058 Uiso 1 1 calc R U . . .
H7B H 0.715571 0.411779 0.565905 0.058 Uiso 1 1 calc R U . . .
C8 C 0.8530(3) 0.3692(3) 0.7643(3) 0.0496(6) Uani 1 1 d . . . . .
H8A H 0.752030 0.303283 0.774489 0.060 Uiso 1 1 calc R U . . .
H8B H 0.930365 0.436713 0.864875 0.060 Uiso 1 1 calc R U . . .
C9 C 0.9458(3) 0.2565(3) 0.7048(3) 0.0489(6) Uani 1 1 d . . . . .
H9A H 0.870233 0.192240 0.602490 0.059 Uiso 1 1 calc R U . . .
H9B H 1.049443 0.322470 0.698516 0.059 Uiso 1 1 calc R U . . .
C10 C 0.9983(3) 0.1416(3) 0.8006(3) 0.0497(6) Uani 1 1 d . . . . .
H10A H 1.079320 0.206224 0.901028 0.060 Uiso 1 1 calc R U . . .
H10B H 0.895489 0.081116 0.812170 0.060 Uiso 1 1 calc R U . . .
C11 C 1.0812(3) 0.0213(3) 0.7385(3) 0.0601(7) Uani 1 1 d . . . . .
H11A H 1.002203 -0.040478 0.636505 0.072 Uiso 1 1 calc R U . . .
H11B H 1.186836 0.081545 0.730988 0.072 Uiso 1 1 calc R U . . .
C12 C 1.1264(3) -0.0968(3) 0.8322(3) 0.0668(8) Uani 1 1 d . . . . .
H12A H 1.179948 -0.171670 0.785776 0.100 Uiso 1 1 d R U . . .
H12B H 1.207678 -0.036300 0.933906 0.100 Uiso 1 1 d R U . . .
H12C H 1.021008 -0.159660 0.838196 0.100 Uiso 1 1 d R U . . .
C13 C 0.4325(4) 0.6594(3) 0.8625(3) 0.0539(7) Uani 1 1 d . . . . .
C14 C 0.4350(4) 0.6716(3) 1.0175(3) 0.0681(8) Uani 1 1 d . . . . .
H14A H 0.342355 0.584833 1.015274 0.102 Uiso 1 1 d R U . . .
H14B H 0.545305 0.660803 1.081744 0.102 Uiso 1 1 d R U . . .
H14C H 0.418795 0.776913 1.056754 0.102 Uiso 1 1 d R U . . .
loop_
_atom_site_aniso_label
_atom_site_aniso_U_11
_atom_site_aniso_U_22
_atom_site_aniso_U_33
_atom_site_aniso_U_23
_atom_site_aniso_U_13
_atom_site_aniso_U_12
O1 0.0578(10) 0.0510(9) 0.0627(12) 0.0178(8) 0.0431(9) 0.0233(8)
O2 0.0647(10) 0.0506(9) 0.0563(12) 0.0152(8) 0.0406(9) 0.0177(8)
O3 0.0712(12) 0.0572(10) 0.0725(14) 0.0109(10) 0.0505(11) 0.0099(9)
C1 0.0570(14) 0.0469(12) 0.0641(17) 0.0179(12) 0.0450(14) 0.0159(11)
C2 0.0504(13) 0.0472(13) 0.0692(18) 0.0142(12) 0.0427(13) 0.0149(11)
C3 0.0494(13) 0.0412(11) 0.0546(16) 0.0159(11) 0.0324(12) 0.0144(10)
C4 0.0507(13) 0.0440(11) 0.0437(15) 0.0111(11) 0.0298(12) 0.0134(10)
C5 0.0471(13) 0.0415(11) 0.0593(17) 0.0096(11) 0.0351(13) 0.0150(10)
C6 0.0423(12) 0.0414(11) 0.0487(15) 0.0106(10) 0.0292(12) 0.0074(10)
C7 0.0472(13) 0.0480(12) 0.0640(17) 0.0118(12) 0.0385(13) 0.0182(11)
C8 0.0532(14) 0.0512(13) 0.0587(17) 0.0153(12) 0.0346(13) 0.0202(11)
C9 0.0481(13) 0.0520(13) 0.0633(17) 0.0181(12) 0.0386(13) 0.0162(11)
C10 0.0458(12) 0.0564(13) 0.0628(17) 0.0199(13) 0.0343(13) 0.0201(11)
C11 0.0578(15) 0.0585(14) 0.089(2) 0.0255(14) 0.0508(15) 0.0257(12)
C12 0.0590(15) 0.0601(15) 0.094(2) 0.0203(15) 0.0374(16) 0.0286(13)
C13 0.0710(17) 0.0515(14) 0.067(2) 0.0218(14) 0.0492(16) 0.0322(13)
C14 0.103(2) 0.0689(16) 0.071(2) 0.0336(15) 0.0617(18) 0.0439(16)
loop_
_atom_type_symbol
_atom_type_description
_atom_type_scat_dispersion_real
_atom_type_scat_dispersion_imag
_atom_type_scat_source
C C 0.0033 0.0016 'International Tables Vol C Tables 4.2.6.8 and 6.1.1.4'
H H 0.0000 0.0000 'International Tables Vol C Tables 4.2.6.8 and 6.1.1.4'
O O 0.0106 0.0060 'International Tables Vol C Tables 4.2.6.8 and 6.1.1.4'
loop_
_geom_angle_atom_site_label_1
_geom_angle_atom_site_label_2
_geom_angle_atom_site_label_3
_geom_angle
_geom_angle_site_symmetry_1
_geom_angle_site_symmetry_3
_geom_angle_publ_flag
C3 O1 C7 116.94(17) . . ?
C13 O2 C4 116.82(19) . . ?
C2 C1 C6 123.3(2) . . ?
C2 C1 H1A 118.4 . . ?
C6 C1 H1A 118.4 . . ?
C3 C2 C1 120.6(2) . . ?
C3 C2 H2A 119.7 . . ?
C1 C2 H2A 119.7 . . ?
O1 C3 C2 125.46(19) . . ?
O1 C3 C4 117.5(2) . . ?
C2 C3 C4 117.1(2) . . ?
C5 C4 C3 121.8(2) . . ?
C5 C4 O2 118.71(19) . . ?
C3 C4 O2 119.31(19) . . ?
C4 C5 C6 122.4(2) . . ?
C4 C5 H5A 118.8 . . ?
C6 C5 H5A 118.8 . . ?
C1 C6 C5 114.7(2) . . ?
C1 C6 C6 122.6(3) . 2_676 ?
C5 C6 C6 122.7(2) . 2_676 ?
O1 C7 C8 108.50(18) . . ?
O1 C7 H7A 110.0 . . ?
C8 C7 H7A 110.0 . . ?
O1 C7 H7B 110.0 . . ?
C8 C7 H7B 110.0 . . ?
H7A C7 H7B 108.4 . . ?
C7 C8 C9 113.11(19) . . ?
C7 C8 H8A 109.0 . . ?
C9 C8 H8A 109.0 . . ?
C7 C8 H8B 109.0 . . ?
C9 C8 H8B 109.0 . . ?
H8A C8 H8B 107.8 . . ?
C10 C9 C8 113.2(2) . . ?
C10 C9 H9A 108.9 . . ?
C8 C9 H9A 108.9 . . ?
C10 C9 H9B 108.9 . . ?
C8 C9 H9B 108.9 . . ?
H9A C9 H9B 107.7 . . ?
C11 C10 C9 114.2(2) . . ?
C11 C10 H10A 108.7 . . ?
C9 C10 H10A 108.7 . . ?
C11 C10 H10B 108.7 . . ?
C9 C10 H10B 108.7 . . ?
H10A C10 H10B 107.6 . . ?
C12 C11 C10 113.6(2) . . ?
C12 C11 H11A 108.9 . . ?
C10 C11 H11A 108.9 . . ?
C12 C11 H11B 108.9 . . ?
C10 C11 H11B 108.9 . . ?
H11A C11 H11B 107.7 . . ?
C11 C12 H12A 109.5 . . ?
C11 C12 H12B 109.5 . . ?
H12A C12 H12B 109.5 . . ?
C11 C12 H12C 109.4 . . ?
H12A C12 H12C 109.5 . . ?
H12B C12 H12C 109.5 . . ?
O3 C13 O2 122.9(2) . . ?
O3 C13 C14 127.5(2) . . ?
O2 C13 C14 109.5(2) . . ?
C13 C14 H14A 109.4 . . ?
C13 C14 H14B 109.5 . . ?
H14A C14 H14B 109.5 . . ?
C13 C14 H14C 109.5 . . ?
H14A C14 H14C 109.5 . . ?
H14B C14 H14C 109.5 . . ?
loop_
_geom_bond_atom_site_label_1
_geom_bond_atom_site_label_2
_geom_bond_distance
_geom_bond_site_symmetry_2
_geom_bond_publ_flag
O1 C3 1.364(3) . ?
O1 C7 1.448(2) . ?
O2 C13 1.367(3) . ?
O2 C4 1.412(2) . ?
O3 C13 1.200(3) . ?
C1 C2 1.379(3) . ?
C1 C6 1.397(3) . ?
C1 H1A 0.9500 . ?
C2 C3 1.379(3) . ?
C2 H2A 0.9500 . ?
C3 C4 1.398(3) . ?
C4 C5 1.359(3) . ?
C5 C6 1.404(3) . ?
C5 H5A 0.9500 . ?
C6 C6 1.477(4) 2_676 ?
C7 C8 1.494(3) . ?
C7 H7A 0.9900 . ?
C7 H7B 0.9900 . ?
C8 C9 1.520(3) . ?
C8 H8A 0.9900 . ?
C8 H8B 0.9900 . ?
C9 C10 1.517(3) . ?
C9 H9A 0.9900 . ?
C9 H9B 0.9900 . ?
C10 C11 1.514(3) . ?
C10 H10A 0.9900 . ?
C10 H10B 0.9900 . ?
C11 C12 1.515(3) . ?
C11 H11A 0.9900 . ?
C11 H11B 0.9900 . ?
C12 H12A 0.9901 . ?
C12 H12B 0.9900 . ?
C12 H12C 0.9900 . ?
C13 C14 1.498(3) . ?
C14 H14A 0.9800 . ?
C14 H14B 0.9800 . ?
C14 H14C 0.9800 . ?
loop_
_geom_hbond_atom_site_label_D
_geom_hbond_atom_site_label_H
_geom_hbond_atom_site_label_A
_geom_hbond_distance_DH
_geom_hbond_distance_HA
_geom_hbond_distance_DA
_geom_hbond_angle_DHA
_geom_hbond_site_symmetry_A
_geom_hbond_publ_flag
C2 H2A O3 0.95 2.48 3.298(3) 144.7 2_666 yes

_cod_database_fobs_code 2108608
