#------------------------------------------------------------------------------
#$Date: 2020-07-07 08:01:58 +0300 (Tue, 07 Jul 2020) $
#$Revision: 254053 $
#$URL: file:///home/coder/svn-repositories/cod/cif/2/10/86/2108620.cif $
#------------------------------------------------------------------------------
#
# This file is available in the Crystallography Open Database (COD),
# http://www.crystallography.net/. The original data for this entry
# were provided by IUCr Journals, http://journals.iucr.org/.
#
# The file may be used within the scientific community so long as
# proper attribution is given to the journal article from which the
# data were obtained.
#
data_2108620
loop_
_publ_author_name
'Li, Zihan'
'Yang, Pengpeng'
'Liu, Haodong'
'Liu, Jun'
'Zhu, Sha'
'Li, Xiaojie'
'Zhuang, Wei'
'Wu, Jinglan'
'Ying, Hanjie'
_publ_section_title
;
 Crystal forms and phase transformation of
 1,5-pentanediamine-terephthalate: a bio-based nylon 5T monomer
;
_journal_coeditor_code           UM5041SUP1
_journal_issue                   4
_journal_name_full               'Acta Crystallographica Section B'
_journal_page_first
;
;
_journal_paper_doi               10.1107/S2052520620006265
_journal_volume                  76
_journal_year                    2020
_chemical_formula_sum            'C13 H20 N2 O4'
_chemical_formula_weight         268.31
_space_group_crystal_system      triclinic
_space_group_IT_number           2
_space_group_name_Hall           '-P 1'
_space_group_name_H-M_alt        'P -1'
_atom_sites_solution_hydrogens   geom
_audit_creation_method           SHELXL-2018/3
_cell_angle_alpha                113.460(4)
_cell_angle_beta                 105.990(3)
_cell_angle_gamma                99.162(2)
_cell_formula_units_Z            2
_cell_length_a                   8.2881(9)
_cell_length_b                   9.5302(8)
_cell_length_c                   10.6708(11)
_cell_measurement_reflns_used    893
_cell_measurement_temperature    298(2)
_cell_measurement_theta_max      26.577
_cell_measurement_theta_min      2.43
_cell_volume                     707.87(13)
_computing_structure_refinement  'SHELXL-2018/3 (Sheldrick, 2018)'
_diffrn_ambient_temperature      298(2)
_diffrn_measured_fraction_theta_full 0.981
_diffrn_measured_fraction_theta_max 0.981
_diffrn_measurement_device_type  'CCD area detector'
_diffrn_measurement_method       'phi and omega scans'
_diffrn_radiation_type           MoK\a
_diffrn_radiation_wavelength     0.71073
_diffrn_reflns_av_R_equivalents  0.0263
_diffrn_reflns_av_unetI/netI     0.0696
_diffrn_reflns_Laue_measured_fraction_full 0.981
_diffrn_reflns_Laue_measured_fraction_max 0.981
_diffrn_reflns_limit_h_max       5
_diffrn_reflns_limit_h_min       -9
_diffrn_reflns_limit_k_max       11
_diffrn_reflns_limit_k_min       -11
_diffrn_reflns_limit_l_max       12
_diffrn_reflns_limit_l_min       -11
_diffrn_reflns_number            3533
_diffrn_reflns_point_group_measured_fraction_full 0.981
_diffrn_reflns_point_group_measured_fraction_max 0.981
_diffrn_reflns_theta_full        25.016
_diffrn_reflns_theta_max         25.016
_diffrn_reflns_theta_min         2.430
_exptl_absorpt_coefficient_mu    0.094
_exptl_absorpt_correction_T_max  0.9662
_exptl_absorpt_correction_T_min  0.9582
_exptl_absorpt_correction_type   multi-scan
_exptl_absorpt_process_details   sadabs
_exptl_crystal_colour            colorless
_exptl_crystal_density_diffrn    1.259
_exptl_crystal_description       block-like
_exptl_crystal_F_000             288
_exptl_crystal_size_max          0.460
_exptl_crystal_size_mid          0.400
_exptl_crystal_size_min          0.370
_refine_diff_density_max         0.184
_refine_diff_density_min         -0.301
_refine_diff_density_rms         0.058
_refine_ls_extinction_method     none
_refine_ls_goodness_of_fit_ref   1.037
_refine_ls_hydrogen_treatment    constr
_refine_ls_matrix_type           full
_refine_ls_number_parameters     174
_refine_ls_number_reflns         2449
_refine_ls_number_restraints     0
_refine_ls_restrained_S_all      1.037
_refine_ls_R_factor_all          0.1039
_refine_ls_R_factor_gt           0.0548
_refine_ls_shift/su_max          0.000
_refine_ls_shift/su_mean         0.000
_refine_ls_structure_factor_coef Fsqd
_refine_ls_weighting_details
'w=1/[\s^2^(Fo^2^)+(0.0570P)^2^] where P=(Fo^2^+2Fc^2^)/3'
_refine_ls_weighting_scheme      calc
_refine_ls_wR_factor_gt          0.1197
_refine_ls_wR_factor_ref         0.1388
_reflns_Friedel_coverage         0.000
_reflns_number_gt                1412
_reflns_number_total             2449
_reflns_threshold_expression     'I > 2\s(I)'
_cod_data_source_file            um5041sup1.cif
_cod_data_source_block           anhydrate
_cod_original_cell_volume        707.87(12)
_cod_database_code               2108620
_publcif_datablock.id            {fd309286-c23f-4eb7-a943-be4885135628}
_shelx_shelxl_version_number     2018/3
_shelx_space_group_comment
;
The symmetry employed for this shelxl refinement is uniquely defined
by the following loop, which should always be used as a source of
symmetry information in preference to the above space-group names.
They are only intended as comments.
;
_shelx_estimated_absorpt_t_min   0.958
_shelx_estimated_absorpt_t_max   0.966
_shelx_res_file
;
TITL 181119c in P-1
    181119c.res
    created by SHELXL-2018/3 at 08:23:40 on 01-Mar-2020
CELL 0.71073   8.2881   9.5302  10.6708 113.460 105.990  99.162
ZERR    2.00   0.0009   0.0008   0.0011   0.004   0.003   0.002
LATT 1
SFAC C  H  N  O
UNIT 26 40 4 8
OMIT  -1.00  50.04
L.S. 8
ACTA
BOND $h
FMAP 2
PLAN 20
size 0.46 0.40 0.37
conf
htab
TEMP 25
WGHT    0.056960
FVAR       0.83507
MOLE 1
N1    3    0.916150    0.779224    0.027989    11.00000    0.04107    0.04457 =
         0.04502    0.02634    0.01050    0.01079
AFIX 137
H1A   2    0.934186    0.879831    0.093272    11.00000   -1.50000
H1B   2    0.870883    0.767700   -0.062732    11.00000   -1.50000
H1C   2    1.018076    0.757182    0.041312    11.00000   -1.50000
AFIX   0
N2    3    0.703498    0.175635    0.171115    11.00000    0.03831    0.04642 =
         0.04655    0.03077    0.00711    0.00492
AFIX 137
H2A   2    0.655432    0.179147    0.087265    11.00000   -1.50000
H2B   2    0.635242    0.093212    0.170770    11.00000   -1.50000
H2C   2    0.809660    0.163537    0.179738    11.00000   -1.50000
AFIX   0
O1    4    0.015631    0.106178    0.230338    11.00000    0.04257    0.05131 =
         0.05149    0.02484    0.00023    0.01303
O2    4    0.246850    0.286772    0.260072    11.00000    0.06939    0.09868 =
         0.06788    0.06538   -0.00187   -0.00335
O3    4    0.757244    0.251066    0.879931    11.00000    0.03453    0.08125 =
         0.05501    0.03937    0.00933    0.01541
O4    4    0.521560    0.099916    0.875316    11.00000    0.05857    0.05697 =
         0.04772    0.03627    0.00457   -0.00060
C1    1    0.175456    0.193309    0.297255    11.00000    0.04526    0.04640 =
         0.03646    0.02264    0.00429    0.01347
C2    1    0.598447    0.171736    0.821012    11.00000    0.04164    0.03781 =
         0.03436    0.02080    0.01075    0.01401
C3    1    0.284893    0.184465    0.430983    11.00000    0.03761    0.03442 =
         0.03234    0.01600    0.01014    0.01202
C4    1    0.215264    0.079992    0.476584    11.00000    0.03571    0.04006 =
         0.04345    0.02118    0.00293    0.00102
AFIX  43
H4    2    0.099521    0.013363    0.423189    11.00000   -1.20000
AFIX   0
C5    1    0.314579    0.073134    0.599689    11.00000    0.04337    0.03601 =
         0.03965    0.02328    0.00669    0.00232
AFIX  43
H5    2    0.264729    0.002298    0.628333    11.00000   -1.20000
AFIX   0
C6    1    0.487895    0.170334    0.681606    11.00000    0.03446    0.03319 =
         0.02976    0.01490    0.00998    0.01212
C7    1    0.558031    0.274158    0.635121    11.00000    0.02850    0.05292 =
         0.03596    0.02422    0.00753    0.00594
AFIX  43
H7    2    0.674662    0.338923    0.686939    11.00000   -1.20000
AFIX   0
C8    1    0.456928    0.282617    0.512886    11.00000    0.03830    0.04801 =
         0.04053    0.02829    0.01292    0.00962
AFIX  43
H8    2    0.505374    0.355333    0.485448    11.00000   -1.20000
AFIX   0
C9    1    0.792210    0.667987    0.048094    11.00000    0.04095    0.04842 =
         0.05424    0.02934    0.01525    0.01190
AFIX  23
H9A   2    0.739685    0.566695   -0.041858    11.00000   -1.20000
H9B   2    0.698223    0.712467    0.065036    11.00000   -1.20000
AFIX   0
C10   1    0.877701    0.637024    0.173774    11.00000    0.04401    0.04198 =
         0.04354    0.02217    0.01199    0.00875
AFIX  23
H10A  2    0.925988    0.737611    0.264412    11.00000   -1.20000
H10B  2    0.974688    0.596493    0.158899    11.00000   -1.20000
AFIX   0
C11   1    0.751965    0.518414    0.189692    11.00000    0.04645    0.04226 =
         0.05223    0.02575    0.02071    0.01646
AFIX  23
H11A  2    0.693594    0.422582    0.095315    11.00000   -1.20000
H11B  2    0.662239    0.564559    0.215203    11.00000   -1.20000
AFIX   0
C12   1    0.838657    0.470494    0.304954    11.00000    0.05489    0.04280 =
         0.04190    0.02037    0.01616    0.01217
AFIX  23
H12A  2    0.944331    0.446484    0.292490    11.00000   -1.20000
H12B  2    0.873929    0.560670    0.401991    11.00000   -1.20000
AFIX   0
C13   1    0.720392    0.326979    0.296789    11.00000    0.05694    0.05790 =
         0.04642    0.02983    0.02333    0.01682
AFIX  23
H13A  2    0.767988    0.320896    0.387680    11.00000   -1.20000
H13B  2    0.604595    0.340185    0.286722    11.00000   -1.20000
AFIX   0
HKLF 4




REM  181119c in P-1
REM wR2 = 0.1388, GooF = S = 1.037, Restrained GooF = 1.037 for all data
REM R1 = 0.0548 for 1412 Fo > 4sig(Fo) and 0.1039 for all 2449 data
REM 174 parameters refined using 0 restraints

END

WGHT      0.0696      0.0000

REM Instructions for potential hydrogen bonds
EQIV $1 x+1, y+1, z
HTAB N1 O1_$1
EQIV $2 -x+1, -y+1, -z
HTAB N1 O2_$2
EQIV $3 -x+2, -y+1, -z+1
HTAB N1 O3_$3
EQIV $4 x, y, z-1
HTAB N2 O4_$4
EQIV $5 -x+1, -y, -z+1
HTAB N2 O4_$5
EQIV $6 x+1, y, z
HTAB N2 O1_$6

REM Highest difference peak  0.184,  deepest hole -0.301,  1-sigma level  0.058
Q1    1   1.0000  0.5000  0.0000  10.50000  0.05    0.18
Q2    1   0.7347  0.1407  0.8192  11.00000  0.05    0.18
Q3    1   0.9930  0.4559  0.0863  11.00000  0.05    0.18
Q4    1   0.5141  0.1030  0.3412  11.00000  0.05    0.17
Q5    1   0.3669  0.1752  0.6685  11.00000  0.05    0.17
Q6    1   0.3098  0.1324  0.1630  11.00000  0.05    0.16
Q7    1   0.7444 -0.0449  0.0586  11.00000  0.05    0.16
Q8    1   0.7628  0.7793  0.1867  11.00000  0.05    0.16
Q9    1   1.0567  0.6598 -0.0645  11.00000  0.05    0.16
Q10   1   0.3524  0.0781  0.2406  11.00000  0.05    0.16
Q11   1   0.7123  0.4339  0.7685  11.00000  0.05    0.15
Q12   1   0.7222  0.6663  0.2983  11.00000  0.05    0.15
Q13   1   0.8098  0.7598  0.2847  11.00000  0.05    0.15
Q14   1   0.6015  0.6214  0.1689  11.00000  0.05    0.15
Q15   1   1.1463  0.6831  0.2001  11.00000  0.05    0.15
Q16   1   1.1289  0.5587  0.1883  11.00000  0.05    0.15
Q17   1   1.0886  0.3830  0.3938  11.00000  0.05    0.14
Q18   1  -0.0261  0.1744  0.4223  11.00000  0.05    0.14
Q19   1   0.8727  0.7387  0.5146  11.00000  0.05    0.14
Q20   1   0.5280  0.1751  0.6182  11.00000  0.05    0.14
;
_shelx_res_checksum              68532
_shelx_hkl_file
;
  -1   0   0   81.31    3.70
  -2   0   0  825.84   28.98
  -2   0   0  817.10   34.19
  -3   0   0  144.36    5.54
  -3   0   0  139.95    6.81
  -4   0   0  970.10   34.50
  -4   0   0  979.81   41.09
  -5   0   0   38.74    3.19
  -5   0   0   33.47    2.22
  -6   0   0   10.78    2.81
  -7   0   0    4.68    2.88
  -8   0   0   -4.17    2.24
  -9   0   0   -1.95    3.15
 -10   0   0   -1.20    3.83
 -10   1   0    0.17    3.80
  -9   1   0   -5.56    2.21
  -8   1   0   17.57    3.80
  -7   1   0    2.69    2.44
  -6   1   0   62.82    4.54
  -5   1   0    9.91    1.68
  -5   1   0    8.76    2.13
  -4   1   0  114.29    4.98
  -4   1   0  115.93    6.02
  -3   1   0  188.73    7.32
  -2   1   0 3137.91  109.36
  -1   1   0    6.57    0.74
   0  -1   0  254.43   11.65
  -1  -1   0  730.24   30.27
  -2  -1   0  177.70    8.07
   3   1   0   39.12    2.21
  -3  -1   0   48.20    3.36
  -4  -1   0   29.22    1.84
  -4  -1   0   29.82    2.92
  -5  -1   0    1.00    1.74
  -6  -1   0    6.03    2.57
  -7  -1   0   10.65    3.47
  -8  -1   0    4.92    3.15
  -9  -1   0   -4.43    2.81
 -10   2   0   -3.23    3.28
  -9   2   0   -1.95    2.82
  -8   2   0   13.61    3.49
  -7   2   0   13.89    3.35
  -6   2   0  114.75    6.76
  -6   2   0  118.74    5.51
  -5   2   0   35.39    2.63
  -4   2   0    1.79    1.27
  -3   2   0   -0.31    0.97
  -2   2   0  139.61    5.82
  -1   2   0  301.74   11.14
   0  -2   0 2165.45   97.50
   0   2   0 2268.24   76.86
   0  -2   0 2169.74   90.08
  -1  -2   0  110.04    6.10
  -1  -2   0  110.50    5.39
   1   2   0  122.98    4.67
   2   2   0    1.01    0.62
  -2  -2   0    0.04    1.16
   3   2   0   68.42    3.12
  -3  -2   0   71.66    4.24
  -4  -2   0  181.45    9.14
  -5  -2   0    7.07    2.71
  -6  -2   0   24.17    4.09
  -7  -2   0   16.11    4.00
  -8  -2   0   -3.15    2.56
  -9  -2   0   -3.06    3.55
 -10   3   0    2.45    3.65
  -9   3   0   39.96    5.90
  -8   3   0   -2.20    2.38
  -7   3   0   15.02    3.48
  -6   3   0    0.21    1.62
  -5   3   0   30.81    2.68
  -4   3   0   -1.11    1.30
  -3   3   0  206.45    8.46
  -2   3   0  101.86    4.61
   1  -3   0  111.45    5.68
  -1   3   0  115.54    4.93
   1  -3   0  115.18    5.17
   0   3   0  398.27   14.57
   0  -3   0  395.09   18.26
   0  -3   0  394.22   16.62
  -1  -3   0   52.15    3.52
   1   3   0   50.56    2.63
  -1  -3   0   47.39    2.83
   2   3   0   -0.21    0.85
  -2  -3   0   -0.86    1.34
  -2  -3   0    0.30    1.34
   3   3   0   29.60    1.86
  -3  -3   0   27.39    2.78
  -3  -3   0   21.63    3.38
  -4  -3   0   12.93    2.70
  -5  -3   0    2.05    2.32
  -6  -3   0   33.35    4.70
  -7  -3   0    0.76    2.94
 -10   4   0    0.93    4.05
  -9   4   0   -2.75    2.96
  -8   4   0   -0.22    2.81
  -7   4   0   -0.44    2.04
  -7   4   0   -2.56    2.07
  -6   4   0   31.48    3.53
  -5   4   0    7.32    2.06
  -4   4   0    4.39    1.80
  -3   4   0   79.28    4.25
  -2   4   0  262.54   10.44
   1  -4   0  115.52    5.44
   1  -4   0  114.50    6.07
  -1   4   0  120.30    5.41
   0  -4   0   -1.17    0.95
   0  -4   0   -0.73    0.74
   0   4   0   -0.68    1.11
   1   4   0   46.01    2.76
  -1  -4   0   40.67    3.42
  -1  -4   0   44.26    2.74
   2   4   0   63.77    3.21
  -2  -4   0   57.47    3.67
  -2  -4   0   59.35    4.56
  -3  -4   0   -0.70    1.67
  -3  -4   0   -0.17    1.86
  -4  -4   0    0.85    2.14
  -4  -4   0   -1.26    2.21
  -5  -4   0    3.32    2.59
  -5  -4   0    6.02    2.89
  -6  -4   0   53.44    5.45
  -7  -4   0   -1.02    3.10
  -8  -4   0   -2.08    2.95
 -10   5   0   -1.73    4.11
  -9   5   0   69.90    6.70
  -8   5   0   -3.35    2.27
  -8   5   0    1.88    2.78
  -7   5   0   -3.37    2.15
  -6   5   0    5.22    2.42
  -5   5   0   35.68    3.21
  -4   5   0   26.99    3.16
  -3   5   0    3.59    1.81
  -2   5   0  120.34    5.85
   1  -5   0   49.59    3.40
   1  -5   0   55.59    2.97
  -1   5   0   48.63    3.29
   0  -5   0  134.43    7.52
   0  -5   0  145.19    6.60
   0   5   0  140.19    6.41
  -1  -5   0    0.72    1.12
  -1  -5   0    0.03    1.40
   1   5   0   -0.61    1.22
   2   5   0   28.56    2.27
  -2  -5   0   23.55    3.55
  -2  -5   0   30.12    2.48
  -3  -5   0    8.59    3.11
  -4  -5   0  168.98   10.50
  -5  -5   0   25.18    4.64
  -6  -5   0    0.80    2.60
  -7  -5   0   -0.62    3.11
 -10   6   0    2.02    4.41
  -9   6   0   69.09    6.70
  -8   6   0   -3.24    2.49
  -7   6   0    8.58    2.99
  -6   6   0    8.76    2.92
  -5   6   0   44.03    3.87
  -4   6   0    9.72    2.66
  -3   6   0    6.72    2.19
   2  -6   0    3.26    1.39
  -2   6   0    6.24    2.06
  -1   6   0    1.10    1.69
   1  -6   0    2.93    1.10
   1  -6   0    2.37    1.42
   0   6   0    9.18    2.05
   0  -6   0    8.70    1.58
   0  -6   0   10.49    2.15
  -1  -6   0   45.24    3.84
   1   6   0   37.34    3.05
  -2  -6   0  103.16    7.03
  -3  -6   0   18.24    3.80
  -4  -6   0    1.45    2.71
  -5  -6   0   -1.97    2.76
  -6  -6   0   -2.21    3.09
 -10   7   0    9.59    5.39
  -9   7   0    0.68    3.51
  -9   7   0    1.38    3.08
  -8   7   0   15.41    3.84
  -7   7   0    0.22    2.74
  -6   7   0   -0.72    2.62
  -5   7   0   34.35    4.22
  -4   7   0    6.03    2.54
  -3   7   0   26.53    3.54
   2  -7   0   41.06    3.44
  -2   7   0   44.68    3.88
  -1   7   0   38.73    3.49
   1  -7   0   41.44    3.53
   0   7   0   33.71    3.75
   0  -7   0   30.75    3.33
   1   7   0   33.71    3.11
  -1  -7   0   39.67    3.91
  -2  -7   0   28.61    4.17
  -3  -7   0    8.40    3.04
  -4  -7   0   13.98    4.19
  -5  -7   0   -0.34    2.88
  -6  -7   0    0.18    3.61
  -9   8   0   21.65    5.45
  -9   8   0   14.91    4.22
  -8   8   0   11.91    3.77
  -7   8   0    4.00    3.16
  -6   8   0   30.52    4.50
  -5   8   0   -3.07    2.42
  -4   8   0   -0.07    2.40
  -3   8   0    1.52    2.57
  -2   8   0   15.70    3.16
   2  -8   0   18.14    2.94
   1  -8   0   -1.28    1.74
  -1   8   0   -2.55    2.06
   0   8   0   32.67    3.87
   0  -8   0   33.40    4.15
  -1  -8   0   58.77    5.09
  -2  -8   0   30.13    4.72
  -3  -8   0   -0.21    2.76
  -4  -8   0   -4.03    2.27
  -5  -8   0    0.62    3.37
  -8   9   0   -5.03    3.25
  -7   9   0   14.11    4.27
  -6   9   0    2.46    3.46
  -5   9   0    1.82    2.62
  -4   9   0   -1.83    2.40
  -3   9   0    7.87    3.03
   2  -9   0   -2.19    1.63
  -2   9   0   -2.54    2.16
   1  -9   0    7.46    2.72
  -1   9   0    8.03    2.86
   0  -9   0    7.91    2.70
  -1  -9   0   73.98    6.07
  -2  -9   0    2.04    2.76
  -3  -9   0    3.15    3.35
  -8  10   0   -3.34    2.97
  -7  10   0   -1.95    3.80
  -6  10   0    3.33    3.71
  -5  10   0   -0.71    3.52
  -4  10   0    1.01    2.95
  -3  10   0   10.36    3.59
  -2  10   0   -1.64    2.58
   2 -10   0    0.70    2.11
  -1  10   0    1.06    2.66
   1 -10   0    1.51    2.39
   0 -10   0    0.41    2.00
  -1 -10   0    1.73    2.71
  -2 -10   0   -2.39    2.47
  -6  11   0    0.30    3.45
  -5  11   0    0.45    3.79
  -4  11   0    2.83    3.28
  -3  11   0   -2.34    2.86
  -2  11   0   -6.92    2.43
   1 -11   0    2.06    2.37
   0 -11   0   16.75    4.06
  -1 -11   1   -0.96    2.04
   0 -11   1   -3.24    2.15
   1 -11   1    1.90    2.43
  -2  11  -1    2.24    3.14
  -3  11  -1    0.90    3.23
  -4  11  -1   -0.47    3.26
  -5  11  -1   -1.72    3.49
  -6  11  -1    1.14    3.81
  -3 -10   1    2.35    3.10
  -2 -10   1   19.77    3.92
  -1 -10   1   20.31    4.16
   0 -10   1   -0.87    2.31
   1 -10   1   -1.18    1.93
  -1  10  -1    2.89    2.89
  -2  10  -1    2.53    2.89
  -3  10  -1    0.40    3.08
  -4  10  -1    4.86    3.31
  -5  10  -1   -2.76    2.79
  -6  10  -1   -0.53    3.31
  -7  10  -1    0.57    3.40
  -8  10  -1   -4.57    3.40
  -4  -9   1    1.37    3.04
  -3  -9   1    1.61    2.62
  -2  -9   1   31.75    4.77
  -1  -9   1   51.56    4.80
   0   9  -1   -2.66    2.20
   0  -9   1    1.76    2.20
  -1   9  -1    1.08    2.61
   1  -9   1    2.76    2.01
  -2   9  -1   26.13    4.12
  -3   9  -1   11.39    3.20
  -4   9  -1    6.84    3.06
  -5   9  -1    2.38    2.78
  -6   9  -1   -2.00    2.88
  -7   9  -1   10.99    4.04
  -8   9  -1    1.14    3.50
  -5  -8   1    4.24    3.95
  -4  -8   1   28.04    4.99
  -3  -8   1   -0.36    2.34
  -2  -8   1   33.16    4.57
  -1  -8   1    2.59    2.20
   0   8  -1   14.09    3.08
   0  -8   1   15.57    2.87
  -1   8  -1    3.03    2.30
   1  -8   1    2.41    1.75
  -2   8  -1   48.40    4.58
  -3   8  -1    0.25    2.27
  -4   8  -1    4.68    2.65
  -5   8  -1   84.03    5.92
  -6   8  -1   -1.87    2.61
  -7   8  -1    5.23    2.88
  -8   8  -1    5.25    3.50
  -9   8  -1   -3.22    2.89
  -6  -7   1    2.47    3.65
  -5  -7   1    2.65    3.30
  -4  -7   1   14.91    3.66
  -3  -7   1    9.56    3.38
  -2  -7   1  195.17   11.07
   1   7  -1   13.15    2.50
  -1  -7   1   13.79    3.02
   0  -7   1    2.60    1.70
   0  -7   1    4.24    1.62
   0   7  -1    3.60    2.03
  -1   7  -1   26.15    3.23
   1  -7   1   19.81    2.37
   1  -7   1   20.52    2.12
  -2   7  -1  169.07    8.05
  -3   7  -1    2.07    2.14
  -5   7  -1   15.80    3.44
  -6   7  -1   47.42    4.37
  -7   7  -1   21.63    4.08
  -8   7  -1   40.92    5.12
  -9   7  -1   -1.46    3.10
  -7  -6   1   -4.86    3.00
  -6  -6   1    4.35    3.80
  -5  -6   1    5.46    3.23
  -4  -6   1   -0.48    2.44
  -3  -6   1    5.27    2.78
  -2  -6   1   74.53    5.54
  -2  -6   1   74.75    4.59
  -1  -6   1  152.38    7.26
   1   6  -1  131.75    6.46
  -1  -6   1  147.63    8.15
   0  -6   1   11.28    1.79
   0  -6   1    9.64    1.90
   0   6  -1   10.17    2.09
   1  -6   1   16.99    2.14
  -1   6  -1   12.12    2.20
   1  -6   1   14.72    1.94
  -2   6  -1   -0.32    1.60
  -3   6  -1    4.66    2.01
  -4   6  -1    9.10    2.48
  -5   6  -1  143.96    7.42
  -6   6  -1   26.88    3.87
  -7   6  -1    4.79    2.94
  -8   6  -1   76.34    5.55
  -9   6  -1   45.29    7.35
 -10   6  -1   -3.89    4.37
  -8  -5   1   -4.84    2.88
  -7  -5   1    0.88    3.47
  -6  -5   1    3.56    3.24
  -5  -5   1    5.75    2.83
  -5  -5   1    1.02    2.74
  -4  -5   1  122.98    7.00
  -4  -5   1  118.00    8.09
  -3  -5   1  158.98    8.15
  -3  -5   1  159.72    9.42
   2   5  -1   73.56    3.63
  -2  -5   1   72.00    4.25
  -2  -5   1   67.83    4.97
  -1  -5   1  106.61    6.09
  -1  -5   1  105.44    5.38
   1   5  -1   97.11    4.79
   0  -5   1    3.56    1.30
   0   5  -1   13.43    2.07
   0  -5   1    1.49    1.24
   1  -5   1   36.41    2.47
   1  -5   1   38.59    2.70
  -1   5  -1   40.88    3.00
  -2   5  -1   35.83    2.97
  -3   5  -1   11.42    2.32
  -4   5  -1   41.32    3.31
  -5   5  -1   36.85    3.36
  -6   5  -1   17.09    3.19
  -7   5  -1   -1.36    2.26
  -9   5  -1    2.21    4.29
 -10   5  -1   -3.36    4.57
  -7  -4   1   18.30    4.35
  -6  -4   1   63.98    5.39
  -5  -4   1    9.66    3.16
  -4  -4   1   23.96    3.90
  -4  -4   1   32.93    3.69
  -3  -4   1   63.77    4.86
  -3  -4   1   63.11    4.18
  -2  -4   1    0.15    1.61
   2   4  -1    0.32    1.09
  -2  -4   1    0.11    1.33
  -1  -4   1  120.82    6.59
   1   4  -1  119.42    5.12
  -1  -4   1  122.93    5.89
   0  -4   1   22.92    1.92
   0   4  -1   21.86    2.00
   0  -4   1   22.66    2.18
  -1   4  -1   18.00    2.01
   1  -4   1   14.30    1.46
   1  -4   1   13.23    1.44
  -2   4  -1   74.05    4.17
  -3   4  -1   96.80    4.96
  -4   4  -1   94.36    5.06
  -5   4  -1    3.32    1.88
  -6   4  -1   38.79    3.42
  -7   4  -1   18.57    3.09
  -8   4  -1  188.01   11.13
  -9   4  -1   -1.81    3.25
 -10   4  -1   -5.49    3.26
  -9  -3   1   -3.22    3.58
  -8  -3   1    8.00    3.95
  -7  -3   1    1.40    3.25
  -6  -3   1   -1.18    2.29
  -5  -3   1  104.57    6.56
  -4  -3   1   11.86    2.56
  -3  -3   1    2.11    1.91
  -2  -3   1    6.18    1.85
   2   3  -1    9.14    1.30
  -2  -3   1    6.46    2.15
  -1  -3   1  528.11   24.88
  -1  -3   1  552.03   22.90
   1   3  -1  547.75   19.40
   0  -3   1  101.77    5.12
   0   3  -1  100.45    4.32
   0  -3   1  102.89    4.79
   1  -3   1  222.47    9.86
  -1   3  -1  232.45    8.89
  -2   3  -1   10.79    1.73
  -3   3  -1    0.45    1.54
  -4   3  -1    4.03    1.79
  -5   3  -1   89.92    4.89
  -6   3  -1   27.24    3.19
  -7   3  -1    1.05    2.39
  -8   3  -1   41.88    5.31
  -9   3  -1    7.44    3.71
 -10   3  -1    0.85    4.30
  -9  -2   1   -5.25    2.97
  -8  -2   1    3.22    3.08
  -7  -2   1  108.12    7.31
  -6  -2   1    4.09    2.69
  -5  -2   1   -0.53    1.80
  -4  -2   1   45.55    3.71
  -3  -2   1   26.28    2.55
  -2  -2   1   22.40    2.34
  -1  -2   1   81.43    4.72
  -1  -2   1   88.43    4.44
   1   2  -1   89.90    3.45
   0  -2   1   68.60    3.24
   0   2  -1   67.74    2.96
   0  -2   1   68.58    3.39
  -1   2  -1    8.38    1.29
  -2   2  -1  445.06   16.43
  -3   2  -1   40.29    2.74
  -4   2  -1   20.70    2.45
  -5   2  -1   43.88    3.11
  -6   2  -1   79.15    4.51
  -7   2  -1   18.64    3.44
  -8   2  -1   -0.42    2.42
  -9   2  -1   27.38    5.27
 -10   2  -1   -2.60    3.46
 -10  -1   1    0.89    3.87
  -9  -1   1   -2.79    2.93
  -8  -1   1   -0.97    3.09
  -7  -1   1   35.88    4.70
  -6  -1   1    4.62    2.59
  -5  -1   1   39.98    3.44
  -4  -1   1   26.91    2.71
  -3  -1   1   17.00    2.15
  -2  -1   1  107.78    5.58
  -1  -1   1 2317.06   95.04
   0  -1   1   67.45    3.02
   1  -1   1  366.51   13.37
  -2   1  -1    5.04    1.55
  -3   1  -1  465.72   17.13
  -4   1  -1  139.93    6.12
  -5   1  -1   30.55    2.58
  -5   1  -1   32.43    2.97
  -6   1  -1   32.28    3.35
  -7   1  -1   28.18    4.13
  -8   1  -1   26.31    4.54
  -9   1  -1   46.94    5.01
 -10   1  -1   -0.14    3.53
 -10   0   1    3.30    4.15
  -9   0   1   -0.24    3.35
  -8   0   1   21.43    4.47
  -7   0   1   26.61    4.05
  -6   0   1    1.67    2.13
  -5   0   1  118.10    5.01
  -5   0   1  126.67    6.83
  -4   0   1  286.42   10.47
  -4   0   1  283.25   13.02
  -3   0   1   40.07    1.95
  -3   0   1   40.15    2.80
  -2   0   1   44.87    2.06
  -2   0   1   47.81    2.71
  -1   0   1  117.13    5.17
   1   0   1  941.81   33.25
   2   0   1   52.89    2.90
  -3   0  -1   -1.46    1.21
   3   0   1   -1.35    1.34
  -4   0  -1  117.75    6.22
  -4   0  -1  121.04    5.37
  -5   0  -1   77.49    4.81
  -6   0  -1  102.83    6.29
  -7   0  -1   10.03    2.93
  -8   0  -1    7.18    3.34
  -9   0  -1   -3.67    3.13
 -10   1   1   -2.73    3.04
  -9   1   1   -2.61    3.15
  -8   1   1    6.69    3.17
  -7   1   1   35.96    4.41
  -6   1   1    5.24    2.31
  -5   1   1   35.17    3.07
  -5   1   1   35.84    2.34
  -4   1   1  165.10    6.61
  -4   1   1  166.52    8.11
  -3   1   1    0.15    1.07
  -3   1   1    0.83    0.77
  -2   1   1 6362.52  222.28
  -1   1   1  586.55   20.89
   0  -1  -1   80.59    4.09
   0   1   1   81.47    3.41
  -1  -1  -1  911.54   42.97
   1   1   1  983.76   33.72
  -1  -1  -1  969.31   39.38
  -2  -1  -1  229.27   10.09
   2   1   1  227.87    8.72
   3   1   1  925.19   32.48
  -3  -1  -1  891.68   38.09
  -4  -1  -1   20.14    2.69
   4   1   1   14.54    1.99
  -5  -1  -1    3.85    2.18
  -6  -1  -1   35.09    4.33
  -7  -1  -1   -1.69    2.49
  -8  -1  -1    0.25    3.10
  -9  -1  -1   -4.17    3.18
 -10   2   1    5.15    4.27
  -9   2   1   10.66    3.68
  -8   2   1    2.45    2.71
  -7   2   1    3.46    2.44
  -6   2   1    1.17    1.37
  -6   2   1   -0.19    1.64
  -5   2   1  152.53    6.57
  -4   2   1  453.40   16.79
  -3   2   1   56.68    2.97
  -2   2   1  534.22   19.36
  -1   2   1 9952.47  348.43
   1  -2  -1 9999.38  442.10
   0   2   1  157.67    6.34
   0  -2  -1  158.80    7.77
  -1  -2  -1   21.95    1.67
  -1  -2  -1   21.19    2.20
   1   2   1   22.38    1.68
  -2  -2  -1  127.91    6.20
  -2  -2  -1  124.61    7.30
   2   2   1  128.72    5.37
  -3  -2  -1  598.70   26.03
   3   2   1  614.45   22.06
  -4  -2  -1   16.66    2.82
  -5  -2  -1    0.06    2.25
  -6  -2  -1    2.02    2.62
  -7  -2  -1   -1.11    2.74
 -10   3   1    1.58    3.92
  -9   3   1    3.17    3.03
  -8   3   1   -1.91    2.10
  -7   3   1    4.20    2.82
  -7   3   1    2.89    2.02
  -6   3   1    7.96    2.07
  -6   3   1    4.67    2.09
  -5   3   1    1.14    1.52
  -4   3   1   13.55    2.08
  -3   3   1  625.45   22.90
  -2   3   1  361.38   13.67
  -1   3   1   26.75    2.09
   1  -3  -1   22.72    1.89
   0   3   1   45.24    2.76
   0  -3  -1   46.31    3.10
   0  -3  -1   44.42    2.26
   1   3   1    0.67    1.09
  -1  -3  -1   -0.18    1.33
  -1  -3  -1    0.99    0.92
  -2  -3  -1  154.93    7.44
   2   3   1  155.72    6.50
  -3  -3  -1    1.32    2.13
   3   3   1    3.63    1.27
  -3  -3  -1    3.73    1.75
  -4  -3  -1    3.32    2.34
  -4  -3  -1   -0.33    2.03
  -5  -3  -1   31.83    4.25
  -5  -3  -1   20.32    3.86
  -6  -3  -1   13.60    3.81
  -7  -3  -1   -3.38    2.43
  -8  -3  -1   -3.70    2.93
 -10   4   1    1.07    4.08
  -9   4   1    2.37    3.19
  -8   4   1    0.43    2.46
  -7   4   1    8.60    2.58
  -7   4   1   11.59    3.21
  -6   4   1   12.15    2.44
  -5   4   1   29.74    3.10
  -4   4   1   11.79    2.11
  -3   4   1   66.51    3.89
  -2   4   1  423.52   16.23
   2  -4  -1  430.14   19.83
   1  -4  -1  304.16   14.28
  -1   4   1  295.01   11.78
   0  -4  -1    0.50    1.33
   0   4   1   -1.18    1.16
   0  -4  -1   -0.15    0.76
   1   4   1   -0.29    1.20
  -1  -4  -1    2.18    1.10
  -1  -4  -1   -1.58    1.42
  -2  -4  -1   60.25    3.58
  -2  -4  -1   59.26    4.70
   2   4   1   59.04    3.40
  -3  -4  -1   38.68    4.17
  -4  -4  -1    8.77    3.34
  -5  -4  -1    4.71    2.95
  -6  -4  -1    9.07    3.71
  -7  -4  -1    1.27    2.62
  -9   5   1   -0.45    3.37
  -8   5   1   -2.02    2.25
  -8   5   1   -3.21    2.26
  -7   5   1    1.03    2.21
  -7   5   1    0.36    2.27
  -6   5   1   49.28    4.65
  -5   5   1   38.22    3.33
  -4   5   1    9.55    2.19
  -3   5   1  122.92    6.11
   2  -5  -1   64.28    4.02
  -2   5   1   59.22    3.88
   1  -5  -1    2.26    1.33
  -1   5   1    1.24    1.54
   0   5   1   44.96    3.23
   0  -5  -1   45.82    3.57
   0  -5  -1   46.28    2.56
   1   5   1    0.22    1.47
  -1  -5  -1    1.76    1.73
  -2  -5  -1   22.95    3.77
   2   5   1   28.10    2.89
  -3  -5  -1   20.65    4.04
  -4  -5  -1    0.46    2.29
  -5  -5  -1    2.66    3.05
  -6  -5  -1    6.54    3.62
  -7  -5  -1    1.84    3.82
 -10   6   1   -3.07    3.61
  -9   6   1    0.10    2.96
  -8   6   1    2.56    2.85
  -8   6   1    2.46    2.84
  -7   6   1    0.07    2.40
  -6   6   1   10.85    3.03
  -5   6   1    2.84    2.48
  -4   6   1   16.13    2.97
  -3   6   1  152.22    7.47
   2  -6  -1    1.03    1.27
  -2   6   1    3.06    1.88
   1  -6  -1    7.45    1.99
  -1   6   1    8.40    2.17
   0   6   1   10.88    2.29
   0  -6  -1    8.53    2.32
  -1  -6  -1  137.97    8.13
   1   6   1  120.06    6.29
  -2  -6  -1    9.19    3.15
  -3  -6  -1   24.51    4.51
  -4  -6  -1    2.53    3.04
  -5  -6  -1   18.27    4.39
  -6  -6  -1   -1.32    3.23
 -10   7   1   18.51    5.49
  -9   7   1    1.63    3.03
  -9   7   1    2.94    3.15
  -8   7   1   -2.47    2.79
  -8   7   1   -1.67    2.70
  -7   7   1   23.18    4.07
  -6   7   1   14.35    3.51
  -5   7   1   49.01    4.40
  -4   7   1    4.85    2.68
  -3   7   1    6.47    2.79
  -2   7   1    6.34    2.65
   2  -7  -1    7.15    1.94
  -1   7   1   25.17    3.42
   1  -7  -1   16.49    3.01
   0  -7  -1   23.88    3.57
   0   7   1   18.40    3.09
  -1  -7  -1   12.27    3.19
   1   7   1   17.53    2.95
  -2  -7  -1    4.11    2.77
  -3  -7  -1   26.12    4.98
  -4  -7  -1    5.38    3.38
  -5  -7  -1    6.77    3.96
  -9   8   1   -0.82    2.81
  -9   8   1    1.30    3.50
  -8   8   1   -0.72    2.79
  -7   8   1   21.59    4.52
  -6   8   1   -0.10    2.77
  -5   8   1    0.04    2.77
  -4   8   1   22.61    3.90
  -3   8   1   11.28    3.10
   2  -8  -1    8.51    2.42
  -2   8   1    3.49    2.49
   1  -8  -1    6.98    2.51
  -1   8   1   12.38    2.96
   0   8   1   39.84    4.07
   0  -8  -1   31.28    3.74
  -1  -8  -1    6.91    2.98
  -2  -8  -1   18.62    4.09
  -3  -8  -1   -0.38    3.07
  -4  -8  -1    1.31    3.46
  -8   9   1   -2.80    3.44
  -7   9   1    1.18    3.59
  -6   9   1    9.57    3.79
  -5   9   1   -2.56    3.16
  -4   9   1   20.89    4.15
  -3   9   1    6.01    3.14
  -2   9   1    0.35    2.65
   2  -9  -1   -1.28    1.70
  -1   9   1   10.63    3.07
   1  -9  -1   22.93    3.75
   0  -9  -1   38.55    4.86
  -1  -9  -1    2.98    2.80
  -2  -9  -1    2.02    3.03
  -3  -9  -1   -3.25    2.16
  -7  10   1    1.37    3.80
  -6  10   1   -5.06    3.47
  -5  10   1   -0.71    3.03
  -4  10   1   -6.36    2.74
  -3  10   1   -1.07    2.60
  -2  10   1    1.18    2.76
   2 -10  -1   -1.65    2.08
   1 -10  -1   39.30    5.00
   0 -10  -1    6.19    3.29
  -1 -10  -1    5.42    3.40
  -5  11   1    4.08    3.88
  -4  11   1   -1.03    3.31
  -3  11   1   -3.51    3.20
  -2  11   1   -0.27    2.71
   1 -11  -1    3.86    3.09
   1 -12   2    1.18    2.38
  -2  12  -2   11.14    4.20
  -3  12  -2    7.92    4.10
  -4  12  -2   -5.23    3.32
  -2 -11   2    2.10    2.29
  -1 -11   2   -3.35    2.37
   0 -11   2    7.81    3.13
   1 -11   2   -0.58    2.21
  -2  11  -2   -1.68    2.88
  -3  11  -2    9.51    3.93
  -4  11  -2    6.32    3.51
  -5  11  -2    2.08    3.46
  -6  11  -2   15.91    4.77
  -4 -10   2    1.57    3.50
  -3 -10   2   -0.62    2.45
  -2 -10   2    1.11    2.63
  -1 -10   2   -1.12    2.11
   0 -10   2   -1.11    1.78
   1 -10   2    1.40    2.18
  -1  10  -2   -0.63    2.69
  -2  10  -2    1.06    2.33
  -3  10  -2   13.16    3.53
  -4  10  -2    2.72    3.21
  -5  10  -2   -3.23    2.39
  -6  10  -2   -0.48    3.33
  -7  10  -2   -3.00    3.58
  -8  10  -2   -2.03    3.82
  -5  -9   2    5.24    3.15
  -4  -9   2   -1.44    2.19
  -3  -9   2   19.64    4.10
  -2  -9   2   -1.99    2.19
  -1  -9   2    4.29    2.25
   0  -9   2   -1.03    1.75
   0   9  -2   -1.15    2.07
  -1   9  -2   28.59    3.82
   1  -9   2   28.85    3.07
  -2   9  -2   12.65    3.13
  -3   9  -2   -3.23    2.30
  -4   9  -2    7.96    3.27
  -5   9  -2   12.62    3.69
  -6   9  -2    4.42    3.45
  -7   9  -2   -1.53    3.28
  -8   9  -2   -0.95    3.75
  -6  -8   2    0.25    3.76
  -5  -8   2    2.72    3.65
  -4  -8   2   -0.13    2.92
  -3  -8   2  122.44    8.18
  -2  -8   2   34.79    4.00
  -1  -8   2    1.61    1.90
   0  -8   2   48.97    3.96
   0   8  -2   42.52    3.71
   0  -8   2   50.10    3.62
   1  -8   2   88.05    5.23
  -1   8  -2   84.47    5.24
   1  -8   2   89.66    5.51
  -2   8  -2   10.96    3.09
  -3   8  -2   -1.12    2.21
  -4   8  -2    3.13    2.82
  -5   8  -2   13.26    3.52
  -6   8  -2    4.40    3.33
  -7   8  -2    2.16    3.33
  -8   8  -2    0.79    3.47
  -9   8  -2   -4.02    3.51
  -7  -7   2    2.71    3.22
  -6  -7   2   15.52    4.42
  -5  -7   2   10.45    3.67
  -4  -7   2   -1.04    2.24
  -3  -7   2    6.17    2.89
  -3  -7   2    9.65    2.47
  -2  -7   2  137.20    7.20
  -2  -7   2  123.25    7.86
  -1  -7   2   61.03    4.40
   1   7  -2   56.52    3.76
  -1  -7   2   57.86    4.07
   0  -7   2   20.71    2.54
   0  -7   2   13.89    2.29
   0   7  -2   13.15    2.42
   1  -7   2    5.77    1.68
   1  -7   2    3.18    1.36
  -1   7  -2    1.62    1.89
  -2   7  -2   -0.30    1.73
  -3   7  -2   19.15    3.24
  -4   7  -2   49.97    4.27
  -5   7  -2   27.32    4.03
  -6   7  -2   -2.74    2.59
  -7   7  -2    9.28    3.26
  -8   7  -2   51.23    5.91
  -7  -6   2   -4.14    2.79
  -6  -6   2    8.12    3.89
  -5  -6   2    7.51    2.94
  -5  -6   2   11.08    3.46
  -4  -6   2   34.45    4.79
  -4  -6   2   38.50    4.23
  -3  -6   2  160.57    8.47
  -3  -6   2  165.18    9.59
   2   6  -2    1.34    1.51
  -2  -6   2    1.23    1.66
  -2  -6   2    0.71    1.48
   1   6  -2  117.92    5.63
  -1  -6   2  130.52    6.53
  -1  -6   2  124.96    7.04
   0  -6   2  167.46    7.91
   0  -6   2  162.79    8.32
   0   6  -2  153.59    7.11
   1  -6   2  232.40   11.20
   1  -6   2  235.06   10.59
  -1   6  -2  219.97    9.64
  -2   6  -2    4.91    1.88
  -3   6  -2   67.78    4.58
  -4   6  -2  300.42   12.81
  -5   6  -2   70.09    5.03
  -6   6  -2   18.47    3.57
  -7   6  -2   12.45    3.48
  -8   6  -2    0.84    3.25
  -9   6  -2    7.43    5.99
  -8  -5   2   -2.83    3.57
  -7  -5   2   -2.84    2.53
  -7  -5   2   -4.98    2.61
  -6  -5   2    3.76    2.71
  -6  -5   2    2.57    2.60
  -5  -5   2    1.10    2.56
  -5  -5   2    6.64    3.09
  -4  -5   2   34.12    3.98
  -4  -5   2   25.50    4.40
  -3  -5   2    2.95    1.65
  -3  -5   2    3.07    2.02
  -2  -5   2   29.09    2.68
  -2  -5   2   33.62    3.08
   2   5  -2   29.96    2.21
   1   5  -2   26.65    2.40
  -1  -5   2   20.86    2.23
  -1  -5   2   21.28    2.28
   0  -5   2   39.28    2.72
   0  -5   2   36.40    2.57
   0   5  -2   35.09    2.58
   1  -5   2  195.61    9.35
  -1   5  -2  195.23    8.21
   1  -5   2  188.02    8.89
  -2   5  -2  205.24    8.89
  -3   5  -2  471.30   18.27
  -4   5  -2    3.47    1.98
  -5   5  -2   28.71    3.70
  -6   5  -2   86.12    5.55
  -7   5  -2  153.47    8.12
  -9   5  -2    2.93    4.79
  -9  -4   2   -6.59    3.11
  -8  -4   2   -1.13    3.14
  -7  -4   2    0.23    2.95
  -6  -4   2    1.24    2.86
  -5  -4   2   14.02    3.54
  -4  -4   2    2.44    2.07
   3   4  -2   63.20    2.66
  -3  -4   2   61.09    4.59
  -3  -4   2   62.80    4.25
   2   4  -2  805.91   28.24
  -2  -4   2  808.83   33.74
  -2  -4   2  774.06   36.49
  -1  -4   2  187.17    8.69
  -1  -4   2  187.98    9.32
   1   4  -2  186.18    7.40
   0  -4   2   53.19    3.15
   0  -4   2   56.34    3.12
   0   4  -2   51.34    3.05
   1  -4   2    7.40    1.31
  -1   4  -2    8.77    1.67
  -2   4  -2   52.29    3.50
  -3   4  -2  333.80   13.36
  -4   4  -2  448.51   17.51
  -5   4  -2   26.96    3.32
  -6   4  -2   -3.11    2.22
  -7   4  -2  158.62    8.16
  -8   4  -2   45.24    6.41
  -9   4  -2   -2.95    3.30
 -10   4  -2   -4.45    4.08
  -9  -3   2   -3.91    3.17
  -8  -3   2    0.06    3.30
  -7  -3   2    0.33    2.77
  -6  -3   2    4.89    2.81
  -5  -3   2  118.64    7.16
  -4  -3   2  383.80   17.57
  -3  -3   2   18.03    2.74
  -2  -3   2  545.11   23.61
   2   3  -2  555.12   19.50
  -1  -3   2   46.25    2.80
  -1  -3   2   43.10    2.85
   1   3  -2   48.20    2.44
   0  -3   2  306.24   13.33
   0  -3   2  279.92   12.60
   0   3  -2  291.69   11.05
   1  -3   2   24.54    1.70
  -1   3  -2   22.29    2.07
  -2   3  -2   57.76    3.35
  -3   3  -2   40.58    3.00
  -4   3  -2  185.86    8.25
  -5   3  -2   17.42    2.71
  -6   3  -2  107.85    6.13
  -7   3  -2    9.23    3.07
  -8   3  -2    7.04    3.35
  -9   3  -2   -1.74    3.13
 -10   3  -2    8.34    4.79
 -10  -2   2   -5.32    3.38
  -9  -2   2    1.71    3.49
  -8  -2   2    9.97    3.97
  -7  -2   2  132.65    8.39
  -6  -2   2   -1.55    2.44
  -5  -2   2   34.20    3.55
  -4  -2   2    0.07    2.02
  -3  -2   2  413.28   18.32
  -2  -2   2  691.29   29.27
  -1  -2   2    1.38    1.02
  -1  -2   2    0.53    1.19
   0  -2   2   49.97    2.64
   0  -2   2   51.50    2.67
   1  -2   2   47.30    2.87
   1  -2   2   52.21    3.51
  -3   2  -2    8.05    1.86
  -4   2  -2   36.88    3.49
  -5   2  -2    7.81    2.34
  -6   2  -2   48.99    4.03
  -7   2  -2  105.81    6.85
  -8   2  -2   -2.29    2.36
  -9   2  -2    1.46    3.15
 -10   2  -2   10.40    5.00
 -10  -1   2   -2.86    3.39
  -9  -1   2   36.52    6.00
  -8  -1   2   19.22    4.48
  -7  -1   2    4.83    3.19
  -6  -1   2   18.98    3.70
  -5  -1   2   45.31    3.91
  -4  -1   2  115.01    6.31
  -3  -1   2    6.17    1.70
  -2  -1   2    8.19    2.36
  -2  -1   2    5.73    1.30
  -1  -1   2  497.84   21.23
  -1  -1   2  513.78   18.13
   0  -1   2  245.16   10.60
   0  -1   2  253.80    9.44
   1  -1   2    2.74    1.34
   2  -1   2   16.63    2.04
   3  -1   2   20.48    2.57
  -5   1  -2   46.99    3.66
  -5   1  -2   48.16    3.62
  -6   1  -2   -1.53    1.77
  -7   1  -2    1.82    2.18
  -8   1  -2    6.65    3.31
  -9   1  -2   10.33    4.14
 -10   0   2   -1.08    3.41
  -9   0   2   36.43    5.66
  -8   0   2   29.86    4.69
  -7   0   2   42.81    4.46
  -6   0   2    9.58    2.65
  -5   0   2    2.36    1.19
  -5   0   2    2.28    1.76
  -4   0   2  102.22    5.88
  -4   0   2  118.00    4.60
  -3   0   2   44.20    2.98
  -3   0   2   46.51    2.29
  -2   0   2   22.29    2.19
  -2   0   2   24.09    1.85
  -1   0   2  203.23    7.67
  -1   0   2  204.53    8.81
   0   0  -2  826.96   37.16
   0   0   2  840.89   29.63
   1   0   2   -3.02    1.98
   2   0   2  134.30    5.81
   3   0   2   37.07    2.78
  -4   0  -2    4.84    1.49
   4   0   2    2.32    1.68
  -5   0  -2   24.27    3.14
  -6   0  -2   22.04    3.47
  -7   0  -2   32.17    4.27
  -8   0  -2   11.39    3.76
  -9   0  -2   -1.53    3.29
 -10   1   2   -4.00    3.53
  -9   1   2   17.05    4.61
  -8   1   2   -0.30    2.82
  -7   1   2    3.68    2.64
  -6   1   2  298.60   14.86
  -6   1   2  325.57   12.11
  -5   1   2   70.69    4.71
  -5   1   2   71.78    3.66
  -4   1   2   16.32    2.30
  -4   1   2   14.24    1.80
  -3   1   2   24.09    2.00
  -3   1   2   18.23    1.82
  -2   1   2 3504.09  121.90
  -2   1   2 3485.76  142.98
   1  -1  -2 1191.86   53.03
  -1   1   2 1193.66   42.13
   0  -1  -2  959.30   43.76
   0   1   2  996.86   34.79
  -1  -1  -2    4.53    0.87
   1   1   2    2.23    1.04
  -1  -1  -2    2.07    1.25
  -2  -1  -2  236.31   10.16
   2   1   2  222.34    9.16
  -3  -1  -2  261.76   11.83
   3   1   2  263.06   10.51
  -4  -1  -2    0.09    1.46
   4   1   2   -0.52    1.33
  -5  -1  -2   21.72    3.21
  -6  -1  -2    7.71    2.93
  -7  -1  -2    4.36    2.93
 -10   2   2    1.94    3.80
  -9   2   2   53.82    5.39
  -8   2   2    0.40    2.61
  -7   2   2    0.16    2.40
  -6   2   2   87.58    5.61
  -6   2   2   89.04    4.61
  -5   2   2    0.70    1.56
  -5   2   2    1.56    1.40
  -4   2   2   52.34    3.40
  -4   2   2   49.14    3.13
  -3   2   2    0.76    1.42
  -3   2   2    0.74    1.25
  -2   2   2    1.91    0.90
  -2   2   2    1.33    1.16
   1  -2  -2   43.07    2.61
  -1   2   2   39.71    2.55
   0  -2  -2   90.70    4.86
   0   2   2   86.26    4.14
  -1  -2  -2  584.34   24.50
  -1  -2  -2  602.71   27.33
   1   2   2  575.60   21.52
  -2  -2  -2    6.42    2.44
   2   2   2    2.90    1.42
  -2  -2  -2    4.21    1.54
  -3  -2  -2   44.99    4.21
   3   2   2   45.20    3.04
  -3  -2  -2   45.24    3.26
  -4  -2  -2    0.34    2.16
  -4  -2  -2    2.58    1.93
  -5  -2  -2   41.63    3.84
 -10   3   2    0.08    3.45
  -9   3   2    2.71    3.61
  -8   3   2   -2.55    2.29
  -7   3   2    0.14    2.12
  -7   3   2    1.54    2.58
  -6   3   2   78.60    5.21
  -6   3   2   77.27    4.44
  -5   3   2   40.84    3.29
  -5   3   2   34.92    2.95
  -4   3   2   56.07    3.54
  -3   3   2 2398.90   84.52
   2  -3  -2  316.03   14.82
  -2   3   2  313.90   12.31
   1  -3  -2    0.09    0.92
  -1   3   2   -0.14    1.40
   0  -3  -2  113.68    6.46
   0   3   2  125.52    5.53
   1   3   2  394.42   15.52
  -1  -3  -2  413.51   17.22
  -1  -3  -2  418.74   19.73
   2   3   2  248.22   10.03
  -2  -3  -2  251.79   13.08
  -2  -3  -2  242.10   11.09
   3   3   2   16.66    2.21
  -3  -3  -2   13.92    3.33
  -4  -3  -2    0.20    2.60
  -5  -3  -2   20.46    4.22
  -6  -3  -2    7.65    3.63
  -7  -3  -2    0.29    3.28
 -10   4   2    8.83    4.20
  -9   4   2    5.87    3.28
  -8   4   2    0.14    2.57
  -7   4   2   -1.62    1.99
  -7   4   2   -0.88    2.24
  -6   4   2   35.49    3.38
  -6   4   2   37.50    3.88
  -5   4   2   94.46    5.27
  -4   4   2    3.68    1.89
  -3   4   2  112.37    5.66
  -2   4   2  403.25   15.79
   2  -4  -2  413.43   19.16
   1  -4  -2   34.45    2.68
  -1   4   2   35.82    2.85
   0  -4  -2   19.25    2.60
   0   4   2   16.80    2.30
   1   4   2   17.58    2.44
  -1  -4  -2   13.48    2.33
  -2  -4  -2   37.39    3.88
   2   4   2   32.85    2.85
  -3  -4  -2   41.81    4.55
  -4  -4  -2   47.24    5.10
  -5  -4  -2    2.23    2.89
  -6  -4  -2   -1.05    2.99
  -7  -4  -2   -1.50    2.70
 -10   5   2    0.68    3.92
  -9   5   2   -1.71    2.81
  -8   5   2    2.98    2.61
  -8   5   2   -1.76    2.29
  -7   5   2    0.95    2.35
  -7   5   2   -0.94    2.25
  -6   5   2   -1.59    2.20
  -6   5   2   -0.78    1.94
  -5   5   2    2.64    2.20
  -4   5   2    1.40    1.73
  -3   5   2  203.37    9.06
  -2   5   2   10.45    2.34
   2  -5  -2    8.64    1.90
   1  -5  -2    8.15    1.87
  -1   5   2    5.84    1.95
   0   5   2    0.92    1.56
   0  -5  -2    1.78    1.64
  -1  -5  -2  171.84    9.72
   1   5   2  166.12    7.79
   2   5   2   19.51    2.92
  -2  -5  -2   19.64    3.68
  -3  -5  -2   -0.16    2.64
  -4  -5  -2   59.83    5.82
  -5  -5  -2    1.12    3.31
  -6  -5  -2    6.04    3.73
 -10   6   2   -2.42    3.28
  -9   6   2    0.35    2.97
  -8   6   2    0.79    2.51
  -8   6   2   -3.43    2.46
  -7   6   2   -2.46    1.99
  -7   6   2    0.71    2.76
  -6   6   2   13.08    3.31
  -5   6   2   29.67    4.05
  -4   6   2    1.38    2.20
  -3   6   2   52.44    4.06
   2  -6  -2    8.13    2.12
  -2   6   2    9.20    2.51
   1  -6  -2   -1.95    1.34
  -1   6   2    1.21    1.65
   0  -6  -2   38.94    3.94
   0   6   2   48.08    4.33
  -1  -6  -2   61.60    5.06
   1   6   2   55.42    4.19
  -2  -6  -2   21.83    3.90
  -3  -6  -2   -2.21    2.55
  -4  -6  -2    5.70    3.54
  -5  -6  -2   -6.40    2.66
 -10   7   2    0.89    3.43
  -9   7   2    0.09    2.75
  -9   7   2    0.30    2.96
  -8   7   2    2.07    2.52
  -8   7   2    3.79    2.98
  -7   7   2    8.86    2.92
  -7   7   2   11.25    3.69
  -6   7   2   -0.13    2.69
  -5   7   2   25.31    3.88
  -4   7   2    4.60    2.63
  -3   7   2   -1.11    2.07
  -2   7   2    2.09    2.30
   2  -7  -2    0.76    1.74
  -1   7   2   26.50    3.71
   1  -7  -2   31.24    4.04
   0   7   2   -1.83    1.82
   0  -7  -2    0.07    2.02
  -1  -7  -2    4.52    2.58
  -2  -7  -2    7.60    3.44
  -3  -7  -2   -3.13    2.70
  -4  -7  -2    8.18    4.05
  -9   8   2   -0.69    3.35
  -8   8   2   -0.63    2.98
  -7   8   2   -3.14    2.77
  -6   8   2    1.80    2.57
  -5   8   2    9.28    3.42
  -4   8   2   15.22    3.56
  -3   8   2    4.97    2.94
   2  -8  -2    1.77    2.01
  -2   8   2    1.18    2.40
  -1   8   2    2.38    2.27
   1  -8  -2   -0.16    2.02
   0   8   2   23.62    3.75
   0  -8  -2   29.09    4.35
  -1  -8  -2   -2.19    1.95
  -2  -8  -2    3.30    2.50
  -3  -8  -2    7.57    3.76
  -8   9   2    4.54    3.70
  -7   9   2   -4.16    3.09
  -6   9   2    3.85    3.36
  -5   9   2    5.53    3.28
  -4   9   2    1.13    3.06
  -3   9   2    0.86    2.79
  -2   9   2    0.18    2.37
   2  -9  -2   -0.52    2.18
  -1   9   2   -2.64    2.46
   1  -9  -2   -1.52    2.05
   0  -9  -2    2.53    2.79
  -1  -9  -2    0.57    2.78
  -2  -9  -2    0.50    2.96
  -7  10   2   -4.66    3.29
  -6  10   2   -5.22    3.02
  -5  10   2   12.58    4.15
  -4  10   2    3.04    3.16
  -3  10   2   -2.84    2.63
   2 -10  -2    7.64    2.76
  -2  10   2    9.32    3.30
   1 -10  -2   18.65    4.16
   0 -10  -2   -2.57    2.33
  -2  12  -3   -0.53    3.38
  -3  12  -3    2.65    3.56
  -4  12  -3    0.80    3.82
  -5  12  -3   31.27    5.64
  -1  11  -3   19.82    3.98
  -2  11  -3   -3.53    2.53
  -3  11  -3   -2.87    2.89
  -4  11  -3    2.84    3.67
  -5  11  -3    3.49    3.73
  -6  11  -3    2.96    3.65
  -4 -10   3   -1.17    2.85
  -3 -10   3   -2.18    2.39
  -2 -10   3   36.03    4.68
  -1 -10   3    3.37    2.27
   0 -10   3    5.24    2.41
  -1  10  -3    2.00    2.56
   1 -10   3    7.73    2.49
  -2  10  -3   25.40    4.03
  -3  10  -3   -0.43    2.72
  -4  10  -3   52.92    5.90
  -5  10  -3    2.51    3.47
  -6  10  -3    4.49    3.64
  -7  10  -3   -0.52    3.59
  -5  -9   3    3.82    3.20
  -4  -9   3   -3.61    2.11
  -3  -9   3   13.45    3.61
  -2  -9   3   16.49    3.50
  -1  -9   3   12.05    2.70
   0   9  -3   29.51    3.83
   0  -9   3   30.60    3.15
   0  -9   3   34.88    3.23
   1  -9   3    1.05    1.80
   1  -9   3    0.16    1.73
  -1   9  -3    4.41    2.41
  -2   9  -3    6.15    2.85
  -3   9  -3    0.05    2.65
  -4   9  -3    3.30    2.97
  -5   9  -3   22.52    4.59
  -6   9  -3   -2.66    2.92
  -7   9  -3   -2.19    3.40
  -8   9  -3   10.51    4.60
  -6  -8   3    1.35    3.57
  -5  -8   3   -0.28    2.83
  -4  -8   3   13.29    3.53
  -3  -8   3   42.11    4.25
  -2  -8   3    4.79    2.29
  -2  -8   3    5.32    2.47
   1   8  -3    1.82    2.00
  -1  -8   3    2.17    1.90
  -1  -8   3    5.24    2.09
   0   8  -3    4.89    2.44
   0  -8   3    4.52    1.77
   0  -8   3    4.45    1.97
  -1   8  -3    0.66    2.21
   1  -8   3    1.66    1.54
   1  -8   3    2.12    1.60
  -2   8  -3   10.94    3.14
  -3   8  -3    0.63    2.38
  -4   8  -3    5.48    2.75
  -5   8  -3   -2.70    2.37
  -6   8  -3   -2.01    2.90
  -7   8  -3   -2.04    2.99
  -8   8  -3    4.21    3.85
  -9   8  -3   -1.71    4.09
  -7  -7   3   -4.63    2.93
  -6  -7   3   -0.72    2.78
  -5  -7   3    2.04    2.63
  -5  -7   3    1.15    2.59
  -4  -7   3   73.60    5.23
  -4  -7   3   70.57    5.93
  -3  -7   3   -2.12    2.00
  -3  -7   3    2.17    2.07
  -2  -7   3   25.48    3.02
  -2  -7   3   32.54    3.19
   1   7  -3   27.68    2.97
  -1  -7   3   31.20    3.31
  -1  -7   3   21.46    2.63
   0  -7   3   54.14    3.81
   0   7  -3   56.33    3.82
   0  -7   3   55.62    3.74
   1  -7   3    2.88    1.29
  -1   7  -3    1.82    1.79
   1  -7   3    3.51    1.46
  -2   7  -3    2.97    2.04
  -3   7  -3    5.62    2.46
  -4   7  -3   31.06    4.07
  -5   7  -3    0.80    2.64
  -6   7  -3   -3.81    2.66
  -7   7  -3    2.29    3.40
  -8   7  -3   35.51    5.64
  -8  -6   3   11.11    4.47
  -7  -6   3   17.51    4.30
  -7  -6   3   10.30    3.95
  -6  -6   3    0.00    2.72
  -6  -6   3   -0.72    2.63
  -5  -6   3    0.12    2.18
  -5  -6   3    0.58    2.74
  -4  -6   3  386.09   17.78
  -4  -6   3  374.89   19.33
  -3  -6   3  119.70    6.56
  -3  -6   3  107.77    7.09
  -2  -6   3   -0.50    1.31
   2   6  -3   -0.08    1.26
  -2  -6   3    0.91    1.57
  -1  -6   3   59.36    3.92
  -1  -6   3   61.21    3.95
   1   6  -3   61.72    3.55
   0  -6   3  241.32   11.25
   0   6  -3  235.23    9.96
   0  -6   3  246.45   11.64
   1  -6   3   13.73    2.07
  -1   6  -3    8.60    2.21
  -2   6  -3   34.02    3.58
  -3   6  -3   39.76    4.03
  -4   6  -3    8.80    2.79
  -5   6  -3   50.56    4.53
  -6   6  -3   69.09    5.33
  -7   6  -3    3.39    3.40
  -8   6  -3   -4.54    3.02
  -8  -5   3    8.95    4.14
  -7  -5   3    4.91    3.50
  -6  -5   3    5.30    3.22
  -5  -5   3   31.04    4.11
  -5  -5   3   24.41    4.35
  -4  -5   3   11.07    2.81
  -4  -5   3    9.69    2.95
  -3  -5   3  164.48    9.36
  -3  -5   3  177.46    8.78
   2   5  -3    8.39    1.48
  -2  -5   3    7.36    1.89
  -2  -5   3   10.44    2.15
  -1  -5   3  137.74    6.74
  -1  -5   3  129.52    6.87
   1   5  -3  128.26    5.82
   0  -5   3   10.77    1.41
   0   5  -3    9.72    1.86
   0  -5   3   11.20    1.79
   1  -5   3   10.63    1.79
  -1   5  -3    9.17    2.08
  -2   5  -3  441.63   17.20
  -3   5  -3   22.80    3.13
  -4   5  -3   70.72    4.91
  -5   5  -3   -0.54    2.26
  -6   5  -3    9.70    3.22
  -7   5  -3  130.53    7.89
  -9   5  -3   -1.83    5.94
  -9  -4   3   -2.98    3.52
  -8  -4   3   -2.53    2.81
  -7  -4   3   -2.62    2.98
  -6  -4   3    2.27    2.94
  -5  -4   3   37.79    3.82
  -4  -4   3  282.83   13.56
   3   4  -3   29.95    1.65
  -3  -4   3   26.43    2.79
  -2  -4   3  246.03   11.19
   2   4  -3  247.18    9.14
  -2  -4   3  227.94   11.79
  -1  -4   3 1473.31   60.81
   1   4  -3 1464.86   51.80
  -1  -4   3 1459.70   65.33
   0  -4   3  103.55    5.30
   0   4  -3  105.00    4.95
   0  -4   3  105.10    5.12
   1  -4   3   15.58    2.05
  -1   4  -3   17.78    2.56
  -2   4  -3  404.44   15.72
  -3   4  -3  255.63   10.93
  -4   4  -3  320.42   13.35
  -5   4  -3    9.62    2.98
  -6   4  -3    1.04    2.94
  -7   4  -3    1.57    3.04
  -8   4  -3   18.44    5.50
  -9   4  -3    4.30    4.71
  -9  -3   3    0.87    3.26
  -8  -3   3   -2.04    2.96
  -7  -3   3    7.71    3.38
  -6  -3   3   45.94    4.69
  -5  -3   3   -0.69    2.20
  -4  -3   3  249.28   12.16
  -3  -3   3  243.62   11.76
   3   3  -3  253.00    9.02
   2   3  -3  316.97   11.66
  -2  -3   3  317.13   14.23
  -1  -3   3   69.23    3.63
  -1  -3   3   67.11    3.39
  -1  -3   3   69.10    3.76
   0  -3   3  196.83    8.06
   0  -3   3  198.89    8.90
   1  -3   3  295.27   13.17
   1  -3   3  311.05   12.05
  -3   3  -3   23.25    2.92
  -4   3  -3   12.02    2.52
  -5   3  -3   68.07    4.73
  -6   3  -3  537.80   21.55
  -8   3  -3    2.53    3.35
  -9   3  -3    1.82    4.42
 -10  -2   3   -3.15    3.93
  -9  -2   3    0.77    3.83
  -8  -2   3   11.79    4.01
  -7  -2   3    3.22    3.33
  -6  -2   3   80.41    5.80
  -5  -2   3    0.42    2.07
  -4  -2   3  124.61    6.95
  -3  -2   3  154.65    5.95
  -3  -2   3  156.24    8.02
  -2  -2   3   40.32    2.87
  -2  -2   3   41.62    2.20
  -1  -2   3  738.39   26.31
  -1  -2   3  726.89   30.61
   0  -2   3  180.00    7.98
   0  -2   3  174.11    7.49
   1  -2   3   14.52    2.08
   1  -2   3   12.26    1.24
   2  -2   3 1788.98   63.69
   3  -2   3   74.79    4.52
  -5   2  -3    6.38    2.70
  -7   2  -3   11.87    3.17
  -8   2  -3    6.09    3.59
  -9   2  -3    0.10    3.66
 -10  -1   3   -7.19    3.48
  -9  -1   3   -1.19    3.88
  -8  -1   3    1.51    2.97
  -7  -1   3   -0.66    2.24
  -6  -1   3   17.60    3.52
  -5  -1   3   40.93    3.64
  -4  -1   3  612.93   27.03
  -4  -1   3  631.64   22.17
  -3  -1   3   61.28    3.89
  -3  -1   3   60.52    2.82
  -2  -1   3   44.12    3.08
  -2  -1   3   47.21    2.47
  -1  -1   3  494.03   17.84
  -1  -1   3  478.04   20.47
   0  -1   3 2751.22  114.14
   0   1  -3 2732.48  123.91
   0  -1   3 2888.52   97.81
   1  -1   3  208.37    8.54
   2  -1   3   80.45    4.60
   3  -1   3    0.81    1.89
   4  -1   3   27.89    3.27
  -6   1  -3   18.25    3.08
  -7   1  -3   -1.20    2.36
  -8   1  -3   18.81    4.31
  -9   1  -3    7.38    4.18
 -10   0   3   -2.70    3.15
  -9   0   3   -4.92    3.15
  -8   0   3   17.40    4.30
  -7   0   3   31.48    4.56
  -6   0   3    4.53    2.40
  -5   0   3   15.51    2.86
  -5   0   3   14.08    1.68
  -4   0   3  188.03    9.40
  -4   0   3  198.29    7.58
  -3   0   3  114.06    5.97
  -3   0   3  119.82    4.93
  -2   0   3    2.79    1.44
  -2   0   3    4.04    1.11
  -1   0   3  144.99    6.60
  -1   0   3  153.13    6.29
   1   0  -3  150.86    7.02
   0   0   3  177.75    7.28
   0   0  -3  181.41    8.43
   0   0   3  173.05    7.56
   1   0   3   79.77    4.05
  -1   0  -3   75.44    4.53
   2   0   3   44.62    3.01
   3   0   3    2.49    1.66
   4   0   3    3.86    2.02
  -4   0  -3    5.32    1.74
  -5   0  -3   15.83    2.88
  -6   0  -3   52.37    4.28
  -7   0  -3   -1.59    2.29
 -10   1   3    6.28    4.50
  -9   1   3   -4.47    2.77
  -8   1   3   -3.10    2.28
  -7   1   3   23.00    4.00
  -6   1   3    8.69    2.72
  -6   1   3   -1.16    1.37
  -5   1   3   -0.66    1.22
  -5   1   3    1.23    1.66
  -4   1   3   45.20    2.86
  -4   1   3   49.13    3.49
  -3   1   3  119.77    6.17
  -3   1   3  127.57    5.46
  -2   1   3   -0.10    1.03
  -2   1   3    0.35    1.09
  -1   1   3  174.56    7.63
  -1   1   3  185.61    7.40
   1  -1  -3  179.62    8.57
   0   1   3  356.71   13.75
   0  -1  -3  367.55   16.83
   1   1   3   -0.09    1.36
  -1  -1  -3    1.31    1.31
  -2  -1  -3    8.64    1.57
  -2  -1  -3    8.07    2.46
   3   1   3    4.15    1.69
  -3  -1  -3    5.35    1.59
  -3  -1  -3    3.15    2.18
   4   1   3   45.17    3.49
  -4  -1  -3   47.61    3.45
  -5  -1  -3    4.37    2.42
 -10   2   3    2.35    3.70
  -9   2   3   -1.11    2.79
  -8   2   3   -3.59    2.46
  -7   2   3   34.22    4.65
  -6   2   3    6.41    1.95
  -6   2   3    3.45    2.36
  -5   2   3    7.32    2.06
  -5   2   3    8.74    1.97
  -4   2   3   87.08    4.89
  -4   2   3   81.45    4.46
  -3   2   3  477.37   19.86
  -3   2   3  450.32   17.35
  -2   2   3  214.03    9.06
  -2   2   3  196.62    8.48
   1  -2  -3  315.97   14.68
  -1   2   3  309.43   12.26
   0   2   3   13.69    1.98
   0  -2  -3   12.31    1.88
  -1  -2  -3  138.32    6.31
   1   2   3  141.28    6.47
  -1  -2  -3  141.71    7.83
  -2  -2  -3   20.03    2.11
  -2  -2  -3   19.19    3.16
   2   2   3   16.34    2.35
  -3  -2  -3    1.51    1.91
   3   2   3    0.50    1.42
  -4  -2  -3   -1.21    2.40
  -5  -2  -3   -1.66    2.55
  -6  -2  -3   30.58    5.16
  -7  -2  -3    5.90    3.46
  -8  -2  -3   -2.51    3.11
 -10   3   3    6.74    4.35
  -9   3   3    3.89    3.13
  -8   3   3    4.05    2.93
  -7   3   3   98.90    6.62
  -7   3   3   99.11    5.57
  -6   3   3   12.21    2.61
  -6   3   3    7.26    2.21
  -5   3   3   -0.06    1.55
  -5   3   3   -1.62    1.43
  -4   3   3   14.86    2.23
  -4   3   3   15.64    2.41
  -3   3   3 1344.36   47.76
  -3   3   3 1321.36   55.15
  -2   3   3  215.42    9.20
   2  -3  -3  208.55   10.43
  -2   3   3  213.80    8.93
   1  -3  -3  493.14   22.43
  -1   3   3  471.24   18.31
   0   3   3   16.78    2.45
   0  -3  -3   15.17    2.35
  -1  -3  -3   83.24    5.45
   1   3   3   74.59    4.40
  -2  -3  -3   55.90    4.71
   2   3   3   55.57    3.66
   3   3   3   13.18    2.58
  -3  -3  -3    7.50    3.13
  -4  -3  -3   23.89    4.42
  -5  -3  -3   -1.64    2.62
  -6  -3  -3   10.37    3.71
  -7  -3  -3   -1.39    3.07
 -10   4   3   17.94    4.73
  -9   4   3    8.99    3.54
  -8   4   3   -1.71    2.08
  -8   4   3   -1.03    2.52
  -7   4   3   19.60    3.44
  -7   4   3   18.72    3.35
  -6   4   3   50.76    4.49
  -6   4   3   47.93    4.11
  -5   4   3   27.19    2.77
  -5   4   3   24.25    3.19
  -4   4   3    3.92    1.90
  -4   4   3    3.80    1.54
  -3   4   3    3.18    1.27
  -3   4   3    2.94    1.76
  -2   4   3   37.30    3.07
   2  -4  -3   38.02    2.95
   1  -4  -3   44.86    3.35
  -1   4   3   41.87    3.26
   0  -4  -3  320.68   15.66
   0   4   3  308.91   12.86
   1   4   3    2.67    1.88
  -1  -4  -3    2.13    1.94
   2   4   3   -1.97    1.71
  -2  -4  -3   -1.11    2.24
  -3  -4  -3   36.09    5.03
  -4  -4  -3   -0.82    2.78
  -5  -4  -3   -3.60    2.64
  -6  -4  -3   -4.30    2.90
 -10   5   3   -2.78    3.13
  -9   5   3    1.00    3.16
  -8   5   3    4.39    2.69
  -8   5   3    2.39    2.70
  -7   5   3   36.62    4.53
  -7   5   3   39.65    4.43
  -6   5   3    0.98    1.95
  -6   5   3   -0.72    2.18
  -5   5   3   17.11    2.72
  -5   5   3   14.30    3.10
  -4   5   3  263.23   11.71
  -4   5   3  247.13   11.04
  -3   5   3   64.05    4.31
   2  -5  -3   38.59    3.23
  -2   5   3   39.77    3.37
   1  -5  -3    8.71    2.18
  -1   5   3   12.72    2.46
   0   5   3   48.56    3.90
   0  -5  -3   45.95    4.05
   1   5   3   -2.76    1.68
  -1  -5  -3    0.91    2.03
  -2  -5  -3    9.12    3.06
  -3  -5  -3   -1.02    2.74
  -4  -5  -3   18.47    4.46
  -5  -5  -3   -1.99    3.13
  -6  -5  -3   -1.48    2.74
 -10   6   3    0.66    3.16
  -9   6   3    0.26    2.51
  -9   6   3   -0.28    2.84
  -8   6   3    7.91    3.08
  -8   6   3    1.59    2.81
  -7   6   3    2.57    2.59
  -7   6   3    4.98    2.85
  -6   6   3    0.31    2.12
  -5   6   3    5.63    2.72
  -4   6   3   33.77    4.09
  -3   6   3   19.00    3.37
   2  -6  -3    4.70    2.05
  -2   6   3    7.57    2.56
  -1   6   3   23.97    3.47
   1  -6  -3   24.70    3.47
   0  -6  -3    2.72    2.23
   0   6   3    6.06    2.40
   1   6   3    8.22    2.71
  -1  -6  -3   10.18    3.12
  -2  -6  -3   -0.25    2.59
  -3  -6  -3   17.42    4.46
  -4  -6  -3   -0.48    3.10
  -5  -6  -3    2.38    3.68
  -9   7   3   -1.83    2.53
  -8   7   3   -2.65    2.62
  -7   7   3    0.32    2.71
  -6   7   3   -0.82    2.46
  -5   7   3   -0.25    2.58
  -4   7   3    7.94    2.92
  -3   7   3   -0.17    2.08
  -2   7   3   27.01    3.83
   2  -7  -3   24.47    3.52
  -1   7   3    0.13    2.15
   1  -7  -3   -0.65    1.87
   0  -7  -3    7.08    2.71
   0   7   3    4.45    2.47
  -1  -7  -3   -2.99    2.07
  -2  -7  -3   -2.26    2.26
  -3  -7  -3   12.83    4.29
  -9   8   3   -1.32    3.23
  -8   8   3   -2.73    2.87
  -7   8   3   -3.55    2.80
  -6   8   3    0.16    3.00
  -5   8   3   -1.10    2.63
  -4   8   3   12.54    3.41
  -3   8   3   -3.01    2.10
  -2   8   3   -1.29    1.99
   2  -8  -3   -0.91    1.81
  -1   8   3    4.55    2.83
   1  -8  -3    1.76    2.24
   0  -8  -3   14.03    3.60
  -1  -8  -3   20.07    4.32
  -2  -8  -3    3.22    3.36
  -8   9   3    0.35    3.29
  -7   9   3    2.71    3.69
  -6   9   3    1.95    2.82
  -5   9   3    1.47    2.89
  -4   9   3   -3.69    2.29
  -3   9   3    2.20    3.01
   2  -9  -3   25.52    4.38
  -2   9   3   23.88    4.16
   1  -9  -3    1.13    2.26
  -1   9   3    1.37    2.95
   0  -9  -3   -0.19    2.74
  -1  -9  -3    6.60    3.18
  -5  10   3   -0.71    3.35
  -4  10   3   -1.40    3.08
  -3  10   3   -0.15    2.89
   2 -10  -3   -0.93    1.85
  -2  10   3    1.66    2.99
  -2  12  -4   -3.17    3.03
  -3  12  -4    1.21    3.57
  -4  12  -4   39.63    5.65
  -5  12  -4   12.40    4.85
  -1  11  -4   -0.14    2.82
  -2  11  -4   24.79    4.51
  -3  11  -4    3.22    3.35
  -4  11  -4    1.28    3.53
  -5  11  -4   13.30    3.93
  -6  11  -4    3.23    4.21
   0  10  -4   -3.15    2.06
   0 -10   4    0.84    1.80
   1 -10   4    6.61    2.40
  -1  10  -4    0.98    2.57
  -2  10  -4   -1.83    2.61
  -3  10  -4   15.90    3.94
  -4  10  -4  105.21    7.08
  -5  10  -4   20.81    4.95
  -6  10  -4   -1.13    3.14
  -7  10  -4   -4.41    3.60
  -6  -9   4    0.81    2.79
  -5  -9   4   -3.69    2.85
  -4  -9   4   16.68    3.92
  -3  -9   4   24.81    4.13
  -2  -9   4    3.84    2.35
  -2  -9   4    1.97    2.30
  -1  -9   4    3.66    2.10
  -1  -9   4    0.39    1.75
   0   9  -4   47.17    4.10
   0  -9   4   49.01    3.96
   0  -9   4   38.52    3.49
   1  -9   4   60.06    4.39
  -1   9  -4   57.71    4.57
  -2   9  -4   -2.97    2.40
  -3   9  -4   -2.08    2.50
  -4   9  -4   33.96    4.86
  -5   9  -4   -1.69    2.76
  -6   9  -4    5.62    3.73
  -7   9  -4    7.70    3.81
  -8   9  -4   -2.63    3.41
  -7  -8   4    0.28    3.02
  -6  -8   4    3.90    3.62
  -5  -8   4   10.53    3.51
  -5  -8   4   16.30    3.63
  -4  -8   4    3.66    2.53
  -4  -8   4    9.18    2.94
  -3  -8   4   35.80    4.31
  -3  -8   4   32.64    3.75
  -2  -8   4   67.71    5.01
  -2  -8   4   70.26    4.98
  -1  -8   4   12.22    2.65
  -1  -8   4    8.65    2.12
   1   8  -4    6.25    2.38
   0  -8   4   20.62    2.38
   0  -8   4   26.23    3.26
   0   8  -4   18.67    3.09
   1  -8   4   -0.70    1.55
  -1   8  -4    0.80    2.39
   2  -8   4    9.89    2.37
  -2   8  -4    2.77    2.65
  -3   8  -4   50.33    5.11
  -4   8  -4    8.49    3.13
  -5   8  -4   -1.24    2.81
  -6   8  -4    4.50    3.34
  -7   8  -4    5.24    4.03
  -8   8  -4    0.59    3.86
  -7  -7   4    5.65    4.01
  -7  -7   4   12.72    4.08
  -6  -7   4   -0.56    2.57
  -6  -7   4   -0.33    3.02
  -5  -7   4   50.27    4.71
  -5  -7   4   55.84    5.15
  -4  -7   4   10.94    3.03
  -4  -7   4   16.19    3.39
  -3  -7   4    0.94    1.76
  -3  -7   4    0.85    2.06
  -2  -7   4   -1.35    1.53
  -2  -7   4   -1.23    1.26
   1   7  -4    3.91    1.89
  -1  -7   4    5.85    1.69
  -1  -7   4    5.76    1.98
   0   7  -4    8.97    2.20
   0  -7   4   11.66    1.84
   0  -7   4   14.53    2.35
   1  -7   4    6.60    1.75
  -1   7  -4    3.90    2.05
   2  -7   4   -1.42    1.03
  -2   7  -4    0.17    1.85
  -3   7  -4   -0.82    2.22
  -4   7  -4    2.31    2.76
  -5   7  -4   11.50    3.77
  -6   7  -4   -3.37    2.91
  -7   7  -4    3.60    3.48
  -8   7  -4    1.55    4.42
  -8  -6   4    1.25    3.81
  -8  -6   4    0.36    3.57
  -7  -6   4    0.76    2.51
  -7  -6   4   -0.57    3.28
  -6  -6   4    2.24    2.58
  -6  -6   4   -1.67    2.60
  -5  -6   4   26.10    4.24
  -5  -6   4   36.71    4.61
  -4  -6   4    9.05    2.73
  -4  -6   4    9.35    2.74
  -3  -6   4   17.60    2.95
  -3  -6   4   22.65    3.26
  -2  -6   4   14.16    2.34
   2   6  -4   14.87    2.07
  -2  -6   4   11.76    2.29
  -1  -6   4   21.29    2.08
  -1  -6   4   25.73    2.90
   1   6  -4   22.29    2.57
   0  -6   4    3.70    1.51
   0   6  -4    3.30    1.72
   0  -6   4    3.36    1.10
   1  -6   4   51.64    3.60
  -1   6  -4   56.38    3.89
   2  -6   4    0.25    1.25
  -2   6  -4   -0.26    1.77
  -3   6  -4    9.15    2.56
  -4   6  -4   -0.87    2.18
  -5   6  -4    5.14    2.90
  -6   6  -4    9.87    3.89
  -7   6  -4    3.55    3.61
  -9  -5   4   11.09    4.80
  -8  -5   4   -4.06    3.26
  -7  -5   4   11.87    3.87
  -6  -5   4   49.36    4.70
  -5  -5   4  256.19   12.98
  -4  -5   4    6.21    2.39
  -4  -5   4    7.99    2.49
  -3  -5   4   53.58    4.21
  -3  -5   4   65.15    4.31
   2   5  -4   83.68    4.15
  -2  -5   4   91.39    5.10
  -2  -5   4   83.01    5.01
  -1  -5   4  312.84   14.20
  -1  -5   4  303.46   13.77
   1   5  -4  295.26   11.92
   0   5  -4    0.31    1.51
   0  -5   4    2.01    1.48
   0  -5   4    1.14    0.87
  -1   5  -4   32.44    3.48
   1  -5   4   27.11    2.51
  -2   5  -4   21.27    3.03
  -3   5  -4   19.25    3.04
  -4   5  -4    0.42    2.10
  -5   5  -4   18.00    3.76
  -6   5  -4    2.49    3.40
  -7   5  -4   87.69    6.99
  -9   5  -4   -6.73    7.14
  -9  -4   4   11.50    4.43
  -8  -4   4    4.58    3.76
  -7  -4   4   -1.29    2.63
  -6  -4   4   14.67    3.55
  -5  -4   4  484.82   22.23
  -4  -4   4   64.27    4.73
  -3  -4   4    9.44    2.24
  -2  -4   4   10.19    2.01
  -2  -4   4    7.26    1.59
   2   4  -4    7.75    1.46
  -1  -4   4  211.41    9.87
  -1  -4   4  214.12    9.91
   0  -4   4   20.96    1.97
   1  -4   4  210.18    9.66
  -2   4  -4  171.55    7.87
  -3   4  -4   50.60    3.89
  -4   4  -4   19.29    3.24
  -5   4  -4  589.71   23.55
  -6   4  -4    1.92    3.41
  -8   4  -4    7.25    5.33
  -9   4  -4    0.66    5.61
 -10  -3   4   -4.81    4.03
  -9  -3   4   -2.46    3.74
  -8  -3   4   -2.50    2.81
  -7  -3   4    4.95    3.49
  -6  -3   4   57.83    5.23
  -5  -3   4   39.34    4.51
  -4  -3   4   10.34    2.59
  -3  -3   4  289.59   13.52
  -3  -3   4  290.55   10.90
  -2  -3   4  112.04    5.81
  -2  -3   4  103.94    4.87
  -1  -3   4    0.14    1.15
  -1  -3   4    0.06    1.00
   0  -3   4  262.14   10.68
   0  -3   4  264.23   11.70
   1  -3   4  537.99   22.10
   1  -3   4  498.76   19.76
   2  -3   4   65.41    4.32
   3  -3   4  154.92    7.80
  -4   3  -4    5.52    2.64
  -5   3  -4  160.20    8.57
  -6   3  -4   21.95    4.74
  -8   3  -4   -0.37    3.34
  -9   3  -4    3.00    4.98
 -10  -2   4   -1.58    3.33
  -9  -2   4    0.46    3.76
  -8  -2   4    6.47    3.45
  -7  -2   4   48.64    5.65
  -6  -2   4    9.37    2.87
  -5  -2   4  393.93   18.30
  -4  -2   4    1.96    2.22
  -4  -2   4    1.45    1.08
  -3  -2   4  100.86    4.45
  -3  -2   4   99.04    5.73
  -2  -2   4  416.88   18.10
  -2  -2   4  413.54   15.44
  -1  -2   4   41.00    2.62
  -1  -2   4   36.51    2.46
   0  -2   4  963.79   34.20
   0  -2   4  925.81   39.21
   1  -2   4   34.22    3.03
   1  -2   4   38.57    2.36
   2  -2   4   89.69    5.04
   3  -2   4   25.60    3.44
   4  -2   4  105.71    6.16
  -7   2  -4    9.08    3.28
  -8   2  -4   -2.71    3.11
  -9   2  -4    7.33    4.60
 -10  -1   4   -1.45    4.17
  -9  -1   4    3.63    3.43
  -8  -1   4   45.71    5.85
  -7  -1   4   60.18    5.49
  -6  -1   4    7.28    2.88
  -5  -1   4   81.42    3.70
  -5  -1   4   77.18    5.26
  -4  -1   4   24.68    3.22
  -4  -1   4   29.23    2.12
  -3  -1   4    8.67    2.14
  -3  -1   4   10.22    1.60
  -2  -1   4    0.58    1.01
  -2  -1   4   -0.66    1.06
  -1  -1   4   84.51    4.13
  -1  -1   4   79.42    4.02
   0  -1   4  236.72   10.32
   0  -1   4  237.09    9.69
   0   1  -4  243.11   11.01
  -1   1  -4 1529.75   69.55
   1  -1   4 1586.95   55.65
   2  -1   4   -0.85    1.58
   3  -1   4   -0.23    1.48
   4  -1   4  243.69   10.95
   5  -1   4  593.63   23.46
  -6   1  -4   -1.05    1.93
  -7   1  -4   -0.09    2.59
 -10   0   4    5.20    4.04
  -9   0   4    1.36    3.81
  -8   0   4    3.06    3.30
  -7   0   4    5.03    2.87
  -6   0   4   19.07    3.56
  -5   0   4   22.75    3.21
  -5   0   4   24.00    2.24
  -4   0   4    4.81    1.46
  -4   0   4    4.92    2.15
  -3   0   4   15.05    2.46
  -3   0   4   17.06    1.97
  -2   0   4    0.36    1.00
  -2   0   4    0.87    1.14
  -1   0   4  415.33   17.67
  -1   0   4  424.09   15.94
   1   0  -4  426.10   19.12
   0   0   4   -0.46    1.46
   0   0   4    2.25    0.75
   0   0  -4    2.21    1.04
  -1   0  -4  409.99   19.28
   1   0   4  410.35   15.91
  -2   0  -4    0.82    1.55
   2   0   4    0.82    1.69
   3   0   4   20.12    2.75
   4   0   4    1.11    2.14
  -4   0  -4   -0.65    1.57
  -5   0  -4   68.96    4.77
 -10   1   4   -1.02    3.96
  -9   1   4   -4.56    3.14
  -8   1   4    4.87    3.15
  -7   1   4    2.50    2.91
  -6   1   4    1.46    1.47
  -6   1   4   -0.05    2.17
  -5   1   4   84.21    4.27
  -5   1   4   78.96    5.19
  -4   1   4    0.72    1.79
  -4   1   4    2.05    1.35
  -3   1   4    4.71    1.70
  -3   1   4    4.97    1.50
  -2   1   4   26.52    2.66
  -2   1   4   23.35    2.07
  -1   1   4 1139.37   40.49
   1  -1  -4 1145.81   50.32
  -1   1   4 1089.58   46.17
   0  -1  -4   -0.28    0.92
   0   1   4   -1.71    1.16
   1   1   4   19.19    2.74
  -1  -1  -4   16.20    2.45
   2   1   4    6.97    1.88
  -2  -1  -4    4.85    1.33
  -2  -1  -4    9.11    2.38
   3   1   4   39.45    3.83
  -3  -1  -4   37.96    4.00
   4   1   4   89.65    5.42
  -5  -1  -4    4.10    2.83
  -6  -1  -4   -1.63    2.55
  -7  -1  -4    8.22    3.60
  -8  -1  -4    2.57    3.65
 -10   2   4   -1.84    3.54
  -9   2   4   -0.52    2.82
  -8   2   4   20.76    4.19
  -7   2   4    0.04    1.89
  -7   2   4   -2.62    2.42
  -6   2   4   -0.19    1.97
  -6   2   4   -1.13    1.43
  -5   2   4    1.72    1.80
  -5   2   4    5.02    1.64
  -4   2   4  284.78   11.57
  -4   2   4  293.37   13.18
  -3   2   4   35.51    2.93
   2  -2  -4   45.52    3.00
  -2   2   4   46.31    3.30
  -2   2   4   43.45    2.57
   1  -2  -4   53.06    3.48
  -1   2   4   56.03    3.69
   0   2   4  139.24    6.65
   0  -2  -4  137.16    7.45
  -1  -2  -4   -1.73    1.25
   1   2   4    0.23    1.36
   2   2   4    2.42    1.79
  -2  -2  -4    2.72    2.01
  -3  -2  -4   -2.64    2.27
   3   2   4   -0.53    1.85
  -4  -2  -4    1.22    2.40
  -5  -2  -4   22.61    4.57
  -6  -2  -4   -2.63    2.78
  -7  -2  -4    3.21    3.45
 -11   3   4    4.79    4.76
 -10   3   4    0.21    3.37
  -9   3   4   -1.90    2.87
  -8   3   4    1.86    2.92
  -7   3   4   -2.29    2.03
  -7   3   4    0.79    2.11
  -6   3   4    7.92    2.33
  -6   3   4    7.97    2.59
  -5   3   4    4.87    1.90
  -5   3   4    3.40    1.80
  -4   3   4   30.23    3.14
  -4   3   4   25.86    2.53
  -3   3   4   95.41    5.07
  -3   3   4   93.25    4.83
   2  -3  -4   -0.93    1.00
  -2   3   4    0.48    1.68
  -1   3   4  290.38   12.29
   1  -3  -4  307.20   14.54
   0  -3  -4    3.65    1.66
   0   3   4    0.28    1.48
  -1  -3  -4    7.86    2.36
   1   3   4    5.57    2.05
   2   3   4   -3.06    1.77
  -2  -3  -4    0.67    2.25
  -3  -3  -4   57.58    5.44
  -4  -3  -4   21.58    4.43
  -5  -3  -4   20.09    4.79
  -6  -3  -4   -1.86    3.02
 -10   4   4   -4.80    3.09
  -9   4   4    4.80    3.14
  -8   4   4    7.20    3.11
  -8   4   4    8.10    2.98
  -7   4   4    4.95    2.54
  -7   4   4    3.02    2.36
  -6   4   4   18.02    3.17
  -6   4   4   22.98    3.40
  -5   4   4  306.54   13.92
  -5   4   4  294.66   12.59
  -4   4   4  271.52   12.68
  -4   4   4  293.08   11.93
  -3   4   4  138.98    6.87
  -2   4   4    3.51    1.78
   2  -4  -4    1.84    1.51
  -1   4   4   11.22    2.46
   1  -4  -4   11.63    2.15
   0   4   4    0.63    1.87
   0  -4  -4   -1.05    1.57
  -1  -4  -4   -1.97    1.96
   1   4   4    0.06    2.25
   2   4   4   20.23    3.41
  -2  -4  -4   18.81    3.86
  -3  -4  -4   10.09    3.56
  -4  -4  -4    4.09    3.29
  -5  -4  -4    4.07    3.48
  -6  -4  -4    0.86    3.34
 -10   5   4   -1.15    3.32
  -9   5   4   -1.58    2.28
  -8   5   4    4.11    2.69
  -8   5   4   -0.51    2.49
  -7   5   4   -1.14    2.21
  -7   5   4   -1.27    2.03
  -6   5   4   11.30    2.97
  -5   5   4    0.17    2.19
  -4   5   4  119.51    6.54
  -3   5   4    9.42    2.82
  -2   5   4   84.19    5.39
   2  -5  -4   93.75    5.77
   1  -5  -4    4.78    2.10
  -1   5   4    3.76    2.20
   0   5   4   18.83    3.32
   0  -5  -4   22.75    3.49
  -1  -5  -4   12.30    3.24
   1   5   4   16.86    3.32
  -2  -5  -4    1.17    2.27
  -3  -5  -4    1.84    2.73
  -4  -5  -4    2.19    3.15
  -5  -5  -4   -3.57    2.42
 -10   6   4    2.08    3.61
  -9   6   4    2.05    2.79
  -8   6   4   -1.20    2.71
  -7   6   4    2.21    2.46
  -6   6   4   -1.45    2.13
  -5   6   4   35.92    4.33
  -4   6   4   32.98    4.11
  -3   6   4    3.33    2.46
   2  -6  -4    3.07    1.99
  -2   6   4    5.30    2.47
  -1   6   4   39.73    4.41
   1  -6  -4   32.15    3.53
   0  -6  -4    4.02    2.15
   0   6   4    2.07    2.35
   1   6   4    2.01    2.59
  -1  -6  -4    0.48    1.94
  -2  -6  -4   42.85    4.94
  -3  -6  -4   -1.45    3.02
  -4  -6  -4   -4.43    2.54
  -9   7   4    1.81    3.24
  -8   7   4   -1.08    2.91
  -7   7   4   -2.80    2.34
  -6   7   4    6.20    3.10
  -5   7   4   24.99    3.97
  -4   7   4    3.01    2.64
  -3   7   4   -2.72    2.27
  -2   7   4   -0.41    2.31
   2  -7  -4   -1.17    1.71
   1  -7  -4   17.88    3.47
  -1   7   4   14.96    3.46
   0  -7  -4    2.96    2.39
   0   7   4    0.66    2.68
  -1  -7  -4    2.87    2.87
  -2  -7  -4   -5.09    2.57
  -3  -7  -4    2.48    3.08
  -8   8   4    2.55    3.04
  -7   8   4   -2.11    3.12
  -6   8   4   -0.56    2.38
  -5   8   4   -1.55    2.48
  -4   8   4   -2.39    2.42
  -3   8   4    0.76    2.58
   2  -8  -4    7.24    2.93
  -2   8   4    7.05    3.28
   1  -8  -4    3.06    2.55
  -1   8   4    1.84    2.84
   0  -8  -4   -2.38    1.96
  -1  -8  -4    2.99    2.98
  -7   9   4   -0.42    3.19
  -6   9   4   -1.00    2.79
  -5   9   4    0.40    3.11
  -4   9   4    1.71    2.98
  -3   9   4    6.45    3.13
  -2   9   4    3.37    3.13
   2  -9  -4   -0.91    2.42
   1  -9  -4    2.84    2.76
  -2  12  -5    0.47    3.21
  -3  12  -5   -1.21    3.49
  -4  12  -5    4.10    3.99
  -1  11  -5    5.97    3.20
   1 -11   5    6.08    2.81
  -2  11  -5    9.38    3.53
  -3  11  -5   60.87    6.38
  -4  11  -5    9.71    3.61
  -5  11  -5   -3.84    3.15
  -6  11  -5   -4.34    2.79
  -2 -10   5   -1.24    1.92
  -1 -10   5   12.78    3.15
   0 -10   5   36.71    3.74
   0  10  -5   39.47    4.67
  -1  10  -5   -0.45    2.32
   1 -10   5    3.10    2.30
  -2  10  -5   -1.92    2.66
  -3  10  -5  106.36    6.97
  -4  10  -5   -3.89    2.99
  -5  10  -5   -2.92    3.21
  -6  10  -5   -1.47    3.22
  -7  10  -5   12.83    4.98
  -4  -9   5   -0.51    2.29
  -3  -9   5    0.54    2.21
  -2  -9   5    5.58    2.67
  -1  -9   5   27.87    3.83
   0  -9   5   10.77    2.75
   0   9  -5    5.19    2.63
   1  -9   5  153.90    8.49
  -1   9  -5  151.92    8.04
  -2   9  -5  129.59    7.53
   2  -9   5  127.06    7.44
  -3   9  -5   62.76    5.22
  -4   9  -5   10.46    3.63
  -5   9  -5   -1.82    2.47
  -6   9  -5   -4.22    3.11
  -7   9  -5   16.19    4.90
  -8   9  -5   -6.00    4.27
  -6  -8   5   27.59    4.73
  -5  -8   5   13.06    3.32
  -4  -8   5    1.45    2.37
  -3  -8   5    0.63    2.10
  -2  -8   5   -1.43    1.91
   1   8  -5   50.37    3.98
  -1  -8   5   48.19    3.97
   0  -8   5    6.59    2.27
   0   8  -5    6.76    2.54
   1  -8   5    2.04    2.00
  -1   8  -5    0.53    2.32
  -2   8  -5    0.02    2.50
   2  -8   5   -0.75    1.77
  -3   8  -5  187.48    9.51
  -4   8  -5    2.50    2.94
  -5   8  -5   -2.80    2.90
  -6   8  -5   -0.60    3.34
  -7   8  -5   10.90    4.48
  -8   8  -5   -9.10    3.80
  -8  -7   5   -1.96    2.82
  -8  -7   5   -2.74    3.24
  -7  -7   5   -1.46    2.95
  -7  -7   5   -3.67    2.89
  -6  -7   5    4.05    2.71
  -6  -7   5    6.12    3.18
  -5  -7   5   18.98    3.74
  -5  -7   5   18.61    3.87
  -4  -7   5    1.26    2.02
  -4  -7   5    6.81    2.80
  -3  -7   5   -0.98    1.68
  -3  -7   5   -1.39    1.83
   2   7  -5    0.46    1.76
  -2  -7   5   -0.70    1.46
  -2  -7   5   -0.94    1.91
   1   7  -5    0.22    1.90
  -1  -7   5    1.35    1.79
  -1  -7   5    1.32    1.12
   0   7  -5  110.76    6.10
   0  -7   5  114.81    6.44
  -1   7  -5    5.21    2.44
   1  -7   5   13.18    2.27
   2  -7   5    2.76    1.73
  -2   7  -5    0.62    2.17
  -3   7  -5    6.86    2.85
  -4   7  -5   45.01    5.17
  -5   7  -5   -0.69    2.62
  -6   7  -5    5.42    3.59
  -7   7  -5    0.36    3.69
  -8   7  -5   -4.51    3.98
  -8  -6   5   14.16    4.28
  -8  -6   5   17.82    4.89
  -7  -6   5   -6.38    2.61
  -7  -6   5   -1.35    2.63
  -6  -6   5   43.66    5.21
  -6  -6   5   39.76    4.70
  -5  -6   5    5.11    2.86
  -5  -6   5    0.88    2.14
  -4  -6   5   -0.70    1.95
  -4  -6   5   -0.19    2.04
  -3  -6   5   44.44    3.68
  -3  -6   5   40.95    3.49
   2   6  -5   40.14    3.03
  -2  -6   5   35.06    3.30
  -2  -6   5   36.59    2.89
  -1  -6   5    2.15    1.03
  -1  -6   5    1.93    1.64
   1   6  -5    0.13    1.74
   0  -6   5   11.25    2.12
   0   6  -5   11.59    2.50
   1  -6   5   69.62    4.31
  -1   6  -5   67.65    4.45
  -2   6  -5   56.49    4.28
   2  -6   5   61.33    3.97
  -3   6  -5   -2.64    1.97
  -4   6  -5    4.08    3.00
  -5   6  -5    2.43    3.10
  -6   6  -5   -3.22    3.18
  -7   6  -5    3.25    4.00
  -9  -5   5    0.27    4.05
  -8  -5   5    1.58    3.22
  -7  -5   5   15.68    3.94
  -6  -5   5  129.16    8.11
  -5  -5   5    1.78    2.37
  -4  -5   5   11.96    2.79
  -3  -5   5   -0.42    1.52
  -3  -5   5   -1.29    1.23
   3   5  -5    1.64    1.45
   2   5  -5  288.50   11.52
  -2  -5   5  296.65   13.60
  -2  -5   5  290.14   13.81
  -1  -5   5  165.16    7.74
   1   5  -5  168.20    7.37
  -1  -5   5  158.83    8.11
   0   5  -5  150.69    6.93
   0  -5   5  144.45    7.37
  -1   5  -5   -1.39    1.52
   1  -5   5   -0.26    1.08
  -2   5  -5   33.46    3.57
  -3   5  -5   40.44    3.75
  -4   5  -5   64.61    4.99
  -5   5  -5   -1.35    2.72
  -6   5  -5    2.64    3.59
  -7   5  -5   30.69    6.09
  -9  -4   5   -3.13    3.65
  -8  -4   5    6.80    3.97
  -7  -4   5   23.16    4.60
  -6  -4   5    2.39    2.55
  -5  -4   5   15.68    3.36
  -4  -4   5   -1.76    1.85
  -3  -4   5   53.19    3.96
  -3  -4   5   53.41    3.13
  -2  -4   5   79.88    4.59
  -2  -4   5   84.99    4.98
  -2  -4   5   90.86    4.57
  -1  -4   5   65.36    4.01
  -1  -4   5   68.73    4.14
   0  -4   5   11.32    1.85
   0  -4   5   11.41    2.33
   1  -4   5    5.11    1.63
   1  -4   5    7.18    2.53
   2  -4   5    2.54    2.20
   3  -4   5   22.35    3.40
  -4   4  -5   70.85    5.13
  -5   4  -5   37.92    5.15
  -6   4  -5   29.72    5.49
  -8   4  -5   -1.00    5.83
 -10  -3   5    2.35    4.70
  -9  -3   5   -1.14    3.88
  -8  -3   5   -1.01    3.39
  -7  -3   5  209.80   11.82
  -6  -3   5  345.67   16.90
  -5  -3   5    0.87    1.98
  -4  -3   5   15.25    1.78
  -4  -3   5   11.00    2.56
  -3  -3   5  242.34   11.64
  -3  -3   5  239.99    9.58
  -2  -3   5 1208.05   50.30
  -2  -3   5 1196.84   43.05
  -1  -3   5    1.38    1.43
  -1  -3   5   -0.12    0.94
   0  -3   5    0.69    0.92
   0  -3   5   -1.81    1.32
   1  -3   5  510.04   19.41
   1  -3   5  482.22   21.26
   2  -3   5  148.00    7.54
   3  -3   5  129.70    7.17
   4  -3   5   49.17    5.37
  -5   3  -5   -0.11    3.03
  -6   3  -5   34.88    6.45
  -8   3  -5   -0.30    4.40
 -10  -2   5   -3.73    3.29
  -9  -2   5    0.47    3.58
  -8  -2   5    7.19    3.51
  -7  -2   5   41.20    4.50
  -6  -2   5   41.89    4.22
  -5  -2   5   34.71    4.09
  -4  -2   5  100.35    6.09
  -4  -2   5  103.88    4.79
  -3  -2   5    2.13    1.39
  -3  -2   5    2.47    1.77
  -2  -2   5   47.41    3.05
  -2  -2   5   47.05    3.21
  -1  -2   5   37.72    2.51
  -1  -2   5   38.32    2.96
   0   2  -5  355.28   16.20
   0  -2   5  355.83   14.24
   0  -2   5  368.95   15.56
   1  -2   5  422.27   15.98
  -1   2  -5  378.65   18.42
   2  -2   5   38.78    3.46
   3  -2   5   39.50    4.22
   4  -2   5  431.59   18.03
   5  -2   5   16.70    3.87
  -7   2  -5   -0.32    3.17
 -10  -1   5   -7.70    2.68
  -9  -1   5   10.76    4.53
  -8  -1   5    0.45    3.23
  -7  -1   5  204.02   11.44
  -6  -1   5   10.60    2.96
  -5  -1   5    1.29    1.93
  -5  -1   5    0.06    1.13
  -4  -1   5   56.01    3.24
  -4  -1   5   56.03    4.13
  -3  -1   5  132.21    6.73
  -3  -1   5  117.80    5.64
  -2  -1   5   70.83    4.07
  -2  -1   5   77.62    4.15
   1   1  -5   37.23    2.18
  -1  -1   5   38.56    2.96
  -1  -1   5   38.63    2.40
   0  -1   5  474.60   18.32
   0   1  -5  464.82   21.59
   0  -1   5  490.37   20.13
   1  -1   5   12.49    2.60
  -1   1  -5   10.62    1.87
   2  -1   5    3.88    1.93
  -2   1  -5    3.60    1.64
   3  -1   5   39.71    4.13
   4  -1   5  108.94    6.53
   5  -1   5   -2.77    1.94
 -10   0   5   -4.10    3.47
  -9   0   5    3.09    4.01
  -8   0   5   11.22    3.76
  -7   0   5   16.15    3.83
  -6   0   5   43.03    4.10
  -6   0   5   49.19    3.17
  -5   0   5   23.40    3.26
  -5   0   5   27.89    2.64
  -4   0   5   -0.81    1.64
  -4   0   5   -0.96    1.17
  -3   0   5   64.70    3.82
  -3   0   5   70.36    4.27
  -2   0   5   18.05    1.77
  -2   0   5   23.65    2.53
   1   0  -5  262.71   12.00
  -1   0   5  252.46   10.59
  -1   0   5  254.17   11.03
   0   0   5   26.18    3.06
   0   0  -5   25.97    2.22
  -1   0  -5    1.31    1.38
   1   0   5    0.80    1.43
  -2   0  -5    1.77    1.83
   2   0   5    5.15    1.98
  -3   0  -5  461.53   22.62
   3   0   5  457.93   18.42
  -4   0  -5  107.97    7.81
   4   0   5  123.06    6.85
  -5   0  -5   -0.95    2.23
  -6   0  -5    1.89    2.58
  -7   0  -5    3.66    3.38
 -10   1   5   -2.06    3.98
  -9   1   5    1.39    3.10
  -8   1   5   45.84    5.82
  -7   1   5   -0.28    2.41
  -6   1   5   15.53    3.20
  -6   1   5   22.67    2.76
  -5   1   5    0.45    1.33
  -5   1   5   -0.87    1.85
  -4   1   5    7.90    2.13
  -4   1   5    4.11    1.83
  -3   1   5    3.26    1.72
  -3   1   5    7.90    1.96
  -2   1   5    0.52    0.98
  -2   1   5   -1.72    1.47
   1  -1  -5  238.20   11.02
  -1   1   5  220.90    9.77
  -1   1   5  225.04    9.65
   0  -1  -5   96.40    5.38
   0   1   5   93.28    5.28
   1   1   5    6.53    2.21
  -1  -1  -5    7.38    1.93
   2   1   5   14.32    2.93
  -2  -1  -5   22.29    3.33
  -3  -1  -5  166.24    9.76
   3   1   5  152.90    8.02
  -4  -1  -5  173.94   10.71
  -5  -1  -5    5.05    3.22
  -6  -1  -5   -0.96    2.46
  -7  -1  -5    1.68    3.12
 -11   2   5   -3.83    4.35
 -10   2   5    1.88    4.20
  -9   2   5   -2.77    2.81
  -8   2   5    2.51    3.14
  -7   2   5    4.42    2.21
  -7   2   5    5.51    3.09
  -6   2   5    2.18    2.37
  -6   2   5    0.03    1.99
  -5   2   5    0.01    1.63
  -5   2   5   -0.71    1.74
  -4   2   5   -0.22    1.50
  -4   2   5    0.28    1.51
  -3   2   5   74.72    4.43
  -3   2   5   70.61    4.12
  -2   2   5  113.69    5.93
   2  -2  -5  115.23    6.16
   1  -2  -5   17.33    1.97
  -1   2   5   14.04    2.63
   0  -2  -5    3.71    1.55
   0   2   5    7.00    2.23
  -1  -2  -5   10.24    2.53
   1   2   5    6.87    2.36
   2   2   5   25.19    3.58
  -2  -2  -5   23.19    3.82
   3   2   5    7.10    2.82
  -3  -2  -5    8.72    3.33
  -4  -2  -5    1.08    2.62
  -5  -2  -5   42.26    6.00
  -6  -2  -5    0.29    2.96
 -11   3   5   -0.60    4.03
 -10   3   5   -2.02    3.15
  -9   3   5    1.00    2.78
  -8   3   5   -1.75    2.38
  -7   3   5   -0.44    1.98
  -7   3   5   -1.86    2.41
  -6   3   5    7.73    2.80
  -6   3   5    6.23    2.43
  -5   3   5    8.81    2.36
  -5   3   5    9.15    2.41
  -4   3   5   46.29    3.50
  -4   3   5   26.75    2.79
  -3   3   5   -1.80    1.29
  -2   3   5    0.19    1.79
   2  -3  -5    0.12    1.09
   1  -3  -5   13.45    2.23
  -1   3   5   14.53    2.83
   0   3   5   41.15    4.25
   0  -3  -5   42.13    3.68
  -1  -3  -5   -0.09    1.87
   1   3   5   -3.32    2.10
  -2  -3  -5   -1.79    2.13
   2   3   5    1.86    2.43
  -3  -3  -5  121.82    8.45
  -4  -3  -5   -2.22    2.56
  -5  -3  -5    2.65    3.05
  -6  -3  -5    8.28    4.12
 -10   4   5   -3.47    3.12
  -9   4   5   10.99    3.71
  -8   4   5   16.29    3.28
  -8   4   5    9.81    3.44
  -7   4   5    7.59    2.85
  -7   4   5    5.41    2.63
  -6   4   5    0.89    2.23
  -5   4   5   34.06    3.87
  -4   4   5    8.64    2.69
  -3   4   5   16.98    3.05
   2  -4  -5   22.00    2.85
  -2   4   5   18.24    3.25
  -1   4   5   36.72    4.43
   1  -4  -5   33.20    3.38
   0  -4  -5    7.73    2.47
   0   4   5    8.28    2.83
   1   4   5   14.84    3.33
  -1  -4  -5   15.70    3.30
   2   4   5   11.72    3.21
  -2  -4  -5   12.72    3.34
  -3  -4  -5   -3.86    1.99
  -4  -4  -5   -0.98    2.84
  -5  -4  -5    0.62    2.90
 -10   5   5   -6.26    2.94
  -8   5   5   -1.55    2.38
  -7   5   5    6.81    2.69
  -6   5   5   16.58    3.32
  -5   5   5   13.92    3.08
  -4   5   5   18.22    3.05
  -3   5   5   -0.46    2.02
   2  -5  -5    1.85    1.77
  -2   5   5    0.71    2.13
  -1   5   5    5.18    2.50
   1  -5  -5    8.76    2.49
   0   5   5    5.37    2.93
   0  -5  -5    6.67    2.54
   1   5   5   19.55    3.76
  -1  -5  -5   15.58    3.75
  -2  -5  -5   26.20    4.80
  -3  -5  -5   -4.48    2.52
  -4  -5  -5    3.34    3.67
  -9   6   5    0.34    2.75
  -8   6   5    1.23    2.32
  -7   6   5   -3.79    2.22
  -6   6   5   89.78    5.88
  -5   6   5   24.50    3.76
  -4   6   5   32.40    4.24
  -3   6   5    5.35    2.81
   2  -6  -5    6.95    2.49
  -2   6   5    6.09    2.90
  -1   6   5   -1.51    1.94
   1  -6  -5   -2.68    1.62
   0   6   5    0.25    2.89
   0  -6  -5   -2.10    1.72
  -1  -6  -5   -3.57    2.07
  -2  -6  -5   -0.02    3.00
  -3  -6  -5   -0.68    2.91
  -9   7   5   -3.30    2.71
  -8   7   5   -2.49    2.74
  -7   7   5    0.47    2.81
  -6   7   5    1.64    2.24
  -5   7   5   11.06    3.28
  -4   7   5    5.16    2.95
  -3   7   5   11.67    3.33
  -2   7   5   -1.49    2.32
   2  -7  -5   -0.30    1.91
  -1   7   5   -1.22    2.73
   1  -7  -5   -1.47    2.30
   0  -7  -5   -2.66    2.02
   0   7   5    0.90    2.91
  -1  -7  -5    2.15    2.59
  -2  -7  -5    1.75    3.45
  -8   8   5   -2.92    3.22
  -7   8   5   -3.79    2.83
  -6   8   5   14.25    3.85
  -5   8   5    0.42    2.88
  -4   8   5    1.45    2.97
  -3   8   5   -0.46    2.87
  -2   8   5    4.24    3.11
   2  -8  -5    2.28    2.58
  -1   8   5    4.88    3.25
   1  -8  -5   -0.82    2.30
   0  -8  -5    0.16    2.80
  -5   9   5    2.89    3.18
  -4   9   5   -0.19    3.28
  -3   9   5    0.09    2.92
   1 -12   6   -1.81    2.08
  -2  12  -6    2.28    3.43
  -3  12  -6   -4.67    3.13
  -4  12  -6   -2.96    3.28
  -2 -11   6   20.27    4.01
  -1 -11   6   32.89    4.39
   0 -11   6    8.61    3.03
   1 -11   6    4.45    2.73
  -1  11  -6    3.68    3.02
  -2  11  -6   -1.88    3.00
  -3  11  -6    7.89    3.67
  -4  11  -6    3.38    3.65
  -5  11  -6   -4.86    3.76
  -6  11  -6   -3.34    3.56
  -4 -10   6   12.31    3.59
  -3 -10   6    0.66    2.46
  -2 -10   6   -0.15    2.14
  -1 -10   6   24.97    4.00
   0 -10   6    1.74    2.30
   0  10  -6   -0.90    2.29
   1 -10   6   10.66    2.80
  -1  10  -6    2.22    2.71
  -2  10  -6   23.54    4.15
  -3  10  -6   -0.15    2.71
  -4  10  -6   -6.08    2.96
  -5  10  -6   -1.74    3.27
  -6  10  -6   -2.74    3.79
  -7  10  -6   -0.09    4.45
  -6  -9   6   -2.23    2.47
  -5  -9   6    5.27    2.81
  -4  -9   6   -3.12    2.32
  -3  -9   6    1.45    2.49
  -2  -9   6   45.49    4.25
   1   9  -6    1.86    2.53
  -1  -9   6    0.75    1.91
   0   9  -6    7.19    2.71
   0  -9   6    8.20    2.50
   1  -9   6   48.34    4.22
  -1   9  -6   58.09    5.53
   2  -9   6  114.52    7.14
  -2   9  -6  119.76    7.20
  -3   9  -6   32.92    4.78
  -4   9  -6    3.22    2.85
  -5   9  -6    1.33    3.12
  -6   9  -6   18.17    5.17
  -7   9  -6    5.47    4.15
  -7  -8   6   -2.33    2.53
  -6  -8   6   -1.31    2.75
  -5  -8   6    9.73    2.99
  -4  -8   6   -0.34    2.40
  -3  -8   6    9.12    2.75
  -2  -8   6   37.32    3.66
   1   8  -6  123.21    6.68
  -1  -8   6  123.97    7.23
   0   8  -6   18.21    3.34
   0  -8   6   17.64    3.12
  -1   8  -6   -1.07    2.45
   1  -8   6   -3.00    1.46
   2  -8   6  137.05    7.66
  -2   8  -6  130.47    7.58
  -3   8  -6    0.04    2.91
  -4   8  -6    0.94    3.25
  -5   8  -6    2.70    3.37
  -6   8  -6    9.10    4.36
  -7   8  -6   -6.76    3.86
  -8  -7   6   15.22    4.65
  -7  -7   6    0.35    3.03
  -6  -7   6   -0.42    2.50
  -5  -7   6    0.73    2.61
  -4  -7   6   32.17    4.37
  -3  -7   6   32.46    4.02
  -2  -7   6   59.48    4.46
   2   7  -6   59.03    4.16
   1   7  -6   17.38    2.95
  -1  -7   6   20.86    3.05
   0  -7   6  276.04   13.32
   0   7  -6  283.57   12.13
  -1   7  -6  421.74   17.25
   1  -7   6  421.26   19.12
  -2   7  -6  100.32    6.24
   2  -7   6   96.56    5.92
  -3   7  -6    7.53    3.03
  -4   7  -6    8.18    3.48
  -5   7  -6   28.58    4.80
  -6   7  -6   21.32    4.86
  -7   7  -6    7.18    4.90
  -8  -6   6   -0.58    3.03
  -7  -6   6   22.74    4.71
  -6  -6   6    5.53    3.02
  -5  -6   6   -0.18    2.51
  -4  -6   6    5.14    2.50
  -3  -6   6    2.64    2.16
  -2  -6   6  287.50   13.74
   2   6  -6  290.62   11.87
   1   6  -6   13.65    2.44
  -1  -6   6   13.88    2.41
   0   6  -6   34.64    3.53
   0  -6   6   27.69    2.69
  -1   6  -6   22.79    3.19
   1  -6   6   24.91    2.48
  -2   6  -6    4.07    2.42
  -3   6  -6   16.89    3.49
  -4   6  -6   -0.74    2.53
  -5   6  -6    7.71    3.52
  -6   6  -6    2.81    3.82
  -7   6  -6   12.08    5.24
  -9  -5   6    3.52    4.19
  -8  -5   6   -0.26    3.19
  -7  -5   6    1.35    3.20
  -6  -5   6   -0.67    2.61
  -5  -5   6   -0.51    2.23
  -4  -5   6    0.99    2.01
  -3  -5   6    0.91    1.90
  -3  -5   6    3.89    1.48
  -2  -5   6   26.87    2.74
  -2  -5   6   28.74    3.10
  -1  -5   6   -0.47    1.17
  -1  -5   6    0.28    1.44
   0  -5   6   55.65    3.76
   0  -5   6   57.43    4.26
   1  -5   6   43.65    3.92
   1  -5   6   43.35    3.24
   2  -5   6   16.72    3.36
  -3   5  -6   43.28    4.45
  -4   5  -6   22.82    4.11
  -5   5  -6   12.33    4.17
  -6   5  -6   -0.17    3.53
  -9  -4   6    0.31    3.84
  -8  -4   6   19.02    4.55
  -7  -4   6   58.24    6.54
  -6  -4   6    1.34    2.75
  -5  -4   6   -1.65    2.11
  -4  -4   6   61.93    4.64
  -3  -4   6   28.76    2.56
  -3  -4   6   27.18    2.83
  -2  -4   6  230.36    9.94
  -2  -4   6  243.07   11.30
  -1  -4   6   -1.21    1.52
  -1  -4   6    0.09    1.19
   0  -4   6   -0.27    1.75
   0  -4   6    1.74    1.37
   1  -4   6  126.59    6.70
   1  -4   6  111.72    6.13
   2  -4   6  166.16    8.54
   3  -4   6   17.46    3.57
   4  -4   6    6.74    3.41
  -5   4  -6   16.05    4.19
  -6   4  -6   17.87    5.18
  -8   4  -6   10.86    9.50
 -10  -3   6    2.49    4.58
  -9  -3   6   -0.65    3.44
  -8  -3   6    3.60    3.65
  -7  -3   6   44.60    5.51
  -6  -3   6   14.56    3.79
  -5  -3   6    0.95    2.39
  -4  -3   6   18.17    3.25
  -4  -3   6   16.65    2.19
  -3  -3   6   40.59    3.49
  -3  -3   6   38.87    2.99
  -2  -3   6  363.40   16.01
  -2  -3   6  352.15   14.15
  -1  -3   6    3.01    1.80
  -1  -3   6    2.26    1.48
   0  -3   6   25.37    3.07
   0  -3   6   25.66    2.17
   1  -3   6   17.96    1.93
  -1   3  -6   14.28    1.54
   1  -3   6   21.41    3.16
   2  -3   6  471.53   19.12
   3  -3   6   15.47    3.39
   4  -3   6   37.31    5.02
   5  -3   6    7.06    3.77
 -10  -2   6   -1.92    4.12
  -9  -2   6   -5.13    2.98
  -8  -2   6   67.22    6.05
  -7  -2   6    4.55    3.35
  -6  -2   6   -1.01    2.45
  -5  -2   6    6.56    2.52
  -4  -2   6  479.06   21.55
  -4  -2   6  477.76   18.14
  -3  -2   6   39.42    3.36
  -3  -2   6   44.64    3.19
  -2  -2   6    2.41    1.50
  -2  -2   6    2.35    1.75
  -1  -2   6  270.23   11.62
  -1  -2   6  291.73   12.53
   0   2  -6   44.88    2.53
   0  -2   6   42.44    2.81
   0  -2   6   46.85    3.60
  -1   2  -6   86.93    4.86
   1  -2   6   91.89    5.35
  -2   2  -6   90.37    5.47
   2  -2   6   92.10    5.59
   3  -2   6    1.83    2.27
   4  -2   6   -0.08    2.73
   5  -2   6   12.36    3.77
 -10  -1   6   -4.31    3.91
  -9  -1   6    1.31    3.65
  -8  -1   6   69.55    6.07
  -7  -1   6   87.35    6.44
  -6  -1   6   33.49    4.65
  -5  -1   6    4.86    1.62
  -5  -1   6    6.37    2.40
  -4  -1   6  197.08    8.57
  -4  -1   6  201.68   10.07
  -3  -1   6  147.73    7.24
  -3  -1   6  129.85    6.46
  -2  -1   6    3.69    1.28
  -2  -1   6    1.17    1.65
  -1  -1   6   45.91    2.74
   1   1  -6   44.19    2.56
  -1  -1   6   38.82    3.30
   0   1  -6  160.15    7.76
   0  -1   6  163.57    7.31
   0  -1   6  151.73    7.56
   1  -1   6  132.31    6.77
  -1   1  -6  125.53    6.83
  -2   1  -6  118.49    6.79
   2  -1   6  108.43    6.33
   3  -1   6   13.15    3.29
  -3   1  -6   13.70    3.18
   4  -1   6   -3.00    2.09
  -4   1  -6   -2.55    2.07
  -5   1  -6   -0.58    2.30
  -6   1  -6   -2.03    2.58
  -7   1  -6   -1.38    2.65
 -10   0   6    0.27    3.71
  -9   0   6   -4.44    3.27
  -8   0   6   28.84    5.13
  -7   0   6    5.66    3.28
  -6   0   6   24.43    3.95
  -6   0   6   27.31    3.08
  -5   0   6   22.01    2.64
  -5   0   6   26.50    3.49
  -4   0   6   29.86    3.03
  -4   0   6   30.93    3.49
  -3   0   6   -0.20    1.43
  -3   0   6   -0.33    1.48
  -2   0   6    0.11    1.59
  -2   0   6    1.99    1.02
  -1   0   6  481.24   18.79
   1   0  -6  474.04   21.95
  -1   0   6  483.85   20.21
   0   0   6   65.24    4.47
   0   0  -6   73.90    4.20
   1   0   6   27.93    3.52
  -1   0  -6   31.91    2.86
   2   0   6   66.43    4.78
  -2   0  -6   74.35    5.21
   3   0   6  226.17   10.92
  -3   0  -6  240.83   12.92
  -4   0  -6   10.79    3.30
   4   0   6    8.18    3.24
  -5   0  -6   -1.24    2.40
  -6   0  -6   -2.40    2.31
  -7   0  -6   -0.72    3.19
 -10   1   6   13.48    4.84
  -9   1   6    5.62    4.00
  -8   1   6  104.04    7.41
  -7   1   6    6.60    3.01
  -6   1   6    0.58    2.55
  -6   1   6    3.45    2.18
  -5   1   6   11.82    2.50
  -5   1   6   10.70    2.67
  -4   1   6   77.89    4.80
  -4   1   6   91.64    5.28
  -3   1   6   10.42    1.92
  -3   1   6   15.60    2.58
  -2   1   6   -0.06    0.78
  -2   1   6    0.86    1.77
   2  -1  -6   -0.77    0.81
   1  -1  -6  140.52    7.10
  -1   1   6  129.60    6.92
   0  -1  -6   13.74    2.17
   0   1   6    8.77    2.49
  -1  -1  -6   71.41    4.76
   1   1   6   64.20    4.83
  -2  -1  -6  105.06    6.70
   2   1   6   84.64    5.85
   3   1   6   51.66    5.22
  -3  -1  -6   37.68    4.39
  -4  -1  -6    0.37    2.71
  -5  -1  -6    1.93    3.25
  -6  -1  -6   17.34    4.52
 -11   2   6   -2.74    4.12
 -10   2   6    2.99    4.10
  -9   2   6   -1.23    3.22
  -8   2   6    7.81    3.62
  -7   2   6    0.39    1.81
  -7   2   6    0.49    2.67
  -6   2   6    9.28    3.03
  -6   2   6    8.40    2.44
  -5   2   6    4.06    2.12
  -5   2   6   -0.60    2.09
  -4   2   6   27.77    2.82
  -4   2   6   37.07    3.32
  -3   2   6    5.57    2.14
   2  -2  -6    2.55    1.27
  -2   2   6    1.01    1.76
   1  -2  -6   19.49    2.27
  -1   2   6   30.36    3.60
   0   2   6   57.00    4.65
   0  -2  -6   49.37    3.89
  -1  -2  -6   31.34    3.88
   1   2   6   19.67    3.63
  -2  -2  -6  322.16   15.73
   2   2   6  264.64   13.01
   3   2   6   25.06    3.86
  -3  -2  -6   13.88    3.79
  -4  -2  -6   -2.47    2.73
  -5  -2  -6   12.60    4.20
  -6  -2  -6   25.51    5.37
 -10   3   6    7.12    4.21
  -9   3   6    0.55    3.21
  -8   3   6    2.41    3.05
  -7   3   6    3.91    2.58
  -7   3   6    1.38    2.19
  -6   3   6   15.41    3.06
  -5   3   6    8.07    2.68
  -4   3   6    0.56    2.05
  -3   3   6   10.60    2.58
   2  -3  -6   52.18    3.80
  -2   3   6   47.17    4.16
  -1   3   6   43.40    4.59
   1  -3  -6   28.76    3.05
   0  -3  -6   24.49    3.36
   0   3   6   24.21    4.07
   1   3   6   -0.15    2.31
  -1  -3  -6   -0.73    2.00
   2   3   6    7.75    3.12
  -2  -3  -6   18.95    3.73
  -3  -3  -6   10.01    3.49
  -4  -3  -6   -2.80    2.80
  -5  -3  -6    1.42    3.17
 -10   4   6   -5.48    3.30
  -8   4   6   -0.49    2.13
  -7   4   6    4.49    2.56
  -6   4   6   14.23    3.27
  -5   4   6    7.36    2.70
  -4   4   6   -0.13    2.21
  -3   4   6   15.35    3.31
   2  -4  -6    4.08    1.94
  -2   4   6   11.19    3.05
   1  -4  -6   -2.44    1.45
  -1   4   6   -1.85    2.21
   0  -4  -6   -2.01    1.77
   0   4   6   -1.32    2.42
  -1  -4  -6    1.65    2.38
   1   4   6    3.48    2.69
  -2  -4  -6    2.58    2.74
  -3  -4  -6    1.60    2.86
  -4  -4  -6   16.24    4.77
  -9   5   6   -4.36    2.23
  -8   5   6   -3.38    2.20
  -7   5   6   15.78    3.63
  -6   5   6   29.26    4.08
  -5   5   6    4.12    2.80
  -4   5   6    3.43    2.51
  -3   5   6   13.88    3.33
   2  -5  -6   -1.78    1.51
  -2   5   6   -0.93    2.31
  -1   5   6    2.95    2.85
   1  -5  -6    2.06    2.20
   0   5   6    5.79    3.13
   0  -5  -6    4.84    2.63
  -1  -5  -6   -1.39    2.09
   1   5   6    1.23    3.01
  -2  -5  -6   29.84    5.02
  -3  -5  -6   10.08    3.66
  -9   6   6    3.11    3.05
  -8   6   6    1.17    2.49
  -7   6   6   -3.53    2.43
  -6   6   6    2.91    2.84
  -5   6   6    6.74    3.23
  -4   6   6    0.68    2.81
  -3   6   6    7.79    3.38
  -2   6   6   11.83    3.45
   2  -6  -6   10.93    2.93
  -1   6   6   -2.59    2.47
   1  -6  -6    1.36    2.11
   0  -6  -6   22.86    4.34
   0   6   6   20.88    4.25
  -1  -6  -6    1.25    2.97
  -2  -6  -6   -4.92    2.66
  -8   7   6    5.94    3.37
  -7   7   6    1.12    2.95
  -6   7   6    1.48    2.50
  -5   7   6    1.11    2.87
  -4   7   6    0.64    2.73
  -3   7   6    2.95    3.08
  -2   7   6    1.11    3.01
   2  -7  -6   -0.93    1.82
  -1   7   6    7.18    3.75
   1  -7  -6    1.64    2.33
   0  -7  -6   14.75    3.96
  -6   8   6    2.73    3.15
  -5   8   6    3.81    3.40
  -4   8   6    1.54    3.51
  -3   8   6    4.09    3.46
  -2   8   6    2.73    3.11
   2  -8  -6    0.87    2.73
  -1 -12   7   15.96    3.75
   0 -12   7    0.42    2.78
   1 -12   7   -0.10    2.71
  -1  12  -7    0.50    3.32
  -2  12  -7   -2.66    3.06
  -3  12  -7    3.65    3.53
  -4  12  -7    2.49    3.89
  -4 -11   7    3.28    3.16
  -3 -11   7    8.13    3.04
  -2 -11   7    2.46    2.86
  -1 -11   7    4.23    2.64
   0 -11   7    1.05    2.65
   1 -11   7    0.69    2.40
  -1  11  -7   -1.37    3.08
  -2  11  -7   -5.46    2.95
  -3  11  -7   19.01    4.39
  -4  11  -7    5.41    4.01
  -5  11  -7   -2.88    3.48
  -5 -10   7    3.53    3.15
  -4 -10   7    3.03    2.83
  -3 -10   7   17.60    3.91
  -2 -10   7   13.80    3.52
  -1 -10   7    8.17    2.88
   0 -10   7    0.99    2.27
   0  10  -7    0.79    2.76
  -1  10  -7   38.23    5.00
   1 -10   7   46.42    4.23
  -2  10  -7    0.78    2.89
  -3  10  -7   -2.49    3.06
  -4  10  -7   -1.77    2.85
  -5  10  -7    2.74    3.36
  -6  10  -7   -4.46    3.58
  -6  -9   7   17.32    4.19
  -5  -9   7    3.39    2.87
  -4  -9   7   -0.40    2.52
  -3  -9   7   64.56    5.32
  -2  -9   7   29.70    4.24
   1   9  -7   -1.05    2.49
  -1  -9   7   -1.07    2.00
   0  -9   7    8.04    2.69
   0   9  -7    2.47    2.90
   1  -9   7   38.22    3.82
  -1   9  -7   33.36    4.86
   2  -9   7   23.77    3.63
  -2   9  -7   22.55    4.24
  -3   9  -7    1.43    2.98
  -4   9  -7    1.55    2.99
  -5   9  -7    4.23    3.67
  -6   9  -7   -3.88    3.68
  -7   9  -7   -6.03    4.42
  -7  -8   7   -0.11    3.20
  -6  -8   7   15.00    3.75
  -5  -8   7    0.92    2.77
  -4  -8   7    0.82    2.36
  -3  -8   7    3.20    2.64
  -2  -8   7    2.45    2.35
   1   8  -7   -1.32    2.41
  -1  -8   7   -1.80    1.52
   0  -8   7   55.70    4.37
   0   8  -7   58.91    4.97
   1  -8   7  228.74   11.45
  -1   8  -7  218.86   10.77
  -2   8  -7    8.14    3.15
   2  -8   7    0.92    2.00
  -3   8  -7   -2.99    2.47
  -4   8  -7   38.05    5.05
  -5   8  -7    5.16    3.71
  -6   8  -7   -0.01    3.39
  -7   8  -7    9.58    5.05
  -8  -7   7   -5.56    3.03
  -7  -7   7    2.94    3.50
  -6  -7   7    1.07    2.70
  -5  -7   7    4.08    2.70
  -4  -7   7   -1.02    1.90
  -3  -7   7   99.32    6.45
  -2  -7   7    1.68    2.22
   2   7  -7    0.41    2.31
  -1  -7   7   87.80    5.65
   1   7  -7   88.88    5.54
   0  -7   7   71.25    4.98
   0   7  -7   73.01    5.15
  -1   7  -7  174.84    9.12
   1  -7   7  190.67    9.63
  -2   7  -7   64.65    5.04
  -3   7  -7    7.72    3.10
  -4   7  -7    7.56    3.19
  -5   7  -7   -2.94    3.21
  -6   7  -7   -4.54    3.19
  -7   7  -7   47.86    7.94
  -8  -6   7   -3.25    2.94
  -7  -6   7    1.08    3.23
  -6  -6   7   16.73    4.01
  -5  -6   7   11.66    3.51
  -4  -6   7    7.25    2.70
  -3  -6   7  137.58    7.97
  -2  -6   7  139.63    7.71
  -1  -6   7  104.47    6.14
  -1  -6   7  114.94    6.44
   0  -6   7   30.73    3.35
   0  -6   7   25.94    3.78
   1  -6   7   69.17    4.58
  -2   6  -7    6.25    2.76
  -3   6  -7   -0.49    2.31
  -4   6  -7   62.63    5.42
  -5   6  -7   -2.13    3.02
  -6   6  -7    3.71    4.14
  -7   6  -7  114.94   10.09
  -9  -5   7   34.58    6.29
  -8  -5   7   -1.58    3.36
  -7  -5   7   -2.88    2.66
  -6  -5   7    0.77    2.70
  -5  -5   7   74.14    5.59
  -4  -5   7   96.48    6.32
  -3  -5   7   58.74    4.48
  -3  -5   7   58.79    4.08
  -2  -5   7    1.64    1.66
  -2  -5   7    1.64    1.88
  -1  -5   7   49.64    3.70
  -1  -5   7   52.42    4.15
   0  -5   7  203.02   10.42
   0  -5   7  232.39   10.37
   1  -5   7    8.61    1.99
   1  -5   7    8.16    2.94
   2  -5   7    1.30    2.54
   3  -5   7   -2.59    2.74
  -4   5  -7   62.20    5.41
  -5   5  -7   16.58    4.31
  -6   5  -7   -5.91    4.22
  -9  -4   7   -1.28    3.62
  -8  -4   7    5.08    3.48
  -7  -4   7    0.33    2.76
  -6  -4   7    5.52    3.01
  -5  -4   7   -2.78    2.16
  -4  -4   7    2.03    2.24
  -3  -4   7   38.59    3.58
  -3  -4   7   32.47    3.14
  -2  -4   7   33.96    3.54
  -2  -4   7   26.05    2.64
  -1  -4   7    0.71    1.45
  -1  -4   7   -1.11    1.57
   0  -4   7    3.26    2.09
   0  -4   7    1.36    1.21
   1  -4   7   26.01    2.37
   1  -4   7   26.29    3.81
   2  -4   7    3.62    2.66
   3  -4   7   -0.73    2.71
   4  -4   7   -1.19    2.81
  -6   4  -7    5.92    5.04
 -10  -3   7   -3.86    3.53
  -9  -3   7   -1.17    3.54
  -8  -3   7   -0.18    3.03
  -7  -3   7   -0.41    2.68
  -6  -3   7    8.07    3.14
  -5  -3   7    0.43    2.48
  -4  -3   7    9.79    2.53
  -4  -3   7   10.85    2.20
  -3  -3   7   19.80    2.92
  -3  -3   7   14.67    2.48
  -2  -3   7    2.35    1.79
  -2  -3   7    4.35    1.68
  -1  -3   7   -0.55    1.13
  -1  -3   7    0.26    1.66
   0  -3   7   -0.67    1.74
   0  -3   7    1.09    1.20
   1  -3   7   13.08    2.63
   2  -3   7   -0.77    2.17
   3  -3   7   -0.79    2.20
   4  -3   7    2.35    3.21
   5  -3   7   13.03    4.28
 -10  -2   7   -5.51    3.94
  -9  -2   7   28.03    5.76
  -8  -2   7   77.01    6.47
  -7  -2   7    7.43    3.29
  -6  -2   7    7.39    2.99
  -5  -2   7   44.23    3.42
  -5  -2   7   44.59    4.10
  -4  -2   7    1.56    2.01
  -4  -2   7    2.61    1.76
  -3  -2   7   79.98    4.75
  -3  -2   7   70.72    4.47
  -2  -2   7   -0.11    1.43
  -2  -2   7    0.06    1.15
  -1  -2   7    4.17    1.32
  -1  -2   7    2.97    1.78
   0  -2   7   13.75    2.73
   0  -2   7   10.76    1.76
   1  -2   7   95.69    5.85
   2  -2   7   -1.04    2.19
   3  -2   7   21.34    4.05
   4  -2   7   16.84    3.80
   5  -2   7   54.38    6.34
 -10  -1   7    0.74    3.96
  -9  -1   7   -4.22    3.09
  -8  -1   7   13.75    4.28
  -7  -1   7   -3.89    2.50
  -6  -1   7    7.71    3.14
  -5  -1   7   11.79    2.44
  -5  -1   7    7.62    2.55
  -4  -1   7    0.42    1.84
  -4  -1   7    1.78    1.69
  -3  -1   7   39.65    3.03
  -3  -1   7   37.66    3.25
  -2  -1   7   67.77    4.39
  -2  -1   7   63.09    3.76
   1   1  -7   -0.34    0.76
  -1  -1   7   -1.25    0.88
  -1  -1   7   -1.75    1.51
   0  -1   7    8.14    2.54
   0   1  -7    8.10    1.40
  -1   1  -7  227.56   11.05
   1  -1   7  214.33   10.33
  -2   1  -7   52.43    4.07
   2  -1   7   46.86    4.38
   3  -1   7   14.09    3.39
   4  -1   7   11.31    3.45
 -10   0   7    2.37    4.24
  -9   0   7   57.45    5.82
  -8   0   7    9.58    3.80
  -7   0   7    4.52    3.14
  -6   0   7   40.24    4.15
  -6   0   7   36.71    3.42
  -5   0   7  233.84   10.36
  -5   0   7  241.20   11.92
  -4   0   7   -1.23    1.62
  -4   0   7   -3.02    1.38
  -3   0   7    0.91    1.33
  -3   0   7   -0.39    1.67
  -2   0   7  213.72    9.87
  -2   0   7  217.22    9.67
   1   0  -7   79.90    4.45
  -1   0   7   75.59    5.00
   0   0   7   37.62    4.13
   0   0  -7   29.84    2.63
   1   0   7   61.57    4.88
  -1   0  -7   65.39    4.45
  -2   0  -7    9.32    2.68
   2   0   7    4.92    2.72
   3   0   7    4.59    2.66
  -3   0  -7    0.21    2.10
   4   0   7    0.53    2.95
  -4   0  -7   -0.79    2.44
 -10   1   7    0.47    3.82
  -9   1   7    6.02    3.69
  -8   1   7    5.78    3.31
  -7   1   7   30.75    3.68
  -7   1   7   19.09    3.94
  -6   1   7    3.04    2.29
  -6   1   7   -1.69    2.31
  -5   1   7   28.24    3.67
  -5   1   7   28.39    3.75
  -4   1   7    7.76    2.44
  -4   1   7   15.75    2.58
  -3   1   7   20.97    3.24
  -2   1   7   89.94    5.67
   2  -1  -7   95.52    5.31
  -1   1   7   14.54    3.14
   1  -1  -7   20.18    2.44
   0   1   7   15.56    3.25
   0  -1  -7   16.94    2.54
  -1  -1  -7   79.20    5.54
   1   1   7   87.36    5.97
   2   1   7   16.14    3.70
  -2  -1  -7    7.16    2.83
  -3  -1  -7    0.36    2.58
   3   1   7   -0.71    2.75
  -4  -1  -7   -0.72    2.49
  -5  -1  -7    2.57    2.86
 -10   2   7    2.23    3.43
  -9   2   7    4.75    3.45
  -8   2   7    1.56    2.84
  -7   2   7   -0.65    2.44
  -7   2   7    2.12    2.28
  -6   2   7    3.43    2.33
  -5   2   7   44.71    4.54
  -4   2   7    0.21    2.09
  -3   2   7   38.25    4.48
   2  -2  -7  154.46    8.08
  -2   2   7  143.34    7.94
   1  -2  -7    8.53    2.18
  -1   2   7    7.49    2.88
   0   2   7   27.31    4.23
   0  -2  -7   23.95    2.74
  -1  -2  -7   72.47    5.47
   1   2   7   76.63    5.67
  -2  -2  -7  107.03    7.05
   2   2   7   82.54    6.24
  -3  -2  -7    3.67    3.07
  -4  -2  -7   14.46    4.19
  -5  -2  -7    0.00    3.08
 -10   3   7   -0.09    3.81
  -8   3   7    8.19    3.08
  -7   3   7    7.88    2.75
  -6   3   7   21.29    3.77
  -5   3   7    1.76    2.21
  -4   3   7   22.87    3.69
  -3   3   7    4.29    2.55
  -2   3   7    2.38    2.80
   2  -3  -7    0.82    1.53
   1  -3  -7    0.17    1.58
  -1   3   7   -1.02    2.38
   0   3   7   38.72    5.08
   0  -3  -7   35.74    3.60
   1   3   7   21.08    4.16
  -1  -3  -7   35.35    4.44
  -2  -3  -7   -0.17    2.46
   2   3   7    1.58    2.97
  -3  -3  -7   27.09    4.84
  -4  -3  -7    6.23    3.75
  -8   4   7   -0.86    2.20
  -7   4   7    2.76    2.67
  -6   4   7    7.13    2.82
  -5   4   7    0.29    2.47
  -4   4   7   -0.14    2.34
  -3   4   7   12.36    3.39
  -2   4   7    3.36    3.01
   2  -4  -7    8.20    2.33
   1  -4  -7    4.65    2.29
  -1   4   7    6.24    3.08
   0   4   7    6.58    3.52
   0  -4  -7    6.52    2.52
  -1  -4  -7   89.35    6.68
   1   4   7   88.16    6.76
  -2  -4  -7    2.22    2.81
  -3  -4  -7    2.01    3.02
  -9   5   7    0.37    2.81
  -8   5   7    0.12    2.54
  -7   5   7    3.10    2.82
  -6   5   7   -1.71    2.54
  -5   5   7    1.02    2.70
  -4   5   7   -0.29    2.09
  -3   5   7    5.64    3.17
   2  -5  -7    3.96    2.11
  -2   5   7   -0.07    2.79
  -1   5   7   -0.78    3.03
   1  -5  -7    4.31    2.50
   0  -5  -7   -2.04    2.11
   0   5   7    0.20    2.90
  -1  -5  -7    4.36    2.94
  -2  -5  -7    3.61    3.02
  -8   6   7    1.78    3.11
  -7   6   7   -0.72    2.68
  -6   6   7   -3.16    2.58
  -5   6   7    0.14    2.89
  -4   6   7    5.82    2.82
  -3   6   7    3.58    3.50
   2  -6  -7    0.90    2.01
  -2   6   7    3.80    3.30
   1  -6  -7   -1.32    1.95
  -1   6   7   -1.70    3.00
   0   6   7    3.64    3.85
   0  -6  -7    5.03    3.03
  -1  -6  -7   -0.78    2.91
  -7   7   7   19.33    4.21
  -6   7   7    1.13    2.43
  -5   7   7    0.13    3.00
  -4   7   7    2.52    3.24
  -3   7   7    2.27    3.17
   2  -7  -7    2.47    2.66
  -2   7   7    0.24    3.12
   1  -7  -7    0.27    2.33
  -2 -12   8    1.02    3.09
  -1 -12   8   -0.78    2.71
   0 -12   8   -0.48    2.86
  -1  12  -8    2.42    3.56
   1 -12   8    8.25    3.55
  -2  12  -8    8.24    4.22
  -3  12  -8    4.18    4.04
  -4 -11   8   19.58    4.22
  -3 -11   8    1.58    3.01
  -2 -11   8    2.21    2.90
  -1 -11   8    8.70    3.18
   0 -11   8    0.72    2.67
   0  11  -8    1.40    3.24
   1 -11   8   10.91    3.48
  -1  11  -8    4.61    3.68
  -2  11  -8   -3.79    3.36
  -3  11  -8    5.52    3.82
  -4  11  -8   -2.12    3.47
  -5 -10   8    5.31    3.42
  -4 -10   8    2.37    3.05
  -3 -10   8    2.04    2.88
  -2 -10   8    3.72    2.94
  -1 -10   8   -0.72    2.44
   0  10  -8    0.00    3.14
   0 -10   8   -1.71    2.16
   1 -10   8   23.95    4.01
  -1  10  -8   17.74    4.46
  -2  10  -8    6.44    3.85
  -3  10  -8   -2.23    2.80
  -4  10  -8    2.33    3.82
  -5  10  -8    5.99    4.07
  -6  -9   8    0.65    2.82
  -5  -9   8   -1.20    2.79
  -4  -9   8    7.90    3.41
  -3  -9   8    0.35    2.43
  -2  -9   8    0.96    2.11
   1   9  -8    4.22    2.94
  -1  -9   8   -1.86    1.94
   0   9  -8    3.90    2.98
   0  -9   8    6.90    2.49
  -1   9  -8    3.61    2.96
   1  -9   8    7.47    2.67
  -2   9  -8   27.35    4.39
  -3   9  -8   28.70    4.86
  -4   9  -8   -0.12    2.78
  -5   9  -8   -2.05    2.85
  -6   9  -8   -0.86    3.95
  -7  -8   8    1.62    3.04
  -6  -8   8   -0.35    2.92
  -5  -8   8   20.99    4.23
  -3  -8   8    6.15    2.83
   2   8  -8   -0.85    2.71
  -2  -8   8   -0.25    2.21
   1   8  -8    5.58    3.15
  -1  -8   8    9.65    2.69
   0  -8   8  239.68   11.97
   0   8  -8  226.28   11.20
  -1   8  -8   -0.40    2.55
   1  -8   8   -0.41    1.71
  -2   8  -8   -2.35    2.65
  -3   8  -8    6.42    3.17
  -4   8  -8    6.98    3.51
  -5   8  -8    1.85    3.54
  -6   8  -8   -6.26    3.70
  -8  -7   8    8.82    4.30
  -7  -7   8   16.88    4.61
  -6  -7   8   -0.13    2.95
  -5  -7   8   -2.87    2.35
  -4  -7   8   40.41    5.03
  -3  -7   8    7.13    2.64
   2   7  -8   -0.25    1.98
  -2  -7   8    0.76    1.89
   1   7  -8   61.42    5.02
  -1  -7   8   54.49    4.37
   0  -7   8  158.75    8.60
  -1   7  -8    1.29    2.24
   1  -7   8   -0.84    1.80
  -2   7  -8   54.31    4.77
  -3   7  -8   -2.48    2.37
  -4   7  -8   -0.84    2.66
  -5   7  -8    0.23    3.37
  -6   7  -8   -5.45    3.45
  -8  -6   8   -0.37    3.13
  -7  -6   8   -2.90    2.47
  -6  -6   8   25.65    4.61
  -5  -6   8   12.51    3.48
  -4  -6   8   47.83    4.36
  -3  -6   8   48.68    4.23
  -2  -6   8   67.06    4.98
  -2  -6   8   66.17    4.77
  -1  -6   8  156.54    8.65
  -1  -6   8  171.62    8.68
   0  -6   8  765.00   32.47
   0  -6   8  728.88   29.14
   1  -6   8   -0.63    2.78
   1  -6   8   -2.46    1.64
   2  -6   8   -1.76    2.52
  -3   6  -8    9.02    3.09
  -4   6  -8   17.12    3.94
  -5   6  -8   10.37    4.12
  -6   6  -8   14.65    5.68
  -9  -5   8   -1.59    3.11
  -8  -5   8   15.13    4.27
  -7  -5   8    1.74    2.84
  -6  -5   8   -0.64    2.74
  -5  -5   8   66.83    5.35
  -4  -5   8   38.12    3.84
  -3  -5   8   33.78    3.62
  -3  -5   8   50.36    4.59
  -2  -5   8   91.15    5.63
  -2  -5   8   93.15    5.69
  -1  -5   8  112.87    6.69
  -1  -5   8  119.12    6.60
   0  -5   8  259.57   12.05
   0  -5   8  258.02   12.31
   1  -5   8    1.97    1.87
   1  -5   8    4.24    3.14
   2  -5   8   12.72    3.34
   3  -5   8    3.15    3.50
   4  -5   8    7.51    4.15
  -5   5  -8    4.62    3.64
  -6   5  -8   39.23    7.24
  -9  -4   8   -2.66    3.42
  -8  -4   8    0.03    3.13
  -7  -4   8    3.91    3.37
  -6  -4   8   54.51    4.95
  -5  -4   8   16.04    3.48
  -4  -4   8   16.26    2.93
  -4  -4   8   24.16    3.77
  -3  -4   8   14.37    2.65
  -3  -4   8   10.38    2.53
  -2  -4   8    1.83    1.95
  -2  -4   8   -0.66    1.52
  -1  -4   8   16.71    3.18
  -1  -4   8   26.05    2.94
   0  -4   8    1.31    2.13
   0  -4   8    2.26    1.51
   1  -4   8   14.43    2.30
   1  -4   8   11.05    3.09
   2  -4   8    3.89    2.54
   3  -4   8    9.50    3.47
   4  -4   8   -4.96    2.54
   5  -4   8    5.48    3.80
  -9  -3   8   11.29    4.54
  -8  -3   8   -1.07    3.10
  -7  -3   8    2.08    2.95
  -6  -3   8   27.94    4.52
  -5  -3   8   -0.31    2.22
  -4  -3   8    3.24    2.31
  -4  -3   8    2.05    2.04
  -3  -3   8    0.46    1.61
  -3  -3   8    0.89    1.95
  -2  -3   8   -0.74    1.78
  -2  -3   8    0.21    1.41
  -1  -3   8   81.01    5.48
  -1  -3   8   97.38    5.17
   0  -3   8    3.94    2.23
   0  -3   8    3.51    1.48
   1  -3   8   -1.59    2.21
   2  -3   8   -0.46    2.45
   3  -3   8   14.55    3.87
   4  -3   8   23.19    4.70
   5  -3   8   11.55    4.49
 -10  -2   8    0.19    4.36
  -9  -2   8    9.23    4.16
  -8  -2   8    0.35    3.35
  -7  -2   8    0.08    2.64
  -6  -2   8   -1.15    2.53
  -5  -2   8   -1.68    1.79
  -5  -2   8   -1.53    2.31
  -4  -2   8    3.16    2.19
  -4  -2   8    4.88    2.25
  -3  -2   8    3.73    1.76
  -3  -2   8   -1.20    1.71
  -2  -2   8   -0.30    1.30
  -2  -2   8    0.87    1.97
  -1  -2   8    3.83    2.28
  -1  -2   8    7.02    1.65
   0  -2   8   35.07    2.76
   0  -2   8   39.30    4.38
   1  -2   8    1.56    2.40
   2  -2   8   -4.37    2.29
   3  -2   8    1.71    2.77
   4  -2   8   16.59    4.17
   5  -2   8   24.05    5.17
 -10  -1   8    2.78    4.28
  -9  -1   8   -3.22    2.92
  -8  -1   8   -0.87    2.97
  -7  -1   8    6.47    2.95
  -6  -1   8   -2.81    2.34
  -5  -1   8    1.73    2.07
  -5  -1   8    0.97    2.36
  -4  -1   8   -1.09    1.67
  -4  -1   8   -0.19    1.82
  -3  -1   8   14.17    2.18
  -3  -1   8    9.83    2.63
  -2  -1   8   -2.44    1.70
  -2  -1   8   -0.42    1.16
  -1  -1   8    5.54    2.51
   0  -1   8   50.10    5.27
   1  -1   8    6.18    2.93
   2  -1   8   48.03    5.37
   3  -1   8   19.37    4.08
   4  -1   8   49.18    5.95
 -10   0   8   15.40    4.85
  -9   0   8   42.37    6.22
  -8   0   8   -2.81    2.44
  -7   0   8   -0.90    2.56
  -6   0   8    3.34    2.29
  -6   0   8   -0.63    2.36
  -5   0   8    0.15    2.03
  -5   0   8    0.25    2.11
  -4   0   8   -1.12    2.15
  -4   0   8   -1.87    1.72
  -3   0   8    1.06    2.18
  -2   0   8   23.28    3.73
  -1   0   8   65.00    5.11
   0   0   8    5.43    2.93
   1   0   8    8.72    3.18
   2   0   8   50.35    5.69
   3   0   8   -0.13    2.99
 -10   1   8    0.03    3.39
  -9   1   8   -0.13    3.32
  -8   1   8   19.87    4.13
  -7   1   8   16.01    3.65
  -7   1   8   15.52    3.27
  -6   1   8    1.49    2.09
  -5   1   8   -0.99    1.95
  -4   1   8    2.61    2.47
  -3   1   8    4.97    2.66
   2  -1  -8   -1.52    1.12
  -2   1   8    0.72    2.39
   1  -1  -8   22.64    2.83
  -1   1   8   26.31    4.31
   0   1   8   11.59    3.45
   0  -1  -8    5.83    2.07
  -1  -1  -8   65.32    4.64
   1   1   8   56.37    5.21
   2   1   8    1.09    2.73
   3   1   8    2.61    3.02
 -10   2   8   34.28    6.01
  -7   2   8   14.86    3.40
  -6   2   8   15.74    3.36
  -5   2   8   -2.50    2.08
  -4   2   8    3.04    2.69
  -3   2   8   46.86    4.95
  -2   2   8    5.33    3.07
   2  -2  -8    4.18    1.81
   1  -2  -8   -0.52    1.49
  -1   2   8    1.13    2.73
   0   2   8    4.54    3.15
   0  -2  -8    3.87    2.09
  -1  -2  -8   -0.36    1.94
   1   2   8   -1.40    2.77
  -2  -2  -8    1.60    2.28
   2   2   8   -3.26    2.67
  -3  -2  -8   -2.55    2.29
  -8   3   8   -1.08    2.62
  -7   3   8   12.00    3.44
  -6   3   8    6.45    2.91
  -5   3   8    0.94    2.60
  -4   3   8   20.07    4.06
  -3   3   8    1.98    2.61
  -2   3   8    2.73    2.89
   2  -3  -8    0.70    1.68
  -1   3   8   13.25    3.96
   1  -3  -8   19.54    3.21
   0  -3  -8   70.63    5.35
   0   3   8   73.26    6.11
  -1  -3  -8   13.42    3.18
   1   3   8    9.38    3.75
  -2  -3  -8    2.11    2.49
   2   3   8    2.13    3.28
  -3  -3  -8   -1.08    2.91
  -8   4   8    1.29    2.86
  -7   4   8   -0.41    2.64
  -6   4   8   -0.34    2.21
  -5   4   8   -0.26    2.58
  -4   4   8    5.28    2.97
  -3   4   8   16.58    3.90
  -2   4   8    6.08    3.22
   2  -4  -8    5.95    2.39
   1  -4  -8    0.52    1.84
  -1   4   8    2.44    3.40
   0   4   8   13.68    4.12
   0  -4  -8   11.71    3.14
  -1  -4  -8    2.58    2.68
   1   4   8    8.24    4.19
  -2  -4  -8    6.92    3.50
  -8   5   8   -2.22    2.77
  -7   5   8    3.38    3.15
  -6   5   8    1.73    2.88
  -5   5   8    7.26    3.41
  -4   5   8    0.15    2.67
  -3   5   8    0.58    3.06
   2  -5  -8    0.24    2.10
  -2   5   8    2.98    2.98
   1  -5  -8    8.45    2.96
  -1   5   8    6.00    3.80
   0   5   8    3.52    3.87
   0  -5  -8    8.53    3.22
  -1  -5  -8    1.30    2.83
  -7   6   8    4.44    3.47
  -6   6   8    0.90    2.82
  -5   6   8    0.64    3.11
  -4   6   8    5.01    3.34
  -3   6   8   -4.31    3.02
  -2   6   8    4.02    3.66
   2  -6  -8   -0.57    2.18
   1  -6  -8   -1.49    2.30
  -1   6   8    0.98    3.48
  -1 -12   9    6.51    3.21
   0 -12   9    4.67    3.49
   1 -12   9    6.10    3.69
  -1  12  -9   -0.87    3.82
  -2  12  -9    8.41    4.44
  -3 -11   9   26.83    4.90
  -2 -11   9    2.06    3.09
  -1 -11   9    2.52    2.95
   0  11  -9   12.49    4.47
   0 -11   9   17.63    3.97
   1 -11   9    2.08    2.69
  -1  11  -9    1.39    3.75
  -2  11  -9   -4.21    3.03
  -3  11  -9   -4.96    3.13
  -5 -10   9   -0.11    2.82
  -4 -10   9    5.87    3.43
  -3 -10   9    3.40    2.90
  -2 -10   9    1.22    2.85
  -1 -10   9    0.01    2.35
   0  10  -9   -0.81    3.54
   0 -10   9    2.90    2.80
   1 -10   9    0.02    2.16
  -1  10  -9   -4.75    2.88
  -2  10  -9   54.25    6.47
  -3  10  -9    6.57    3.36
  -4  10  -9   -3.36    3.11
  -6  -9   9    5.52    3.80
  -5  -9   9    8.62    3.63
  -4  -9   9    0.45    2.91
  -3  -9   9    2.42    2.52
  -2  -9   9    1.34    2.47
   1   9  -9    1.40    3.30
  -1  -9   9    7.61    2.73
   0  -9   9   25.68    4.00
   0   9  -9   26.55    4.76
  -1   9  -9    0.91    2.90
   1  -9   9    0.41    2.13
  -2   9  -9   14.88    4.06
  -3   9  -9    1.12    3.55
  -4   9  -9    3.80    3.65
  -5   9  -9   -5.27    3.38
  -7  -8   9    1.34    2.82
  -6  -8   9    0.22    2.61
  -5  -8   9   -0.83    2.88
  -4  -8   9   -0.85    2.58
  -3  -8   9   -2.67    1.97
  -2  -8   9   -0.03    2.20
   2   8  -9    3.06    3.20
  -1  -8   9   -0.01    2.27
   1   8  -9    2.73    3.09
   0   8  -9   68.63    5.59
   0  -8   9   67.46    5.12
  -1   8  -9    1.40    3.04
   1  -8   9    0.69    1.94
  -2   8  -9   12.51    3.22
  -3   8  -9    5.14    3.19
  -4   8  -9    4.27    2.98
  -5   8  -9    7.30    4.18
  -6   8  -9   -4.64    3.72
  -7  -7   9    5.36    3.40
  -6  -7   9    5.27    3.22
  -5  -7   9    4.98    2.76
  -4  -7   9    6.30    3.10
  -3  -7   9   -2.18    1.95
  -2  -7   9   81.76    5.69
  -1  -7   9   33.82    5.03
  -1  -7   9   59.85    4.47
   0  -7   9   -1.01    2.56
   0  -7   9   -0.47    1.81
   1  -7   9   -1.02    1.84
  -2   7  -9    4.26    2.71
  -3   7  -9    4.99    3.04
  -4   7  -9    0.03    2.90
  -5   7  -9    1.76    3.69
  -6   7  -9   12.23    5.50
  -8  -6   9   -0.54    2.88
  -7  -6   9   -2.21    2.71
  -6  -6   9    8.59    3.58
  -5  -6   9   24.79    4.21
  -4  -6   9   -1.22    2.28
  -3  -6   9    2.91    2.53
  -3  -6   9    1.19    2.19
  -2  -6   9  149.41    8.40
  -2  -6   9  152.40    8.24
  -1  -6   9  119.57    7.00
  -1  -6   9  121.40    7.35
   0  -6   9   55.19    6.06
   0  -6   9   47.61    3.90
   1  -6   9   -1.62    2.62
   1  -6   9    1.84    1.71
   2  -6   9    1.45    3.16
   3  -6   9   20.95    4.88
  -5   6  -9   -1.42    3.05
  -6   6  -9   14.44    5.69
  -8  -5   9    1.66    3.36
  -7  -5   9   -1.53    2.38
  -6  -5   9    6.17    3.36
  -5  -5   9    0.87    2.35
  -4  -5   9   63.47    5.11
  -3  -5   9    8.00    2.83
  -3  -5   9    7.74    2.52
  -2  -5   9  407.17   17.48
  -2  -5   9  430.44   19.25
  -1  -5   9   45.71    5.13
  -1  -5   9   35.90    3.46
   0  -5   9    5.48    2.09
   0  -5   9    8.37    3.17
   1  -5   9    1.87    1.80
   1  -5   9    8.57    3.26
   2  -5   9   26.17    4.89
   3  -5   9    7.56    3.97
   4  -5   9   -0.66    3.47
  -5   5  -9    1.98    3.75
  -6   5  -9    2.57    5.52
  -9  -4   9    0.15    3.32
  -8  -4   9   -3.67    2.59
  -7  -4   9    0.93    3.14
  -6  -4   9    6.34    3.22
  -5  -4   9    9.89    3.01
  -4  -4   9   74.95    5.27
  -4  -4   9   61.71    4.76
  -3  -4   9   10.47    2.82
  -3  -4   9    8.73    2.86
  -2  -4   9  423.23   18.56
  -2  -4   9  390.29   16.97
  -1  -4   9  357.26   15.47
  -1  -4   9  356.90   16.34
   0  -4   9    3.83    1.90
   0  -4   9    7.97    2.96
   1  -4   9   -2.01    2.38
   2  -4   9   49.85    5.83
   3  -4   9   49.82    6.10
   4  -4   9    3.50    4.02
   5  -4   9   11.12    4.82
  -9  -3   9    2.08    3.59
  -8  -3   9    1.08    3.00
  -7  -3   9   -3.96    2.49
  -6  -3   9   42.18    4.31
  -5  -3   9   -1.36    2.33
  -4  -3   9   -3.21    1.67
  -4  -3   9   -1.00    1.98
  -3  -3   9   46.51    4.80
  -3  -3   9   32.09    3.33
  -2  -3   9   23.71    3.76
  -2  -3   9   27.61    3.20
  -1  -3   9   23.14    2.49
  -1  -3   9   23.19    3.95
   0  -3   9    6.23    2.77
   0  -3   9    3.46    1.72
   1  -3   9    3.28    2.66
   2  -3   9   -0.91    2.34
   3  -3   9   -1.75    2.43
   4  -3   9   14.28    4.46
   5  -3   9   18.26    4.91
 -10  -2   9    1.68    4.21
  -9  -2   9   -0.20    3.65
  -8  -2   9   11.34    3.78
  -7  -2   9    4.85    3.14
  -6  -2   9    4.54    2.85
  -5  -2   9   -0.12    2.29
  -5  -2   9   -0.07    2.13
  -4  -2   9    0.63    1.81
  -4  -2   9    1.38    2.20
  -3  -2   9   -1.73    1.61
  -3  -2   9   -1.75    2.23
  -2  -2   9   52.92    5.13
  -2  -2   9   45.61    3.50
  -1  -2   9    1.33    2.45
   0  -2   9   22.17    3.81
   1  -2   9   -1.25    2.45
   2  -2   9   -3.47    2.61
   3  -2   9    0.47    2.83
   4  -2   9    1.57    3.36
 -10  -1   9    5.07    3.88
  -9  -1   9    2.54    3.36
  -8  -1   9    2.57    2.96
  -7  -1   9   -2.29    2.45
  -6  -1   9   16.06    3.07
  -6  -1   9   15.44    3.53
  -5  -1   9    5.40    2.65
  -5  -1   9    4.24    2.31
  -4  -1   9    5.45    2.05
  -4  -1   9    2.86    2.42
  -3  -1   9    0.30    2.31
  -2  -1   9   42.55    5.05
  -1  -1   9   -0.51    2.06
   0  -1   9    3.96    2.86
   1  -1   9    1.73    2.97
   2  -1   9    1.24    2.95
   3  -1   9   -5.45    2.51
   4  -1   9   27.83    5.36
 -10   0   9   -1.52    3.64
  -9   0   9   -4.77    2.71
  -8   0   9    5.35    3.07
  -7   0   9   -0.93    2.56
  -6   0   9   -1.14    2.18
  -5   0   9    4.19    2.56
  -4   0   9    8.35    3.13
  -3   0   9   23.90    3.81
  -2   0   9   14.63    3.72
  -1   0   9   25.28    4.36
   0   0   9   13.65    3.72
   1   0   9   15.58    4.15
   2   0   9   17.67    4.50
   3   0   9    3.65    3.45
 -10   1   9    2.62    3.64
  -7   1   9    5.66    3.12
  -6   1   9    5.72    2.91
  -5   1   9    2.74    2.66
  -4   1   9   34.22    4.66
  -3   1   9    7.38    3.20
  -2   1   9    9.47    3.63
  -1   1   9   10.77    3.72
   0   1   9   31.22    5.19
   1   1   9    8.50    3.72
   2   1   9   30.02    5.24
   3   1   9    1.75    3.31
  -7   2   9    0.30    2.52
  -6   2   9   -0.56    2.52
  -5   2   9    3.78    2.82
  -4   2   9    9.43    3.32
  -3   2   9   -2.76    2.74
  -2   2   9    9.31    3.38
  -1   2   9   49.81    6.03
   0   2   9    4.05    3.23
   1   2   9   12.98    4.50
   2   2   9    0.72    3.53
  -8   3   9    1.50    2.98
  -7   3   9    0.88    2.65
  -6   3   9   -0.55    2.36
  -5   3   9    7.42    3.25
  -4   3   9    7.86    3.34
  -3   3   9    2.68    3.09
  -2   3   9   -1.00    3.00
   2  -3  -9   -1.42    1.74
   1  -3  -9   -0.56    1.70
  -1   3   9   -1.77    3.04
   0   3   9   23.28    5.04
   1   3   9    2.86    3.62
  -8   4   9    2.78    3.28
  -7   4   9    1.14    2.94
  -6   4   9   -5.91    2.39
  -5   4   9   -1.98    2.94
  -4   4   9   -4.37    2.64
  -3   4   9    1.65    3.14
   2  -4  -9    3.01    2.34
  -2   4   9    1.63    3.43
   1  -4  -9   13.95    3.22
  -1   4   9   21.38    4.97
   0  -4  -9    1.85    2.22
   0   4   9   -1.43    3.16
  -7   5   9    2.96    3.50
  -6   5   9   -0.37    3.14
  -5   5   9    2.80    3.27
  -4   5   9   -0.10    2.93
  -3   5   9   -0.57    3.33
  -2   5   9   10.13    4.11
   2  -5  -9    8.57    2.94
  -1   5   9   31.00    5.57
   1  -5  -9   30.99    4.53
  -3 -11  10    0.93    3.27
  -2 -11  10    2.04    2.94
  -1 -11  10    3.72    3.19
   0  11 -10    2.46    4.32
   0 -11  10   10.08    3.58
   1 -11  10   -0.24    2.69
  -1  11 -10    7.19    4.11
  -2  11 -10   -4.65    3.46
  -3  11 -10    2.87    4.11
  -4 -10  10    1.49    3.12
  -3 -10  10   -0.30    2.49
  -2 -10  10   34.83    5.27
  -1 -10  10    2.00    2.96
   0 -10  10    3.15    2.88
   0  10 -10   -0.71    3.68
   1 -10  10    5.39    3.11
  -1  10 -10   -0.75    3.53
  -2  10 -10   -0.10    3.68
  -3  10 -10    1.93    3.57
  -5  -9  10   11.49    4.01
  -4  -9  10    8.19    3.15
  -3  -9  10    0.33    2.57
  -2  -9  10   10.74    3.41
  -1  -9  10    1.96    2.36
   1   9 -10    6.08    4.03
   0   9 -10   -1.81    3.11
   0  -9  10    5.36    2.87
   1  -9  10    2.17    2.44
  -1   9 -10   -6.03    2.65
  -2   9 -10    0.20    3.05
  -3   9 -10   14.11    4.50
  -4   9 -10   16.22    4.71
  -6  -8  10   -1.25    2.68
  -5  -8  10    1.84    2.92
  -4  -8  10   -0.48    2.83
  -3  -8  10    9.50    3.09
   2   8 -10   11.99    3.61
  -2  -8  10   19.31    3.57
  -1  -8  10    0.45    2.00
   1   8 -10   -0.97    2.81
   0  -8  10   -0.35    1.87
   0   8 -10   -3.26    2.49
   1  -8  10   16.97    3.46
  -1   8 -10    7.33    3.25
  -2   8 -10    1.47    2.91
  -3   8 -10    1.21    2.50
  -4   8 -10    2.07    3.25
  -5   8 -10    2.66    3.84
  -7  -7  10   -0.11    3.33
  -6  -7  10   -0.12    2.83
  -5  -7  10   -1.38    2.86
  -4  -7  10    0.09    2.69
  -3  -7  10    9.39    3.08
  -2  -7  10   12.16    3.53
  -2  -7  10   12.11    3.10
  -1  -7  10    0.42    2.12
  -1  -7  10   -1.91    2.51
   0  -7  10    6.91    3.68
   0  -7  10    2.21    2.14
   1  -7  10    7.36    2.51
   1  -7  10    0.53    3.46
   2  -7  10   -3.14    3.25
  -3   7 -10   -0.28    2.64
  -4   7 -10    3.63    3.09
  -5   7 -10    3.15    3.29
  -8  -6  10    4.03    3.21
  -7  -6  10    0.18    3.24
  -6  -6  10    5.74    3.12
  -5  -6  10   -1.03    2.41
  -4  -6  10   13.50    3.29
  -3  -6  10    5.37    2.95
  -3  -6  10    5.05    2.51
  -2  -6  10    7.29    3.30
  -2  -6  10    5.99    2.32
  -1  -6  10   -1.07    1.53
  -1  -6  10    0.90    3.12
   0  -6  10   -0.79    1.62
   0  -6  10   -3.07    2.63
   1  -6  10    0.81    1.88
   1  -6  10    4.26    3.32
   2  -6  10    0.14    3.23
   3  -6  10    0.38    3.66
  -5   6 -10    0.85    3.62
  -8  -5  10   -2.11    3.11
  -7  -5  10   -0.81    3.34
  -6  -5  10   14.63    3.95
  -5  -5  10    5.27    2.93
  -4  -5  10    6.28    2.54
  -3  -5  10   78.07    5.55
  -3  -5  10   74.59    5.33
  -2  -5  10   59.98    5.86
  -2  -5  10   50.27    4.15
  -1  -5  10    3.75    1.84
  -1  -5  10    2.20    2.95
   0  -5  10    6.34    2.14
   0  -5  10    5.68    3.27
   1  -5  10   12.64    3.76
   2  -5  10   -2.87    3.16
   3  -5  10    6.22    3.85
   4  -5  10   -2.27    3.65
  -9  -4  10    0.19    3.81
  -8  -4  10    2.08    3.01
  -7  -4  10    8.78    3.34
  -6  -4  10   49.64    5.73
  -5  -4  10    0.85    2.27
  -4  -4  10    5.68    2.83
  -4  -4  10   11.75    2.93
  -3  -4  10  130.74    7.22
  -3  -4  10  112.02    7.04
  -2  -4  10   21.08    3.93
  -2  -4  10   20.13    3.22
  -1  -4  10   22.11    4.11
  -1  -4  10   31.20    3.50
   0  -4  10   -0.06    1.67
   0  -4  10   -1.72    2.43
   1  -4  10   -0.56    2.71
   2  -4  10   10.09    3.67
   3  -4  10   26.01    5.39
   4  -4  10    4.53    4.14
   5  -4  10   -0.15    4.28
  -9  -3  10   -1.51    3.06
  -8  -3  10    0.45    3.31
  -7  -3  10   14.23    3.72
  -6  -3  10   -0.40    2.43
  -5  -3  10   42.72    4.68
  -5  -3  10   41.19    4.11
  -4  -3  10   49.44    4.32
  -4  -3  10   57.76    5.51
  -3  -3  10  355.00   16.08
  -3  -3  10  333.29   15.04
  -2  -3  10   -0.68    1.62
  -1  -3  10    4.54    2.69
   0  -3  10    1.12    2.71
   1  -3  10   50.36    5.88
   2  -3  10    6.67    3.51
   3  -3  10    1.27    2.99
   4  -3  10    9.83    4.70
  -9  -2  10   -1.46    2.83
  -8  -2  10    4.83    3.28
  -7  -2  10    0.06    2.46
  -6  -2  10   -1.00    2.45
  -5  -2  10   43.94    4.72
  -5  -2  10   40.02    4.83
  -4  -2  10    3.68    2.80
  -4  -2  10    1.95    1.98
  -3  -2  10  207.63   10.49
  -2  -2  10   28.05    4.33
  -1  -2  10    0.93    2.77
   0  -2  10   -0.25    2.62
   1  -2  10   54.54    6.31
   2  -2  10    3.36    3.63
   3  -2  10   -2.58    2.85
   4  -2  10   -3.90    3.57
  -9  -1  10   -1.32    2.94
  -8  -1  10    1.71    3.12
  -7  -1  10   -0.45    2.52
  -6  -1  10   -1.63    2.21
  -5  -1  10   12.14    3.28
  -4  -1  10    0.88    2.62
  -3  -1  10    4.89    2.83
  -2  -1  10    7.25    3.24
  -1  -1  10   -4.63    2.12
   0  -1  10    3.72    3.46
   1  -1  10    1.17    3.22
   2  -1  10    5.09    3.88
   3  -1  10   18.25    4.88
  -6   0  10    6.95    3.25
  -5   0  10    2.22    2.66
  -4   0  10   19.56    3.97
  -3   0  10   28.16    4.57
  -2   0  10    1.87    2.92
  -1   0  10   -3.95    2.81
   0   0  10   15.19    3.98
   1   0  10    0.67    3.30
   2   0  10    3.66    3.77
   3   0  10   -2.39    3.73
  -7   1  10    2.35    2.77
  -6   1  10   -2.05    2.45
  -5   1  10    7.43    3.29
  -4   1  10   -1.64    2.83
  -3   1  10    1.03    2.43
  -2   1  10    6.39    3.49
  -1   1  10    1.91    3.14
   0   1  10   -0.42    2.92
   1   1  10    1.72    3.59
   2   1  10   -1.41    3.55
  -7   2  10   -1.47    2.83
  -6   2  10    1.20    2.72
  -5   2  10    8.16    3.40
  -4   2  10   -0.41    2.46
  -3   2  10    1.89    3.14
  -2   2  10   -4.40    2.71
  -1   2  10    2.07    3.94
   0   2  10    6.85    4.60
   1   2  10   -1.15    3.54
  -8   3  10    9.18    3.93
  -7   3  10    6.74    3.48
  -6   3  10    2.21    2.69
  -5   3  10    6.06    3.47
  -4   3  10   -1.18    2.59
  -3   3  10   10.39    4.21
  -2   3  10   -2.67    3.28
  -1   3  10    7.36    3.98
   0   3  10    1.71    3.81
  -7   4  10    1.67    3.53
  -6   4  10   -1.84    2.92
  -5   4  10    6.24    3.83
  -4   4  10   -3.10    3.16
  -3   4  10    0.37    3.28
  -2   4  10   18.70    4.94
  -1 -11  11   -0.28    2.72
   0  11 -11   -9.75    3.78
   0 -11  11   -3.17    2.65
  -1  11 -11    6.49    4.75
  -4 -10  11    3.85    3.13
  -3 -10  11    1.43    2.88
  -2 -10  11    2.37    3.16
   1  10 -11   18.78    5.51
  -1 -10  11   12.76    3.73
   0 -10  11    1.01    2.81
   0  10 -11    4.16    3.72
  -1  10 -11    0.02    3.24
   1 -10  11    6.58    2.90
  -2  10 -11  100.64    7.88
  -5  -9  11   10.15    3.54
  -4  -9  11   18.54    4.49
  -3  -9  11    1.17    2.82
  -2  -9  11   -0.53    2.71
   1   9 -11   46.94    6.63
  -1  -9  11   26.48    4.50
   0  -9  11   17.45    3.58
   0   9 -11   22.45    5.02
   1  -9  11   -1.41    2.37
  -1   9 -11   -1.76    3.21
  -2   9 -11   19.36    4.45
  -3   9 -11    1.41    3.23
  -6  -8  11   18.84    4.41
  -5  -8  11   -1.65    2.69
  -4  -8  11    5.22    3.10
  -3  -8  11    4.07    2.76
  -2  -8  11    0.04    2.33
  -1  -8  11    3.85    2.45
   0  -8  11    2.96    2.31
  -1   8 -11    5.82    3.62
   1  -8  11   10.05    2.91
  -3   8 -11    2.58    2.68
  -7  -7  11    0.69    3.36
  -6  -7  11    1.23    3.35
  -5  -7  11   -0.33    2.66
  -4  -7  11   19.64    4.20
  -3  -7  11    2.50    2.45
  -2  -7  11    5.96    3.39
  -2  -7  11    5.01    2.49
  -1  -7  11    0.22    1.72
  -1  -7  11   -2.73    2.99
   0  -7  11   24.95    3.77
   0  -7  11   24.17    5.05
   1  -7  11   -0.24    3.58
   2  -7  11    0.71    3.75
  -4   7 -11    7.49    3.29
  -7  -6  11    2.25    3.04
  -6  -6  11   -0.63    2.56
  -5  -6  11    5.20    3.00
  -4  -6  11   17.03    3.53
  -3  -6  11    3.20    2.28
  -3  -6  11   -3.75    2.72
  -2  -6  11   -0.53    1.63
  -2  -6  11   -1.55    2.83
  -1  -6  11    6.12    2.15
  -1  -6  11    9.07    3.76
   0  -6  11   36.04    5.80
   0  -6  11   35.15    4.19
   1  -6  11    2.21    3.60
   2  -6  11   -1.97    3.31
   3  -6  11   -3.01    3.74
   4  -6  11   -3.24    3.88
  -8  -5  11    1.66    3.49
  -7  -5  11    5.94    3.55
  -6  -5  11   -3.67    2.26
  -5  -5  11   -2.66    2.32
  -4  -5  11    1.95    2.18
  -3  -5  11    5.00    2.25
  -3  -5  11    4.81    2.96
  -2  -5  11    1.00    2.90
  -2  -5  11    2.37    1.94
  -1  -5  11    0.88    1.74
  -1  -5  11   -2.36    2.51
   0  -5  11   -1.80    1.48
   0  -5  11   -0.55    2.94
   1  -5  11   -0.15    3.40
   2  -5  11    1.13    3.01
   3  -5  11   -7.52    3.43
   4  -5  11    7.98    4.38
  -8  -4  11    0.93    2.62
  -7  -4  11   -1.78    2.77
  -6  -4  11   -1.17    2.29
  -5  -4  11    4.14    2.69
  -4  -4  11   34.01    4.36
  -4  -4  11   33.30    4.64
  -3  -4  11   -0.05    1.90
  -3  -4  11   -2.18    2.47
  -2  -4  11    5.73    2.22
  -2  -4  11    4.71    2.96
  -1  -4  11    2.11    2.92
   0  -4  11    4.39    3.15
   1  -4  11    1.75    2.91
   2  -4  11    1.32    3.22
   3  -4  11   20.28    5.32
   4  -4  11   17.47    5.20
  -9  -3  11    0.61    3.39
  -8  -3  11    4.42    3.38
  -7  -3  11    8.92    3.25
  -6  -3  11    4.93    2.99
  -5  -3  11   16.37    3.27
  -5  -3  11   11.39    3.55
  -4  -3  11   28.08    3.80
  -4  -3  11   26.70    4.58
  -3  -3  11   47.13    5.43
  -2  -3  11    9.65    3.38
  -1  -3  11    2.35    2.81
   0  -3  11   13.47    3.96
   1  -3  11    6.85    3.80
   2  -3  11   -0.04    3.47
   3  -3  11   -4.35    3.52
  -9  -2  11    1.21    3.06
  -8  -2  11    1.97    3.02
  -7  -2  11   31.16    4.65
  -5  -2  11   33.01    4.60
  -4  -2  11   27.76    4.56
  -3  -2  11    6.99    3.39
  -2  -2  11   -0.06    2.80
  -1  -2  11    6.57    3.09
   0  -2  11   14.27    3.79
   1  -2  11    0.21    3.16
   2  -2  11    0.48    3.72
   3  -2  11   23.48    5.20
  -6  -1  11   -1.03    2.46
  -5  -1  11   46.86    5.52
  -4  -1  11   72.40    5.85
  -3  -1  11   -0.02    2.43
  -2  -1  11   15.52    4.07
  -1  -1  11   23.77    5.07
   0  -1  11   24.56    4.72
   1  -1  11   -2.16    3.32
   2  -1  11   -3.44    3.49
  -6   0  11   -0.61    2.86
  -5   0  11    0.74    2.97
  -4   0  11   32.38    5.01
  -3   0  11    0.17    2.71
  -2   0  11   -0.08    3.19
  -1   0  11   -3.96    3.01
   0   0  11   -3.16    3.42
   1   0  11    2.86    4.19
  -7   1  11   -4.59    2.69
  -6   1  11    5.37    3.44
  -5   1  11    0.13    3.03
  -4   1  11   -0.20    3.37
  -3   1  11    5.83    3.83
  -2   1  11   -0.10    3.39
  -1   1  11    2.55    3.60
   0   1  11    3.39    3.84
   1   1  11   -4.20    3.86
  -7   2  11   -3.20    3.14
  -6   2  11   -0.90    3.24
  -5   2  11    1.70    3.36
  -4   2  11    3.93    3.63
  -3   2  11    1.09    3.49
  -2   2  11    4.36    3.92
  -1   2  11    2.77    4.13
  -6   3  11    1.58    3.60
  -5   3  11   -2.27    3.66
  -4   3  11    0.74    3.70
  -3   3  11    0.50    3.75
  -2 -10  12    5.05    3.09
   1  10 -12    2.31    4.67
  -1 -10  12    2.00    2.91
   0  10 -12    0.98    3.83
   0 -10  12    6.15    3.48
  -1  10 -12    2.55    3.91
  -4  -9  12    0.90    3.30
  -3  -9  12    9.90    3.90
  -2  -9  12    6.58    3.16
   1   9 -12    1.64    3.86
  -1  -9  12    0.06    2.71
   0  -9  12   82.90    6.50
   0   9 -12   83.98    6.97
  -1   9 -12   34.89    5.42
  -2   9 -12    7.34    3.64
  -5  -8  12   10.74    4.02
  -4  -8  12    1.49    3.35
  -3  -8  12    8.32    3.57
  -2  -8  12   -2.87    3.39
  -2  -8  12   -1.15    2.14
  -1  -8  12   -0.38    2.37
  -1  -8  12    1.33    3.87
   0  -8  12    7.91    4.29
   0  -8  12    6.96    2.78
  -2   8 -12    1.58    2.57
  -6  -7  12    3.11    3.18
  -5  -7  12   12.58    4.01
  -4  -7  12   -0.40    2.24
  -3  -7  12    0.66    2.54
  -2  -7  12   -1.73    3.21
  -2  -7  12    1.82    2.19
  -1  -7  12   24.20    3.71
  -1  -7  12   15.06    4.97
   0  -7  12   34.33    4.49
   0  -7  12   12.70    4.82
   1  -7  12   13.16    4.87
   2  -7  12   -5.93    3.68
  -7  -6  12    4.31    3.21
  -6  -6  12    2.54    3.02
  -5  -6  12    2.71    2.62
  -4  -6  12   -0.66    2.54
  -3  -6  12    5.74    2.78
  -3  -6  12    3.17    3.36
  -2  -6  12    2.45    3.46
  -2  -6  12    4.13    2.47
  -1  -6  12   -0.96    3.16
  -1  -6  12    0.84    2.07
   0  -6  12   10.80    2.92
   0  -6  12   10.32    4.27
   1  -6  12   26.47    5.60
   2  -6  12   -3.41    3.52
  -7  -5  12   -3.66    2.19
  -6  -5  12   -1.71    2.51
  -5  -5  12    5.78    3.24
  -4  -5  12    5.96    2.83
  -4  -5  12    3.31    3.20
  -3  -5  12    2.32    2.34
  -3  -5  12    4.30    3.32
  -2  -5  12    0.57    2.99
  -2  -5  12    1.36    1.91
  -1  -5  12   41.53    5.65
   0  -5  12    0.89    3.52
   1  -5  12   -0.85    3.50
   2  -5  12   -3.72    4.03
  -8  -4  12    5.47    3.28
  -7  -4  12   -3.18    2.54
  -6  -4  12    0.34    2.40
  -5  -4  12   -3.61    1.95
  -4  -4  12   14.06    4.12
  -3  -4  12   -2.53    2.50
  -2  -4  12    7.93    3.81
  -1  -4  12   15.74    4.38
   0  -4  12   -1.85    3.05
   1  -4  12    5.14    4.17
   2  -4  12    0.10    3.98
  -8  -3  12    2.78    3.03
  -5  -3  12   15.20    3.90
  -4  -3  12   19.98    4.43
  -3  -3  12   26.10    4.72
  -2  -3  12   -1.44    3.08
  -1  -3  12    5.05    3.55
   0  -3  12    3.95    3.47
   1  -3  12   -3.93    3.13
   2  -3  12   -1.88    3.76
  -5  -2  12   44.80    5.66
  -4  -2  12    6.28    3.67
  -3  -2  12    5.56    3.27
  -2  -2  12   -4.60    3.26
  -1  -2  12    0.01    2.94
   0  -2  12   -4.15    3.34
   1  -2  12   -9.22    3.23
  -6  -1  12   16.01    4.01
  -5  -1  12   14.47    4.16
  -4  -1  12   16.67    4.41
  -3  -1  12    2.35    3.78
  -2  -1  12    2.20    4.03
  -1  -1  12   10.13    4.24
   0  -1  12   -2.55    3.78
   1  -1  12    0.73    4.25
  -6   0  12    7.48    3.96
  -5   0  12   -1.87    3.11
  -4   0  12   -1.19    3.33
  -3   0  12    7.38    4.07
  -2   0  12    0.10    3.81
  -1   0  12   -2.50    3.53
   0   0  12    1.36    4.03
  -7   1  12   -5.98    2.94
  -6   1  12   18.72    4.67
  -5   1  12   11.51    4.27
  -4   1  12    2.68    3.73
  -3   1  12    0.78    3.70
  -2   1  12    9.56    4.33
  -3  -9  13    8.44    3.55
  -2  -9  13    6.71    3.17
   1   9 -13    2.29    4.12
  -1  -9  13   -0.45    2.88
   0   9 -13    4.84    3.88
   0  -9  13    1.10    2.64
  -4  -8  13   -2.34    2.32
  -3  -8  13    7.33    3.17
  -2  -8  13    8.10    4.63
  -2  -8  13   15.29    3.59
  -1  -8  13    4.86    2.73
  -1  -8  13    3.64    4.21
   0  -8  13    3.63    2.79
   0  -8  13    2.51    4.13
  -5  -7  13   -0.03    2.99
  -4  -7  13    2.85    3.07
  -3  -7  13   -0.40    2.28
  -2  -7  13    2.20    2.48
  -2  -7  13    0.79    3.99
  -1  -7  13   73.08    5.44
  -1  -7  13   48.44    7.35
   0  -7  13   19.16    3.88
   0  -7  13   14.81    5.16
   1  -7  13   -5.68    4.03
  -6  -6  13   -0.96    2.79
  -5  -6  13   -2.27    2.32
  -4  -6  13    4.72    2.64
  -3  -6  13    3.96    2.77
  -3  -6  13    3.35    3.57
  -2  -6  13   -0.18    3.67
  -1  -6  13   11.45    4.97
   0  -6  13    1.19    4.43
   1  -6  13   -4.77    3.58
  -7  -5  13   -0.76    2.77
  -6  -5  13    2.16    2.84
  -5  -5  13   -0.08    2.60
  -4  -5  13    0.14    3.14
  -3  -5  13    5.30    3.72
  -2  -5  13    2.51    3.52
  -1  -5  13   50.87    6.68
   0  -5  13    6.88    4.59
   1  -5  13   -3.39    3.95
  -4  -4  13    0.11    3.21
  -3  -4  13   22.04    4.85
  -2  -4  13    3.75    3.93
  -1  -4  13    4.72    4.05
   0  -4  13    1.68    3.61
  -5  -3  13    3.62    3.53
  -4  -3  13    4.50    3.51
  -3  -3  13    7.25    4.23
  -2  -3  13   -1.12    3.16
  -1  -3  13    0.93    2.91
   0  -3  13   -6.38    3.23
  -5  -2  13   -6.16    3.07
  -4  -2  13   -4.49    2.95
  -3  -2  13   -4.24    3.32
  -2  -2  13   -1.26    2.98
  -1  -2  13   -0.33    3.46
  -6  -1  13   -0.91    3.05
  -5  -1  13    5.29    3.67
  -4  -1  13    0.14    3.60
  -3  -1  13   -2.59    3.54
  -2  -1  13    4.00    3.94
  -5   0  13   -4.46    3.38
  -4   0  13    4.07    3.56
  -3  -7  14    4.71    3.02
  -2  -7  14    6.16    4.36
  -3  -6  14    7.49    4.29
  -2  -6  14    6.55    4.39
  -4  -5  14   -4.28    2.99
  -3  -5  14    3.69    3.87
  -2  -5  14    7.75    4.25
  -4  -4  14   -4.07    3.18
  -3  -4  14   -3.43    3.07
  -2  -4  14   -7.10    3.13
  -4  -3  14   -1.93    3.79
  -3  -3  14    1.65    3.93
   0   0   0    0.00    0.00
;
_shelx_hkl_checksum              69087
_publcif_info_exptl_table_max_cols 4
_publcif_info_exptl_table_use_headnotes n
_publcif_funding_html
;
;
loop_
_space_group_symop_operation_xyz
'x, y, z'
'-x, -y, -z'
loop_
_atom_site_label
_atom_site_type_symbol
_atom_site_fract_x
_atom_site_fract_y
_atom_site_fract_z
_atom_site_U_iso_or_equiv
_atom_site_adp_type
_atom_site_occupancy
_atom_site_site_symmetry_order
_atom_site_calc_flag
_atom_site_refinement_flags_posn
_atom_site_refinement_flags_adp
_atom_site_refinement_flags_occupancy
_atom_site_disorder_assembly
_atom_site_disorder_group
N1 N 0.9161(3) 0.7792(2) 0.0280(2) 0.0432(6) Uani 1 1 d . . . . .
H1A H 0.934186 0.879831 0.093272 0.065 Uiso 1 1 calc R U . . .
H1B H 0.870883 0.767700 -0.062732 0.065 Uiso 1 1 calc R U . . .
H1C H 1.018076 0.757182 0.041312 0.065 Uiso 1 1 calc R U . . .
N2 N 0.7035(3) 0.1756(2) 0.1711(2) 0.0436(6) Uani 1 1 d . . . . .
H2A H 0.655432 0.179147 0.087265 0.065 Uiso 1 1 calc R U . . .
H2B H 0.635242 0.093212 0.170770 0.065 Uiso 1 1 calc R U . . .
H2C H 0.809660 0.163537 0.179738 0.065 Uiso 1 1 calc R U . . .
O1 O 0.0156(2) 0.1062(2) 0.2303(2) 0.0524(5) Uani 1 1 d . . . . .
O2 O 0.2469(3) 0.2868(3) 0.2601(2) 0.0795(7) Uani 1 1 d . . . . .
O3 O 0.7572(2) 0.2511(2) 0.8799(2) 0.0563(6) Uani 1 1 d . . . . .
O4 O 0.5216(3) 0.0999(2) 0.87532(19) 0.0562(6) Uani 1 1 d . . . . .
C1 C 0.1755(4) 0.1933(3) 0.2973(3) 0.0442(7) Uani 1 1 d . . . . .
C2 C 0.5984(4) 0.1717(3) 0.8210(3) 0.0371(6) Uani 1 1 d . . . . .
C3 C 0.2849(3) 0.1845(3) 0.4310(3) 0.0352(6) Uani 1 1 d . . . . .
C4 C 0.2153(4) 0.0800(3) 0.4766(3) 0.0433(7) Uani 1 1 d . . . . .
H4 H 0.099521 0.013363 0.423189 0.052 Uiso 1 1 calc R U . . .
C5 C 0.3146(3) 0.0731(3) 0.5997(3) 0.0410(7) Uani 1 1 d . . . . .
H5 H 0.264729 0.002298 0.628333 0.049 Uiso 1 1 calc R U . . .
C6 C 0.4879(3) 0.1703(3) 0.6816(2) 0.0326(6) Uani 1 1 d . . . . .
C7 C 0.5580(3) 0.2742(3) 0.6351(3) 0.0398(6) Uani 1 1 d . . . . .
H7 H 0.674662 0.338923 0.686939 0.048 Uiso 1 1 calc R U . . .
C8 C 0.4569(3) 0.2826(3) 0.5129(3) 0.0404(7) Uani 1 1 d . . . . .
H8 H 0.505374 0.355333 0.485448 0.049 Uiso 1 1 calc R U . . .
C9 C 0.7922(4) 0.6680(3) 0.0481(3) 0.0468(7) Uani 1 1 d . . . . .
H9A H 0.739685 0.566695 -0.041858 0.056 Uiso 1 1 calc R U . . .
H9B H 0.698223 0.712467 0.065036 0.056 Uiso 1 1 calc R U . . .
C10 C 0.8777(4) 0.6370(3) 0.1738(3) 0.0440(7) Uani 1 1 d . . . . .
H10A H 0.925988 0.737611 0.264412 0.053 Uiso 1 1 calc R U . . .
H10B H 0.974688 0.596493 0.158899 0.053 Uiso 1 1 calc R U . . .
C11 C 0.7520(4) 0.5184(3) 0.1897(3) 0.0447(7) Uani 1 1 d . . . . .
H11A H 0.693594 0.422582 0.095315 0.054 Uiso 1 1 calc R U . . .
H11B H 0.662239 0.564559 0.215203 0.054 Uiso 1 1 calc R U . . .
C12 C 0.8387(4) 0.4705(3) 0.3050(3) 0.0471(7) Uani 1 1 d . . . . .
H12A H 0.944331 0.446484 0.292490 0.057 Uiso 1 1 calc R U . . .
H12B H 0.873929 0.560670 0.401991 0.057 Uiso 1 1 calc R U . . .
C13 C 0.7204(4) 0.3270(3) 0.2968(3) 0.0509(8) Uani 1 1 d . . . . .
H13A H 0.767988 0.320896 0.387680 0.061 Uiso 1 1 calc R U . . .
H13B H 0.604595 0.340185 0.286722 0.061 Uiso 1 1 calc R U . . .
loop_
_atom_site_aniso_label
_atom_site_aniso_U_11
_atom_site_aniso_U_22
_atom_site_aniso_U_33
_atom_site_aniso_U_23
_atom_site_aniso_U_13
_atom_site_aniso_U_12
N1 0.0411(14) 0.0446(12) 0.0450(13) 0.0263(10) 0.0105(11) 0.0108(11)
N2 0.0383(14) 0.0464(12) 0.0465(13) 0.0308(11) 0.0071(11) 0.0049(11)
O1 0.0426(13) 0.0513(11) 0.0515(12) 0.0248(9) 0.0002(10) 0.0130(10)
O2 0.0694(16) 0.0987(16) 0.0679(14) 0.0654(14) -0.0019(12) -0.0034(13)
O3 0.0345(12) 0.0813(14) 0.0550(13) 0.0394(11) 0.0093(10) 0.0154(11)
O4 0.0586(14) 0.0570(11) 0.0477(12) 0.0363(10) 0.0046(10) -0.0006(10)
C1 0.0453(19) 0.0464(16) 0.0365(16) 0.0226(14) 0.0043(14) 0.0135(15)
C2 0.0416(18) 0.0378(14) 0.0344(15) 0.0208(12) 0.0108(14) 0.0140(13)
C3 0.0376(16) 0.0344(13) 0.0323(14) 0.0160(11) 0.0101(13) 0.0120(12)
C4 0.0357(16) 0.0401(14) 0.0435(16) 0.0212(13) 0.0029(13) 0.0010(12)
C5 0.0434(17) 0.0360(13) 0.0397(15) 0.0233(12) 0.0067(13) 0.0023(13)
C6 0.0345(15) 0.0332(13) 0.0298(13) 0.0149(11) 0.0100(12) 0.0121(12)
C7 0.0285(15) 0.0529(15) 0.0360(14) 0.0242(12) 0.0075(12) 0.0059(12)
C8 0.0383(17) 0.0480(15) 0.0405(15) 0.0283(13) 0.0129(14) 0.0096(13)
C9 0.0410(17) 0.0484(15) 0.0542(18) 0.0293(14) 0.0152(14) 0.0119(13)
C10 0.0440(17) 0.0420(14) 0.0435(16) 0.0222(13) 0.0120(14) 0.0088(13)
C11 0.0464(18) 0.0423(14) 0.0522(17) 0.0257(13) 0.0207(14) 0.0165(13)
C12 0.0549(19) 0.0428(15) 0.0419(16) 0.0204(13) 0.0162(14) 0.0122(14)
C13 0.057(2) 0.0579(17) 0.0464(17) 0.0298(15) 0.0233(15) 0.0168(15)
loop_
_atom_type_symbol
_atom_type_description
_atom_type_scat_dispersion_real
_atom_type_scat_dispersion_imag
_atom_type_scat_source
C C 0.0033 0.0016 'International Tables Vol C Tables 4.2.6.8 and 6.1.1.4'
H H 0.0000 0.0000 'International Tables Vol C Tables 4.2.6.8 and 6.1.1.4'
N N 0.0061 0.0033 'International Tables Vol C Tables 4.2.6.8 and 6.1.1.4'
O O 0.0106 0.0060 'International Tables Vol C Tables 4.2.6.8 and 6.1.1.4'
loop_
_geom_angle_atom_site_label_1
_geom_angle_atom_site_label_2
_geom_angle_atom_site_label_3
_geom_angle
_geom_angle_site_symmetry_1
_geom_angle_site_symmetry_3
_geom_angle_publ_flag
C9 N1 H1A 109.5 . . ?
C9 N1 H1B 109.5 . . ?
H1A N1 H1B 109.5 . . ?
C9 N1 H1C 109.5 . . ?
H1A N1 H1C 109.5 . . ?
H1B N1 H1C 109.5 . . ?
C13 N2 H2A 109.5 . . ?
C13 N2 H2B 109.5 . . ?
H2A N2 H2B 109.5 . . ?
C13 N2 H2C 109.5 . . ?
H2A N2 H2C 109.5 . . ?
H2B N2 H2C 109.5 . . ?
O2 C1 O1 123.9(2) . . ?
O2 C1 C3 118.0(2) . . ?
O1 C1 C3 118.1(2) . . ?
O3 C2 O4 123.9(2) . . ?
O3 C2 C6 118.2(2) . . ?
O4 C2 C6 117.8(2) . . ?
C8 C3 C4 118.2(2) . . ?
C8 C3 C1 120.7(2) . . ?
C4 C3 C1 121.1(2) . . ?
C5 C4 C3 121.1(2) . . ?
C5 C4 H4 119.4 . . ?
C3 C4 H4 119.4 . . ?
C4 C5 C6 121.0(2) . . ?
C4 C5 H5 119.5 . . ?
C6 C5 H5 119.5 . . ?
C5 C6 C7 117.9(2) . . ?
C5 C6 C2 122.6(2) . . ?
C7 C6 C2 119.5(2) . . ?
C8 C7 C6 121.0(2) . . ?
C8 C7 H7 119.5 . . ?
C6 C7 H7 119.5 . . ?
C3 C8 C7 120.9(2) . . ?
C3 C8 H8 119.6 . . ?
C7 C8 H8 119.6 . . ?
N1 C9 C10 113.2(2) . . ?
N1 C9 H9A 108.9 . . ?
C10 C9 H9A 108.9 . . ?
N1 C9 H9B 108.9 . . ?
C10 C9 H9B 108.9 . . ?
H9A C9 H9B 107.7 . . ?
C9 C10 C11 112.9(2) . . ?
C9 C10 H10A 109.0 . . ?
C11 C10 H10A 109.0 . . ?
C9 C10 H10B 109.0 . . ?
C11 C10 H10B 109.0 . . ?
H10A C10 H10B 107.8 . . ?
C10 C11 C12 114.1(2) . . ?
C10 C11 H11A 108.7 . . ?
C12 C11 H11A 108.7 . . ?
C10 C11 H11B 108.7 . . ?
C12 C11 H11B 108.7 . . ?
H11A C11 H11B 107.6 . . ?
C13 C12 C11 113.2(2) . . ?
C13 C12 H12A 108.9 . . ?
C11 C12 H12A 108.9 . . ?
C13 C12 H12B 108.9 . . ?
C11 C12 H12B 108.9 . . ?
H12A C12 H12B 107.7 . . ?
N2 C13 C12 111.7(2) . . ?
N2 C13 H13A 109.3 . . ?
C12 C13 H13A 109.3 . . ?
N2 C13 H13B 109.3 . . ?
C12 C13 H13B 109.3 . . ?
H13A C13 H13B 107.9 . . ?
loop_
_geom_bond_atom_site_label_1
_geom_bond_atom_site_label_2
_geom_bond_distance
_geom_bond_site_symmetry_2
_geom_bond_publ_flag
N1 C9 1.477(3) . ?
N1 H1A 0.8900 . ?
N1 H1B 0.8900 . ?
N1 H1C 0.8900 . ?
N2 C13 1.480(3) . ?
N2 H2A 0.8900 . ?
N2 H2B 0.8900 . ?
N2 H2C 0.8900 . ?
O1 C1 1.269(3) . ?
O2 C1 1.243(3) . ?
O3 C2 1.244(3) . ?
O4 C2 1.261(3) . ?
C1 C3 1.508(3) . ?
C2 C6 1.511(3) . ?
C3 C8 1.382(3) . ?
C3 C4 1.385(3) . ?
C4 C5 1.377(4) . ?
C4 H4 0.9300 . ?
C5 C6 1.388(3) . ?
C5 H5 0.9300 . ?
C6 C7 1.389(3) . ?
C7 C8 1.383(3) . ?
C7 H7 0.9300 . ?
C8 H8 0.9300 . ?
C9 C10 1.499(3) . ?
C9 H9A 0.9700 . ?
C9 H9B 0.9700 . ?
C10 C11 1.506(3) . ?
C10 H10A 0.9700 . ?
C10 H10B 0.9700 . ?
C11 C12 1.517(3) . ?
C11 H11A 0.9700 . ?
C11 H11B 0.9700 . ?
C12 C13 1.507(3) . ?
C12 H12A 0.9700 . ?
C12 H12B 0.9700 . ?
C13 H13A 0.9700 . ?
C13 H13B 0.9700 . ?
loop_
_geom_torsion_atom_site_label_1
_geom_torsion_atom_site_label_2
_geom_torsion_atom_site_label_3
_geom_torsion_atom_site_label_4
_geom_torsion
_geom_torsion_site_symmetry_1
_geom_torsion_site_symmetry_2
_geom_torsion_site_symmetry_3
_geom_torsion_site_symmetry_4
_geom_torsion_publ_flag
O2 C1 C3 C8 2.7(4) . . . . ?
O1 C1 C3 C8 -176.6(2) . . . . ?
O2 C1 C3 C4 -178.3(3) . . . . ?
O1 C1 C3 C4 2.4(4) . . . . ?
C8 C3 C4 C5 -0.3(4) . . . . ?
C1 C3 C4 C5 -179.3(2) . . . . ?
C3 C4 C5 C6 -0.3(4) . . . . ?
C4 C5 C6 C7 -0.2(4) . . . . ?
C4 C5 C6 C2 177.2(2) . . . . ?
O3 C2 C6 C5 173.4(2) . . . . ?
O4 C2 C6 C5 -10.7(3) . . . . ?
O3 C2 C6 C7 -9.3(3) . . . . ?
O4 C2 C6 C7 166.7(2) . . . . ?
C5 C6 C7 C8 1.3(4) . . . . ?
C2 C6 C7 C8 -176.2(2) . . . . ?
C4 C3 C8 C7 1.4(4) . . . . ?
C1 C3 C8 C7 -179.6(2) . . . . ?
C6 C7 C8 C3 -2.0(4) . . . . ?
N1 C9 C10 C11 -177.7(2) . . . . ?
C9 C10 C11 C12 173.6(2) . . . . ?
C10 C11 C12 C13 -167.5(2) . . . . ?
C11 C12 C13 N2 75.2(3) . . . . ?
loop_
_publcif_info_tables.block_id
_publcif_info_tables.reference_item
{993fecd1-a9b8-4862-8328-1a2a2829c84c} '_publcif_info_datablock.publ_exptl'
loop_
_publcif_info_cif.paper_type
CB
loop_
_publcif_info_datablock.id
_publcif_info_datablock.publ_exptl
_publcif_info_datablock.publ_geom
_publcif_info_datablock.structure
{993fecd1-a9b8-4862-8328-1a2a2829c84c} ? ? ?
{b6ef982a-b86a-4f90-9861-ccf2d7492dd8} y y y
{fd309286-c23f-4eb7-a943-be4885135628} y y y
loop_
_publcif_info_exptl_table_extra_item
sin_theta_over_lambda_max
loop_
_publcif_info_exptl_table_header_item
?

_cod_database_fobs_code 2108620
