#------------------------------------------------------------------------------
#$Date: 2022-01-01 06:16:20 +0200 (Sat, 01 Jan 2022) $
#$Revision: 271664 $
#$URL: file:///home/coder/svn-repositories/cod/cif/2/10/89/2108903.cif $
#------------------------------------------------------------------------------
#
# This file is available in the Crystallography Open Database (COD),
# http://www.crystallography.net/. The original data for this entry
# were provided by IUCr Journals, http://journals.iucr.org/.
#
# The file may be used within the scientific community so long as
# proper attribution is given to the journal article from which the
# data were obtained.
#
data_2108903
loop_
_publ_author_name
'Garkul, Ilia'
'Zadesenets, Andrey'
'Filatov, Evgeny'
'Baidina, Iraida'
'Tkachev, Sergey'
'Samsonenko, Denis'
'Korenev, Sergey'
_publ_section_title
;
 Oxonium <i>trans</i>-bis(oxalato)rhodate and related sodium salts: a rare
 example of crystalline complex acid
;
_journal_issue                   6
_journal_name_full               'Acta Crystallographica Section B'
_journal_page_first              1048
_journal_page_last               1054
_journal_paper_doi               10.1107/S205252062101115X
_journal_volume                  77
_journal_year                    2021
_chemical_formula_sum            'C4 H8 Na O12 Rh'
_chemical_formula_weight         374.00
_space_group_crystal_system      triclinic
_space_group_IT_number           2
_space_group_name_Hall           '-P 1'
_space_group_name_H-M_alt        'P -1'
_atom_sites_solution_hydrogens   difmap
_atom_sites_solution_primary     dual
_atom_sites_solution_secondary   difmap
_audit_creation_method           SHELXL-2018/3
_cell_angle_alpha                95.557(3)
_cell_angle_beta                 98.352(3)
_cell_angle_gamma                98.065(3)
_cell_formula_units_Z            2
_cell_length_a                   6.2055(3)
_cell_length_b                   7.8091(3)
_cell_length_c                   10.7762(4)
_cell_measurement_reflns_used    2269
_cell_measurement_temperature    295(2)
_cell_measurement_theta_max      28.38
_cell_measurement_theta_min      2.63
_cell_volume                     507.88(4)
_computing_cell_refinement       'CrysAlisPro 1.171.38.46 (Rigaku OD, 2015)'
_computing_data_collection       'CrysAlisPro 1.171.38.46 (Rigaku OD, 2015)'
_computing_data_reduction        'CrysAlisPro 1.171.38.46 (Rigaku OD, 2015)'
_computing_molecular_graphics    'ShelXle (H\"ubschle, 2011)'
_computing_publication_material  'CIFTAB (Sheldrick, 2015)'
_computing_structure_refinement  'SHELXL-2018 (Sheldrick, 2015)'
_computing_structure_solution    'SHELXT-2018 (Sheldrick, 2015)'
_diffrn_ambient_temperature      295(2)
_diffrn_detector                 'CCD plate'
_diffrn_detector_area_resol_mean 10.6
_diffrn_detector_type            AtlasS2
_diffrn_measured_fraction_theta_full 0.998
_diffrn_measured_fraction_theta_max 0.822
_diffrn_measurement_device       'four-circle diffractometer'
_diffrn_measurement_device_type  'New Xcalibur, AtlasS2'
_diffrn_measurement_method       '\w scans'
_diffrn_radiation_monochromator  graphite
_diffrn_radiation_probe          x-ray
_diffrn_radiation_source         'fine-focus sealed tube'
_diffrn_radiation_type           MoK\a
_diffrn_radiation_wavelength     0.71073
_diffrn_reflns_av_R_equivalents  0.0257
_diffrn_reflns_av_unetI/netI     0.0454
_diffrn_reflns_Laue_measured_fraction_full 0.998
_diffrn_reflns_Laue_measured_fraction_max 0.822
_diffrn_reflns_limit_h_max       7
_diffrn_reflns_limit_h_min       -7
_diffrn_reflns_limit_k_max       8
_diffrn_reflns_limit_k_min       -9
_diffrn_reflns_limit_l_max       12
_diffrn_reflns_limit_l_min       -13
_diffrn_reflns_number            3910
_diffrn_reflns_point_group_measured_fraction_full 0.998
_diffrn_reflns_point_group_measured_fraction_max 0.822
_diffrn_reflns_theta_full        25.500
_diffrn_reflns_theta_max         28.957
_diffrn_reflns_theta_min         1.924
_diffrn_source                   'sealed X-ray tube'
_exptl_absorpt_coefficient_mu    1.791
_exptl_absorpt_correction_T_max  1.00000
_exptl_absorpt_correction_T_min  0.95703
_exptl_absorpt_correction_type   multi-scan
_exptl_absorpt_process_details
;
CrysAlisPro 1.171.38.46 (Rigaku Oxford Diffraction, 2015)
Empirical absorption correction using spherical harmonics,
implemented in SCALE3 ABSPACK scaling algorithm.
;
_exptl_crystal_colour            orange
_exptl_crystal_density_diffrn    2.446
_exptl_crystal_description       plate
_exptl_crystal_F_000             368
_exptl_crystal_size_max          0.19
_exptl_crystal_size_mid          0.17
_exptl_crystal_size_min          0.05
_refine_diff_density_max         0.515
_refine_diff_density_min         -0.736
_refine_diff_density_rms         0.106
_refine_ls_extinction_method     none
_refine_ls_goodness_of_fit_ref   1.056
_refine_ls_hydrogen_treatment    refxyz
_refine_ls_matrix_type           full
_refine_ls_number_parameters     187
_refine_ls_number_reflns         2214
_refine_ls_number_restraints     13
_refine_ls_restrained_S_all      1.056
_refine_ls_R_factor_all          0.0307
_refine_ls_R_factor_gt           0.0267
_refine_ls_shift/su_max          0.001
_refine_ls_shift/su_mean         0.000
_refine_ls_structure_factor_coef Fsqd
_refine_ls_weighting_details
'w=1/[\s^2^(Fo^2^)+(0.0217P)^2^+0.0121P] where P=(Fo^2^+2Fc^2^)/3'
_refine_ls_weighting_scheme      calc
_refine_ls_wR_factor_gt          0.0570
_refine_ls_wR_factor_ref         0.0591
_reflns_Friedel_coverage         0.000
_reflns_number_gt                2024
_reflns_number_total             2214
_reflns_threshold_expression     'I > 2\s(I)'
_cod_data_source_file            yh5016sup1.cif
_cod_data_source_block           NaRh-2
_cod_database_code               2108903
_publcif_datablock.id            {181e1b82-4d9a-40b1-87c8-764a472aabf2}
_shelx_shelxl_version_number     2018/3
_shelx_space_group_comment
;
The symmetry employed for this shelxl refinement is uniquely defined
by the following loop, which should always be used as a source of
symmetry information in preference to the above space-group names.
They are only intended as comments.
;
_shelx_estimated_absorpt_t_min   0.727
_shelx_estimated_absorpt_t_max   0.916
_shelx_res_file
;
TITL z476 in P-1; 295K; Xcalibur
    z476.res
    created by SHELXL-2018/3 at 13:47:59 on 28-Jun-2021
CELL  0.71073   6.2055   7.8091  10.7762   95.557   98.352   98.065
ZERR    2.000   0.0003   0.0003   0.0004    0.003    0.003    0.003
LATT  1
SFAC C H  O  RH Na
UNIT 8 16 24 2 2
 
L.S. 6
BOND $H
FMAP 2
PLAN 5
 
LIST 4
TEMP 22
 
OMIT 0
 
OMIT 1 2 1
OMIT 3 5 9
OMIT -4 5 5
OMIT 0 -1 1
 
ACTA 51
 
SIZE 0.19 0.17 0.05
 
DFIX 0.85 0.01 O1M H11M  O1M H12M  O2M H21M  O2M H22M =
               O3M H31M  O3M H32M  O4M H41M  O4M H42M
DFIX 1.38 0.02 H11M H12M  H21M H22M  H31M H32M  H41M H42M
 
EQIV $1 1-x, 2-y, 1-z
 
DFIX 2.20 0.01 H21M H42M_$1
 
WGHT    0.021700    0.012100
FVAR       3.92889
RH1   4    0.255572    0.697516    0.767331    11.00000    0.01418    0.01987 =
         0.01441    0.00492    0.00346    0.00590
NA1   5    0.833895    0.798856    0.424973    11.00000    0.03015    0.04143 =
         0.03420    0.01045    0.01555    0.00384
O1M   3    0.041061    0.474309    0.699574    11.00000    0.01693    0.02292 =
         0.01840    0.00756    0.00316    0.00377
H11M  2    0.000887    0.431019    0.762784    11.00000   -1.20000
H12M  2   -0.062741    0.511542    0.656020    11.00000   -1.20000
O2M   3    0.476937    0.913783    0.824358    11.00000    0.02839    0.02178 =
         0.05745    0.00362   -0.01423    0.00406
H21M  2    0.450695    1.014951    0.820078    11.00000   -1.20000
H22M  2    0.563727    0.907802    0.890300    11.00000   -1.20000
O3M   3    1.121902    0.987808    0.376726    11.00000    0.02816    0.03342 =
         0.02655    0.01441    0.00595    0.01217
H31M  2    1.102176    1.019249    0.303706    11.00000   -1.20000
H32M  2    1.226224    0.930150    0.378727    11.00000   -1.20000
O4M   3    0.643712    0.780593    0.198766    11.00000    0.03012    0.03016 =
         0.02734    0.00667    0.01120    0.00594
H41M  2    0.537644    0.697144    0.192485    11.00000   -1.20000
H42M  2    0.709469    0.758860    0.136330    11.00000   -1.20000
O1    3    0.279417    0.635674    0.944451    11.00000    0.02425    0.03208 =
         0.01740    0.00843    0.00256    0.01210
O2    3    0.004943    0.811141    0.818524    11.00000    0.02104    0.02793 =
         0.01626    0.00370    0.00569    0.01185
O3    3   -0.183412    0.835370    0.977444    11.00000    0.02055    0.03923 =
         0.02150    0.00241    0.00841    0.00998
O4    3    0.134239    0.681531    1.118118    11.00000    0.03691    0.04942 =
         0.01781    0.01330    0.00787    0.00638
O5    3    0.508634    0.586705    0.718285    11.00000    0.01657    0.02664 =
         0.02087    0.00799    0.00733    0.01004
O6    3    0.234321    0.766008    0.591339    11.00000    0.01771    0.03058 =
         0.01998    0.01145    0.00729    0.01241
O7    3    0.448725    0.791127    0.443245    11.00000    0.02404    0.03039 =
         0.01994    0.01093    0.00855    0.00994
O8    3    0.726565    0.603228    0.571509    11.00000    0.01493    0.02133 =
         0.02015    0.00423    0.00460    0.00620
C1    1    0.139587    0.693202    1.006429    11.00000    0.02069    0.02291 =
         0.01740    0.00610    0.00039    0.00116
C2    1   -0.031060    0.788197    0.930432    11.00000    0.01970    0.01736 =
         0.01857   -0.00026    0.00343    0.00072
C3    1    0.564031    0.636857    0.616472    11.00000    0.01677    0.01572 =
         0.01703   -0.00120    0.00060    0.00355
C4    1    0.405139    0.742331    0.542027    11.00000    0.01839    0.01812 =
         0.01805    0.00335    0.00296    0.00549
HKLF 4
 
 
 
 
REM  z476 in P-1; 295K; Xcalibur
REM wR2 = 0.0591, GooF = S = 1.056, Restrained GooF = 1.056 for all data
REM R1 = 0.0267 for 2024 Fo > 4sig(Fo) and 0.0307 for all 2214 data
REM 187 parameters refined using 13 restraints
 
END
 
WGHT      0.0217      0.0121
 
REM Highest difference peak  0.515,  deepest hole -0.736,  1-sigma level  0.106
Q1    1   0.4168  0.9176  0.8825  11.00000  0.05    0.52
Q2    1   0.3039  0.7459  0.8688  11.00000  0.05    0.46
Q3    1   0.2857  0.5978  0.8508  11.00000  0.05    0.44
Q4    1   0.4252  0.9353  0.7806  11.00000  0.05    0.40
Q5    1   0.0483  0.7438  0.9661  11.00000  0.05    0.40
;
_shelx_res_checksum              97941
_shelx_hkl_file
;
   0   0   1 616.352 58.6384   1
   0   0  -2 37356.6 1046.42   1
   0   0   2 35392.3 1033.82   1
   0   0  -3 8510.97 412.391   1
   0   0   3 8514.20 408.778   1
   0   0   4 33558.1 1136.64   1
   0   0   4 34074.7 926.926   2
   0   0  -4 33987.2 1148.11   1
   0   0   5 84158.6 2127.96   2
   0   0   5 82634.6 2427.30   1
   0   0  -5 84489.9 2456.00   1
   0   0   6 55102.9 1484.88   2
   0   0   6 54016.2 1819.80   1
   0   0  -6 57831.1 1868.57   1
   0   0   7 576.756 83.1847   2
   0   0  -7 561.569 157.905   1
   0   0   7 425.313 126.381   1
   0   0   8 165.726 48.8504   2
   0   0  -8 335.804 129.509   1
   0   0   9 13915.7 519.473   2
   0   0  -9 13771.4 896.255   1
   0   0 -10 828.831 231.716   1
   0   0  10 1071.65 115.496   2
   0   0 -11 8442.44 777.658   1
   0   0 -12 175.669 149.729   1
   0   0 -13 8172.16 866.359   1
   0   1 -13 196.464 157.080   1
   0   1 -12 16146.8 1182.43   1
   0   1 -11-29.4732 99.6771   1
   0   1 -10 4900.31 569.943   1
   0  -1  10 5502.23 317.681   2
   0  -1   9 2579.14 210.260   2
   0   1  -9 2300.30 355.950   1
   0   1  -8 10604.6 732.277   1
   0  -1   8 9687.64 365.161   3
   0  -1   7 9968.91 385.596   3
   0  -1   7 9940.82 646.051   1
   0   1  -7 10242.8 672.102   1
   0   1  -6 100287. 2915.95   1
   0   1  -6 97369.1 2500.77   3
   0  -1   6 99258.4 2486.28   3
   0  -1   6 95116.5 2852.39   1
   0  -1   5 103307. 2581.16   3
   0   1  -5 101016. 2594.23   3
   0   1  -5 106842. 2921.78   1
   0  -1   5 99207.5 2872.19   1
   0   1  -4 30612.6 1050.64   1
   0  -1   4 28129.0 1021.24   1
   0   1  -4 28728.9 861.280   3
   0  -1   4 29543.7 851.790   3
   0  -1   3 72763.1 1852.09   3
   0   1  -3 71888.8 1857.92   3
   0   1  -3 73711.7 1990.38   1
   0  -1   3 68952.0 1970.35   1
   0  -1   2 33909.6 997.632   1
   0   1  -2 36222.0 1020.54   1
   0   1  -2 34237.1 968.468   3
   0  -1   2 34844.0 966.854   3
   0   1  -1 102973. 2486.40   1
   0   1  -1 104539. 2529.95   3
   0  -1   1 102409. 2525.94   3
   0  -1   1 98043.4 2482.65   1
   0  -1   0 18256.6 544.892   2
   0  -1   0 17951.2 551.090   3
   0   1   0 18072.8 548.732   3
   0   1   0 18522.1 549.342   2
   0  -1  -1 120217. 2888.55   2
   0   1   1 120041. 2862.04   1
   0   1   1 116014. 2895.28   2
   0  -1  -1 116965. 2861.99   1
   0   1   2 2931.66 158.566   2
   0  -1  -2 3064.01 161.115   2
   0   1   2 2891.61 184.327   1
   0  -1  -2 2937.38 186.395   1
   0  -1  -3 17813.9 676.507   1
   0  -1  -3 18545.6 567.045   2
   0   1   3 18841.9 576.624   2
   0   1   3 18772.8 678.163   1
   0   1   4 8704.77 470.511   1
   0  -1  -4 8962.94 479.883   1
   0   1   4 9765.39 364.908   2
   0  -1  -4 9521.14 357.721   2
   0   1   5 20044.1 629.539   2
   0  -1  -5 19405.0 520.903   3
   0  -1  -5 20166.6 847.918   1
   0   1   5 19255.4 825.190   1
   0  -1  -5 18511.3 529.667   3
   0  -1  -6 9650.30 595.220   1
   0   1   6 9473.20 390.626   2
   0   1   6 9519.64 581.853   1
   0   1   7 7833.36 355.496   2
   0  -1  -7 8180.86 589.109   1
   0   1   7 7809.18 560.319   1
   0   1   8 2341.13 178.211   2
   0  -1  -8 2164.10 308.090   1
   0   1   9 14755.1 542.690   2
   0  -1  -9 14437.5 933.681   1
   0  -1 -10 2254.76 386.382   1
   0  -1 -11 8706.68 794.606   1
   0  -1 -12 17073.5 1201.73   1
   0   2 -12 965.633 287.978   1
   0  -2  11 21813.2 864.102   2
   0   2 -11 22408.2 1345.07   1
   0  -2  10 244.568 65.4396   3
   0   2 -10 514.594 219.628   1
   0   2  -9 35886.9 1577.02   1
   0  -2   9 33794.1 1082.09   3
   0  -2   8 1009.42 134.207   3
   0   2  -8 1032.38 216.302   1
   0  -2   7 34636.0 1362.84   1
   0   2  -7 32358.0 1347.56   1
   0  -2   7 32284.6 1059.99   3
   0   2  -6 16278.0 801.727   1
   0  -2   6 14470.1 755.425   1
   0  -2   6 14144.3 590.571   3
   0  -2   5 180103. 4597.61   3
   0   2  -5 190041. 4817.70   1
   0   2  -5 183301. 4618.28   3
   0  -2   5 179772. 4785.59   1
   0  -2   4 7726.41 402.111   3
   0   2  -4 9307.36 489.399   1
   0   2  -4 8752.14 429.685   3
   0  -2   4 8936.85 474.203   1
   0  -2   3 69217.8 1952.36   3
   0   2  -3 73373.4 1978.78   1
   0   2  -3 73976.3 1975.08   3
   0  -2   3 67946.0 1949.81   1
   0   2  -2 39359.0 1113.26   1
   0  -2   2 37768.7 1163.37   3
   0  -2   2 37468.4 1095.39   1
   0   2  -2 38815.9 1178.62   3
   0  -2   1 61464.1 1751.62   3
   0  -2   1 62621.5 1748.37   2
   0   2  -1 60800.4 1753.51   3
   0   2  -1 66051.5 1604.71   1
   0  -2   1 63044.6 1605.43   1
   0  -2   0 173944. 4434.35   3
   0  -2   0 182377. 4430.99   2
   0  -2  -1 20326.1 684.655   2
   0  -2  -1 18963.8 557.888   1
   0   2   1 20319.2 680.803   2
   0  -2  -1 18470.9 672.107   3
   0  -2  -2 18055.4 650.414   3
   0  -2  -2 18743.5 616.098   1
   0   2   2 18527.2 657.541   2
   0  -2  -2 19491.9 657.462   2
   0  -2  -3 12764.7 505.458   3
   0  -2  -3 13584.0 519.138   2
   0   2   3 13287.1 526.494   2
   0  -2  -3 13337.8 547.105   1
   0   2   3 13234.8 537.583   1
   0  -2  -4 66870.3 1953.27   1
   0  -2  -4 64538.7 1798.31   3
   0   2   4 67630.0 1848.81   2
   0  -2  -4 69077.9 1833.46   2
   0   2   4 69110.6 1955.65   1
   0   2   5 184.662 52.6449   2
   0   2   5 302.508 82.0361   1
   0  -2  -5 265.045 107.559   1
   0  -2  -5 148.186 47.9733   3
   0  -2  -5 265.770 73.4954   2
   0  -2  -6 49131.8 1431.84   2
   0   2   6 51699.2 1706.93   1
   0  -2  -6 48219.1 1337.10   3
   0  -2  -6 50605.1 1709.98   1
   0   2   6 50656.8 1453.80   2
   0  -2  -7 1489.10 101.677   3
   0  -2  -7 1374.49 95.1876   3
   0   2   7 1387.87 154.310   2
   0   2   7 1478.98 247.376   1
   0  -2  -7 1241.11 231.093   1
   0   2   8 10580.9 481.349   2
   0  -2  -8 9458.44 699.493   1
   0   2   9 11013.4 491.752   2
   0  -2  -9 11707.8 834.595   1
   0  -2 -10 11835.0 881.272   1
   0  -2 -11 589.338 215.902   1
   0  -2 -12 9577.59 889.497   1
   0   3 -12 9559.92 881.287   1
   0  -3  11 6841.86 475.019   2
   0   3 -11 6600.37 693.125   1
   0   3 -10 11868.3 896.224   1
   0  -3  10 11445.7 584.418   3
   0  -3  10 12059.9 658.168   2
   0  -3   9 808.528 140.396   3
   0   3  -9 733.742 204.157   1
   0  -3   8 75176.5 2262.29   3
   0   3  -8 84598.0 2689.71   1
   0  -3   7 4974.29 441.206   1
   0  -3   7 4322.13 337.229   3
   0   3  -7 3920.76 414.397   1
   0  -3   6 50648.3 1618.27   3
   0   3  -6 51874.4 1772.87   1
   0  -3   6 50185.5 1733.02   1
   0  -3   5 20.2812 56.3008   3
   0  -3   5-3.90149 43.9658   1
   0   3  -5 41.6102 61.9871   1
   0  -3   4 8042.21 465.667   3
   0  -3   4 7365.60 436.615   1
   0   3  -4 7682.92 449.491   1
   0  -3   3 15158.3 626.019   1
   0  -3   3 16634.1 716.709   3
   0   3  -3 16566.6 720.093   3
   0   3  -3 16364.8 639.860   1
   0  -3   2 32403.7 1120.50   2
   0   3  -2 32648.2 970.421   1
   0  -3   2 33116.8 1137.71   3
   0  -3   2 32150.7 975.903   1
   0  -3   1 370.746 100.427   2
   0  -3   1 408.875 103.461   3
   0  -3   1 401.087 57.5625   1
   0  -3   0 22583.9 888.756   3
   0  -3   0 24044.0 643.698   1
   0  -3   0 24471.8 892.471   2
   0  -3  -1 8001.49 450.354   3
   0  -3  -1 8107.15 292.129   1
   0  -3  -1 8035.81 438.883   2
   0   3   1 7351.86 433.025   2
   0  -3  -2 24421.6 884.724   2
   0  -3  -2 24677.9 765.886   1
   0  -3  -2 24325.3 901.814   3
   0   3   2 23907.2 902.892   2
   0  -3  -3 22977.4 842.877   2
   0  -3  -3 20856.3 766.251   1
   0  -3  -3 21517.7 828.641   3
   0   3   3 22577.6 845.538   2
   0   3   4 12226.5 574.188   2
   0  -3  -4 12490.1 565.770   2
   0  -3  -4 11323.5 554.945   1
   0  -3  -4 11662.4 549.391   3
   0  -3  -5 14082.1 607.194   2
   0   3   5 12902.7 603.810   2
   0  -3  -5 13036.6 576.615   3
   0  -3  -5 13536.1 668.869   1
   0  -3  -6 3001.23 233.383   3
   0  -3  -6 2797.15 308.255   1
   0  -3  -6 2701.32 243.261   2
   0   3   6 2987.73 260.964   2
   0  -3  -7 39880.0 1279.15   2
   0  -3  -7 37712.1 1514.80   1
   0   3   7 39483.0 1302.80   2
   0  -3  -7 39296.2 1186.54   3
   0  -3  -8 4573.67 471.388   1
   0   3   8 5141.71 356.628   2
   0  -3  -8 4908.30 335.020   2
   0  -3  -8 4980.54 257.781   3
   0  -3  -9 18191.9 1078.19   1
   0  -3 -10 107.141 99.3162   1
   0  -3 -11 7983.79 761.734   1
   0  -3 -12 5662.34 680.605   1
   0   4 -12 11965.0 992.745   1
   0   4 -11 6964.31 718.825   1
   0  -4  11 7821.60 566.056   2
   0  -4  10 16229.9 857.675   2
   0   4 -10 15889.3 1050.97   1
   0   4  -9 10088.2 767.403   1
   0  -4   9 10726.7 660.869   2
   0  -4   9 8818.48 577.336   3
   0  -4   8 15578.4 803.022   3
   0   4  -8 18930.7 1008.36   1
   0  -4   8 16556.2 851.862   2
   0  -4   7 12814.8 723.416   2
   0  -4   7 12369.6 702.645   3
   0   4  -7 14272.0 814.949   1
   0  -4   7 13726.4 784.042   1
   0  -4   6 2128.60 268.947   2
   0  -4   6 2121.21 264.191   3
   0   4  -6 2128.89 272.588   1
   0  -4   6 1853.49 252.534   1
   0   4  -5 54357.2 1737.74   1
   0  -4   5 54139.4 1779.63   3
   0  -4   5 51811.6 1711.26   1
   0  -4   5 51586.4 1766.22   2
   0  -4   4 19764.3 797.355   1
   0  -4   4 19655.0 897.278   3
   0  -4   4 19082.4 881.118   2
   0   4  -4 19526.0 800.880   1
   0   4  -3 51912.9 1532.46   1
   0  -4   3 54001.4 1763.06   3
   0  -4   3 53107.3 1542.59   1
   0  -4   3 51352.3 1726.57   2
   0  -4   2 6237.36 445.567   2
   0  -4   2 6483.36 462.987   3
   0  -4   2 6720.34 319.964   1
   0   4  -2 5864.26 298.248   1
   0  -4   1 15006.3 742.710   3
   0  -4   1 14708.4 724.329   2
   0  -4   1 14773.8 484.412   1
   0  -4   0 9908.46 585.489   3
   0  -4   0 9329.65 568.495   2
   0  -4   0 11132.9 345.444   1
   0  -4  -1 79416.4 2396.65   3
   0  -4  -1 81080.5 2381.51   2
   0  -4  -1 80409.9 2009.80   1
   0  -4  -2 2774.77 287.271   3
   0  -4  -2 2354.29 256.194   2
   0  -4  -2 2552.21 179.349   1
   0  -4  -3 22897.9 944.270   3
   0  -4  -3 21190.9 782.137   1
   0   4   3 23179.1 957.902   2
   0  -4  -3 23838.0 945.888   2
   0   4   4 27249.4 1067.84   2
   0  -4  -4 27330.3 1039.41   2
   0  -4  -4 25878.2 1024.18   3
   0  -4  -4 25111.3 948.713   1
   0  -4  -5 14751.8 720.024   1
   0   4   5 14731.1 737.897   2
   0  -4  -5 16126.9 737.689   2
   0  -4  -5 15065.4 713.328   3
   0  -4  -6 11149.1 665.900   1
   0  -4  -6 11771.1 619.703   2
   0  -4  -6 11393.1 591.268   3
   0   4   6 12252.6 652.388   2
   0  -4  -7 3364.46 374.390   1
   0  -4  -7 3700.78 328.547   2
   0   4   7 4304.47 365.502   2
   0  -4  -7 3450.99 289.853   3
   0  -4  -8 12883.9 644.215   2
   0  -4  -8 11104.7 777.740   1
   0  -4  -8 12208.0 560.542   3
   0  -4  -9-3.76976 40.0526   2
   0  -4  -9-95.0185 123.636   1
   0  -4 -10 9763.44 804.505   1
   0  -4 -11 867.846 250.727   1
   0  -4 -12 7204.94 769.990   1
   0   5 -12 271.762 227.160   1
   0  -5  11 10937.9 745.926   2
   0   5 -11 11623.8 930.730   1
   0   5 -10 1283.34 290.442   1
   0  -5  10 1590.50 273.558   2
   0   5  -9 20774.9 1154.96   1
   0  -5   9 20024.3 1042.79   2
   0   5  -8 26884.1 1286.25   1
   0  -5   8 27128.8 1238.62   2
   0   5  -7 9479.20 658.547   1
   0  -5   7 10236.0 686.483   2
   0  -5   7 9679.45 652.610   1
   0   5  -6 360.373 127.533   1
   0  -5   6 342.008 136.720   3
   0  -5   6 499.357 127.419   1
   0  -5   6 394.525 131.164   2
   0  -5   5 539.170 144.008   3
   0  -5   5 615.855 135.154   1
   0   5  -5 522.774 127.912   1
   0  -5   5 563.908 141.620   2
   0  -5   4 44760.7 1625.92   3
   0  -5   4 40425.3 1563.87   2
   0  -5   4 41405.5 1366.37   1
   0   5  -4 41996.3 1373.33   1
   0  -5   3 5964.25 489.919   3
   0   5  -3 4920.79 309.109   1
   0  -5   3 5094.83 442.231   2
   0  -5   3 5197.43 320.917   1
   0  -5   2 49702.4 1790.59   2
   0  -5   2 53744.4 1852.25   3
   0  -5   2 51723.0 1435.85   1
   0  -5   1 22153.2 1049.16   3
   0  -5   1 23576.6 681.369   1
   0  -5   1 22698.7 1046.63   2
   0  -5   0 2410.20 300.354   3
   0  -5   0 2329.17 295.695   2
   0  -5  -1 4419.15 185.380   1
   0  -5  -1 4030.48 392.822   3
   0  -5  -1 3410.92 358.529   2
   0  -5  -1 4456.82 190.113   1
   0  -5  -2 43003.6 1546.22   2
   0  -5  -2 42702.9 1189.30   1
   0  -5  -2 40652.9 1552.37   3
   0  -5  -3 1389.67 222.673   2
   0  -5  -3 867.837 185.758   3
   0  -5  -3 1174.53 139.100   1
   0  -5  -4 18619.5 759.600   1
   0  -5  -4 18853.5 900.366   2
   0  -5  -4 17765.4 891.576   3
   0  -5  -5 71.0386 73.3780   2
   0  -5  -5 57.0193 82.5204   3
   0  -5  -5 117.998 85.5250   1
   0  -5  -6 8599.13 567.253   1
   0  -5  -6 8770.23 573.831   2
   0  -5  -6 7151.03 520.053   3
   0  -5  -7 9507.37 605.567   2
   0  -5  -7 9471.14 578.393   3
   0  -5  -7 9574.43 658.858   1
   0  -5  -8 12476.3 702.947   2
   0  -5  -8 11314.5 772.705   1
   0  -5  -9 9204.00 736.602   1
   0  -5 -10 1277.47 285.588   1
   0  -5 -11 7450.36 748.033   1
   0   6 -12 4195.50 579.412   1
   0   6 -11 39.8763 140.691   1
   0  -6  11 12.6873 98.5976   2
   0  -6  10 12585.7 870.502   2
   0   6 -10 14599.2 994.195   1
   0  -6   9 799.715 201.821   2
   0   6  -9 961.015 235.966   1
   0  -6   8 30997.1 1460.98   2
   0   6  -8 35158.0 1501.18   1
   0  -6   7 826.724 193.695   2
   0   6  -7 1162.19 234.706   1
   0  -6   7 1145.08 220.112   1
   0  -6   6 6709.91 499.210   1
   0  -6   6 6582.33 579.267   2
   0   6  -6 6817.22 504.437   1
   0  -6   5 8999.71 533.812   1
   0  -6   5 8234.42 648.819   2
   0   6  -5 8652.86 528.420   1
   0  -6   4 30205.1 1361.19   2
   0  -6   4 30114.7 1072.41   1
   0  -6   3 28706.7 1324.18   2
   0  -6   3 30268.9 987.945   1
   0  -6   2 2111.74 307.264   2
   0  -6   2 1926.55 151.552   1
   0  -6   1 5945.34 530.238   2
   0  -6   0 4322.43 443.051   2
   0  -6  -1 24712.1 1163.08   2
   0  -6  -2 1046.10 91.7723   1
   0  -6  -2 1082.68 222.951   2
   0  -6  -3 11114.1 733.044   2
   0  -6  -3 11991.4 491.336   1
   0  -6  -4 3984.48 299.401   1
   0  -6  -4 4125.40 426.291   2
   0  -6  -5 17784.3 795.469   1
   0  -6  -5 17025.3 938.081   2
   0  -6  -6 1407.73 249.141   2
   0  -6  -6 1352.48 219.554   1
   0  -6  -7 12015.2 728.684   1
   0  -6  -7 10676.7 718.625   2
   0  -6  -8 1225.60 237.366   1
   0  -6  -8 1125.85 220.800   2
   0  -7  11 5958.83 633.340   2
   0   7 -11 5475.87 620.578   1
   0   7 -10 64.7922 120.025   1
   0  -7  10 170.763 148.107   2
   0  -7   9 17612.1 1118.05   2
   0   7  -9 18235.5 1063.85   1
   0   7  -8 1065.51 220.765   1
   0  -7   8 1058.93 263.083   2
   0   7  -7 11425.0 713.903   1
   0  -7   7 9543.82 785.044   2
   0  -7   6 1962.58 259.235   1
   0  -7   6 2674.85 395.214   2
   0   7  -6 2529.86 295.494   1
   0  -7   5 5952.06 595.376   2
   0  -7   5 5653.02 410.369   1
   0  -7   4 9659.81 492.923   1
   0  -7   4 8230.85 711.303   2
   0  -7   3 18288.2 654.569   1
   0  -7   3 18454.6 1093.50   2
   0  -7   2 1147.80 255.296   2
   0  -7   2 1367.25 92.1579   1
   0  -7   1 3652.58 452.589   2
   0  -7   0 1375.17 281.238   2
   0  -7  -1 789.807 234.765   2
   0  -7  -2 21778.3 1160.07   2
   0  -7  -3 12169.0 838.161   2
   0  -7  -4 12361.9 839.763   2
   0  -7  -5 609.505 200.478   2
   0  -7  -6 11669.9 810.421   2
   0  -7  -7-24.4833 121.680   2
   0  -8  10 8419.22 805.870   2
   0  -8   9 5732.61 650.642   2
   0  -8   8 7989.93 774.234   2
   0  -8   7 710.624 231.732   2
   0  -8   6 2113.53 381.376   2
   0  -8   5 783.494 261.578   2
   0  -8   4 21232.4 1273.48   2
   0  -8   3 166.966 109.513   2
   0  -8   2 9447.87 799.829   2
   0  -8   1 1072.57 290.369   2
   0  -8   0 9462.27 790.448   2
   0  -8  -1 10308.3 825.053   2
   0  -8  -2 11293.9 870.354   2
   0  -8  -3 9099.08 770.327   2
   0  -8  -4 3229.93 450.399   2
   0  -8  -5 10558.2 832.402   2
   0  -8  -6 2109.67 364.663   2
   0  -8  -7 1933.04 346.366   2
   0  -9   6 2394.68 438.576   2
   0  -9   5 3521.59 522.068   2
   0  -9   4-88.2156 127.868   2
   0  -9   3 18047.9 1221.85   2
   0  -9   2 522.244 196.907   2
   0  -9   1 13650.2 1033.14   2
   0  -9   0 22.4482 95.3365   2
   0  -9  -1 8957.76 820.655   2
   0  -9  -2 1611.92 343.735   2
   0  -9  -3 11945.8 955.497   2
   0  -9  -4 2004.77 389.346   2
   0  -9  -5 2463.52 422.638   2
   0  -9  -6 1097.73 296.543   2
   1  -9  -5 1267.48 308.557   2
   1  -9  -4 5428.54 628.153   2
   1  -9  -3 239.995 105.560   2
   1  -9  -2 8471.33 791.253   2
   1  -9  -1 1081.21 263.999   2
   1  -9   0 6810.59 709.804   2
   1  -9   1 38.2414 86.6619   2
   1  -9   2 9243.92 831.934   2
   1  -9   3 68.3798 131.468   2
   1  -9   4 5482.70 631.920   2
   1  -9   5 1199.03 307.233   2
   1  -9   6 5023.56 608.025   2
   1  -9   7 4069.08 558.565   2
   1  -8  -8 7082.49 690.375   2
   1  -8  -7 590.288 202.829   2
   1  -8  -6 4374.79 535.585   2
   1  -8  -5 2541.63 401.508   2
   1  -8  -4 7656.99 706.875   2
   1  -8  -3 3369.50 472.709   2
   1  -8  -2 2565.49 403.802   2
   1  -8  -1 7370.89 695.026   2
   1  -8   0 5077.74 575.294   2
   1  -8   1 13122.8 937.035   2
   1  -8   2 3082.53 437.265   2
   1  -8   3 17115.1 1093.00   2
   1  -8   4 286.026 138.915   2
   1  -8   5 19349.7 1179.86   2
   1  -8   6 1064.09 279.565   2
   1  -8   7 16749.6 1096.49   2
   1  -8   8 1991.54 366.170   2
   1  -8   9 6207.61 649.559   2
   1  -8  10 2509.77 417.633   2
   1  -7  -8 959.354 251.979   2
   1  -7  -7 5835.70 572.245   2
   1  -7  -6 1448.66 279.145   2
   1  -7  -5 3604.54 447.612   2
   1  -7  -4 532.404 176.672   2
   1  -7  -3 17082.0 1014.37   2
   1  -7  -2 4674.14 505.395   2
   1  -7  -1 9260.88 720.876   2
   1  -7   0 6463.75 585.589   2
   1  -7   1 3409.56 420.168   2
   1  -7   2 22363.5 1181.15   2
   1  -7   3 9099.35 709.393   2
  -1   7  -4 23602.3 835.581   1
   1  -7   4 20582.7 1161.14   2
  -1   7  -5 5437.58 387.613   1
   1  -7   5 3949.44 472.094   2
   1  -7   6 13967.2 931.153   2
  -1   7  -6 15621.3 789.547   1
  -1   7  -7 33.7689 70.7129   1
   1  -7   7 55.2974 127.975   2
  -1   7  -8 18694.8 1023.17   1
   1  -7   8 15591.9 1008.05   2
  -1   7  -9-18.2427 98.6677   1
   1  -7   9-47.0208 116.201   2
  -1   7 -10 3779.14 498.003   1
   1  -7  10 3429.65 441.777   2
  -1   7 -11 367.511 196.762   1
   1  -6  -9 8563.66 654.093   2
   1  -6  -8 8607.58 661.249   2
   1  -6  -8 8065.19 603.460   1
   1  -6  -7 590.765 168.842   2
   1  -6  -7 939.957 186.286   1
   1  -6  -6 6439.40 440.381   1
   1  -6  -6 6286.59 547.245   2
   1  -6  -5 272.115 68.0927   1
   1  -6  -5 435.182 137.839   2
   1  -6  -4 22636.7 731.603   1
   1  -6  -4 21171.0 1086.36   2
   1  -6  -3 147.895 106.459   2
   1  -6  -2 38840.9 1566.05   2
   1  -6  -1 5686.40 508.686   2
   1  -6   0 74860.4 2474.17   2
   1  -6   1 6505.53 541.062   2
   1  -6   2 12773.4 779.805   2
  -1   6  -3 31637.3 986.181   1
   1  -6   3 30804.0 1348.46   2
  -1   6  -4 13127.2 606.053   1
   1  -6   4 12538.0 792.932   2
  -1   6  -5 36215.5 1282.31   1
   1  -6   5 31708.4 1422.27   2
  -1   6  -6 7815.48 545.428   1
   1  -6   6 6571.79 569.433   2
   1  -6   6 6969.37 501.738   1
   1  -6   7 806.801 186.699   1
  -1   6  -7 512.063 162.270   1
   1  -6   7 677.089 169.865   2
  -1   6  -8-98.8536 112.252   1
   1  -6   8-71.7563 68.2446   2
  -1   6  -9 10097.8 785.672   1
   1  -6   9 10427.1 740.641   2
   1  -6  10 597.929 166.805   2
  -1   6 -10 483.315 208.402   1
  -1   6 -11 8681.70 803.864   1
  -1   6 -12 649.128 256.805   1
   1  -5 -11 1936.84 362.523   1
   1  -5 -10 2730.10 400.080   1
   1  -5  -9 3904.70 403.336   2
   1  -5  -9 3415.79 434.916   1
   1  -5  -8 10425.5 709.279   1
   1  -5  -8 10786.0 688.392   2
   1  -5  -7 14561.2 799.762   1
   1  -5  -7 14428.3 792.653   3
   1  -5  -7 15006.4 822.745   2
   1  -5  -6 3037.95 309.216   1
   1  -5  -6 2961.37 335.723   3
  -1   5   6 2749.07 338.324   2
   1  -5  -6 3086.10 345.903   2
   1  -5  -5 22415.6 1039.15   3
   1  -5  -5 21284.3 1011.53   2
  -1   5   5 22493.5 1058.35   2
   1  -5  -5 22518.6 878.476   1
  -1   5   4 4700.73 429.363   2
   1  -5  -4 4596.13 295.846   1
   1  -5  -4 4376.06 412.744   3
   1  -5  -4 4847.98 426.925   2
   1  -5  -3 64161.9 2172.52   2
   1  -5  -3 68674.7 2236.23   3
  -1   5   3 66242.6 2205.62   2
   1  -5  -3 68958.3 1768.38   1
  -1   5   2 1174.79 212.087   2
   1  -5  -2 1159.08 198.463   2
   1  -5  -2 1043.40 203.856   3
   1  -5  -1 72207.9 2334.62   2
   1  -5  -1 77220.2 2416.40   3
  -1   5   1 73749.2 2362.29   2
  -1   5   0 32.9449 72.0689   2
   1  -5   0-5.32800 60.0194   2
   1  -5   0 98.5363 69.7220   3
  -1   5  -1 16137.8 844.180   2
   1  -5   1 17562.8 892.833   3
   1  -5   1 15327.4 809.385   2
   1  -5   2 1266.18 216.216   2
  -1   5  -2 1442.78 122.507   1
   1  -5   2 1618.06 252.879   3
   1  -5   3 23427.7 1103.56   3
  -1   5  -3 25132.8 843.123   1
   1  -5   3 21247.8 1022.14   2
  -1   5  -4 2259.07 234.293   1
   1  -5   4 2159.16 292.031   3
   1  -5   4 1503.94 244.057   2
   1  -5   4 1893.01 206.291   1
   1  -5   5 14031.0 703.683   1
  -1   5  -5 15843.6 761.597   1
   1  -5   5 15967.0 856.878   3
   1  -5   5 13862.6 785.020   2
   1  -5   6 4772.33 443.391   3
   1  -5   6 4095.43 382.030   1
   1  -5   6 4301.71 413.358   2
  -1   5  -6 4375.43 407.811   1
  -1   5  -7-9.19133 81.2702   1
   1  -5   7 133.266 80.6483   1
   1  -5   7-21.3237 61.0935   3
   1  -5   7 162.589 92.6323   2
   1  -5   8 6271.01 520.976   3
   1  -5   8 6242.60 512.050   2
  -1   5  -8 6254.58 573.242   1
   1  -5   9 11763.2 723.273   2
  -1   5  -9 11001.7 837.568   1
   1  -5  10 10702.5 686.494   2
  -1   5 -10 12273.4 930.172   1
  -1   5 -11 258.254 106.865   1
  -1   5 -12 11100.5 970.714   1
   1  -4 -12-114.375 153.124   1
   1  -4 -11 7664.34 724.655   1
   1  -4 -10 115.404 94.5022   1
   1  -4  -9 21703.3 987.622   2
   1  -4  -9 20853.8 1146.12   1
   1  -4  -9 23337.9 881.712   3
   1  -4  -8 6996.83 464.266   3
   1  -4  -8 6924.00 575.074   1
  -1   4   8 6462.10 502.427   2
   1  -4  -8 6491.40 481.842   2
   1  -4  -7 16614.9 811.876   2
  -1   4   7 16121.1 831.412   1
   1  -4  -7 15557.1 844.497   1
   1  -4  -7 15572.4 755.673   3
  -1   4   7 16031.3 819.865   2
   1  -4  -6 26835.7 1086.37   1
  -1   4   6 25895.2 1093.89   2
  -1   4   6 25918.2 1047.16   1
   1  -4  -6 25214.1 1057.90   2
   1  -4  -5 41680.0 1400.47   1
   1  -4  -5 40575.1 1460.61   2
  -1   4   5 42532.9 1381.76   1
  -1   4   5 42314.1 1504.38   2
  -1   4   4 31583.0 1205.88   2
  -1   4   4 30103.7 1011.71   1
   1  -4  -4 30070.1 1033.79   1
   1  -4  -4 31910.5 1182.70   2
   1  -4  -3 34669.0 1025.56   1
  -1   4   3 32620.4 997.700   1
  -1   4   3 34530.0 1276.02   2
   1  -4  -3 33812.9 1246.03   2
  -1   4   2 62599.4 1961.23   2
   1  -4  -2 61888.5 1551.64   1
   1  -4  -2 58414.2 1905.45   2
  -1   4   1 11257.7 620.062   2
   1  -4  -1 11461.5 617.367   2
   1  -4   0 73394.1 2234.96   2
  -1   4   0 77093.2 2270.82   2
  -1   4  -1 539.774 134.568   2
   1  -4   1 897.639 160.900   2
  -1   4  -1 773.365 66.1091   1
   1  -4   2 420.974 117.955   2
  -1   4  -2 413.669 69.8735   1
   1  -4   2 437.492 114.200   3
  -1   4  -2 443.608 119.712   2
   1  -4   3 2781.32 303.963   3
   1  -4   3 2333.55 201.307   1
  -1   4  -3 2402.27 212.314   1
   1  -4   3 2266.54 262.352   2
   1  -4   4 59883.1 1973.23   2
   1  -4   4 69243.3 2088.57   3
  -1   4  -4 67368.1 1944.58   1
   1  -4   4 61401.8 1882.70   1
   1  -4   5 3604.04 343.255   3
  -1   4  -5 3446.24 327.798   1
   1  -4   5 3709.14 329.169   1
   1  -4   5 3438.36 326.153   2
  -1   4  -6 7301.17 534.422   1
   1  -4   6 6840.62 502.083   1
   1  -4   6 7071.63 482.482   2
   1  -4   6 7516.73 512.007   3
   1  -4   7 235.281 74.8501   2
   1  -4   7 290.863 82.7804   3
  -1   4  -7 285.907 121.360   1
   1  -4   7 559.408 156.581   1
   1  -4   8 4795.91 399.202   3
  -1   4  -8 4596.39 484.916   1
   1  -4   8 4293.00 377.698   2
   1  -4   9 40762.2 1470.48   3
  -1   4  -9 39848.3 1754.37   1
   1  -4   9 41668.2 1467.88   2
   1  -4  10 18153.0 835.830   2
  -1   4 -10 17011.1 1114.52   1
  -1   4 -11 9036.68 831.571   1
  -1   4 -12 1896.20 414.352   1
   1  -3 -12 10110.7 885.611   1
   1  -3 -11-423.799 188.377   1
   1  -3 -10 20448.5 1184.41   1
  -1   3   9 192.163 80.8426   2
   1  -3  -9 228.640 125.562   1
   1  -3  -9 110.095 58.0434   3
   1  -3  -9 28.6889 33.0590   3
   1  -3  -8 51224.4 1516.26   3
   1  -3  -8 51189.5 1657.43   2
   1  -3  -8 48713.8 1878.32   1
  -1   3   8 49244.9 1657.02   2
   1  -3  -7 3121.59 355.671   1
  -1   3   7 3277.58 306.767   2
  -1   3   7 3581.60 360.925   1
   1  -3  -7 3270.49 301.780   2
   1  -3  -6 41343.8 1378.44   2
  -1   3   6 40546.3 1387.76   2
  -1   3   6 40217.5 1434.88   1
   1  -3  -6 39611.1 1461.17   1
  -1   3   5 15370.3 703.075   1
   1  -3  -5 15172.0 717.767   1
  -1   3   5 15642.4 712.085   2
   1  -3  -5 16095.4 714.123   2
  -1   3   4 4525.76 342.359   2
   1  -3  -4 4521.09 339.512   2
   1  -3  -4 5527.20 345.303   1
  -1   3   4 5002.81 321.546   1
  -1   3   3 21894.2 849.222   2
   1  -3  -3 20694.9 825.354   2
   1  -3  -3 21434.7 730.193   1
  -1   3   3 20371.8 714.171   1
  -1   3   2 21657.1 846.959   2
  -1   3   2 21506.2 659.967   1
   1  -3  -2 21508.9 842.713   2
   1  -3  -2 22197.1 661.670   1
  -1   3   1 3968.18 305.906   2
   1  -3  -1 4128.63 310.315   2
   1  -3   0 12272.0 579.759   2
  -1   3   0 12872.6 593.701   2
  -1   3  -1 10538.1 360.859   1
   1  -3   1 9894.38 499.882   2
  -1   3  -1 9912.50 509.230   2
  -1   3  -2 4098.11 240.278   1
  -1   3  -2 3710.82 292.096   2
   1  -3   2 3789.79 292.775   2
   1  -3   3 63026.2 1882.77   2
   1  -3   3 67495.2 1953.71   3
   1  -3   3 61858.7 1820.61   1
  -1   3  -3 68182.1 1857.78   1
   1  -3   4 8374.37 480.498   3
   1  -3   4 7640.34 449.108   1
   1  -3   4 8136.39 451.620   2
  -1   3  -4 8253.52 470.782   1
   1  -3   5 65436.4 1935.28   3
   1  -3   5 61740.0 1873.02   2
   1  -3   5 61239.4 1970.52   1
  -1   3  -5 67972.0 2022.98   1
   1  -3   6 85.0124 55.6185   3
   1  -3   6 155.317 63.0554   2
  -1   3  -6-2.50765 77.7178   1
   1  -3   6 61.4529 53.1192   1
   1  -3   7 8765.93 493.110   3
  -1   3  -7 9506.35 651.960   1
   1  -3   7 8916.88 489.044   2
   1  -3   7 9134.13 626.653   1
  -1   3  -8 251.517 104.042   1
   1  -3   8 683.599 130.438   3
   1  -3   8 375.096 99.6431   2
  -1   3  -9 61086.2 2298.14   1
   1  -3   9 56880.6 1765.37   3
   1  -3   9 62327.6 1805.02   2
   1  -3  10 7007.61 408.002   2
  -1   3 -10 7479.22 709.160   1
  -1   3 -11 12020.6 959.933   1
  -1   3 -12 8052.90 822.375   1
   1  -2 -13 7122.89 787.995   1
   1  -2 -12 11698.6 968.840   1
   1  -2 -11 18490.7 1192.33   1
   1  -2 -10 2812.45 416.887   1
  -1   2   9 17302.2 771.129   2
   1  -2  -9 17388.6 598.254   3
   1  -2  -9 16305.5 999.586   1
   1  -2  -8 1187.08 243.271   1
  -1   2   8 1073.20 163.802   2
   1  -2  -8 1300.98 136.475   3
   1  -2  -7 49157.5 1402.34   3
   1  -2  -7 46047.9 1730.52   1
  -1   2   7 47272.9 1707.68   1
  -1   2   7 48652.6 1531.74   2
  -1   2   6 2595.57 292.992   1
   1  -2  -6 2975.62 255.930   2
   1  -2  -6 2750.35 312.172   1
  -1   2   6 2804.02 252.452   2
  -1   2   5 32269.1 1148.08   1
  -1   2   5 31492.8 1069.50   2
   1  -2  -5 30696.2 1051.15   2
   1  -2  -5 30114.2 1142.02   1
   1  -2  -4 2252.33 222.138   1
  -1   2   4 1991.04 204.201   1
   1  -2  -4 1726.53 187.198   2
  -1   2   4 1694.54 182.295   2
  -1   2   3 12349.4 508.333   1
   1  -2  -3 12156.3 510.478   1
   1  -2  -3 12626.2 538.402   2
  -1   2   3 12251.5 536.003   2
  -1   2   2 31427.0 956.646   1
   1  -2  -2 35093.3 967.063   1
   1  -2  -2 33631.1 1055.17   2
  -1   2   2 33190.8 1061.21   2
  -1   2   1 53021.3 1357.08   1
  -1   2   1 52916.8 1522.99   2
   1  -2  -1 53232.4 1515.83   2
  -1   2   0 76452.5 2076.06   2
   1  -2   0 78367.1 2083.91   2
   1  -2   1 28146.8 912.728   2
  -1   2  -1 28477.9 916.753   2
  -1   2  -1 29678.3 827.589   1
  -1   2  -2 3001.30 214.888   2
  -1   2  -2 3145.82 213.536   1
   1  -2   2 2975.69 212.959   2
   1  -2   3 21072.9 780.474   1
   1  -2   3 21347.1 725.993   2
  -1   2  -3 21921.0 791.956   1
   1  -2   4 168886. 4241.83   2
  -1   2  -4 174292. 4434.10   1
   1  -2   4 166996. 4401.12   1
   1  -2   4 171330. 4297.46   3
  -1   2  -5 7285.50 482.951   1
   1  -2   5 6405.35 355.218   3
   1  -2   5 5929.66 433.018   1
   1  -2   5 6315.66 329.545   2
   1  -2   6 53243.4 1815.14   1
  -1   2  -6 58868.9 1872.07   1
   1  -2   6 52289.6 1508.50   2
   1  -2   6 52445.1 1538.34   3
  -1   2  -7 492.725 145.262   1
   1  -2   7 696.814 103.069   3
   1  -2   7 328.599 130.309   1
   1  -2   7 593.915 93.7457   2
  -1   2  -8 28731.4 1313.92   1
   1  -2   8 26883.7 860.203   3
   1  -2   8 26403.8 863.616   2
   1  -2   9 4668.91 243.309   3
  -1   2  -9 5202.19 548.215   1
   1  -2   9 4590.61 257.165   2
   1  -2  10 24782.4 748.400   2
  -1   2 -10 26844.1 1422.89   1
  -1   2 -11 193.722 177.287   1
  -1   2 -12 4673.13 616.649   1
   1  -1 -13 12392.5 1046.56   1
   1  -1 -12 6467.58 705.570   1
   1  -1 -11 17706.5 1159.13   1
   1  -1 -10 8084.96 283.855   3
   1  -1 -10 8382.13 718.151   1
  -1   1  10 9091.25 503.061   2
  -1   1   9 3613.21 300.077   2
   1  -1  -9 4185.38 474.003   1
   1  -1  -9 4077.77 225.104   3
   1  -1  -8 18166.6 993.714   1
  -1   1   8 18200.9 758.494   2
   1  -1  -8 18766.9 637.617   3
   1  -1  -7 1138.86 122.636   3
   1  -1  -7 1136.88 226.883   1
  -1   1   7 1594.24 250.556   1
  -1   1   7 1265.19 163.936   2
   1  -1  -6 22775.8 1005.16   1
  -1   1   6 21916.3 976.772   1
   1  -1  -6 22930.1 741.836   3
  -1   1   6 22090.3 821.236   2
  -1   1   5 1961.20 233.718   1
  -1   1   5 2033.45 189.286   2
   1  -1  -5 1950.16 235.311   1
   1  -1  -5 1907.52 158.587   3
  -1   1   4 8836.99 420.845   2
   1  -1  -4 9766.17 397.233   3
  -1   1   4 8527.85 473.145   1
   1  -1  -4 9953.57 503.279   1
   1  -1  -3 3528.28 248.121   1
  -1   1   3 3155.84 238.525   1
   1  -1  -3 3629.48 234.779   2
  -1   1   3 3617.72 231.951   2
   1  -1  -2 49928.1 1388.78   2
  -1   1   2 48083.1 1370.86   1
   1  -1  -2 50774.4 1372.27   1
  -1   1   2 51098.1 1388.14   2
   1  -1  -1 122.067 68.8968   2
  -1   1   1 69.0269 38.0232   2
  -1   1   1 133.353 43.6835   1
   1  -1   0 77091.9 1969.72   2
  -1   1   0 76541.4 1964.12   2
  -1   1  -1 59876.3 1553.14   2
   1  -1   1 59865.3 1548.85   2
  -1   1  -2 92777.8 2311.40   2
  -1   1  -2 92767.0 2425.06   1
   1  -1   2 92990.9 2308.30   2
   1  -1   3 47894.2 1245.21   2
  -1   1  -3 47770.5 1444.23   1
   1  -1   4 84316.1 2092.87   2
  -1   1  -4 89474.2 2421.63   1
   1  -1   4 80401.7 2382.19   1
   1  -1   5 5580.45 221.676   2
   1  -1   5 5581.81 253.112   3
   1  -1   5 4906.45 391.595   1
  -1   1  -5 6007.75 434.910   1
  -1   1  -6 7014.03 514.113   1
   1  -1   6 6626.31 245.572   2
   1  -1   6 6995.90 505.233   1
   1  -1   6 6561.28 262.335   3
  -1   1  -7 38010.7 1486.26   1
   1  -1   7 36391.8 937.939   2
   1  -1   7 36055.1 1445.55   1
   1  -1   7 36291.8 939.981   2
  -1   1  -8 7078.48 594.221   1
  -1   1  -9 44610.4 1865.96   1
  -1   1 -10 924.490 235.867   1
  -1   1 -11 10768.1 908.955   1
  -1   1 -12 1209.03 323.444   1
   1   0 -13-83.7537 164.953   1
   1   0 -12 26347.7 1520.19   1
   1   0 -11 3132.57 469.788   1
   1   0 -10 7421.08 329.700   3
   1   0 -10 6940.94 656.592   1
  -1   0  10 6263.27 419.662   2
  -1   0   9 770.629 138.306   2
   1   0  -9 512.490 178.475   1
   1   0  -9 901.041 109.802   3
   1   0  -8 18731.4 1012.01   1
  -1   0   8 18065.6 767.687   2
   1   0  -8 21119.1 708.119   3
  -1   0   7 14166.4 792.114   1
   1   0  -7 12511.1 759.328   1
   1   0  -7 14020.1 538.512   3
  -1   0   7 13245.4 597.343   2
   1   0  -6 15787.4 576.454   3
  -1   0   6 15905.1 791.196   1
  -1   0   6 15463.7 637.119   2
   1   0  -6 15692.5 800.817   1
  -1   0   5 74954.1 1972.87   3
   1   0  -5 75333.4 1966.82   3
  -1   0   5 74534.8 2033.00   2
   1   0  -5 70360.7 2196.97   1
  -1   0   5 70467.4 2196.20   1
  -1   0   4 12807.6 617.426   1
  -1   0   4 13269.6 504.012   3
   1   0  -4 14551.5 514.227   3
   1   0  -4 14329.2 640.509   1
   1   0  -3 168671. 4061.19   3
   1   0  -3 159622. 4174.23   1
  -1   0   3 167376. 4060.27   3
  -1   0   3 160972. 4186.41   1
  -1   0   2 641.920 82.4210   3
   1   0  -2 659.134 90.2888   3
  -1   0   2 803.738 107.675   1
   1   0  -2 628.872 106.504   1
   1   0  -1 56744.9 1443.10   3
  -1   0   1 52840.9 1438.55   3
   1   0   0 302.386 53.3231   3
  -1   0   0 340.370 60.3238   3
   1   0   1 211901. 5017.25   3
  -1   0  -1 206965. 5023.00   3
   1   0   2 15087.8 454.002   3
  -1   0  -3 28595.9 969.424   1
   1   0   3 27741.3 739.511   3
  -1   0  -4 48808.3 1553.96   1
  -1   0  -5 51411.4 1699.09   1
  -1   0  -6 28300.0 1182.57   1
  -1   0  -7 10194.5 682.396   1
  -1   0  -8 10911.4 756.711   1
  -1   0  -9 675.081 199.942   1
  -1   0 -10 19258.6 1187.39   1
  -1   0 -11 6380.48 694.879   1
  -1   0 -12 11874.7 1009.12   1
   1   1 -13 14839.8 1154.70   1
   1   1 -12 708.211 278.687   1
   1   1 -11 15222.9 1060.62   1
  -1  -1  10 6180.73 427.424   2
   1   1 -10 6104.27 616.657   1
   1   1 -10 6406.53 370.178   3
   1   1  -9 13763.8 592.742   3
  -1  -1   9 12943.0 565.908   3
   1   1  -9 12702.3 854.644   1
  -1  -1   9 12790.0 640.151   2
   1   1  -8 13069.2 813.785   1
   1   1  -8 12506.6 561.131   3
  -1  -1   8 12070.9 538.164   3
   1   1  -7 14680.9 821.636   1
  -1  -1   7 15525.1 833.955   1
  -1  -1   7 14594.0 600.857   3
   1   1  -7 15039.6 622.361   3
  -1  -1   6 3230.44 241.834   3
  -1  -1   6 3703.77 354.423   1
   1   1  -6 3454.79 349.285   1
   1   1  -6 3623.51 259.373   3
  -1  -1   5 27856.2 923.706   3
   1   1  -5 28494.2 938.942   3
   1   1  -5 29008.2 1102.33   1
  -1  -1   5 28485.9 1101.92   1
  -1  -1   4 41826.1 1264.43   3
   1   1  -4 42847.8 1397.15   1
  -1  -1   4 41793.5 1388.19   1
   1   1  -4 45087.1 1281.45   3
  -1  -1   3 15829.6 584.367   3
  -1  -1   3 15472.6 638.954   1
   1   1  -3 16232.2 590.169   3
   1   1  -3 14624.7 619.842   1
   1   1  -2 7897.37 372.139   1
  -1  -1   2 7801.12 358.744   3
   1   1  -2 7617.11 358.298   3
  -1  -1   2 7825.56 369.421   1
  -1  -1   1 7408.15 334.163   3
   1   1  -1 7001.97 327.550   3
   1   1   0 99015.6 2498.90   3
  -1  -1   0 97412.4 2494.18   3
   1   1   1 3282.79 193.348   3
  -1  -1  -1 3255.65 190.713   3
   1   1   2 87669.2 2188.01   3
  -1  -1  -2 85150.4 2176.28   3
  -1  -1  -3 9043.80 327.433   3
  -1  -1  -3 9515.68 321.564   2
   1   1   3 8930.32 333.539   3
  -1  -1  -3 9230.97 469.727   1
   1   1   4 18104.5 523.671   3
  -1  -1  -4 18114.5 511.329   3
  -1  -1  -4 18380.6 777.398   1
  -1  -1  -4 17230.8 496.799   2
  -1  -1  -5 605.072 147.293   1
  -1  -1  -6 101160. 3009.33   1
  -1  -1  -7 29861.1 1301.45   1
  -1  -1  -8 37999.7 1597.06   1
  -1  -1  -9 3193.52 425.413   1
  -1  -1 -10 5253.70 599.577   1
  -1  -1 -11 4866.72 597.599   1
  -1  -1 -12 2752.65 475.021   1
   1   2 -13 1383.74 362.706   1
   1   2 -12 17717.2 1221.33   1
   1   2 -11 3481.90 499.394   1
   1   2 -10 13751.9 951.315   1
  -1  -2  10 13509.0 640.109   3
   1   2 -10 15025.2 701.310   3
   1   2  -9 1663.64 211.674   3
  -1  -2   9 1474.21 188.197   3
   1   2  -9 1526.34 293.471   1
   1   2  -8 21611.5 878.158   3
  -1  -2   8 20408.5 834.535   3
   1   2  -8 21082.6 1085.21   1
  -1  -2   7 3349.19 283.804   3
  -1  -2   7 3736.26 383.805   1
   1   2  -7 3533.35 301.808   3
   1   2  -7 3268.27 370.111   1
   1   2  -6 44082.7 1416.23   3
  -1  -2   6 44647.7 1582.30   1
  -1  -2   6 42726.2 1384.98   3
   1   2  -6 42392.4 1557.93   1
   1   2  -5 19280.2 853.171   1
   1   2  -5 19306.1 771.100   3
  -1  -2   5 18137.8 746.760   3
  -1  -2   5 19048.1 861.463   1
   1   2  -4 104527. 2776.97   3
  -1  -2   4 100167. 2825.35   1
  -1  -2   4 104060. 2762.43   3
   1   2  -4 98717.4 2812.16   1
  -1  -2   3 3155.66 256.524   3
   1   2  -3 3594.27 274.126   1
  -1  -2   3 4086.14 290.928   1
   1   2  -3 3460.80 272.603   3
   1   2  -2 209.028 87.3685   3
  -1  -2   2 295.514 65.2170   3
  -1  -2   2 264.855 76.6243   1
   1   2  -1 7079.28 388.817   3
  -1  -2   1 7227.04 384.438   3
  -1  -2   0 59002.8 1698.72   3
   1   2   0 61121.2 1712.14   3
  -1  -2  -1 409426. 9826.14   3
   1   2   1 406824. 9841.85   3
   1   2   2 20620.0 733.098   3
  -1  -2  -2 20928.1 724.633   2
  -1  -2  -2 20876.9 720.126   3
   1   2   3 19814.0 707.842   3
  -1  -2  -3 20522.3 697.871   3
  -1  -2  -3 20930.2 705.594   2
  -1  -2  -3 20745.2 800.368   1
  -1  -2  -4 53.8385 32.7621   2
  -1  -2  -4 54.7311 56.7098   1
  -1  -2  -4 29.8703 35.7227   3
  -1  -2  -5 68848.5 2161.89   1
  -1  -2  -5 69552.0 1818.55   3
  -1  -2  -5 70567.6 1840.51   2
  -1  -2  -6 1320.21 95.7623   3
  -1  -2  -6 1659.85 246.481   1
  -1  -2  -6 1338.95 118.307   2
  -1  -2  -7 28333.3 1268.81   1
  -1  -2  -8-48.4341 82.4054   1
  -1  -2  -9 5956.91 593.235   1
  -1  -2 -10 1853.36 347.677   1
  -1  -2 -11 7226.01 756.097   1
  -1  -2 -12 939.591 286.431   1
   1   3 -12 2636.72 452.632   1
   1   3 -11 14013.5 1023.82   1
   1   3 -10 1047.51 274.140   1
  -1  -3  10 697.848 152.541   3
   1   3 -10 1340.58 216.870   3
  -1  -3   9 12553.0 681.498   3
   1   3  -9 13804.0 741.697   3
   1   3  -9 13662.1 898.252   1
   1   3  -8 3765.90 425.125   1
   1   3  -8 3519.28 347.018   3
  -1  -3   8 2821.22 297.464   3
  -1  -3   7 1342.10 238.017   1
   1   3  -7 1445.31 245.288   1
   1   3  -7 1327.03 209.444   3
  -1  -3   7 1355.46 197.367   3
  -1  -3   6 618.899 151.087   1
   1   3  -6 756.733 157.009   3
  -1  -3   6 851.056 146.794   3
   1   3  -6 899.094 191.497   1
   1   3  -5 68937.9 2092.02   3
  -1  -3   5 65665.8 2098.38   1
   1   3  -5 69465.2 2100.92   1
  -1  -3   5 65192.5 2039.93   3
   1   3  -4 15076.3 703.108   1
   1   3  -4 16613.7 765.128   3
  -1  -3   4 15933.4 735.524   3
  -1  -3   4 16413.5 738.938   1
   1   3  -3 71173.2 2074.18   3
  -1  -3   3 64530.5 2028.62   3
   1   3  -3 67046.8 1943.42   1
  -1  -3   3 68683.5 1973.11   1
   1   3  -2 554.042 134.742   3
  -1  -3   2 492.547 124.929   3
  -1  -3   2 531.952 96.4006   1
  -1  -3   1 43270.0 1444.07   3
   1   3  -1 44845.1 1465.83   3
  -1  -3   1 45405.4 1305.26   1
  -1  -3   0 51606.6 1614.14   3
   1   3   0 51928.1 1632.64   3
  -1  -3  -1 89063.9 2494.75   2
   1   3   1 88369.7 2509.28   3
  -1  -3  -1 89809.4 2496.40   3
  -1  -3  -2 53519.8 1640.62   3
  -1  -3  -2 54854.2 1642.31   2
   1   3   2 54191.3 1666.62   3
   1   3   3 43145.6 1384.23   3
  -1  -3  -3 40634.2 1352.02   3
  -1  -3  -3 45714.1 1391.06   2
  -1  -3  -3 45199.0 1407.74   1
  -1  -3  -4 11558.0 532.202   3
  -1  -3  -4 11248.7 529.855   2
  -1  -3  -4 11898.7 610.518   1
  -1  -3  -5 7665.48 402.544   3
  -1  -3  -5 7505.13 514.036   1
  -1  -3  -5 8600.19 433.157   2
  -1  -3  -6 40860.6 1224.12   3
  -1  -3  -6 40746.0 1551.11   1
  -1  -3  -6 41395.3 1265.65   2
  -1  -3  -7 239.222 66.0339   2
  -1  -3  -7 162.453 44.8889   3
  -1  -3  -7 93.4646 91.4436   1
  -1  -3  -8 7047.72 612.997   1
  -1  -3  -8 7235.82 351.073   2
  -1  -3  -9-36.3685 79.8471   1
  -1  -3 -10 3311.95 472.926   1
  -1  -3 -11 289.560 189.455   1
  -1  -3 -12 6727.60 768.621   1
   1   4 -12 467.648 187.467   1
   1   4 -11 11578.2 927.179   1
   1   4 -10 6983.47 669.503   1
   1   4  -9 7815.25 586.347   3
  -1  -4   9 7152.00 543.254   3
   1   4  -9 7259.16 642.109   1
   1   4  -8 16026.2 890.915   3
  -1  -4   8 16652.7 865.764   3
   1   4  -8 18763.7 1017.17   1
   1   4  -7 4693.16 434.982   3
  -1  -4   7 3603.23 388.111   1
  -1  -4   7 3415.46 355.221   3
   1   4  -7 2797.31 348.441   1
   1   4  -6 41061.6 1550.07   3
  -1  -4   6 37411.8 1470.90   3
  -1  -4   6 41952.5 1541.27   1
   1   4  -6 41855.9 1518.61   1
   1   4  -5 6274.59 449.982   1
  -1  -4   5 6006.83 449.924   1
  -1  -4   5 5618.37 449.068   3
   1   4  -5 5442.47 462.917   3
  -1  -4   4 93789.9 2653.21   1
   1   4  -4 94741.3 2808.44   3
   1   4  -4 91345.9 2619.58   1
  -1  -4   4 90116.5 2755.68   3
   1   4  -3 401.827 109.644   3
  -1  -4   3 386.920 126.363   3
  -1  -4   3 426.109 109.010   1
   1   4  -2 58330.5 1943.66   3
  -1  -4   2 56908.0 1897.65   3
  -1  -4   2 59790.8 1715.04   1
   1   4  -1 10923.9 639.653   3
  -1  -4   1 10425.5 612.133   3
  -1  -4   1 10518.8 471.720   1
   1   4   0 155075. 4138.83   3
  -1  -4   0 148877. 4089.60   2
  -1  -4   0 148756. 4075.76   3
  -1  -4  -1 28663.0 1131.65   3
  -1  -4  -1 28854.1 1125.59   2
   1   4   1 29489.5 1158.16   3
   1   4   2 15874.8 769.051   3
  -1  -4  -2 16050.0 758.402   3
  -1  -4  -2 14940.3 738.325   2
  -1  -4  -3 788.278 137.245   1
  -1  -4  -3 572.001 129.477   3
  -1  -4  -3 831.997 163.372   2
  -1  -4  -4-5.94827 41.4399   2
  -1  -4  -4 154.827 74.1317   3
  -1  -4  -5 19597.3 834.766   2
  -1  -4  -5 18703.0 808.350   3
  -1  -4  -5 18967.8 892.313   1
  -1  -4  -6 5750.41 485.087   1
  -1  -4  -6 5781.57 384.097   3
  -1  -4  -6 5962.01 405.124   2
  -1  -4  -7 3711.48 414.667   1
  -1  -4  -7 4327.28 304.237   3
  -1  -4  -7 4292.85 330.659   2
  -1  -4  -8 1800.34 201.089   2
  -1  -4  -8 1825.06 305.461   1
  -1  -4  -9 4676.18 532.554   1
  -1  -4 -10-118.906 183.547   1
  -1  -4 -11 7517.62 783.802   1
   1   5 -12 5219.22 640.926   1
  -1  -5  12 5427.70 563.367   2
   1   5 -11 2129.83 376.004   1
   1   5 -10 8048.32 723.237   1
   1   5  -9 4192.57 477.360   1
   1   5  -8 15882.4 947.664   3
   1   5  -8 16341.8 949.761   1
   1   5  -7 21424.1 1107.58   3
   1   5  -7 20714.0 1048.59   1
   1   5  -6 16523.2 937.810   3
   1   5  -6 16371.1 842.678   1
  -1  -5   6 14354.6 806.236   1
   1   5  -5 47404.5 1803.74   3
   1   5  -5 45140.6 1591.15   1
  -1  -5   5 47215.9 1632.76   1
   1   5  -4 14277.4 844.979   3
  -1  -5   4 13779.1 690.779   1
   1   5  -3 29149.1 1291.57   3
  -1  -5   3 28414.2 1248.99   3
  -1  -5   3 29632.7 1075.81   1
  -1  -5   2 4738.73 437.108   3
  -1  -5   2 4669.21 439.501   2
   1   5  -2 4010.05 414.846   3
  -1  -5   2 4413.11 309.680   1
  -1  -5   1 13540.4 787.345   2
   1   5  -1 15165.9 836.593   3
  -1  -5   1 14252.8 795.011   3
  -1  -5   1 13810.6 581.332   1
   1   5   0 38.3281 74.1053   3
  -1  -5   0-9.90269 73.9038   3
  -1  -5   0 144.292 102.926   2
  -1  -5  -1 25407.3 1131.71   3
  -1  -5  -1 27382.4 1156.45   2
  -1  -5  -2 576.509 144.188   3
  -1  -5  -2 501.544 102.801   1
  -1  -5  -2 639.604 160.997   2
  -1  -5  -3 11086.9 561.716   1
  -1  -5  -3 10080.9 641.216   3
  -1  -5  -3 10489.7 648.205   2
  -1  -5  -4 322.347 121.970   2
  -1  -5  -4 136.033 77.7396   3
  -1  -5  -4 337.788 121.326   1
  -1  -5  -5 3261.47 341.976   2
  -1  -5  -5 3150.34 329.059   3
  -1  -5  -5 3481.69 349.989   1
  -1  -5  -6 6895.91 541.852   1
  -1  -5  -6 6590.62 474.870   3
  -1  -5  -6 7238.61 513.379   2
  -1  -5  -7 8397.77 646.332   1
  -1  -5  -7 9353.69 574.208   2
  -1  -5  -8 5245.99 532.423   1
  -1  -5  -9 5421.60 583.553   1
  -1  -5 -10 4250.38 547.568   1
  -1  -5 -11 1034.84 266.031   1
   1   6 -12 38.3780 96.0188   1
  -1  -6  12 45.2813 113.165   2
   1   6 -11 21983.9 1330.92   1
  -1  -6  11 22052.4 1267.54   2
  -1  -6  10 2.93696 88.7650   2
   1   6 -10 37.6784 152.879   1
   1   6  -9 22742.3 1239.26   1
  -1  -6   9 22826.8 1269.21   2
   1   6  -8 3278.81 410.939   1
  -1  -6   8 3982.17 479.561   2
   1   6  -7 23503.3 1127.77   1
  -1  -6   7 22659.0 1235.80   2
  -1  -6   6 8409.72 596.393   1
  -1  -6   6 10070.3 756.555   2
   1   6  -5 19644.8 1117.53   3
  -1  -6   5 19566.9 922.551   1
  -1  -6   5 21040.0 1134.82   2
   1   6  -4 10561.3 774.520   3
  -1  -6   4 10114.1 747.975   2
  -1  -6   4 10876.5 608.828   1
   1   6  -3 13656.0 873.900   3
  -1  -6   3 12007.8 607.486   1
  -1  -6   3 12805.8 833.517   2
  -1  -6   2 19086.5 1037.26   2
  -1  -6   2 18932.6 761.542   1
  -1  -6   1 138.867 67.9068   1
  -1  -6   1 190.373 110.428   2
  -1  -6   0 6954.93 369.161   1
  -1  -6   0 5928.77 536.461   2
  -1  -6  -1 59.1003 97.9052   2
  -1  -6  -2 6108.52 534.716   2
  -1  -6  -2 5956.35 370.065   1
  -1  -6  -3-113.373 112.765   2
  -1  -6  -3 7.95030 51.0215   1
  -1  -6  -4 11480.8 744.659   2
  -1  -6  -4 11965.9 642.966   1
  -1  -6  -5 1494.75 224.884   1
  -1  -6  -5 1258.89 244.057   2
  -1  -6  -6 14752.9 830.381   1
  -1  -6  -6 15855.3 879.169   2
  -1  -6  -7 242.629 121.144   1
  -1  -6  -7 189.707 109.201   2
  -1  -6  -8 6399.84 596.502   1
   1   7 -11 879.501 290.764   1
  -1  -7  11 195.036 86.5552   2
   1   7 -10 10552.8 846.072   1
  -1  -7  10 10969.9 899.879   2
   1   7  -9 614.098 223.936   1
  -1  -7   9 198.643 121.682   2
  -1  -7   8 27899.1 1494.36   2
   1   7  -8 28475.5 1342.46   1
  -1  -7   7 503.832 201.164   2
  -1  -7   6 6030.70 628.753   2
  -1  -7   5 489.680 179.345   2
  -1  -7   5 577.928 147.594   1
  -1  -7   4 3478.05 322.554   1
  -1  -7   4 3104.95 432.382   2
  -1  -7   3 5261.13 557.245   2
  -1  -7   3 5533.09 380.611   1
  -1  -7   2 8147.53 708.997   2
  -1  -7   2 9650.95 479.814   1
  -1  -7   1 2016.81 349.759   2
  -1  -7   1 2723.98 220.734   1
  -1  -7   0 8179.13 695.509   2
  -1  -7   0 7667.56 383.572   1
  -1  -7  -1 3736.76 456.911   2
  -1  -7  -1 5135.87 300.753   1
  -1  -7  -2 3531.38 448.531   2
  -1  -7  -2 3852.41 279.061   1
  -1  -7  -3 15348.5 968.416   2
  -1  -7  -3 17659.6 739.217   1
  -1  -7  -4 1517.46 283.085   2
  -1  -7  -5 11546.6 808.602   2
  -1  -7  -6 99.4099 79.6077   2
  -1  -8   9 5330.37 645.736   2
  -1  -8   8 59.3846 85.8845   2
  -1  -8   7 14837.5 1091.70   2
  -1  -8   6 327.867 173.204   2
  -1  -8   5 3488.12 509.509   2
  -1  -8   4 215.969 86.8645   2
  -1  -8   3 12152.3 947.532   2
  -1  -8   2 8016.97 758.672   2
  -1  -8   1 7843.29 740.769   2
  -1  -8   0 732.256 232.294   2
  -1  -8  -1 7935.62 730.123   2
  -1  -8  -2 5380.24 582.761   2
  -1  -8  -3 4278.90 522.404   2
  -1  -8  -4 6005.40 625.894   2
  -1  -8  -5 556.669 186.689   2
  -1  -8  -6 4421.09 519.134   2
  -1  -9   4 8066.42 826.430   2
  -1  -9   3 5.72839 80.2011   2
  -1  -9   2 16226.2 1179.89   2
  -1  -9   1 708.113 256.500   2
  -1  -9   0 4411.66 575.598   2
  -1  -9  -1 416.321 144.660   2
  -1  -9  -2 4601.25 584.213   2
  -1  -9  -3 3690.65 526.345   2
  -1  -9  -4 5297.57 620.652   2
  -1  -9  -5 922.105 262.943   2
   2  -9  -4 5976.57 674.039   2
   2  -9  -3 5516.33 639.268   2
   2  -9  -2 89.9347 129.588   2
   2  -9  -1 938.190 273.364   2
   2  -9   0 360.567 188.211   2
   2  -9   1 7261.88 731.175   2
   2  -9   2 304.952 110.145   2
   2  -9   3 5540.67 636.633   2
   2  -9   4 457.178 217.317   2
   2  -9   5 6365.63 691.550   2
   2  -9   6 2472.67 424.630   2
   2  -9   7 4783.14 596.293   2
   2  -8  -8 1111.51 282.518   2
   2  -8  -7 6606.60 676.050   2
   2  -8  -6 362.199 195.512   2
   2  -8  -5 7663.46 725.716   2
   2  -8  -4 2135.35 384.996   2
   2  -8  -3 1706.84 335.115   2
   2  -8  -2 7580.69 705.177   2
   2  -8  -1 3697.98 488.718   2
   2  -8   0 4443.12 530.935   2
   2  -8   1 959.125 243.801   2
   2  -8   2 13245.7 949.259   2
   2  -8   3 93.2613 118.184   2
   2  -8   4 26213.4 1414.54   2
   2  -8   5 189.505 125.884   2
   2  -8   6 11982.9 911.421   2
   2  -8   7 3327.85 465.340   2
   2  -8   8 17894.9 1139.94   2
   2  -8   9 3988.83 513.455   2
   2  -7  -9 65.3193 116.986   2
   2  -7  -8 7358.83 677.023   2
   2  -7  -7 228.711 132.783   2
   2  -7  -6 3733.64 474.877   2
   2  -7  -5 882.754 232.164   2
   2  -7  -4 6647.69 614.304   2
   2  -7  -3 1123.52 246.288   2
   2  -7  -2 3658.94 451.376   2
   2  -7  -1 5800.04 568.355   2
   2  -7   0 11846.0 824.900   2
   2  -7   1 20158.0 1119.96   2
   2  -7   2 12166.0 838.901   2
   2  -7   3 19847.3 1131.39   2
  -2   7  -3 22570.3 713.133   1
   2  -7   4 2255.62 351.923   2
  -2   7  -4 3069.49 263.722   1
   2  -7   5 15435.7 986.993   2
  -2   7  -5 19085.5 836.655   1
   2  -7   6 66.3793 72.6574   2
  -2   7  -6 90.1018 81.1910   1
   2  -7   7 16829.8 1031.51   2
  -2   7  -7 19086.3 994.982   1
   2  -7   8 231.392 106.011   2
  -2   7  -8 251.775 105.583   1
   2  -7   9 21038.4 1160.51   2
  -2   7  -9 20556.4 1195.31   1
  -2   7 -10 776.371 253.404   1
  -2   7 -11 828.792 286.139   1
   2  -6 -10 609.650 189.146   2
   2  -6  -9 2068.10 323.509   2
   2  -6  -8 1524.14 247.766   1
   2  -6  -8 1534.59 284.838   2
   2  -6  -7 14954.8 749.384   1
   2  -6  -7 12984.7 867.637   2
   2  -6  -6 1976.94 308.958   2
   2  -6  -6 1970.16 221.261   1
   2  -6  -5 9982.28 722.287   2
   2  -6  -4 394.551 155.638   2
   2  -6  -3 31906.6 1397.74   2
   2  -6  -2 5228.46 495.697   2
   2  -6  -1 39346.2 1589.31   2
   2  -6   0 4910.28 473.527   2
   2  -6   1 14817.2 866.103   2
   2  -6   2 27721.0 1269.85   2
  -2   6  -2 28136.3 844.220   1
   2  -6   3 27692.1 1296.23   2
  -2   6  -3 31512.2 1026.79   1
   2  -6   4 23048.9 1148.16   2
  -2   6  -4 25781.4 976.531   1
   2  -6   5 4102.81 437.189   2
  -2   6  -5 5518.02 429.576   1
   2  -6   6 6275.72 544.784   2
  -2   6  -6 6939.17 530.318   1
  -2   6  -7 155.005 73.8072   1
   2  -6   7 145.993 72.4882   2
   2  -6   8 19961.6 1058.57   2
  -2   6  -8 23473.6 1200.42   1
   2  -6   9 275.144 117.840   2
  -2   6  -9 437.255 169.671   1
  -2   6 -10 6813.07 693.614   1
  -2   6 -11 144.564 158.804   1
   2  -5 -11 878.580 235.040   1
   2  -5 -10 6666.61 620.007   1
   2  -5  -9 3261.86 393.378   2
   2  -5  -9 4368.72 463.573   1
   2  -5  -8 8281.46 639.957   2
   2  -5  -8 10462.1 678.842   1
   2  -5  -7 10745.2 638.269   1
   2  -5  -7 8532.61 643.599   2
  -2   5   7 9551.56 603.301   1
   2  -5  -6 8230.58 509.051   1
   2  -5  -6 7947.96 602.538   2
  -2   5   6 7745.25 492.649   1
   2  -5  -5 2067.58 218.153   1
   2  -5  -5 1646.12 259.993   2
  -2   5   5 1706.43 197.160   1
  -2   5   4 30857.3 997.964   1
   2  -5  -4 29896.4 1285.56   2
   2  -5  -3 9009.93 615.335   2
  -2   5   3 9852.99 391.771   1
  -2   5   2 54153.2 1902.96   2
  -2   5   2 53779.3 1349.42   1
   2  -5  -2 51256.7 1846.35   2
   2  -5  -1 48.7409 66.6654   2
  -2   5   1 125.904 68.6225   2
  -2   5   0 31321.6 1283.87   2
   2  -5   0 28674.0 1223.28   2
   2  -5   1 1338.68 222.534   2
  -2   5  -1 1336.29 112.832   1
  -2   5  -1 1465.56 237.566   2
   2  -5   2 26259.3 1160.67   2
  -2   5  -2 29171.1 1215.02   2
  -2   5  -2 28954.6 918.852   1
   2  -5   3 1928.56 270.965   2
  -2   5  -3 2389.21 225.154   1
  -2   5  -3 2652.21 316.375   2
   2  -5   4 17976.5 902.689   2
  -2   5  -4 18984.2 817.909   1
   2  -5   4 19408.1 982.762   3
   2  -5   5 11049.1 670.115   2
   2  -5   5 10246.8 694.648   3
  -2   5  -5 10748.9 632.068   1
   2  -5   6 19101.3 940.962   2
  -2   5  -6 20205.0 990.194   1
   2  -5   6 21747.3 1060.28   3
   2  -5   7 8386.46 582.127   2
  -2   5  -7 10011.0 698.002   1
   2  -5   7 8889.72 640.959   3
   2  -5   8 6282.90 496.401   2
  -2   5  -8 7663.59 644.621   1
   2  -5   9 14992.5 800.835   2
  -2   5  -9 17118.1 1069.90   1
  -2   5 -10 436.240 201.155   1
  -2   5 -11 7795.98 784.379   1
   2  -4 -12 9642.00 858.579   1
   2  -4 -11 463.210 203.675   1
   2  -4 -10 422.685 168.589   1
   2  -4  -9 1389.72 270.182   1
   2  -4  -9 1189.60 196.072   3
   2  -4  -8 36071.3 1449.18   2
   2  -4  -8 37676.6 1518.87   1
  -2   4   7 20856.6 1003.28   2
   2  -4  -7 19528.9 965.237   2
   2  -4  -7 20613.0 973.326   1
  -2   4   7 19627.7 948.276   1
  -2   4   6 27679.6 1178.02   2
   2  -4  -6 25086.4 1125.20   2
   2  -4  -6 26254.9 1068.77   1
  -2   4   6 27679.3 1097.76   1
  -2   4   5 4106.56 329.604   1
  -2   4   5 4229.60 396.428   2
   2  -4  -5 4224.00 333.482   1
   2  -4  -5 3789.70 372.779   2
  -2   4   4 5813.49 460.571   2
  -2   4   4 5814.31 359.966   1
   2  -4  -4 6275.54 371.881   1
   2  -4  -4 5566.11 450.482   2
  -2   4   3 51175.0 1687.33   2
  -2   4   3 46434.0 1386.92   1
   2  -4  -3 46928.6 1640.25   2
  -2   4   2 6294.84 457.579   2
  -2   4   2 5333.21 274.376   1
   2  -4  -2 5314.99 419.318   2
  -2   4   1 77889.3 2255.10   2
  -2   4   1 69949.9 1849.34   1
   2  -4  -1 73046.0 2217.31   2
  -2   4   0 11577.2 637.617   2
   2  -4   0 10812.7 617.639   2
  -2   4  -1 50678.2 1693.64   2
  -2   4  -1 51188.2 1406.46   1
   2  -4   1 48372.8 1658.55   2
  -2   4  -2 1207.26 142.369   1
   2  -4   2 1223.66 190.350   2
  -2   4  -2 1159.21 188.852   2
   2  -4   3 44329.9 1517.53   2
  -2   4  -3 42951.0 1520.09   2
  -2   4  -3 46921.5 1432.14   1
   2  -4   4 11027.8 608.352   2
  -2   4  -4 11891.1 640.868   2
  -2   4  -4 11310.7 604.295   1
   2  -4   5 35391.7 1289.07   2
  -2   4  -5 36932.6 1368.53   1
   2  -4   5 36200.0 1372.49   3
   2  -4   6 10700.8 596.068   2
   2  -4   6 11217.1 662.727   3
  -2   4  -6 11537.9 703.347   1
   2  -4   7 8304.56 513.500   2
   2  -4   7 8759.33 573.247   3
  -2   4  -7 8419.88 635.390   1
   2  -4   8 3212.17 329.938   3
  -2   4  -8 3482.21 425.925   1
   2  -4   8 3187.36 296.975   2
  -2   4  -9 10607.6 826.032   1
   2  -4   9 9741.98 540.575   2
  -2   4 -10 5244.76 607.526   1
  -2   4 -11 2670.48 461.170   1
  -2   4 -12 6945.43 784.020   1
   2  -3 -12 589.651 200.995   1
   2  -3 -11 5085.72 584.654   1
   2  -3 -10 3192.10 440.042   1
   2  -3 -10 2867.52 273.426   3
  -2   3   9 20629.9 998.982   2
   2  -3  -9 20920.0 869.372   3
   2  -3  -9 21957.6 1148.92   1
   2  -3  -8 247.649 107.671   1
  -2   3   8 244.587 87.3944   2
   2  -3  -8 163.597 80.1120   3
  -2   3   7 24447.0 1087.62   1
   2  -3  -7 22451.5 1002.12   2
   2  -3  -7 22887.0 1062.51   1
  -2   3   7 23847.8 1038.70   2
  -2   3   6 5292.86 427.389   1
   2  -3  -6 5132.49 413.399   2
   2  -3  -6 6188.14 453.650   1
  -2   3   6 5213.74 424.583   2
  -2   3   5 7792.81 490.230   1
   2  -3  -5 8362.98 524.215   2
  -2   3   5 8345.08 534.468   2
   2  -3  -5 8670.06 503.211   1
  -2   3   4 12346.7 599.543   1
   2  -3  -4 13926.0 608.537   1
   2  -3  -4 12634.0 662.696   2
  -2   3   4 13037.4 673.824   2
  -2   3   3 84343.2 2404.67   1
   2  -3  -3 91804.6 2579.75   2
  -2   3   3 93715.4 2597.51   2
  -2   3   2 12716.1 518.063   1
   2  -3  -2 13759.5 658.369   2
  -2   3   2 14190.6 674.843   2
  -2   3   1 1094.03 114.455   1
   2  -3  -1 1585.18 203.533   2
  -2   3   1 1056.55 166.625   2
  -2   3   0 90522.8 2509.05   2
   2  -3   0 86108.6 2480.96   2
  -2   3  -1 18528.2 769.667   2
   2  -3   1 18689.1 771.420   2
  -2   3  -2 40155.2 1302.66   2
  -2   3  -2 38814.2 1218.87   1
   2  -3   2 38394.3 1282.00   2
  -2   3  -3 17876.1 747.644   2
  -2   3  -3 18468.6 749.577   1
   2  -3   3 17389.1 732.260   2
  -2   3  -4 43450.0 1413.53   2
  -2   3  -4 44901.8 1496.50   1
   2  -3   4 45083.7 1407.29   2
   2  -3   5-0.48343 37.4959   2
  -2   3  -5 32.8113 102.588   1
  -2   3  -6 65217.3 2110.24   1
   2  -3   6 59270.4 1882.51   3
   2  -3   6 60785.6 1789.88   2
   2  -3   7 1024.65 141.374   2
   2  -3   7 727.647 143.891   3
  -2   3  -7 796.930 197.701   1
   2  -3   8 3544.52 301.204   3
   2  -3   8 3840.37 266.590   2
  -2   3  -8 3645.53 433.688   1
  -2   3  -9 1903.67 346.680   1
   2  -3   9 2094.92 177.078   2
  -2   3 -10 14325.4 1030.14   1
  -2   3 -11 4986.46 621.034   1
  -2   3 -12 4981.85 667.927   1
   2  -2 -13 2752.96 475.466   1
   2  -2 -12 7852.83 786.521   1
   2  -2 -11 3640.46 496.830   1
   2  -2 -10 6366.74 397.844   3
   2  -2 -10 5523.59 581.600   1
  -2   2  10 6248.16 489.772   2
   2  -2  -9 6848.74 423.448   3
   2  -2  -9 6454.85 592.146   1
  -2   2   9 7380.01 518.982   2
   2  -2  -8 45676.5 1466.74   3
   2  -2  -8 44143.4 1743.29   1
  -2   2   8 46306.6 1598.78   2
  -2   2   7 219.109 70.7859   2
   2  -2  -7 128.849 55.0733   3
   2  -2  -7 226.849 118.590   1
  -2   2   7 170.893 86.8269   1
  -2   2   6 49465.9 1773.53   1
   2  -2  -6 54958.2 1652.68   3
   2  -2  -6 53492.6 1790.80   1
  -2   2   6 53848.4 1729.16   2
   2  -2  -5 237.489 93.9234   2
  -2   2   5 20.7995 67.7924   1
  -2   2   5 231.810 93.6202   2
   2  -2  -5 310.928 115.319   1
   2  -2  -4 49150.5 1496.57   1
  -2   2   4 45245.1 1495.93   1
   2  -2  -4 46403.4 1506.97   2
  -2   2   4 46715.2 1516.06   2
  -2   2   3 36528.9 1198.84   1
   2  -2  -3 38901.6 1263.17   2
  -2   2   3 36985.1 1253.87   2
  -2   2   2 153115. 3958.16   1
  -2   2   2 161057. 4072.28   2
   2  -2  -2 157887. 4073.88   2
   2  -2  -1 60638.8 1757.61   2
  -2   2   1 58693.4 1746.70   2
   2  -2   0 153653. 3953.07   2
  -2   2   0 154785. 3956.81   2
   2  -2   1 63835.1 1809.84   2
  -2   2  -1 63947.7 1808.70   2
  -2   2  -2 6252.78 347.136   2
   2  -2   2 6208.20 344.797   2
  -2   2  -3 21679.3 755.240   2
  -2   2  -3 21375.8 846.915   1
   2  -2   3 20643.3 735.675   2
  -2   2  -4 4502.06 273.597   2
  -2   2  -4 4078.85 347.326   1
   2  -2   4 4362.47 263.148   2
  -2   2  -5 61300.2 1973.97   1
   2  -2   5 59406.0 1641.42   2
  -2   2  -6 2235.75 296.043   1
   2  -2   6 2033.42 157.208   2
   2  -2   7 66.3410 28.5188   2
   2  -2   7 41.7454 26.9213   3
  -2   2  -7-10.2002 67.5398   1
   2  -2   8 0.17124 30.2456   3
  -2   2  -8-133.103 150.926   1
   2  -2   9 13108.6 458.612   3
  -2   2  -9 13763.8 939.216   1
   2  -2   9 14105.9 464.703   3
  -2   2 -10 5407.19 609.269   1
  -2   2 -11 19980.6 1312.73   1
  -2   2 -12 2055.01 424.573   1
   2  -1 -13 1634.87 371.471   1
   2  -1 -12 5592.66 654.982   1
   2  -1 -11 5022.47 593.638   1
   2  -1 -10 1333.75 301.526   1
  -2   1  10 1377.92 221.538   2
   2  -1 -10 1413.47 183.279   3
   2  -1  -9 24692.0 934.040   3
   2  -1  -9 23916.7 1237.85   1
  -2   1   9 24625.0 1046.85   2
   2  -1  -8 19241.7 785.227   3
   2  -1  -8 18418.0 1004.15   1
  -2   1   8 19447.1 877.777   2
  -2   1   7 31253.0 1321.37   1
   2  -1  -7 31083.4 1092.99   3
  -2   1   7 31312.2 1181.76   2
   2  -1  -7 32369.7 1325.47   1
  -2   1   6 1996.92 235.186   2
  -2   1   6 2209.28 274.447   1
   2  -1  -6 2203.34 214.031   3
   2  -1  -6 2288.54 291.312   1
  -2   1   5 99953.3 2736.32   2
   2  -1  -5 99221.0 2656.45   3
  -2   1   5 95390.1 2810.80   1
   2  -1  -5 94507.5 2776.25   1
  -2   1   4 704.060 133.084   2
   2  -1  -4 654.144 116.229   3
  -2   1   4 580.057 129.446   1
   2  -1  -4 428.599 106.562   1
   2  -1  -3 78415.5 2174.36   3
  -2   1   3 78360.0 2193.53   2
  -2   1   3 76928.8 2196.12   1
   2  -1  -2 308.898 94.8661   2
  -2   1   2 497.666 98.8086   2
  -2   1   2 560.541 105.408   1
   2  -1  -2 444.474 112.231   3
   2  -1  -1 54571.0 1559.72   2
  -2   1   1 52651.3 1551.93   2
   2  -1   0 17986.8 656.172   2
  -2   1   0 17781.1 653.284   2
   2  -1   1 81379.8 2137.33   2
  -2   1  -1 79915.6 2132.54   2
   2  -1   2 27111.7 847.140   2
  -2   1  -2 27977.0 849.802   2
  -2   1  -3 801.022 95.1298   2
   2  -1   3 843.009 94.0628   2
  -2   1  -4 20729.6 629.063   2
   2  -1   4 19683.6 613.274   2
  -2   1  -4 21474.6 905.234   1
   2  -1   5 11590.6 470.651   3
  -2   1  -5 12317.9 687.741   1
   2  -1   6 53715.1 1458.75   3
  -2   1  -6 53544.0 1889.09   1
   2  -1   7 5212.48 239.053   3
   2  -1   7 5204.46 230.794   3
  -2   1  -7 6199.52 535.632   1
  -2   1  -8 2095.67 332.924   1
  -2   1  -9 1110.78 264.030   1
  -2   1 -10 47349.4 2078.39   1
  -2   1 -11 517.860 219.238   1
  -2   1 -12 17488.0 1272.80   1
   2   0 -13 4892.81 648.379   1
   2   0 -12 4360.53 585.532   1
   2   0 -11 51876.8 1631.85   3
   2   0 -11 51995.1 2202.66   1
   2   0 -10 4625.02 528.514   1
   2   0 -10 4724.72 354.424   3
  -2   0  10 3992.54 380.284   2
   2   0  -9 11374.6 572.238   3
  -2   0   9 10083.2 613.167   2
   2   0  -9 9761.85 750.452   1
   2   0  -8 32212.8 1140.49   3
  -2   0   8 32570.0 1235.10   2
   2   0  -8 32173.7 1411.02   1
  -2   0   7 17053.6 917.921   1
   2   0  -7 17818.9 744.782   3
  -2   0   7 17438.5 797.756   2
   2   0  -7 16553.2 898.372   1
  -2   0   6 105310. 3139.58   1
  -2   0   6 108365. 2925.63   3
   2   0  -6 108401. 2906.44   3
  -2   0   6 108915. 2988.29   2
   2   0  -6 102306. 3095.72   1
   2   0  -5 59978.3 1932.47   1
  -2   0   5 62044.5 1822.71   3
   2   0  -5 61325.9 1804.13   3
  -2   0   5 62042.7 1981.57   1
   2   0  -4 21260.9 810.064   3
   2   0  -4 22809.3 897.750   1
  -2   0   4 21244.3 818.415   3
  -2   0   4 22002.1 900.223   1
   2   0  -3 63.3370 61.3428   3
  -2   0   3 80.8517 49.1870   3
  -2   0   3-17.8111 61.8119   1
  -2   0   2 53565.7 1584.86   1
   2   0  -2 52028.9 1563.61   3
  -2   0   2 55004.6 1571.51   3
  -2   0   1 4096.56 274.068   3
   2   0  -1 3485.02 257.451   3
   2   0   0 43910.9 1322.45   3
  -2   0   0 45995.7 1341.08   3
   2   0   1 10366.5 453.367   3
  -2   0  -1 10524.1 463.679   3
   2   0   2 8347.20 385.524   3
  -2   0  -2 8326.17 341.321   2
   2   0   3 1400.84 135.709   3
  -2   0  -3 1254.78 102.655   2
   2   0   4 48722.7 1346.33   3
  -2   0  -4 49579.6 1640.96   1
  -2   0  -4 48455.1 1218.45   2
   2   0   5 23955.2 724.654   3
  -2   0  -5 22796.5 1026.11   1
   2   0   6 21826.6 621.161   3
  -2   0  -6 22491.6 1062.80   1
  -2   0  -7 8897.79 659.563   1
  -2   0  -8 7150.27 629.797   1
  -2   0  -9 38570.8 1754.74   1
  -2   0 -10 4680.95 572.758   1
  -2   0 -11 15529.0 1140.75   1
   2   1 -13-86.4634 156.746   1
   2   1 -12 17714.9 1214.40   1
   2   1 -11 2617.44 280.039   3
   2   1 -11 2289.15 396.034   1
   2   1 -10 39221.1 1354.88   3
  -2  -1  10 34259.9 1388.95   2
   2   1 -10 36401.2 1687.56   1
   2   1  -9 2875.43 293.326   3
  -2  -1   9 3153.60 300.405   3
   2   1  -9 3009.57 401.840   1
   2   1  -8 33541.5 1220.93   3
  -2  -1   8 34035.0 1217.97   3
   2   1  -8 32924.7 1448.51   1
  -2  -1   7 1369.03 237.262   1
   2   1  -7 1094.42 167.949   3
  -2  -1   7 1485.24 193.437   3
   2   1  -7 1246.12 238.084   1
  -2  -1   6 5691.05 387.400   3
  -2  -1   6 6578.25 501.692   1
   2   1  -6 6249.88 407.937   3
   2   1  -6 5399.94 456.757   1
   2   1  -5 34825.1 1307.08   1
   2   1  -5 36182.1 1212.35   3
  -2  -1   5 34479.9 1200.09   3
  -2  -1   5 36099.2 1338.78   1
   2   1  -4 4355.72 352.811   1
  -2  -1   4 4121.75 314.026   3
   2   1  -4 4630.87 333.770   3
  -2  -1   4 4650.16 367.569   1
  -2  -1   3 367.260 102.477   1
   2   1  -3 212.647 83.8612   3
  -2  -1   3 256.660 87.1807   3
  -2  -1   2 21408.7 806.303   3
   2   1  -2 21440.1 814.542   3
   2   1  -1 158.838 81.2247   3
  -2  -1   1 213.907 67.2678   3
   2   1   0 4917.32 314.501   3
  -2  -1   0 4604.31 303.192   3
   2   1   1 71257.0 1959.46   3
  -2  -1  -1 69970.7 1951.91   3
  -2  -1  -2 3375.39 236.156   3
   2   1   2 3677.72 250.239   3
   2   1   3 68970.6 1821.14   3
  -2  -1  -3 63651.2 1798.28   3
  -2  -1  -4 9063.37 397.191   3
   2   1   4 9433.62 408.998   3
  -2  -1  -4 10590.5 601.052   1
   2   1   5 95195.0 2463.64   3
  -2  -1  -5 101182. 2911.28   1
   2   1   6 4902.99 213.469   3
  -2  -1  -6 4731.22 451.572   1
  -2  -1  -7 36469.4 1535.33   1
  -2  -1  -8 4409.28 491.416   1
  -2  -1  -9 12391.1 907.375   1
  -2  -1 -10 24570.6 1404.55   1
  -2  -1 -11 6427.98 714.572   1
   2   2 -12 2795.31 475.608   1
   2   2 -11 53492.4 1821.40   3
   2   2 -11 49954.2 2198.32   1
   2   2 -10 2161.79 278.301   3
   2   2 -10 1686.44 325.121   1
  -2  -2  10 2006.25 261.931   3
  -2  -2   9 2954.61 309.041   3
   2   2  -9 3032.25 319.039   3
   2   2  -9 3498.89 431.797   1
   2   2  -8 938.779 174.553   3
  -2  -2   8 1090.51 188.118   3
   2   2  -8 1084.42 238.308   1
   2   2  -7 37365.7 1321.56   3
  -2  -2   7 35923.6 1470.73   1
  -2  -2   7 33668.8 1263.21   3
   2   2  -7 30562.1 1362.16   1
  -2  -2   6 20.1129 62.7634   1
   2   2  -6 87.1884 81.4188   3
  -2  -2   6 59.3996 38.9702   3
   2   2  -6 81.5254 111.561   1
   2   2  -5 28591.9 1142.48   1
   2   2  -5 27560.6 1084.68   3
  -2  -2   5 27397.8 1071.40   3
  -2  -2   5 29086.4 1172.89   1
   2   2  -4 797.104 153.085   3
  -2  -2   4 1085.80 187.806   1
  -2  -2   4 765.116 142.488   3
  -2  -2   3 310.827 81.9050   1
   2   2  -3 427.578 116.161   3
  -2  -2   3 323.334 84.3229   3
  -2  -2   2 110750. 3095.20   3
  -2  -2   2 114735. 3081.18   1
   2   2  -2 116805. 3122.89   3
   2   2  -1 32226.6 1118.48   3
  -2  -2   1 30821.7 1104.16   3
   2   2   0 28684.7 1023.24   3
  -2  -2   0 28360.2 1015.48   3
   2   2   1 26384.8 941.605   3
  -2  -2  -1 24348.4 911.006   3
   2   2   2 71907.7 2042.38   3
  -2  -2  -2 70892.7 2018.54   3
   2   2   3 72.8498 50.2515   3
  -2  -2  -3 82.7043 47.2113   3
   2   2   4 75984.6 2144.58   3
  -2  -2  -4 78596.9 2090.05   2
  -2  -2  -4 78064.4 2123.42   3
   2   2   5 702.004 106.876   3
  -2  -2  -5 714.018 170.480   1
  -2  -2  -5 877.858 102.650   2
  -2  -2  -5 667.695 100.065   3
  -2  -2  -6 33909.3 1019.79   3
  -2  -2  -6 34777.5 1445.93   1
  -2  -2  -6 36080.2 956.660   2
  -2  -2  -7 1045.18 228.052   1
  -2  -2  -8 10510.7 794.301   1
  -2  -2  -9 3690.21 486.709   1
  -2  -2 -10 4681.29 590.008   1
  -2  -2 -11 845.227 261.131   1
   2   3 -12 5167.42 638.626   1
   2   3 -11 6093.96 525.014   3
   2   3 -11 5595.51 639.896   1
   2   3 -10 11198.1 725.116   3
  -2  -3  10 10706.7 685.569   3
   2   3 -10 10545.1 835.187   1
   2   3  -9 621.714 187.728   1
   2   3  -9 685.190 172.432   3
  -2  -3   9 534.688 134.704   3
   2   3  -8 6876.72 593.822   1
  -2  -3   8 6552.04 505.422   3
   2   3  -8 7253.05 547.754   3
   2   3  -7 29.5804 52.9831   3
  -2  -3   7-14.5404 61.0196   3
   2   3  -7-25.5753 88.1298   1
   2   3  -6 3907.56 379.162   3
   2   3  -6 3480.52 375.319   1
  -2  -3   6 3844.49 370.456   3
  -2  -3   6 4364.49 419.154   1
   2   3  -5 855.565 167.381   1
   2   3  -5 1338.48 218.819   3
  -2  -3   5 1123.99 190.523   3
  -2  -3   5 1142.77 199.381   1
   2   3  -4 66274.5 2156.77   3
  -2  -3   4 70508.0 2157.21   3
  -2  -3   4 68452.6 2137.58   1
   2   3  -3 234.601 105.779   3
  -2  -3   3 164.794 83.5534   3
  -2  -3   3 192.632 65.4869   1
  -2  -3   2 45564.9 1471.71   1
  -2  -3   2 45012.5 1537.00   3
   2   3  -2 44944.3 1555.77   3
   2   3  -1 3654.76 334.927   3
  -2  -3   1 3945.64 337.630   3
   2   3   0 44846.6 1493.69   3
  -2  -3   0 42000.2 1454.84   3
   2   3   1 99341.0 2835.85   3
  -2  -3  -1 100767. 2819.05   3
   2   3   2 63263.2 1934.69   3
  -2  -3  -2 61695.1 1893.59   3
   2   3   3 22067.3 902.689   3
  -2  -3  -3 22511.6 880.510   2
  -2  -3  -3 22296.1 881.101   3
   2   3   4 5236.86 379.773   3
  -2  -3  -4 5468.82 367.536   3
  -2  -3  -4 5719.14 369.518   2
  -2  -3  -4 5874.04 450.527   1
  -2  -3  -5 8813.96 453.967   2
  -2  -3  -5 9408.35 481.279   3
   2   3   5 9282.67 502.065   3
  -2  -3  -5 9300.16 623.139   1
  -2  -3  -6 1223.93 234.060   1
  -2  -3  -6 1368.45 157.911   3
  -2  -3  -6 1690.84 167.472   2
  -2  -3  -7 31327.7 977.508   3
  -2  -3  -7 32564.6 970.900   2
  -2  -3  -7 33629.1 1470.06   1
  -2  -3  -8-75.8444 94.4266   1
  -2  -3  -9 9630.07 813.308   1
  -2  -3 -10 329.380 134.314   1
  -2  -3 -11 6501.28 731.710   1
   2   4 -12 6202.29 704.235   1
   2   4 -11 9843.46 852.302   1
   2   4 -11 9481.49 723.814   3
   2   4 -10 12279.3 915.968   1
   2   4 -10 11525.8 802.413   3
   2   4  -9 961.793 225.704   3
   2   4  -9 1179.74 260.735   1
   2   4  -8 939.527 222.425   1
   2   4  -8 928.611 203.347   3
   2   4  -7 33769.1 1429.74   3
   2   4  -7 32602.9 1410.23   1
   2   4  -6 3617.46 400.181   3
   2   4  -6 3506.93 381.573   1
  -2  -4   6 4063.05 410.171   1
  -2  -4   5 47181.5 1738.20   3
   2   4  -5 47275.7 1773.91   3
  -2  -4   5 50665.3 1756.59   1
  -2  -4   4 150.360 82.6544   3
  -2  -4   4 112.773 74.7142   1
   2   4  -3 75153.1 2409.90   3
  -2  -4   3 73972.1 2359.59   3
  -2  -4   3 73652.5 2239.89   1
   2   4  -2 6590.65 516.736   3
  -2  -4   2 7300.34 456.233   1
  -2  -4   2 6441.00 491.601   3
   2   4  -1 22851.8 1044.07   3
  -2  -4   1 23206.4 1025.17   3
   2   4   0 2180.41 278.212   3
  -2  -4   0 1910.69 255.808   3
   2   4   1 28360.6 1164.65   3
  -2  -4  -1 26172.1 1101.62   3
  -2  -4  -2 54983.9 1777.72   3
  -2  -4  -2 51376.1 1761.86   2
   2   4   2 52166.4 1800.92   3
   2   4   3 10763.2 647.233   3
  -2  -4  -3 10855.3 616.410   3
  -2  -4  -3 10958.3 618.380   2
  -2  -4  -4 2520.94 273.626   3
   2   4   4 2369.07 278.639   3
  -2  -4  -4 2245.56 258.999   2
  -2  -4  -4 3330.32 348.352   1
  -2  -4  -5 7198.14 466.405   2
  -2  -4  -5 7203.14 471.029   3
  -2  -4  -5 8247.37 590.483   1
  -2  -4  -6 6918.37 434.751   2
  -2  -4  -6 6650.98 430.362   3
  -2  -4  -6 7184.62 585.800   1
  -2  -4  -7 441.041 104.120   2
  -2  -4  -7 335.138 149.165   1
  -2  -4  -8 11099.8 842.760   1
  -2  -4  -9 1226.69 305.098   1
  -2  -4 -10 4902.36 610.100   1
   2   5 -12 220.362 154.797   1
   2   5 -11 4272.14 508.210   3
   2   5 -11 4024.67 541.414   1
   2   5 -10 9289.73 765.235   3
   2   5 -10 10538.1 847.275   1
   2   5  -9 10986.0 826.875   1
   2   5  -9 10647.0 815.483   3
   2   5  -8 6818.99 632.117   3
   2   5  -8 7196.18 621.825   1
   2   5  -7 10467.8 782.006   3
   2   5  -6 1471.47 281.866   3
   2   5  -5 6397.67 575.450   3
  -2  -5   5 5799.00 495.018   1
   2   5  -4 56619.2 2098.24   3
  -2  -5   4 57439.7 1915.92   1
   2   5  -3 7987.22 630.272   3
  -2  -5   3 8019.64 522.496   1
  -2  -5   2 14822.0 721.933   1
   2   5  -2 14685.4 876.846   3
  -2  -5   1 3206.88 297.314   1
   2   5  -1 3187.99 381.358   3
   2   5   0 16362.3 923.140   3
   2   5   1 4236.36 438.265   3
  -2  -5  -1 5047.24 460.408   2
   2   5   2 43643.8 1682.05   3
  -2  -5  -2 42377.3 1622.94   2
  -2  -5  -2 44610.7 1639.46   3
   2   5   3 7.91109 82.3540   3
  -2  -5  -3-30.4100 51.3290   3
  -2  -5  -3 91.8532 83.1347   2
  -2  -5  -4 7291.73 534.728   3
  -2  -5  -4 7976.59 566.341   2
  -2  -5  -4 7568.26 552.948   1
  -2  -5  -5 2993.87 325.602   2
  -2  -5  -5 2534.69 330.561   1
  -2  -5  -5 2478.86 297.088   3
  -2  -5  -6 13327.1 723.539   2
  -2  -5  -6 13174.9 837.204   1
  -2  -5  -7 12373.2 856.083   1
  -2  -5  -8 5597.82 588.159   1
  -2  -5  -9 2120.58 389.617   1
  -2  -5 -10 459.656 180.441   1
   2   6 -11 240.377 105.961   1
   2   6 -10 14973.4 1051.01   3
   2   6 -10 14412.6 1025.13   1
   2   6  -9 292.790 133.874   3
   2   6  -8 9141.84 790.720   3
   2   6  -7 12450.4 915.861   3
   2   6  -6 18633.8 1139.38   3
  -2  -6   5 5544.19 487.547   1
   2   6  -5 6102.03 611.752   3
   2   6  -4 8993.27 745.096   3
  -2  -6   4 8761.91 594.987   1
   2   6  -3 13998.5 947.875   3
  -2  -6   3 15018.9 771.730   1
   2   6  -2 2316.55 366.140   3
  -2  -6   2 2312.31 266.068   1
   2   6  -1 10292.9 784.606   3
  -2  -6   1 11222.3 608.481   1
  -2  -6   1 11082.8 790.022   2
   2   6   0 3935.17 463.238   3
  -2  -6   0 3075.32 400.315   2
   2   6   1 35775.0 1543.13   3
  -2  -6  -1 30039.6 1405.87   2
  -2  -6  -2 873.049 204.087   2
  -2  -6  -3 13254.2 842.803   2
  -2  -6  -3 14021.5 757.695   1
  -2  -6  -4 1684.81 253.891   1
  -2  -6  -4 1987.50 300.389   2
  -2  -6  -5 4898.30 466.298   2
  -2  -6  -5 4924.55 469.344   1
  -2  -6  -6 1640.36 265.885   2
  -2  -6  -6 1607.43 283.805   1
  -2  -6  -7 5298.97 549.461   1
  -2  -6  -8 699.187 214.464   1
  -2  -7  10 22.4315 82.9423   2
  -2  -7   9 10031.3 887.482   2
   2   7  -8 2312.60 414.302   3
   2   7  -7 8758.28 817.858   3
   2   7  -6 881.321 264.043   3
  -2  -7   6 778.248 220.964   2
   2   7  -5 11979.7 938.087   3
  -2  -7   5 10211.6 866.153   2
   2   7  -4 9384.87 819.516   3
  -2  -7   4 8918.17 785.388   2
  -2  -7   3 27615.5 1440.08   2
  -2  -7   3 25200.9 1088.53   1
   2   7  -3 24949.7 1408.75   3
  -2  -7   2 1103.77 179.551   1
   2   7  -2 1334.23 309.982   3
  -2  -7   2 1546.43 325.921   2
  -2  -7   1 5738.64 599.332   2
   2   7  -1 4524.00 549.036   3
  -2  -7   0 9138.30 755.184   2
  -2  -7  -1 3310.94 446.265   2
  -2  -7  -2 16988.5 1065.77   2
  -2  -7  -2 18832.1 864.279   1
  -2  -7  -3 7401.94 653.512   2
  -2  -7  -3 6130.64 474.523   1
  -2  -7  -4 2580.97 376.443   2
  -2  -7  -5-35.2222 92.1635   2
  -2  -8   7 14.4835 118.021   2
  -2  -8   6 17570.0 1225.22   2
  -2  -8   5 122.358 118.639   2
  -2  -8   4 10475.8 902.578   2
  -2  -8   3 1181.75 326.091   2
  -2  -8   2 12814.7 987.297   2
  -2  -8   1 3648.91 510.146   2
  -2  -8   0 4398.80 562.709   2
  -2  -8  -1 1953.16 370.743   2
  -2  -8  -2 508.839 162.064   2
  -2  -8  -3 1376.64 293.735   2
  -2  -8  -4 731.406 228.771   2
  -2  -8  -5 1967.47 355.927   2
   3  -9  -2 4592.45 590.161   2
   3  -9  -1 227.402 163.788   2
   3  -9   0 5171.32 628.112   2
   3  -9   1 88.3351 96.3130   2
   3  -9   2 16103.9 1134.60   2
   3  -9   3-59.2613 107.219   2
   3  -9   4 3509.21 509.949   2
   3  -9   5 1983.45 380.133   2
   3  -9   6 7804.19 770.572   2
   3  -8  -7 1722.16 343.562   2
   3  -8  -6 2940.51 454.466   2
   3  -8  -5 3585.16 509.386   2
   3  -8  -4 14333.0 1044.26   2
   3  -8  -3 8856.36 790.719   2
   3  -8  -2 3707.09 498.861   2
   3  -8  -1 8106.82 740.124   2
   3  -8   0 1030.85 272.001   2
   3  -8   1 15068.4 1036.68   2
   3  -8   2-199.819 134.783   2
   3  -8   3 21088.4 1248.72   2
   3  -8   4 32.0089 106.089   2
   3  -8   5 5238.17 585.356   2
   3  -8   6 54.1738 82.8708   2
   3  -8   7 2354.26 402.002   2
   3  -8   8 2474.04 394.364   2
   3  -7  -9 12117.6 928.399   2
   3  -7  -8 279.389 140.438   2
   3  -7  -7 5439.64 598.194   2
   3  -7  -6 1844.33 352.359   2
   3  -7  -5 7069.44 667.561   2
   3  -7  -4 4414.92 515.648   2
   3  -7  -3 30408.9 1490.16   2
   3  -7  -2 3769.48 467.417   2
   3  -7  -1-77.9325 93.8521   2
   3  -7   0 5691.08 579.348   2
   3  -7   1 11089.0 808.051   2
  -3   7  -2 11778.1 458.296   1
   3  -7   2 11618.8 829.321   2
  -3   7  -3 3544.62 278.589   1
   3  -7   3 3300.39 424.383   2
  -3   7  -4 7807.27 487.961   1
   3  -7   4 6571.70 620.822   2
  -3   7  -5 219.802 109.072   1
   3  -7   5-54.8980 120.271   2
  -3   7  -6 17106.6 902.025   1
   3  -7   6 12564.2 883.546   2
  -3   7  -7 76.9905 81.0723   1
   3  -7   7 328.348 120.548   2
  -3   7  -8 8762.86 718.192   1
   3  -7   8 8353.93 688.339   2
  -3   7  -9 1800.56 335.685   1
   3  -6  -9 2690.51 403.960   2
   3  -6  -8 16632.0 1046.05   2
   3  -6  -7 86.4256 148.524   2
   3  -6  -6 16437.2 1016.69   2
   3  -6  -5 1097.24 239.244   2
   3  -6  -4 21332.9 1151.99   2
  -3   6   4 22165.5 785.639   1
  -3   6   3 2305.62 169.131   1
   3  -6  -3 2086.11 328.410   2
  -3   6   2 15070.7 483.647   1
   3  -6  -2 13053.9 858.202   2
  -3   6   1 6735.66 267.976   1
  -3   6   1 6717.64 262.539   1
   3  -6  -1 6479.01 570.503   2
  -3   6   0 15478.9 514.573   1
   3  -6   0 14196.0 872.922   2
  -3   6   0 14812.5 510.593   1
   3  -6   1 1902.20 298.218   2
  -3   6  -1 2011.24 172.380   1
   3  -6   2 2361.95 335.447   2
  -3   6  -2 3056.20 248.989   1
  -3   6  -3 15272.5 691.717   1
   3  -6   3 12841.9 824.285   2
  -3   6  -4 5478.94 423.169   1
   3  -6   4 5030.75 485.443   2
  -3   6  -5 12081.6 707.449   1
   3  -6   5 10629.2 735.092   2
  -3   6  -6 1791.44 287.453   1
   3  -6   6 1641.98 274.048   2
  -3   6  -7 14614.9 895.297   1
   3  -6   7 11785.0 769.486   2
   3  -6   8 63.4134 85.4281   2
  -3   6  -8 95.8912 99.3695   1
  -3   6  -9 38025.4 1787.91   1
  -3   6 -10 77.8687 111.478   1
  -3   6 -11 3897.67 559.726   1
   3  -5 -11 2881.02 430.525   1
   3  -5 -10 5700.39 568.382   1
   3  -5  -9 8867.10 674.074   1
   3  -5  -9 8932.52 652.792   3
   3  -5  -9 7834.87 671.045   2
   3  -5  -8 5177.32 475.261   1
   3  -5  -8 4937.31 514.470   2
   3  -5  -7 7733.33 641.569   2
  -3   5   7 7679.73 556.505   1
   3  -5  -6 551.878 161.240   2
  -3   5   6 991.789 179.083   1
  -3   5   5 14510.5 700.395   1
   3  -5  -5 14560.1 877.861   2
  -3   5   4 1802.62 204.734   1
   3  -5  -4 2061.80 302.723   2
  -3   5   3 10145.6 495.553   1
   3  -5  -3 11116.4 721.512   2
   3  -5  -2 2664.78 334.187   2
  -3   5   2 2509.76 210.630   1
  -3   5   1 246.138 66.4795   1
   3  -5  -1 395.575 144.073   2
   3  -5   0 1022.78 199.670   2
  -3   5  -1 40158.6 1240.35   1
   3  -5   1 36883.1 1479.59   2
   3  -5   2 991.586 194.876   2
  -3   5  -2 1431.95 181.666   1
  -3   5  -2 1555.69 250.589   2
  -3   5  -3 41113.8 1558.56   2
  -3   5  -3 39834.7 1382.19   1
   3  -5   3 40096.4 1528.15   2
  -3   5  -4 12147.7 728.214   2
  -3   5  -4 11031.2 643.991   1
   3  -5   4 11848.1 703.727   2
  -3   5  -5 19643.1 970.136   2
   3  -5   5 18889.6 931.236   2
  -3   5  -5 19066.5 946.660   1
  -3   5  -6 22982.7 1111.57   1
   3  -5   6 21522.3 1009.66   2
  -3   5  -7 10179.0 743.216   1
   3  -5   7 10311.2 641.774   2
  -3   5  -8 18142.3 1079.04   1
   3  -5   8 16781.4 841.357   2
  -3   5  -9 6251.72 645.653   1
  -3   5 -10 27130.5 1526.11   1
  -3   5 -11 407.261 227.403   1
   3  -4 -12 75.8978 153.222   1
   3  -4 -11 21200.9 1250.32   1
   3  -4 -10 513.874 148.606   3
   3  -4 -10 767.148 208.754   1
   3  -4  -9 3352.46 417.495   1
   3  -4  -9 3867.63 392.447   3
   3  -4  -8 4443.13 447.271   1
   3  -4  -8 4180.12 418.730   3
  -3   4   7 13476.4 788.828   1
   3  -4  -7 14583.9 802.599   1
   3  -4  -7 13770.8 831.400   2
  -3   4   6 6205.94 483.197   1
   3  -4  -6 5795.13 510.923   2
  -3   4   5 9091.35 567.917   1
   3  -4  -5 10746.1 682.517   2
  -3   4   4 3324.27 302.503   1
   3  -4  -4 2963.89 344.552   2
   3  -4  -3 110.880 96.1592   2
  -3   4   3 213.999 104.756   2
  -3   4   3 87.7426 59.8865   1
  -3   4   2 67557.5 2151.62   2
   3  -4  -2 64979.6 2116.85   2
  -3   4   2 62281.2 1845.54   1
  -3   4   1 5902.49 467.462   2
   3  -4  -1 5076.98 432.517   2
  -3   4   0 40188.4 1472.77   2
   3  -4   0 38878.8 1452.58   2
   3  -4   1 101.872 75.0186   2
  -3   4  -1 221.859 99.0866   2
  -3   4  -2 27801.1 1134.37   2
   3  -4   2 27423.8 1117.84   2
  -3   4  -3 16143.1 800.296   2
  -3   4  -3 15815.7 748.680   1
   3  -4   3 15075.0 762.270   2
  -3   4  -4 114397. 3190.88   2
  -3   4  -4 111832. 3198.18   1
   3  -4   4 108351. 3140.09   2
  -3   4  -5 3044.56 310.258   2
  -3   4  -5 3089.70 349.834   1
   3  -4   5 3383.14 318.615   2
   3  -4   6 16877.0 786.351   2
  -3   4  -6 16350.2 920.909   1
  -3   4  -7 5680.72 545.655   1
   3  -4   7 5861.11 478.028   3
   3  -4   7 5479.55 401.546   2
  -3   4  -8 4492.17 516.234   1
   3  -4   8 5371.85 379.787   2
  -3   4  -9 18264.7 1152.61   1
  -3   4 -10 6448.84 695.628   1
  -3   4 -11 358.400 151.230   1
   3  -3 -12 9095.63 838.846   1
   3  -3 -11 792.102 254.088   1
   3  -3 -10 2628.34 397.742   1
   3  -3 -10 2092.11 272.605   3
   3  -3  -9 1373.81 271.130   1
   3  -3  -9 1765.18 247.345   3
   3  -3  -8 12750.4 809.982   1
   3  -3  -8 13784.3 750.580   3
  -3   3   7 218.302 99.5794   1
   3  -3  -7 61.0646 67.8752   1
   3  -3  -7 61.7215 67.0278   3
   3  -3  -6 15273.0 789.400   1
  -3   3   6 14190.7 793.661   1
   3  -3  -6 15273.1 789.690   3
   3  -3  -6 14005.6 794.611   2
  -3   3   5 3233.81 329.253   1
   3  -3  -5 4083.31 387.088   2
  -3   3   5 3552.39 364.141   2
   3  -3  -4 955.777 181.765   2
  -3   3   4 1460.81 223.921   2
  -3   3   4 1003.84 170.335   1
   3  -3  -3 10251.8 616.971   2
  -3   3   3 10616.6 554.533   1
  -3   3   3 11111.4 639.878   2
  -3   3   2 60122.3 1829.61   1
   3  -3  -2 62657.2 1989.44   2
  -3   3   2 64781.0 2011.86   2
   3  -3  -1 72512.4 2264.30   2
  -3   3   1 76748.7 2288.04   2
   3  -3   0 18464.5 839.448   2
  -3   3   0 19594.2 857.297   2
  -3   3  -1 115480. 3218.41   2
   3  -3   1 115866. 3204.78   2
  -3   3  -2 21566.2 889.393   2
   3  -3   2 20795.2 873.286   2
  -3   3  -3 51280.9 1637.64   2
   3  -3   3 52291.5 1642.13   2
   3  -3   4-51.8938 53.1111   2
  -3   3  -4-25.8592 71.4349   1
  -3   3  -4 111.069 71.7195   2
  -3   3  -5 36629.9 1259.58   2
  -3   3  -5 38148.8 1474.11   1
   3  -3   5 38112.7 1258.50   2
   3  -3   6 1612.95 186.952   2
  -3   3  -6 1802.24 285.901   1
   3  -3   7 24550.8 881.167   2
  -3   3  -7 26030.5 1265.46   1
   3  -3   8 136.692 56.0744   2
   3  -3   8 78.5614 73.7343   3
  -3   3  -8-100.992 118.914   1
  -3   3  -9 8491.27 764.484   1
  -3   3 -10 8757.89 817.329   1
  -3   3 -11 1854.50 386.070   1
   3  -2 -12 8483.28 812.060   1
   3  -2 -11 10455.1 853.046   1
   3  -2 -11 9517.44 595.482   3
   3  -2 -10 361.110 156.839   1
   3  -2 -10 223.346 84.8908   3
   3  -2  -9 114.318 112.502   1
   3  -2  -9 11.3925 46.4122   3
   3  -2  -8 73.1344 52.2255   3
   3  -2  -8 61.8385 72.1702   1
  -3   2   7 86265.0 2848.98   1
   3  -2  -7 91304.8 2678.96   3
   3  -2  -7 92384.1 2838.44   1
  -3   2   7 91505.7 2797.14   2
  -3   2   6 1321.16 222.500   2
   3  -2  -6 1024.30 192.010   1
  -3   2   6 1019.60 211.169   1
   3  -2  -6 869.281 168.045   3
   3  -2  -5 51592.2 1721.34   3
  -3   2   5 51518.9 1769.73   1
  -3   2   5 52940.7 1778.13   2
   3  -2  -4 2853.71 297.496   3
  -3   2   4 2991.00 304.087   1
  -3   2   4 3317.50 329.155   2
  -3   2   3 40116.6 1360.53   1
   3  -2  -3 38689.2 1395.88   2
  -3   2   3 40242.1 1411.41   2
   3  -2  -2 98259.5 2807.26   2
  -3   2   2 99208.7 2817.74   2
   3  -2  -1 98146.9 2783.15   2
  -3   2   1 99642.0 2792.18   2
   3  -2   0 30889.1 1129.93   2
  -3   2   0 32962.5 1147.96   2
   3  -2   1 15466.5 694.633   2
  -3   2  -1 17000.6 716.994   2
   3  -2   2 35953.8 1186.60   2
  -3   2  -2 34520.0 1176.02   2
  -3   2  -3 4743.90 320.679   2
   3  -2   3 4321.44 304.869   2
  -3   2  -4 33442.2 1113.86   2
  -3   2  -4 36282.3 1363.62   1
   3  -2   4 35441.7 1128.23   2
  -3   2  -5 4328.70 281.443   2
   3  -2   5 3856.27 262.406   2
  -3   2  -5 3733.78 395.674   1
  -3   2  -6 5071.59 484.598   1
   3  -2   7 3120.37 263.342   3
  -3   2  -7 2755.32 382.243   1
   3  -2   8 9223.70 473.564   3
   3  -2   8 9761.69 462.555   3
  -3   2  -8 8412.55 720.445   1
  -3   2  -9 60.5150 84.0471   1
  -3   2 -10 13568.8 1033.80   1
  -3   2 -11-116.304 168.514   1
   3  -1 -12 5609.62 655.717   1
   3  -1 -11 3148.00 463.417   1
   3  -1 -11 3180.01 330.402   3
   3  -1 -10 6145.73 621.114   1
   3  -1 -10 6087.21 468.132   3
   3  -1  -9 684.473 208.074   1
   3  -1  -9 207.910 84.7375   3
   3  -1  -8 27938.5 1312.32   1
   3  -1  -8 29551.6 1165.86   3
   3  -1  -7 14251.8 823.073   1
   3  -1  -7 13345.3 703.312   3
  -3   1   7 13590.5 763.848   2
   3  -1  -6 40736.7 1437.33   3
   3  -1  -6 40968.1 1537.09   1
  -3   1   6 41200.7 1575.61   1
  -3   1   6 40116.0 1486.97   2
  -3   1   5 659.519 148.946   2
   3  -1  -5 535.295 121.342   3
  -3   1   5 521.597 134.190   1
   3  -1  -4 57130.5 1804.50   3
  -3   1   4 58369.0 1852.44   2
  -3   1   4 56309.3 1849.64   1
  -3   1   3 3733.34 325.724   1
  -3   1   3 3250.84 303.487   2
   3  -1  -3 3985.66 331.913   3
   3  -1  -2 155122. 4127.03   3
  -3   1   2 156533. 4127.96   2
  -3   1   1 463.278 108.387   2
   3  -1  -1 391.583 95.9752   3
   3  -1   0 19258.6 819.868   3
  -3   1   0 20703.3 808.159   2
   3  -1   1 30704.6 1080.92   3
  -3   1  -1 28799.4 1017.44   2
   3  -1   2 32242.5 1116.01   3
  -3   1  -2 31265.1 1041.49   2
  -3   1  -3 686.485 104.398   2
   3  -1   3 459.126 100.453   3
   3  -1   4 8407.85 454.358   3
  -3   1  -4 8305.60 386.216   2
  -3   1  -5 24986.8 763.174   2
   3  -1   5 23215.5 871.884   3
  -3   1  -5 25012.8 1144.05   1
   3  -1   6 11645.5 524.003   3
  -3   1  -6 11045.5 744.695   1
   3  -1   7 34428.1 1075.84   3
  -3   1  -7 35036.2 1552.04   1
   3  -1   8 2491.85 169.338   3
   3  -1   8 1901.55 142.781   3
  -3   1  -8 2027.70 348.229   1
  -3   1  -9 6600.43 675.325   1
  -3   1 -10 732.298 251.748   1
  -3   1 -11 19913.8 1344.11   1
   3   0 -12 15206.2 1112.95   1
   3   0 -11 4962.24 587.008   1
   3   0 -11 4531.71 407.272   3
   3   0 -10 8196.93 725.754   1
   3   0 -10 8518.92 573.095   3
   3   0  -9 6599.63 606.048   1
   3   0  -9 5353.99 438.248   3
   3   0  -8 24936.0 1242.14   1
   3   0  -8 27843.4 1122.89   3
   3   0  -7 89782.5 2902.40   1
   3   0  -7 93453.1 2744.06   3
  -3   0   7 94835.2 2821.84   2
   3   0  -6 30942.5 1291.04   1
   3   0  -6 30056.9 1184.24   3
  -3   0   6 32284.8 1341.45   1
  -3   0   6 31954.7 1253.41   2
   3   0  -5 19563.4 889.884   3
  -3   0   5 20980.5 928.393   3
  -3   0   5 21767.0 947.191   2
  -3   0   5 22610.3 1019.39   1
   3   0  -4 118.487 63.2437   3
  -3   0   4 216.874 90.4720   3
  -3   0   4 195.788 103.474   1
  -3   0   3 30979.5 1169.58   1
   3   0  -3 30038.6 1132.36   3
  -3   0   3 30368.4 1150.92   3
   3   0  -2 7195.04 457.269   3
  -3   0   2 7690.57 474.634   3
   3   0  -1 99716.8 2768.85   3
  -3   0   1 97646.8 2780.63   3
   3   0   0 7434.67 451.839   3
  -3   0   0 7535.81 457.851   3
  -3   0   0 7195.16 422.226   2
   3   0   1 37691.7 1268.89   3
  -3   0  -1 37914.5 1215.57   2
   3   0   2 14148.5 641.254   3
  -3   0  -2 14370.7 589.052   2
   3   0   3 3170.98 262.877   3
  -3   0  -3 2972.90 217.151   2
   3   0   4 7009.54 396.125   3
  -3   0  -4 6439.29 312.445   2
   3   0   5 32636.7 1055.97   3
  -3   0  -5 32210.6 1353.72   1
  -3   0  -5 31310.6 878.273   2
   3   0   6 19287.1 713.944   3
  -3   0  -6 22074.5 1095.51   1
   3   0   7 5540.93 279.919   3
  -3   0  -7 5277.50 541.360   1
  -3   0  -8 2965.59 417.816   1
  -3   0  -9 7214.95 718.147   1
  -3   0 -10 10317.8 902.518   1
  -3   0 -11 303.588 144.281   1
   3   1 -12 36.7922 124.613   1
   3   1 -11 13947.3 1029.95   1
   3   1 -11 13610.3 793.012   3
   3   1 -10 1801.97 273.604   3
   3   1 -10 1577.91 315.152   1
   3   1  -9 14473.1 947.610   1
   3   1  -9 14886.1 802.793   3
  -3  -1   9 14292.4 795.655   3
   3   1  -8 2913.77 324.064   3
   3   1  -8 2723.52 373.468   1
  -3  -1   8 2138.25 280.410   3
   3   1  -7 32483.8 1416.02   1
   3   1  -7 34580.7 1312.40   3
  -3  -1   7 32640.3 1295.04   3
   3   1  -6 5344.28 432.814   3
  -3  -1   6 5894.11 450.232   3
  -3  -1   6 6307.02 525.767   1
   3   1  -5 22687.8 986.501   3
  -3  -1   5 23639.6 1000.98   3
  -3  -1   5 23237.0 1070.49   1
   3   1  -4 35299.9 1307.59   3
  -3  -1   4 35408.8 1306.87   3
  -3  -1   4 36709.3 1369.21   1
  -3  -1   3 33485.3 1254.01   1
   3   1  -3 32519.4 1217.15   3
  -3  -1   3 32270.9 1206.45   3
   3   1  -2 17113.3 778.138   3
  -3  -1   2 16202.6 759.129   3
   3   1  -1 1288.04 192.231   3
  -3  -1   1 1269.44 184.843   3
   3   1   0 72950.7 2124.86   3
  -3  -1   0 68823.6 2098.01   3
   3   1   1 130.270 89.3871   3
  -3  -1  -1-31.6439 55.4844   3
   3   1   2 78882.5 2253.18   3
  -3  -1  -2 77170.4 2240.62   3
   3   1   3 17452.6 735.259   3
  -3  -1  -3 17450.3 732.935   3
   3   1   4 9672.29 492.919   3
  -3  -1  -4 9065.88 407.013   2
   3   1   5 14186.8 613.091   3
  -3  -1  -5 15682.5 877.218   1
  -3  -1  -5 14245.7 489.325   2
   3   1   6 44207.5 1325.91   3
  -3  -1  -6 42359.6 1737.64   1
   3   1   7 10989.3 437.991   3
  -3  -1  -7 11607.0 823.477   1
  -3  -1  -8 4766.00 561.625   1
  -3  -1  -9 116.326 106.711   1
  -3  -1 -10 2274.37 426.488   1
   3   2 -12 12578.3 1021.26   1
   3   2 -12 12198.2 788.295   3
   3   2 -11 2861.18 359.459   3
   3   2 -11 2773.62 456.864   1
   3   2 -10 33543.4 1668.10   1
   3   2 -10 37256.1 1504.60   3
   3   2  -9 334.720 170.871   1
   3   2  -9 154.002 87.5797   3
   3   2  -8 18275.2 944.444   3
   3   2  -8 17645.3 1026.53   1
   3   2  -7 11006.2 684.971   3
  -3  -2   7 10414.2 659.486   3
   3   2  -7 10995.8 743.340   1
   3   2  -6 41306.5 1500.24   3
  -3  -2   6 36377.1 1443.27   3
   3   2  -5 10808.5 660.504   3
  -3  -2   5 11372.2 674.486   3
  -3  -2   5 11839.9 718.187   1
   3   2  -4 29524.6 1196.06   3
  -3  -2   4 29094.1 1188.69   3
  -3  -2   4 29883.4 1219.05   1
  -3  -2   3 20692.8 935.361   1
   3   2  -3 19494.1 909.822   3
  -3  -2   3 20701.5 927.872   3
   3   2  -2 19358.5 880.236   3
  -3  -2   2 18908.0 871.150   3
   3   2  -1 41194.6 1458.59   3
  -3  -2   1 41712.9 1461.67   3
   3   2   0 21951.9 921.176   3
  -3  -2   0 19922.7 889.908   3
   3   2   1 25043.1 1016.28   3
  -3  -2  -1 25995.5 1019.41   3
   3   2   2 2868.05 281.341   3
  -3  -2  -2 2811.74 275.473   3
   3   2   3 4475.45 355.909   3
  -3  -2  -3 4630.23 348.004   3
   3   2   4 1214.68 179.509   3
  -3  -2  -4 1546.46 191.569   3
   3   2   5 24814.9 947.358   3
  -3  -2  -5 25241.7 845.596   2
  -3  -2  -5 24383.4 915.129   3
  -3  -2  -5 23624.4 1166.43   1
  -3  -2  -6 306.768 149.454   1
   3   2   6 79.6973 36.9764   3
  -3  -2  -6 125.836 33.2126   2
   3   2   7 7360.37 378.517   3
  -3  -2  -7 8253.65 698.968   1
  -3  -2  -8 41.0670 102.446   1
  -3  -2  -9 9922.13 860.745   1
  -3  -2 -10 6309.36 714.749   1
   3   3 -12 1439.62 342.353   1
   3   3 -12 1257.05 268.346   3
   3   3 -11 11426.2 802.939   3
   3   3 -11 10708.3 915.174   1
   3   3 -10 911.813 222.918   3
   3   3 -10 1124.59 286.919   1
   3   3  -9 26869.4 1392.18   1
   3   3  -9 27063.4 1284.18   3
   3   3  -8 4574.10 465.431   3
   3   3  -8 4557.32 498.749   1
   3   3  -7 20875.3 1063.83   3
   3   3  -6 25.2715 80.2215   3
   3   3  -5 35638.1 1487.54   3
  -3  -3   5 40887.0 1559.86   1
   3   3  -4 8697.39 611.229   3
  -3  -3   4 8123.25 582.211   3
  -3  -3   4 8548.99 589.065   1
  -3  -3   3 31084.1 1269.85   1
   3   3  -3 34253.5 1358.07   3
  -3  -3   3 32742.5 1322.08   3
   3   3  -2 87.5881 96.6350   3
  -3  -3   2 164.807 96.6926   3
   3   3  -1 10052.9 634.662   3
  -3  -3   1 9998.12 621.120   3
   3   3   0 7863.16 545.162   3
  -3  -3   0 7159.53 511.508   3
   3   3   1 20523.5 952.326   3
  -3  -3  -1 21154.3 944.487   3
   3   3   2 7975.09 535.211   3
  -3  -3  -2 7746.30 514.733   3
   3   3   3 6894.96 483.964   3
  -3  -3  -3 6372.37 455.300   3
   3   3   4 10033.5 595.347   3
  -3  -3  -4 9862.92 546.918   2
  -3  -3  -4 9226.59 552.117   3
  -3  -3  -5 594.364 175.945   1
   3   3   5 325.465 103.267   3
  -3  -3  -5 389.645 93.5685   2
  -3  -3  -5 283.855 96.6087   3
  -3  -3  -6 42132.8 1279.01   2
   3   3   6 38783.6 1387.22   3
  -3  -3  -6 41853.4 1362.57   3
  -3  -3  -6 41984.1 1742.38   1
  -3  -3  -7 1955.94 348.047   1
  -3  -3  -8 8196.29 749.410   1
  -3  -3  -9 10.4733 120.147   1
  -3  -3 -10 10393.6 931.864   1
   3   4 -12 4878.29 552.420   3
   3   4 -11 17037.2 1068.09   3
   3   4 -11 17642.5 1205.97   1
   3   4 -10 22948.9 1258.94   3
   3   4 -10 25491.8 1410.68   1
   3   4  -9 3545.79 448.586   3
   3   4  -8 7764.00 659.260   3
   3   4  -7 2.41000 81.2419   3
   3   4  -6 35724.8 1541.94   3
   3   4  -5 5211.67 501.096   3
   3   4  -4 9554.93 688.910   3
  -3  -4   4 10280.3 666.526   1
   3   4  -3 315.296 148.326   3
  -3  -4   3 275.809 113.519   1
   3   4  -2 7483.37 586.101   3
  -3  -4   2 7216.30 522.218   1
   3   4  -1 9738.86 667.113   3
   3   4   0 11867.1 746.236   3
   3   4   1 89.8430 64.8523   3
  -3  -4  -1 215.951 102.698   3
   3   4   2 6007.22 508.442   3
  -3  -4  -2 7067.86 521.991   3
   3   4   3 10274.3 670.450   3
  -3  -4  -3 9504.64 619.588   2
  -3  -4  -3 10475.9 644.621   3
   3   4   4 11490.0 706.214   3
  -3  -4  -4 11363.5 655.751   2
  -3  -4  -4 10930.2 656.084   3
   3   4   5 12877.4 738.828   3
  -3  -4  -5 13359.1 691.810   2
  -3  -4  -5 12839.1 694.490   3
  -3  -4  -5 11247.2 794.849   1
  -3  -4  -6 7948.18 477.729   2
  -3  -4  -6 7504.98 654.128   1
  -3  -4  -7 12266.0 899.814   1
  -3  -4  -8 1460.79 319.101   1
  -3  -4  -9 9895.45 885.574   1
   3   5 -12 3917.10 525.215   3
   3   5 -11 3173.19 476.881   3
   3   5 -10 18082.7 1161.13   3
   3   5  -9 2943.23 438.102   3
   3   5  -8 7368.47 689.365   3
   3   5  -7 790.818 212.334   3
   3   5  -6 244.171 135.897   3
   3   5  -5 8466.08 710.709   3
   3   5  -4 4874.04 517.092   3
  -3  -5   3 15069.3 831.837   1
   3   5  -3 15048.4 948.951   3
  -3  -5   2 3754.38 377.029   1
   3   5  -2 3546.40 433.069   3
   3   5  -1 7793.31 647.362   3
   3   5   0 106.714 115.049   3
   3   5   1 37735.5 1602.08   3
   3   5   2 4120.12 456.875   3
  -3  -5  -2 4437.22 452.001   2
   3   5   3 30757.6 1382.03   3
  -3  -5  -3 29116.5 1293.96   2
   3   5   4 4083.29 437.856   3
  -3  -5  -4 4170.39 417.627   2
  -3  -5  -5 9672.02 635.327   2
  -3  -5  -5 9879.11 741.488   1
  -3  -5  -6 4957.15 544.734   1
  -3  -5  -7 8628.88 761.209   1
  -3  -5  -8 4244.98 547.738   1
  -3  -5  -9 16.6307 81.4000   1
   3   6 -11 10685.4 930.114   3
   3   6 -10 522.595 219.213   3
   3   6  -9 5743.81 659.193   3
   3   6  -8-348.468 175.258   3
   3   6  -7 4027.35 540.055   3
   3   6  -6 4742.25 576.404   3
   3   6  -5 8173.69 754.864   3
   3   6  -4 6497.45 656.533   3
   3   6  -3 1346.99 296.507   3
  -3  -6   2 30338.1 1295.36   1
   3   6  -2 31614.0 1556.13   3
  -3  -6   1 2561.14 318.588   1
   3   6  -1 3026.52 428.844   3
   3   6   0 8846.69 747.342   3
  -3  -6   0 8229.12 701.318   2
   3   6   1 5592.76 582.332   3
  -3  -6  -1 5199.05 542.907   2
   3   6   2 18834.6 1106.35   3
  -3  -6  -2 16271.1 997.197   2
   3   6   3 2915.18 408.203   3
  -3  -6  -3 3169.62 397.868   2
  -3  -6  -4 14191.1 896.965   2
  -3  -6  -4 15100.3 915.015   1
  -3  -6  -5 388.484 132.087   1
  -3  -6  -5 250.115 97.5463   2
  -3  -6  -6 4092.38 495.011   1
  -3  -6  -7 1015.91 280.907   1
   3   7  -9 4.04098 119.662   3
   3   7  -8 5959.19 698.839   3
   3   7  -7 495.383 228.842   3
   3   7  -6 6234.07 714.410   3
   3   7  -5 1467.08 343.161   3
   3   7  -4 18782.7 1261.10   3
   3   7  -3 10028.7 888.739   3
   3   7  -2 11089.0 932.072   3
  -3  -7   2 12290.1 952.986   2
  -3  -7   1 5429.19 612.376   2
   3   7  -1 5155.08 616.520   3
  -3  -7   0 5541.05 608.830   2
   3   7   0 5081.43 609.318   3
   3   7   1 12275.3 944.145   3
  -3  -7  -1 11121.7 872.637   2
  -3  -7  -2 1022.42 269.499   2
  -3  -7  -3 9314.42 770.749   2
  -3  -7  -3 8960.54 669.973   1
  -3  -7  -4 99.7952 103.415   2
   3   8  -4 287.040 161.636   3
  -3  -8   4 153.948 133.570   2
   3   8  -3 8768.14 871.421   3
  -3  -8   3 8561.63 839.092   2
   3   8  -2 2444.03 443.476   3
  -3  -8   2 2660.10 457.978   2
   3   8  -1 4997.55 643.388   3
  -3  -8   1 4827.23 609.868   2
  -3  -8   0 187.705 147.134   2
  -3  -8  -1 2193.57 409.601   2
  -3  -8  -2 4978.86 604.811   2
  -3  -8  -3 399.320 180.088   2
   4  -8  -4 9508.12 864.538   2
   4  -8  -3 6575.01 692.896   2
   4  -8  -2 20595.1 1282.48   2
   4  -8  -1 4049.23 539.171   2
   4  -8   0 14046.6 1024.19   2
   4  -8   1 729.931 245.590   2
   4  -8   2 13590.4 997.700   2
   4  -8   3-45.3435 123.728   2
   4  -8   4 6883.97 684.402   2
   4  -8   5 111.471 116.433   2
   4  -8   6 3886.19 502.649   2
   4  -8   7 583.705 184.965   2
   4  -7  -8 10690.5 902.818   2
   4  -7  -7-42.2901 107.458   2
   4  -7  -6 10306.7 858.943   2
   4  -7  -5 3722.31 508.492   2
   4  -7  -4 14324.0 1020.04   2
   4  -7  -3 3628.28 484.587   2
   4  -7  -2 28598.9 1471.23   2
   4  -7  -1 5754.19 601.425   2
   4  -7   0 1547.00 304.850   2
   4  -7   1 7506.66 680.680   2
   4  -7   2 4480.06 515.561   2
   4  -7   3 9930.05 781.780   2
   4  -7   4 1506.31 301.463   2
  -4   7  -4 2129.13 282.597   1
  -4   7  -5 4008.70 407.654   1
   4  -7   5 3061.22 422.179   2
  -4   7  -6-64.8959 63.3665   1
   4  -7   6-392.495 159.696   2
   4  -7   7 9839.72 758.587   2
   4  -6  -9 14058.4 963.748   3
   4  -6  -8 5609.20 611.644   2
   4  -6  -7 23610.6 1329.48   2
   4  -6  -6 153.998 107.955   2
   4  -6  -5 6325.10 624.731   2
   4  -6  -4 3581.69 465.581   2
   4  -6  -3 44846.7 1888.75   2
   4  -6  -2 673.893 190.401   2
  -4   6   2 983.849 152.983   1
   4  -6  -1 7178.92 627.772   2
  -4   6   1 6741.77 406.023   1
   4  -6   0 132.375 114.372   2
   4  -6   1 1106.38 226.845   2
  -4   6  -1 1257.74 178.654   1
  -4   6  -2 12260.4 640.685   1
   4  -6   2 11182.6 787.742   2
  -4   6  -3 8983.25 565.452   1
   4  -6   3 6905.96 602.432   2
   4  -6   4 13271.5 856.507   2
  -4   6  -4 14687.2 802.348   1
   4  -6   5 1982.75 314.259   2
  -4   6  -5 1863.77 290.175   1
  -4   6  -6 7191.24 612.288   1
   4  -6   6 6461.90 563.321   2
   4  -6   7 896.074 204.085   2
  -4   6  -7 777.141 220.754   1
  -4   6  -8 10678.8 849.792   1
  -4   6  -9 18.5901 120.768   1
  -4   6 -10 15583.0 1157.99   1
   4  -5 -10 6133.80 576.992   3
   4  -5  -9 9110.34 716.336   3
   4  -5  -8 12212.0 848.868   3
   4  -5  -7 8189.07 704.843   2
  -4   5   6 4184.75 419.195   1
   4  -5  -6 5599.67 564.393   2
   4  -5  -5 1179.03 275.108   2
  -4   5   5 4801.82 404.895   1
  -4   5   4 10767.4 630.182   1
   4  -5  -4 11818.6 808.477   2
  -4   5   3 3420.92 316.331   1
   4  -5  -3 4043.11 452.823   2
   4  -5  -2 36266.9 1538.27   2
  -4   5   2 34949.8 1247.34   1
  -4   5   1 963.513 154.381   1
   4  -5  -1 1068.20 230.759   2
   4  -5   0 2209.69 315.689   2
   4  -5   1 467.015 158.815   2
   4  -5   2 34479.1 1438.95   2
  -4   5  -3 5555.12 453.646   1
   4  -5   3 5204.57 480.036   2
  -4   5  -4 14461.0 809.300   1
   4  -5   4 13287.3 792.311   2
   4  -5   5 12897.5 772.475   2
  -4   5  -5 13441.2 819.512   1
   4  -5   6 9683.86 642.261   2
  -4   5  -6 9127.64 704.690   1
   4  -5   7 17422.5 879.824   2
  -4   5  -7 15645.0 1009.47   1
  -4   5  -8 5254.37 585.563   1
  -4   5  -9 8623.08 796.459   1
  -4   5 -10-252.010 153.353   1
   4  -4 -12 11721.8 962.341   1
   4  -4 -10 10843.1 750.214   3
   4  -4  -9 3378.27 410.174   3
   4  -4  -8 22719.3 1151.40   3
   4  -4  -7 12460.7 809.015   3
   4  -4  -6 1981.28 313.955   2
  -4   4   6 1762.79 271.698   1
  -4   4   5 5357.21 462.527   1
   4  -4  -5 5653.21 522.653   2
  -4   4   4 3645.29 362.720   1
   4  -4  -4 3786.91 421.395   2
   4  -4  -3 40048.0 1581.08   2
  -4   4   3 38235.8 1391.27   1
  -4   4   2 4163.93 362.890   1
   4  -4  -2 8312.67 601.332   2
   4  -4  -1 11990.2 741.475   2
   4  -4   0 619.623 163.971   2
  -4   4  -1 32715.1 1311.90   2
   4  -4   1 27910.7 1232.35   2
  -4   4  -2 3295.66 352.208   2
   4  -4   2 3234.92 351.650   2
  -4   4  -3 35617.4 1375.79   2
   4  -4   3 34931.3 1373.13   2
   4  -4   4 761.382 166.661   2
  -4   4  -4 1087.40 216.600   1
  -4   4  -4 851.146 171.945   2
  -4   4  -5 11176.2 655.674   2
   4  -4   5 10802.4 641.236   2
  -4   4  -5 10462.6 727.027   1
  -4   4  -6 2784.40 383.448   1
  -4   4  -6 2899.49 310.260   2
   4  -4   6 2862.54 306.404   2
   4  -4   7 5723.96 415.580   2
  -4   4  -7 5675.28 582.082   1
  -4   4  -8 6033.36 632.358   1
  -4   4  -9 9243.91 836.751   1
  -4   4 -10 15959.0 1169.05   1
   4  -3 -12 29.9104 171.773   1
   4  -3 -11 12966.4 977.310   1
   4  -3 -10 167.418 119.709   1
   4  -3 -10-59.9969 68.0037   3
   4  -3  -9 14304.7 860.616   3
   4  -3  -8 88.1445 62.3280   3
   4  -3  -7 9179.18 652.413   3
   4  -3  -6 6173.06 521.476   3
  -4   3   6 5283.22 489.585   1
   4  -3  -5 15632.5 874.785   3
  -4   3   5 16204.5 864.465   1
   4  -3  -4 15202.9 856.369   3
   4  -3  -4 14812.1 844.630   2
  -4   3   4 14714.9 787.070   1
  -4   3   3 25912.2 1086.23   1
   4  -3  -3 26474.5 1168.80   2
   4  -3  -2 18366.3 918.547   2
  -4   3   2 18336.2 918.199   2
   4  -3  -1 6224.02 491.273   2
  -4   3   1 7214.63 523.302   2
   4  -3   0 8661.67 576.897   2
  -4   3   0 9124.44 589.832   2
   4  -3   1 6741.31 486.668   2
  -4   3  -1 6385.43 479.896   2
   4  -3   2 39242.1 1420.67   2
  -4   3  -2 38667.8 1416.23   2
   4  -3   3 1493.13 214.139   2
  -4   3  -3 1337.44 202.545   2
  -4   3  -4 34635.4 1272.09   2
   4  -3   4 35611.9 1282.29   2
   4  -3   5 960.033 165.017   2
  -4   3  -5 868.642 197.924   1
  -4   3  -5 1046.69 172.469   2
  -4   3  -6 26191.5 991.757   2
   4  -3   6 24308.2 959.760   2
  -4   3  -6 28129.3 1326.75   1
   4  -3   7 2574.14 298.404   3
  -4   3  -7 2089.66 350.071   1
   4  -3   8 8447.38 539.542   3
  -4   3  -8 9259.58 795.964   1
  -4   3  -9 5715.68 660.269   1
  -4   3 -10 14407.2 1111.77   1
   4  -2 -12 8521.36 824.486   1
   4  -2 -11 4198.04 440.287   3
   4  -2 -11 3866.87 520.670   1
   4  -2 -10 17690.1 960.746   3
   4  -2 -10 17742.6 1127.61   1
   4  -2  -9 593.919 169.167   3
   4  -2  -8 21671.3 1068.11   3
   4  -2  -7 153.787 86.5344   3
   4  -2  -6 26654.9 1180.24   3
  -4   2   5 574.054 156.806   1
   4  -2  -5 660.316 161.735   3
   4  -2  -4 10248.2 656.442   3
  -4   2   4 10102.4 639.762   1
  -4   2   3 10641.6 640.122   1
   4  -2  -3 10331.7 656.326   3
  -4   2   3 10916.7 668.052   2
   4  -2  -2 23304.5 1051.10   3
  -4   2   2 23797.2 1046.70   2
   4  -2  -1 17440.6 882.689   3
  -4   2   1 19330.0 891.691   2
   4  -2   0 12313.2 712.357   3
  -4   2   0 13521.3 702.765   2
   4  -2   1 13344.5 729.406   3
  -4   2  -1 13093.6 681.679   2
  -4   2  -2 1597.88 212.661   2
   4  -2   2 1416.97 223.797   3
   4  -2   3 15946.5 788.967   3
  -4   2  -3 13650.2 676.114   2
  -4   2  -4 4068.41 320.545   2
   4  -2   4 3660.97 348.558   3
  -4   2  -5 41866.2 1337.21   2
   4  -2   5 40860.3 1472.99   3
  -4   2  -5 42406.8 1700.43   1
  -4   2  -6 1060.25 240.013   1
  -4   2  -6 1196.32 147.878   2
   4  -2   6 922.000 179.300   3
   4  -2   7 19576.9 848.221   3
  -4   2  -7 18905.7 1135.22   1
  -4   2  -8 81.9607 105.691   1
  -4   2  -9 21386.9 1335.01   1
  -4   2 -10 3607.90 545.722   1
   4  -1 -12 3073.72 489.384   1
   4  -1 -11 12327.7 791.870   3
   4  -1 -11 11765.3 945.639   1
   4  -1 -10 9348.41 669.892   3
   4  -1 -10 9174.46 785.787   1
   4  -1  -9 1707.74 275.559   3
   4  -1  -8 610.458 161.696   3
   4  -1  -7 16615.3 891.766   3
   4  -1  -6 884.087 190.074   3
   4  -1  -5 47703.8 1735.68   3
  -4   1   5 48946.8 1797.86   1
  -4   1   4 3458.16 366.197   1
   4  -1  -4 2942.13 331.259   3
  -4   1   4 4155.56 397.550   2
  -4   1   3 651.765 151.977   2
   4  -1  -3 604.844 149.382   3
  -4   1   3 387.430 124.765   1
  -4   1   2 10.5832 78.0782   2
   4  -1  -2 123.189 98.8395   3
   4  -1  -1 47745.8 1697.35   3
  -4   1   1 52769.8 1716.05   2
   4  -1   0 19030.8 885.599   3
  -4   1   0 18687.6 849.952   2
   4  -1   1 67662.5 2060.57   3
  -4   1  -1 61146.6 1961.71   2
   4  -1   2 21548.7 940.478   3
  -4   1  -2 21582.4 880.817   2
   4  -1   3 29396.9 1139.89   3
  -4   1  -3 28870.8 1049.16   2
   4  -1   4 36367.1 1305.36   3
  -4   1  -4 35426.5 1177.54   2
  -4   1  -5 8959.70 441.476   2
   4  -1   5 9860.76 563.130   3
  -4   1  -6 36417.3 1050.55   2
   4  -1   6 34777.7 1252.91   3
  -4   1  -6 33106.4 1560.30   1
   4  -1   7 2481.37 245.636   3
  -4   1  -7 2148.50 367.558   1
  -4   1  -8 13561.3 993.845   1
  -4   1  -9 746.682 262.310   1
  -4   1 -10 13751.4 1106.35   1
   4   0 -12 2692.67 460.444   1
   4   0 -11 22514.2 1132.99   3
   4   0 -11 22510.7 1370.67   1
   4   0 -10 4860.00 480.240   3
   4   0 -10 3656.32 500.330   1
   4   0  -9 290.983 113.112   3
   4   0  -8 1023.83 216.026   3
   4   0  -7 9848.59 665.864   3
   4   0  -6 38763.7 1509.08   3
   4   0  -5 3123.05 348.851   3
  -4   0   4 14491.5 822.094   1
   4   0  -4 14579.1 795.824   3
  -4   0   4 15331.3 816.467   2
  -4   0   3-134.653 80.0656   2
  -4   0   3 17.7296 56.6283   1
   4   0  -3-23.0178 84.2929   3
   4   0  -2 66986.2 2179.93   3
  -4   0   2 70024.4 2185.33   2
  -4   0   1 1402.93 212.955   2
   4   0  -1 760.113 160.989   3
   4   0   0 61956.0 2017.47   3
  -4   0   0 63806.4 1977.32   2
   4   0   1 4207.60 371.513   3
  -4   0  -1 4144.45 343.484   2
   4   0   2 35689.1 1308.43   3
  -4   0  -2 34643.2 1220.92   2
   4   0   3 13322.5 680.065   3
  -4   0  -3 11294.8 566.264   2
   4   0   4 40764.5 1413.94   3
  -4   0  -4 39573.9 1264.93   2
   4   0   5 7061.63 465.594   3
  -4   0  -5 7625.07 373.820   2
  -4   0  -6 10694.2 378.782   2
   4   0   6 11309.0 582.038   3
  -4   0  -6 11651.1 840.370   1
   4   0   7 5670.53 365.739   3
  -4   0  -7 5441.44 587.397   1
  -4   0  -8 40.8576 113.195   1
  -4   0  -9 5351.17 647.843   1
   4   1 -12 8046.02 662.344   3
   4   1 -12 6158.39 724.763   1
   4   1 -11 535.621 202.303   1
   4   1 -11 1057.71 235.534   3
   4   1 -10 13427.3 854.569   3
   4   1  -9 210.934 110.260   3
   4   1  -8 2514.53 338.662   3
   4   1  -7 12531.8 781.897   3
   4   1  -6 31743.7 1346.00   3
   4   1  -5 27453.4 1212.31   3
   4   1  -4 17650.1 908.024   3
  -4  -1   4 17341.0 904.181   3
   4   1  -3 16456.5 862.928   3
  -4  -1   3 16399.2 857.755   3
   4   1  -2 13004.7 747.163   3
  -4  -1   2 14257.9 768.175   3
   4   1  -1 148928. 4146.21   3
  -4  -1   1 149881. 4156.21   3
   4   1   0 8366.44 560.915   3
  -4  -1   0 8143.29 551.491   3
   4   1   1 60424.6 1979.88   3
  -4  -1  -1 60467.7 1982.18   3
   4   1   2 67.5982 48.4645   3
  -4  -1  -2 171.855 67.0581   3
   4   1   3 15151.9 756.038   3
  -4  -1  -3 14223.3 660.525   2
  -4  -1  -4 1634.37 185.449   2
   4   1   4 1400.28 202.461   3
   4   1   5 11371.3 617.661   3
  -4  -1  -5 11444.1 500.601   2
   4   1   6 2987.48 284.362   3
  -4  -1  -6 2620.46 168.366   2
  -4  -1  -6 2593.67 393.127   1
   4   1   7 7622.50 443.311   3
  -4  -1  -7 7857.51 714.965   1
  -4  -1  -8 3245.08 494.943   1
  -4  -1  -9 1567.56 344.422   1
   4   2 -12 2319.26 358.398   3
   4   2 -11 15370.8 974.298   3
   4   2 -10 21.1488 99.0778   3
   4   2  -9 2893.36 390.261   3
   4   2  -8 2934.19 387.273   3
   4   2  -7 62148.7 2216.56   3
   4   2  -6 20459.9 1054.88   3
   4   2  -5 40451.4 1600.77   3
   4   2  -4 9191.90 646.462   3
   4   2  -3 8567.54 612.959   3
   4   2  -2 37265.7 1471.56   3
   4   2  -1 10147.5 660.622   3
  -4  -2   1 11005.6 675.622   3
   4   2   0 15439.1 834.013   3
  -4  -2   0 16246.4 839.364   3
   4   2   1 6205.88 485.561   3
  -4  -2  -1 5470.75 453.435   3
   4   2   2 14848.7 794.890   3
  -4  -2  -2 15256.2 791.589   3
   4   2   3 126.664 70.5822   3
  -4  -2  -3-14.2212 65.2647   3
   4   2   4 2391.70 287.195   3
  -4  -2  -4 2269.75 273.989   3
  -4  -2  -5 646.999 116.938   2
   4   2   5 685.807 148.827   3
   4   2   6 9592.71 566.934   3
  -4  -2  -6 10392.6 815.842   1
  -4  -2  -7 3751.89 508.958   1
  -4  -2  -8 7936.63 777.225   1
  -4  -2  -9-59.1181 119.436   1
   4   3 -12 9527.85 797.996   3
   4   3 -11 1790.18 328.785   3
   4   3 -10 20905.4 1201.92   3
   4   3  -9 3263.99 438.767   3
   4   3  -8 12628.7 876.185   3
   4   3  -7 345.559 164.719   3
   4   3  -6 50244.5 1964.07   3
   4   3  -5 66.4523 93.1900   3
   4   3  -4 38583.5 1598.60   3
   4   3  -3 90.4046 115.822   3
   4   3  -2 14021.2 843.302   3
   4   3  -1 9186.30 660.374   3
   4   3   0 8671.89 636.209   3
   4   3   1 9661.84 668.679   3
   4   3   2 2619.98 330.412   3
   4   3   3 7566.30 568.183   3
  -4  -3  -3 6988.42 530.439   3
   4   3   4 4083.57 400.531   3
  -4  -3  -4 3723.81 370.299   3
   4   3   5 10193.6 650.708   3
  -4  -3  -5 10307.7 571.449   2
  -4  -3  -5 8829.60 583.709   3
  -4  -3  -6-128.631 130.603   1
   4   3   6 193.892 96.9358   3
  -4  -3  -7 24119.6 1383.29   1
  -4  -3  -8 610.933 252.534   1
   4   4 -12 7620.17 751.566   3
   4   4 -11 4283.15 551.081   3
   4   4 -10 5795.19 628.012   3
   4   4  -9 19082.1 1172.87   3
   4   4  -8 4993.73 560.457   3
   4   4  -7 25100.1 1338.95   3
   4   4  -6 2526.90 390.589   3
   4   4  -5 7619.55 668.099   3
   4   4  -4 524.832 163.753   3
   4   4  -3 9476.35 730.709   3
   4   4  -2 945.412 231.557   3
   4   4  -1 13040.9 851.722   3
   4   4   0-138.826 123.369   3
   4   4   1 10194.0 732.075   3
   4   4   2 8191.90 644.243   3
   4   4   3 5069.25 497.251   3
   4   4   4 2113.99 308.151   3
  -4  -4  -4 2467.32 308.209   2
   4   4   5 6711.85 563.626   3
  -4  -4  -5 6804.62 496.078   2
  -4  -4  -5 6980.72 664.546   1
  -4  -4  -6 12152.0 921.612   1
  -4  -4  -7 1146.27 281.178   1
  -4  -4  -8 5104.67 639.134   1
   4   5 -11 7059.41 744.750   3
   4   5 -10 3110.95 488.502   3
   4   5  -9 11687.5 949.333   3
   4   5  -8 1856.73 370.141   3
   4   5  -7 4251.55 541.675   3
   4   5  -6 9050.72 787.515   3
   4   5  -5 6177.13 637.751   3
   4   5  -4 13520.3 961.460   3
   4   5  -3 867.948 247.509   3
   4   5  -2 10143.4 802.828   3
   4   5  -1 352.137 150.983   3
   4   5   0 20724.9 1181.04   3
   4   5   1-159.227 139.451   3
   4   5   2 15460.7 985.920   3
   4   5   3 596.278 180.764   3
  -4  -5  -3 515.683 158.058   2
   4   5   4 5048.77 527.122   3
  -4  -5  -4 4884.32 477.753   2
   4   5   5 4521.55 486.290   3
  -4  -5  -5 3703.76 483.858   1
  -4  -5  -6 3066.40 470.433   1
  -4  -5  -7 6675.53 712.243   1
   4   6  -9 4852.05 646.413   3
   4   6  -8 6325.72 715.361   3
   4   6  -7 1890.29 393.344   3
   4   6  -6 2901.90 462.200   3
   4   6  -5 5255.51 628.395   3
   4   6  -4 4086.19 545.522   3
   4   6  -3 8115.27 779.258   3
   4   6  -2 3991.04 532.448   3
   4   6  -1 5577.93 631.632   3
   4   6   0 104.481 116.857   3
   4   6   1 5764.28 630.194   3
   4   6   2 272.905 155.423   3
  -4  -6  -2 37.3555 95.5415   2
   4   6   3 6596.90 665.376   3
  -4  -6  -3 6647.32 619.769   2
  -4  -6  -4 76.2523 93.1204   1
   4   6   4 73.1292 109.756   3
  -4  -6  -4 115.130 130.921   2
  -4  -6  -5 3370.01 469.783   1
  -4  -6  -6 622.456 236.249   1
   4   7  -5 8464.46 855.902   3
   4   7  -4 2131.78 430.831   3
   4   7  -3 7421.63 792.589   3
   4   7  -2 3280.02 510.739   3
   4   7  -1 1620.07 369.615   3
   4   7   0 3433.78 523.031   3
  -4  -7   0 2999.04 464.206   2
   4   7   1 3041.94 482.180   3
  -4  -7  -1 2899.61 454.314   2
   4   7   2 4624.26 597.122   3
  -4  -7  -2 4514.23 554.655   2
   4   7   3 4.40412 93.7906   3
  -4  -7  -3 27.4719 96.0152   2
   5  -8  -1 3753.06 541.045   2
   5  -8   0 217.785 95.9265   2
   5  -8   1 17937.0 1203.72   2
   5  -8   2 119.466 104.100   2
   5  -8   3 8604.69 796.161   2
   5  -8   4 279.795 145.834   2
   5  -8   5 4545.75 558.408   2
   5  -8   6 714.081 205.318   2
   5  -7  -5 12246.0 983.245   2
   5  -7  -4 212.167 138.882   2
   5  -7  -3 4703.47 572.241   2
   5  -7  -2 4976.54 591.074   2
   5  -7  -1 6491.55 671.966   2
   5  -7   0 9784.31 838.703   2
   5  -7   1 14078.6 1001.89   2
   5  -7   2 12171.8 915.817   2
   5  -7   3 353.240 177.766   2
   5  -7   4 13038.2 939.076   2
   5  -7   5 160.895 153.773   2
   5  -7   6 19998.6 1167.79   2
   5  -6  -9 51.2845 79.7013   3
   5  -6  -8 9761.65 837.120   3
   5  -6  -7 502.030 191.824   2
   5  -6  -7 1048.07 275.204   3
   5  -6  -6 11159.2 904.343   2
   5  -6  -5 186.349 107.569   2
   5  -6  -4 9763.87 815.349   2
   5  -6  -3 2706.84 421.551   2
   5  -6  -2 22715.1 1278.13   2
   5  -6  -1 2687.83 399.956   2
   5  -6   0 6911.70 651.597   2
   5  -6   1 13578.9 929.790   2
  -5   6  -2 12966.9 750.827   1
   5  -6   2 11186.3 834.182   2
  -5   6  -3 12447.8 761.964   1
   5  -6   3 10585.8 803.723   2
   5  -6   4 5772.38 573.042   2
  -5   6  -4 7399.38 598.160   1
   5  -6   5 6815.95 611.351   2
  -5   6  -5 7103.26 624.618   1
   5  -6   6 551.508 176.363   2
  -5   6  -6 313.536 140.384   1
  -5   6  -7 9953.41 832.220   1
  -5   6  -8 52.7533 124.534   1
   5  -5 -10 6989.99 668.634   3
   5  -5  -9 1783.98 348.829   3
   5  -5  -8 4087.93 506.653   3
   5  -5  -7 9849.48 801.879   3
   5  -5  -6 2430.23 396.867   2
   5  -5  -6 2109.71 363.304   3
   5  -5  -5 17004.1 1084.02   2
  -5   5   4 1104.90 223.091   1
   5  -5  -4 1201.18 276.082   2
   5  -5  -3 20180.6 1148.16   2
  -5   5   3 18790.4 940.355   1
  -5   5   2 5.24592 67.8723   1
   5  -5  -2-51.5601 138.322   2
   5  -5  -1 55219.1 2120.44   2
   5  -5   0 993.300 234.559   2
   5  -5   1 17607.9 1015.24   2
   5  -5   2 3929.57 441.299   2
  -5   5  -3 13886.9 829.813   1
   5  -5   3 11606.1 790.810   2
  -5   5  -4 14006.5 871.411   1
   5  -5   4 12182.9 797.204   2
   5  -5   5 8710.99 647.260   2
  -5   5  -5 8386.50 688.675   1
   5  -5   6 1873.68 288.276   2
  -5   5  -6 1839.68 342.734   1
  -5   5  -7 1299.45 299.926   1
  -5   5  -8 3867.64 540.387   1
   5  -4 -10 976.646 254.638   3
   5  -4  -9 3845.65 475.957   3
   5  -4  -8 12719.8 896.316   3
   5  -4  -7 30934.4 1483.21   3
   5  -4  -6 11429.8 834.027   3
   5  -4  -5 1420.23 293.534   3
   5  -4  -4 14903.2 949.627   3
   5  -4  -4 14400.4 928.253   2
   5  -4  -3 474.409 181.446   2
  -5   4   3 354.515 122.094   1
  -5   4   2 76364.2 2457.64   1
   5  -4  -2 76725.1 2623.14   2
   5  -4  -1 4482.98 466.140   2
   5  -4   0 3684.26 420.763   2
   5  -4   1-12.7231 63.2711   2
   5  -4   2 8431.86 629.628   2
   5  -4   3 189.952 99.9537   2
  -5   4  -4 13197.5 855.836   1
   5  -4   4 12661.8 763.484   2
   5  -4   5 1352.17 234.119   2
  -5   4  -5 1535.52 307.962   1
  -5   4  -6 1797.38 323.772   1
   5  -4   6 2136.30 326.680   3
  -5   4  -7 2500.43 409.846   1
   5  -4   7 3065.25 384.203   3
  -5   4  -8 7235.68 740.245   1
   5  -3 -11-58.2753 126.165   3
   5  -3 -10 14632.4 959.894   3
   5  -3  -9 282.507 156.202   3
   5  -3  -8 17751.4 1047.09   3
   5  -3  -7 9067.72 711.879   3
   5  -3  -6 27252.9 1329.54   3
   5  -3  -5 4618.78 485.125   3
   5  -3  -4 15251.5 923.061   3
   5  -3  -3 4496.92 482.265   3
   5  -3  -2 15666.8 926.823   3
   5  -3  -1 41731.9 1691.82   3
   5  -3   0 1217.36 256.681   3
   5  -3   1 476.579 161.878   3
   5  -3   2 898.638 202.489   3
  -5   3  -3 17560.8 885.508   2
   5  -3   3 16411.1 934.413   3
  -5   3  -4 459.662 131.460   2
   5  -3   4 324.994 120.794   3
  -5   3  -5 18071.9 856.209   2
   5  -3   5 16523.7 927.590   3
  -5   3  -5 17822.4 1068.15   1
  -5   3  -6 714.795 236.628   1
   5  -3   6 226.053 115.512   3
   5  -3   7 11977.3 740.261   3
  -5   3  -7 12681.0 960.053   1
  -5   3  -8 6486.87 705.267   1
   5  -2 -11 10894.9 810.922   3
   5  -2 -10 456.783 161.774   3
   5  -2  -9 17199.8 1028.09   3
   5  -2  -8 81.9838 101.889   3
   5  -2  -7 55622.3 2106.06   3
   5  -2  -6-14.6178 92.8747   3
   5  -2  -5 412.244 158.986   3
   5  -2  -4 4548.90 465.813   3
   5  -2  -3 16304.4 927.508   3
   5  -2  -2 10727.1 728.363   3
   5  -2  -1 14411.7 847.628   3
   5  -2   0 1824.02 286.526   3
  -5   2  -1 423.018 132.118   2
   5  -2   1 324.411 136.521   3
   5  -2   2 28690.6 1269.87   3
  -5   2  -2 29007.8 1191.12   2
   5  -2   3 6924.37 550.972   3
  -5   2  -3 7341.85 510.932   2
   5  -2   4 26901.7 1203.75   3
  -5   2  -4 27985.7 1109.88   2
   5  -2   5 2361.37 301.735   3
   5  -2   6 15014.9 818.836   3
  -5   2  -6 14384.2 1007.96   1
  -5   2  -7 333.565 179.358   1
   5  -2   7 59.0919 60.7232   3
  -5   2  -8 18096.8 1237.68   1
   5  -1 -11 3132.94 422.761   3
   5  -1 -10 12346.3 861.122   3
   5  -1  -9 8335.17 689.621   3
   5  -1  -8 8459.42 691.515   3
   5  -1  -7 2071.38 326.367   3
   5  -1  -6 11020.8 771.451   3
   5  -1  -5 1203.83 246.997   3
   5  -1  -4 12636.9 811.349   3
   5  -1  -3 205.696 94.5528   3
   5  -1  -2 25358.9 1189.77   3
   5  -1  -1 13817.3 821.926   3
   5  -1   0 24493.3 1160.86   3
  -5   1   0 26921.5 1159.11   2
  -5   1  -1 1072.80 193.670   2
   5  -1   1 954.928 200.788   3
   5  -1   2 14772.6 841.203   3
  -5   1  -2 15070.0 774.514   2
   5  -1   3 27539.0 1212.99   3
  -5   1  -3 27497.7 1104.17   2
   5  -1   4 10031.1 658.577   3
  -5   1  -4 10048.6 566.255   2
   5  -1   5 31688.1 1301.75   3
   5  -1   6 5172.58 440.288   3
  -5   1  -6 5091.98 589.639   1
  -5   1  -7 14451.6 1052.98   1
  -5   1  -8-292.844 164.612   1
   5   0 -12 14537.1 975.523   3
   5   0 -11 336.102 142.006   3
   5   0 -10 7670.97 676.949   3
   5   0  -9 10468.2 788.977   3
   5   0  -8 2652.99 377.827   3
   5   0  -7 13538.3 877.584   3
   5   0  -6 4215.29 465.294   3
   5   0  -5 4816.10 486.991   3
   5   0  -4 221.539 107.635   3
   5   0  -3 29527.9 1330.04   3
   5   0  -2 362.695 136.976   3
   5   0  -1 31148.1 1346.49   3
  -5   0   0 499.605 136.373   2
   5   0   0 668.315 185.996   3
   5   0   1 22589.5 1078.08   3
  -5   0  -1 21834.0 1001.41   2
   5   0   2 11544.5 729.689   3
  -5   0  -2 12639.3 691.507   2
   5   0   3 24283.8 1120.29   3
  -5   0  -3 24930.4 1026.82   2
  -5   0  -4 884.567 149.568   2
   5   0   4 988.035 196.499   3
   5   0   5 7145.40 536.869   3
   5   0   6 9562.09 607.123   3
  -5   0  -6 9671.59 832.398   1
  -5   0  -7 3394.41 501.784   1
  -5   0  -8 6874.26 734.711   1
   5   1 -12 199.261 93.9432   3
   5   1 -11 7963.66 713.868   3
   5   1 -10 1526.28 301.774   3
   5   1  -9 15789.6 1004.83   3
   5   1  -8 107.814 78.9633   3
   5   1  -7 1045.76 241.048   3
   5   1  -6 23818.4 1228.03   3
   5   1  -5 21383.0 1134.33   3
   5   1  -4 30308.8 1390.65   3
   5   1  -3 9506.28 700.923   3
   5   1  -2 7563.79 609.432   3
   5   1  -1 370.181 139.710   3
   5   1   0 45843.0 1764.16   3
  -5  -1  -1 957.043 179.833   2
   5   1   1 761.023 198.194   3
   5   1   2 19935.4 1027.66   3
  -5  -1  -2 22157.0 981.760   2
  -5  -1  -3 2383.81 276.471   2
   5   1   3 2673.74 335.942   3
   5   1   4 16100.5 869.036   3
  -5  -1  -4 15673.3 742.399   2
   5   1   5 3527.64 369.684   3
   5   1   6 11850.1 696.618   3
  -5  -1  -6 11820.0 935.942   1
  -5  -1  -7 2736.43 453.686   1
   5   2 -12 7143.34 712.747   3
   5   2 -11-1.60034 116.838   3
   5   2 -10 16176.1 1073.72   3
   5   2  -9 4633.85 540.309   3
   5   2  -8 5372.89 574.276   3
   5   2  -7 15.5698 94.3029   3
   5   2  -6 19650.9 1122.41   3
   5   2  -5 8188.45 680.110   3
   5   2  -4 6201.69 575.245   3
   5   2  -3 9883.27 732.655   3
   5   2  -2 11680.6 795.821   3
   5   2  -1 11941.0 792.233   3
   5   2   0 2723.46 356.272   3
   5   2   1 12943.5 816.849   3
   5   2   2 516.421 164.735   3
   5   2   3 17032.8 941.188   3
   5   2   4 1042.24 211.638   3
   5   2   5 15002.5 852.234   3
  -5  -2  -6 454.246 203.608   1
  -5  -2  -7 12160.6 1002.12   1
   5   3 -12 425.878 158.681   3
   5   3 -11 11778.5 954.198   3
   5   3 -10 2344.80 407.361   3
   5   3  -9 8420.38 782.469   3
   5   3  -8 3477.10 486.629   3
   5   3  -7 4689.72 559.051   3
   5   3  -6 4388.61 523.577   3
   5   3  -5 48211.6 2003.34   3
   5   3  -4 20.9327 97.2490   3
   5   3  -3 5745.97 577.497   3
   5   3  -2 1447.93 287.519   3
   5   3  -1 11827.4 834.634   3
   5   3   0 34818.5 1555.61   3
   5   3   1 23887.1 1228.84   3
   5   3   2 11194.5 794.953   3
   5   3   3 869.731 216.821   3
   5   3   4 12499.5 821.690   3
   5   3   5 597.762 187.099   3
  -5  -3  -6 10729.9 918.915   1
   5   4 -10 6709.88 717.152   3
   5   4  -9 321.133 148.416   3
   5   4  -8 1007.05 264.705   3
   5   4  -7 2295.82 403.284   3
   5   4  -6 23909.6 1371.88   3
   5   4  -5 249.918 180.742   3
   5   4  -4 18110.9 1147.26   3
   5   4  -3-24.7922 93.4260   3
   5   4  -2 16269.0 1056.41   3
   5   4  -1 1613.57 316.751   3
   5   4   0 11448.9 850.810   3
   5   4   1 3584.37 461.536   3
   5   4   2 11113.5 824.549   3
   5   4   3 5342.68 555.966   3
   5   4   4 4915.95 527.640   3
  -5  -4  -6 697.426 242.347   1
   5   5  -8 5725.27 678.719   3
   5   5  -7 3992.51 553.317   3
   5   5  -6 1128.17 299.014   3
   5   5  -5 30302.2 1624.95   3
   5   5  -4 6858.44 710.734   3
   5   5  -3 8998.08 811.383   3
   5   5  -2-106.547 147.956   3
   5   5  -1 17565.5 1158.77   3
   5   5   0 321.280 161.615   3
   5   5   1 12098.2 934.446   3
   5   5   2 385.924 209.389   3
   5   5   3 839.530 256.978   3
   5   5   4 1256.59 288.079   3
  -5  -5  -5 2747.24 461.998   1
   5   6  -4 4564.82 622.156   3
   5   6  -3 1851.04 379.846   3
   5   6  -2 5526.34 671.061   3
   5   6  -1 1018.25 286.114   3
   5   6   0 2138.02 400.888   3
   5   6   1 188.747 136.387   3
   5   6   2 3821.18 542.485   3
  -5  -6  -2 3995.19 515.948   2
   5   6   3 213.304 132.530   3
  -5  -7  -1 3002.24 500.789   2
   6  -7  -1 2815.52 461.941   2
   6  -7   0 1014.18 262.271   2
   6  -7   1 10405.1 884.008   2
   6  -7   2 4638.03 572.476   2
   6  -7   3 26033.7 1448.05   2
   6  -7   4-33.0352 113.846   2
   6  -6  -5 2172.69 406.530   3
   6  -6  -4 1111.12 304.657   2
   6  -6  -3 11705.0 949.213   2
   6  -6  -2 3139.75 479.189   2
   6  -6  -1 9354.56 812.963   2
   6  -6   0 3046.03 455.947   2
   6  -6   1 7153.38 690.714   2
   6  -6   2 21276.4 1243.58   2
  -6   6  -3 10962.3 799.231   1
   6  -6   3 11355.6 883.968   2
   6  -6   4 6284.80 619.620   2
  -6   6  -4 5376.14 559.801   1
   6  -6   5 407.688 158.389   2
  -6   6  -5 561.454 195.997   1
  -6   6  -6 4695.70 565.744   1
   6  -5  -8 3128.00 482.282   3
   6  -5  -7 573.926 204.526   3
   6  -5  -6 9293.73 826.177   3
   6  -5  -5 1639.94 347.233   3
   6  -5  -4 21279.2 1292.45   3
   6  -5  -3 227.072 162.149   3
   6  -5  -2 18297.4 1174.24   3
   6  -5  -2 16933.1 1106.09   2
   6  -5  -1 2347.43 387.117   2
   6  -5   0 15854.0 1032.86   2
   6  -5   1 3187.35 434.697   2
   6  -5   2 27497.3 1382.86   2
   6  -5   3 4506.19 500.106   2
  -6   5  -4 3366.50 461.887   1
   6  -5   4 3395.00 472.918   3
  -6   5  -5 2967.72 449.808   1
   6  -5   5 3222.90 464.712   3
  -6   5  -6 1323.04 306.206   1
   6  -5   6 1667.97 323.839   3
  -6   5  -7 9869.71 888.461   1
   6  -4 -10 3876.12 535.157   3
   6  -4  -9 3871.18 514.591   3
   6  -4  -8 4913.34 582.718   3
   6  -4  -7 6671.32 676.588   3
   6  -4  -6 4068.84 520.733   3
   6  -4  -5 9669.25 810.578   3
   6  -4  -4 2827.06 437.591   3
   6  -4  -3 21854.0 1260.66   3
   6  -4  -2 3840.44 498.643   3
   6  -4  -1 17129.8 1084.15   3
   6  -4   0 44.1675 116.061   3
   6  -4   1 10334.7 815.731   3
   6  -4   2 1814.63 333.642   3
   6  -4   3 17956.3 1099.15   3
   6  -4   4-34.8855 91.6429   3
   6  -4   5 6038.93 602.041   3
  -6   4  -5 5857.32 636.801   1
  -6   4  -6 2113.65 392.361   1
   6  -4   6 2572.59 381.493   3
  -6   4  -7 5988.29 689.809   1
   6  -3 -11 2044.68 390.992   3
   6  -3 -10 77.6334 89.9348   3
   6  -3  -9 12074.1 932.357   3
   6  -3  -8 597.302 190.848   3
   6  -3  -7 14739.6 1019.36   3
   6  -3  -6 5415.76 592.750   3
   6  -3  -5 18839.6 1144.54   3
   6  -3  -4 6854.88 653.975   3
   6  -3  -3 4789.88 536.729   3
   6  -3  -2 12689.9 897.835   3
   6  -3  -1 6290.21 606.864   3
   6  -3   0 33500.7 1558.24   3
   6  -3   1 3353.97 437.610   3
   6  -3   2 10183.6 771.478   3
   6  -3   3 274.201 160.718   3
   6  -3   4 16972.6 1012.62   3
  -6   3  -5 1929.14 376.510   1
   6  -3   5 2077.64 335.246   3
   6  -3   6 14157.3 895.955   3
  -6   3  -6 14336.2 1071.21   1
   6  -2 -11 436.756 139.681   3
   6  -2 -10 8865.21 785.627   3
   6  -2  -9 0.78304 84.5973   3
   6  -2  -8 11237.9 878.747   3
   6  -2  -7 89.2417 152.619   3
   6  -2  -6 28817.3 1467.78   3
   6  -2  -5 1303.43 277.286   3
   6  -2  -4 7095.20 657.758   3
   6  -2  -3 3031.70 423.668   3
   6  -2  -2 13948.9 923.174   3
   6  -2  -1 23705.5 1243.65   3
   6  -2   0 10145.1 761.514   3
   6  -2   1 5147.53 523.984   3
   6  -2   2 2953.81 396.685   3
   6  -2   3 11953.9 821.503   3
   6  -2   4 3242.87 414.176   3
   6  -2   5 12504.8 832.783   3
  -6   2  -6-29.7615 150.807   1
   6  -2   6-30.0844 91.7672   3
   6  -1 -11 4879.58 592.397   3
   6  -1 -10 6266.01 658.394   3
   6  -1  -9 7127.14 693.401   3
   6  -1  -8 2191.46 386.327   3
   6  -1  -7 20955.0 1227.33   3
   6  -1  -6-13.6234 104.679   3
   6  -1  -5 32946.6 1572.83   3
   6  -1  -4 449.369 172.613   3
   6  -1  -3 11381.2 834.534   3
   6  -1  -2 2749.86 397.338   3
   6  -1  -1 40707.2 1738.39   3
   6  -1   0 16024.8 984.172   3
   6  -1   1 7723.48 649.525   3
   6  -1   2 170.355 112.207   3
   6  -1   3 2065.97 316.789   3
   6  -1   4 15510.1 935.656   3
   6  -1   5 2399.09 335.895   3
  -6   1  -6 4477.59 589.107   1
   6   0 -11 4944.50 597.945   3
   6   0 -10 6178.84 655.329   3
   6   0  -9 3959.18 522.809   3
   6   0  -8 12336.7 937.647   3
   6   0  -7 7906.81 729.608   3
   6   0  -6 27071.9 1416.43   3
   6   0  -5 679.973 206.878   3
   6   0  -4 5344.48 564.884   3
   6   0  -3-85.0825 110.432   3
   6   0  -2 27868.8 1385.87   3
   6   0  -1 600.848 190.010   3
   6   0   0 10065.7 759.952   3
   6   0   1 1309.64 262.144   3
   6   0   2 1058.62 240.162   3
   6   0   3 4387.47 475.376   3
   6   0   4 9589.69 712.254   3
   6   0   5 5647.69 529.352   3
  -6   0  -6 4786.99 616.188   1
   6   1 -11 1066.12 297.659   3
   6   1 -10 11631.4 931.234   3
   6   1  -9 3952.71 529.017   3
   6   1  -8 9180.19 801.479   3
   6   1  -7 10534.9 855.693   3
   6   1  -6 11978.0 907.056   3
   6   1  -5 6673.92 660.503   3
   6   1  -4 6784.46 657.463   3
   6   1  -3 3188.57 440.035   3
   6   1  -2 78.3935 101.551   3
   6   1  -1 25866.1 1335.30   3
   6   1   0 17.1894 102.850   3
   6   1   1 4863.12 527.277   3
   6   1   2 320.215 123.798   3
   6   1   3 6170.15 572.069   3
   6   1   4 5862.36 554.247   3
   6   1   5 14912.4 908.420   3
   6   2 -10 153.787 172.408   3
   6   2  -9 10825.0 912.093   3
   6   2  -8 1175.98 292.859   3
   6   2  -7 8501.64 783.723   3
   6   2  -6 998.716 260.982   3
   6   2  -5 3120.65 455.475   3
   6   2  -4 927.235 243.253   3
   6   2  -3 2778.54 421.004   3
   6   2  -2 5219.79 566.060   3
   6   2  -1 5244.28 565.584   3
   6   2   0 6727.63 643.693   3
   6   2   1 1341.28 283.270   3
   6   2   2 15980.7 1005.84   3
   6   2   3-19.0457 72.4774   3
   6   2   4 21230.2 1165.24   3
   6   3  -8 6083.17 691.588   3
   6   3  -7 794.757 251.289   3
   6   3  -6 5940.00 658.312   3
   6   3  -5 739.928 264.726   3
   6   3  -4 14109.4 1021.19   3
   6   3  -3 5164.57 599.588   3
   6   3  -2 6239.02 651.034   3
   6   3  -1 7683.48 721.592   3
   6   3   0 9694.37 810.653   3
   6   3   1 8418.52 749.897   3
   6   3   2 3429.33 461.314   3
   6   3   3 12604.3 908.094   3
   6   3   4 491.004 202.485   3
   6   4  -6 1461.05 347.271   3
   6   4  -5 10634.6 933.731   3
   6   4  -4 1189.94 304.930   3
   6   4  -3 13769.3 1051.47   3
   6   4  -2 148.512 105.240   3
   6   4  -1 11780.0 949.297   3
   6   4   0 2401.22 417.148   3
   6   4   1 8778.70 798.499   3
   6   4   2 3729.97 508.525   3
   6   4   3 3444.92 480.068   3
   6   5  -2 3722.45 548.580   3
   6   5  -1 296.564 176.461   3
   6   5   0 7340.14 767.665   3
   6   5   1 873.050 271.053   3
   6   5   2 5627.06 662.838   3
   6   5   3 689.339 212.883   3
   7  -5   0 298.869 156.476   3
   7  -5   1 779.183 276.010   3
   7  -5   2 2737.08 454.196   3
   7  -5   3 8952.71 826.506   3
   7  -5   4 10364.5 891.428   3
  -7   5  -4 10198.3 879.012   1
   7  -5   5 2567.45 431.886   3
   7  -4  -4 4464.64 579.181   3
   7  -4  -3 2115.03 394.954   3
   7  -4  -2 6495.73 687.369   3
   7  -4  -1 109.575 94.8415   3
   7  -4   0 6164.49 664.080   3
   7  -4   1-239.222 143.973   3
   7  -4   2 18845.0 1208.42   3
   7  -4   3 3188.14 470.292   3
   7  -4   4 19041.8 1196.58   3
   7  -4   5 1727.08 333.250   3
   7  -3  -6 8061.27 795.389   3
   7  -3  -5 1853.66 368.530   3
   7  -3  -4 4492.31 571.229   3
   7  -3  -3 11056.3 906.455   3
   7  -3  -2 4226.94 540.805   3
   7  -3  -1 17198.6 1138.95   3
   7  -3   0 1406.24 313.572   3
   7  -3   1 9839.66 830.013   3
   7  -3   2 14.8294 104.153   3
   7  -3   3 36766.4 1748.92   3
   7  -3   4 336.724 211.667   3
   7  -3   5 7379.84 705.494   3
   7  -2  -7 5340.67 635.565   3
   7  -2  -6 465.105 209.708   3
   7  -2  -5 5059.60 612.146   3
   7  -2  -4 6400.80 676.765   3
   7  -2  -3 17883.1 1172.31   3
   7  -2  -2 5983.60 647.367   3
   7  -2  -1 11919.6 924.894   3
   7  -2   0 10854.4 881.646   3
   7  -2   1 5454.56 609.254   3
   7  -2   2 12831.6 949.244   3
   7  -2   3 1030.44 252.613   3
   7  -2   4 8318.97 730.206   3
   7  -2   5 1059.82 265.399   3
   7  -1  -7 124.002 112.214   3
   7  -1  -6 24842.0 1444.96   3
   7  -1  -5 118.470 132.177   3
   7  -1  -4 20787.5 1284.28   3
   7  -1  -3 2811.23 436.132   3
   7  -1  -2 14853.8 1042.17   3
   7  -1  -1 4260.10 535.304   3
   7  -1   0 15998.2 1075.63   3
   7  -1   1 5120.13 585.557   3
   7  -1   2 3987.27 506.889   3
   7  -1   3 3891.53 499.238   3
   7  -1   4 1428.54 307.839   3
   7   0  -7 5751.52 664.512   3
   7   0  -6 1546.82 338.962   3
   7   0  -5 21983.7 1343.66   3
   7   0  -4 594.795 221.250   3
   7   0  -3 10686.2 885.199   3
   7   0  -2 2064.48 380.381   3
   7   0  -1 8033.56 751.076   3
   7   0   0 4256.94 543.538   3
   7   0   1 8110.72 745.734   3
   7   0   2 247.972 153.735   3
   7   0   3 4602.24 539.345   3
   7   0   4 1504.18 307.344   3
   7   1  -6 11826.0 968.774   3
   7   1  -5 6228.40 684.390   3
   7   1  -4 6570.31 699.856   3
   7   1  -3 522.303 211.777   3
   7   1  -2 5725.14 639.608   3
   7   1  -1 650.768 229.873   3
   7   1   0 19320.0 1216.09   3
   7   1   1 169.566 104.674   3
   7   1   2 3536.23 477.507   3
   7   1   3 192.455 149.166   3
   7   1   4 6897.71 672.214   3
   7   2  -4 5360.87 636.188   3
   7   2  -3 817.359 239.436   3
   7   2  -2 2966.05 470.961   3
   7   2  -1 10761.3 903.009   3
   7   2   0 122.391 115.503   3
   7   2   1 11992.1 947.660   3
   7   2   2 3373.85 488.990   3
   7   2   3 2470.17 403.308   3
   7   3  -1 4895.07 625.794   3
   7   3   0 10431.4 912.703   3
   7   3   1 2178.34 427.272   3
   7   3   2 667.118 249.551   3
   0   0   0    0.00    0.00   0
 
TITL z476 in P-1
REM P-1 (#2 in standard setting)
CELL 0.71073   6.205509   7.809122  10.776162  95.5572  98.3522  98.0655
ZERR    2.00   0.000267   0.000296   0.000391   0.0030   0.0033   0.0033
LATT  1
SFAC C H O Rh
UNIT 12.00 12.00 20.00 2.00
TREF
HKLF 4
END
;
_shelx_hkl_checksum              57391
_publcif_info_exptl_table_max_cols 5
_publcif_info_exptl_table_use_headnotes n
_publcif_funding_html
;
;
loop_
_space_group_symop_operation_xyz
'x, y, z'
'-x, -y, -z'
loop_
_atom_site_label
_atom_site_type_symbol
_atom_site_fract_x
_atom_site_fract_y
_atom_site_fract_z
_atom_site_U_iso_or_equiv
_atom_site_adp_type
_atom_site_occupancy
_atom_site_site_symmetry_order
_atom_site_calc_flag
_atom_site_refinement_flags_posn
_atom_site_refinement_flags_adp
_atom_site_refinement_flags_occupancy
_atom_site_disorder_assembly
_atom_site_disorder_group
Rh1 Rh 0.25557(4) 0.69752(3) 0.76733(2) 0.01553(9) Uani 1 1 d . . . . .
Na1 Na 0.8339(2) 0.79886(18) 0.42497(11) 0.0340(3) Uani 1 1 d . . . . .
O1M O 0.0411(3) 0.4743(3) 0.69957(18) 0.0190(4) Uani 1 1 d D . . . .
H11M H 0.001(5) 0.431(4) 0.7628(18) 0.023 Uiso 1 1 d D U . . .
H12M H -0.063(3) 0.512(4) 0.656(2) 0.023 Uiso 1 1 d D U . . .
O2M O 0.4769(4) 0.9138(3) 0.8244(2) 0.0381(6) Uani 1 1 d D . . . .
H21M H 0.451(6) 1.015(2) 0.820(3) 0.046 Uiso 1 1 d D U . . .
H22M H 0.564(5) 0.908(4) 0.890(2) 0.046 Uiso 1 1 d D U . . .
O3M O 1.1219(4) 0.9878(3) 0.37673(19) 0.0278(5) Uani 1 1 d D . . . .
H31M H 1.102(5) 1.019(4) 0.3037(15) 0.033 Uiso 1 1 d D U . . .
H32M H 1.226(4) 0.930(4) 0.379(3) 0.033 Uiso 1 1 d D U . . .
O4M O 0.6437(4) 0.7806(3) 0.19877(19) 0.0282(5) Uani 1 1 d D . . . .
H41M H 0.538(4) 0.697(3) 0.192(3) 0.034 Uiso 1 1 d D U . . .
H42M H 0.709(4) 0.759(3) 0.136(2) 0.034 Uiso 1 1 d D U . . .
O1 O 0.2794(4) 0.6357(3) 0.94445(17) 0.0235(5) Uani 1 1 d . . . . .
O2 O 0.0049(3) 0.8111(3) 0.81852(17) 0.0206(5) Uani 1 1 d . . . . .
O3 O -0.1834(4) 0.8354(3) 0.97744(18) 0.0262(5) Uani 1 1 d . . . . .
O4 O 0.1342(4) 0.6815(3) 1.11812(18) 0.0338(6) Uani 1 1 d . . . . .
O5 O 0.5086(3) 0.5867(3) 0.71829(17) 0.0199(4) Uani 1 1 d . . . . .
O6 O 0.2343(3) 0.7660(3) 0.59134(17) 0.0209(5) Uani 1 1 d . . . . .
O7 O 0.4487(4) 0.7911(3) 0.44324(17) 0.0232(5) Uani 1 1 d . . . . .
O8 O 0.7266(3) 0.6032(2) 0.57151(17) 0.0182(4) Uani 1 1 d . . . . .
C1 C 0.1396(5) 0.6932(4) 1.0064(3) 0.0206(7) Uani 1 1 d . . . . .
C2 C -0.0311(5) 0.7882(4) 0.9304(3) 0.0189(6) Uani 1 1 d . . . . .
C3 C 0.5640(5) 0.6369(4) 0.6165(2) 0.0168(6) Uani 1 1 d . . . . .
C4 C 0.4051(5) 0.7423(4) 0.5420(3) 0.0179(6) Uani 1 1 d . . . . .
loop_
_atom_site_aniso_label
_atom_site_aniso_U_11
_atom_site_aniso_U_22
_atom_site_aniso_U_33
_atom_site_aniso_U_23
_atom_site_aniso_U_13
_atom_site_aniso_U_12
Rh1 0.01418(14) 0.01987(15) 0.01441(13) 0.00492(9) 0.00346(9) 0.00590(10)
Na1 0.0302(8) 0.0414(8) 0.0342(7) 0.0104(6) 0.0155(6) 0.0038(6)
O1M 0.0169(11) 0.0229(12) 0.0184(11) 0.0076(8) 0.0032(8) 0.0038(9)
O2M 0.0284(15) 0.0218(13) 0.0575(16) 0.0036(11) -0.0142(12) 0.0041(11)
O3M 0.0282(14) 0.0334(14) 0.0265(12) 0.0144(10) 0.0059(10) 0.0122(11)
O4M 0.0301(15) 0.0302(13) 0.0273(12) 0.0067(9) 0.0112(10) 0.0059(10)
O1 0.0243(13) 0.0321(13) 0.0174(10) 0.0084(8) 0.0026(9) 0.0121(10)
O2 0.0210(12) 0.0279(12) 0.0163(10) 0.0037(8) 0.0057(8) 0.0119(9)
O3 0.0206(12) 0.0392(14) 0.0215(11) 0.0024(9) 0.0084(9) 0.0100(10)
O4 0.0369(15) 0.0494(15) 0.0178(11) 0.0133(10) 0.0079(10) 0.0064(12)
O5 0.0166(12) 0.0266(12) 0.0209(10) 0.0080(8) 0.0073(8) 0.0100(9)
O6 0.0177(12) 0.0306(12) 0.0200(10) 0.0115(8) 0.0073(8) 0.0124(9)
O7 0.0240(13) 0.0304(12) 0.0199(11) 0.0109(8) 0.0086(9) 0.0099(10)
O8 0.0149(11) 0.0213(11) 0.0201(10) 0.0042(8) 0.0046(8) 0.0062(9)
C1 0.0207(17) 0.0229(17) 0.0174(15) 0.0061(11) 0.0004(12) 0.0012(13)
C2 0.0197(17) 0.0174(15) 0.0186(15) -0.0003(11) 0.0034(12) 0.0007(13)
C3 0.0168(16) 0.0157(15) 0.0170(14) -0.0012(10) 0.0006(11) 0.0035(12)
C4 0.0184(16) 0.0181(15) 0.0181(15) 0.0034(11) 0.0030(12) 0.0055(12)
loop_
_atom_type_symbol
_atom_type_description
_atom_type_scat_dispersion_real
_atom_type_scat_dispersion_imag
_atom_type_scat_source
C C 0.0033 0.0016 'International Tables Vol C Tables 4.2.6.8 and 6.1.1.4'
H H 0.0000 0.0000 'International Tables Vol C Tables 4.2.6.8 and 6.1.1.4'
O O 0.0106 0.0060 'International Tables Vol C Tables 4.2.6.8 and 6.1.1.4'
Rh Rh -1.1178 0.9187 'International Tables Vol C Tables 4.2.6.8 and 6.1.1.4'
Na Na 0.0362 0.0249 'International Tables Vol C Tables 4.2.6.8 and 6.1.1.4'
loop_
_geom_angle_atom_site_label_1
_geom_angle_atom_site_label_2
_geom_angle_atom_site_label_3
_geom_angle
_geom_angle_site_symmetry_1
_geom_angle_site_symmetry_3
_geom_angle_publ_flag
O2M Rh1 O1M 176.23(9) . . ?
O2M Rh1 O2 93.06(10) . . ?
O2M Rh1 O5 86.17(10) . . ?
O2M Rh1 O6 87.82(10) . . ?
O1 Rh1 O1M 91.82(8) . . ?
O1 Rh1 O2M 90.84(10) . . ?
O1 Rh1 O2 82.14(8) . . ?
O1 Rh1 O5 97.47(8) . . ?
O1 Rh1 O6 178.53(8) . . ?
O2 Rh1 O1M 89.95(9) . . ?
O5 Rh1 O1M 90.84(8) . . ?
O5 Rh1 O2 179.14(8) . . ?
O5 Rh1 O6 83.03(8) . . ?
O6 Rh1 O1M 89.54(8) . . ?
O6 Rh1 O2 97.34(8) . . ?
Na1 Na1 H32M 53.7(6) 2_776 . ?
O1M Na1 Na1 128.76(8) 2_666 2_776 ?
O1M Na1 H32M 77.3(6) 2_666 . ?
O1M Na1 O6 79.17(7) 2_666 1_655 ?
O1M Na1 C3 104.19(8) 2_666 . ?
O1M Na1 C4 118.98(8) 2_666 . ?
O3M Na1 Na1 39.58(6) 2_776 2_776 ?
O3M Na1 Na1 44.46(6) . 2_776 ?
O3M Na1 O1M 91.83(8) . 2_666 ?
O3M Na1 O1M 149.32(9) 2_776 2_666 ?
O3M Na1 O3M 84.04(9) . 2_776 ?
O3M Na1 H32M 17.9(4) . . ?
O3M Na1 H32M 91.4(6) 2_776 . ?
O3M Na1 O4M 88.89(8) . . ?
O3M Na1 O6 70.68(7) 2_776 1_655 ?
O3M Na1 O6 71.42(8) . 1_655 ?
O3M Na1 O7 139.07(10) . . ?
O3M Na1 O8 144.52(9) . . ?
O3M Na1 C3 70.27(8) 2_776 . ?
O3M Na1 C3 151.77(9) . . ?
O3M Na1 C4 71.21(8) 2_776 . ?
O3M Na1 C4 149.00(9) . . ?
O4M Na1 Na1 119.52(8) . 2_776 ?
O4M Na1 O1M 74.20(7) . 2_666 ?
O4M Na1 O3M 135.83(9) . 2_776 ?
O4M Na1 H32M 94.9(6) . . ?
O4M Na1 O6 146.23(9) . 1_655 ?
O4M Na1 C3 117.58(9) . . ?
O4M Na1 C4 95.93(9) . . ?
O6 Na1 Na1 64.08(6) 1_655 2_776 ?
O6 Na1 H32M 58.7(5) 1_655 . ?
O6 Na1 C3 88.69(7) 1_655 . ?
O6 Na1 C4 115.20(8) 1_655 . ?
O7 Na1 Na1 112.09(8) . 2_776 ?
O7 Na1 O1M 119.14(9) . 2_666 ?
O7 Na1 O3M 81.18(8) . 2_776 ?
O7 Na1 H32M 156.9(4) . . ?
O7 Na1 O4M 76.13(8) . . ?
O7 Na1 O6 136.19(8) . 1_655 ?
O7 Na1 C3 49.66(7) . . ?
O7 Na1 C4 21.24(7) . . ?
O8 Na1 Na1 113.47(7) . 2_776 ?
O8 Na1 O1M 86.35(7) . 2_666 ?
O8 Na1 O3M 79.91(8) . 2_776 ?
O8 Na1 H32M 131.4(5) . . ?
O8 Na1 O4M 124.22(9) . . ?
O8 Na1 O6 73.45(7) . 1_655 ?
O8 Na1 O7 68.98(8) . . ?
O8 Na1 C3 21.45(7) . . ?
O8 Na1 C4 49.70(7) . . ?
C3 Na1 Na1 109.07(7) . 2_776 ?
C3 Na1 H32M 146.9(6) . . ?
C3 Na1 C4 29.08(7) . . ?
C4 Na1 Na1 108.80(7) . 2_776 ?
C4 Na1 H32M 162.4(6) . . ?
Rh1 O1M Na1 122.09(10) . 2_666 ?
Rh1 O1M H11M 107(2) . . ?
Rh1 O1M H12M 103(2) . . ?
Na1 O1M H11M 102(2) 2_666 . ?
Na1 O1M H12M 112(2) 2_666 . ?
H11M O1M H12M 112(2) . . ?
Rh1 O2M H21M 125(2) . . ?
Rh1 O2M H22M 114(2) . . ?
H21M O2M H22M 111(2) . . ?
Na1 O3M Na1 95.96(9) . 2_776 ?
Na1 O3M H31M 115(2) . . ?
Na1 O3M H31M 122(2) 2_776 . ?
Na1 O3M H32M 104(2) . . ?
Na1 O3M H32M 111(2) 2_776 . ?
H31M O3M H32M 106(2) . . ?
Na1 O4M H41M 104(2) . . ?
Na1 O4M H42M 122(2) . . ?
H41M O4M H42M 106(2) . . ?
C1 O1 Rh1 113.96(18) . . ?
C2 O2 Rh1 113.72(18) . . ?
C3 O5 Rh1 111.54(17) . . ?
Rh1 O6 Na1 126.56(9) . 1_455 ?
C4 O6 Rh1 111.93(17) . . ?
C4 O6 Na1 118.36(16) . 1_455 ?
C4 O7 Na1 112.74(19) . . ?
C3 O8 Na1 113.01(18) . . ?
O1 C1 C2 115.4(2) . . ?
O4 C1 O1 125.0(3) . . ?
O4 C1 C2 119.6(3) . . ?
O2 C2 C1 114.5(3) . . ?
O3 C2 O2 124.8(3) . . ?
O3 C2 C1 120.7(2) . . ?
O5 C3 Na1 162.3(2) . . ?
O5 C3 C4 116.3(2) . . ?
O8 C3 Na1 45.53(14) . . ?
O8 C3 O5 125.3(3) . . ?
O8 C3 C4 118.4(2) . . ?
C4 C3 Na1 75.69(16) . . ?
O6 C4 Na1 163.7(2) . . ?
O6 C4 C3 115.1(2) . . ?
O7 C4 Na1 46.01(15) . . ?
O7 C4 O6 126.0(3) . . ?
O7 C4 C3 118.9(3) . . ?
C3 C4 Na1 75.23(16) . . ?
loop_
_geom_bond_atom_site_label_1
_geom_bond_atom_site_label_2
_geom_bond_distance
_geom_bond_site_symmetry_2
_geom_bond_publ_flag
Rh1 O1M 2.040(2) . yes
Rh1 O2M 2.005(2) . yes
Rh1 O1 2.0037(19) . yes
Rh1 O2 2.013(2) . yes
Rh1 O5 2.007(2) . yes
Rh1 O6 2.0109(18) . yes
Na1 Na1 3.601(3) 2_776 ?
Na1 O1M 2.677(2) 2_666 yes
Na1 O3M 2.307(3) . yes
Na1 O3M 2.536(2) 2_776 yes
Na1 H32M 2.64(3) . ?
Na1 O4M 2.531(3) . yes
Na1 O6 2.903(2) 1_655 yes
Na1 O7 2.419(3) . yes
Na1 O8 2.400(2) . yes
Na1 C3 3.095(3) . ?
Na1 C4 3.101(3) . ?
O1M H11M 0.843(10) . ?
O1M H12M 0.843(10) . ?
O2M H21M 0.833(9) . ?
O2M H22M 0.836(10) . ?
O3M H31M 0.844(10) . ?
O3M H32M 0.838(10) . ?
O4M H41M 0.849(10) . ?
O4M H42M 0.852(10) . ?
O1 C1 1.273(4) . ?
O2 C2 1.283(3) . ?
O3 C2 1.219(4) . ?
O4 C1 1.221(3) . ?
O5 C3 1.277(3) . ?
O6 C4 1.281(3) . ?
O7 C4 1.219(3) . ?
O8 C3 1.230(3) . ?
C1 C2 1.558(4) . ?
C3 C4 1.556(4) . ?
loop_
_publcif_info_tables.block_id
_publcif_info_tables.reference_item
{7243f9a5-1d7c-4548-ab8d-f8cd242d8136} '_publcif_info_datablock.publ_exptl'
{7243f9a5-1d7c-4548-ab8d-f8cd242d8136} '_geom_hbond_atom_site_label_D'
{181e1b82-4d9a-40b1-87c8-764a472aabf2} '_geom_bond_atom_site_label_1'
loop_
_publcif_info_cif.paper_type
CB
loop_
_publcif_info_datablock.id
_publcif_info_datablock.publ_exptl
_publcif_info_datablock.publ_geom
_publcif_info_datablock.structure
{7243f9a5-1d7c-4548-ab8d-f8cd242d8136} y y y
{ffbded9b-fb91-462b-a3ca-93c3f3fc7256} y y y
{c5f56b33-ec02-4492-8bc1-214dcdc4e2cb} y y y
{181e1b82-4d9a-40b1-87c8-764a472aabf2} y y y
loop_
_publcif_info_exptl_table_extra_item
sin_theta_over_lambda_max
loop_
_publcif_info_exptl_table_header_item
?

_cod_database_fobs_code 2108903
