#------------------------------------------------------------------------------
#$Date: 2022-01-01 06:16:20 +0200 (Sat, 01 Jan 2022) $
#$Revision: 271664 $
#$URL: file:///home/coder/svn-repositories/cod/cif/2/10/89/2108902.cif $
#------------------------------------------------------------------------------
#
# This file is available in the Crystallography Open Database (COD),
# http://www.crystallography.net/. The original data for this entry
# were provided by IUCr Journals, http://journals.iucr.org/.
#
# The file may be used within the scientific community so long as
# proper attribution is given to the journal article from which the
# data were obtained.
#
data_2108902
loop_
_publ_author_name
'Garkul, Ilia'
'Zadesenets, Andrey'
'Filatov, Evgeny'
'Baidina, Iraida'
'Tkachev, Sergey'
'Samsonenko, Denis'
'Korenev, Sergey'
_publ_section_title
;
 Oxonium <i>trans</i>-bis(oxalato)rhodate and related sodium salts: a rare
 example of crystalline complex acid
;
_journal_issue                   6
_journal_name_full               'Acta Crystallographica Section B'
_journal_page_first              1048
_journal_page_last               1054
_journal_paper_doi               10.1107/S205252062101115X
_journal_volume                  77
_journal_year                    2021
_chemical_formula_moiety         'C4 H8 Na O12 Rh'
_chemical_formula_sum            'C4 H8 Na O12 Rh'
_chemical_formula_weight         374.00
_space_group_crystal_system      triclinic
_space_group_IT_number           2
_space_group_name_Hall           '-P 1'
_space_group_name_H-M_alt        'P -1'
_atom_sites_solution_hydrogens   difmap
_audit_creation_date             2021-05-27
_audit_creation_method
;
Olex2 1.2
(compiled 2018.05.29 svn.r3508 for OlexSys, GUI svn.r5506)
;
_cell_angle_alpha                97.7960(10)
_cell_angle_beta                 92.0990(10)
_cell_angle_gamma                112.1130(10)
_cell_formula_units_Z            1
_cell_length_a                   5.2554(2)
_cell_length_b                   6.4584(2)
_cell_length_c                   8.2102(2)
_cell_measurement_reflns_used    5321
_cell_measurement_temperature    150(2)
_cell_measurement_theta_max      33.22
_cell_measurement_theta_min      3.93
_cell_volume                     254.612(14)
_computing_molecular_graphics    'Olex2 (Dolomanov et al., 2009)'
_computing_publication_material  'Olex2 (Dolomanov et al., 2009)'
_computing_structure_refinement  'ShelXL (Sheldrick, 2015)'
_computing_structure_solution    'SHELXS-97 (Sheldrick, 2008)'
_diffrn_ambient_temperature      150(2)
_diffrn_measured_fraction_theta_full 0.976
_diffrn_measured_fraction_theta_max 0.987
_diffrn_measurement_device_type  'Bruker APEX-II CCD'
_diffrn_measurement_method       '\f and \w scans'
_diffrn_radiation_monochromator  graphite
_diffrn_radiation_type           MoK\a
_diffrn_radiation_wavelength     0.71073
_diffrn_reflns_av_R_equivalents  0.0238
_diffrn_reflns_av_unetI/netI     0.0243
_diffrn_reflns_Laue_measured_fraction_full 0.976
_diffrn_reflns_Laue_measured_fraction_max 0.987
_diffrn_reflns_limit_h_max       8
_diffrn_reflns_limit_h_min       -7
_diffrn_reflns_limit_k_max       9
_diffrn_reflns_limit_k_min       -9
_diffrn_reflns_limit_l_max       12
_diffrn_reflns_limit_l_min       -8
_diffrn_reflns_number            5308
_diffrn_reflns_point_group_measured_fraction_full 0.976
_diffrn_reflns_point_group_measured_fraction_max 0.987
_diffrn_reflns_theta_full        25.242
_diffrn_reflns_theta_max         33.217
_diffrn_reflns_theta_min         3.929
_diffrn_standards_number         0
_exptl_absorpt_coefficient_mu    1.786
_exptl_absorpt_correction_T_max  0.7465
_exptl_absorpt_correction_T_min  0.6330
_exptl_absorpt_correction_type   multi-scan
_exptl_absorpt_process_details
'SADABS-2012/1 (Bruker,2012) was used for absorption correction. wR2(int) was 0.0452 before and 0.0317 after correction. The Ratio of minimum to maximum transmission is 0.8480. The \l/2 correction factor is 0.0015.'
_exptl_crystal_colour            orange
_exptl_crystal_colour_primary    orange
_exptl_crystal_density_diffrn    2.439
_exptl_crystal_density_method    'not measured'
_exptl_crystal_description       block
_exptl_crystal_F_000             184
_exptl_crystal_size_max          0.35
_exptl_crystal_size_mid          0.24
_exptl_crystal_size_min          0.2
_refine_diff_density_max         0.671
_refine_diff_density_min         -1.283
_refine_diff_density_rms         0.091
_refine_ls_extinction_method     none
_refine_ls_goodness_of_fit_ref   1.113
_refine_ls_hydrogen_treatment    constr
_refine_ls_matrix_type           full
_refine_ls_number_parameters     85
_refine_ls_number_reflns         1912
_refine_ls_number_restraints     0
_refine_ls_restrained_S_all      1.113
_refine_ls_R_factor_all          0.0157
_refine_ls_R_factor_gt           0.0156
_refine_ls_shift/su_max          0.000
_refine_ls_shift/su_mean         0.000
_refine_ls_structure_factor_coef Fsqd
_refine_ls_weighting_details
'w=1/[\s^2^(Fo^2^)+(0.0172P)^2^+0.1339P] where P=(Fo^2^+2Fc^2^)/3'
_refine_ls_weighting_scheme      calc
_refine_ls_wR_factor_gt          0.0416
_refine_ls_wR_factor_ref         0.0420
_reflns_Friedel_coverage         0.000
_reflns_number_gt                1909
_reflns_number_total             1912
_reflns_threshold_expression     'I > 2\s(I)'
_cod_data_source_file            yh5016sup1.cif
_cod_data_source_block           NaRh-1
_cod_database_code               2108902
_publcif_datablock.id            {c5f56b33-ec02-4492-8bc1-214dcdc4e2cb}
_shelx_shelxl_version_number     2017/1
_shelx_space_group_comment
;
The symmetry employed for this shelxl refinement is uniquely defined
by the following loop, which should always be used as a source of
symmetry information in preference to the above space-group names.
They are only intended as comments.
;
_shelx_estimated_absorpt_t_max   0.717
_shelx_estimated_absorpt_t_min   0.574
_olex2_refinement_description
;
1. Fixed Uiso
 At 1.5 times of:
  All O(H,H) groups
2.a Riding coordinates:
 O1W(H1WA,H1WB), O3W(H3WA,H3WB)
;
_shelx_res_file
;
TITL IG251_1m in P1 New: P-1
    x.res
    created by SHELXL-2017/1 at 21:05:32 on 27-May-2021
CELL 0.71073 5.2554 6.4584 8.2102 97.796 92.099 112.113
ZERR 1 0.0002 0.0002 0.0002 0.001 0.001 0.001
LATT 1
SFAC C H Na O Rh
UNIT 4 8 1 12 1

L.S. 10
PLAN  10
SIZE 0.2 0.24 0.35
TEMP -123(2)
BOND $H
CONF
fmap 2
acta
MERG 2
OMIT 0 180
REM <olex2.extras>
REM <HklSrc "%.\\x.hkl">
REM </olex2.extras>

WGHT    0.017200    0.133900
FVAR       0.54620
RH1   5    0.000000    0.000000    1.000000    10.50000    0.00489    0.00923 =
         0.00694    0.00411    0.00054   -0.00005
NA1   3    0.500000    0.500000    0.500000    10.50000    0.01344    0.01306 =
         0.01110    0.00594    0.00369    0.00427
O1    4   -0.113108    0.047431    0.775855    11.00000    0.00709    0.01445 =
         0.00922    0.00612    0.00044    0.00002
O1A   4    0.066766    0.245432    0.576801    11.00000    0.01180    0.01608 =
         0.01049    0.00665   -0.00051    0.00175
O1W   4    0.049540   -0.286395    0.902085    11.00000    0.00918    0.01158 =
         0.01359    0.00249    0.00123    0.00129
AFIX   3
H1WA  2    0.150910   -0.263265    0.817245    11.00000   -1.50000
H1WB  2   -0.121770   -0.398025    0.849605    11.00000   -1.50000
AFIX   0
O2    4    0.375590    0.200809    0.948808    11.00000    0.00669    0.01405 =
         0.00966    0.00608    0.00098    0.00039
O2A   4    0.575397    0.399558    0.753693    11.00000    0.00842    0.01418 =
         0.01201    0.00580    0.00194   -0.00014
O3W   4    0.642688    0.216461    0.356428    11.00000    0.00993    0.01546 =
         0.01438    0.00200   -0.00047    0.00277
AFIX   3
H3WA  2    0.483158    0.095091    0.328138    11.00000   -1.50000
H3WB  2    0.739648    0.187651    0.428218    11.00000   -1.50000
AFIX   0
C1    1    0.087044    0.184763    0.709945    11.00000    0.00740    0.00925 =
         0.00940    0.00248    0.00054    0.00134
C2    1    0.372621    0.272173    0.811356    11.00000    0.00752    0.00899 =
         0.00902    0.00227    0.00056    0.00166
HKLF 4




REM  IG251_1m in P1 New: P-1
REM R1 =  0.0156 for    1909 Fo > 4sig(Fo)  and  0.0157 for all    1912 data
REM     85 parameters refined using      0 restraints

END

WGHT      0.0172      0.1339

REM Highest difference peak  0.671,  deepest hole -1.283,  1-sigma level  0.091
Q1    1   0.0878  0.0948  1.0629  11.00000  0.05    0.67
Q2    1   0.0623  0.0928  0.9204  11.00000  0.05    0.60
Q3    1   0.3796  0.2456  0.8814  11.00000  0.05    0.53
Q4    1   0.2316  0.2310  0.7623  11.00000  0.05    0.45
Q5    1   0.0680  0.2081  0.6392  11.00000  0.05    0.44
Q6    1  -0.0124  0.1191  0.7413  11.00000  0.05    0.37
Q7    1   0.4748  0.3548  0.7956  11.00000  0.05    0.33
Q8    1   0.1994  0.0161  0.9593  11.00000  0.05    0.32
Q9    1   0.6179  0.1960  0.4409  11.00000  0.05    0.30
Q10   1   0.0444 -0.1870  0.9374  11.00000  0.05    0.29
;
_shelx_res_checksum              86582
_shelx_hkl_file
;
  -3   0   0  423.33   15.94
  -3   0   0  417.71   16.95
   3   0   0  423.43   15.98
   3   0   0  460.53   17.16
  -4   0   0   14.95    0.67
   4   0   0   15.29    0.68
   4   0   0   15.63    0.73
  -5   0   0   80.20    3.07
   5   0   0   80.05    3.29
   5   0   0   83.39    3.08
   6   0   0   37.70    1.54
   6   0   0   35.56    1.62
   7   0   0    8.04    0.54
   7   0   0    8.07    0.44
   7  -1   0   23.59    1.10
   6  -1   0   98.55    4.11
   6  -1   0  104.32    3.85
   5  -1   0   74.85    3.05
   5  -1   0   75.70    2.85
  -5   1   0   74.20    2.84
   4  -1   0   79.17    3.02
   4  -1   0   74.78    2.81
  -4   1   0   70.61    3.00
  -4   1   0   75.53    2.81
   3  -1   0  489.54   18.58
   3  -1   0  460.91   17.30
  -3   1   0  457.18   18.51
  -3   1   0  466.46   17.33
   2  -1   0  177.87    6.83
   2  -1   0  172.68    6.79
   2  -1   0  185.64    7.35
  -2   1   0  190.34    7.41
  -2   1   0  187.14    6.88
  -2  -1   0   96.30    3.61
   2   1   0   83.15    3.51
   2   1   0   98.56    3.66
   2   1   0  101.02    3.78
  -3  -1   0  205.81    7.95
   3   1   0  212.08    8.04
   3   1   0  223.44    8.56
   3   1   0  211.04    7.21
  -4  -1   0   25.37    1.07
   4   1   0   26.30    1.15
   4   1   0   27.40    1.09
   5   1   0   95.11    3.53
   5   1   0   91.61    3.77
   6   1   0   38.92    1.60
   6   1   0   38.20    1.20
   6   1   0   36.64    1.67
   7   1   0   85.25    2.50
   7   1   0   86.28    3.36
   7  -2   0  181.41    6.75
   6  -2   0  146.44    6.10
   6  -2   0  160.61    5.71
  -6   2   0  153.25    5.69
   5  -2   0  122.16    4.48
   5  -2   0  120.75    4.80
  -5   2   0  118.82    4.48
   4  -2   0  374.76   14.79
   4  -2   0  365.87   13.79
  -4   2   0  362.40   14.77
  -4   2   0  373.78   13.84
   3  -2   0   23.45    0.94
   3  -2   0   23.53    1.01
  -3   2   0   23.36    1.01
  -3   2   0   24.16    0.95
   2  -2   0  172.51    6.97
   2  -2   0  167.36    6.46
  -2   2   0  169.95    6.96
  -2   2   0  177.73    6.58
   1  -2   0  250.94    8.76
   1  -2   0  229.09    9.34
   1  -2   0  242.82    7.13
  -1   2   0  245.99    8.76
  -1   2   0  228.02    8.72
  -1   2   0  231.72    9.39
  -1   2   0  223.53    7.13
  -1   2   0  237.21    6.56
   0   2   0   -0.20    0.08
   0   2   0   -0.23    0.07
   0   2   0   -0.16    0.09
  -1  -2   0  103.69    3.72
   1   2   0   94.35    3.63
   1   2   0   91.14    3.63
   1   2   0  100.54    2.66
   1   2   0   99.31    3.76
  -2  -2   0  306.62   10.96
   2   2   0  301.49   11.00
   2   2   0  304.91    9.90
   2   2   0  305.32    8.07
   2   2   0  254.87   10.76
  -3  -2   0    9.76    0.46
   3   2   0    9.26    0.35
   3   2   0   10.02    0.50
   3   2   0    9.87    0.47
   3   2   0    9.67    0.39
  -4  -2   0  282.74   10.52
   4   2   0  293.11    7.72
   4   2   0  288.51   10.89
   4   2   0  295.61   11.24
   4   2   0  284.33    9.59
   5   2   0   12.37    0.65
   5   2   0   12.94    0.50
   5   2   0   12.47    0.68
   6   2   0   71.77    2.07
   6   2   0   71.61    2.77
   6   2   0   67.12    2.92
   8  -3   0   30.61    1.39
   7  -3   0  214.99    7.95
   6  -3   0   70.38    2.68
  -6   3   0   67.93    2.67
   5  -3   0  134.79    5.48
   5  -3   0  137.92    5.11
  -5   3   0  142.16    5.12
   4  -3   0  201.09    7.33
   4  -3   0  204.59    7.87
  -4   3   0  192.62    8.04
  -4   3   0  206.50    7.70
   3  -3   0   21.70    0.95
   3  -3   0   21.73    0.88
  -3   3   0   21.87    0.89
  -3   3   0   21.54    0.95
   2  -3   0  242.34    9.01
  -2   3   0  235.56    9.76
  -2   3   0  247.31    9.15
   1  -3   0  391.45   14.11
   1  -3   0  406.99   11.63
  -1   3   0  349.52   14.05
  -1   3   0  387.86   10.64
  -1   3   0  381.26   15.16
   0  -3   0  128.69    4.68
   0  -3   0  129.21    3.80
   0   3   0  107.47    4.65
   0   3   0  135.37    4.21
   0   3   0  131.27    4.82
   0   3   0  126.02    3.45
   0   3   0  125.31    3.59
  -1  -3   0  785.58   27.41
   1   3   0  801.65   20.12
   1   3   0  695.20   27.36
   1   3   0  780.44   20.71
   1   3   0  694.73   27.36
  -2  -3   0  150.83    5.46
   2   3   0  151.42    5.09
   2   3   0  148.52    4.08
   2   3   0  148.78    5.73
  -3  -3   0  294.40   11.20
   3   3   0  311.52   12.15
   3   3   0  312.03    8.24
   3   3   0  324.98   11.74
   3   3   0  305.95   10.41
   4   3   0   75.72    2.68
   4   3   0   80.85    3.22
   4   3   0   79.53    2.23
   4   3   0   81.56    3.04
   5   3   0   98.97    2.73
   5   3   0   93.65    3.90
   5   3   0   96.82    3.69
   6   3   0   36.41    1.57
   6   3   0   35.01    1.61
   6   3   0   35.67    1.17
   8  -4   0   81.02    3.19
   7  -4   0   15.13    0.78
   6  -4   0  113.30    4.21
  -6   4   0  110.34    4.21
   5  -4   0   38.85    1.52
   5  -4   0   35.96    1.63
  -5   4   0   38.16    1.52
   4  -4   0   28.72    1.13
   4  -4   0   26.74    1.22
  -4   4   0   28.09    1.14
  -4   4   0   27.36    1.21
   3  -4   0  109.38    4.00
  -3   4   0  111.57    4.43
  -3   4   0  104.62    4.17
   2  -4   0   78.99    2.44
   2  -4   0   81.73    2.99
  -2   4   0   79.54    3.12
  -2   4   0   82.63    3.21
   1  -4   0  187.95    5.87
   1  -4   0  189.50    6.99
  -1   4   0  190.59    7.29
  -1   4   0  189.78    5.48
  -1   4   0  193.84    7.67
  -1   4   0  186.63    5.16
   0  -4   0  701.19   25.61
   0  -4   0  667.56   20.97
   0   4   0  711.99   19.39
   0   4   0  727.25   23.44
  -1  -4   0  276.02   10.43
   1   4   0  290.65    7.80
   1   4   0  298.91    9.63
   1   4   0  284.36    8.01
   1   4   0  278.03   10.72
  -2  -4   0  427.29   16.18
   2   4   0  435.07   16.70
   2   4   0  456.81   12.65
   2   4   0  461.24   14.97
   2   4   0  452.07   12.09
   3   4   0  244.20    8.14
   3   4   0  245.21    9.61
   3   4   0  250.72    9.38
   3   4   0  245.59    6.60
   4   4   0  116.57    3.24
   4   4   0  115.53    4.69
   4   4   0  119.34    4.42
   5   4   0   53.72    2.17
   5   4   0   54.29    1.61
   5   4   0   51.46    2.25
   8  -5   0   46.29    1.95
   7  -5   0   68.94    2.68
  -7   5   0   66.72    2.68
   6  -5   0   53.90    2.14
  -6   5   0   53.61    2.14
   5  -5   0  169.42    6.24
  -5   5   0  169.35    6.25
   4  -5   0    7.78    0.48
   4  -5   0    8.51    0.46
  -4   5   0    8.73    0.48
  -4   5   0    8.32    0.45
   3  -5   0  195.03    6.92
  -3   5   0  189.91    7.07
  -3   5   0  183.34    7.63
   2  -5   0   45.84    1.73
   2  -5   0   42.60    1.42
  -2   5   0   45.77    1.75
  -2   5   0   46.38    1.86
   1  -5   0   64.21    2.46
   1  -5   0   63.27    2.03
  -1   5   0   67.25    2.65
  -1   5   0   67.67    2.48
  -1   5   0   68.97    2.26
  -1   5   0   66.13    1.87
  -1   5   0   63.79    1.78
   0  -5   0  221.24    7.02
   0  -5   0  235.58    8.61
   0   5   0  244.39    6.79
   0   5   0  239.82    8.89
   0   5   0  234.08    6.42
   0   5   0  249.70    7.91
  -1  -5   0   95.67    3.03
  -1  -5   0   94.88    3.67
   1   5   0  101.38    2.70
   1   5   0   98.91    3.70
   1   5   0  101.12    2.80
   1   5   0  104.42    3.36
   2   5   0  112.65    3.04
   2   5   0  106.43    4.15
   2   5   0  113.79    3.15
   2   5   0  112.10    3.74
   3   5   0  123.67    4.33
   3   5   0  130.78    4.84
   3   5   0  133.60    3.67
   3   5   0  134.10    3.55
   3   5   0  124.63    5.13
   4   5   0   18.60    0.72
   4   5   0   17.40    0.90
   4   5   0   18.60    0.67
   4   5   0   18.38    0.90
   7  -6   0   53.25    2.16
  -7   6   0   52.74    2.16
   6  -6   0  128.19    4.79
  -6   6   0  126.97    4.80
   5  -6   0   78.95    3.06
  -5   6   0   81.27    3.08
   4  -6   0  210.56    7.78
  -4   6   0  214.74    7.80
   3  -6   0   44.59    1.77
  -3   6   0   46.63    1.79
  -3   6   0   44.20    1.89
   2  -6   0  168.49    6.20
   2  -6   0  166.97    5.07
  -2   6   0  172.61    6.39
  -2   6   0  169.57    6.65
   1  -6   0   55.97    2.16
  -1   6   0   57.16    1.65
  -1   6   0   56.79    2.18
  -1   6   0   58.73    2.33
  -1   6   0   57.70    1.99
  -1   6   0   53.61    1.54
   0  -6   0   53.53    1.82
   0   6   0   59.21    2.24
   0   6   0   55.87    1.59
   0   6   0   60.46    2.03
   0   6   0   58.48    1.70
   0   6   0   58.86    2.37
  -1  -6   0   93.33    2.95
   1   6   0   94.87    2.73
   1   6   0   96.85    3.60
   1   6   0   96.72    3.25
   1   6   0   95.52    2.61
  -2  -6   0   41.65    1.44
   2   6   0   42.21    1.73
   2   6   0   42.60    1.53
   2   6   0   43.85    1.26
   2   6   0   42.98    1.34
  -3  -6   0   35.09    1.27
   3   6   0   36.88    1.11
   3   6   0   33.40    1.56
   3   6   0   36.97    1.19
   3   6   0   35.44    1.51
  -4  -6   0   46.85    1.66
   4   6   0   48.40    1.46
   4   6   0   46.07    2.04
   4   6   0   48.66    1.55
   4   6   0   48.40    1.99
  -7   7   0   50.62    2.09
   6  -7   0   26.73    1.18
  -6   7   0   25.43    1.18
   5  -7   0   95.87    3.67
  -5   7   0   97.27    3.69
   4  -7   0   51.19    2.07
  -4   7   0   54.25    2.10
   3  -7   0   97.96    3.81
   3  -7   0  104.54    3.14
  -3   7   0   98.58    4.09
  -3   7   0  105.57    3.84
   2  -7   0   34.53    1.19
  -2   7   0   36.05    1.09
  -2   7   0   35.87    1.44
  -2   7   0   33.40    1.51
  -2   7   0   34.21    1.30
   1  -7   0  120.72    3.88
  -1   7   0  131.69    3.58
  -1   7   0  128.61    5.06
  -1   7   0  134.57    4.33
  -1   7   0  133.11    4.76
  -1   7   0  114.83    3.40
   0  -7   0   36.40    1.30
   0   7   0   36.45    1.09
   0   7   0   40.46    1.66
   0   7   0   38.80    1.57
   0   7   0   38.14    1.20
   0   7   0   38.66    1.41
  -1  -7   0   98.56    3.10
   1   7   0   98.92    3.39
   1   7   0   96.42    2.72
   1   7   0  100.67    3.77
   1   7   0  101.41    2.87
  -2  -7   0   89.12    2.89
   2   7   0   92.75    2.54
   2   7   0   86.85    3.12
   2   7   0   91.79    3.51
   2   7   0   94.43    2.68
  -3  -7   0   48.53    1.72
   3   7   0   48.84    2.05
   3   7   0   50.70    1.49
   3   7   0   49.64    2.14
   3   7   0   51.03    1.61
  -6   8   0   58.84    2.39
  -5   8   0   12.48    0.69
  -4   8   0   92.86    3.57
   3  -8   0   15.81    0.69
  -3   8   0   16.55    0.75
  -3   8   0   16.79    0.82
   2  -8   0   39.95    1.41
  -2   8   0   42.05    1.71
  -2   8   0   41.53    1.55
   1  -8   0   23.82    0.94
  -1   8   0   25.12    1.01
  -1   8   0   25.18    1.12
  -1   8   0   25.78    0.87
   0  -8   0   44.02    1.55
   0   8   0   47.26    1.68
   0   8   0   45.30    1.99
   0   8   0   45.90    1.43
   0   8   0   45.32    1.87
  -1  -8   0   28.47    1.10
   1   8   0   28.50    1.13
   1   8   0   30.17    1.02
   1   8   0   30.26    1.31
  -5   9   0   62.75    2.54
  -4   9   0   33.83    1.40
  -4   9   0   36.47    1.55
   3  -9   0   57.03    1.93
  -3   9   0   56.19    2.13
  -3   9   0   59.61    2.34
   2  -9   0   10.63    0.56
  -2   9   0   10.84    0.64
  -2   9   0   10.19    0.56
   1  -9   0   30.33    1.15
  -1   9   0   31.73    1.06
  -1   9   0   30.86    1.36
  -1   9   0   29.86    1.22
   0  -9   0    6.60    0.46
   0   9   0    7.76    0.44
   0   9   0    6.82    0.42
   0   9   0    7.61    0.53
   0   9  -1   29.05    1.31
   0   9  -1   27.02    1.11
   0   9  -1   28.94    0.99
   0  -9   1   28.43    1.09
  -1   9  -1   16.33    0.86
  -1   9  -1   16.91    0.66
  -1   9  -1   16.27    0.74
   1  -9   1   15.74    0.72
  -2   9  -1   53.05    2.14
  -2   9  -1   50.38    1.92
   2  -9   1   52.32    1.76
  -3   9  -1   11.01    0.60
  -3   9  -1   11.62    0.69
   3  -9   1   12.06    0.60
  -4   9  -1   36.17    1.58
  -5   9  -1   24.74    1.18
   1   8  -1  110.19    3.06
   1   8  -1   97.03    3.58
   1   8  -1  108.78    4.05
  -1  -8   1  104.99    3.31
   0   8  -1    3.40    0.36
   0   8  -1    3.35    0.27
   0   8  -1    3.77    0.28
   0  -8   1    3.22    0.33
  -1   8  -1   88.57    2.51
  -1   8  -1   85.05    3.00
  -1   8  -1   89.07    3.34
   1  -8   1   83.09    2.73
  -2   8  -1   42.27    1.72
  -2   8  -1   41.64    1.55
   2  -8   1   40.24    1.42
  -3   8  -1   33.29    1.41
   3  -8   1   31.59    1.16
  -4   8  -1   71.96    2.83
  -5   8  -1   38.36    1.63
  -6   8  -1   21.79    1.05
   3   7  -1   46.18    1.93
   3   7  -1   45.80    1.38
   3   7  -1   43.34    1.99
   3   7  -1   47.36    1.49
  -3  -7   1   46.29    1.60
   2   7  -1   74.70    2.21
   2   7  -1   73.57    2.90
   2   7  -1   74.04    2.08
  -2  -7   1   73.39    2.39
   1   7  -1   25.23    0.78
   1   7  -1   26.33    1.15
   1   7  -1   25.89    0.99
   1   7  -1   26.57    0.89
  -1  -7   1   25.66    0.97
   0   7  -1  136.63    4.59
   0   7  -1  137.20    5.09
   0   7  -1  136.09    3.82
   0  -7   1  134.48    4.15
  -1   7  -1   40.11    1.23
  -1   7  -1   41.37    1.64
  -1   7  -1   39.82    1.72
  -1   7  -1   41.10    1.47
   1  -7   1   37.97    1.34
  -2   7  -1  187.30    7.58
  -2   7  -1  200.74    7.11
   2  -7   1  193.84    5.79
   2  -7   1  189.63    7.07
  -3   7  -1  124.40    4.55
   3  -7   1  117.91    4.51
  -4   7  -1  159.54    5.78
   4  -7   1  151.04    5.75
  -5   7  -1   97.69    3.71
   5  -7   1   96.81    3.70
  -6   7  -1   77.34    3.00
   6  -7   1   75.94    2.98
   7  -7   1   25.14    1.17
   4   6  -1   45.72    2.08
   4   6  -1   48.47    1.46
   4   6  -1   50.55    1.55
   4   6  -1   47.42    2.00
  -4  -6   1   46.70    1.66
   3   6  -1   74.48    3.16
   3   6  -1   76.92    2.16
   3   6  -1   76.23    2.99
   3   6  -1   78.20    2.27
  -3  -6   1   75.64    2.45
   2   6  -1   47.78    1.37
   2   6  -1   48.58    1.46
   2   6  -1   47.76    1.91
   2   6  -1   46.25    1.66
  -2  -6   1   46.89    1.58
   1   6  -1   44.72    1.74
   1   6  -1   40.86    1.22
   1   6  -1   44.40    1.31
   1   6  -1   43.10    1.52
  -1  -6   1   42.73    1.43
   0   6  -1   39.45    1.36
   0   6  -1   36.22    1.06
   0   6  -1   38.23    1.15
   0   6  -1   39.70    1.54
   0  -6   1   36.55    1.50
   0  -6   1   37.94    1.26
  -1   6  -1  143.16    5.24
  -1   6  -1  146.09    4.76
  -1   6  -1  139.65    5.60
  -1   6  -1  142.97    3.93
   1  -6   1  140.67    5.22
   1  -6   1  138.23    4.27
  -2   6  -1   20.55    0.88
  -2   6  -1   20.80    0.94
   2  -6   1   19.34    0.73
   2  -6   1   19.93    0.87
  -3   6  -1  338.70   13.67
  -3   6  -1  354.06   13.03
   3  -6   1  350.11   12.60
  -4   6  -1   58.28    2.27
   4  -6   1   58.16    2.26
  -5   6  -1  158.81    5.84
   5  -6   1  155.49    5.82
  -6   6  -1   87.82    3.43
   6  -6   1   91.49    3.44
   7  -6   1   27.59    1.24
   4   5  -1   90.11    2.57
   4   5  -1   90.42    3.52
   4   5  -1   97.73    2.70
   4   5  -1   86.83    3.73
   3   5  -1  100.00    4.09
   3   5  -1   99.21    3.84
   3   5  -1  104.07    2.91
   3   5  -1  102.03    2.80
   2   5  -1  147.71    4.97
   2   5  -1  154.18    5.53
   2   5  -1  147.25    4.16
   2   5  -1  148.44    4.03
   1   5  -1   28.56    0.83
   1   5  -1   29.06    1.18
   1   5  -1   28.96    0.89
   1   5  -1   29.30    1.03
  -1  -5   1   28.78    0.97
  -1  -5   1   27.40    1.15
   0   5  -1  105.22    3.40
   0   5  -1  103.26    2.82
   0   5  -1   96.82    2.70
   0   5  -1  101.87    3.76
   0  -5   1   99.69    3.07
   0  -5   1   99.96    3.74
  -1   5  -1   23.24    0.96
  -1   5  -1   23.69    1.02
  -1   5  -1   21.96    0.64
  -1   5  -1   23.93    0.72
   1  -5   1   23.23    0.95
  -2   5  -1  101.51    4.00
  -2   5  -1   99.57    3.74
   2  -5   1  100.31    3.05
   2  -5   1  101.55    3.73
  -3   5  -1   28.64    1.28
  -3   5  -1   30.05    1.20
   3  -5   1   30.27    1.20
  -4   5  -1  210.05    7.67
  -4   5  -1  194.38    7.98
   4  -5   1  207.67    7.46
  -5   5  -1   24.90    1.07
   5  -5   1   24.83    1.07
  -6   5  -1  106.22    4.09
   6  -5   1  110.78    4.10
   7  -5   1   30.92    1.35
   5   4  -1   83.43    2.36
   5   4  -1   77.73    3.38
   5   4  -1   84.81    3.22
   4   4  -1  102.89    3.85
   4   4  -1   97.92    4.09
   4   4  -1  102.55    2.82
   3   4  -1  117.67    4.33
   3   4  -1  109.93    3.85
   3   4  -1  113.11    3.16
   3   4  -1  121.76    4.63
   2   4  -1  191.49    5.22
   2   4  -1  193.62    6.47
   2   4  -1  195.89    7.23
  -2  -4   1  191.59    7.04
   1   4  -1  210.19    5.70
   1   4  -1  213.52    7.09
   1   4  -1  209.95    6.04
   1   4  -1  214.21    8.07
  -1  -4   1  208.05    7.67
   0   4  -1  136.08    4.29
   0   4  -1  129.84    3.78
   0   4  -1  129.54    4.99
   0   4  -1  124.60    3.48
   0  -4   1  127.44    3.85
   0  -4   1  126.67    4.72
  -1   4  -1  329.48    9.19
  -1   4  -1  320.60   12.24
   1  -4   1  330.29   10.04
   1  -4   1  325.04   12.06
  -2   4  -1  153.36    5.95
  -2   4  -1  146.31    6.29
   2  -4   1  153.36    4.52
   2  -4   1  155.01    5.62
  -3   4  -1  349.86   12.89
  -3   4  -1  331.16   13.79
   3  -4   1  348.86   12.69
  -4   4  -1  118.00    4.45
  -4   4  -1  110.18    4.58
   4  -4   1  117.07    4.60
   4  -4   1  117.49    4.28
  -5   4  -1  257.77    9.60
   5  -4   1  250.66   10.00
   5  -4   1  259.53    9.34
  -6   4  -1   38.07    1.57
   6  -4   1   38.63    1.57
   7  -4   1   89.28    3.44
   8  -4   1   18.85    0.95
   8  -4   1   18.66    0.69
   6   3  -1   61.17    2.43
   6   3  -1   55.32    2.53
   6   3  -1   61.62    1.80
   5   3  -1    4.61    0.30
   5   3  -1    4.26    0.37
   5   3  -1    4.20    0.38
   4   3  -1  126.54    4.68
   4   3  -1  123.73    5.00
   4   3  -1  125.51    3.43
   3   3  -1  164.09    5.56
   3   3  -1  171.67    6.62
   3   3  -1  169.01    4.53
   3   3  -1  173.68    6.47
  -3  -3   1  164.11    6.16
   2   3  -1   92.54    2.56
   2   3  -1   92.24    3.13
   2   3  -1   99.80    3.51
  -2  -3   1   92.98    3.49
   1   3  -1  582.79   21.15
   1   3  -1  564.53   15.36
   1   3  -1  588.92   19.04
  -1  -3   1  558.14   21.03
   0   3  -1  310.47   11.12
   0   3  -1  284.01    7.89
   0   3  -1  294.19    8.21
   0  -3   1  279.22   10.92
   0  -3   1  305.46    8.90
  -1   3  -1  131.58    5.13
  -1   3  -1  131.56    3.79
   1  -3   1  136.59    4.11
   1  -3   1  136.41    5.00
  -3   3  -1   98.87    4.07
  -3   3  -1   99.63    3.70
   3  -3   1   99.93    3.70
   3  -3   1  102.78    3.97
  -4   3  -1  424.67   15.70
  -4   3  -1  417.29   16.74
   4  -3   1  423.46   16.83
   4  -3   1  417.20   15.57
  -5   3  -1  184.25    6.92
   5  -3   1  189.26    7.42
   5  -3   1  192.81    6.92
  -6   3  -1  138.81    5.23
   6  -3   1  147.00    5.25
   6  -3   1  136.69    5.61
   7  -3   1   65.45    2.59
   8  -3   1   86.45    2.49
   8  -3   1   86.60    3.39
   6   2  -1   54.62    1.62
   6   2  -1   50.24    2.28
   6   2  -1   54.46    2.17
   5   2  -1  125.03    4.58
   5   2  -1  118.79    4.88
   4   2  -1  168.30    6.23
   4   2  -1  165.99    6.66
  -4  -2   1  173.38    6.23
   3   2  -1  537.13   20.13
   3   2  -1  548.54   21.53
   3   2  -1  527.31   17.93
  -3  -2   1  552.02   19.97
   2   2  -1  244.40    9.11
  -2  -2   1  238.09    8.91
  -1  -2   1  537.07   19.66
   0   2  -1  196.49    7.94
   0   2  -1  218.90    5.96
   0   2  -1  216.62    8.00
   0  -2   1  220.24    6.48
  -1   2  -1    0.07    0.11
  -1   2  -1   -0.02    0.08
  -1   2  -1   -0.31    0.10
  -1   2  -1   -0.31    0.10
   1  -2   1   -0.04    0.11
   1  -2   1   -0.47    0.09
  -2   2  -1   65.14    2.44
  -2   2  -1   61.13    2.64
   2  -2   1   64.09    2.50
   2  -2   1   61.53    2.33
  -3   2  -1   49.15    2.01
  -3   2  -1   51.87    1.88
   3  -2   1   50.80    2.01
   3  -2   1   47.05    1.87
  -4   2  -1   54.35    2.05
  -4   2  -1   50.51    2.19
   4  -2   1   53.55    2.05
   4  -2   1   56.67    2.20
  -5   2  -1  195.33    7.46
   5  -2   1  204.82    7.88
   5  -2   1  202.24    7.47
   6  -2   1   52.89    2.28
   6  -2   1   55.17    2.14
   7  -2   1  150.74    4.13
   7  -2   1  148.42    5.60
   7   1  -1   68.94    2.77
   7   1  -1   69.06    2.06
   6   1  -1  127.30    4.55
   6   1  -1  112.22    4.82
   5   1  -1  171.26    6.18
   5   1  -1  162.43    6.61
  -5  -1   1  167.82    6.17
   4   1  -1  520.52   20.22
   4   1  -1  518.14   19.07
  -4  -1   1  494.39   18.67
   3   1  -1  190.75    7.42
   3   1  -1  211.85    7.82
  -3  -1   1  185.59    7.37
   1   1  -1   90.81    3.57
   1   1  -1   97.13    3.64
  -1  -1   1   97.79    3.68
  -1  -1   1   98.02    3.68
   0  -1   1  233.46    8.46
   0  -1   1  227.72    8.46
   1  -1   1  412.42   15.03
  -2   1  -1  109.12    4.44
  -2   1  -1  114.53    4.28
   2  -1   1  110.14    4.14
   2  -1   1  108.69    4.19
   2  -1   1  114.41    4.50
  -3   1  -1  150.28    5.60
  -3   1  -1  144.31    5.86
   3  -1   1  147.66    5.58
   3  -1   1  151.39    5.99
  -4   1  -1  127.69    4.87
   4  -1   1  139.14    5.23
   4  -1   1  131.91    4.88
  -5   1  -1   24.92    1.04
   5  -1   1   25.00    1.13
   5  -1   1   25.54    1.06
   6  -1   1  243.20    9.93
   6  -1   1  260.89    9.30
   6  -1   1  256.80    6.83
   7  -1   1   37.13    1.56
   7  -1   1   34.63    1.64
   7  -1   1   37.24    1.17
   7   0  -1   67.30    2.69
   6   0  -1    5.41    0.39
   6   0  -1    4.89    0.41
   5   0  -1  262.34   10.55
   5   0  -1  273.44   10.20
  -5   0   1  274.56    9.85
   4   0  -1    3.73    0.28
   4   0  -1    3.58    0.26
  -4   0   1    3.48    0.25
   3   0  -1  340.00   12.85
   3   0  -1  356.26   13.84
  -3   0   1  342.66   12.96
   2   0  -1  365.57   14.34
   2   0  -1  361.69   13.34
  -2   0   1  355.18   13.38
   1   0  -1  245.39    8.91
  -1   0   1  237.80    8.88
  -2   0  -1  133.75    5.31
  -2   0  -1  137.63    5.01
   2   0   1  132.21    5.03
   2   0   1  135.84    4.57
   2   0   1  126.51    4.97
   2   0   1  139.17    5.37
  -3   0  -1  474.52   17.64
   3   0   1  437.40   17.50
   3   0   1  515.48   18.98
   3   0   1  482.99   17.72
   3   0   1  487.28   16.08
  -4   0  -1  241.44    8.98
   4   0   1  243.64    9.76
   4   0   1  252.98    9.18
   5   0   1  185.04    7.41
   5   0   1  188.41    5.11
   5   0   1  193.71    6.94
   6   0   1  193.51    5.22
   6   0   1  196.81    7.09
   6   0   1  184.32    7.55
   7   0   1   85.18    3.28
   7   0   1   86.04    2.45
   7   0   1   80.78    3.46
   7  -1  -1   18.91    0.94
   6  -1  -1   54.14    2.06
   6  -1  -1   48.44    2.19
   5  -1  -1    1.25    0.21
   5  -1  -1    1.19    0.21
   4  -1  -1   90.95    3.54
   4  -1  -1   88.93    3.29
  -4   1   1   86.82    3.53
  -4   1   1   86.78    3.29
   3  -1  -1   35.10    1.40
   3  -1  -1   37.77    1.51
  -3   1   1   35.21    1.50
  -3   1   1   37.01    1.41
   2  -1  -1  296.99   11.26
   2  -1  -1  308.77   12.03
  -2   1   1  298.32   12.03
  -2   1   1  307.23   11.30
   1  -1  -1  339.29   12.41
  -1  -1  -1   72.49    2.80
   1   1   1   78.55    3.01
   1   1   1   72.66    2.04
   1   1   1   76.30    2.81
  -3  -1  -1  138.56    5.11
   3   1   1  144.66    5.26
   3   1   1  140.16    4.76
   3   1   1  124.96    5.11
   3   1   1  142.36    3.77
   3   1   1  151.63    5.55
  -4  -1  -1  118.96    4.69
   4   1   1  134.30    5.05
   4   1   1  127.52    3.48
   4   1   1  130.33    4.28
   4   1   1  128.20    4.72
   5   1   1  231.71    6.47
   5   1   1  242.44    9.39
   5   1   1  247.07    8.80
   6   1   1   42.06    1.31
   6   1   1   42.13    1.84
   6   1   1   42.51    1.74
   7   1   1   84.20    2.45
   7   1   1   83.60    3.46
   7   1   1   83.14    3.28
   7  -2  -1   31.35    1.37
   6  -2  -1  128.13    4.71
  -6   2   1  123.16    4.70
   5  -2  -1   22.98    1.08
   5  -2  -1   24.02    1.01
  -5   2   1   23.61    1.00
   4  -2  -1  233.69    8.50
   4  -2  -1  236.03    9.31
  -4   2   1  223.68    9.28
  -4   2   1  233.89    9.00
   3  -2  -1  942.69   36.94
   3  -2  -1  945.26   34.42
   2  -2  -1   82.63    3.17
   2  -2  -1   83.65    3.26
  -2   2   1   79.77    3.05
  -2   2   1   81.80    3.11
  -2   2   1   84.50    3.39
   0  -2  -1  206.27    7.55
   0  -2  -1  201.79    6.24
   0   2   1  200.64    5.79
   0   2   1  209.76    7.62
   0   2   1  202.17    5.61
   0   2   1  214.80    6.94
  -1  -2  -1  382.63   14.34
   1   2   1  398.45   13.18
   1   2   1  397.68   10.67
   1   2   1  397.63   14.43
  -2  -2  -1  180.77    6.74
   2   2   1  188.73    6.89
   2   2   1  193.71    7.32
   2   2   1  184.38    5.01
   2   2   1  190.69    6.31
   2   2   1  166.14    6.72
  -3  -2  -1    7.12    0.36
   3   2   1    7.71    0.39
   3   2   1    7.46    0.30
   3   2   1    8.04    0.42
   3   2   1    8.82    0.35
   4   2   1   23.18    0.75
   4   2   1   23.23    0.87
   4   2   1   23.94    1.05
   4   2   1   23.70    1.00
   5   2   1   40.76    1.65
   5   2   1   40.58    1.24
   5   2   1   39.99    1.73
   6   2   1    8.74    0.55
   6   2   1    8.38    0.54
   6   2   1    8.93    0.44
   8  -3  -1   24.11    1.15
   7  -3  -1   70.77    2.78
   6  -3  -1   67.56    2.60
  -6   3   1   66.16    2.60
   5  -3  -1  138.12    4.96
   5  -3  -1  129.35    5.31
  -5   3   1  133.83    4.96
   4  -3  -1  345.43   14.10
   4  -3  -1  362.12   13.31
  -4   3   1  369.42   13.30
  -4   3   1  343.66   14.19
   3  -3  -1  291.13   10.94
  -3   3   1  297.09   11.17
  -3   3   1  300.99   11.95
   1  -3  -1  386.80   14.08
   1  -3  -1  391.07   11.61
  -1   3   1  388.49   10.37
  -1   3   1  379.96   10.69
  -1   3   1  390.69   14.17
  -1   3   1  398.20   15.13
  -1   3   1  355.06   14.08
   0  -3  -1  868.05   31.65
   0   3   1  880.32   28.97
  -1  -3  -1  133.61    4.84
   1   3   1  122.21    4.94
   1   3   1  133.79    5.06
   1   3   1  142.82    4.55
   1   3   1  134.72    3.62
  -2  -3  -1  105.98    3.91
   2   3   1   91.37    3.92
   2   3   1  110.61    2.90
   2   3   1  113.23    3.59
   2   3   1  113.93    4.21
   2   3   1  107.61    4.03
   3   3   1   17.61    0.79
   3   3   1   18.54    0.70
   3   3   1   19.01    0.84
   3   3   1   18.56    0.60
   4   3   1   63.01    2.56
   4   3   1   61.11    2.17
   4   3   1   63.11    1.80
   4   3   1   64.32    2.44
   5   3   1   11.20    0.48
   5   3   1   10.95    0.61
   5   3   1   10.95    0.61
   6   3   1   67.64    2.73
   6   3   1   71.01    2.05
   6   3   1   67.08    2.84
   8  -4  -1   67.06    2.69
   7  -4  -1   79.47    3.02
  -7   4   1   75.08    3.01
   6  -4  -1   23.36    1.03
  -6   4   1   22.88    1.03
   5  -4  -1  163.61    6.02
  -5   4   1  163.21    6.03
   4  -4  -1   26.06    1.02
  -4   4   1   24.19    1.02
  -4   4   1   23.16    1.08
   3  -4  -1   42.19    1.59
   3  -4  -1   40.59    1.71
  -3   4   1   41.33    1.60
  -3   4   1   40.91    1.70
   2  -4  -1  231.60    8.31
   2  -4  -1  224.43    7.02
  -2   4   1  225.97    9.04
  -2   4   1  222.58    8.45
   1  -4  -1   37.56    1.15
   1  -4  -1   36.43    1.37
  -1   4   1   30.49    1.37
  -1   4   1   37.33    1.28
  -1   4   1   37.20    1.48
  -1   4   1   37.49    1.39
  -1   4   1   36.50    1.06
  -1   4   1   35.96    1.00
   0  -4  -1   86.44    3.22
   0  -4  -1   90.29    2.66
   0   4   1   89.44    2.96
   0   4   1   87.61    2.37
   0   4   1   86.36    2.45
   0   4   1   86.82    3.34
  -1  -4  -1  389.01   14.11
   1   4   1  408.74   10.61
   1   4   1  390.04   14.45
   1   4   1  406.70   11.08
   1   4   1  410.10   13.16
   1   4   1  332.55   14.09
   2   4   1    1.27    0.16
   2   4   1    2.10    0.17
   3   4   1  281.85    7.79
   3   4   1  279.23    9.38
   3   4   1  278.77   10.61
   3   4   1  290.62   11.03
   3   4   1  288.68    7.59
   4   4   1   49.12    1.43
   4   4   1   47.45    1.98
   4   4   1   45.31    1.67
   4   4   1   47.68    1.90
   5   4   1   74.03    2.24
   5   4   1   76.05    2.17
   5   4   1   72.30    2.90
   5   4   1   73.70    3.03
   7  -5  -1   50.67    2.06
  -7   5   1   50.10    2.06
   6  -5  -1   73.81    2.81
  -6   5   1   71.17    2.81
   5  -5  -1   57.90    2.25
  -5   5   1   58.00    2.26
   4  -5  -1   22.08    0.91
  -4   5   1   20.82    0.91
  -4   5   1   20.48    0.97
   3  -5  -1   37.13    1.46
  -3   5   1   37.39    1.57
  -3   5   1   37.29    1.47
   2  -5  -1   66.53    2.51
   2  -5  -1   66.65    2.07
  -2   5   1   67.70    2.53
  -2   5   1   67.77    2.70
   1  -5  -1   44.75    1.72
   1  -5  -1   46.41    1.44
  -1   5   1   43.71    1.74
  -1   5   1   44.34    1.26
  -1   5   1   47.22    1.86
  -1   5   1   46.64    1.60
  -1   5   1   45.02    1.33
   0  -5  -1  206.01    6.01
   0  -5  -1  188.57    7.32
   0   5   1  190.72    7.42
   0   5   1  199.58    5.49
   0   5   1  203.35    5.64
   0   5   1  210.77    7.98
   0   5   1  215.45    6.72
  -1  -5  -1   58.25    1.82
   1   5   1   56.74    1.68
   1   5   1   56.80    2.20
   1   5   1   59.10    2.01
   1   5   1   57.01    1.61
   2   5   1  203.55    6.58
   2   5   1  201.38    5.32
   2   5   1  190.32    5.47
   2   5   1  195.20    7.24
   3   5   1   41.94    1.74
   3   5   1   43.15    1.36
   3   5   1   44.24    1.30
   3   5   1   41.62    1.54
   3   5   1   44.87    1.82
   4   5   1   81.22    3.03
   4   5   1   90.21    3.40
   4   5   1   92.18    2.52
   4   5   1   88.90    2.61
   4   5   1   88.90    3.56
   7  -6  -1   76.92    2.95
  -7   6   1   72.87    2.95
   6  -6  -1   57.08    2.24
  -6   6   1   55.66    2.25
   5  -6  -1   33.72    1.40
  -5   6   1   33.52    1.41
   4  -6  -1   82.83    3.12
  -4   6   1   79.02    3.34
  -4   6   1   85.62    3.14
   3  -6  -1  109.60    4.11
  -3   6   1  111.72    4.13
  -3   6   1  110.93    4.41
   2  -6  -1   70.83    2.77
   2  -6  -1   74.88    2.30
  -2   6   1   74.67    2.99
  -2   6   1   75.78    2.57
  -2   6   1   74.39    2.81
   1  -6  -1  314.97    9.22
  -1   6   1  328.04   12.17
  -1   6   1  295.34    8.34
  -1   6   1  301.10   11.79
  -1   6   1  309.35    8.80
  -1   6   1  321.88   10.33
   0   6   1  156.64    5.94
   0   6   1  152.98    4.22
   0   6   1  145.84    4.06
   0   6   1  148.72    5.57
   0   6   1  152.64    5.09
  -1  -6  -1  158.58    4.78
   1   6   1  150.12    5.83
   1   6   1  162.19    4.42
   1   6   1  157.39    4.27
   1   6   1  162.54    5.32
  -2  -6  -1  143.86    4.34
   2   6   1  144.32    4.01
   2   6   1  142.74    5.60
   2   6   1  133.64    5.26
   2   6   1  140.44    4.78
   2   6   1  145.36    3.87
  -3  -6  -1   53.02    1.74
   3   6   1   50.67    1.61
   3   6   1   48.79    1.82
   3   6   1   52.32    1.53
   3   6   1   50.86    2.06
   3   6   1   51.48    2.14
  -7   7   1   12.46    0.71
  -6   7   1   64.59    2.57
  -5   7   1    9.04    0.54
  -4   7   1   70.88    2.74
   3  -7  -1   51.64    1.70
  -3   7   1   53.29    2.06
  -3   7   1   51.46    2.18
   2  -7  -1   74.79    2.35
  -2   7   1   75.31    2.86
  -2   7   1   74.40    2.63
  -2   7   1   74.53    3.04
   1  -7  -1  135.92    4.23
  -1   7   1  142.43    4.72
  -1   7   1  144.68    5.50
  -1   7   1  126.44    3.73
  -1   7   1  143.93    3.91
  -1   7   1  141.27    5.17
   0  -7  -1  122.26    3.76
   0   7   1  124.63    4.86
   0   7   1  116.60    3.31
   0   7   1  118.22    4.57
   0   7   1  124.96    4.18
   0   7   1  127.90    3.48
  -1  -7  -1   99.08    3.16
   1   7   1  101.19    2.79
   1   7   1  103.70    2.93
   1   7   1  102.84    4.05
   1   7   1  100.41    3.83
   1   7   1   99.64    3.47
  -2  -7  -1   97.31    3.03
   2   7   1   91.81    3.64
   2   7   1   97.26    3.84
   2   7   1   96.99    3.82
   2   7   1   89.85    3.28
   2   7   1   97.14    2.80
   2   7   1   96.61    2.67
  -6   8   1   15.70    0.83
  -5   8   1   68.38    2.71
  -4   8   1    6.13    0.45
   3  -8  -1   44.72    1.51
  -3   8   1   44.30    1.67
  -3   8   1   43.92    1.81
   2  -8  -1   27.00    0.99
  -2   8   1   26.46    1.08
  -2   8   1   26.55    1.21
  -2   8   1   25.95    1.17
   1  -8  -1   18.73    0.77
  -1   8   1   18.77    0.82
  -1   8   1   19.49    0.72
  -1   8   1   19.15    0.92
  -1   8   1   18.92    0.90
   0  -8  -1   49.08    1.67
   0   8   1   48.13    1.99
   0   8   1   49.03    1.81
   0   8   1   49.61    1.55
   0   8   1   50.37    2.08
  -1  -8  -1   35.74    1.28
   1   8   1   33.49    1.49
   1   8   1   35.94    1.19
   1   8   1   34.34    1.34
   1   8   1   35.26    1.52
  -5   9   1   28.75    1.33
  -5   9   1   29.84    1.23
  -4   9   1   58.86    2.31
  -4   9   1   54.14    2.11
   3  -9  -1   11.63    0.59
  -3   9   1   11.65    0.67
  -3   9   1   10.72    0.61
   2  -9  -1   48.55    1.69
  -2   9   1   50.66    2.03
  -2   9   1   48.80    1.86
   1  -9  -1   15.53    0.71
  -1   9   1   14.27    0.72
  -1   9   1   15.73    0.66
  -1   9   1   15.48    0.81
   0   9  -2   74.82    2.16
   0   9  -2   73.36    2.88
   0   9  -2   68.08    2.52
   0  -9   2   71.85    2.36
  -1   9  -2   27.46    1.25
  -1   9  -2   27.14    1.07
  -1   9  -2   26.02    0.92
   1  -9   2   26.37    1.03
  -2   9  -2  114.42    4.23
  -2   9  -2  105.57    3.80
   2  -9   2  109.98    3.45
  -3   9  -2   51.85    2.14
  -4   9  -2   11.09    0.68
  -5   9  -2   67.87    2.73
   2   8  -2   59.37    1.80
   2   8  -2   56.54    2.37
  -2  -8   2   57.80    1.96
   1   8  -2  100.86    2.88
   1   8  -2  100.31    3.84
  -1  -8   2   96.78    3.13
   0   8  -2  121.25    4.58
   0   8  -2  118.24    4.09
   0   8  -2  122.46    3.42
   0  -8   2  119.90    3.73
  -1   8  -2   98.22    3.34
  -1   8  -2   98.05    3.72
  -1   8  -2   96.90    2.78
   1  -8   2   94.82    3.04
  -2   8  -2  132.97    4.97
  -2   8  -2  131.47    4.49
   2  -8   2  131.30    4.05
  -3   8  -2   42.03    1.71
   3  -8   2   39.42    1.68
  -4   8  -2   33.24    1.46
   4  -8   2   34.62    1.45
  -5   8  -2   11.55    0.66
   5  -8   2   10.78    0.64
  -6   8  -2    7.76    0.53
   6  -8   2    7.62    0.54
   3   7  -2   41.87    1.32
   3   7  -2   35.02    1.81
   3   7  -2   40.80    1.72
   3   7  -2   39.82    1.21
  -3  -7   2   40.77    1.42
   2   7  -2   45.25    1.32
   2   7  -2   46.90    1.43
   2   7  -2   44.91    1.88
  -2  -7   2   44.11    1.55
   1   7  -2   87.81    3.34
   1   7  -2   84.00    2.95
   1   7  -2   88.89    2.51
  -1  -7   2   86.03    2.73
   0   7  -2   37.97    1.15
   0   7  -2   37.06    1.54
   0   7  -2   37.46    1.34
   0  -7   2   35.59    1.26
  -1   7  -2  219.40    7.80
  -1   7  -2  213.18    7.06
  -1   7  -2  211.15    5.82
   1  -7   2  209.16    6.34
   1  -7   2  205.73    7.76
  -2   7  -2   48.53    1.91
   2  -7   2   47.21    1.57
   2  -7   2   47.44    1.89
  -3   7  -2  107.67    3.99
   3  -7   2  103.03    3.96
  -4   7  -2  109.94    4.11
   4  -7   2  107.28    4.09
  -5   7  -2   19.18    0.90
   5  -7   2   18.75    0.90
  -6   7  -2   66.57    2.63
   6  -7   2   66.35    2.62
   7  -7   2   49.14    2.04
   4   6  -2   60.81    1.81
   4   6  -2   63.72    1.93
   4   6  -2   59.82    2.51
  -4  -6   2   63.14    2.07
   3   6  -2    5.22    0.34
   3   6  -2    4.69    0.28
   3   6  -2    4.71    0.41
  -3  -6   2    4.94    0.36
   2   6  -2  118.92    3.33
   2   6  -2  116.61    4.42
   2   6  -2  117.36    3.19
  -2  -6   2  115.91    3.60
   1   6  -2    0.84    0.19
   1   6  -2    0.70    0.12
   1   6  -2    0.78    0.09
  -1  -6   2    0.99    0.16
  -1  -6   2    0.90    0.19
   0   6  -2   84.89    2.43
   0   6  -2   95.20    3.08
   0   6  -2   93.34    3.44
   0   6  -2   92.30    2.57
   0  -6   2   89.02    2.80
   0  -6   2   90.80    3.41
  -1   6  -2   70.40    2.00
  -1   6  -2   71.87    2.69
   1  -6   2   69.43    2.19
   1  -6   2   69.24    2.67
  -2   6  -2   94.06    3.42
  -2   6  -2   86.89    3.64
   2  -6   2   89.69    3.39
   2  -6   2   91.65    2.78
  -3   6  -2  128.31    4.59
  -3   6  -2  115.82    4.89
   3  -6   2  125.09    4.57
  -4   6  -2  145.07    5.36
   4  -6   2  143.89    5.35
  -5   6  -2   63.93    2.49
   5  -6   2   64.04    2.49
  -6   6  -2   94.98    3.67
   6  -6   2   97.30    3.67
   7  -6   2   51.19    2.09
   4   5  -2   88.80    3.41
   4   5  -2   91.24    2.59
   4   5  -2   89.00    2.48
   4   5  -2   81.44    3.61
   3   5  -2  140.18    5.27
   3   5  -2  139.97    3.84
   3   5  -2  142.96    3.97
   2   5  -2   28.96    0.90
   2   5  -2   28.71    0.85
   2   5  -2   28.09    1.20
   2   5  -2   28.10    1.00
  -2  -5   2   27.64    1.17
   1   5  -2  244.09    9.01
   1   5  -2  244.24    6.99
   1   5  -2  246.45    8.04
   1   5  -2  245.99    6.51
  -1  -5   2  241.42    7.18
  -1  -5   2  230.68    8.80
   0   5  -2   51.90    2.01
   0   5  -2   49.46    1.41
   0   5  -2   54.02    1.79
   0   5  -2   53.90    1.50
   0  -5   2   51.39    1.64
   0  -5   2   51.69    2.00
  -1   5  -2  282.42   10.72
  -1   5  -2  281.10    7.95
   1  -5   2  284.82    8.47
   1  -5   2  280.33   10.23
  -2   5  -2  176.97    7.01
  -2   5  -2  180.47    6.98
   2  -5   2  177.74    6.54
   2  -5   2  180.98    5.33
  -3   5  -2  229.63    9.47
  -3   5  -2  236.91    9.09
   3  -5   2  235.23    8.52
  -4   5  -2   88.41    3.36
   4  -5   2   90.24    3.36
  -5   5  -2  127.28    4.76
   5  -5   2  128.05    4.75
  -6   5  -2   23.78    1.06
   6  -5   2   23.58    0.73
   6  -5   2   24.82    1.08
   7  -5   2   26.17    1.17
   7  -5   2   25.55    0.81
   5   4  -2   85.89    2.48
   5   4  -2   87.44    3.39
   4   4  -2   99.74    2.76
   4   4  -2   94.79    4.03
   4   4  -2  103.16    3.80
   3   4  -2  148.99    4.06
   3   4  -2  156.72    5.57
  -3  -4   2  144.23    5.53
   2   4  -2  119.69    4.27
   2   4  -2  113.20    3.09
   2   4  -2  111.18    3.79
  -2  -4   2  114.27    4.24
   1   4  -2   93.21    2.53
   1   4  -2   95.54    3.51
   1   4  -2   93.46    2.62
   1   4  -2   99.11    3.14
  -1  -4   2   91.34    2.85
  -1  -4   2   92.94    3.49
   0   4  -2  600.79   15.99
   0   4  -2  620.21   22.34
   0  -4   2  586.88   22.13
   0  -4   2  599.10   18.06
  -1   4  -2   48.77    1.86
  -1   4  -2   50.16    1.37
   1  -4   2   48.60    1.51
   1  -4   2   47.03    1.85
   2  -4   2  968.13   35.58
   2  -4   2  981.33   28.96
  -3   4  -2  186.84    7.08
  -3   4  -2  175.96    7.17
   3  -4   2  180.69    6.68
  -4   4  -2  230.52    8.44
  -4   4  -2  218.23    9.22
   4  -4   2  235.31    8.34
   4  -4   2  230.82    8.93
  -5   4  -2  137.72    5.12
   5  -4   2  140.06    5.12
   5  -4   2  137.47    5.50
   6  -4   2   41.79    1.69
   6  -4   2   41.44    1.21
   6  -4   2   41.14    1.81
   7  -4   2   24.46    0.82
   7  -4   2   26.24    1.16
   6   3  -2   82.46    3.30
   6   3  -2   85.28    2.44
   5   3  -2   88.05    2.45
   5   3  -2   89.75    3.34
   5   3  -2   79.85    3.53
   4   3  -2   59.04    2.24
   4   3  -2   54.25    2.37
  -4  -3   2   56.52    2.22
   3   3  -2  119.19    4.72
   3   3  -2  120.93    4.41
  -3  -3   2  115.60    4.39
   2   3  -2   27.56    1.11
  -2  -3   2   26.97    1.10
   1   3  -2   47.52    1.80
  -1  -3   2   46.50    1.79
   0   3  -2   33.18    0.95
   0  -3   2   32.67    1.29
   0  -3   2   35.10    1.05
  -1   3  -2  327.99   12.19
  -1   3  -2  327.06    8.98
   1  -3   2  312.36   12.08
   1  -3   2  335.99    9.85
  -2   3  -2   55.47    2.01
  -2   3  -2   52.79    2.14
   2  -3   2   50.77    1.42
   2  -3   2   53.89    2.00
  -3   3  -2  674.34   26.82
   3  -3   2  666.75   26.77
   3  -3   2  702.36   25.09
  -4   3  -2  101.36    3.76
   4  -3   2  103.79    4.03
   4  -3   2   99.31    3.76
  -5   3  -2  250.31    9.10
   5  -3   2  244.76    9.75
   5  -3   2  254.34    9.22
   6  -3   2  100.14    3.70
   6  -3   2   98.11    2.71
   6  -3   2   95.27    3.96
   7  -3   2   51.56    1.53
   7  -3   2   51.21    2.08
   6   2  -2   98.68    3.82
   5   2  -2  100.96    4.28
   5   2  -2  110.87    4.02
   4   2  -2  147.79    5.48
   4   2  -2  146.22    5.86
  -4  -2   2  147.97    5.48
  -4  -2   2  150.36    5.48
   3   2  -2  115.25    4.48
   3   2  -2  107.12    4.17
  -3  -2   2  114.01    4.18
  -3  -2   2  114.97    4.18
   2   2  -2  158.45    5.96
  -2  -2   2  157.16    5.83
   1   2  -2   74.65    2.74
  -1  -2   2   73.21    2.73
   0   2  -2   38.14    1.45
   0  -2   2   40.14    1.17
   0  -2   2   36.65    1.45
  -1   2  -2  144.30    5.20
  -1   2  -2  135.33    4.16
   1  -2   2  136.01    5.21
   1  -2   2  144.91    4.19
   1  -2   2  125.13    4.99
  -2   2  -2  337.10   13.08
  -2   2  -2  341.11   12.18
   2  -2   2  316.21    8.78
   2  -2   2  316.47   12.07
   2  -2   2  330.28   12.15
  -3   2  -2   66.00    2.36
  -3   2  -2   58.56    2.52
   3  -2   2   62.10    2.35
   3  -2   2   65.98    2.53
  -4   2  -2  509.54   18.89
   4  -2   2  503.85   18.89
   4  -2   2  520.38   20.29
  -5   2  -2   35.44    1.45
   5  -2   2   36.17    1.57
   5  -2   2   37.95    1.08
   5  -2   2   37.37    1.47
   6  -2   2  138.48    5.04
   6  -2   2  136.54    3.70
   6  -2   2  129.73    5.37
   7  -2   2   48.19    1.92
   7  -2   2   44.58    2.03
   7  -2   2   47.54    1.43
   7   1  -2   89.08    3.49
   6   1  -2   21.06    1.00
   5   1  -2  166.59    5.82
   5   1  -2  150.40    6.21
  -5  -1   2  152.58    5.80
   4   1  -2  363.81   13.34
   4   1  -2  349.49   14.10
  -4  -1   2  349.14   12.83
   3   1  -2  212.46    7.81
   3   1  -2  204.32    8.35
  -3  -1   2  207.29    7.77
   0   1  -2  193.00    7.61
   0  -1   2  197.28    7.58
   0  -1   2  207.05    7.61
   0  -1   2  220.49    6.11
  -2   1  -2  242.86    9.84
  -2   1  -2  256.40    9.23
   2  -1   2  250.68    6.74
   2  -1   2  250.21    9.24
   2  -1   2  252.46    9.89
   2  -1   2  242.37    9.15
  -3   1  -2  373.68   13.38
   3  -1   2  378.28   14.35
   3  -1   2  365.36   13.40
   3  -1   2  331.06   13.26
   3  -1   2  359.56    9.85
  -4   1  -2  179.11    6.74
   4  -1   2  184.36    7.23
   4  -1   2  188.46    5.03
   4  -1   2  189.52    6.83
   5  -1   2  154.26    6.14
   5  -1   2  155.79    4.23
   5  -1   2  158.18    5.75
   6  -1   2   24.47    1.17
   6  -1   2   26.06    1.11
   6  -1   2   25.85    0.84
   7  -1   2   87.16    3.70
   7  -1   2   93.26    2.61
   7  -1   2   91.73    3.50
   7   0  -2   23.05    1.10
   6   0  -2  105.64    4.01
   5   0  -2   96.98    3.64
   5   0  -2   91.52    3.89
  -5   0   2  100.59    3.65
   4   0  -2  458.43   16.70
   4   0  -2  441.29   17.84
  -4   0   2  444.29   16.65
   3   0  -2  311.18   12.56
   3   0  -2  319.92   11.74
  -3   0   2  301.63   11.62
   2   0  -2  578.52   23.14
   2   0  -2  601.47   21.61
  -2   0   2  587.85   21.61
  -1   0   2  430.40   15.70
   0   0  -2  184.71    6.87
   0   0   2  193.22    5.12
  -1   0  -2  208.45    7.33
  -1   0  -2  182.66    7.88
  -1   0  -2  197.55    7.32
   1   0   2  212.50    7.37
   1   0   2  207.79    7.38
   1   0   2  202.37    5.51
  -2   0  -2  241.80    9.25
   2   0   2  253.11    6.96
   2   0   2  255.36    9.33
   2   0   2  260.02    9.96
   2   0   2  254.55    8.55
  -3   0  -2  205.11    7.55
   3   0   2  214.95    7.09
   3   0   2  214.04    8.18
   3   0   2  209.94    5.76
   3   0   2  195.15    7.54
   3   0   2  204.72    7.72
  -4   0  -2  244.42    9.34
   4   0   2  272.51    7.04
   4   0   2  257.49   10.13
   4   0   2  257.99    9.68
   5   0   2  114.61    4.50
   5   0   2  114.08    4.22
   5   0   2  111.29    3.12
   6   0   2  196.28    5.38
   6   0   2  202.87    7.29
   6   0   2  193.37    7.77
   7   0   2   33.13    1.45
   7   0   2   32.62    1.50
   7   0   2   34.18    1.11
   7  -1  -2   75.30    2.96
   6  -1  -2  114.01    4.26
  -6   1   2  111.38    4.25
   5  -1  -2  387.00   14.53
   5  -1  -2  369.00   15.01
  -5   1   2  396.26   14.43
   4  -1  -2   31.23    1.25
   4  -1  -2   31.53    1.35
   3  -1  -2  906.42   35.60
   3  -1  -2  897.97   33.19
  -3   1   2  921.85   35.57
   2  -1  -2    8.19    0.40
   2  -1  -2    8.71    0.37
  -2   1   2    7.66    0.37
  -2   1   2    7.63    0.36
  -2   1   2    9.18    0.40
   1  -1  -2    9.66    0.41
   1  -1  -2    9.72    0.38
  -1   1   2    8.72    0.38
  -1   1   2    9.42    0.41
  -1   1   2    9.31    0.31
  -1   1   2    9.77    0.39
   0  -1  -2  213.27    6.30
   0   1   2  203.89    5.72
   0   1   2  210.70    5.86
   1   1   2  185.96    5.09
   1   1   2  187.24    6.20
   1   1   2  174.94    6.67
   1   1   2  184.88    6.66
   1   1   2  177.55    4.99
  -2  -1  -2   60.17    2.29
   2   1   2   67.27    2.46
   2   1   2   63.80    2.12
   2   1   2   59.36    2.30
   2   1   2   62.38    1.72
   2   1   2   63.01    2.30
  -3  -1  -2  232.09    8.67
  -3  -1  -2  232.09    8.67
   3   1   2  250.04    9.35
   3   1   2  242.32    6.56
   3   1   2  237.44    8.81
   3   1   2  246.73    8.16
   3   1   2  219.10    8.60
   4   1   2   39.16    1.39
   4   1   2   38.48    1.52
   4   1   2   39.56    1.62
   4   1   2   38.90    1.15
   5   1   2  320.31   12.19
   5   1   2  311.07    8.40
   5   1   2  309.67   11.52
   6   1   2   94.52    3.63
   6   1   2   95.59    3.84
   6   1   2   95.18    2.71
   7  -2  -2   23.07    1.08
   6  -2  -2  225.28    8.23
  -6   2   2  222.53    8.23
   5  -2  -2   47.32    2.07
   5  -2  -2   51.30    1.93
  -5   2   2   48.70    1.93
   4  -2  -2  282.58   11.46
   4  -2  -2  288.14   10.77
  -4   2   2  277.55   11.38
  -4   2   2  293.05   10.82
   3  -2  -2  200.55    7.95
   3  -2  -2  203.54    7.59
  -3   2   2  203.27    7.72
  -3   2   2  202.43    8.19
   2  -2  -2  355.38   13.30
   2  -2  -2  373.49   14.35
  -2   2   2  337.42   13.27
  -2   2   2  377.58   13.40
  -2   2   2  361.72   14.30
   1  -2  -2   99.68    3.65
   1  -2  -2   99.79    3.96
   1  -2  -2   97.32    3.09
  -1   2   2   96.09    3.04
  -1   2   2   95.51    3.64
  -1   2   2  106.76    3.32
  -1   2   2   99.46    3.95
  -1   2   2  103.54    3.75
   0  -2  -2  352.97   10.41
   0   2   2  357.50    9.64
   0   2   2  331.41   12.56
   0   2   2  329.62    9.32
   0   2   2  358.50   11.61
   1   2   2   60.30    2.22
   1   2   2   62.51    2.06
   1   2   2   63.25    1.70
   1   2   2   61.12    1.66
   1   2   2   57.52    2.22
   1   2   2   58.22    2.22
   1   2   2   62.71    2.37
  -2  -2  -2  179.09    6.44
   2   2   2  180.31    5.94
   2   2   2  176.81    4.83
   2   2   2  185.92    6.95
   2   2   2  179.56    6.55
   2   2   2  158.04    6.41
  -3  -2  -2  125.87    5.01
   3   2   2  141.23    4.61
   3   2   2  146.42    5.39
   3   2   2  138.36    5.05
   3   2   2  138.62    3.73
   4   2   2  133.88    5.16
   4   2   2  129.91    4.85
   4   2   2  130.91    4.41
   4   2   2  130.34    3.59
   5   2   2  126.62    4.90
   5   2   2  123.45    3.43
   5   2   2  120.86    4.62
   6   2   2   69.53    2.06
   6   2   2   72.32    2.87
   6   2   2   67.30    2.73
   8  -3  -2    4.63    0.43
   7  -3  -2   40.81    1.69
  -7   3   2   39.50    1.69
   6  -3  -2    3.46    0.31
  -6   3   2    3.46    0.31
   5  -3  -2   58.22    2.27
  -5   3   2   59.35    2.28
   4  -3  -2  125.65    4.62
  -4   3   2  129.00    4.64
  -4   3   2  122.00    4.96
   3  -3  -2  249.48    9.18
   3  -3  -2  245.79    9.82
  -3   3   2  244.19    9.96
  -3   3   2  254.19    9.49
   2  -3  -2  299.75   11.90
   2  -3  -2  304.58   11.07
  -2   3   2  312.48   11.20
  -2   3   2  307.74   12.00
  -2   3   2  278.20   11.05
   0  -3  -2   93.21    2.72
   0  -3  -2   89.69    3.29
   0   3   2   92.86    3.56
   0   3   2   91.16    2.52
   0   3   2   80.17    3.30
   0   3   2   91.32    2.56
   0   3   2   94.48    3.05
   0   3   2   92.69    3.48
  -1  -3  -2  770.33   28.42
   1   3   2  805.97   21.19
   1   3   2  713.13   28.58
   1   3   2  822.16   21.78
   1   3   2  826.18   26.28
   2   3   2  215.65    8.31
   2   3   2  210.14    5.82
   2   3   2  214.39    5.82
   2   3   2  221.52    7.10
   2   3   2  201.11    7.86
   3   3   2   85.21    2.90
   3   3   2   86.08    3.37
   3   3   2   83.67    3.18
   3   3   2   86.12    2.37
   4   3   2  250.96    9.06
   4   3   2  246.80    6.68
   4   3   2  254.91    9.65
   4   3   2  239.99    8.23
   5   3   2   34.31    1.33
   5   3   2   36.36    1.50
   5   3   2   36.31    1.53
   5   3   2   36.08    1.15
   8  -4  -2    5.95    0.48
   7  -4  -2   52.33    2.10
  -7   4   2   50.83    2.09
   6  -4  -2    9.02    0.51
  -6   4   2    7.57    0.49
   5  -4  -2   45.03    1.79
  -5   4   2   45.55    1.80
   4  -4  -2  311.41   11.20
   4  -4  -2  288.10   11.95
  -4   4   2  328.20   11.60
  -4   4   2  302.39   12.25
   3  -4  -2   23.99    1.08
   3  -4  -2   25.36    1.00
  -3   4   2   24.98    1.01
  -3   4   2   25.13    1.08
   2  -4  -2  807.08   28.63
   2  -4  -2  795.44   23.45
   2  -4  -2  744.39   30.66
  -2   4   2  733.52   28.66
  -2   4   2  812.19   28.85
  -2   4   2  823.91   30.77
   1  -4  -2  133.06    4.79
   1  -4  -2  131.55    3.93
  -1   4   2  133.71    3.69
  -1   4   2  114.91    4.79
  -1   4   2  135.60    5.14
  -1   4   2  139.48    4.41
  -1   4   2  134.25    4.92
  -1   4   2  131.53    3.82
   0  -4  -2  224.08    8.20
   0   4   2  230.37    8.52
   0   4   2  223.65    6.28
   0   4   2  222.48    6.12
   0   4   2  229.81    8.90
   0   4   2  234.50    7.78
  -1  -4  -2  130.36    3.75
   1   4   2  125.47    4.18
   1   4   2  120.42    4.64
   1   4   2  122.51    3.37
   2   4   2   56.28    1.61
   2   4   2   59.18    1.98
   2   4   2   55.83    2.27
   2   4   2   55.41    2.15
   2   4   2   57.22    1.66
   3   4   2   35.58    1.14
   3   4   2   36.86    1.50
   3   4   2   36.39    1.10
   3   4   2   35.54    1.45
   3   4   2   36.46    1.32
   4   4   2   64.12    1.87
   4   4   2   65.34    2.50
   4   4   2   67.58    2.61
   4   4   2   61.94    1.92
   4   4   2   62.04    2.25
   5   4   2   33.87    1.38
   5   4   2   31.94    1.06
   5   4   2   30.57    1.09
   5   4   2   32.97    1.39
   5   4   2   29.76    1.21
   7  -5  -2   39.06    1.64
  -7   5   2   38.47    1.64
   6  -5  -2   96.64    3.70
  -6   5   2   97.88    3.71
   5  -5  -2  172.93    6.47
  -5   5   2  178.85    6.49
   4  -5  -2   90.29    3.39
  -4   5   2   93.19    3.41
  -4   5   2   88.10    3.63
   3  -5  -2  412.58   15.32
  -3   5   2  428.02   15.77
  -3   5   2  421.38   16.71
   2  -5  -2   87.93    3.29
   2  -5  -2   90.52    2.71
  -2   5   2   88.16    3.31
  -2   5   2   92.44    3.54
  -2   5   2   86.97    3.04
   1  -5  -2  177.87    5.20
   1  -5  -2  168.70    6.33
  -1   5   2  177.79    5.83
  -1   5   2  171.04    6.52
  -1   5   2  180.43    6.80
  -1   5   2  171.11    4.77
  -1   5   2  175.83    4.93
   0  -5  -2   49.19    1.61
   0   5   2   54.13    2.05
   0   5   2   50.18    1.94
   0   5   2   51.45    1.80
   0   5   2   50.34    1.50
   0   5   2   50.41    1.43
  -1  -5  -2   20.55    0.74
   1   5   2   21.25    0.88
   1   5   2   20.51    0.80
   1   5   2   19.42    0.85
   1   5   2   19.49    0.64
   1   5   2   20.44    0.69
  -2  -5  -2    1.79    0.22
   2   5   2    1.46    0.18
   2   5   2    1.10    0.15
   2   5   2    1.48    0.19
   2   5   2    1.02    0.15
   2   5   2    1.18    0.19
   3   5   2   46.33    1.88
   3   5   2   45.70    1.66
   3   5   2   44.83    1.43
   3   5   2   46.91    1.38
   3   5   2   45.57    1.83
   4   5   2    1.94    0.23
   4   5   2    2.01    0.24
   4   5   2    1.23    0.20
   4   5   2    2.17    0.29
   4   5   2    1.68    0.21
  -7   6   2   17.07    0.87
  -6   6   2  100.13    3.83
   5  -6  -2   60.13    2.37
  -5   6   2   61.88    2.40
   4  -6  -2   44.76    1.78
  -4   6   2   46.77    1.81
  -4   6   2   44.20    1.91
  -3   6   2  174.10    6.30
  -3   6   2  168.45    6.73
  -3   6   2  171.79    5.76
   2  -6  -2   81.72    2.53
  -2   6   2   78.84    3.07
  -2   6   2   83.66    3.27
  -2   6   2   82.86    2.83
   1  -6  -2   47.86    1.58
  -1   6   2   49.98    1.76
  -1   6   2   48.46    1.90
  -1   6   2   47.33    1.38
  -1   6   2   51.62    2.01
  -1   6   2   49.25    1.47
   0  -6  -2  225.06    6.78
   0   6   2  232.69    8.84
   0   6   2  233.13    6.27
   0   6   2  220.81    8.29
   0   6   2  223.15    6.08
   0   6   2  229.83    7.59
  -1  -6  -2    3.79    0.29
   1   6   2    3.79    0.28
   1   6   2    3.28    0.28
   1   6   2    3.87    0.28
   1   6   2    3.41    0.23
   1   6   2    4.33    0.29
  -2  -6  -2  129.60    3.90
   2   6   2  118.79    3.60
   2   6   2  126.57    4.32
   2   6   2  132.12    4.98
   2   6   2  127.41    3.49
   2   6   2  123.76    4.72
   2   6   2  128.59    4.99
  -3  -6  -2   34.02    1.21
   3   6   2   32.93    1.39
   3   6   2   33.51    1.06
   3   6   2   32.04    1.12
   3   6   2   31.81    1.26
  -7   7   2   27.30    1.26
  -6   7   2   11.24    0.64
  -5   7   2   10.03    0.58
  -4   7   2   22.28    1.00
   3  -7  -2   20.94    0.78
  -3   7   2   20.53    0.87
  -3   7   2   20.54    0.92
  -3   7   2   19.80    0.95
   2  -7  -2   45.59    1.50
  -2   7   2   42.59    1.79
  -2   7   2   46.87    1.68
  -2   7   2   45.63    1.89
   1  -7  -2  113.60    3.49
  -1   7   2  117.69    4.50
  -1   7   2  114.36    3.90
  -1   7   2  109.12    3.09
  -1   7   2  109.84    4.24
  -1   7   2  117.17    3.24
   0  -7  -2   43.95    1.47
   0   7   2   44.19    1.62
   0   7   2   43.84    1.37
   0   7   2   41.65    1.27
   0   7   2   46.11    1.82
   0   7   2   42.75    1.75
  -1  -7  -2  165.13    5.12
   1   7   2  173.25    6.59
   1   7   2  171.05    4.75
   1   7   2  166.29    4.57
   1   7   2  168.19    5.70
   1   7   2  166.62    6.23
  -2  -7  -2   47.84    1.66
   2   7   2   46.20    1.54
   2   7   2   50.06    1.46
   2   7   2   47.90    1.95
   2   7   2   46.79    1.78
   2   7   2   49.03    1.98
   2   7   2   50.23    1.98
  -6   8   2   11.13    0.67
  -5   8   2   15.88    0.82
  -5   8   2   16.02    0.76
  -4   8   2   36.96    1.47
  -4   8   2   38.67    1.60
   3  -8  -2   11.21    0.55
  -3   8   2   11.29    0.63
  -3   8   2   11.32    0.63
  -3   8   2   12.06    0.61
   2  -8  -2   76.81    2.40
  -2   8   2   76.58    3.05
  -2   8   2   71.62    2.89
  -2   8   2   74.28    2.67
   1  -8  -2   58.68    1.95
  -1   8   2   58.51    2.33
  -1   8   2   59.02    2.16
  -1   8   2   60.06    2.44
  -1   8   2   59.60    1.82
   0  -8  -2   43.31    1.50
   0   8   2   41.29    1.27
   0   8   2   42.97    1.63
   0   8   2   43.75    1.40
   0   8   2   44.04    1.81
   0   8   2   43.34    1.76
  -1  -8  -2   62.07    2.12
   1   8   2   61.93    1.84
   1   8   2   62.70    2.32
   1   8   2   64.63    2.59
   1   8   2   67.87    2.61
   1   8   2   62.96    2.52
   1   8   2   66.47    1.99
  -5   9   2   35.05    1.54
  -5   9   2   34.77    1.42
  -4   9   2   31.18    1.32
  -4   9   2   32.63    1.42
  -3   9   2   51.32    2.05
  -3   9   2   48.12    1.89
   2  -9  -2   52.01    1.75
  -2   9   2   50.94    2.09
  -2   9   2   51.74    2.16
  -2   9   2   50.07    1.93
   1  -9  -2   55.54    1.89
  -1   9   2   57.10    1.76
  -1   9   2   54.38    2.08
  -1   9   2   55.94    2.32
  -1   9   2   56.30    2.25
   0   9  -3   65.31    1.98
   0   9  -3   65.59    2.67
   0  -9   3   67.54    2.19
  -1   9  -3    5.00    0.32
  -1   9  -3    4.90    0.34
  -1   9  -3    4.88    0.45
   1  -9   3    5.44    0.42
  -2   9  -3   24.02    1.00
  -2   9  -3   24.95    1.17
   2  -9   3   24.43    0.97
  -3   9  -3   23.84    1.14
  -4   9  -3   21.04    1.04
  -5   9  -3   24.62    1.18
   1   8  -3   85.39    3.42
   1   8  -3   84.81    2.54
  -1  -8   3   92.30    2.80
   0   8  -3   78.49    2.82
   0   8  -3   84.11    3.22
   0   8  -3   83.12    2.38
   0  -8   3   82.96    2.62
  -1   8  -3  104.24    3.90
  -1   8  -3  103.38    2.89
  -1   8  -3   98.09    3.48
   1  -8   3  100.93    3.17
  -2   8  -3  128.32    4.74
   2  -8   3  126.89    3.87
   2  -8   3  120.91    4.71
  -3   8  -3   92.43    3.50
   3  -8   3   88.76    3.47
  -4   8  -3   61.79    2.45
   4  -8   3   60.64    2.43
  -5   8  -3  102.37    3.91
   5  -8   3  101.02    3.89
   6  -8   3   11.64    0.69
   3   7  -3    3.56    0.31
   3   7  -3    3.78    0.40
  -3  -7   3    3.85    0.35
   2   7  -3   56.50    1.70
   2   7  -3   55.84    2.27
  -2  -7   3   54.87    1.85
   1   7  -3  171.00    6.35
   1   7  -3  171.04    4.75
  -1  -7   3  169.38    5.16
   0   7  -3   67.37    2.57
   0   7  -3   65.67    1.90
   0   7  -3   65.10    2.25
   0  -7   3   65.52    2.09
   0  -7   3   62.76    2.54
  -1   7  -3  249.58    8.79
  -1   7  -3  239.27    6.55
   1  -7   3  233.06    8.75
   1  -7   3  234.13    7.13
  -2   7  -3  205.15    7.38
   2  -7   3  198.43    6.00
   2  -7   3  196.48    7.35
  -3   7  -3   35.05    1.44
   3  -7   3   33.36    1.42
  -4   7  -3  187.38    6.92
   4  -7   3  186.28    6.90
  -5   7  -3   14.18    0.73
   5  -7   3   14.17    0.74
   6  -7   3   42.52    1.77
   7  -7   3   38.98    1.68
   4   6  -3   29.80    0.97
   4   6  -3   30.46    1.05
   4   6  -3   28.92    1.36
  -4  -6   3   29.76    1.12
   3   6  -3   80.97    2.28
   3   6  -3   84.53    2.39
   3   6  -3   80.23    3.18
  -3  -6   3   78.95    2.58
   2   6  -3   86.63    3.27
   2   6  -3   82.75    2.33
   2   6  -3   86.57    2.44
  -2  -6   3   83.17    2.65
   1   6  -3  149.73    5.02
   1   6  -3  159.08    4.20
   1   6  -3  156.99    5.63
   1   6  -3  146.67    4.04
  -1  -6   3  148.79    4.56
  -1  -6   3  145.94    5.59
   0   6  -3  123.75    4.60
   0   6  -3  124.72    4.12
   0   6  -3  123.14    3.42
   0  -6   3  119.76    3.73
   0  -6   3  124.60    4.59
  -1   6  -3  159.51    5.75
  -1   6  -3  154.91    4.28
   1  -6   3  153.51    4.67
   1  -6   3  153.82    5.73
  -2   6  -3   42.68    1.92
  -2   6  -3   46.73    1.81
   2  -6   3   46.07    1.80
   2  -6   3   46.72    1.48
  -3   6  -3   48.23    1.89
   3  -6   3   47.26    1.88
  -4   6  -3   10.00    0.53
   4  -6   3    9.22    0.53
  -5   6  -3   18.87    0.88
   5  -6   3   19.71    0.90
   6  -6   3   20.12    0.95
   7  -6   3   40.88    1.73
   4   5  -3   72.46    2.10
   4   5  -3   74.57    2.92
   3   5  -3   87.48    3.35
   3   5  -3   86.33    2.42
   2   5  -3  230.23    6.20
   2   5  -3  223.22    6.01
   2   5  -3  230.55    8.28
  -2  -5   3  220.21    8.25
  -2  -5   3  223.07    6.71
   1   5  -3   37.87    1.06
   1   5  -3   37.52    1.30
   1   5  -3   40.17    1.54
   1   5  -3   37.77    1.13
  -1  -5   3   37.59    1.52
  -1  -5   3   36.39    1.23
   0   5  -3  460.98   16.87
   0   5  -3  427.02   11.84
   0   5  -3  449.24   12.47
   0  -5   3  441.86   16.51
   0  -5   3  447.97   13.45
  -1   5  -3   87.53    2.42
  -1   5  -3   89.97    3.27
   1  -5   3   86.48    2.65
   1  -5   3   84.54    3.25
  -2   5  -3   82.62    3.51
  -2   5  -3   89.67    3.29
   2  -5   3   89.30    3.28
   2  -5   3   89.26    2.67
  -3   5  -3  187.19    6.65
  -3   5  -3  172.99    7.12
   3  -5   3  184.39    6.65
  -4   5  -3    6.11    0.37
   4  -5   3    5.75    0.38
  -5   5  -3   52.94    2.07
   5  -5   3   55.94    2.08
   5  -5   3   49.58    1.45
   6  -5   3   79.23    2.99
   6  -5   3   75.89    2.14
   7  -5   3   11.00    0.64
   5   4  -3   73.65    2.17
   5   4  -3   76.31    2.99
   4   4  -3    6.04    0.44
   3   4  -3  153.44    5.60
  -3  -4   3  147.34    5.57
   2   4  -3   17.84    0.79
  -2  -4   3   16.86    0.77
   1   4  -3  232.24    7.70
   1   4  -3  229.29    6.48
   1   4  -3  232.78    8.70
  -1  -4   3  228.56    6.83
  -1  -4   3  233.94    8.42
   0   4  -3  201.53    5.75
   0   4  -3  204.39    7.72
   0  -4   3  198.02    7.43
   0  -4   3  205.42    6.04
  -1   4  -3  478.90   13.19
  -1   4  -3  474.74   17.87
   1  -4   3  479.68   17.80
   1  -4   3  483.04   14.38
  -2   4  -3  333.29   13.51
  -2   4  -3  349.18   12.69
   2  -4   3  328.50   12.48
  -3   4  -3  384.36   15.80
  -3   4  -3  406.75   14.70
   3  -4   3  381.60   10.50
   3  -4   3  410.41   14.74
  -4   4  -3  180.61    6.53
   4  -4   3  180.54    6.53
   4  -4   3  173.86    4.74
  -5   4  -3  142.82    5.37
   5  -4   3  150.31    5.38
   5  -4   3  143.23    3.90
   6  -4   3   89.88    2.46
   6  -4   3   93.41    3.40
   6  -4   3   83.94    3.62
   7  -4   3   77.52    2.24
   7  -4   3   81.42    3.09
   6   3  -3   59.12    2.42
   6   3  -3   58.42    1.78
   5   3  -3   52.57    2.14
   4   3  -3  124.97    4.43
   4   3  -3  108.26    4.71
  -4  -3   3  119.17    4.41
   3   3  -3    6.28    0.37
  -3  -3   3    4.40    0.33
   2   3  -3  194.61    7.21
  -2  -3   3  186.95    6.96
   1   3  -3   62.05    2.25
  -1  -3   3   56.67    2.24
   0   3  -3  317.09    9.16
   0   3  -3  332.47   12.47
   0  -3   3  344.67   10.00
  -1   3  -3  247.78    7.12
  -1   3  -3  264.26    9.90
   1  -3   3  257.39    9.70
   1  -3   3  268.63    7.85
  -2   3  -3  601.58   24.72
  -2   3  -3  658.59   23.14
   2  -3   3  619.40   16.63
   2  -3   3  634.07   23.11
  -3   3  -3  110.65    4.16
   3  -3   3  108.87    2.95
   3  -3   3  112.84    4.07
  -4   3  -3  299.78   11.15
   4  -3   3  295.59    8.06
   4  -3   3  303.24   11.83
   4  -3   3  307.22   11.21
  -5   3  -3   76.84    2.96
   5  -3   3   80.10    2.98
   5  -3   3   77.69    3.18
   5  -3   3   80.02    2.17
   6  -3   3   49.54    1.91
   6  -3   3   46.60    2.03
   6  -3   3   46.99    1.39
   7  -3   3   85.45    2.41
   7  -3   3   81.10    3.49
   7  -3   3   88.56    3.30
   6   2  -3  156.57    5.90
   5   2  -3  113.32    4.31
  -5  -2   3  113.87    4.31
   4   2  -3  208.06    8.49
   4   2  -3  221.87    8.11
  -4  -2   3  215.79    7.93
  -4  -2   3  218.94    7.93
   3   2  -3  173.86    7.05
   3   2  -3  179.14    6.79
  -3  -2   3  181.75    6.59
  -3  -2   3  184.32    6.59
   2   2  -3   38.13    1.49
  -2  -2   3   38.70    1.50
   0   2  -3    7.90    0.35
   0  -2   3    7.39    0.27
   1  -2   3  802.64   29.16
  -2   2  -3  179.63    6.41
  -2   2  -3  163.49    6.87
   2  -2   3  174.42    6.37
   2  -2   3  172.38    4.63
   2  -2   3  163.19    6.26
  -3   2  -3  166.73    6.06
   3  -2   3  162.93    4.43
   3  -2   3  164.23    6.09
   3  -2   3  154.09    5.97
   3  -2   3  171.66    6.56
  -4   2  -3   78.27    2.96
   4  -2   3   80.05    2.17
   4  -2   3   77.98    3.17
   4  -2   3   81.74    2.97
   5  -2   3   55.20    2.31
   5  -2   3   57.37    2.17
   5  -2   3   56.47    1.60
   6  -2   3   14.93    0.77
   6  -2   3   15.20    0.56
   6  -2   3   15.08    0.74
   7  -2   3   25.08    1.20
   7  -2   3   25.95    1.17
   7  -2   3   25.87    0.87
   7   1  -3   61.97    2.53
   6   1  -3  116.41    4.43
   5   1  -3   91.53    3.43
  -5  -1   3   88.08    3.42
   4   1  -3  138.50    5.13
   4   1  -3  126.75    5.27
  -4  -1   3  133.93    4.93
   3   1  -3  146.74    5.49
   3   1  -3  136.13    5.74
  -3  -1   3  143.17    5.22
   2   1  -3  151.24    5.73
  -2  -1   3  142.39    5.50
   1   1  -3  125.10    4.69
  -1  -1   3  117.59    4.60
  -1  -1   3  118.06    4.39
  -1  -1   3  121.53    4.57
  -1   1  -3  146.51    5.16
   1  -1   3  139.76    5.18
   1  -1   3  146.00    4.68
   1  -1   3  120.64    5.14
   1  -1   3  141.41    3.82
  -3   1  -3  178.10    6.44
   3  -1   3  185.20    7.08
   3  -1   3  172.40    6.45
   3  -1   3  176.83    4.74
   3  -1   3  177.37    6.58
  -4   1  -3  234.72    8.90
   4  -1   3  256.31    6.69
   4  -1   3  244.01    9.12
   4  -1   3  249.47    9.65
   5  -1   3   81.85    3.33
   5  -1   3   81.48    3.13
   5  -1   3   86.43    2.33
   6  -1   3   53.49    1.59
   6  -1   3   54.57    2.14
   6  -1   3   54.01    2.25
   7  -1   3   27.08    0.92
   7  -1   3   26.15    1.20
   7  -1   3   26.47    1.24
   7   0  -3   54.33    2.24
   6   0  -3   40.60    1.64
  -6   0   3   37.64    1.62
   5   0  -3  105.41    3.99
  -5   0   3  106.91    4.01
   4   0  -3   36.24    1.60
   4   0  -3   38.13    1.50
  -4   0   3   38.66    1.51
   3   0  -3   56.32    2.12
   3   0  -3   56.08    2.28
  -3   0   3   55.91    2.13
   2   0  -3  129.64    5.58
   2   0  -3  139.69    5.30
  -2   0   3  137.23    5.25
   1   0  -3    7.11    0.32
  -1   0   3    7.10    0.33
  -1   0   3    6.49    0.32
   0   0  -3  270.81    9.78
   0   0   3  270.42    7.32
   0   0   3  272.45    9.83
   0   0   3  264.89    9.82
   1   0   3  825.76   27.63
   1   0   3  844.01   22.25
  -2   0  -3  101.82    4.06
   2   0   3  116.97    4.41
   2   0   3  114.29    4.12
   2   0   3  114.13    3.74
   2   0   3  111.06    4.07
   2   0   3  114.65    3.01
  -3   0  -3  857.38   32.70
   3   0   3  908.09   30.16
   3   0   3  927.88   35.16
   3   0   3  903.07   24.26
   3   0   3  925.18   32.90
   4   0   3  113.46    3.82
   4   0   3  115.24    4.44
   4   0   3  110.64    4.16
   5   0   3  173.92    4.83
   5   0   3  177.30    6.54
   5   0   3  183.20    6.98
   6   0   3   93.76    2.67
   6   0   3   94.90    3.79
   6   0   3   94.09    3.58
   7   0   3   41.39    1.77
   7   0   3   43.13    1.36
   7   0   3   42.98    1.84
   7  -1  -3   38.74    1.66
   6  -1  -3  108.90    4.12
  -6   1   3  108.33    4.12
   5  -1  -3  246.66    9.19
  -5   1   3  247.34    9.03
   4  -1  -3  161.40    6.06
   4  -1  -3  155.60    6.33
  -4   1   3  166.34    5.92
   3  -1  -3  208.79    8.70
   3  -1  -3  226.58    8.25
  -3   1   3  219.28    8.34
   2  -1  -3  442.69   15.36
   2  -1  -3  429.67   16.42
  -2   1   3  425.12   15.38
  -2   1   3  366.15   15.21
  -2   1   3  415.70   13.83
   1  -1  -3   36.77    1.38
   1  -1  -3   37.41    1.49
  -1   1   3   36.64    1.12
  -1   1   3   37.94    1.27
  -1   1   3   38.08    1.39
   0  -1  -3  313.57    9.06
   0   1   3  295.44    8.26
   0   1   3  300.09    8.42
   0   1   3  310.40   10.23
   1   1   3  158.97    5.51
   1   1   3  162.14    4.49
   1   1   3  164.10    4.49
   2   1   3  194.81    7.02
   2   1   3  183.35    6.94
   2   1   3  190.43    6.53
   2   1   3  194.22    5.24
   3   1   3  112.51    4.10
   3   1   3  114.78    4.37
   3   1   3  115.71    3.05
   3   1   3  115.05    3.77
   3   1   3  102.79    4.09
   4   1   3  193.28    6.45
   4   1   3  191.53    7.05
   4   1   3  195.10    5.21
   4   1   3  194.19    7.52
   5   1   3   19.24    0.87
   5   1   3   19.53    0.68
   5   1   3   20.18    0.89
   6   1   3  111.69    4.36
   6   1   3  109.47    3.09
   6   1   3  106.77    4.13
   7  -2  -3  116.98    4.49
  -7   2   3  118.68    4.50
   6  -2  -3  123.38    4.62
  -6   2   3  122.72    4.63
   5  -2  -3  350.21   13.10
  -5   2   3  350.19   12.95
   4  -2  -3  323.13   11.90
  -4   2   3  321.17   12.01
  -4   2   3  318.08   12.82
   3  -2  -3  528.87   21.31
   3  -2  -3  553.77   19.95
  -3   2   3  544.88   20.05
  -3   2   3  534.74   21.38
   2  -2  -3  267.28   10.59
   2  -2  -3  277.75    9.95
  -2   2   3  283.25    9.05
  -2   2   3  266.69   10.69
  -2   2   3  243.28    9.84
  -2   2   3  277.10   10.02
   1  -2  -3  361.76   13.21
   1  -2  -3  370.76   10.87
   1  -2  -3  347.51   14.20
  -1   2   3  355.09   10.85
  -1   2   3  377.08   13.32
  -1   2   3  373.89   12.20
  -1   2   3  336.18   13.26
  -1   2   3  386.16   14.23
   0  -2  -3  149.50    4.46
   0   2   3  149.88    5.37
   0   2   3  149.30    4.10
   0   2   3  142.14    3.95
   0   2   3  139.60    5.34
   0   2   3  148.52    4.99
   1   2   3  110.17    4.02
   1   2   3  111.36    2.96
   1   2   3  111.92    3.02
   1   2   3  113.27    3.67
   1   2   3  102.02    3.99
   2   2   3  159.74    6.29
   2   2   3  175.99    6.39
   2   2   3  181.66    4.78
   2   2   3  175.47    5.79
   2   2   3  178.81    4.67
   3   2   3  121.08    4.63
   3   2   3  119.30    4.01
   3   2   3  116.40    4.35
   4   2   3   54.84    1.94
   4   2   3   54.65    2.11
   4   2   3   53.34    1.59
   4   2   3   56.58    2.20
   5   2   3  155.88    5.91
   5   2   3  150.13    5.58
   5   2   3  147.19    4.15
   5   2   3  149.37    5.09
   6   2   3    8.35    0.45
   6   2   3    9.02    0.49
   6   2   3    8.07    0.52
   7  -3  -3   37.04    1.58
  -7   3   3   36.96    1.58
   6  -3  -3  250.85    8.95
  -6   3   3  236.81    8.95
   5  -3  -3   11.95    0.60
  -5   3   3   12.60    0.62
   4  -3  -3  385.08   13.86
   4  -3  -3  353.69   14.46
  -4   3   3  382.63   13.93
  -4   3   3  370.75   14.84
   3  -3  -3   72.45    2.67
   3  -3  -3   70.18    2.88
  -3   3   3   72.89    2.87
  -3   3   3   72.04    2.69
   2  -3  -3    7.65    0.41
   2  -3  -3    8.00    0.36
  -2   3   3    8.63    0.40
  -2   3   3    8.72    0.36
  -2   3   3    8.58    0.39
  -2   3   3    7.74    0.37
   1  -3  -3  208.01    7.85
   1  -3  -3  214.62    6.59
  -1   3   3  225.27    8.04
  -1   3   3  216.22    7.35
  -1   3   3  225.08    8.53
  -1   3   3  224.95    6.11
  -1   3   3  219.63    6.04
  -1   3   3  201.96    7.90
   0  -3  -3   12.98    0.45
   0   3   3   12.55    0.41
   0   3   3   10.88    0.50
   0   3   3   12.49    0.43
   0   3   3   13.88    0.52
   0   3   3   13.35    0.51
   1   3   3   82.78    3.05
   1   3   3   87.04    2.80
   1   3   3   82.05    2.25
   1   3   3   78.46    3.01
   1   3   3   81.21    2.31
   2   3   3  327.90    8.89
   2   3   3  324.25   11.94
   2   3   3  346.54    9.18
   2   3   3  342.89   11.13
   2   3   3  282.37   11.71
   3   3   3   88.61    2.48
   3   3   3   89.76    2.54
   3   3   3   87.12    3.30
   3   3   3   90.43    3.05
   4   3   3  258.23    9.67
   4   3   3  251.34    6.73
   4   3   3  244.42    6.88
   4   3   3  249.02    9.10
   4   3   3  245.24    8.31
   5   3   3  125.66    4.70
   5   3   3  124.84    4.29
   5   3   3  123.93    3.59
   5   3   3  127.57    3.51
   7  -4  -3   88.76    3.38
  -7   4   3   85.52    3.38
   6  -4  -3   20.57    0.96
  -6   4   3   21.48    0.97
   5  -4  -3   99.37    3.84
  -5   4   3  105.98    3.87
   4  -4  -3   25.48    1.04
  -4   4   3   25.34    1.06
  -4   4   3   25.34    1.12
   3  -4  -3   95.48    3.32
   3  -4  -3   81.22    3.57
  -3   4   3   90.80    3.34
  -3   4   3   91.26    3.56
   2  -4  -3   12.45    0.53
   2  -4  -3   13.15    0.46
  -2   4   3   12.93    0.58
  -2   4   3   12.63    0.55
  -2   4   3   13.18    0.53
  -2   4   3   11.44    0.54
   1  -4  -3   68.47    2.55
   1  -4  -3   71.36    2.13
  -1   4   3   69.91    2.75
  -1   4   3   69.74    1.92
  -1   4   3   71.75    2.59
  -1   4   3   70.38    1.98
  -1   4   3   67.96    2.39
   0  -4  -3   34.13    1.02
   0   4   3   32.08    1.19
   0   4   3   27.92    1.12
   0   4   3   31.96    0.91
   0   4   3   33.29    0.95
   0   4   3   27.96    1.18
  -1  -4  -3  126.82    3.75
   1   4   3  130.21    3.39
   1   4   3  129.05    3.48
   1   4   3  123.11    4.61
   1   4   3  110.68    4.54
   1   4   3  129.04    4.21
   2   4   3   96.81    2.72
   2   4   3   99.81    2.80
   2   4   3   97.17    3.64
   2   4   3  100.46    3.37
   3   4   3  146.15    5.35
   3   4   3  149.56    4.91
   3   4   3  143.36    3.97
   3   4   3  141.77    4.07
   4   4   3  132.25    4.88
   4   4   3  129.61    3.73
   4   4   3  132.25    3.64
   4   4   3  130.37    4.46
   5   4   3   76.86    2.89
   5   4   3   69.28    2.61
   5   4   3   76.95    2.19
   5   4   3   72.67    2.23
  -7   5   3   19.32    0.95
   6  -5  -3   30.50    1.38
  -6   5   3   32.39    1.36
   5  -5  -3  109.24    4.18
  -5   5   3  114.30    4.21
   4  -5  -3  133.87    5.08
  -4   5   3  143.90    5.11
  -4   5   3  136.09    5.45
   3  -5  -3   78.71    3.03
  -3   5   3   80.10    2.80
  -3   5   3   84.37    3.06
  -3   5   3   82.78    3.26
   2  -5  -3  491.56   18.08
   2  -5  -3  503.02   15.14
  -2   5   3  526.83   19.69
  -2   5   3  497.96   16.82
  -2   5   3  482.59   18.49
   1  -5  -3   21.09    0.72
  -1   5   3   20.85    0.88
  -1   5   3   19.74    0.84
  -1   5   3   20.53    0.68
  -1   5   3   20.88    0.81
  -1   5   3   20.61    0.64
   0  -5  -3  255.04    7.51
   0   5   3  250.38    9.42
   0   5   3  253.25    7.07
   0   5   3  249.51    6.77
   0   5   3  245.63    8.42
   0   5   3  268.25    9.85
  -1  -5  -3  110.89    3.35
   1   5   3  109.79    3.01
   1   5   3  108.23    4.05
   1   5   3  108.43    3.11
   1   5   3  112.10    3.75
  -2  -5  -3   17.06    0.68
   2   5   3   17.01    0.64
   2   5   3   17.56    0.61
   2   5   3   17.05    0.76
   2   5   3   17.54    0.74
   3   5   3  125.60    4.20
   3   5   3  119.64    3.50
   3   5   3  123.73    3.40
   3   5   3  121.23    4.56
   4   5   3   20.27    0.88
   4   5   3   21.40    0.78
   4   5   3   20.90    0.81
   4   5   3   21.59    0.97
  -7   6   3    9.02    0.59
  -6   6   3   26.49    1.19
  -5   6   3  147.41    5.49
  -4   6   3   54.53    1.97
  -4   6   3   55.54    2.15
  -4   6   3   54.59    2.28
  -3   6   3  327.44   12.52
  -3   6   3  321.78   11.85
  -3   6   3  313.37   10.64
   2  -6  -3  114.89    3.46
  -2   6   3  117.02    4.49
  -2   6   3  109.31    4.21
  -2   6   3  113.98    3.89
   1  -6  -3  183.46    5.46
  -1   6   3  177.79    4.90
  -1   6   3  181.67    6.13
  -1   6   3  189.83    7.11
  -1   6   3  180.04    5.06
  -1   6   3  181.99    6.67
   0  -6  -3   83.49    2.54
   0   6   3   79.46    2.26
   0   6   3   78.57    2.35
   0   6   3   81.22    2.83
   0   6   3   79.30    3.04
   0   6   3   85.07    3.21
  -1  -6  -3   61.93    1.98
   1   6   3   63.19    2.21
   1   6   3   61.16    1.77
   1   6   3   61.75    1.86
   1   6   3   60.83    2.36
  -2  -6  -3   35.06    1.22
   2   6   3   33.37    1.40
   2   6   3   33.75    1.15
   2   6   3   34.65    1.09
   2   6   3   35.93    1.34
  -3  -6  -3   38.80    1.36
   3   6   3   36.38    1.45
   3   6   3   37.83    1.56
   3   6   3   37.89    1.27
   3   6   3   38.90    1.21
  -7   7   3   24.77    1.18
  -6   7   3   61.52    2.47
  -5   7   3   15.98    0.81
  -5   7   3   16.30    0.74
  -4   7   3  119.95    4.79
  -4   7   3  118.07    4.13
  -4   7   3  121.34    4.50
  -3   7   3   38.69    1.49
  -3   7   3   40.71    1.67
  -3   7   3   38.10    1.59
   2  -7  -3   40.95    1.36
  -2   7   3   40.93    1.70
  -2   7   3   39.72    1.62
   1  -7  -3   38.91    1.32
  -1   7   3   39.81    1.62
  -1   7   3   38.32    1.15
  -1   7   3   38.24    1.24
  -1   7   3   38.85    1.57
  -1   7   3   39.60    1.48
   0  -7  -3   21.89    0.83
   0   7   3   21.00    0.71
   0   7   3   20.98    0.91
   0   7   3   20.48    0.78
   0   7   3   23.22    0.94
   0   7   3   21.31    0.94
  -1  -7  -3    1.67    0.23
   1   7   3    1.52    0.21
   1   7   3    1.44    0.21
   1   7   3    1.72    0.25
   1   7   3    2.19    0.23
  -2  -7  -3   61.35    2.07
   2   7   3   63.91    1.84
   2   7   3   61.88    1.93
   2   7   3   63.54    2.44
   2   7   3   60.64    2.26
  -6   8   3   36.53    1.45
  -6   8   3   36.69    1.59
  -5   8   3   19.18    0.89
  -5   8   3   20.18    0.97
  -4   8   3   51.43    1.96
  -4   8   3   52.82    2.10
  -3   8   3   30.97    1.24
  -3   8   3   30.14    1.35
  -3   8   3   30.07    1.31
   2  -8  -3    8.93    0.48
  -2   8   3    9.59    0.53
  -2   8   3    9.05    0.54
  -2   8   3    9.54    0.54
   1  -8  -3   55.76    1.84
  -1   8   3   54.76    2.19
  -1   8   3   57.03    1.73
  -1   8   3   53.53    2.05
  -1   8   3   56.47    2.26
   0  -8  -3    0.75    0.19
   0   8   3    0.73    0.19
   0   8   3    0.83    0.20
   0   8   3    0.67    0.18
  -4   9   3   15.69    0.81
  -4   9   3   14.65    0.76
  -3   9   3   31.77    1.42
  -3   9   3   31.23    1.39
  -3   9   3   32.64    1.33
   2  -9  -3   66.65    2.21
  -2   9   3   66.95    2.64
  -2   9   3   67.10    2.47
  -2   9   3   67.53    2.74
   0   9  -4   40.24    1.29
   0   9  -4   41.49    1.79
   0  -9   4   41.73    1.46
  -1   9  -4   72.02    2.62
  -1   9  -4   75.91    3.00
  -1   9  -4   73.47    2.19
   1  -9   4   78.91    2.45
  -2   9  -4    4.37    0.43
  -2   9  -4    4.36    0.32
   2  -9   4    4.44    0.39
  -3   9  -4   46.48    1.96
  -4   9  -4    6.83    0.53
   5  -9   4   20.04    1.01
   1   8  -4   70.70    2.09
   1   8  -4   70.57    2.83
  -1  -8   4   70.52    2.29
   0   8  -4   97.42    3.73
   0   8  -4   95.86    2.74
   0  -8   4   95.11    3.02
  -1   8  -4    0.84    0.13
  -1   8  -4    0.64    0.13
  -1   8  -4    0.71    0.22
   1  -8   4    1.08    0.20
  -2   8  -4  114.22    4.35
   2  -8   4  114.23    3.53
   2  -8   4  114.09    4.33
  -3   8  -4    7.31    0.51
   3  -8   4    7.18    0.52
  -4   8  -4   52.55    2.11
   4  -8   4   50.42    2.09
  -5   8  -4   84.66    3.38
   5  -8   4   89.22    3.39
   6  -8   4   42.02    1.79
   3   7  -4   41.84    1.81
   3   7  -4   42.17    1.35
  -3  -7   4   41.09    1.46
   2   7  -4   13.31    0.74
   2   7  -4   12.81    0.53
  -2  -7   4   12.58    0.59
   1   7  -4   73.87    2.87
   1   7  -4   72.38    2.12
  -1  -7   4   72.96    2.33
   0   7  -4   12.18    0.51
   0   7  -4   12.51    0.67
   0   7  -4   12.13    0.46
   0  -7   4   12.39    0.54
   0  -7   4   12.52    0.66
  -1   7  -4   39.99    1.60
  -1   7  -4   38.59    1.14
   1  -7   4   36.41    1.28
   1  -7   4   37.33    1.57
  -2   7  -4   46.95    1.88
   2  -7   4   44.75    1.52
   2  -7   4   46.87    1.87
  -3   7  -4   88.06    3.31
   3  -7   4   84.05    3.29
  -4   7  -4   60.68    2.40
   4  -7   4   60.91    2.40
  -5   7  -4  188.27    7.09
   5  -7   4  194.30    7.09
   6  -7   4   60.25    2.42
   7  -7   4  119.34    4.56
   4   6  -4   55.20    1.68
   4   6  -4   53.05    1.58
   4   6  -4   53.33    2.23
  -4  -6   4   51.75    1.80
   3   6  -4   27.54    0.87
   3   6  -4   28.67    1.28
   3   6  -4   27.72    0.94
  -3  -6   4   26.78    1.02
   2   6  -4  128.84    4.74
   2   6  -4  121.06    3.39
   2   6  -4  126.41    3.52
  -2  -6   4  125.08    3.83
   1   6  -4   83.37    2.38
   1   6  -4   91.29    2.50
   1   6  -4   89.39    3.38
  -1  -6   4   91.43    2.74
  -1  -6   4   85.33    3.35
   0   6  -4   94.27    2.66
   0   6  -4   94.22    3.20
   0   6  -4   96.48    3.61
   0  -6   4   95.16    2.92
   0  -6   4   95.65    3.60
  -1   6  -4  177.18    5.02
  -1   6  -4  189.22    6.77
   1  -6   4  183.68    6.75
   1  -6   4  184.46    5.48
  -2   6  -4   79.49    3.05
   2  -6   4   80.54    2.48
   2  -6   4   80.16    3.05
  -3   6  -4   61.33    2.40
   3  -6   4   62.03    2.39
  -4   6  -4  190.83    7.07
   4  -6   4  192.98    7.07
  -5   6  -4    5.39    0.38
   5  -6   4    5.61    0.42
   6  -6   4  141.87    5.32
   7  -6   4   21.10    1.03
   4   5  -4   26.60    1.22
   4   5  -4   25.45    0.85
   3   5  -4  100.28    2.82
   3   5  -4  104.93    3.93
   2   5  -4  349.40    9.91
   2   5  -4  362.44   13.12
  -2  -5   4  357.71   12.84
  -2  -5   4  342.01   10.41
   1   5  -4  198.56    7.43
   1   5  -4  194.49    5.65
  -1  -5   4  200.51    5.87
  -1  -5   4  195.74    7.24
   0   5  -4  388.73   14.88
   0   5  -4  390.32   10.93
   0  -5   4  391.25   14.35
   0  -5   4  393.33   11.69
  -1   5  -4  442.41   12.44
  -1   5  -4  447.71   16.90
   1  -5   4  455.82   13.49
   1  -5   4  457.94   16.67
  -2   5  -4   51.46    2.23
  -2   5  -4   56.51    2.10
   2  -5   4   54.81    2.09
  -3   5  -4  245.56    9.15
   3  -5   4  249.56    9.02
  -4   5  -4   23.29    1.00
   4  -5   4   23.91    1.02
  -5   5  -4   36.60    1.60
   5  -5   4   40.67    1.58
   6  -5   4   32.73    1.39
   7  -5   4   29.32    1.30
   5   4  -4   12.76    0.74
   4   4  -4   93.28    3.60
   3   4  -4   95.40    3.60
  -3  -4   4   93.58    3.58
   2   4  -4  207.04    7.44
  -2  -4   4  198.08    7.42
   1   4  -4  248.35    9.48
  -1  -4   4  243.66    7.32
  -1  -4   4  247.17    8.97
   0   4  -4  333.71    9.62
   0   4  -4  341.67   13.00
   0  -4   4  362.29   10.41
   0  -4   4  349.49   12.88
  -1   4  -4  106.61    3.01
  -1   4  -4  112.49    4.23
   1  -4   4  114.18    3.30
   1  -4   4  108.84    4.08
  -2   4  -4  175.19    6.96
  -2   4  -4  179.23    6.75
   2  -4   4  179.29    6.50
  -3   4  -4   39.95    1.53
   3  -4   4   37.27    1.06
   3  -4   4   40.04    1.54
  -4   4  -4   53.24    2.01
   4  -4   4   53.39    2.01
   4  -4   4   49.56    1.42
   5  -4   4   71.89    2.02
   5  -4   4   75.57    2.82
   6  -4   4   70.28    1.97
   6  -4   4   71.01    2.74
   7  -4   4   54.79    2.18
   7  -4   4   53.05    1.57
   6   3  -4   76.95    3.08
   5   3  -4   60.90    2.45
   4   3  -4   41.16    1.68
  -4  -3   4   40.17    1.67
   3   3  -4  284.20   10.71
  -3  -3   4  268.54   10.06
   1   3  -4  413.96   15.44
  -1  -3   4  416.93   12.42
  -1  -3   4  407.23   15.35
   0   3  -4   91.48    3.35
   0   3  -4   84.75    2.54
   0  -3   4   90.24    3.35
   0  -3   4   94.46    2.69
  -1   3  -4    8.62    0.41
   1  -3   4    8.97    0.33
   1  -3   4    8.70    0.42
  -2   3  -4  225.19    8.42
   2  -3   4  228.62    8.42
   2  -3   4  222.32    6.03
  -3   3  -4    8.03    0.38
   3  -3   4    7.69    0.39
   3  -3   4    7.16    0.25
  -4   3  -4   46.56    1.85
   4  -3   4   50.59    1.87
   4  -3   4   48.14    1.35
   5  -3   4  171.51    4.65
   5  -3   4  175.07    6.37
   6  -3   4   34.12    1.42
   6  -3   4   33.91    1.03
   7  -3   4  173.93    4.80
   7  -3   4  178.71    6.56
   6   2  -4  106.71    4.12
   5   2  -4   38.41    1.63
  -5  -2   4   39.00    1.64
   4   2  -4  192.44    7.49
  -4  -2   4  198.66    7.29
  -4  -2   4  202.14    7.29
   3   2  -4   53.32    2.08
  -3  -2   4   53.96    2.08
  -3  -2   4   53.56    2.08
   2   2  -4  428.46   16.07
  -2  -2   4  426.98   15.97
   1   2  -4  179.48    6.82
  -1  -2   4  170.42    6.65
   0  -2   4  643.12   24.49
   0  -2   4  698.76   24.57
  -1   2  -4  346.76   10.58
  -1   2  -4  380.91   13.21
   1  -2   4  364.16   13.19
   1  -2   4  331.06   13.01
   1  -2   4  361.44    9.56
  -2   2  -4  331.07   11.99
   2  -2   4  310.02   11.88
   2  -2   4  336.29   12.12
   2  -2   4  328.44    8.79
  -3   2  -4  177.34    6.21
   3  -2   4  159.18    6.22
   3  -2   4  173.95    6.34
   3  -2   4  173.68    4.56
  -4   2  -4   97.42    3.67
   4  -2   4   99.85    3.69
   4  -2   4  102.07    2.71
   5  -2   4   59.71    1.65
   5  -2   4   57.22    2.24
   5  -2   4   57.72    2.38
   6  -2   4   87.32    2.47
   6  -2   4   87.79    3.55
   6  -2   4   88.82    3.35
   7  -2   4   39.98    1.69
   7  -2   4   40.50    1.26
   6   1  -4   27.76    1.25
   5   1  -4  124.00    4.69
  -5  -1   4  125.84    4.70
   4   1  -4   20.23    0.87
   4   1  -4   17.99    0.92
  -4  -1   4   20.21    0.88
   3   1  -4  192.88    7.07
   3   1  -4  173.77    7.43
  -3  -1   4  193.41    6.83
   2   1  -4  232.80    8.88
  -2  -1   4  228.61    8.63
  -1  -1   4  701.55   24.51
  -1  -1   4  706.56   24.51
  -1  -1   4  598.51   24.31
   0   1  -4  454.49   15.73
   0  -1   4  416.97   14.24
   0  -1   4  421.78   15.73
   0  -1   4  422.04   15.68
  -2   1  -4  189.05    6.93
   2  -1   4  192.86    6.44
   2  -1   4  192.17    7.05
   2  -1   4  189.28    5.13
  -3   1  -4  393.44   14.93
   3  -1   4  423.85   11.19
   3  -1   4  421.94   15.19
   3  -1   4  436.05   14.00
   3  -1   4  386.34   14.94
   4  -1   4  154.94    4.23
   4  -1   4  157.47    5.73
   4  -1   4  158.22    6.12
   5  -1   4   35.63    1.48
   5  -1   4   34.80    1.06
   5  -1   4   34.70    1.41
   6  -1   4   96.21    2.71
   6  -1   4   96.16    3.64
   6  -1   4   95.99    3.85
   7  -1   4   25.13    1.17
   7  -1   4   26.49    1.19
   7  -1   4   25.85    0.91
   7   0  -4  109.47    4.22
   6   0  -4   51.00    2.08
  -6   0   4   51.24    2.08
   5   0  -4   84.86    3.28
  -5   0   4   87.29    3.29
   4   0  -4  107.91    3.92
   4   0  -4   98.15    4.19
  -4   0   4  108.95    3.93
   3   0  -4    1.25    0.18
  -3   0   4    1.08    0.17
   2   0  -4  393.25   14.35
   2   0  -4  369.41   15.32
  -2   0   4  395.18   14.35
   1   0  -4   17.24    0.66
  -1   0   4   16.05    0.66
  -1   0   4   16.64    0.66
   0   0  -4  495.60   18.35
   0   0   4  519.02   16.89
   0   0   4  501.48   18.45
   0   0   4  517.70   13.69
   1   0   4  187.22    6.79
   1   0   4  189.80    6.30
   1   0   4  188.83    5.09
   1   0   4  179.13    5.10
   1   0   4  183.06    6.77
   2   0   4  293.79   10.29
   2   0   4  318.18    8.35
   2   0   4  295.48   11.09
   2   0   4  313.49   11.14
   3   0   4   78.76    2.67
   3   0   4   73.91    2.87
   3   0   4   79.13    2.87
   3   0   4   80.47    2.15
   4   0   4  140.91    5.47
   4   0   4  137.86    5.14
   4   0   4  140.25    3.81
   4   0   4  142.09    4.73
   5   0   4   45.01    1.37
   5   0   4   46.32    1.80
   5   0   4   46.54    1.88
   6   0   4   40.36    1.69
   6   0   4   41.56    1.30
   6   0   4   42.87    1.75
   7  -1  -4  112.19    4.38
  -7   1   4  116.95    4.45
   6  -1  -4  111.02    4.22
  -6   1   4  111.85    4.23
   5  -1  -4   87.38    3.36
  -5   1   4   90.03    3.38
   4  -1  -4  121.58    4.51
  -4   1   4  122.34    4.52
   3  -1  -4  119.19    4.87
   3  -1  -4  128.79    4.66
  -3   1   4  127.57    4.55
  -3   1   4  119.44    4.09
   2  -1  -4   21.01    0.80
   2  -1  -4   20.54    0.87
  -2   1   4   17.93    0.79
  -2   1   4   22.09    0.82
  -2   1   4   19.28    0.63
  -2   1   4   20.77    0.72
   1  -1  -4  514.93   20.25
  -1   1   4  549.00   17.27
  -1   1   4  524.34   18.91
  -1   1   4  488.39   15.25
   0  -1  -4   47.32    1.44
   0   1   4   45.51    1.73
   0   1   4   47.77    1.32
   0   1   4   48.52    1.33
   1   1   4  430.60   14.79
   1   1   4  452.76   12.18
   1   1   4  440.57   11.96
   2   1   4   97.94    3.45
   2   1   4   96.15    2.63
   2   1   4   96.49    3.21
   2   1   4   93.82    2.59
   2   1   4   90.68    3.45
   3   1   4  151.12    5.48
   3   1   4  153.22    5.02
   3   1   4  154.77    4.05
   3   1   4  140.47    5.44
   4   1   4   29.76    1.21
   4   1   4   31.43    1.25
   4   1   4   29.78    0.94
   4   1   4   31.69    1.16
   5   1   4   59.83    1.78
   5   1   4   61.49    2.36
   5   1   4   62.47    2.45
   5   1   4   60.61    2.18
   6   1   4   20.39    0.89
   6   1   4   18.58    0.91
   6   1   4   20.21    0.75
   7  -2  -4   22.11    1.04
  -7   2   4   21.88    1.06
   6  -2  -4  102.55    3.91
  -6   2   4  102.96    3.92
   5  -2  -4   76.19    2.93
  -5   2   4   77.63    2.95
   4  -2  -4   61.37    2.66
   4  -2  -4   67.57    2.48
  -4   2   4   67.20    2.49
   3  -2  -4  257.35   10.49
   3  -2  -4  259.32    9.97
  -3   2   4  281.20    9.01
  -3   2   4  276.26    9.96
   2  -2  -4  128.36    5.07
   2  -2  -4  127.87    4.76
  -2   2   4  131.81    4.79
  -2   2   4  115.21    4.72
  -2   2   4  145.32    4.32
   1  -2  -4  233.46    7.01
  -1   2   4  247.31    7.92
  -1   2   4  217.14    8.50
  -1   2   4  237.38    8.56
   0   2   4  869.87   23.42
   0   2   4  882.78   23.90
   0   2   4  867.08   29.03
   1   2   4  111.41    3.05
   1   2   4  113.08    3.11
   1   2   4  113.27    3.78
   2   2   4  595.01   15.99
   2   2   4  546.92   21.22
   2   2   4  610.27   16.27
   2   2   4  594.70   21.33
   2   2   4  590.84   19.82
   3   2   4  114.75    3.86
   3   2   4  110.93    4.16
   3   2   4  114.98    3.18
   3   2   4  114.14    3.12
   4   2   4   91.13    2.64
   4   2   4   98.07    3.53
   4   2   4   97.94    3.26
   4   2   4   91.30    2.69
   5   2   4   56.12    2.17
   5   2   4   54.76    1.66
   5   2   4   56.89    2.03
   5   2   4   54.81    1.68
   7  -3  -4   38.53    1.63
  -7   3   4   37.69    1.64
   6  -3  -4   79.17    3.02
  -6   3   4   77.40    3.03
   5  -3  -4   95.09    3.67
  -5   3   4  100.26    3.70
   4  -3  -4   57.05    2.24
  -4   3   4   61.08    2.27
  -4   3   4   58.41    2.41
   3  -3  -4  168.78    6.26
   3  -3  -4  162.26    6.73
  -3   3   4  178.21    5.72
  -3   3   4  174.78    6.72
  -3   3   4  176.73    6.37
   2  -3  -4   71.81    2.67
  -2   3   4   75.96    2.88
  -2   3   4   74.04    2.47
  -2   3   4   67.07    2.69
  -2   3   4   75.36    2.70
   1  -3  -4  146.45    4.47
  -1   3   4  142.20    5.35
  -1   3   4  155.14    5.39
  -1   3   4  147.04    4.12
  -1   3   4  152.81    4.05
  -1   3   4  143.46    4.92
   0  -3  -4  184.46    5.52
   0   3   4  193.97    5.09
   0   3   4  170.45    6.77
   0   3   4  193.40    6.78
   0   3   4  180.54    6.24
   0   3   4  191.88    5.12
   1   3   4  255.77    7.03
   1   3   4  250.19    8.23
   1   3   4  229.81    8.99
   1   3   4  248.24    6.69
   1   3   4  257.77    9.08
   2   3   4  123.68    3.32
   2   3   4  121.45    3.24
   2   3   4  119.24    4.32
   2   3   4  105.17    4.31
   2   3   4  123.89    4.02
   3   3   4  226.85    6.49
   3   3   4  244.82    7.88
   3   3   4  232.66    6.35
   3   3   4  240.69    8.57
   4   3   4   42.29    1.55
   4   3   4   41.10    1.27
   4   3   4   41.91    1.64
   4   3   4   40.63    1.30
   5   3   4  102.99    3.01
   5   3   4  102.85    3.61
   5   3   4  103.89    2.95
   5   3   4  105.58    3.92
  -7   4   4   87.25    3.40
  -6   4   4  161.13    6.01
   5  -4  -4   98.28    3.84
  -5   4   4  106.93    3.88
   4  -4  -4  211.06    7.72
  -4   4   4  217.61    7.75
  -4   4   4  209.99    7.04
  -4   4   4  208.37    8.27
   3  -4  -4   29.42    1.19
  -3   4   4   31.06    1.12
  -3   4   4   29.66    1.22
  -3   4   4   31.79    1.29
   2  -4  -4   87.59    2.58
   2  -4  -4   83.76    3.12
  -2   4   4   85.79    2.90
  -2   4   4   92.87    3.36
  -2   4   4   76.82    3.14
  -2   4   4   84.84    3.15
   1  -4  -4   45.55    1.36
  -1   4   4   42.00    1.63
  -1   4   4   38.27    1.62
  -1   4   4   45.99    1.25
  -1   4   4   45.16    1.28
  -1   4   4   43.17    1.54
   0  -4  -4    9.77    0.37
   0   4   4    9.26    0.35
   0   4   4    9.00    0.40
   0   4   4    7.82    0.38
   0   4   4    9.12    0.36
   0   4   4    9.24    0.42
  -1  -4  -4   93.93    2.69
   1   4   4   94.66    3.04
   1   4   4   87.72    3.23
   1   4   4   91.95    2.51
   1   4   4   76.71    3.22
   1   4   4   92.76    2.45
   1   4   4   79.14    3.23
   2   4   4   71.20    2.44
   2   4   4   69.19    1.97
   2   4   4   67.58    2.02
   2   4   4   69.16    2.58
   3   4   4   27.35    1.04
   3   4   4   25.74    0.85
   3   4   4   25.20    1.05
   3   4   4   24.64    0.87
   4   4   4  141.83    4.07
   4   4   4  143.25    5.30
   4   4   4  143.10    4.89
   4   4   4  145.13    3.98
  -7   5   4  169.47    6.35
  -6   5   4   28.62    1.27
  -5   5   4  173.16    6.41
  -4   5   4   89.37    3.13
  -4   5   4   91.64    3.44
  -4   5   4   92.76    3.67
  -3   5   4   28.85    1.19
  -3   5   4   27.24    1.05
  -3   5   4   26.09    1.12
   2  -5  -4   86.61    2.64
  -2   5   4   84.93    3.22
  -2   5   4   90.90    3.43
  -2   5   4   84.53    2.98
   1  -5  -4   44.02    1.40
  -1   5   4   43.75    1.27
  -1   5   4   44.24    1.68
  -1   5   4   45.27    1.33
  -1   5   4   45.42    1.76
  -1   5   4   41.51    1.58
   0  -5  -4   31.14    1.02
   0   5   4   29.89    1.15
   0   5   4   29.36    1.18
   0   5   4   30.26    0.92
   0   5   4   30.54    0.96
  -1  -5  -4  150.37    4.43
   1   5   4  141.21    4.10
   1   5   4  146.49    4.00
   1   5   4  145.70    5.36
   1   5   4  149.67    4.97
  -2  -5  -4   58.41    1.86
   2   5   4   55.48    1.73
   2   5   4   58.56    1.69
   2   5   4   59.37    2.08
   2   5   4   55.91    2.18
  -3  -5  -4  100.28    3.09
   3   5   4   99.17    3.43
   3   5   4   98.90    2.78
   3   5   4   96.88    2.86
   3   5   4   95.59    3.66
  -7   6   4    5.77    0.46
  -6   6   4   45.52    1.84
  -6   6   4   42.53    1.63
  -5   6   4   13.34    0.63
  -5   6   4   13.85    0.71
  -4   6   4   39.22    1.51
  -4   6   4   40.64    1.72
  -4   6   4   41.35    1.64
  -3   6   4   29.17    1.15
  -3   6   4   28.66    1.21
  -3   6   4   30.68    1.28
   2  -6  -4   59.14    1.84
  -2   6   4   55.35    2.08
  -2   6   4   57.40    2.22
  -2   6   4   60.63    2.34
   1  -6  -4   41.64    1.35
  -1   6   4   41.31    1.28
  -1   6   4   40.12    1.60
  -1   6   4   41.95    1.22
  -1   6   4   40.98    1.53
   0  -6  -4  142.04    4.21
   0   6   4  135.64    5.08
   0   6   4  135.22    3.90
   0   6   4  141.23    3.79
   0   6   4  138.92    4.72
  -1  -6  -4   84.63    2.57
   1   6   4   81.42    2.87
   1   6   4   78.96    2.39
   1   6   4   83.54    2.31
   1   6   4   78.80    3.05
  -2  -6  -4  120.67    3.74
   2   6   4  120.03    3.48
   2   6   4  120.47    4.48
   2   6   4  125.12    3.38
   2   6   4  118.69    4.18
  -3  -6  -4  119.92    3.79
   3   6   4  121.28    4.53
   3   6   4  119.09    4.21
   3   6   4  121.81    3.53
   3   6   4  125.89    3.43
  -6   7   4   34.31    1.35
  -6   7   4   33.82    1.48
  -5   7   4   42.83    1.78
  -5   7   4   43.64    1.64
  -4   7   4    7.88    0.47
  -4   7   4    8.37    0.51
  -4   7   4    8.02    0.50
  -3   7   4  145.36    5.09
  -3   7   4  154.44    5.88
  -3   7   4  148.20    5.53
   2  -7  -4    6.65    0.38
  -2   7   4    6.87    0.40
  -2   7   4    7.05    0.43
  -2   7   4    6.42    0.42
   1  -7  -4   70.24    2.18
  -1   7   4   68.31    2.61
  -1   7   4   67.82    2.45
  -1   7   4   66.82    2.04
  -1   7   4   68.07    1.94
   0  -7  -4   67.67    2.11
   0   7   4   63.92    1.96
   0   7   4   63.31    2.48
   0   7   4   65.83    1.87
   0   7   4   63.77    2.34
  -1  -7  -4   12.87    0.60
   1   7   4   13.05    0.66
   1   7   4   12.97    0.53
   1   7   4   12.14    0.62
   1   7   4   12.57    0.58
  -5   8   4   36.49    1.48
  -5   8   4   38.10    1.60
  -4   8   4  114.57    4.20
  -4   8   4  124.23    4.57
  -4   8   4  123.66    4.84
  -3   8   4   40.89    1.67
  -3   8   4   37.85    1.53
  -3   8   4   38.73    1.62
   2  -8  -4   69.69    2.27
  -2   8   4   70.94    2.74
  -2   8   4   73.14    2.84
  -2   8   4   68.92    2.56
   1  -8  -4   23.35    0.91
  -1   8   4   23.33    1.01
  -1   8   4   24.06    1.03
  -1   8   4   22.18    0.86
   0  -8  -4   14.69    0.68
   0   8   4   14.80    0.58
   0   8   4   14.95    0.66
   0   8   4   15.49    0.73
   0   8   4   14.20    0.73
  -1   9  -5   43.00    1.87
   1  -9   5   43.95    1.51
  -2   9  -5   73.31    2.93
   2  -9   5   73.36    2.38
  -3   9  -5   89.23    3.51
   3  -9   5   89.75    3.55
   4  -9   5   49.14    2.06
   1   8  -5   71.52    2.86
   1   8  -5   69.97    2.08
  -1  -8   5   71.62    2.31
   0   8  -5   82.05    2.39
   0   8  -5   86.15    3.28
   0  -8   5   81.75    2.64
  -1   8  -5   86.41    3.07
  -1   8  -5   87.18    2.54
  -1   8  -5   92.86    3.50
   1  -8   5   91.56    3.47
   1  -8   5   90.53    2.82
  -2   8  -5   63.57    2.59
   2  -8   5   67.03    2.59
   2  -8   5   64.34    2.10
  -3   8  -5  163.11    6.07
   3  -8   5  160.27    6.05
  -4   8  -5   41.90    1.76
   4  -8   5   41.16    1.76
   5  -8   5   74.70    2.96
   6  -8   5   45.75    1.94
   2   7  -5   94.60    3.65
   2   7  -5   93.16    2.69
  -2  -7   5   92.56    2.94
   1   7  -5   42.08    1.76
   1   7  -5   42.00    1.27
  -1  -7   5   41.48    1.41
   0   7  -5   84.26    3.29
   0   7  -5   83.90    2.40
   0  -7   5   86.33    2.66
   0  -7   5   85.66    3.29
  -1   7  -5    5.33    0.40
  -1   7  -5    4.49    0.23
   1  -7   5    4.74    0.40
   1  -7   5    4.50    0.32
  -2   7  -5   84.43    3.23
   2  -7   5   84.83    3.23
   2  -7   5   81.94    2.61
  -3   7  -5    9.02    0.54
   3  -7   5    8.74    0.55
  -4   7  -5   68.80    2.78
   4  -7   5   73.59    2.80
   5  -7   5   49.71    2.04
   6  -7   5   36.66    1.58
   3   6  -5   76.41    3.01
   3   6  -5   77.89    2.23
   3   6  -5   75.32    2.13
  -3  -6   5   73.37    2.41
   2   6  -5   90.00    3.42
   2   6  -5   89.12    2.52
   2   6  -5   83.90    2.41
  -2  -6   5   85.86    2.74
  -2  -6   5   91.68    3.41
   1   6  -5  163.69    4.53
   1   6  -5  166.04    6.11
  -1  -6   5  162.18    6.09
  -1  -6   5  164.42    4.93
   0   6  -5    3.33    0.19
   0   6  -5    3.96    0.32
   0  -6   5    3.43    0.33
   0  -6   5    3.46    0.25
  -1   6  -5  136.05    4.94
  -1   6  -5  124.49    3.62
   1  -6   5  132.43    3.99
   1  -6   5  136.17    4.94
  -2   6  -5    3.68    0.31
   2  -6   5    4.36    0.35
  -3   6  -5   36.95    1.50
   3  -6   5   36.07    1.50
  -4   6  -5  101.91    3.99
   4  -6   5  109.96    4.01
   5  -6   5   67.45    2.64
   6  -6   5   55.07    2.22
   7  -6   5   95.93    3.71
   4   5  -5   79.69    3.16
   3   5  -5   46.82    1.93
  -3  -5   5   45.67    1.54
  -3  -5   5   47.99    1.93
   2   5  -5  125.66    3.51
   2   5  -5  128.40    4.74
  -2  -5   5  128.11    4.74
  -2  -5   5  121.99    3.81
   1   5  -5   56.37    2.16
   1   5  -5   53.75    1.56
  -1  -5   5   54.56    2.14
  -1  -5   5   54.17    1.72
   0   5  -5  114.07    4.19
   0   5  -5  109.47    3.08
   0  -5   5  111.81    4.18
   0  -5   5  112.72    3.37
  -1   5  -5   86.44    3.20
  -1   5  -5   82.05    2.33
   1  -5   5   86.11    3.20
   1  -5   5   84.66    2.58
  -2   5  -5  228.71    8.46
   2  -5   5  234.76    8.46
  -3   5  -5  116.12    4.38
   3  -5   5  119.47    4.39
  -4   5  -5  318.22   11.91
   4  -5   5  338.06   11.94
   5  -5   5  100.27    3.79
   6  -5   5  181.58    6.73
   7  -5   5   44.04    1.84
   5   4  -5   53.90    2.25
   4   4  -5    6.72    0.48
  -4  -4   5    6.45    0.47
   3   4  -5  126.62    4.77
  -3  -4   5  127.33    4.77
   2   4  -5  107.87    4.01
  -2  -4   5  104.13    3.22
  -2  -4   5  107.58    4.00
   1   4  -5   67.72    2.56
  -1  -4   5   67.27    2.56
  -1  -4   5   66.09    2.05
   0   4  -5  316.56    9.31
   0   4  -5  341.42   12.75
   0  -4   5  332.69   12.51
   0  -4   5  357.29    9.99
  -1   4  -5  146.29    5.54
   1  -4   5  149.52    4.37
   1  -4   5  145.61    5.41
  -2   4  -5   97.58    3.62
   2  -4   5   97.46    3.63
  -3   4  -5  496.49   18.57
   3  -4   5  481.65   13.37
   3  -4   5  536.17   18.81
  -4   4  -5   19.24    0.83
   4  -4   5   19.95    0.85
   4  -4   5   18.63    0.57
   5  -4   5  276.10    7.60
   5  -4   5  295.95   10.43
   6  -4   5   75.66    2.83
   6  -4   5   70.17    2.03
   7  -4   5   29.90    1.29
   7  -4   5   28.77    0.93
   5   3  -5   43.76    1.85
   4   3  -5  100.88    3.91
  -4  -3   5  104.36    3.91
   3   3  -5  324.05   11.87
  -3  -3   5  319.90   11.73
   2   3  -5  230.18    8.41
   1   3  -5  297.88   11.39
  -1  -3   5  301.42    8.91
  -1  -3   5  292.64   10.92
   0   3  -5  391.49   14.46
   0   3  -5  367.56   10.54
   0  -3   5  383.06   14.49
   0  -3   5  403.25   11.51
  -1   3  -5   30.45    1.19
   1  -3   5   30.01    1.19
  -2   3  -5  133.56    4.92
   2  -3   5  131.22    3.58
   2  -3   5  139.08    4.93
  -3   3  -5   13.46    0.59
   3  -3   5   13.77    0.61
   3  -3   5   14.08    0.43
   4  -3   5   45.17    1.26
   4  -3   5   44.19    1.74
   5  -3   5   26.54    1.12
   5  -3   5   26.85    0.82
   6  -3   5   59.85    2.30
   6  -3   5   56.95    1.67
   7  -3   5   23.79    1.07
   7  -3   5   21.62    0.77
   6   2  -5   21.66    1.06
   5   2  -5  128.43    5.03
  -5  -2   5  138.98    5.07
   4   2  -5  192.16    7.29
  -4  -2   5  201.69    7.31
  -4  -2   5  199.70    7.31
   3   2  -5  308.32   12.19
  -3  -2   5  322.09   11.66
  -3  -2   5  330.76   11.67
   2   2  -5  369.28   13.95
  -2  -2   5  367.62   13.88
   1   2  -5  630.24   23.29
  -1  -2   5  643.14   18.65
  -1  -2   5  620.26   23.28
   0   2  -5  110.47    3.86
   0  -2   5  108.98    3.09
   0  -2   5  107.06    3.87
   0  -2   5   94.02    3.85
  -1   2  -5  234.13    8.38
  -1   2  -5  215.27    6.70
   1  -2   5  231.33    8.37
   1  -2   5  233.77    6.05
   1  -2   5  213.68    8.19
  -2   2  -5   52.36    1.95
   2  -2   5   54.93    1.97
   2  -2   5   48.65    1.96
   2  -2   5   53.77    1.44
  -3   2  -5   11.97    0.50
   3  -2   5   12.53    0.40
   3  -2   5   10.74    0.52
   3  -2   5   12.26    0.53
   4  -2   5   82.11    2.23
   4  -2   5   79.92    3.02
   5  -2   5   58.72    1.67
   5  -2   5   58.35    2.25
   6  -2   5   29.35    0.94
   6  -2   5   29.75    1.26
   7  -2   5  163.53    6.04
   7  -2   5  159.87    4.45
   6   1  -5   42.92    1.83
  -6  -1   5   42.72    1.83
  -6  -1   5   43.88    1.84
   5   1  -5   11.75    0.65
  -5  -1   5   12.53    0.67
   4   1  -5  269.13   10.27
  -4  -1   5  275.89    9.96
   3   1  -5    7.71    0.41
   3   1  -5    7.23    0.43
  -3  -1   5    7.51    0.42
   2   1  -5  371.65   13.79
  -2  -1   5  366.76   13.79
   1   1  -5  250.05    9.22
  -1  -1   5  250.82    7.21
  -1  -1   5  253.47    9.14
  -1  -1   5  251.95    9.14
  -1  -1   5  214.47    8.85
   0   1  -5   51.64    1.90
   0  -1   5   51.60    1.91
   0  -1   5   52.77    1.74
   0  -1   5   48.81    1.91
  -1   1  -5  320.70   11.93
   1  -1   5  337.27   11.05
   1  -1   5  336.54    8.92
   1  -1   5  336.74   12.12
   1  -1   5  313.63   12.05
   2  -1   5  100.93    3.37
   2  -1   5  101.93    3.69
   2  -1   5  102.35    2.70
   2  -1   5   96.40    3.65
   2  -1   5   98.58    2.72
   3  -1   5   80.33    3.19
   3  -1   5   87.70    3.20
   3  -1   5   91.44    2.38
   3  -1   5   88.78    2.98
   4  -1   5  262.82    7.02
   4  -1   5  262.83    9.60
   5  -1   5   90.29    3.35
   5  -1   5   88.50    2.50
   6  -1   5  196.37    7.16
   6  -1   5  192.49    5.29
   7   0  -5   58.08    2.38
   6   0  -5   31.36    1.40
  -6   0   5   33.52    1.43
   5   0  -5  108.87    4.07
  -5   0   5  106.48    4.07
   4   0  -5    8.85    0.48
  -4   0   5    9.55    0.51
   3   0  -5  265.15    9.68
   3   0  -5  239.60   10.13
  -3   0   5  270.36    9.74
   2   0  -5   35.58    1.31
   2   0  -5   30.40    1.39
  -2   0   5   34.75    1.32
   1   0  -5  308.45   10.97
  -1   0   5  299.09    9.81
  -1   0   5  302.08   10.92
  -1   0   5  274.95   10.84
   0   0   5  218.88    6.15
   0   0   5  236.35    7.52
   0   0   5  215.84    8.27
   0   0   5  231.78    8.32
   1   0   5  160.96    5.20
   1   0   5  147.68    4.25
   1   0   5  151.50    5.70
   1   0   5  151.98    5.72
   1   0   5  169.77    4.29
   2   0   5  134.88    4.58
   2   0   5  133.07    4.95
   2   0   5  137.45    4.99
   2   0   5  137.96    3.74
   2   0   5  141.68    3.69
   3   0   5  144.70    3.94
   3   0   5  132.84    5.21
   3   0   5  146.20    5.22
   3   0   5  150.30    4.83
   3   0   5  144.76    3.88
   4   0   5   60.83    1.78
   4   0   5   63.26    2.22
   4   0   5   63.74    2.36
   5   0   5  135.49    5.02
   5   0   5  136.69    3.75
   6   0   5   82.39    3.19
   6   0   5   84.70    2.41
   7  -1  -5   37.95    1.64
  -7   1   5   37.82    1.65
   6  -1  -5  117.38    4.54
  -6   1   5  122.58    4.56
   5  -1  -5   64.99    2.57
  -5   1   5   68.07    2.60
   4  -1  -5  148.84    5.47
  -4   1   5  148.10    5.48
   3  -1  -5  190.04    6.73
   3  -1  -5  165.35    7.11
  -3   1   5  188.15    6.00
  -3   1   5  184.94    6.74
   2  -1  -5  508.95   20.76
   2  -1  -5  546.00   19.46
  -2   1   5  547.05   19.47
  -2   1   5  509.49   15.63
  -2   1   5  595.25   17.64
  -2   1   5  473.50   19.29
   1  -1  -5  135.19    5.19
  -1   1   5  129.80    5.10
  -1   1   5  144.68    5.22
  -1   1   5  153.60    4.68
   0   1   5 1000.00   32.33
   0   1   5  968.91   26.10
   0   1   5  952.09   26.48
   1   1   5   91.50    2.50
   1   1   5   91.22    3.10
   1   1   5   93.22    2.53
   2   1   5  169.50    4.48
   2   1   5  170.81    6.03
   2   1   5  161.52    5.56
   2   1   5  160.67    6.01
   2   1   5  171.14    4.56
   3   1   5  101.16    2.75
   3   1   5   98.99    3.65
   3   1   5  103.23    2.79
   3   1   5   94.20    3.66
   3   1   5  102.56    3.42
   4   1   5   10.47    0.50
   4   1   5   10.38    0.43
   4   1   5   11.11    0.53
   4   1   5   10.78    0.42
   5   1   5   51.04    1.96
   5   1   5   49.23    1.51
   5   1   5   50.88    1.85
   5   1   5   49.55    1.51
   6   1   5   24.05    0.88
   6   1   5   26.93    1.13
   6   1   5   25.95    0.91
  -7   2   5   35.53    1.56
   6  -2  -5   36.81    1.56
  -6   2   5   38.05    1.59
   5  -2  -5   88.74    3.43
  -5   2   5   93.23    3.46
   4  -2  -5   27.85    1.12
  -4   2   5   26.44    0.97
  -4   2   5   27.61    1.13
   3  -2  -5  229.12    8.22
   3  -2  -5  204.36    8.75
  -3   2   5  231.28    7.46
  -3   2   5  235.34    8.28
   2  -2  -5  130.06    4.75
  -2   2   5  117.00    4.72
  -2   2   5  137.96    4.74
  -2   2   5  134.21    4.32
   1  -2  -5  475.42   13.71
  -1   2   5  478.37   16.87
  -1   2   5  457.06   15.50
  -1   2   5  440.15   16.79
   0  -2  -5  185.15    5.52
   0   2   5  176.30    5.01
   0   2   5  180.57    4.87
   0   2   5  185.64    6.05
   1   2   5  420.95   14.70
   1   2   5  445.83   11.94
   1   2   5  441.59   11.97
   2   2   5   79.22    2.23
   2   2   5   77.95    2.20
   2   2   5   80.28    2.73
   3   2   5  123.32    4.48
   3   2   5  119.61    3.37
   3   2   5  124.82    3.43
   3   2   5  124.11    4.18
   4   2   5   57.58    2.05
   4   2   5   56.09    1.68
   4   2   5   55.05    1.66
   4   2   5   57.63    2.15
   5   2   5   23.08    0.81
   5   2   5   22.46    0.82
   5   2   5   23.65    1.00
   5   2   5   23.06    0.99
  -7   3   5   51.27    2.12
  -6   3   5   24.63    1.12
   5  -3  -5   24.92    1.07
  -5   3   5   25.99    1.10
  -5   3   5   24.52    0.93
   4  -3  -5   48.53    1.90
  -4   3   5   50.71    1.92
  -4   3   5   48.55    1.72
   3  -3  -5    5.21    0.29
  -3   3   5    5.63    0.28
  -3   3   5    5.10    0.31
   2  -3  -5  145.51    5.32
  -2   3   5  157.95    4.91
  -2   3   5  154.50    5.36
  -2   3   5  129.88    5.34
   1  -3  -5   58.42    1.76
  -1   3   5   58.86    2.14
  -1   3   5   58.14    2.01
  -1   3   5   55.12    2.14
  -1   3   5   60.14    1.64
   0  -3  -5  210.40    6.40
   0   3   5  210.35    5.63
   0   3   5  205.45    6.98
   0   3   5  215.01    5.75
  -1  -3  -5   88.26    2.66
   1   3   5   85.38    2.43
   1   3   5   87.78    2.48
   1   3   5   90.82    3.02
   2   3   5  188.28    6.63
   2   3   5  187.57    4.96
   2   3   5  189.57    6.16
   2   3   5  190.06    5.07
   2   3   5  162.32    6.62
   3   3   5   31.73    1.03
   3   3   5   32.42    1.26
   3   3   5   32.80    1.03
   3   3   5   33.66    1.26
   4   3   5   92.72    2.58
   4   3   5   89.12    3.17
   4   3   5   90.33    3.38
   4   3   5   90.19    2.62
   5   3   5   37.28    1.25
   5   3   5   39.59    1.26
   5   3   5   38.49    1.51
   5   3   5   38.84    1.56
  -7   4   5   63.63    2.57
  -6   4   5   70.55    2.66
  -6   4   5   64.07    2.33
  -5   4   5   30.50    1.28
  -5   4   5   29.72    1.12
  -4   4   5  116.76    4.52
  -4   4   5  110.24    3.84
  -4   4   5  113.66    4.23
  -3   4   5   85.07    3.00
  -3   4   5   85.21    3.28
  -3   4   5   93.82    3.50
  -2   4   5   44.56    1.58
  -2   4   5   43.79    1.68
   1  -4  -5  295.42    8.44
  -1   4   5  282.77   10.24
  -1   4   5  288.98    7.85
  -1   4   5  301.46    7.70
  -1   4   5  246.68   10.18
  -1   4   5  277.43    9.34
   0  -4  -5   41.64    1.25
   0   4   5   35.23    1.46
   0   4   5   38.04    1.42
   0   4   5   39.92    1.47
   0   4   5   40.92    1.19
   0   4   5   39.62    1.16
  -1  -4  -5  173.19    5.10
   1   4   5  166.38    6.18
   1   4   5  173.77    5.75
   1   4   5  172.83    4.74
   1   4   5  168.76    4.63
  -2  -4  -5   60.62    1.85
   2   4   5   56.66    1.72
   2   4   5   56.76    2.16
   2   4   5   57.80    1.69
   2   4   5   58.32    2.09
   3   4   5   43.07    1.67
   3   4   5   43.53    1.64
   3   4   5   45.38    1.34
   3   4   5   42.45    1.36
   4   4   5   20.95    0.78
   4   4   5   21.41    0.92
   4   4   5   20.34    0.89
   4   4   5   20.71    0.77
  -7   5   5   40.11    1.66
  -7   5   5   36.45    1.42
  -6   5   5   75.69    2.72
  -6   5   5   80.28    3.04
  -5   5   5   57.23    2.25
  -5   5   5   56.66    2.03
  -4   5   5  109.74    4.03
  -4   5   5  103.21    3.68
  -4   5   5  110.11    4.29
  -3   5   5   99.47    3.82
  -3   5   5   96.52    3.31
  -3   5   5   93.54    3.60
   2  -5  -5  108.26    3.28
  -2   5   5  104.80    4.01
  -2   5   5  106.01    3.71
  -2   5   5  115.74    4.26
   1  -5  -5  115.17    3.36
  -1   5   5  113.16    3.06
  -1   5   5  105.02    3.79
  -1   5   5  110.41    4.07
  -1   5   5  111.60    3.14
   0  -5  -5  159.72    4.69
   0   5   5  158.53    5.29
   0   5   5  158.74    4.26
   0   5   5  151.80    5.68
   0   5   5  153.21    4.36
  -1  -5  -5   68.27    2.11
   1   5   5   68.66    1.93
   1   5   5   67.57    2.39
   1   5   5   64.64    1.97
   1   5   5   66.07    2.49
  -2  -5  -5  122.57    3.64
   2   5   5  117.26    4.09
   2   5   5  118.16    3.30
   2   5   5  117.26    3.38
   2   5   5  116.88    4.34
  -3  -5  -5   28.12    1.01
   3   5   5   27.00    0.92
   3   5   5   26.37    0.95
   3   5   5   25.69    1.08
   3   5   5   26.47    1.12
  -6   6   5   21.84    1.03
  -6   6   5   20.79    0.90
  -5   6   5   86.86    3.27
  -5   6   5   82.80    2.97
  -4   6   5    9.14    0.49
  -4   6   5    8.96    0.51
  -4   6   5    9.66    0.53
  -3   6   5   26.19    1.08
  -3   6   5   26.80    1.14
  -3   6   5   28.94    1.19
   2  -6  -5   48.14    1.57
  -2   6   5   47.70    1.89
  -2   6   5   47.51    1.79
  -2   6   5   52.63    1.97
   1  -6  -5    9.48    0.43
  -1   6   5    9.58    0.41
  -1   6   5    9.61    0.50
  -1   6   5    9.13    0.44
  -1   6   5    9.52    0.47
   0  -6  -5   73.99    2.25
   0   6   5   69.22    2.66
   0   6   5   69.47    2.11
   0   6   5   69.80    2.53
   0   6   5   73.80    2.05
  -1  -6  -5   84.42    2.62
   1   6   5   81.56    2.45
   1   6   5   86.21    2.38
   1   6   5   84.00    2.95
   1   6   5   79.60    3.09
  -2  -6  -5   24.56    0.92
   2   6   5   22.83    0.98
   2   6   5   23.47    1.02
   2   6   5   23.63    0.88
   2   6   5   25.05    0.85
  -6   7   5   47.43    1.81
  -6   7   5   48.76    2.00
  -5   7   5   28.12    1.24
  -5   7   5   27.31    1.14
  -4   7   5    8.46    0.50
  -4   7   5    7.74    0.50
  -4   7   5    8.33    0.49
  -3   7   5   12.74    0.61
  -3   7   5   11.37    0.61
  -3   7   5   11.91    0.62
   2  -7  -5   13.64    0.58
  -2   7   5   13.87    0.66
  -2   7   5   12.81    0.66
   1  -7  -5    7.85    0.41
  -1   7   5    7.16    0.43
  -1   7   5    7.51    0.42
  -1   7   5    7.24    0.46
   0  -7  -5   41.85    1.42
   0   7   5   40.20    1.63
   0   7   5   43.93    1.29
   0   7   5   42.12    1.36
   0   7   5   40.16    1.60
  -1  -7  -5   30.79    1.14
   1   7   5   33.10    1.04
   1   7   5   30.29    1.26
   1   7   5   31.75    1.10
   1   7   5   31.23    1.29
  -5   8   5   20.60    0.94
  -5   8   5   20.89    1.01
  -4   8   5   24.72    1.14
  -4   8   5   26.06    1.16
  -4   8   5   25.62    1.11
  -3   8   5   37.03    1.53
  -3   8   5   37.56    1.55
  -3   8   5   35.63    1.47
   2  -8  -5   14.76    0.64
  -2   8   5   14.70    0.72
  -2   8   5   14.23    0.74
   1  -8  -5   71.44    2.30
  -1   8   5   73.25    2.73
  -1   8   5   68.94    2.60
  -1   9  -6   62.01    2.54
   1  -9   6   61.75    2.04
  -2   9  -6   45.74    1.95
   3  -9   6   74.80    2.99
   4  -9   6   36.94    1.64
   1   8  -6    6.55    0.52
  -1  -8   6    7.03    0.43
   0   8  -6   39.42    1.68
   0  -8   6   37.85    1.33
  -1   8  -6   71.99    2.87
   1  -8   6   71.15    2.30
   1  -8   6   73.64    2.87
  -2   8  -6   73.93    2.96
   2  -8   6   76.12    2.97
  -3   8  -6   99.15    3.87
   3  -8   6  100.03    3.84
   4  -8   6   97.29    3.77
   5  -8   6   44.62    1.89
   2   7  -6    1.91    0.33
   2   7  -6    2.55    0.22
  -2  -7   6    2.64    0.28
   1   7  -6   85.64    2.50
   1   7  -6   89.83    3.44
  -1  -7   6   90.71    3.44
  -1  -7   6   86.81    2.76
   0   7  -6   41.28    1.69
   0   7  -6   38.29    1.17
   0  -7   6   38.83    1.33
   0  -7   6   40.61    1.68
  -1   7  -6   77.26    3.02
   1  -7   6   81.04    3.03
   1  -7   6   74.42    2.42
  -2   7  -6  146.68    5.58
   2  -7   6  151.99    5.59
  -3   7  -6   73.06    2.91
   3  -7   6   76.78    2.93
   4  -7   6   71.27    2.81
   5  -7   6   74.69    2.94
   6  -7   6   10.16    0.65
   3   6  -6   74.42    2.14
   3   6  -6   72.43    2.91
  -3  -6   6   71.34    2.32
   2   6  -6  116.58    3.36
   2   6  -6  121.26    4.58
  -2  -6   6  124.73    4.57
  -2  -6   6  117.90    3.67
   1   6  -6  115.73    3.26
   1   6  -6  120.17    4.45
  -1  -6   6  118.29    4.44
  -1  -6   6  115.52    3.57
   0   6  -6  185.74    5.23
   0   6  -6  194.97    7.09
   0  -6   6  199.07    7.09
   0  -6   6  186.87    5.71
  -1   6  -6   75.68    2.89
   1  -6   6   76.58    2.90
   1  -6   6   72.28    2.31
  -2   6  -6  240.58    9.02
   2  -6   6  252.26    9.04
  -3   6  -6   55.51    2.28
   3  -6   6   61.53    2.32
   4  -6   6   67.66    2.65
   5  -6   6   51.37    2.08
   6  -6   6    8.33    0.56
   4   5  -6  108.84    4.13
  -4  -5   6  104.13    3.30
   3   5  -6  117.63    4.46
  -3  -5   6  111.36    3.56
  -3  -5   6  121.48    4.46
   2   5  -6   96.64    3.64
   2   5  -6   92.94    2.67
  -2  -5   6   91.16    2.90
  -2  -5   6   99.43    3.65
   1   5  -6  154.24    5.61
   1   5  -6  145.54    4.13
  -1  -5   6  149.09    4.50
  -1  -5   6  153.78    5.60
   0   5  -6   21.14    0.66
   0   5  -6   23.07    0.98
   0  -5   6   21.76    0.97
   0  -5   6   22.86    0.76
  -1   5  -6  256.88    9.39
   1  -5   6  258.91    9.40
   1  -5   6  256.18    7.59
  -2   5  -6   20.28    0.91
   2  -5   6   22.06    0.94
  -3   5  -6  183.72    6.92
   3  -5   6  193.93    6.95
   4  -5   6  108.00    4.06
   5  -5   6   48.28    1.94
   6  -5   6  103.05    3.92
   5   4  -6  190.09    7.14
   4   4  -6   64.89    2.62
  -4  -4   6   65.99    2.62
   3   4  -6   40.91    1.71
  -3  -4   6   41.43    1.71
   2   4  -6  165.56    6.00
  -2  -4   6  164.32    5.99
  -2  -4   6  155.10    4.81
   1   4  -6   18.75    0.84
  -1  -4   6   19.03    0.85
  -1  -4   6   18.36    0.64
   0   4  -6   90.98    3.38
   0   4  -6   86.41    2.46
   0  -4   6   90.95    3.39
   0  -4   6   92.52    2.71
  -1   4  -6    7.52    0.40
   1  -4   6    7.88    0.43
  -2   4  -6   46.17    1.84
   2  -4   6   49.36    1.87
  -3   4  -6  130.15    5.01
   3  -4   6  144.18    5.05
   3  -4   6  134.96    3.64
   4  -4   6  172.39    4.67
   4  -4   6  177.97    6.44
   5  -4   6   83.94    2.36
   5  -4   6   88.36    3.28
   6  -4   6  165.88    4.71
   6  -4   6  183.51    6.48
   5   3  -6   98.71    3.90
  -5  -3   6  102.93    3.91
   4   3  -6   80.04    3.16
  -4  -3   6   82.43    3.16
   3   3  -6  135.25    5.09
  -3  -3   6  137.16    5.09
   2   3  -6   38.97    1.57
  -2  -3   6   39.15    1.57
   1   3  -6  107.71    4.05
  -1  -3   6  109.90    3.24
  -1  -3   6  109.63    4.06
   0   3  -6   40.56    1.60
   0  -3   6   42.23    1.62
   0  -3   6   41.06    1.25
  -1   3  -6  162.43    6.09
   1  -3   6  171.50    6.10
  -2   3  -6   97.62    3.71
   2  -3   6  102.35    2.71
   2  -3   6  103.01    3.74
   3  -3   6  304.08    7.97
   3  -3   6  297.24   11.16
   4  -3   6   83.17    2.27
   4  -3   6   82.48    3.11
   5  -3   6  226.53    6.01
   5  -3   6  221.98    8.20
   6  -3   6   33.75    1.04
   6  -3   6   34.19    1.42
   6   2  -6   83.45    3.31
   5   2  -6   11.42    0.66
  -5  -2   6   12.13    0.70
   4   2  -6  155.56    6.01
  -4  -2   6  167.93    6.04
   3   2  -6  240.11    9.14
  -3  -2   6  252.52    9.02
   2   2  -6   94.16    3.53
  -2  -2   6   95.16    3.55
   1   2  -6  530.60   19.73
  -1  -2   6  528.13   15.66
  -1  -2   6  537.01   19.72
   0   2  -6  322.30   11.44
   0  -2   6  324.12   11.38
   0  -2   6  277.75   11.12
  -1   2  -6  102.63    3.68
  -1   2  -6   99.52    2.96
   1  -2   6  105.44    3.70
   1  -2   6   95.07    3.69
  -2   2  -6  735.23   26.95
   2  -2   6  681.47   27.01
   2  -2   6  784.86   27.28
   2  -2   6  775.42   19.95
   3  -2   6   35.51    1.02
   3  -2   6   34.96    1.37
   4  -2   6  284.46    7.48
   4  -2   6  276.77   10.23
   5  -2   6   94.54    3.49
   5  -2   6   91.51    2.58
   6  -2   6   20.75    0.72
   6  -2   6   21.01    0.95
   6   1  -6   20.27    1.02
  -6  -1   6   21.31    1.06
  -6  -1   6   21.51    1.06
   5   1  -6   66.67    2.64
  -5  -1   6   67.41    2.65
  -5  -1   6   66.64    2.65
   4   1  -6  165.87    6.13
  -4  -1   6  165.45    6.14
   3   1  -6  193.07    7.33
  -3  -1   6  192.32    7.07
   2   1  -6  241.66    9.27
  -2  -1   6  250.23    9.07
  -2  -1   6  242.41    9.06
   1   1  -6  280.26   10.18
  -1  -1   6  236.96    9.85
  -1  -1   6  297.45   10.19
  -1  -1   6  277.27    8.99
   0   1  -6   83.30    3.05
   0  -1   6   84.88    3.08
   0  -1   6   87.50    2.81
   0  -1   6   77.95    3.07
   1  -1   6  163.54    6.21
   1  -1   6  173.91    5.69
   1  -1   6  176.26    4.58
   1  -1   6  172.07    6.36
   2  -1   6   39.81    1.51
   2  -1   6   39.47    1.11
   2  -1   6   37.74    1.50
   2  -1   6   40.92    1.43
   2  -1   6   42.60    1.15
   3  -1   6  133.05    4.84
   3  -1   6  137.37    3.60
   3  -1   6  131.59    4.48
   3  -1   6  128.90    3.62
   4  -1   6   57.65    2.17
   4  -1   6   57.09    1.64
   5  -1   6   99.98    3.73
   5  -1   6   99.93    2.79
   6  -1   6   50.92    2.01
   6  -1   6   50.28    1.53
   6   0  -6   86.00    3.36
  -6   0   6   86.84    3.38
   5   0  -6  158.98    5.97
  -5   0   6  162.21    5.99
   4   0  -6  213.31    7.73
  -4   0   6  208.08    7.73
   3   0  -6  140.19    5.16
  -3   0   6  140.03    5.17
   2   0  -6  370.90   15.25
   2   0  -6  410.61   14.51
  -2   0   6  409.28   14.45
  -2   0   6  396.01   12.85
  -2   0   6  363.34   11.41
   1   0  -6   13.50    0.56
  -1   0   6   14.12    0.59
  -1   0   6   12.76    0.58
  -1   0   6   15.19    0.53
   0   0   6   54.04    2.14
   0   0   6   59.04    1.62
   0   0   6   59.43    2.15
   0   0   6   60.20    1.99
   1   0   6   39.93    1.44
   1   0   6   37.63    1.09
   1   0   6   39.19    1.37
   1   0   6   38.57    1.11
   1   0   6   38.22    1.43
   2   0   6    2.03    0.19
   2   0   6    2.11    0.14
   2   0   6    1.44    0.15
   2   0   6    1.76    0.12
   2   0   6    1.48    0.13
   3   0   6   62.40    2.27
   3   0   6   60.78    1.72
   3   0   6   58.69    2.15
   3   0   6   62.50    1.73
   4   0   6   76.74    2.78
   4   0   6   72.01    2.10
   4   0   6   72.10    2.10
   4   0   6   77.18    2.63
   5   0   6   19.88    0.70
   5   0   6   18.37    0.66
   5   0   6   20.31    0.86
   6   0   6  206.49    5.58
   6   0   6  193.46    5.64
   6   0   6  212.09    7.51
  -7   1   6   59.05    2.43
  -6   1   6   21.69    1.04
   5  -1  -6  240.62    9.02
  -5   1   6  252.24    9.05
   4  -1  -6   54.74    2.16
  -4   1   6   57.08    2.19
   3  -1  -6  289.65   11.07
  -3   1   6  285.38    9.69
  -3   1   6  310.20   10.86
   2  -1  -6  213.41    7.71
  -2   1   6  182.18    7.56
  -2   1   6  225.36    6.92
  -2   1   6  203.88    6.13
  -2   1   6  219.90    7.64
  -1   1   6  105.22    4.16
  -1   1   6  119.25    4.18
  -1   1   6  119.40    3.83
   0   1   6  173.32    5.56
   0   1   6  155.19    6.04
   0   1   6  173.11    6.08
   1   1   6   93.62    2.56
   1   1   6   93.61    3.16
   1   1   6   92.36    2.57
   2   1   6   58.44    2.11
   2   1   6   60.60    1.71
   2   1   6   62.07    1.71
   3   1   6  124.52    3.47
   3   1   6  128.01    3.51
   3   1   6  130.06    4.31
   3   1   6  124.11    4.60
   4   1   6   69.72    2.02
   4   1   6   71.72    2.63
   4   1   6   70.55    2.50
   4   1   6   69.22    2.02
   5   1   6  128.25    4.64
   5   1   6  124.96    4.34
   5   1   6  121.71    3.53
   5   1   6  127.27    3.50
  -7   2   6   15.07    0.84
  -6   2   6   67.38    2.68
  -5   2   6    2.75    0.30
   4  -2  -6  176.92    6.39
  -4   2   6  180.07    6.41
  -4   2   6  165.59    5.76
   3  -2  -6   50.08    1.92
  -3   2   6   50.51    1.95
  -3   2   6   51.67    1.75
   2  -2  -6  162.17    5.85
  -2   2   6  151.66    5.84
  -2   2   6  148.87    4.72
  -2   2   6  169.62    5.91
  -2   2   6  171.83    5.35
  -1   2   6  208.64    7.73
  -1   2   6  210.27    7.79
  -1   2   6  223.45    7.15
   0  -2  -6  182.43    5.46
   0   2   6  184.99    5.04
   0   2   6  185.72    4.95
   0   2   6  184.26    6.14
  -1  -2  -6  130.39    3.85
   1   2   6  129.92    3.53
   1   2   6  130.74    3.58
   1   2   6  128.30    4.38
   2   2   6  237.21    7.73
   2   2   6  226.74    6.22
   2   2   6  230.81    6.33
   3   2   6   79.75    2.79
   3   2   6   81.43    2.28
   3   2   6   78.13    2.26
   4   2   6  127.43    4.34
   4   2   6  127.19    4.62
   4   2   6  125.57    3.51
   4   2   6  124.22    3.55
   5   2   6  111.96    3.85
   5   2   6  112.11    4.08
   5   2   6  110.47    3.11
   5   2   6  103.65    3.13
  -7   3   6   45.98    1.95
  -6   3   6   39.08    1.65
  -5   3   6   47.19    1.82
  -5   3   6   42.58    1.57
  -4   3   6   37.48    1.50
  -4   3   6   36.74    1.32
  -3   3   6  193.87    7.15
  -3   3   6  198.52    6.52
  -2   3   6   22.76    0.87
  -2   3   6   23.13    0.92
   1  -3  -6  295.59    8.53
  -1   3   6  281.98   10.40
  -1   3   6  275.23   10.35
  -1   3   6  295.12    9.49
   0  -3  -6   55.82    1.71
   0   3   6   54.66    1.97
   0   3   6   55.53    1.60
   0   3   6   57.86    1.62
  -1  -3  -6   78.28    2.32
   1   3   6   77.22    2.17
   1   3   6   73.79    2.65
   1   3   6   75.23    2.14
   2   3   6   79.68    2.28
   2   3   6   79.04    2.79
   2   3   6   80.06    2.25
   3   3   6   26.87    0.89
   3   3   6   27.60    1.10
   3   3   6   25.85    0.88
   4   3   6   44.16    1.69
   4   3   6   42.91    1.37
   4   3   6   44.44    1.68
   4   3   6   44.10    1.37
  -7   4   6   32.36    1.45
  -6   4   6   60.98    2.33
  -6   4   6   54.43    2.02
  -5   4   6   44.85    1.65
  -5   4   6   47.60    1.87
  -4   4   6  100.50    3.66
  -4   4   6   94.36    3.32
  -3   4   6   77.57    2.90
  -3   4   6   76.78    2.66
  -2   4   6  217.04    7.93
  -2   4   6  220.16    7.28
   1  -4  -6   48.72    1.48
  -1   4   6   47.20    1.71
  -1   4   6   46.49    1.78
  -1   4   6   48.05    1.39
   0  -4  -6  199.01    5.83
   0   4   6  195.60    5.31
   0   4   6  192.05    6.59
   0   4   6  200.24    5.43
  -1  -4  -6   29.94    0.98
   1   4   6   29.19    0.93
   1   4   6   29.55    1.15
   1   4   6   28.00    0.93
  -2  -4  -6   35.23    1.17
   2   4   6   33.85    1.10
   2   4   6   34.49    1.34
   2   4   6   34.83    1.10
  -3  -4  -6   30.02    1.06
   3   4   6   29.65    1.00
   3   4   6   30.26    1.22
   3   4   6   29.43    1.00
  -6   5   6   12.30    0.59
  -6   5   6   13.24    0.71
  -5   5   6   40.26    1.62
  -5   5   6   37.70    1.44
  -4   5   6   25.83    1.11
  -4   5   6   25.77    1.02
  -3   5   6   88.92    3.32
  -3   5   6   88.58    3.07
  -2   5   6   82.76    3.04
  -2   5   6   80.68    2.84
   1  -5  -6  157.41    4.60
  -1   5   6  149.51    5.21
  -1   5   6  149.60    5.60
  -1   5   6  159.48    4.21
   0  -5  -6   63.77    1.94
   0   5   6   63.45    1.80
   0   5   6   59.17    2.28
   0   5   6   60.60    2.22
   0   5   6   61.95    1.84
  -1  -5  -6  151.29    4.61
   1   5   6  155.56    4.20
   1   5   6  153.86    5.21
   1   5   6  150.54    4.29
  -2  -5  -6   24.72    0.90
   2   5   6   23.93    0.84
   2   5   6   24.00    0.86
   2   5   6   23.71    1.03
  -3  -5  -6   54.18    1.79
   3   5   6   52.95    1.68
   3   5   6   53.42    2.03
   3   5   6   54.06    1.65
  -6   6   6    6.13    0.47
  -6   6   6    6.11    0.39
  -5   6   6   23.39    1.04
  -5   6   6   21.69    0.93
  -4   6   6   37.36    1.44
  -4   6   6   38.34    1.55
  -3   6   6   12.49    0.60
  -3   6   6   12.33    0.61
   2  -6  -6   98.50    2.96
  -2   6   6   94.61    3.59
  -2   6   6   96.09    3.36
   1  -6  -6   38.11    1.22
  -1   6   6   35.37    1.40
  -1   6   6   35.01    1.39
   0  -6  -6   68.64    2.16
   0   6   6   65.46    2.53
   0   6   6   70.85    1.99
   0   6   6   67.28    2.46
   0   6   6   68.31    2.04
  -1  -6  -6   46.01    1.51
   1   6   6   42.98    1.69
   1   6   6   43.94    1.72
   1   6   6   44.78    1.43
   1   6   6   46.21    1.39
  -2  -6  -6   47.19    1.60
   2   6   6   46.10    1.81
   2   6   6   48.07    1.52
   2   6   6   47.05    1.47
  -5   7   6   37.11    1.48
  -5   7   6   38.47    1.60
  -4   7   6   33.85    1.43
  -4   7   6   34.01    1.35
  -3   7   6   38.71    1.50
  -3   7   6   38.05    1.56
   2  -7  -6   27.51    0.98
  -2   7   6   26.70    1.13
  -2   7   6   27.28    1.13
   1  -7  -6   43.30    1.43
  -1   7   6   42.72    1.64
  -1   7   6   41.34    1.65
   0  -7  -6   22.14    0.83
   0   7   6   20.41    0.88
   0   7   6   21.78    0.78
   0   7   6   20.63    0.96
   0   7   6   21.53    0.83
  -3   8   6   43.56    1.71
  -3   8   6   43.14    1.76
   0   8  -7   58.97    2.40
   0  -8   7   54.67    1.89
   0  -8   7   61.88    2.42
  -1   8  -7   48.63    2.09
   1  -8   7   49.99    2.03
   1  -8   7   45.63    1.59
   2  -8   7   63.62    2.58
   3  -8   7   60.39    2.46
   4  -8   7   16.85    0.91
   5  -8   7   74.38    2.97
   2   7  -7   38.74    1.70
   1   7  -7   41.75    1.74
  -1  -7   7   40.86    1.73
  -1  -7   7   38.54    1.35
   0   7  -7   77.15    3.05
   0  -7   7   73.90    2.42
   0  -7   7   81.93    3.06
  -1   7  -7   47.43    1.90
   1  -7   7   46.65    1.91
   1  -7   7   43.89    1.50
   2  -7   7   66.64    2.65
   3  -7   7   46.01    1.91
   4  -7   7   34.00    1.49
   5  -7   7   15.72    0.85
   3   6  -7   56.83    1.70
   3   6  -7   56.89    2.35
   2   6  -7   26.26    1.20
   2   6  -7   25.41    0.83
  -2  -6   7   27.51    1.22
  -2  -6   7   24.91    0.92
   1   6  -7   83.51    3.24
  -1  -6   7   80.01    2.57
  -1  -6   7   87.05    3.25
   0   6  -7  113.23    4.29
   0  -6   7  117.82    4.30
   0  -6   7  109.17    3.43
  -1   6  -7  146.21    5.77
   1  -6   7  164.45    5.81
   2  -6   7  147.75    5.52
   3  -6   7  134.89    5.06
   4  -6   7   73.29    2.86
   5  -6   7   53.26    2.16
   6  -6   7   19.15    0.96
   4   5  -7   72.60    2.92
   3   5  -7    0.18    0.16
  -3  -5   7    0.50    0.22
  -3  -5   7    0.63    0.13
   2   5  -7  106.23    3.02
   2   5  -7  109.67    4.12
  -2  -5   7  102.87    3.27
  -2  -5   7  113.54    4.13
   1   5  -7   79.84    3.04
   1   5  -7   75.62    2.19
  -1  -5   7   77.11    2.41
  -1  -5   7   82.76    3.05
   0   5  -7  122.63    4.54
   0  -5   7  116.97    3.62
   0  -5   7  123.97    4.54
  -1   5  -7  278.61   10.49
   1  -5   7  297.30   10.52
   2  -5   7  204.07    7.51
   3  -5   7  126.33    4.72
   4  -5   7  172.51    6.39
   5  -5   7   30.97    1.33
   6  -5   7   42.22    1.76
   4   4  -7   62.09    2.54
  -4  -4   7   63.69    2.55
   3   4  -7  104.44    3.93
  -3  -4   7  108.67    3.95
  -3  -4   7   95.28    3.11
   2   4  -7   64.78    2.51
  -2  -4   7   67.43    2.53
  -2  -4   7   60.42    1.97
   1   4  -7  194.84    7.23
  -1  -4   7  203.48    7.25
  -1  -4   7  192.02    5.81
   0   4  -7   49.94    1.96
   0  -4   7   49.61    1.54
   0  -4   7   51.36    1.98
  -1   4  -7  218.86    8.30
   1  -4   7  236.66    8.33
   2  -4   7   77.28    2.93
   3  -4   7   69.68    2.00
   3  -4   7   77.25    2.80
   4  -4   7   54.30    2.13
   4  -4   7   54.66    1.53
   5  -4   7   19.52    0.90
   6  -4   7   27.72    1.22
   5   3  -7  167.42    6.40
  -5  -3   7  172.40    6.40
   4   3  -7  134.45    5.12
  -4  -3   7  136.59    5.13
   3   3  -7  161.21    6.07
  -3  -3   7  165.57    6.08
   2   3  -7  199.12    7.23
  -2  -3   7  201.14    7.24
  -2  -3   7  190.06    5.80
   1   3  -7   13.51    0.62
  -1  -3   7   13.39    0.64
  -1  -3   7   12.92    0.44
   0   3  -7  343.57   13.10
   0  -3   7  372.65   13.36
  -1   3  -7    5.09    0.30
   1  -3   7    6.15    0.35
   2  -3   7  165.49    6.04
   2  -3   7  164.15    4.40
   3  -3   7  102.89    2.79
   3  -3   7  103.14    3.83
   4  -3   7   16.08    0.53
   4  -3   7   15.74    0.73
   5  -3   7   78.90    2.23
   5  -3   7   81.24    3.05
   6  -3   7   32.03    1.01
   6  -3   7   32.44    1.36
   5   2  -7   76.46    3.14
  -5  -2   7   83.30    3.17
   4   2  -7   36.14    1.58
  -4  -2   7   39.84    1.62
   3   2  -7  180.49    6.79
  -3  -2   7  188.23    6.81
   2   2  -7    0.42    0.12
  -2  -2   7    0.49    0.06
  -2  -2   7    0.43    0.15
   1   2  -7  113.68    4.30
  -1  -2   7  119.91    4.33
   0   2  -7   50.88    1.96
   0  -2   7   53.19    1.99
  -1   2  -7  136.92    5.11
   1  -2   7  144.46    5.15
   2  -2   7  174.08    6.34
   2  -2   7  174.15    4.66
   3  -2   7  320.46    8.33
   3  -2   7  306.12   11.48
   4  -2   7  112.19    4.19
   4  -2   7  114.41    3.10
   5  -2   7  188.74    5.14
   5  -2   7  191.12    6.97
   6  -2   7   66.71    2.58
   6  -2   7   66.53    1.94
  -6  -1   7   54.63    2.29
  -6  -1   7   55.41    2.30
  -5  -1   7   39.26    1.67
  -5  -1   7   38.31    1.66
   4   1  -7   75.49    3.03
  -4  -1   7   80.75    3.06
  -4  -1   7   80.81    3.06
   3   1  -7    5.21    0.34
  -3  -1   7    5.79    0.38
  -3  -1   7    5.26    0.38
   2   1  -7   48.20    1.98
  -2  -1   7   53.62    2.02
  -2  -1   7   54.27    2.02
   1   1  -7   30.01    1.19
  -1  -1   7   30.45    1.22
  -1  -1   7   31.68    1.08
   0   1  -7   77.59    3.05
   0  -1   7   88.26    3.10
   0  -1   7   84.87    2.82
   1  -1   7  123.19    4.78
   1  -1   7  132.73    4.84
   1  -1   7  132.62    4.40
   1  -1   7  136.74    3.55
   2  -1   7  322.14   12.76
   2  -1   7  359.14   11.70
   2  -1   7  371.74    9.45
   2  -1   7  354.98   12.86
   3  -1   7   95.38    2.55
   3  -1   7   89.77    3.39
   3  -1   7   91.50    3.18
   4  -1   7  362.78    9.61
   4  -1   7  358.49   13.03
   5  -1   7   57.87    2.22
   5  -1   7   57.70    1.69
   6  -1   7   59.62    2.28
   6  -1   7   57.10    1.74
  -6   0   7   23.39    1.13
  -5   0   7  107.84    4.11
   4   0  -7  207.20    7.83
  -4   0   7  217.47    7.81
   3   0  -7   52.44    2.03
  -3   0   7   52.87    2.05
   2   0  -7  244.16    9.13
  -2   0   7  255.04    9.19
  -2   0   7  253.41    8.27
   1   0  -7  208.45    7.89
  -1   0   7  229.57    8.10
  -1   0   7  231.65    7.26
  -1   0   7  233.34    8.09
  -1   0   7  190.67    7.91
   0   0   7   26.01    1.06
   0   0   7   28.08    1.07
   0   0   7   29.01    1.01
   1   0   7  439.82   16.90
   1   0   7  465.94   15.62
   1   0   7  481.57   12.73
   1   0   7  480.73   17.01
   2   0   7   25.74    0.99
   2   0   7   25.92    0.99
   2   0   7   25.94    0.76
   2   0   7   25.70    1.00
   2   0   7   26.91    0.81
   3   0   7  150.07    4.10
   3   0   7  151.53    5.10
   3   0   7  153.44    5.48
   3   0   7  148.07    4.13
   4   0   7   68.16    1.98
   4   0   7   70.60    2.58
   4   0   7   71.02    2.48
   4   0   7   66.67    1.96
   5   0   7   21.02    0.75
   5   0   7   20.53    0.89
  -6   1   7   76.85    3.03
  -5   1   7  139.76    5.25
  -4   1   7  175.93    6.49
  -3   1   7  281.79    9.73
  -3   1   7  252.93    8.79
  -2   1   7  249.31    9.02
  -2   1   7  247.65    8.20
  -1   1   7  124.95    4.45
  -1   1   7  129.43    4.09
  -1   1   7  111.40    4.43
   0   1   7  219.58    7.89
   0   1   7  203.43    7.84
   0   1   7  221.66    7.22
   0   1   7  225.95    5.83
  -1  -1  -7   42.40    1.29
   1   1   7   42.77    1.23
   1   1   7   42.93    1.25
   1   1   7   42.92    1.54
   2   1   7  122.81    3.39
   2   1   7  121.14    4.18
   2   1   7  124.99    3.37
   3   1   7   53.86    1.59
   3   1   7   55.86    2.00
   3   1   7   55.33    1.61
   4   1   7   53.17    1.62
   4   1   7   56.05    2.06
   4   1   7   52.91    1.60
   4   1   7   57.29    2.03
   5   1   7   35.88    1.13
   5   1   7   34.02    1.36
   5   1   7   34.27    1.38
   5   1   7   32.75    1.08
  -6   2   7   67.17    2.68
  -5   2   7  119.47    4.51
  -4   2   7   34.60    1.31
  -4   2   7   39.85    1.52
  -3   2   7  220.62    8.08
  -3   2   7  222.54    7.33
  -2   2   7   21.86    0.83
  -2   2   7   22.06    0.89
  -1   2   7   33.42    1.23
  -1   2   7   29.36    1.21
  -1   2   7   33.61    1.18
   0  -2  -7   83.99    2.50
   0   2   7   85.55    2.35
   0   2   7   83.09    2.89
  -1  -2  -7    4.42    0.20
   1   2   7    4.42    0.23
   1   2   7    4.41    0.30
   1   2   7    4.21    0.26
   2   2   7   72.60    2.01
   2   2   7   69.06    2.00
   2   2   7   68.86    2.48
   3   2   7  124.76    3.53
   3   2   7  125.21    3.50
   3   2   7  128.72    4.34
   4   2   7   28.68    0.95
   4   2   7   29.74    1.21
   4   2   7   29.15    0.98
  -6   3   7  116.03    4.42
  -5   3   7   36.10    1.51
  -4   3   7  113.38    3.98
  -4   3   7  123.73    4.43
  -3   3   7   49.72    1.74
  -3   3   7   48.78    1.90
  -2   3   7   47.96    1.83
  -2   3   7   48.53    1.71
  -1   3   7   32.10    1.25
  -1   3   7   34.09    1.23
   0  -3  -7   20.77    0.69
   0   3   7   21.41    0.71
   0   3   7   22.17    0.70
   0   3   7   20.26    0.85
  -1  -3  -7   35.18    1.12
   1   3   7   33.65    1.32
   1   3   7   35.45    1.08
   1   3   7   35.09    1.07
  -2  -3  -7   54.64    1.69
   2   3   7   56.16    1.98
   2   3   7   52.77    1.59
   2   3   7   50.59    1.58
   3   3   7   49.84    1.84
   3   3   7   47.34    1.49
   3   3   7   49.68    1.49
   4   3   7  105.19    3.04
   4   3   7  107.82    3.73
   4   3   7  104.39    3.01
  -6   4   7   10.64    0.63
  -5   4   7  114.87    4.14
  -5   4   7  103.94    3.71
  -4   4   7   65.68    2.54
  -4   4   7   66.60    2.31
  -3   4   7   90.03    3.37
  -3   4   7   90.77    3.11
  -2   4   7  111.34    4.05
  -2   4   7  109.12    3.76
   1  -4  -7  116.35    3.36
  -1   4   7  109.67    3.83
  -1   4   7  110.75    4.09
   0  -4  -7   44.04    1.37
   0   4   7   44.43    1.31
   0   4   7   43.08    1.32
   0   4   7   41.62    1.60
  -1  -4  -7  120.74    3.56
   1   4   7  118.65    3.28
   1   4   7  114.64    4.06
   1   4   7  117.60    3.33
  -2  -4  -7   45.71    1.48
   2   4   7   45.74    1.72
   2   4   7   43.94    1.39
  -3  -4  -7   48.12    1.56
   3   4   7   45.95    1.79
   3   4   7   45.30    1.45
   3   4   7   47.02    1.46
  -6   5   7   24.56    1.09
  -6   5   7   21.07    0.91
  -5   5   7   13.11    0.61
  -5   5   7   13.69    0.71
  -4   5   7   94.33    3.28
  -4   5   7   95.25    3.58
  -3   5   7   26.18    1.10
  -3   5   7   27.20    1.06
  -2   5   7  124.98    4.51
  -2   5   7  120.66    4.20
   1  -5  -7   62.50    1.89
  -1   5   7   59.72    2.19
  -1   5   7   60.17    2.26
   0  -5  -7   74.48    2.29
   0   5   7   71.12    2.63
   0   5   7   76.64    2.14
   0   5   7   72.70    2.17
  -1  -5  -7   61.93    1.94
   1   5   7   60.27    2.24
   1   5   7   61.20    1.81
   1   5   7   60.66    1.84
  -2  -5  -7   47.23    1.53
   2   5   7   45.99    1.43
   2   5   7   45.09    1.44
   2   5   7   44.04    1.75
  -5   6   7   22.12    0.94
  -5   6   7   22.45    1.03
  -4   6   7   15.84    0.77
  -4   6   7   15.93    0.73
  -3   6   7   75.56    2.88
  -3   6   7   76.72    2.71
  -2   6   7   10.96    0.53
  -2   6   7   10.82    0.58
   1  -6  -7   67.54    2.05
  -1   6   7   62.95    2.42
  -1   6   7   64.89    2.37
   0  -6  -7   20.07    0.74
   0   6   7   19.95    0.73
   0   6   7   19.03    0.75
   0   6   7   18.79    0.89
  -1  -6  -7   16.11    0.66
   1   6   7   15.11    0.79
   1   6   7   16.52    0.68
   1   6   7   16.41    0.66
  -4   7   7   36.02    1.52
  -4   7   7   37.36    1.46
  -3   7   7   37.44    1.47
  -3   7   7   36.58    1.50
  -2   7   7   65.60    2.51
  -2   7   7   66.82    2.44
   1  -7  -7   15.30    0.64
  -1   7   7   15.21    0.76
  -1   7   7   14.00    0.65
   1  -8   8    5.63    0.54
   2  -8   8   49.40    2.09
   3  -8   8   14.72    0.84
   4  -8   8   35.32    1.59
  -1  -7   8  108.84    4.20
   0  -7   8   54.08    2.23
   1  -7   8  113.75    4.35
   2  -7   8   23.89    1.14
   3  -7   8   55.95    2.29
   4  -7   8   27.57    1.28
   5  -7   8   46.71    1.97
  -2  -6   8   88.10    3.46
  -1  -6   8  150.92    5.67
   0  -6   8  102.19    3.91
   1  -6   8  111.57    4.25
   2  -6   8  137.87    5.18
   3  -6   8   19.70    0.96
   4  -6   8  115.87    4.41
   5  -6   8   20.49    1.01
  -3  -5   8   46.73    1.98
  -2  -5   8   31.52    1.41
  -1  -5   8   91.12    3.50
   0  -5   8   79.23    3.06
   1  -5   8   77.25    2.98
   2  -5   8   85.39    3.27
   3  -5   8   73.21    2.84
   4  -5   8   29.72    1.29
   5  -5   8  102.62    3.91
  -4  -4   8   53.59    2.23
  -3  -4   8   20.07    0.99
  -2  -4   8   92.47    3.55
  -1  -4   8   66.33    2.59
   0  -4   8  146.52    5.44
   1  -4   8  125.39    4.68
   2  -4   8   81.24    3.09
   3  -4   8   78.17    2.98
   4  -4   8   48.14    1.92
   5  -4   8   17.01    0.82
   6  -4   8   68.03    2.67
  -5  -3   8  107.06    4.16
  -4  -3   8    7.33    0.53
  -3  -3   8  140.96    5.29
  -2  -3   8  160.20    5.95
  -1  -3   8  186.80    6.87
   0  -3   8  330.72   12.01
   1  -3   8  289.82   10.53
   2  -3   8  110.26    4.10
   3  -3   8  154.79    4.25
   3  -3   8  161.34    5.82
   4  -3   8   33.51    1.01
   4  -3   8   33.51    1.37
   5  -3   8   18.37    0.64
   5  -3   8   19.34    0.87
   6  -3   8   27.78    0.91
   6  -3   8   28.51    1.22
  -5  -2   8   39.25    1.71
  -4  -2   8  104.71    4.02
  -3  -2   8   56.45    2.25
  -2  -2   8  222.67    8.16
  -1  -2   8  101.82    3.80
   0  -2   8  283.11   10.35
   1  -2   8  129.07    4.75
   2  -2   8  157.19    4.20
   2  -2   8  154.11    5.69
   3  -2   8   76.85    2.88
   3  -2   8   76.91    2.14
   4  -2   8   44.02    1.67
   4  -2   8   41.34    1.26
   5  -2   8   50.50    1.50
   5  -2   8   50.98    1.98
  -5  -1   8   68.61    2.76
  -5  -1   8   68.92    2.76
  -4  -1   8   95.21    3.66
  -4  -1   8   95.11    3.66
  -3  -1   8  143.11    5.36
  -3  -1   8  144.77    5.36
  -2  -1   8    1.43    0.23
  -1  -1   8  234.41    7.87
  -1  -1   8  243.04    8.77
   0  -1   8    1.26    0.15
   0  -1   8    1.03    0.17
   1  -1   8   78.80    2.93
   1  -1   8   80.90    2.20
   1  -1   8   77.51    2.72
   2  -1   8  111.07    3.06
   2  -1   8  112.36    4.09
   2  -1   8  111.68    3.81
   3  -1   8   15.95    0.57
   3  -1   8   16.31    0.68
   3  -1   8   16.19    0.73
   4  -1   8   74.17    2.11
   4  -1   8   73.84    2.77
   5  -1   8   66.65    2.54
   5  -1   8   67.01    1.95
  -6   0   8  102.20    3.98
  -6   0   8  102.02    3.97
  -5   0   8   53.18    2.17
  -4   0   8  141.09    5.28
  -3   0   8   11.65    0.60
  -2   0   8   79.88    2.77
  -2   0   8   83.18    3.10
  -2   0   8   83.87    3.10
  -1   0   8   33.57    1.29
  -1   0   8   31.76    1.17
   0   0   8  127.86    4.57
   0   0   8  122.32    4.21
   1   0   8   82.76    2.26
   1   0   8   78.18    2.98
   1   0   8   82.70    2.97
   1   0   8   80.63    2.79
   2   0   8  192.02    6.98
   2   0   8  195.50    5.21
   2   0   8  191.94    6.48
   3   0   8   72.41    2.58
   3   0   8   72.84    2.67
   3   0   8   72.63    2.07
   4   0   8  114.40    4.24
   4   0   8  116.41    4.03
   4   0   8  116.50    3.23
   5   0   8   43.68    1.35
   5   0   8   41.98    1.66
  -6   1   8   17.72    0.92
  -5   1   8   71.54    2.81
  -4   1   8   12.39    0.65
  -3   1   8   43.86    1.73
  -2   1   8   92.01    3.42
  -2   1   8   91.89    3.11
  -1   1   8   88.36    3.04
  -1   1   8   90.72    3.30
   0   1   8  162.34    5.59
   0   1   8  141.56    5.57
   0   1   8  158.54    5.17
   1   1   8  409.77   13.49
   1   1   8  396.84   10.73
   2   1   8   71.02    2.53
   2   1   8   70.88    2.02
   2   1   8   73.00    2.04
   3   1   8  346.03    8.94
   3   1   8  323.98    9.09
   3   1   8  329.68   11.10
   4   1   8   60.86    1.81
   4   1   8   60.62    2.25
  -6   2   8   31.67    1.42
  -5   2   8   88.96    3.42
  -4   2   8   18.36    0.85
  -3   2   8   73.53    2.55
  -3   2   8   75.70    2.83
  -2   2   8  118.03    4.29
  -2   2   8  114.98    3.93
  -1   2   8   22.56    0.89
  -1   2   8   22.79    0.88
   0   2   8  236.00    6.42
   0   2   8  241.37    7.95
  -1  -2  -8   51.77    1.56
   1   2   8   49.75    1.50
   1   2   8   51.15    1.85
   1   2   8   50.74    1.48
  -2  -2  -8  132.01    3.90
   2   2   8  129.79    4.47
   2   2   8  130.70    3.60
   2   2   8  128.75    3.62
   3   2   8   66.28    1.96
   3   2   8   70.24    2.47
   3   2   8   67.10    1.99
   4   2   8   43.58    1.71
   4   2   8   43.89    1.38
  -6   3   8   89.91    3.50
  -5   3   8   77.38    3.00
  -4   3   8  126.84    4.38
  -4   3   8  133.86    4.86
  -3   3   8  103.49    3.55
  -3   3   8  105.57    3.89
  -2   3   8   37.33    1.44
  -2   3   8   36.92    1.36
  -1   3   8  105.54    3.59
  -1   3   8  104.24    3.83
   0   3   8   12.83    0.60
   0   3   8   12.29    0.50
   1   3   8   35.19    1.11
   1   3   8   35.87    1.38
   1   3   8   36.63    1.13
   2   3   8   34.52    1.12
   2   3   8   34.43    1.09
   2   3   8   35.57    1.39
   3   3   8   18.71    0.86
   3   3   8   18.11    0.67
   3   3   8   17.58    0.70
  -6   4   8   92.04    3.57
  -5   4   8   28.70    1.13
  -5   4   8   31.49    1.31
  -4   4   8  131.54    4.59
  -4   4   8  140.22    5.06
  -3   4   8   44.79    1.76
  -3   4   8   45.39    1.64
  -2   4   8   27.62    1.09
  -2   4   8   27.02    1.07
  -1   4   8   71.53    2.53
   0   4   8   13.25    0.54
   0   4   8   12.81    0.63
   1   4   8   36.55    1.16
   1   4   8   36.19    1.43
   1   4   8   37.07    1.17
   2   4   8   80.97    2.40
   2   4   8   82.60    2.39
   2   4   8   84.06    2.97
  -5   5   8   49.72    1.81
  -5   5   8   49.34    2.00
  -4   5   8   13.14    0.66
  -4   5   8   12.60    0.61
  -3   5   8   27.68    1.15
  -3   5   8   28.24    1.12
  -2   5   8   24.27    0.98
  -2   5   8   23.75    0.99
  -1   5   8   11.66    0.60
   0   5   8   39.77    1.60
   0   5   8   43.45    1.32
   1   5   8   51.46    1.54
   1   5   8   48.12    1.53
   1   5   8   47.85    1.87
  -4   6   8   25.01    1.09
  -4   6   8   25.03    1.04
  -3   6   8   23.35    0.99
  -3   6   8   22.39    0.98
  -2   6   8   37.92    1.49
  -2   6   8   38.30    1.49
  -1   6   8    7.03    0.48
   0   6   8   39.08    1.26
   0   6   8   38.41    1.55
   0  -7   9   84.02    3.32
   1  -7   9    4.07    0.46
   2  -7   9   99.42    3.86
   3  -7   9    5.49    0.52
   4  -7   9   40.59    1.77
  -2  -6   9   47.03    2.01
  -1  -6   9  121.16    4.63
   0  -6   9   27.51    1.27
   1  -6   9   99.21    3.83
   2  -6   9   33.31    1.46
   3  -6   9   96.95    3.74
   4  -6   9   65.35    2.62
  -3  -5   9   71.85    2.90
  -2  -5   9  113.51    4.36
  -1  -5   9   41.65    1.76
   0  -5   9  101.72    3.88
   1  -5   9   35.63    1.52
   2  -5   9   57.63    2.30
   3  -5   9   41.72    1.73
   4  -5   9   99.00    3.79
   5  -5   9   31.53    1.38
  -3  -4   9   87.90    3.44
  -2  -4   9  175.65    6.56
  -1  -4   9  109.21    4.15
   0  -4   9   67.86    2.65
   1  -4   9  125.06    4.69
   2  -4   9    7.56    0.48
   3  -4   9   70.68    2.73
   4  -4   9   18.40    0.87
   5  -4   9   46.24    1.88
  -4  -3   9   77.87    3.09
  -3  -3   9   55.61    2.25
  -2  -3   9  120.43    4.55
  -1  -3   9  156.83    5.83
   0  -3   9  107.41    4.03
   1  -3   9  102.69    3.85
   2  -3   9  115.55    4.31
   3  -3   9   27.31    0.86
   3  -3   9   28.60    1.18
   4  -3   9   92.54    2.71
   4  -3   9  104.32    3.71
   5  -3   9   30.63    1.25
   5  -3   9   27.79    0.92
  -5  -2   9   28.27    1.33
  -4  -2   9    3.21    0.39
  -3  -2   9   88.42    3.41
  -2  -2   9   44.87    1.81
  -1  -2   9  121.11    4.52
   0  -2   9  170.07    6.25
   1  -2   9   76.26    2.88
   2  -2   9  122.57    3.33
   2  -2   9  121.20    4.50
   3  -2   9   93.09    2.65
   3  -2   9   97.97    3.56
   4  -2   9   26.48    1.09
   4  -2   9   25.96    0.85
   5  -2   9  107.55    3.09
   5  -2   9  114.24    4.14
  -5  -1   9   11.37    0.72
  -4  -1   9   82.67    3.24
  -3  -1   9  110.97    4.20
  -2  -1   9  127.66    4.76
  -1  -1   9  134.49    4.56
  -1  -1   9  138.95    5.05
   0  -1   9  209.30    7.12
   0  -1   9  219.39    7.81
   1  -1   9   57.25    2.10
   1  -1   9   61.91    2.25
   2  -1   9   79.77    2.78
   2  -1   9   79.18    2.93
   2  -1   9   78.42    2.22
   3  -1   9   33.95    1.32
   3  -1   9   33.57    1.05
   3  -1   9   34.05    1.33
   4  -1   9   12.59    0.51
   4  -1   9   11.71    0.56
   5  -1   9   26.13    1.09
   5  -1   9   26.70    0.91
  -5   0   9  107.14    4.11
  -5   0   9  106.32    4.11
  -4   0   9   80.85    3.13
  -4   0   9   80.39    3.13
  -3   0   9  197.21    7.30
  -3   0   9  198.99    7.30
  -2   0   9  124.96    4.67
  -2   0   9  126.11    4.67
  -1   0   9  247.40    8.38
  -1   0   9  259.32    9.21
   0   0   9   88.21    3.16
   0   0   9   82.36    2.92
   1   0   9  136.91    4.73
   1   0   9  137.06    3.82
   1   0   9  144.93    5.08
   2   0   9   42.45    1.58
   2   0   9   42.17    1.28
   3   0   9   15.61    0.74
   3   0   9   15.41    0.59
   4   0   9   40.35    1.26
   4   0   9   39.78    1.58
  -5   1   9   39.90    1.69
  -4   1   9  111.95    4.23
  -3   1   9    0.22    0.15
  -2   1   9  177.19    6.35
  -2   1   9  169.37    5.77
  -1   1   9   22.85    0.90
  -1   1   9   23.40    0.94
   0   1   9   67.73    2.43
   0   1   9   71.38    2.57
   1   1   9  128.60    4.37
   1   1   9  127.54    3.53
   2   1   9   41.53    1.60
   2   1   9   43.39    1.30
   3   1   9   62.30    1.85
   3   1   9   62.84    2.30
   4   1   9   87.81    3.15
   4   1   9   86.86    2.52
  -5   2   9   46.36    1.91
  -4   2   9    2.45    0.30
  -3   2   9   28.42    1.09
  -3   2   9   30.68    1.23
  -2   2   9    5.82    0.34
  -2   2   9    5.26    0.32
  -1   2   9   54.26    1.98
  -1   2   9   56.27    2.08
  -1   2   9   56.14    2.08
   0   2   9   43.25    1.60
   1   2   9  105.45    2.94
   1   2   9  104.05    3.63
   2   2   9   58.97    2.16
   2   2   9   58.62    1.75
   3   2   9   96.90    2.76
   3   2   9   96.48    3.43
  -5   3   9   21.33    1.00
  -4   3   9   19.39    0.87
  -4   3   9   17.24    0.74
  -3   3   9   77.91    2.86
  -3   3   9   72.77    2.61
  -2   3   9   46.43    1.69
  -2   3   9   46.54    1.79
  -1   3   9   60.81    2.18
   0   3   9  222.98    7.49
   1   3   9   23.17    0.84
   1   3   9   24.94    1.03
   2   3   9  155.13    4.44
   2   3   9  163.76    5.48
  -5   4   9   18.38    0.89
  -4   4   9   47.71    1.84
  -4   4   9   43.55    1.65
  -3   4   9   73.41    2.63
  -3   4   9   76.40    2.84
  -2   4   9   41.83    1.60
  -2   4   9   41.20    1.55
  -1   4   9  139.99    4.79
   0   4   9   58.92    2.15
   0   4   9   57.65    1.75
   1   4   9  107.75    3.02
   1   4   9  103.70    3.71
  -4   5   9   42.82    1.60
  -4   5   9   42.68    1.72
  -3   5   9    8.18    0.47
  -3   5   9    7.79    0.45
  -2   5   9   46.43    1.80
  -2   5   9   48.31    1.79
  -1   5   9   12.85    0.66
   0   5   9   15.87    0.79
   1  -7  10   56.01    2.33
   2  -7  10  122.12    4.69
  -1  -6  10   40.41    1.76
   0  -6  10   58.84    2.42
   1  -6  10   46.66    1.97
   2  -6  10   80.63    3.18
   3  -6  10   33.20    1.48
  -2  -5  10   41.98    1.82
  -1  -5  10   86.68    3.40
   0  -5  10    1.12    0.26
   1  -5  10   91.00    3.52
   2  -5  10    8.44    0.57
   3  -5  10   34.13    1.48
   4  -5  10   84.15    3.27
  -3  -4  10   82.57    3.28
  -2  -4  10  130.63    4.96
  -1  -4  10   34.64    1.50
   0  -4  10  104.00    3.96
   1  -4  10   17.86    0.87
   2  -4  10   99.44    3.78
   3  -4  10   51.72    2.07
   4  -4  10   80.63    3.11
  -3  -3  10  132.96    5.05
  -2  -3  10   72.80    2.86
  -1  -3  10  111.69    4.23
   0  -3  10   82.05    3.15
   1  -3  10   91.99    3.49
   2  -3  10   53.41    2.10
   3  -3  10  168.03    6.20
   4  -3  10   32.14    1.06
   4  -3  10   36.70    1.43
  -4  -2  10   48.73    2.05
  -3  -2  10   92.13    3.56
  -2  -2  10   77.79    3.01
  -1  -2  10   33.01    1.38
   0  -2  10   83.07    3.15
   1  -2  10   15.23    0.71
   2  -2  10   63.87    2.44
   3  -2  10   31.84    1.26
   3  -2  10   30.45    0.98
   4  -2  10   75.44    2.20
   4  -2  10   78.54    2.90
  -4  -1  10   60.22    2.44
  -3  -1  10   77.69    3.02
  -2  -1  10  104.81    3.96
  -1  -1  10   71.32    2.73
   0  -1  10   41.76    1.56
   0  -1  10   44.37    1.70
   1  -1  10   70.64    2.61
   1  -1  10   68.01    2.45
   2  -1  10   15.33    0.72
   2  -1  10   15.44    0.66
   2  -1  10   14.78    0.57
   3  -1  10   51.90    1.56
   3  -1  10   53.13    1.99
   3  -1  10   52.61    1.97
   4  -1  10   24.04    0.99
   4  -1  10   25.39    0.85
  -5   0  10    5.24    0.49
  -5   0  10    5.42    0.50
  -4   0  10  105.52    4.06
  -4   0  10  106.36    4.06
  -3   0  10   73.41    2.86
  -2   0  10  111.40    4.17
  -1   0  10  197.46    7.08
  -1   0  10  189.80    6.46
   0   0  10   84.85    3.10
   0   0  10   81.73    2.88
   1   0  10   97.27    3.45
   1   0  10   90.12    3.25
   2   0  10  107.04    2.95
   2   0  10  103.15    3.66
   3   0  10   19.21    0.72
   3   0  10   19.57    0.90
  -5   1  10   31.57    1.41
  -4   1  10   48.36    1.97
  -3   1  10   98.60    3.77
  -3   1  10  100.74    3.77
  -2   1  10   80.67    2.92
  -2   1  10   72.65    2.64
  -1   1  10  150.10    5.13
  -1   1  10  154.66    5.58
   0   1  10   68.82    2.50
   0   1  10   72.70    2.62
   1   1  10   62.38    2.23
   1   1  10   60.62    1.81
   2   1  10   50.25    1.90
   2   1  10   51.14    1.54
   3   1  10   25.43    0.90
   3   1  10   26.26    1.12
  -5   2  10   50.54    2.07
  -4   2  10   77.01    2.98
  -3   2  10   44.30    1.77
  -2   2  10  125.92    4.49
  -2   2  10  136.03    4.90
  -2   2  10  136.42    4.90
  -1   2  10   17.71    0.77
  -1   2  10   18.24    0.75
   0   2  10   62.27    2.25
   1   2  10   22.41    0.97
   1   2  10   22.35    0.80
  -4   3  10    5.60    0.42
  -3   3  10   96.15    3.49
  -3   3  10   89.21    3.19
  -2   3  10   33.79    1.30
  -2   3  10   31.52    1.25
  -1   3  10   37.96    1.45
   0   3  10   63.07    2.30
   1   3  10   33.78    1.37
  -4   4  10   20.79    0.87
  -4   4  10   21.57    0.97
  -3   4  10    8.53    0.48
  -3   4  10    8.63    0.49
  -2   4  10   36.68    1.40
  -2   4  10   35.08    1.39
  -1   4  10   51.60    1.93
   0   4  10   75.32    2.72
   1  -6  11   55.50    2.30
  -1  -5  11   71.88    2.88
   0  -5  11   57.36    2.34
   1  -5  11   94.14    3.66
   2  -5  11   91.61    3.55
   3  -5  11   38.10    1.64
  -2  -4  11   74.97    3.00
  -1  -4  11   71.88    2.85
   0  -4  11   56.55    2.28
   1  -4  11  113.54    4.32
   2  -4  11   24.18    1.11
   3  -4  11   83.73    3.23
  -3  -3  11   26.97    1.28
  -2  -3  11  104.14    4.01
  -1  -3  11    1.03    0.25
   0  -3  11   95.70    3.65
   1  -3  11   28.93    1.25
   2  -3  11   58.76    2.31
   3  -3  11  106.68    4.01
  -3  -2  11   68.56    2.74
  -2  -2  11   11.41    0.67
  -1  -2  11   74.84    2.90
   0  -2  11    4.84    0.39
   1  -2  11   70.37    2.70
   2  -2  11   52.91    2.06
   3  -2  11   61.93    1.87
   3  -2  11   66.64    2.45
  -4  -1  11  112.55    4.33
  -3  -1  11   86.81    3.37
  -2  -1  11   68.84    2.68
  -1  -1  11   65.24    2.53
   0  -1  11   76.04    2.77
   0  -1  11   68.76    2.53
   1  -1  11   19.69    0.83
   1  -1  11   18.69    0.84
   2  -1  11  122.23    4.51
   2  -1  11  123.64    4.26
   3  -1  11   20.73    0.75
  -4   0  11   62.41    2.51
  -3   0  11   79.47    3.08
  -2   0  11   48.20    1.92
  -1   0  11   68.85    2.53
  -1   0  11   63.07    2.31
   0   0  11   39.83    1.53
   0   0  11   42.90    1.61
   1   0  11   66.53    2.40
   2   0  11   36.31    1.41
   2   0  11   34.13    1.13
  -4   1  11   30.83    1.37
  -4   1  11   31.13    1.37
  -3   1  11   40.96    1.69
  -2   1  11   41.74    1.67
  -1   1  11   24.21    0.97
  -1   1  11   22.00    0.93
   0   1  11   38.70    1.48
   1   1  11   26.68    1.11
   2   1  11   44.15    1.71
   2   1  11   43.61    1.38
  -4   2  11   53.51    2.15
  -3   2  11   46.89    1.88
  -3   2  11   46.76    1.88
  -2   2  11   92.11    3.31
  -2   2  11   99.67    3.59
  -1   2  11   46.23    1.74
  -1   2  11   45.44    1.71
   0   2  11   29.06    1.19
   1   2  11   54.90    2.06
  -3   3  11   65.30    2.40
  -3   3  11   58.49    2.20
  -2   3  11   95.65    3.40
  -2   3  11   99.99    3.64
  -1   3  11   62.08    2.26
   0   3  11   44.36    1.71
   0  -4  12   62.55    2.51
   1  -4  12  237.48    8.77
  -1  -3  12   61.26    2.46
   0  -3  12   93.26    3.58
   1  -3  12   96.68    3.69
   2  -3  12   68.62    2.67
  -2  -2  12   45.33    1.90
  -1  -2  12   20.88    0.99
   0  -2  12   94.93    3.60
   1  -2  12    8.38    0.50
   2  -2  12   50.48    1.97
  -2  -1  12    9.81    0.60
  -1  -1  12   84.79    3.24
   0  -1  12   27.88    1.14
   0  -1  12   30.59    1.23
   1  -1  12   55.64    2.13
   1  -1  12   55.74    2.05
  -2   0  12   68.63    2.66
  -1   0  12   13.49    0.66
   0   0  12   60.92    2.27
   0   0  12   58.31    2.16
   1   0  12   70.51    2.55
  -2   1  12   19.34    0.88
  -1   1  12   38.45    1.50
  -1   1  12   41.02    1.57
   0   1  12    6.91    0.46
   0   0   0    0.00    0.00
;
_shelx_hkl_checksum              94753
_olex2_submission_special_instructions 'No special instructions were received'
loop_
_space_group_symop_operation_xyz
'x, y, z'
'-x, -y, -z'
loop_
_atom_site_label
_atom_site_type_symbol
_atom_site_fract_x
_atom_site_fract_y
_atom_site_fract_z
_atom_site_U_iso_or_equiv
_atom_site_adp_type
_atom_site_occupancy
_atom_site_site_symmetry_order
_atom_site_calc_flag
_atom_site_refinement_flags_posn
_atom_site_refinement_flags_adp
_atom_site_refinement_flags_occupancy
_atom_site_disorder_assembly
_atom_site_disorder_group
Rh1 Rh 0.000000 0.000000 1.000000 0.00756(4) Uani 1 2 d S T P . .
Na1 Na 0.500000 0.500000 0.500000 0.01231(13) Uani 1 2 d S T P . .
O1 O -0.11311(17) 0.04743(14) 0.77586(11) 0.01107(14) Uani 1 1 d . . . . .
O1A O 0.06677(18) 0.24543(15) 0.57680(11) 0.01345(15) Uani 1 1 d . . . . .
O1W O 0.04954(18) -0.28639(14) 0.90209(11) 0.01221(15) Uani 1 1 d . . . . .
H1WA H 0.150910 -0.263265 0.817245 0.018 Uiso 1 1 d R . . . .
H1WB H -0.121770 -0.398025 0.849605 0.018 Uiso 1 1 d R . . . .
O2 O 0.37559(17) 0.20081(14) 0.94881(11) 0.01078(14) Uani 1 1 d . . . . .
O2A O 0.57540(18) 0.39956(14) 0.75369(11) 0.01248(15) Uani 1 1 d . . . . .
O3W O 0.64269(18) 0.21646(15) 0.35643(12) 0.01398(16) Uani 1 1 d . . . . .
H3WA H 0.483158 0.095091 0.328138 0.021 Uiso 1 1 d R . . . .
H3WB H 0.739648 0.187651 0.428218 0.021 Uiso 1 1 d R . . . .
C1 C 0.0870(2) 0.18476(17) 0.70994(14) 0.00915(17) Uani 1 1 d . . . . .
C2 C 0.3726(2) 0.27217(17) 0.81136(14) 0.00889(17) Uani 1 1 d . . . . .
loop_
_atom_site_aniso_label
_atom_site_aniso_U_11
_atom_site_aniso_U_22
_atom_site_aniso_U_33
_atom_site_aniso_U_23
_atom_site_aniso_U_13
_atom_site_aniso_U_12
Rh1 0.00489(6) 0.00923(5) 0.00694(6) 0.00411(4) 0.00054(3) -0.00005(4)
Na1 0.0134(3) 0.0131(3) 0.0111(3) 0.0059(2) 0.0037(2) 0.0043(2)
O1 0.0071(3) 0.0145(3) 0.0092(3) 0.0061(3) 0.0004(3) 0.0000(3)
O1A 0.0118(4) 0.0161(3) 0.0105(4) 0.0066(3) -0.0005(3) 0.0018(3)
O1W 0.0092(3) 0.0116(3) 0.0136(4) 0.0025(3) 0.0012(3) 0.0013(3)
O2 0.0067(3) 0.0141(3) 0.0097(3) 0.0061(3) 0.0010(3) 0.0004(3)
O2A 0.0084(3) 0.0142(3) 0.0120(4) 0.0058(3) 0.0019(3) -0.0001(3)
O3W 0.0099(3) 0.0155(3) 0.0144(4) 0.0020(3) -0.0005(3) 0.0028(3)
C1 0.0074(4) 0.0093(4) 0.0094(4) 0.0025(3) 0.0005(3) 0.0013(3)
C2 0.0075(4) 0.0090(4) 0.0090(4) 0.0023(3) 0.0006(3) 0.0017(3)
loop_
_atom_type_symbol
_atom_type_description
_atom_type_scat_dispersion_real
_atom_type_scat_dispersion_imag
_atom_type_scat_source
C C 0.0033 0.0016 'International Tables Vol C Tables 4.2.6.8 and 6.1.1.4'
H H 0.0000 0.0000 'International Tables Vol C Tables 4.2.6.8 and 6.1.1.4'
Na Na 0.0362 0.0249 'International Tables Vol C Tables 4.2.6.8 and 6.1.1.4'
O O 0.0106 0.0060 'International Tables Vol C Tables 4.2.6.8 and 6.1.1.4'
Rh Rh -1.1178 0.9187 'International Tables Vol C Tables 4.2.6.8 and 6.1.1.4'
loop_
_geom_angle_atom_site_label_1
_geom_angle_atom_site_label_2
_geom_angle_atom_site_label_3
_geom_angle
_geom_angle_site_symmetry_1
_geom_angle_site_symmetry_3
_geom_angle_publ_flag
O1 Rh1 O1 180.00(5) . 2_557 ?
O1 Rh1 O1W 91.60(4) . . ?
O1 Rh1 O1W 88.40(4) . 2_557 ?
O1 Rh1 O1W 91.61(4) 2_557 2_557 ?
O1 Rh1 O1W 88.40(4) 2_557 . ?
O1W Rh1 O1W 180.0 2_557 . ?
O2 Rh1 O1 82.53(3) . . ?
O2 Rh1 O1 82.53(3) 2_557 2_557 ?
O2 Rh1 O1 97.47(3) . 2_557 ?
O2 Rh1 O1 97.47(3) 2_557 . ?
O2 Rh1 O1W 87.16(4) . 2_557 ?
O2 Rh1 O1W 92.84(4) 2_557 2_557 ?
O2 Rh1 O1W 87.16(4) 2_557 . ?
O2 Rh1 O1W 92.84(4) . . ?
O2 Rh1 O2 180.0 . 2_557 ?
O1A Na1 O1A 180.0 2_666 . ?
O1A Na1 C1 158.92(3) 2_666 . ?
O1A Na1 C1 21.08(3) . . ?
O1A Na1 C1 21.08(3) 2_666 2_666 ?
O1A Na1 C1 158.92(3) . 2_666 ?
O1A Na1 C2 129.98(3) 2_666 . ?
O1A Na1 C2 50.02(3) 2_666 2_666 ?
O1A Na1 C2 129.98(3) . 2_666 ?
O1A Na1 C2 50.02(3) . . ?
O2A Na1 O1A 109.20(3) . 2_666 ?
O2A Na1 O1A 109.20(3) 2_666 . ?
O2A Na1 O1A 70.80(3) . . ?
O2A Na1 O1A 70.80(3) 2_666 2_666 ?
O2A Na1 O2A 180.0 . 2_666 ?
O2A Na1 O3W 88.57(3) . 2_666 ?
O2A Na1 O3W 88.57(3) 2_666 . ?
O2A Na1 O3W 91.43(3) 2_666 2_666 ?
O2A Na1 O3W 91.43(3) . . ?
O2A Na1 C1 49.72(3) 2_666 2_666 ?
O2A Na1 C1 130.28(3) 2_666 . ?
O2A Na1 C1 130.28(3) . 2_666 ?
O2A Na1 C1 49.72(3) . . ?
O2A Na1 C2 20.79(3) 2_666 2_666 ?
O2A Na1 C2 20.79(3) . . ?
O2A Na1 C2 159.21(3) . 2_666 ?
O2A Na1 C2 159.21(3) 2_666 . ?
O3W Na1 O1A 82.45(3) 2_666 . ?
O3W Na1 O1A 97.55(3) 2_666 2_666 ?
O3W Na1 O1A 82.45(3) . 2_666 ?
O3W Na1 O1A 97.55(3) . . ?
O3W Na1 O3W 180.00(5) . 2_666 ?
O3W Na1 C1 83.20(3) . 2_666 ?
O3W Na1 C1 96.80(3) 2_666 2_666 ?
O3W Na1 C1 96.80(3) . . ?
O3W Na1 C1 83.20(3) 2_666 . ?
O3W Na1 C2 94.36(3) 2_666 2_666 ?
O3W Na1 C2 85.64(3) 2_666 . ?
O3W Na1 C2 94.36(3) . . ?
O3W Na1 C2 85.64(3) . 2_666 ?
C1 Na1 C1 180.0 . 2_666 ?
C2 Na1 C1 28.94(3) . . ?
C2 Na1 C1 151.06(3) 2_666 . ?
C2 Na1 C1 28.94(3) 2_666 2_666 ?
C2 Na1 C1 151.06(3) . 2_666 ?
C2 Na1 C2 180.0 . 2_666 ?
C1 O1 Rh1 113.28(7) . . ?
C1 O1A Na1 113.62(7) . . ?
Rh1 O1W H1WA 110.9 . . ?
Rh1 O1W H1WB 110.5 . . ?
H1WA O1W H1WB 101.3 . . ?
C2 O2 Rh1 113.24(7) . . ?
C2 O2A Na1 117.14(7) . . ?
Na1 O3W H3WA 103.6 . . ?
Na1 O3W H3WB 105.7 . . ?
H3WA O3W H3WB 108.9 . . ?
O1 C1 Na1 170.44(8) . . ?
O1 C1 C2 114.98(10) . . ?
O1A C1 Na1 45.29(6) . . ?
O1A C1 O1 125.18(10) . . ?
O1A C1 C2 119.83(10) . . ?
C2 C1 Na1 74.53(6) . . ?
O2 C2 Na1 167.65(8) . . ?
O2 C2 C1 115.82(9) . . ?
O2A C2 Na1 42.07(6) . . ?
O2A C2 O2 125.58(10) . . ?
O2A C2 C1 118.59(10) . . ?
C1 C2 Na1 76.53(6) . . ?
loop_
_geom_bond_atom_site_label_1
_geom_bond_atom_site_label_2
_geom_bond_distance
_geom_bond_site_symmetry_2
_geom_bond_publ_flag
Rh1 O1 2.0109(9) . ?
Rh1 O1 2.0109(9) 2_557 ?
Rh1 O1W 2.0272(9) . ?
Rh1 O1W 2.0272(9) 2_557 ?
Rh1 O2 2.0090(8) 2_557 ?
Rh1 O2 2.0090(8) . ?
Na1 O1A 2.4192(9) 2_666 ?
Na1 O1A 2.4192(9) . ?
Na1 O2A 2.3272(9) . ?
Na1 O2A 2.3272(9) 2_666 ?
Na1 O3W 2.4121(9) . ?
Na1 O3W 2.4121(9) 2_666 ?
Na1 C1 3.1186(11) . ?
Na1 C1 3.1186(11) 2_666 ?
Na1 C2 3.0907(11) 2_666 ?
Na1 C2 3.0906(11) . ?
O1 C1 1.2866(13) . ?
O1A C1 1.2243(14) . ?
O1W H1WA 0.8870 . ?
O1W H1WB 0.9564 . ?
O2 C2 1.2773(14) . ?
O2A C2 1.2325(13) . ?
O3W H3WA 0.9016 . ?
O3W H3WB 0.8490 . ?
C1 C2 1.5516(16) . ?
loop_
_geom_torsion_atom_site_label_1
_geom_torsion_atom_site_label_2
_geom_torsion_atom_site_label_3
_geom_torsion_atom_site_label_4
_geom_torsion
_geom_torsion_site_symmetry_1
_geom_torsion_site_symmetry_2
_geom_torsion_site_symmetry_3
_geom_torsion_site_symmetry_4
_geom_torsion_publ_flag
Rh1 O1 C1 O1A -177.53(9) . . . . ?
Rh1 O1 C1 C2 3.44(12) . . . . ?
Rh1 O2 C2 Na1 178.0(3) . . . . ?
Rh1 O2 C2 O2A 179.01(9) . . . . ?
Rh1 O2 C2 C1 -2.06(12) . . . . ?
Na1 O1A C1 O1 -178.92(9) . . . . ?
Na1 O1A C1 C2 0.07(13) . . . . ?
Na1 O2A C2 O2 -179.67(8) . . . . ?
Na1 O2A C2 C1 1.43(13) . . . . ?
Na1 C1 C2 O2 -179.99(9) . . . . ?
Na1 C1 C2 O2A -0.99(9) . . . . ?
O1 C1 C2 Na1 179.04(9) . . . . ?
O1 C1 C2 O2 -0.95(14) . . . . ?
O1 C1 C2 O2A 178.05(10) . . . . ?
O1A C1 C2 Na1 -0.05(9) . . . . ?
O1A C1 C2 O2 179.96(10) . . . . ?
O1A C1 C2 O2A -1.04(16) . . . . ?

_cod_database_fobs_code 2108902
